drugbank_target|Q14573 Inositol 1,4,5-trisphosphate receptor type 3 (DB00201)
 OpenBabel12092121003D

  0  0  0     0  0            999 V3000
M  V30 BEGIN CTAB
M  V30 COUNTS 42769 43168 0 0 0
M  V30 BEGIN ATOM
M  V30 1 H -0.908 1.98254 -0.117106 0
M  V30 2 N 0 1.576 0 0
M  V30 3 C 0.933 2.03868 1.02534 0
M  V30 4 C 1.911 0.928543 1.3348 0
M  V30 5 O 3.095 1.19667 1.45644 0
M  V30 6 C 0.222 2.43627 2.35294 0
M  V30 7 C -0.732 3.65373 2.2001 0
M  V30 8 S 0.101 5.13292 1.52614 0
M  V30 9 C 1.257 5.56322 2.86805 0
M  V30 10 H 1.49 2.90518 0.631377 0
M  V30 11 H -0.977 1.52953 0.210867 0
M  V30 12 H 0.981 2.67203 3.11629 0
M  V30 13 H -0.358 1.57376 2.7183 0
M  V30 14 H -1.165 3.90944 3.18086 0
M  V30 15 H -1.563 3.418 1.51819 0
M  V30 16 H 0.729 5.58782 3.83104 0
M  V30 17 H 1.672 6.56266 2.65933 0
M  V30 18 H 2.08 4.83886 2.90714 0
M  V30 19 N 1.4781 -0.272755 1.55222 0
M  V30 20 C 2.7031 -1.02683 1.80197 0
M  V30 21 C 3.1281 -1.79142 0.573551 0
M  V30 22 O 2.4861 -1.74917 -0.476849 0
M  V30 23 C 2.5341 -1.9609 3.02624 0
M  V30 24 O 1.6381 -3.04863 2.77727 0
M  V30 25 H 0.9791 -0.293557 0.595584 0
M  V30 26 H 3.5091 -0.30159 2.02365 0
M  V30 27 H 3.5191 -2.38039 3.31363 0
M  V30 28 H 2.1941 -1.39851 3.91682 0
M  V30 29 H 0.7711 -2.67228 2.60084 0
M  V30 30 N 2.9562 -1.48159 -0.537278 0
M  V30 31 C 3.8662 -1.64807 -1.6696 0
M  V30 32 C 4.8822 -0.530651 -1.65711 0
M  V30 33 O 6.0582 -0.800784 -1.84796 0
M  V30 34 C 3.1232 -1.67708 -3.03438 0
M  V30 35 C 2.1842 -2.91025 -3.156 0
M  V30 36 C 1.4172 -2.93778 -4.45567 0
M  V30 37 O 1.6402 -2.05153 -5.3223 0
M  V30 38 O 0.5742 -3.85868 -4.61941 0
M  V30 39 H 4.4002 -2.6066 -1.55853 0
M  V30 40 H 1.9852 -1.31475 -0.709549 0
M  V30 41 H 3.8672 -1.7218 -3.84619 0
M  V30 42 H 2.5422 -0.750278 -3.14885 0
M  V30 43 H 1.4492 -2.92089 -2.33741 0
M  V30 44 H 2.7822 -3.83065 -3.09066 0
M  V30 45 N 4.4343 0.785586 -1.36625 0
M  V30 46 C 5.3673 1.90509 -1.25625 0
M  V30 47 C 6.3453 1.62 -0.139607 0
M  V30 48 O 7.5293 1.8591 -0.31141 0
M  V30 49 C 4.6563 3.25419 -0.939158 0
M  V30 50 C 3.7023 3.72856 -2.07077 0
M  V30 51 S 4.5353 3.88162 -3.68904 0
M  V30 52 C 5.6913 5.25942 -3.39317 0
M  V30 53 H 5.9243 1.99549 -2.20381 0
M  V30 54 H 3.4573 0.945226 -1.22085 0
M  V30 55 H 5.4153 4.03346 -0.763029 0
M  V30 56 H 4.0763 3.14099 -0.00931402 0
M  V30 57 H 3.2693 4.70624 -1.80357 0
M  V30 58 H 2.8713 3.01989 -2.20632 0
M  V30 59 H 5.1633 6.10651 -2.93447 0
M  V30 60 H 6.1063 5.57668 -4.36363 0
M  V30 61 H 6.5143 4.93224 -2.74573 0
M  V30 62 N 5.9124 1.20967 1.01018 0
M  V30 63 C 7.1374 1.0503 1.78839 0
M  V30 64 C 7.5624 -0.395752 1.8389 0
M  V30 65 O 6.9204 -1.28529 1.27867 0
M  V30 66 C 6.9684 1.64602 3.2084 0
M  V30 67 O 6.0724 0.887988 4.02726 0
M  V30 68 H 5.4134 0.369987 0.551367 0
M  V30 69 H 7.9434 1.60399 1.27018 0
M  V30 70 H 7.9534 1.68607 3.71532 0
M  V30 71 H 6.6284 2.69841 3.16479 0
M  V30 72 H 5.2054 0.922648 3.61305 0
M  V30 73 N 7.3905 -1.2043 1.01659 0
M  V30 74 C 8.6155 -1.94318 0.724942 0
M  V30 75 C 9.0405 -1.74266 -0.708034 0
M  V30 76 O 8.3985 -1.03694 -1.48719 0
M  V30 77 C 8.4465 -3.44486 1.06591 0
M  V30 78 O 7.5505 -4.12017 0.177599 0
M  V30 79 H 6.8915 -0.60708 0.26898 0
M  V30 80 H 9.4215 -1.52861 1.35995 0
M  V30 81 H 9.4315 -3.95106 1.01762 0
M  V30 82 H 8.1065 -3.58404 2.10997 0
M  V30 83 H 6.6835 -3.71821 0.283421 0
M  V30 84 N 8.8686 -0.792821 -1.36206 0
M  V30 85 C 10.1156 -0.366786 -1.99151 0
M  V30 86 C 10.4436 1.06243 -1.62919 0
M  V30 87 O 9.6986 1.74927 -0.877442 0
M  V30 88 C 9.9976 -0.481501 -3.54142 0
M  V30 89 C 9.6636 -1.87202 -4.10203 0
M  V30 90 C 8.3256 -2.25248 -4.25226 0
M  V30 91 C 10.6776 -2.78237 -4.40719 0
M  V30 92 C 8.0056 -3.53723 -4.68078 0
M  V30 93 C 10.3576 -4.06144 -4.85005 0
M  V30 94 C 9.0216 -4.44207 -4.98234 0
M  V30 95 H 8.2916 -0.134217 -0.728743 0
M  V30 96 H 10.9386 -1.01094 -1.62641 0
M  V30 97 H 9.2436 0.246146 -3.91026 0
M  V30 98 H 10.9406 -0.132844 -4.0078 0
M  V30 99 H 7.5306 -1.56639 -3.98951 0
M  V30 100 H 11.7146 -2.50097 -4.28679 0
M  V30 101 H 6.9706 -3.8308 -4.76508 0
M  V30 102 H 11.1446 -4.76796 -5.07581 0
M  V30 103 H 8.7716 -5.43814 -5.31197 0
M  V30 104 N 10.3467 1.47872 -0.545128 0
M  V30 105 C 11.2767 2.32661 0.197793 0
M  V30 106 C 12.2577 1.43041 0.920504 0
M  V30 107 O 13.4427 1.71912 0.90333 0
M  V30 108 C 10.5727 3.24569 1.23582 0
M  V30 109 C 9.5267 4.23333 0.630323 0
M  V30 110 C 8.8527 5.0448 1.77211 0
M  V30 111 C 10.1527 5.20704 -0.407974 0
M  V30 112 H 11.8467 2.95024 -0.510045 0
M  V30 113 H 9.3927 1.4187 -0.246731 0
M  V30 114 H 11.3457 3.8272 1.76362 0
M  V30 115 H 10.0697 2.60236 1.97344 0
M  V30 116 H 8.7287 3.6639 0.123922 0
M  V30 117 H 8.3767 4.36561 2.49847 0
M  V30 118 H 8.0767 5.71339 1.37281 0
M  V30 119 H 9.6007 5.65487 2.3034 0
M  V30 120 H 11.0147 5.7329 0.033305 0
M  V30 121 H 9.4117 5.95699 -0.725486 0
M  V30 122 H 10.4817 4.66917 -1.30828 0
M  V30 123 N 11.8248 0.280983 1.55075 0
M  V30 124 C 12.7748 -0.618585 2.19448 0
M  V30 125 C 13.7588 -1.11401 1.16098 0
M  V30 126 O 14.9508 -1.0581 1.41891 0
M  V30 127 C 12.0798 -1.79951 2.92357 0
M  V30 128 C 11.1658 -1.321 4.03002 0
M  V30 129 N 11.5568 -0.559044 5.02701 0
M  V30 130 C 9.8548 -1.60346 4.16179 0
M  V30 131 C 10.5558 -0.306722 5.80891 0
M  V30 132 N 9.5318 -0.880825 5.36416 0
M  V30 133 H 13.3338 -0.0286638 2.93886 0
M  V30 134 H 10.8478 0.0848104 1.62178 0
M  V30 135 H 12.8448 -2.45531 3.36927 0
M  V30 136 H 11.5048 -2.39333 2.19431 0
M  V30 137 H 12.5158 -0.205827 5.17491 0
M  V30 138 H 9.1928 -2.20621 3.54447 0
M  V30 139 H 10.5828 0.30391 6.71212 0
M  V30 140 N 13.3029 -1.57598 0.00835791 0
M  V30 141 C 14.5519 -1.90107 -0.673968 0
M  V30 142 C 14.8649 -0.884275 -1.7447 0
M  V30 143 O 16.0709 -1.09987 -2.48224 0
M  V30 144 C 14.5269 -3.37497 -1.24995 0
M  V30 145 C 14.1349 -4.47491 -0.2136 0
M  V30 146 C 15.8789 -3.79104 -1.90999 0
M  V30 147 C 13.7859 -5.85963 -0.80005 0
M  V30 148 H 12.7159 -0.709393 -0.255495 0
M  V30 149 H 15.3669 -1.83365 0.0702693 0
M  V30 150 H 13.7489 -3.39102 -2.04513 0
M  V30 151 H 14.9229 -4.57414 0.557596 0
M  V30 152 H 13.2379 -4.14956 0.346474 0
M  V30 153 H 15.8349 -4.79901 -2.35795 0
M  V30 154 H 16.1779 -3.1306 -2.74407 0
M  V30 155 H 16.7109 -3.79833 -1.18203 0
M  V30 156 H 13.4499 -6.555 -0.00456708 0
M  V30 157 H 12.9699 -5.79687 -1.54021 0
M  V30 158 H 14.6489 -6.33884 -1.29615 0
M  V30 159 N 14.781 0.264519 -1.55364 0
M  V30 160 C 16.029 0.993021 -1.76021 0
M  V30 161 C 16.35 1.86511 -0.569099 0
M  V30 162 O 15.62 1.91438 0.415735 0
M  V30 163 H 14.2 0.369639 -0.649135 0
M  V30 164 H 16.862 0.286707 -1.9278 0
M  V30 165 H 15.958 1.62502 -2.66457 0
M  V30 166 N 16.2591 1.48442 0.529413 0
M  V30 167 C 17.5361 1.46978 1.29062 0
M  V30 168 C 17.9161 0.181769 2.10316 0
M  V30 169 O 17.2641 -0.836481 2.12639 0
M  V30 170 C 17.4741 2.7321 2.17157 0
M  V30 171 C 18.8221 3.21562 2.77278 0
M  V30 172 O 19.8461 2.74131 2.27444 0
M  V30 173 O 18.7051 4.04094 3.67927 0
M  V30 174 H 15.7991 0.587003 0.582543 0
M  V30 175 H 18.3451 1.60676 0.546021 0
M  V30 176 H 17.1171 3.58465 1.56903 0
M  V30 177 H 16.7401 2.62235 2.98862 0
M  V30 178 N 17.7372 -0.778329 1.37039 0
M  V30 179 C 18.9862 -1.53189 1.3121 0
M  V30 180 C 19.2992 -1.95328 -0.103095 0
M  V30 181 O 20.5052 -2.70012 -0.283826 0
M  V30 182 C 18.9612 -2.76591 2.30272 0
M  V30 183 C 18.5692 -2.41577 3.77286 0
M  V30 184 C 20.3132 -3.5455 2.33441 0
M  V30 185 C 18.2202 -3.61441 4.68096 0
M  V30 186 H 17.1502 -0.5751 0.487622 0
M  V30 187 H 19.8012 -0.853101 1.62464 0
M  V30 188 H 18.1832 -3.46326 1.92027 0
M  V30 189 H 19.3572 -1.79668 4.2433 0
M  V30 190 H 17.6722 -1.76806 3.76999 0
M  V30 191 H 20.2692 -4.43628 2.98493 0
M  V30 192 H 20.6122 -3.93936 1.34611 0
M  V30 193 H 21.1452 -2.91805 2.7036 0
M  V30 194 H 17.8842 -3.27142 5.6803 0
M  V30 195 H 17.4042 -4.22478 4.25761 0
M  V30 196 H 19.0832 -4.28335 4.8491 0
M  V30 197 N 19.2153 -1.21501 -1.00376 0
M  V30 198 C 20.4613 -1.03452 -1.74429 0
M  V30 199 C 20.7943 0.430764 -1.89362 0
M  V30 200 O 20.0693 1.31962 -1.42886 0
M  V30 201 C 20.3523 -1.73375 -3.15615 0
M  V30 202 C 20.2053 -3.27431 -3.08397 0
M  V30 203 C 21.5243 -1.47732 -4.14564 0
M  V30 204 H 18.6433 -0.377226 -0.633143 0
M  V30 205 H 21.2853 -1.49693 -1.17013 0
M  V30 206 H 19.4353 -1.34064 -3.64636 0
M  V30 207 H 21.1073 -3.76119 -2.67081 0
M  V30 208 H 19.3503 -3.5767 -2.45468 0
M  V30 209 H 20.0213 -3.71524 -4.08258 0
M  V30 210 H 22.4973 -1.8186 -3.74254 0
M  V30 211 H 21.3733 -1.99169 -5.11491 0
M  V30 212 H 21.6343 -0.407589 -4.40217 0
M  V30 213 N 20.6934 1.19889 -1.02296 0
M  V30 214 C 21.9184 1.9393 -0.735237 0
M  V30 215 C 22.3434 1.74639 0.698782 0
M  V30 216 O 21.7014 1.04481 1.48167 0
M  V30 217 C 21.7494 3.43916 -1.08417 0
M  V30 218 O 20.8534 4.11917 -0.199446 0
M  V30 219 H 20.1944 0.605645 -0.272196 0
M  V30 220 H 22.7244 1.52137 -1.36804 0
M  V30 221 H 22.7344 3.9456 -1.03856 0
M  V30 222 H 21.4094 3.5728 -2.12894 0
M  V30 223 H 19.9864 3.71666 -0.303136 0
M  V30 224 N 22.1715 0.800033 1.35784 0
M  V30 225 C 23.1015 0.220184 2.3246 0
M  V30 226 C 24.0825 -0.65073 1.57161 0
M  V30 227 O 25.2675 -0.582359 1.85263 0
M  V30 228 C 22.3975 -0.637353 3.41402 0
M  V30 229 C 21.3515 0.134531 4.27789 0
M  V30 230 C 20.6775 -0.844285 5.27992 0
M  V30 231 C 21.9775 1.32979 5.05088 0
M  V30 232 H 23.6715 1.02787 2.81203 0
M  V30 233 H 21.2175 0.495717 1.35199 0
M  V30 234 H 23.1705 -1.05302 4.08031 0
M  V30 235 H 21.8945 -1.47785 2.91251 0
M  V30 236 H 20.5535 0.531296 3.6273 0
M  V30 237 H 20.2015 -1.68011 4.74111 0
M  V30 238 H 19.9015 -0.332184 5.8666 0
M  V30 239 H 21.4255 -1.2583 5.97494 0
M  V30 240 H 22.8395 0.98934 5.64699 0
M  V30 241 H 21.2365 1.77593 5.7322 0
M  V30 242 H 22.3065 2.11978 4.36111 0
M  V30 243 N 23.6496 -1.47581 0.552962 0
M  V30 244 C 24.8796 -2.06575 0.0320091 0
M  V30 245 C 25.2876 -1.4067 -1.26525 0
M  V30 246 O 24.6306 -0.495808 -1.76883 0
M  V30 247 C 24.6926 -3.58705 -0.238913 0
M  V30 248 C 24.3566 -4.46625 0.968272 0
M  V30 249 C 25.3536 -4.85 1.87274 0
M  V30 250 C 23.0386 -4.88201 1.18175 0
M  V30 251 C 25.0326 -5.63745 2.9744 0
M  V30 252 C 22.7196 -5.66712 2.28651 0
M  V30 253 C 23.7176 -6.04394 3.18114 0
M  V30 254 O 23.4056 -6.81324 4.26676 0
M  V30 255 H 23.1376 -0.674763 0.0408689 0
M  V30 256 H 25.6916 -1.90634 0.764719 0
M  V30 257 H 23.9216 -3.72844 -1.02588 0
M  V30 258 H 25.6106 -3.99735 -0.704731 0
M  V30 259 H 26.3766 -4.53482 1.71984 0
M  V30 260 H 22.2556 -4.58339 0.494593 0
M  V30 261 H 25.7996 -5.93077 3.67296 0
M  V30 262 H 21.6966 -5.97642 2.43915 0
M  V30 263 H 22.4646 -6.99712 4.24671 0
M  V30 264 N 25.1277 -0.289203 -1.54924 0
M  V30 265 C 26.0907 0.579144 -2.21762 0
M  V30 266 C 27.0907 1.07047 -1.1999 0
M  V30 267 O 28.2807 0.968384 -1.44803 0
M  V30 268 C 25.4127 1.80055 -2.8947 0
M  V30 269 H 26.6057 -0.00464908 -2.999 0
M  V30 270 H 24.1587 -0.0399306 -1.56249 0
M  V30 271 H 24.8937 2.42449 -2.15381 0
M  V30 272 H 24.6787 1.45602 -3.64064 0
M  V30 273 H 26.1687 2.41773 -3.40493 0
M  V30 274 N 26.6058 1.57591 -0.0167156 0
M  V30 275 C 27.5158 2.1291 0.98521 0
M  V30 276 C 28.5318 1.07834 1.36557 0
M  V30 277 O 29.7078 1.39826 1.44951 0
M  V30 278 C 26.7728 2.63512 2.25305 0
M  V30 279 C 25.8338 3.83256 1.93426 0
M  V30 280 C 25.0668 4.31435 3.14165 0
M  V30 281 O 25.2898 3.78851 4.26413 0
M  V30 282 O 24.2238 5.23416 2.97186 0
M  V30 283 H 28.0498 2.98772 0.544888 0
M  V30 284 H 25.6348 1.48012 0.203141 0
M  V30 285 H 27.5168 2.96183 2.99756 0
M  V30 286 H 26.1918 1.8074 2.68542 0
M  V30 287 H 25.0988 3.55531 1.16398 0
M  V30 288 H 26.4318 4.67153 1.55013 0
M  V30 289 N 28.0839 -0.256276 1.55502 0
M  V30 290 C 29.3319 -0.983672 1.76545 0
M  V30 291 C 29.6529 -1.86206 0.578982 0
M  V30 292 O 28.9229 -1.91656 -0.405577 0
M  V30 293 H 27.5029 -0.366191 0.651086 0
M  V30 294 H 30.1649 -0.276479 1.92929 0
M  V30 295 H 29.2609 -1.61087 2.67315 0
M  V30 296 N 29.562 -1.4872 -0.521534 0
M  V30 297 C 30.787 -1.61101 -1.30618 0
M  V30 298 C 31.212 -0.274611 -1.86085 0
M  V30 299 O 30.57 0.754937 -1.64834 0
M  V30 300 C 30.618 -2.66709 -2.4269 0
M  V30 301 O 29.722 -2.24456 -3.45967 0
M  V30 302 H 29.063 -0.539921 -0.386499 0
M  V30 303 H 31.593 -1.94767 -0.626645 0
M  V30 304 H 31.603 -2.88245 -2.88754 0
M  V30 305 H 30.278 -3.63727 -2.01682 0
M  V30 306 H 28.855 -2.13168 -3.05964 0
M  V30 307 N 31.0401 0.771051 -1.3745 0
M  V30 308 C 32.2861 1.5319 -1.32894 0
M  V30 309 C 32.6191 1.94008 0.0862511 0
M  V30 310 O 31.8941 1.64124 1.04373 0
M  V30 311 C 32.1771 2.79648 -2.26868 0
M  V30 312 C 32.0301 2.45079 -3.77169 0
M  V30 313 C 33.3491 3.81583 -2.19277 0
M  V30 314 H 30.4681 0.555744 -0.484064 0
M  V30 315 H 33.1101 0.884492 -1.68157 0
M  V30 316 H 31.2601 3.34891 -1.96926 0
M  V30 317 H 32.9321 1.95745 -4.1771 0
M  V30 318 H 31.1751 1.77767 -3.95704 0
M  V30 319 H 31.8461 3.35478 -4.38359 0
M  V30 320 H 34.3221 3.35835 -2.45671 0
M  V30 321 H 33.1981 4.67787 -2.87171 0
M  V30 322 H 33.4591 4.25897 -1.18592 0
M  V30 323 N 32.5182 1.22032 0.997298 0
M  V30 324 C 33.4662 0.983634 2.10778 0
M  V30 325 C 34.4602 -0.0717564 1.69248 0
M  V30 326 O 35.6662 0.080304 1.79821 0
M  V30 327 H 32.0412 0.300877 0.689186 0
M  V30 328 H 34.0122 1.92606 2.27916 0
M  V30 329 C 32.7612 0.57326 3.42942 0
M  V30 330 H 32.0842 1.37702 3.75338 0
M  V30 331 H 33.5242 0.447031 4.21637 0
M  V30 332 C 31.9832 -0.7167 3.29188 0
M  V30 333 O 32.5132 -1.77027 3.60589 0
M  V30 334 N 30.7192 -0.686167 2.82383 0
M  V30 335 H 30.2662 0.171507 2.57028 0
M  V30 336 H 30.2242 -1.54955 2.73562 0
M  V30 337 N 33.9963 -1.19345 1.0293 0
M  V30 338 C 35.2443 -1.88665 0.724574 0
M  V30 339 C 35.5653 -1.80036 -0.749144 0
M  V30 340 O 34.8353 -1.2111 -1.53978 0
M  V30 341 H 33.4153 -0.698406 0.265025 0
M  V30 342 H 36.0773 -1.44885 1.30362 0
M  V30 343 H 35.1733 -2.94987 1.01926 0
M  V30 344 N 35.4744 -0.807222 -1.35358 0
M  V30 345 C 36.7214 -0.387888 -1.9875 0
M  V30 346 C 37.0494 1.04509 -1.64037 0
M  V30 347 O 36.3044 1.73986 -0.895946 0
M  V30 348 C 36.6034 -0.519036 -3.53611 0
M  V30 349 C 36.2694 -1.91542 -4.08194 0
M  V30 350 C 34.9314 -2.29745 -4.22813 0
M  V30 351 C 37.2834 -2.82896 -4.37744 0
M  V30 352 C 34.6114 -3.58668 -4.643 0
M  V30 353 C 36.9634 -4.11265 -4.8067 0
M  V30 354 C 35.6274 -4.49466 -4.93494 0
M  V30 355 H 34.8974 -0.141938 -0.727279 0
M  V30 356 H 37.5444 -1.02814 -1.6156 0
M  V30 357 H 35.8494 0.204658 -3.91265 0
M  V30 358 H 37.5464 -0.175345 -4.00616 0
M  V30 359 H 34.1364 -1.60862 -3.97268 0
M  V30 360 H 38.3204 -2.54629 -4.26002 0
M  V30 361 H 33.5764 -3.88113 -4.72418 0
M  V30 362 H 37.7504 -4.82153 -5.02496 0
M  V30 363 H 35.3774 -5.49418 -5.25399 0
M  V30 364 N 36.9525 1.47285 -0.560781 0
M  V30 365 C 38.2015 2.01668 -0.035895 0
M  V30 366 C 38.5145 1.44021 1.32353 0
M  V30 367 O 39.7205 1.90088 1.93853 0
M  V30 368 C 38.1765 3.59897 -0.0136659 0
M  V30 369 C 37.7845 4.26536 -1.37006 0
M  V30 370 C 39.5285 4.22017 0.458425 0
M  V30 371 C 37.4355 5.76782 -1.30675 0
M  V30 372 H 36.3655 0.753938 -0.00964879 0
M  V30 373 H 39.0165 1.69243 -0.709166 0
M  V30 374 H 37.3985 3.89301 0.725325 0
M  V30 375 H 38.5725 4.0877 -2.12705 0
M  V30 376 H 36.8875 3.76419 -1.78038 0
M  V30 377 H 39.4845 5.32124 0.524247 0
M  V30 378 H 39.8275 3.89437 1.4712 0
M  V30 379 H 40.3605 3.97159 -0.225818 0
M  V30 380 H 37.0995 6.13988 -2.29564 0
M  V30 381 H 36.6195 5.96875 -0.591622 0
M  V30 382 H 38.2985 6.39063 -1.01033 0
M  V30 383 N 38.4306 0.297415 1.54768 0
M  V30 384 C 39.6556 -0.318435 2.04941 0
M  V30 385 C 40.0806 -1.4701 1.17345 0
M  V30 386 O 39.4386 -1.80436 0.176758 0
M  V30 387 C 39.4866 -0.755749 3.52592 0
M  V30 388 O 38.5906 -1.86088 3.68028 0
M  V30 389 H 37.9316 -0.062421 0.661059 0
M  V30 390 H 40.4616 0.438215 1.99852 0
M  V30 391 H 40.4716 -1.04552 3.94376 0
M  V30 392 H 39.1466 0.0867233 4.1581 0
M  V30 393 H 37.7236 -1.57193 3.38149 0
M  V30 394 N 39.9087 -1.5758 0.0250728 0
M  V30 395 C 41.1367 -1.9593 -0.664747 0
M  V30 396 C 41.5517 -0.901352 -1.65895 0
M  V30 397 O 40.9087 0.117255 -1.82123 0
M  V30 398 C 40.9597 -3.34342 -1.37468 0
M  V30 399 O 40.6807 -4.36079 -0.420324 0
M  V30 400 C 42.1817 -3.873 -2.1567 0
M  V30 401 H 39.4017 -0.645405 -0.183557 0
M  V30 402 H 41.9457 -2.04329 0.0836372 0
M  V30 403 H 40.1007 -3.27175 -2.0745 0
M  V30 404 H 40.5147 -5.16297 -0.923991 0
M  V30 405 H 41.9887 -4.86504 -2.60803 0
M  V30 406 H 42.4657 -3.21331 -2.99405 0
M  V30 407 H 43.0717 -3.97723 -1.50654 0
M  V30 408 N 41.3868 0.248026 -1.55636 0
M  V30 409 C 42.3168 1.31079 -1.93237 0
M  V30 410 C 43.2978 1.50264 -0.797174 0
M  V30 411 O 44.4828 1.62891 -1.05737 0
M  V30 412 C 41.6128 2.66575 -2.22609 0
M  V30 413 C 40.5668 2.62087 -3.3837 0
M  V30 414 C 39.8928 4.01369 -3.53281 0
M  V30 415 C 41.1928 2.19171 -4.7409 0
M  V30 416 H 42.8868 0.998556 -2.82257 0
M  V30 417 H 40.4328 0.47891 -1.35803 0
M  V30 418 H 42.3858 3.41057 -2.47503 0
M  V30 419 H 41.1098 2.99432 -1.30414 0
M  V30 420 H 39.7688 1.90063 -3.13483 0
M  V30 421 H 39.4168 4.31489 -2.58508 0
M  V30 422 H 39.1168 3.99254 -4.31127 0
M  V30 423 H 40.6408 4.77552 -3.80495 0
M  V30 424 H 42.0548 2.83384 -4.98363 0
M  V30 425 H 40.4518 2.2817 -5.5503 0
M  V30 426 H 41.5218 1.14336 -4.71227 0
M  V30 427 N 42.8649 1.48995 0.513639 0
M  V30 428 C 44.1129 1.57531 1.26604 0
M  V30 429 C 44.4339 0.258236 1.93283 0
M  V30 430 O 43.7039 -0.721502 1.8213 0
M  V30 431 H 42.2839 0.580387 0.470276 0
M  V30 432 H 44.9459 1.85552 0.596373 0
M  V30 433 H 44.0419 2.36486 2.03669 0
M  V30 434 N 44.343 -0.763751 1.37857 0
M  V30 435 C 45.273 -1.89103 1.36975 0
M  V30 436 C 46.254 -1.68439 0.237152 0
M  V30 437 O 47.439 -1.8918 0.438713 0
M  V30 438 C 44.569 -3.26496 1.18395 0
M  V30 439 C 43.523 -3.61741 2.28751 0
M  V30 440 C 42.849 -4.97762 1.95286 0
M  V30 441 C 44.149 -3.67665 3.70972 0
M  V30 442 H 45.843 -1.90099 2.31307 0
M  V30 443 H 43.389 -0.91319 1.11341 0
M  V30 444 H 45.342 -4.05003 1.16406 0
M  V30 445 H 44.066 -3.25955 0.205215 0
M  V30 446 H 42.725 -2.85547 2.29909 0
M  V30 447 H 42.373 -4.93769 0.959221 0
M  V30 448 H 42.073 -5.22313 2.69189 0
M  V30 449 H 43.597 -5.7866 1.94898 0
M  V30 450 H 45.011 -4.36307 3.719 0
M  V30 451 H 43.408 -4.03718 4.43995 0
M  V30 452 H 44.478 -2.68134 4.0402 0
M  V30 453 N 45.8211 -1.22559 -0.990812 0
M  V30 454 C 47.0671 -1.05297 -1.73322 0
M  V30 455 C 47.4001 0.410655 -1.89808 0
M  V30 456 O 46.6751 1.30439 -1.44277 0
M  V30 457 C 46.9581 -1.76713 -3.13759 0
M  V30 458 C 46.8111 -3.30684 -3.04907 0
M  V30 459 C 48.1301 -1.52121 -4.12974 0
M  V30 460 H 45.2491 -0.38392 -0.629106 0
M  V30 461 H 47.8911 -1.50926 -1.15418 0
M  V30 462 H 46.0411 -1.37924 -3.63193 0
M  V30 463 H 47.7131 -3.7893 -2.63077 0
M  V30 464 H 45.9561 -3.60253 -2.41661 0
M  V30 465 H 46.6271 -3.75833 -4.04294 0
M  V30 466 H 49.1031 -1.85819 -3.72304 0
M  V30 467 H 47.9791 -2.04582 -5.0935 0
M  V30 468 H 48.2401 -0.454257 -4.3976 0
M  V30 469 N 47.2992 1.18797 -1.03562 0
M  V30 470 C 48.5762 1.84469 -0.650434 0
M  V30 471 C 48.9562 1.92319 0.870433 0
M  V30 472 O 48.3042 1.44528 1.76986 0
M  V30 473 C 48.5142 3.2306 -1.32036 0
M  V30 474 C 49.8622 3.9915 -1.44792 0
M  V30 475 O 50.8862 3.32481 -1.27806 0
M  V30 476 O 49.7452 5.18587 -1.72423 0
M  V30 477 H 46.8392 0.795251 -0.226946 0
M  V30 478 H 49.3852 1.26231 -1.13419 0
M  V30 479 H 48.1572 3.1222 -2.3587 0
M  V30 480 H 47.7802 3.88949 -0.8249 0
M  V30 481 N 48.7773 0.814389 1.34928 0
M  V30 482 C 50.0543 0.321363 1.92942 0
M  V30 483 C 50.4343 -1.19014 1.74353 0
M  V30 484 O 49.7823 -1.99328 1.11716 0
M  V30 485 C 49.9923 0.741323 3.41036 0
M  V30 486 C 51.3403 0.735266 4.18185 0
M  V30 487 O 52.3643 0.68336 3.49584 0
M  V30 488 O 51.2233 0.800703 5.40602 0
M  V30 489 H 48.3173 0.0858893 0.822528 0
M  V30 490 H 50.8633 0.898609 1.43955 0
M  V30 491 H 49.6353 1.78276 3.4833 0
M  V30 492 H 49.2583 0.139307 3.97356 0
M  V30 493 N 50.2554 -1.46986 0.568584 0
M  V30 494 C 51.6714 -1.57946 0.229189 0
M  V30 495 C 51.8714 -1.56567 -1.26843 0
M  V30 496 O 50.9274 -1.47511 -2.04931 0
M  V30 497 C 52.2404 -2.87963 0.865909 0
M  V30 498 C 53.7884 -3.01568 0.838188 0
M  V30 499 C 54.2634 -4.34301 1.45419 0
M  V30 500 N 55.7544 -4.40965 1.41788 0
M  V30 501 C 56.4894 -5.42256 1.86403 0
M  V30 502 N 55.9854 -6.50297 2.38926 0
M  V30 503 N 57.7784 -5.3337 1.77405 0
M  V30 504 H 49.9294 -1.46126 1.54146 0
M  V30 505 H 52.1924 -0.696156 0.643484 0
M  V30 506 H 51.8984 -2.94742 1.91886 0
M  V30 507 H 51.7724 -3.75423 0.365687 0
M  V30 508 H 54.1594 -2.94379 -0.206106 0
M  V30 509 H 54.2404 -2.1562 1.37629 0
M  V30 510 H 53.8844 -4.42247 2.49761 0
M  V30 511 H 53.8144 -5.19 0.891435 0
M  V30 512 H 56.3054 -3.63484 1.03381 0
M  V30 513 H 56.6184 -7.23777 2.70863 0
M  V30 514 H 54.9634 -6.51155 2.42944 0
M  V30 515 H 58.1544 -4.47865 1.3614 0
M  V30 516 H 58.3274 -6.12169 2.12492 0
M  V30 517 N 51.7335 -0.305618 -1.54608 0
M  V30 518 C 52.9735 0.303114 -2.0214 0
M  V30 519 C 53.3375 1.50737 -1.18921 0
M  V30 520 O 54.5385 2.18778 -1.56172 0
M  V30 521 C 52.8095 0.646332 -3.51507 0
M  V30 522 S 54.3685 1.23727 -4.20995 0
M  V30 523 H 51.1865 0.0927643 -0.704923 0
M  V30 524 H 53.7885 -0.434566 -1.90609 0
M  V30 525 H 52.4925 -0.238541 -4.09706 0
M  V30 526 H 52.0235 1.41468 -3.67084 0
M  V30 527 H 54.0385 2.52489 -4.27158 0
M  V30 528 N 53.2116 1.57565 -0.0334293 0
M  V30 529 C 54.4576 1.92262 0.645226 0
M  V30 530 C 54.7906 0.910543 1.71531 0
M  V30 531 O 54.0656 -0.066099 1.94388 0
M  V30 532 C 54.3486 3.37422 1.2577 0
M  V30 533 C 54.2016 4.49369 0.196891 0
M  V30 534 C 55.5206 3.82628 2.17449 0
M  V30 535 H 52.6396 0.699171 0.233085 0
M  V30 536 H 55.2816 1.89779 -0.0915694 0
M  V30 537 H 53.4316 3.39669 1.88566 0
M  V30 538 H 55.1036 4.59254 -0.433962 0
M  V30 539 H 53.3466 4.31168 -0.477137 0
M  V30 540 H 54.0176 5.47978 0.665124 0
M  V30 541 H 56.4936 3.82145 1.64634 0
M  V30 542 H 55.3696 4.84883 2.57254 0
M  V30 543 H 55.6306 3.18376 3.0674 0
M  V30 544 N 54.6897 -0.239769 1.55765 0
M  V30 545 C 55.9357 -0.968234 1.78194 0
M  V30 546 C 56.2687 -1.84701 0.599938 0
M  V30 547 O 55.5437 -1.9031 -0.401524 0
M  V30 548 C 55.8267 -1.8227 3.10564 0
M  V30 549 C 55.6797 -0.971633 4.3918 0
M  V30 550 C 56.9987 -2.80388 3.39221 0
M  V30 551 H 54.1177 -0.350572 0.648281 0
M  V30 552 H 56.7597 -0.238259 1.885 0
M  V30 553 H 54.9097 -2.44507 3.01908 0
M  V30 554 H 56.5817 -0.367408 4.59835 0
M  V30 555 H 54.8247 -0.276276 4.32919 0
M  V30 556 H 55.4957 -1.60346 5.28198 0
M  V30 557 H 57.9717 -2.28287 3.47885 0
M  V30 558 H 56.8477 -3.3729 4.33044 0
M  V30 559 H 57.1087 -3.57212 2.60484 0
M  V30 560 N 56.1678 -1.49265 -0.50573 0
M  V30 561 C 57.0778 -1.68312 -1.63427 0
M  V30 562 C 58.0938 -0.565682 -1.64548 0
M  V30 563 O 59.2698 -0.839801 -1.83055 0
M  V30 564 C 56.3348 -1.74107 -2.99813 0
M  V30 565 C 55.3958 -2.97653 -3.09356 0
M  V30 566 C 54.6288 -3.03163 -4.39236 0
M  V30 567 O 54.8518 -2.16396 -5.27758 0
M  V30 568 O 53.7858 -3.9558 -4.53652 0
M  V30 569 H 57.6118 -2.63907 -1.50289 0
M  V30 570 H 55.1968 -1.32951 -0.681502 0
M  V30 571 H 57.0788 -1.803 -3.80881 0
M  V30 572 H 55.7538 -0.816901 -3.13223 0
M  V30 573 H 54.6608 -2.96981 -2.27493 0
M  V30 574 H 55.9938 -3.89535 -3.00871 0
M  V30 575 N 57.6459 0.756429 -1.3826 0
M  V30 576 C 59.0569 1.33359 -1.30661 0
M  V30 577 C 59.4079 1.96161 0.0388875 0
M  V30 578 O 58.5329 1.94874 0.940918 0
M  V30 579 C 59.1279 2.42477 -2.36622 0
M  V30 580 C 57.6869 2.95922 -2.3261 0
M  V30 581 C 56.8339 1.69275 -2.19639 0
M  V30 582 H 59.7849 0.55552 -1.4866 0
M  V30 583 H 59.8059 3.22345 -2.02174 0
M  V30 584 H 59.3179 1.96739 -3.34538 0
M  V30 585 H 57.4189 3.45996 -1.38267 0
M  V30 586 H 57.5319 3.50494 -3.26636 0
M  V30 587 H 55.8959 1.92793 -1.66442 0
M  V30 588 H 56.6789 1.25619 -3.19491 0
M  V30 589 N 59.124 1.23083 0.984299 0
M  V30 590 C 60.087 1.00979 2.05757 0
M  V30 591 C 61.087 -0.0269573 1.60777 0
M  V30 592 O 62.277 0.212403 1.729 0
M  V30 593 C 59.409 0.527072 3.36801 0
M  V30 594 H 60.602 1.9622 2.26799 0
M  V30 595 H 58.155 1.05072 1.15714 0
M  V30 596 H 58.89 -0.429294 3.21446 0
M  V30 597 H 58.675 1.27515 3.70786 0
M  V30 598 H 60.165 0.392942 4.15747 0
M  V30 599 N 60.6021 -1.18246 1.0419 0
M  V30 600 C 61.5651 -2.20128 0.638452 0
M  V30 601 C 62.5651 -1.57885 -0.304805 0
M  V30 602 O 63.7551 -1.73967 -0.0900369 0
M  V30 603 C 60.8871 -3.4084 -0.0637751 0
M  V30 604 H 62.0801 -2.57336 1.54007 0
M  V30 605 H 59.6331 -1.32152 0.834598 0
M  V30 606 H 60.3681 -3.09166 -0.979136 0
M  V30 607 H 60.1531 -3.8726 0.614198 0
M  V30 608 H 61.6431 -4.16274 -0.332512 0
M  V30 609 N 62.0802 -0.821533 -1.34494 0
M  V30 610 C 63.3282 -0.408139 -1.97936 0
M  V30 611 C 63.6492 1.03193 -1.65457 0
M  V30 612 O 62.9192 1.71622 -0.944595 0
M  V30 613 H 61.4992 -0.147928 -0.732206 0
M  V30 614 H 64.1612 -1.05067 -1.64155 0
M  V30 615 H 63.2572 -0.52601 -3.07635 0
M  V30 616 N 63.5583 1.46682 -0.576371 0
M  V30 617 C 64.8353 1.95599 0.00703437 0
M  V30 618 C 65.2153 1.51904 1.46589 0
M  V30 619 O 64.5633 0.766755 2.15251 0
M  V30 620 C 64.7733 3.4864 -0.158404 0
M  V30 621 C 66.1213 4.24594 -0.0229439 0
M  V30 622 O 67.1453 3.56094 -0.0869173 0
M  V30 623 O 66.0043 5.46373 0.118015 0
M  V30 624 H 63.0983 0.825275 0.053384 0
M  V30 625 H 65.6443 1.56996 -0.644244 0
M  V30 626 H 64.4163 3.7331 -1.17282 0
M  V30 627 H 64.0393 3.94057 0.5296 0
M  V30 628 N 65.0364 0.313813 1.54444 0
M  V30 629 C 65.9664 -0.549454 2.26943 0
M  V30 630 C 66.9474 -1.12741 1.27372 0
M  V30 631 O 68.1324 -1.15436 1.56167 0
M  V30 632 C 65.2624 -1.71523 3.01989 0
M  V30 633 C 64.2164 -1.26703 4.08816 0
M  V30 634 C 63.5424 -2.51898 4.71647 0
M  V30 635 C 64.8424 -0.388962 5.2085 0
M  V30 636 H 66.5364 0.0552661 2.99349 0
M  V30 637 H 64.0824 0.0280207 1.43973 0
M  V30 638 H 66.0354 -2.32535 3.51433 0
M  V30 639 H 64.7594 -2.34639 2.27183 0
M  V30 640 H 63.4184 -0.679896 3.6024 0
M  V30 641 H 63.0664 -3.13356 3.93468 0
M  V30 642 H 62.7664 -2.22605 5.43802 0
M  V30 643 H 64.2904 -3.1369 5.23861 0
M  V30 644 H 65.7044 -0.905107 5.6611 0
M  V30 645 H 64.1014 -0.18924 5.99802 0
M  V30 646 H 65.1714 0.582699 4.81386 0
M  V30 647 N 66.5145 -1.57545 0.0417849 0
M  V30 648 C 67.7915 -1.83642 -0.673433 0
M  V30 649 C 68.1715 -0.928298 -1.89594 0
M  V30 650 O 67.5195 0.0129955 -2.28496 0
M  V30 651 C 67.7295 -3.33155 -1.03964 0
M  V30 652 C 69.0775 -3.99941 -1.42592 0
M  V30 653 O 70.1015 -3.37725 -1.13226 0
M  V30 654 O 68.9605 -5.09619 -1.9736 0
M  V30 655 H 66.0545 -0.757638 -0.331533 0
M  V30 656 H 68.6005 -1.69554 0.070433 0
M  V30 657 H 67.3725 -3.9093 -0.170098 0
M  V30 658 H 66.9955 -3.52396 -1.84126 0
M  V30 659 N 67.9926 0.231505 -1.5589 0
M  V30 660 C 68.9406 1.30649 -1.92441 0
M  V30 661 C 69.9346 1.49037 -0.805254 0
M  V30 662 O 71.1406 1.50329 -0.990007 0
M  V30 663 H 67.5156 0.437812 -0.611412 0
M  V30 664 H 69.4866 0.970973 -2.82161 0
M  V30 665 C 68.2356 2.65179 -2.24889 0
M  V30 666 H 67.5586 2.51835 -3.10514 0
M  V30 667 H 68.9986 3.39234 -2.54355 0
M  V30 668 C 67.4576 3.19439 -1.07054 0
M  V30 669 O 67.9876 4.00371 -0.326499 0
M  V30 670 N 66.1936 2.77675 -0.85703 0
M  V30 671 H 65.7406 2.11969 -1.46379 0
M  V30 672 H 65.6986 3.14321 -0.0703223 0
M  V30 673 N 69.4707 1.49531 0.497807 0
M  V30 674 C 70.8817 1.52344 1.07927 0
M  V30 675 C 71.2327 0.311469 1.93712 0
M  V30 676 O 70.3577 -0.578405 2.08527 0
M  V30 677 C 70.9527 2.76062 1.96405 0
M  V30 678 C 69.5117 2.81643 2.49709 0
M  V30 679 C 68.6587 2.46299 1.27404 0
M  V30 680 H 71.6097 1.56182 0.281576 0
M  V30 681 H 71.6307 2.56405 2.81135 0
M  V30 682 H 71.1427 3.64254 1.33943 0
M  V30 683 H 69.2437 1.97739 3.15801 0
M  V30 684 H 69.3567 3.83891 2.86643 0
M  V30 685 H 67.7207 1.98148 1.60029 0
M  V30 686 H 68.5037 3.36769 0.66645 0
M  V30 687 N 70.9488 -0.749086 1.3866 0
M  V30 688 C 72.3598 -1.32664 1.31366 0
M  V30 689 C 72.7108 -1.96179 -0.028484 0
M  V30 690 O 71.8358 -1.9537 -0.93057 0
M  V30 691 C 72.4308 -2.41219 2.37905 0
M  V30 692 C 70.9898 -2.94684 2.34176 0
M  V30 693 C 70.1368 -1.68108 2.20533 0
M  V30 694 H 73.0878 -0.547628 1.48952 0
M  V30 695 H 73.1088 -3.21268 2.0388 0
M  V30 696 H 72.6208 -1.94962 3.35576 0
M  V30 697 H 70.7218 -3.45258 1.401 0
M  V30 698 H 70.8348 -3.48757 3.2849 0
M  V30 699 H 69.1988 -1.91907 1.67463 0
M  V30 700 H 69.9818 -1.23923 3.20153 0
M  V30 701 N 72.4269 -1.23603 -0.977757 0
M  V30 702 C 73.3739 -1.01954 -2.07061 0
M  V30 703 C 74.3439 0.0638697 -1.65977 0
M  V30 704 O 75.5289 -0.0887624 -1.90593 0
M  V30 705 C 72.6689 -0.619658 -3.39491 0
M  V30 706 C 71.7819 -1.77547 -3.93829 0
M  V30 707 C 70.9169 -1.32212 -5.14484 0
M  V30 708 C 69.9559 -2.44852 -5.60994 0
M  V30 709 N 69.0929 -2.00456 -6.72876 0
M  V30 710 H 73.9329 -1.95495 -2.24913 0
M  V30 711 H 71.4699 -0.973861 -1.10247 0
M  V30 712 H 73.4279 -0.368898 -4.15566 0
M  V30 713 H 72.0579 0.278752 -3.21594 0
M  V30 714 H 71.1099 -2.14016 -3.14486 0
M  V30 715 H 72.4219 -2.62219 -4.24314 0
M  V30 716 H 71.5759 -1.02965 -5.97899 0
M  V30 717 H 70.3149 -0.445808 -4.85658 0
M  V30 718 H 69.3199 -2.74871 -4.76157 0
M  V30 719 H 70.5449 -3.33024 -5.91837 0
M  V30 720 H 68.4909 -1.15208 -6.45804 0
M  V30 721 H 68.4079 -2.78687 -7.02759 0
M  V30 722 H 69.6759 -1.7432 -7.59758 0
M  V30 723 N 73.905 1.17692 -1.04816 0
M  V30 724 C 74.852 2.21581 -0.645797 0
M  V30 725 C 75.822 1.62367 0.350159 0
M  V30 726 O 77.007 1.89254 0.242433 0
M  V30 727 C 74.147 3.45092 -0.0227568 0
M  V30 728 C 73.26 4.18613 -1.06709 0
M  V30 729 C 72.395 5.29602 -0.411767 0
M  V30 730 C 71.434 5.94904 -1.44067 0
M  V30 731 N 70.571 6.97414 -0.809781 0
M  V30 732 H 75.411 2.55353 -1.5362 0
M  V30 733 H 72.948 1.25438 -0.768364 0
M  V30 734 H 74.906 4.15679 0.35588 0
M  V30 735 H 73.536 3.11917 0.831122 0
M  V30 736 H 72.588 3.46779 -1.5636 0
M  V30 737 H 73.9 4.63293 -1.84827 0
M  V30 738 H 73.054 6.06696 0.0206623 0
M  V30 739 H 71.793 4.86045 0.401438 0
M  V30 740 H 70.798 5.16544 -1.88316 0
M  V30 741 H 72.023 6.40542 -2.25571 0
M  V30 742 H 69.969 6.55998 -0.0170186 0
M  V30 743 H 69.886 7.40386 -1.52856 0
M  V30 744 H 71.154 7.78463 -0.401999 0
M  V30 745 N 75.3831 0.828654 1.34056 0
M  V30 746 C 76.6301 0.419458 1.98108 0
M  V30 747 C 76.9581 -1.01886 1.65679 0
M  V30 748 O 76.2131 -1.72539 0.923512 0
M  V30 749 C 76.5121 0.575226 3.52741 0
M  V30 750 C 76.1781 1.98012 4.05095 0
M  V30 751 C 74.8401 2.36442 4.19104 0
M  V30 752 C 77.1921 2.89824 4.33188 0
M  V30 753 C 74.5201 3.66009 4.58535 0
M  V30 754 C 76.8721 4.1886 4.74066 0
M  V30 755 C 75.5361 4.5726 4.86281 0
M  V30 756 H 74.8061 0.153491 0.724929 0
M  V30 757 H 77.4531 1.05371 1.59904 0
M  V30 758 H 75.7581 -0.142385 3.91541 0
M  V30 759 H 77.4551 0.239057 4.00287 0
M  V30 760 H 74.0451 1.67162 3.94658 0
M  V30 761 H 78.2291 2.61375 4.21897 0
M  V30 762 H 73.4851 3.95579 4.66184 0
M  V30 763 H 77.6591 4.90086 4.94761 0
M  V30 764 H 75.2861 5.57707 5.16592 0
M  V30 765 N 76.8612 -1.46375 0.584142 0
M  V30 766 C 78.2772 -1.57694 0.245929 0
M  V30 767 C 78.4772 -1.57903 -1.25175 0
M  V30 768 O 77.5332 -1.49676 -2.03355 0
M  V30 769 C 78.8462 -2.87028 0.896402 0
M  V30 770 C 80.3942 -3.00662 0.870127 0
M  V30 771 C 80.8692 -4.32734 1.50017 0
M  V30 772 N 82.3602 -4.39436 1.46458 0
M  V30 773 C 83.0952 -5.40248 1.92144 0
M  V30 774 N 82.5912 -6.47726 2.4581 0
M  V30 775 N 84.3842 -5.31459 1.83052 0
M  V30 776 H 76.5352 -1.44483 1.55687 0
M  V30 777 H 78.7982 -0.689291 0.650831 0
M  V30 778 H 78.5042 -2.9269 1.95002 0
M  V30 779 H 78.3782 -3.75014 0.405486 0
M  V30 780 H 80.7652 -2.94581 -0.174871 0
M  V30 781 H 80.8462 -2.14148 1.39908 0
M  V30 782 H 80.4902 -4.39573 2.54437 0
M  V30 783 H 80.4202 -5.18025 0.946432 0
M  V30 784 H 82.9112 -3.62367 1.07231 0
M  V30 785 H 83.2242 -7.20863 2.78525 0
M  V30 786 H 81.5692 -6.48542 2.49836 0
M  V30 787 H 84.7602 -4.46396 1.40883 0
M  V30 788 H 84.9332 -6.09881 2.18973 0
M  V30 789 N 78.3393 -0.321999 -1.54275 0
M  V30 790 C 79.6163 0.335232 -1.92706 0
M  V30 791 C 79.9963 1.70006 -1.25145 0
M  V30 792 O 79.3443 2.25067 -0.394596 0
M  V30 793 C 79.5543 0.429008 -3.46353 0
M  V30 794 C 80.9023 0.690029 -4.18956 0
M  V30 795 O 81.9263 0.511992 -3.52501 0
M  V30 796 O 80.7853 1.03338 -5.36641 0
M  V30 797 H 77.8793 0.191143 -0.804608 0
M  V30 798 H 80.4253 -0.3716 -1.65581 0
M  V30 799 H 79.1973 -0.529611 -3.87699 0
M  V30 800 H 78.8203 1.18348 -3.79578 0
M  V30 801 N 79.8174 1.5752 -0.0501392 0
M  V30 802 C 81.0574 1.94521 0.627783 0
M  V30 803 C 81.4214 0.928265 1.68069 0
M  V30 804 O 82.6224 1.18517 2.41261 0
M  V30 805 C 80.8934 3.36319 1.20932 0
M  V30 806 S 82.4524 3.95272 1.90539 0
M  V30 807 H 79.2704 0.680456 0.206158 0
M  V30 808 H 81.8724 1.95139 -0.118829 0
M  V30 809 H 80.5764 4.08132 0.430865 0
M  V30 810 H 80.1074 3.39193 1.99277 0
M  V30 811 H 82.1224 3.80415 3.18589 0
M  V30 812 N 81.2955 -0.223234 1.56011 0
M  V30 813 C 82.2255 -1.27988 1.95298 0
M  V30 814 C 83.2065 -1.48976 0.820979 0
M  V30 815 O 84.3915 -1.61188 1.08315 0
M  V30 816 C 81.5215 -2.63 2.26822 0
M  V30 817 C 80.4755 -2.56671 3.42497 0
M  V30 818 C 79.8015 -3.95697 3.59622 0
M  V30 819 C 81.1015 -2.11601 4.77517 0
M  V30 820 H 82.7955 -0.953525 2.8381 0
M  V30 821 H 80.3415 -0.457244 1.36548 0
M  V30 822 H 82.2945 -3.37077 2.52898 0
M  V30 823 H 81.0185 -2.9732 1.35161 0
M  V30 824 H 79.6775 -1.85051 3.16467 0
M  V30 825 H 79.3255 -4.27322 2.6534 0
M  V30 826 H 79.0255 -3.92345 4.37424 0
M  V30 827 H 80.5495 -4.71438 3.88044 0
M  V30 828 H 81.9635 -2.7542 5.02809 0
M  V30 829 H 80.3605 -2.19311 5.5859 0
M  V30 830 H 81.4305 -1.06824 4.72987 0
M  V30 831 N 82.7736 -1.49793 -0.48987 0
M  V30 832 C 84.0206 -1.59841 -1.24327 0
M  V30 833 C 84.3486 -0.290135 -1.92324 0
M  V30 834 O 83.6036 0.722749 -1.81865 0
M  V30 835 C 83.9026 -2.71488 -2.32441 0
M  V30 836 C 83.5686 -4.12614 -1.81826 0
M  V30 837 C 82.2306 -4.51017 -1.67742 0
M  V30 838 C 84.5826 -5.00892 -1.4407 0
M  V30 839 C 81.9106 -5.75459 -1.14297 0
M  V30 840 C 84.2626 -6.25863 -0.920742 0
M  V30 841 C 82.9266 -6.63086 -0.766383 0
M  V30 842 H 82.1966 -0.584899 -0.454944 0
M  V30 843 H 84.8436 -1.83663 -0.542215 0
M  V30 844 H 83.1486 -2.4168 -3.0838 0
M  V30 845 H 84.8456 -2.76469 -2.90458 0
M  V30 846 H 81.4356 -3.82307 -1.93751 0
M  V30 847 H 85.6196 -4.7187 -1.53794 0
M  V30 848 H 80.8756 -6.02989 -1.01068 0
M  V30 849 H 85.0496 -6.9364 -0.619448 0
M  V30 850 H 82.6766 -7.59393 -0.350083 0
M  V30 851 N 84.2517 0.741722 -1.39055 0
M  V30 852 C 85.1987 1.85566 -1.37237 0
M  V30 853 C 86.1687 1.64457 -0.233072 0
M  V30 854 O 87.3537 1.85957 -0.427147 0
M  V30 855 C 84.4937 3.23004 -1.215 0
M  V30 856 C 83.6067 3.55864 -2.44918 0
M  V30 857 C 82.7417 4.82669 -2.21821 0
M  V30 858 C 81.7807 5.08351 -3.40948 0
M  V30 859 N 80.9177 6.26356 -3.17211 0
M  V30 860 H 85.7577 1.86455 -2.32462 0
M  V30 861 H 83.2947 0.911176 -1.15482 0
M  V30 862 H 85.2527 4.02331 -1.10389 0
M  V30 863 H 83.8827 3.21411 -0.29908 0
M  V30 864 H 82.9347 2.7129 -2.66657 0
M  V30 865 H 84.2467 3.70765 -3.33668 0
M  V30 866 H 83.4007 5.69962 -2.07914 0
M  V30 867 H 82.1397 4.69929 -1.30454 0
M  V30 868 H 81.1447 4.19522 -3.55361 0
M  V30 869 H 82.3697 5.22981 -4.33207 0
M  V30 870 H 80.3157 6.14917 -2.28502 0
M  V30 871 H 80.2327 6.41813 -3.99515 0
M  V30 872 H 81.5007 7.16506 -3.06984 0
M  V30 873 N 85.7298 1.2412 0.971189 0
M  V30 874 C 86.9758 1.08041 1.71625 0
M  V30 875 C 87.3088 -0.380407 1.90438 0
M  V30 876 O 86.5838 -1.28127 1.46334 0
M  V30 877 C 86.8668 1.81682 3.10908 0
M  V30 878 C 86.7198 3.35493 2.99608 0
M  V30 879 C 88.0388 1.58671 4.10501 0
M  V30 880 H 85.1578 0.39388 0.622919 0
M  V30 881 H 87.7998 1.52743 1.13003 0
M  V30 882 H 85.9498 1.43684 3.60953 0
M  V30 883 H 87.6218 3.83068 2.57015 0
M  V30 884 H 85.8648 3.64052 2.35899 0
M  V30 885 H 86.5358 3.82217 3.98264 0
M  V30 886 H 89.0118 1.91719 3.69301 0
M  V30 887 H 87.8878 2.1266 5.06031 0
M  V30 888 H 88.1488 0.524161 4.38982 0
M  V30 889 N 87.2079 -1.17134 1.05439 0
M  V30 890 C 88.4479 -1.89137 0.77502 0
M  V30 891 C 88.8119 -1.79345 -0.685526 0
M  V30 892 O 90.0129 -2.46188 -1.0791 0
M  V30 893 C 88.2839 -3.35003 1.2453 0
M  V30 894 S 89.8429 -4.24952 1.09367 0
M  V30 895 H 86.6609 -0.652949 0.281387 0
M  V30 896 H 89.2629 -1.4145 1.34953 0
M  V30 897 H 87.9669 -3.39666 2.30338 0
M  V30 898 H 87.4979 -3.87736 0.665166 0
M  V30 899 H 89.5129 -4.96196 0.0193397 0
M  V30 900 N 88.686 -0.835752 -1.33615 0
M  V30 901 C 90.097 -0.487099 -1.80234 0
M  V30 902 C 90.448 0.993627 -1.69179 0
M  V30 903 O 89.573 1.77403 -1.23924 0
M  V30 904 C 90.168 -0.877385 -3.27242 0
M  V30 905 C 88.727 -0.580915 -3.7189 0
M  V30 906 C 87.874 -1.0874 -2.5509 0
M  V30 907 H 90.825 -1.02474 -1.2118 0
M  V30 908 H 90.846 -0.186195 -3.80044 0
M  V30 909 H 90.358 -1.95512 -3.35256 0
M  V30 910 H 88.459 0.486881 -3.69405 0
M  V30 911 H 88.572 -1.13396 -4.65487 0
M  V30 912 H 86.936 -0.508392 -2.49575 0
M  V30 913 H 87.719 -2.17184 -2.65868 0
M  V30 914 N 90.1641 1.46063 -0.591896 0
M  V30 915 C 91.0971 2.27452 0.184617 0
M  V30 916 C 92.0751 1.36188 0.888351 0
M  V30 917 O 93.2591 1.65606 0.90039 0
M  V30 918 C 90.3861 3.14162 1.26571 0
M  V30 919 C 89.4321 4.21255 0.666814 0
M  V30 920 S 90.2651 5.33034 -0.513345 0
M  V30 921 C 91.4211 6.23311 0.56872 0
M  V30 922 H 91.6541 2.92963 -0.505939 0
M  V30 923 H 89.1871 1.49676 -0.379014 0
M  V30 924 H 91.1451 3.6468 1.88463 0
M  V30 925 H 89.8061 2.47946 1.92826 0
M  V30 926 H 88.9991 4.81788 1.47974 0
M  V30 927 H 88.6011 3.73797 0.123359 0
M  V30 928 H 90.8931 6.61758 1.45198 0
M  V30 929 H 91.8361 7.081 -7.23824e-05 0
M  V30 930 H 92.2441 5.57646 0.876996 0
M  V30 931 N 91.6422 0.330177 1.54103 0
M  V30 932 C 92.5902 -0.548226 2.26047 0
M  V30 933 C 93.5842 -1.11309 1.27698 0
M  V30 934 O 94.7902 -1.06036 1.45452 0
M  V30 935 H 91.1652 -0.195456 0.726155 0
M  V30 936 H 93.1362 0.0807567 2.98291 0
M  V30 937 C 91.8852 -1.69415 3.03634 0
M  V30 938 H 91.2082 -1.26876 3.79134 0
M  V30 939 H 92.6482 -2.28423 3.5721 0
M  V30 940 C 91.1072 -2.61569 2.12328 0
M  V30 941 O 91.6372 -3.63462 1.7105 0
M  V30 942 N 89.8432 -2.29952 1.77681 0
M  V30 943 H 89.3902 -1.47134 2.11446 0
M  V30 944 H 89.3482 -2.91871 1.16869 0
M  V30 945 N 93.1203 -1.57491 0.0584922 0
M  V30 946 C 94.5363 -1.56792 -0.298091 0
M  V30 947 C 94.7363 -1.06679 -1.70944 0
M  V30 948 O 93.7923 -0.726672 -2.41818 0
M  V30 949 C 95.1053 -3.00461 -0.119879 0
M  V30 950 C 96.6533 -3.1242 -0.190428 0
M  V30 951 C 97.1283 -4.57982 -0.0406567 0
M  V30 952 N 98.6193 -4.63099 -0.0966958 0
M  V30 953 C 99.3543 -5.734 -0.00502943 0
M  V30 954 N 98.8503 -6.9266 0.139402 0
M  V30 955 N 100.643 -5.62067 -0.0611391 0
M  V30 956 H 92.7943 -1.88386 0.98105 0
M  V30 957 H 95.0573 -0.867865 0.381463 0
M  V30 958 H 94.7633 -3.41187 0.85349 0
M  V30 959 H 94.6373 -3.66843 -0.877833 0
M  V30 960 H 97.0243 -2.71589 -1.15427 0
M  V30 961 H 97.1053 -2.48702 0.598405 0
M  V30 962 H 96.7493 -4.995 0.919897 0
M  V30 963 H 96.6793 -5.19715 -0.848727 0
M  V30 964 H 99.1703 -3.77331 -0.207277 0
M  V30 965 H 99.4833 -7.72536 0.201855 0
M  V30 966 H 97.8283 -6.94781 0.174586 0
M  V30 967 H 101.019 -4.67782 -0.172583 0
M  V30 968 H 101.192 -6.47999 0.0137562 0
M  V30 969 N 94.5984 0.214957 -1.56127 0
M  V30 970 C 95.8284 0.953707 -1.8327 0
M  V30 971 C 96.2364 1.78181 -0.636262 0
M  V30 972 O 95.5794 1.79191 0.404516 0
M  V30 973 C 95.6414 1.91516 -3.0424 0
M  V30 974 C 95.3054 1.27094 -4.38972 0
M  V30 975 C 96.3024 0.657575 -5.15725 0
M  V30 976 C 93.9874 1.28073 -4.85698 0
M  V30 977 C 95.9814 0.0625968 -6.37369 0
M  V30 978 C 93.6684 0.681914 -6.07283 0
M  V30 979 C 94.6664 0.0739046 -6.8296 0
M  V30 980 O 94.3544 -0.515582 -8.02245 0
M  V30 981 H 94.0864 0.284764 -0.613095 0
M  V30 982 H 96.6404 0.233283 -2.04071 0
M  V30 983 H 94.8704 2.67475 -2.79274 0
M  V30 984 H 96.5594 2.52001 -3.18198 0
M  V30 985 H 97.3254 0.642288 -4.80728 0
M  V30 986 H 93.2044 1.74337 -4.26764 0
M  V30 987 H 96.7484 -0.412593 -6.96379 0
M  V30 988 H 92.6454 0.694636 -6.41752 0
M  V30 989 H 93.4134 -0.410544 -8.1747 0
M  V30 990 N 96.0765 1.50051 0.48192 0
M  V30 991 C 97.3015 1.64508 1.26301 0
M  V30 992 C 97.7265 0.323851 1.85291 0
M  V30 993 O 97.0845 -0.710969 1.66778 0
M  V30 994 C 97.1325 2.7305 2.35533 0
M  V30 995 O 96.2365 2.3355 3.39895 0
M  V30 996 H 95.5775 0.549978 0.372048 0
M  V30 997 H 98.1075 1.9636 0.574786 0
M  V30 998 H 98.1175 2.95799 2.8101 0
M  V30 999 H 96.7925 3.68946 1.91967 0
M  V30 1000 H 95.3695 2.21205 3.00204 0
M  V30 1001 N 97.5546 -0.734337 1.39446 0
M  V30 1002 C 98.5176 -1.83004 1.37994 0
M  V30 1003 C 99.5176 -1.58397 0.276938 0
M  V30 1004 O 100.708 -1.65785 0.534875 0
M  V30 1005 C 97.8396 -3.20802 1.1532 0
M  V30 1006 H 99.0326 -1.85694 2.35494 0
M  V30 1007 H 96.5856 -0.938059 1.25021 0
M  V30 1008 H 97.3206 -3.23772 0.185036 0
M  V30 1009 H 97.1056 -3.4006 1.95197 0
M  V30 1010 H 98.5956 -4.00862 1.17046 0
M  V30 1011 N 99.0327 -1.24633 -0.964593 0
M  V30 1012 C 99.9647 -0.999302 -2.06268 0
M  V30 1013 C 100.978 0.0323226 -1.62768 0
M  V30 1014 O 102.167 -0.205079 -1.77318 0
M  V30 1015 C 99.2667 -0.486816 -3.35385 0
M  V30 1016 C 98.4397 -1.5823 -4.07777 0
M  V30 1017 C 97.4987 -1.07191 -5.15166 0
M  V30 1018 O 96.5247 -1.76426 -5.41168 0
M  V30 1019 N 97.7267 0.0920373 -5.80427 0
M  V30 1020 H 100.492 -1.94477 -2.28033 0
M  V30 1021 H 98.0527 -1.15704 -1.13244 0
M  V30 1022 H 100.045 -0.130066 -4.04491 0
M  V30 1023 H 98.6147 0.364459 -3.10468 0
M  V30 1024 H 97.8347 -2.11109 -3.32906 0
M  V30 1025 H 99.1227 -2.31854 -4.52903 0
M  V30 1026 H 98.5207 0.670784 -5.61709 0
M  V30 1027 H 97.0777 0.389905 -6.50633 0
M  V30 1028 N 100.511 1.16574 -1.06058 0
M  V30 1029 C 101.458 2.20883 -0.669263 0
M  V30 1030 C 102.428 1.62729 0.332918 0
M  V30 1031 O 103.613 1.895 0.222346 0
M  V30 1032 C 100.753 3.45049 -0.0593572 0
M  V30 1033 C 99.8658 4.17458 -1.11143 0
M  V30 1034 C 99.0008 5.29135 -0.467916 0
M  V30 1035 C 98.0398 5.93343 -1.50369 0
M  V30 1036 N 97.1768 6.96516 -0.883706 0
M  V30 1037 H 102.017 2.53709 -1.5632 0
M  V30 1038 H 99.5538 1.24616 -0.781625 0
M  V30 1039 H 101.512 4.16033 0.311771 0
M  V30 1040 H 100.142 3.12781 0.797992 0
M  V30 1041 H 99.1938 3.45101 -1.60029 0
M  V30 1042 H 100.506 4.61307 -1.89731 0
M  V30 1043 H 99.6598 6.06684 -0.0436871 0
M  V30 1044 H 98.3988 4.86443 0.349864 0
M  V30 1045 H 97.4038 5.14517 -1.93784 0
M  V30 1046 H 98.6288 6.38114 -2.32352 0
M  V30 1047 H 96.5748 6.55943 -0.086595 0
M  V30 1048 H 96.4918 7.38723 -1.607 0
M  V30 1049 H 97.7598 7.77993 -0.484543 0
M  V30 1050 N 101.989 0.842826 1.3317 0
M  V30 1051 C 102.921 0.236245 2.27979 0
M  V30 1052 C 103.934 -0.585282 1.51915 0
M  V30 1053 O 105.123 -0.411705 1.73687 0
M  V30 1054 C 102.223 -0.685717 3.3189 0
M  V30 1055 C 101.396 0.0973448 4.37292 0
M  V30 1056 C 100.455 -0.748565 5.20848 0
M  V30 1057 O 99.4809 -0.186339 5.68895 0
M  V30 1058 N 100.683 -2.06527 5.42519 0
M  V30 1059 H 103.448 1.05088 2.80672 0
M  V30 1060 H 101.009 0.701667 1.45905 0
M  V30 1061 H 103.001 -1.25669 3.84694 0
M  V30 1062 H 101.571 -1.40105 2.79445 0
M  V30 1063 H 100.791 0.849706 3.84933 0
M  V30 1064 H 102.079 0.635643 5.04814 0
M  V30 1065 H 101.477 -2.54554 5.05192 0
M  V30 1066 H 100.034 -2.58464 5.98364 0
M  V30 1067 N 103.467 -1.45747 0.599634 0
M  V30 1068 C 104.697 -2.06369 0.0977132 0
M  V30 1069 C 105.105 -1.44624 -1.21985 0
M  V30 1070 O 104.448 -0.551831 -1.75216 0
M  V30 1071 C 104.51 -3.59284 -0.124673 0
M  V30 1072 C 104.174 -4.43318 1.10987 0
M  V30 1073 C 105.171 -4.78796 2.02609 0
M  V30 1074 C 102.856 -4.84194 1.33647 0
M  V30 1075 C 104.85 -5.53997 3.15224 0
M  V30 1076 C 102.537 -5.5915 2.46565 0
M  V30 1077 C 103.535 -5.93968 3.37182 0
M  V30 1078 O 103.223 -6.67405 4.48136 0
M  V30 1079 H 102.955 -0.673122 0.0623153 0
M  V30 1080 H 105.509 -1.88104 0.824981 0
M  V30 1081 H 103.739 -3.75919 -0.906745 0
M  V30 1082 H 105.428 -4.01775 -0.577201 0
M  V30 1083 H 106.194 -4.47781 1.86325 0
M  V30 1084 H 102.073 -4.56534 0.64016 0
M  V30 1085 H 105.617 -5.81091 3.85978 0
M  V30 1086 H 101.514 -5.89579 2.62805 0
M  V30 1087 H 102.282 -6.85847 4.46717 0
M  V30 1088 N 104.945 -0.338344 -1.53925 0
M  V30 1089 C 106.191 0.252842 -2.01822 0
M  V30 1090 C 106.546 1.48612 -1.22197 0
M  V30 1091 O 105.839 1.89238 -0.299892 0
M  V30 1092 C 106.033 0.62448 -3.51902 0
M  V30 1093 C 105.862 -0.571235 -4.46057 0
M  V30 1094 C 104.632 -1.07493 -4.93734 0
M  V30 1095 C 106.83 -1.42807 -4.94076 0
M  V30 1096 N 104.812 -2.23351 -5.71828 0
M  V30 1097 C 106.183 -2.43362 -5.70241 0
M  V30 1098 C 108.238 -1.45412 -4.76193 0
M  V30 1099 C 106.941 -3.46346 -6.30426 0
M  V30 1100 C 108.967 -2.47274 -5.37224 0
M  V30 1101 C 108.329 -3.46555 -6.13253 0
M  V30 1102 H 104.428 0.0559669 -0.779995 0
M  V30 1103 H 107.012 -0.476732 -1.88773 0
M  V30 1104 H 105.183 1.32317 -3.65167 0
M  V30 1105 H 106.915 1.19841 -3.86549 0
M  V30 1106 H 103.67 -0.643848 -4.69203 0
M  V30 1107 H 104.094 -2.81834 -6.15548 0
M  V30 1108 H 108.736 -0.700171 -4.16962 0
M  V30 1109 H 106.454 -4.22638 -6.88769 0
M  V30 1110 H 110.04 -2.50109 -5.25297 0
M  V30 1111 H 108.92 -4.24083 -6.59638 0
M  V30 1112 N 106.423 1.57458 -0.0668435 0
M  V30 1113 C 107.37 2.12439 0.902122 0
M  V30 1114 C 108.34 1.03565 1.2986 0
M  V30 1115 O 109.525 1.312 1.38532 0
M  V30 1116 C 106.665 2.6865 2.16614 0
M  V30 1117 C 105.778 3.91663 1.82274 0
M  V30 1118 C 104.913 4.36134 3.0325 0
M  V30 1119 C 103.952 5.51808 2.64904 0
M  V30 1120 N 103.089 5.9126 3.78624 0
M  V30 1121 H 107.929 2.94934 0.426382 0
M  V30 1122 H 105.466 1.4575 0.198819 0
M  V30 1123 H 107.424 2.99346 2.90599 0
M  V30 1124 H 106.054 1.88928 2.61737 0
M  V30 1125 H 105.106 3.6746 0.983719 0
M  V30 1126 H 106.418 4.75693 1.50059 0
M  V30 1127 H 105.572 4.68465 3.85519 0
M  V30 1128 H 104.311 3.50948 3.38655 0
M  V30 1129 H 103.316 5.19133 1.81055 0
M  V30 1130 H 104.541 6.38722 2.30675 0
M  V30 1131 H 102.487 5.09024 4.138 0
M  V30 1132 H 102.404 6.70018 3.5016 0
M  V30 1133 H 103.672 6.28212 4.61486 0
M  V30 1134 N 107.901 -0.206675 1.56239 0
M  V30 1135 C 108.864 -1.23976 1.92776 0
M  V30 1136 C 109.864 -1.39041 0.807729 0
M  V30 1137 O 111.054 -1.37051 1.0753 0
M  V30 1138 C 108.186 -2.61112 2.19165 0
M  V30 1139 H 109.379 -0.927764 2.85189 0
M  V30 1140 H 106.932 -0.447718 1.4975 0
M  V30 1141 H 107.667 -2.97386 1.29352 0
M  V30 1142 H 107.452 -2.51552 3.00772 0
M  V30 1143 H 108.942 -3.35633 2.48476 0
M  V30 1144 N 109.379 -1.50304 -0.473955 0
M  V30 1145 C 110.326 -1.68959 -1.57231 0
M  V30 1146 C 111.296 -0.530899 -1.57387 0
M  V30 1147 O 112.481 -0.761133 -1.74961 0
M  V30 1148 C 109.621 -1.7871 -2.95223 0
M  V30 1149 C 108.734 -3.06061 -3.04878 0
M  V30 1150 C 107.869 -3.06626 -4.33767 0
M  V30 1151 C 106.908 -4.28443 -4.37154 0
M  V30 1152 N 106.045 -4.26763 -5.5751 0
M  V30 1153 H 110.885 -2.6273 -1.40631 0
M  V30 1154 H 108.422 -1.30241 -0.683789 0
M  V30 1155 H 110.38 -1.82344 -3.75242 0
M  V30 1156 H 109.01 -0.883806 -3.10465 0
M  V30 1157 H 108.062 -3.11911 -2.17751 0
M  V30 1158 H 109.374 -3.96039 -3.0324 0
M  V30 1159 H 108.528 -3.08973 -5.22131 0
M  V30 1160 H 107.267 -2.14473 -4.3801 0
M  V30 1161 H 106.272 -4.2631 -3.47188 0
M  V30 1162 H 107.497 -5.2182 -4.34605 0
M  V30 1163 H 105.443 -3.37462 -5.62544 0
M  V30 1164 H 105.36 -5.10507 -5.57601 0
M  V30 1165 H 106.628 -4.33253 -6.48006 0
M  V30 1166 N 110.857 0.726932 -1.39834 0
M  V30 1167 C 111.789 1.85147 -1.35104 0
M  V30 1168 C 112.802 1.60736 -0.258392 0
M  V30 1169 O 113.991 1.70821 -0.517931 0
M  V30 1170 C 111.091 3.21332 -1.07697 0
M  V30 1171 C 110.264 3.73033 -2.28396 0
M  V30 1172 C 109.323 4.87802 -1.97322 0
M  V30 1173 O 108.349 5.01043 -2.70083 0
M  V30 1174 N 109.551 5.72768 -0.944273 0
M  V30 1175 H 112.316 1.89706 -2.32017 0
M  V30 1176 H 109.877 0.908006 -1.3404 0
M  V30 1177 H 111.869 3.95691 -0.849144 0
M  V30 1178 H 110.439 3.11992 -0.194909 0
M  V30 1179 H 109.659 2.89934 -2.6708 0
M  V30 1180 H 110.947 4.0431 -3.08887 0
M  V30 1181 H 110.345 5.64669 -0.341427 0
M  V30 1182 H 108.902 6.4716 -0.776346 0
M  V30 1183 N 112.336 1.25143 0.95797 0
M  V30 1184 C 113.564 1.12424 1.73691 0
M  V30 1185 C 113.979 -0.322304 1.86029 0
M  V30 1186 O 113.336 -1.22186 1.35561 0
M  V30 1187 C 113.387 1.76933 3.15241 0
M  V30 1188 O 113.108 3.15932 3.03511 0
M  V30 1189 C 114.609 1.6995 4.09429 0
M  V30 1190 H 111.829 0.3923 0.544373 0
M  V30 1191 H 114.373 1.6544 1.20207 0
M  V30 1192 H 112.528 1.27895 3.6568 0
M  V30 1193 H 112.942 3.47598 3.9278 0
M  V30 1194 H 114.416 2.19753 5.06372 0
M  V30 1195 H 114.893 0.662619 4.34173 0
M  V30 1196 H 115.499 2.18461 3.64904 0
M  V30 1197 N 113.814 -1.1601 1.06675 0
M  V30 1198 C 114.761 -2.20525 0.680967 0
M  V30 1199 C 115.731 -1.62904 -0.324283 0
M  V30 1200 O 116.916 -1.89615 -0.212294 0
M  V30 1201 C 114.056 -3.45013 0.0776551 0
M  V30 1202 C 113.169 -4.16863 1.13355 0
M  V30 1203 C 112.304 -5.2888 0.49597 0
M  V30 1204 C 111.343 -5.92537 1.53513 0
M  V30 1205 N 110.48 -6.96038 0.920631 0
M  V30 1206 H 115.32 -2.52876 1.57663 0
M  V30 1207 H 112.857 -1.24199 0.788223 0
M  V30 1208 H 114.815 -4.16193 -0.289704 0
M  V30 1209 H 113.445 -3.132 -0.781393 0
M  V30 1210 H 112.497 -3.44248 1.61857 0
M  V30 1211 H 113.809 -4.60294 1.92174 0
M  V30 1212 H 112.963 -6.06653 0.0758604 0
M  V30 1213 H 111.702 -4.86622 -0.324062 0
M  V30 1214 H 110.707 -5.13482 1.9651 0
M  V30 1215 H 111.932 -6.36873 2.35733 0
M  V30 1216 H 109.878 -6.55888 0.12138 0
M  V30 1217 H 109.795 -7.3786 1.64616 0
M  V30 1218 H 111.063 -7.77725 0.525795 0
M  V30 1219 N 115.292 -0.849877 -1.32721 0
M  V30 1220 C 116.224 -0.248332 -2.27851 0
M  V30 1221 C 117.237 0.577218 -1.52224 0
M  V30 1222 O 118.426 0.402489 -1.73903 0
M  V30 1223 C 115.526 0.668107 -3.32249 0
M  V30 1224 C 114.699 -0.120534 -4.37234 0
M  V30 1225 C 113.758 0.720932 -5.21238 0
M  V30 1226 O 112.784 0.156166 -5.68986 0
M  V30 1227 N 113.986 2.03647 -5.43607 0
M  V30 1228 H 116.751 -1.06575 -2.80111 0
M  V30 1229 H 114.312 -0.709395 -1.45531 0
M  V30 1230 H 116.304 1.23627 -3.85355 0
M  V30 1231 H 114.874 1.38621 -2.80184 0
M  V30 1232 H 114.094 -0.870108 -3.84477 0
M  V30 1233 H 115.382 -0.662406 -5.0447 0
M  V30 1234 H 114.78 2.51871 -5.06535 0
M  V30 1235 H 113.337 2.55287 -5.99727 0
M  V30 1236 N 116.77 1.45427 -0.607355 0
M  V30 1237 C 118.047 1.9557 -0.0344566 0
M  V30 1238 C 118.427 1.54979 1.43334 0
M  V30 1239 O 117.775 0.812241 2.13576 0
M  V30 1240 C 117.985 3.48226 -0.232321 0
M  V30 1241 C 119.333 4.2445 -0.113001 0
M  V30 1242 O 120.357 3.55829 -0.162431 0
M  V30 1243 O 119.216 5.465 0.00209442 0
M  V30 1244 H 116.31 0.826222 0.0358667 0
M  V30 1245 H 118.856 1.55594 -0.6774 0
M  V30 1246 H 117.628 3.70739 -1.25174 0
M  V30 1247 H 117.251 3.95092 0.445896 0
M  V30 1248 N 118.248 0.346503 1.53744 0
M  V30 1249 C 119.195 -0.508914 2.25119 0
M  V30 1250 C 120.165 -1.09315 1.25058 0
M  V30 1251 O 121.35 -1.12921 1.53797 0
M  V30 1252 C 118.49 -1.65246 3.02965 0
M  V30 1253 C 117.603 -1.09525 4.17886 0
M  V30 1254 C 116.738 -2.20634 4.83212 0
M  V30 1255 C 115.777 -1.62279 5.90196 0
M  V30 1256 N 114.914 -2.67143 6.49291 0
M  V30 1257 H 119.754 0.106283 2.9781 0
M  V30 1258 H 117.291 0.0642227 1.4696 0
M  V30 1259 H 119.249 -2.32574 3.4636 0
M  V30 1260 H 117.879 -2.2386 2.32565 0
M  V30 1261 H 116.931 -0.312818 3.79112 0
M  V30 1262 H 118.243 -0.628444 4.94825 0
M  V30 1263 H 117.397 -2.95821 5.29693 0
M  V30 1264 H 116.136 -2.70659 4.05703 0
M  V30 1265 H 115.141 -0.855989 5.43096 0
M  V30 1266 H 116.366 -1.13102 6.69615 0
M  V30 1267 H 114.312 -3.16417 5.74645 0
M  V30 1268 H 114.229 -2.25093 7.21713 0
M  V30 1269 H 115.497 -3.4209 7.00425 0
M  V30 1270 N 119.726 -1.57421 0.075193 0
M  V30 1271 C 120.636 -2.1642 -0.905511 0
M  V30 1272 C 121.652 -1.12828 -1.32461 0
M  V30 1273 O 122.828 -1.45109 -1.39661 0
M  V30 1274 C 119.893 -2.71693 -2.15369 0
M  V30 1275 C 118.954 -3.90171 -1.79068 0
M  V30 1276 C 118.187 -4.42798 -2.97936 0
M  V30 1277 O 118.41 -3.94416 -4.12058 0
M  V30 1278 O 117.344 -5.34085 -2.77555 0
M  V30 1279 H 121.17 -3.00588 -0.433626 0
M  V30 1280 H 118.755 -1.48664 -0.148067 0
M  V30 1281 H 120.637 -3.07104 -2.88557 0
M  V30 1282 H 119.312 -1.90582 -2.61649 0
M  V30 1283 H 118.219 -3.59606 -1.03122 0
M  V30 1284 H 119.552 -4.72584 -1.37569 0
M  V30 1285 N 121.204 0.198386 -1.56346 0
M  V30 1286 C 122.151 1.24589 -1.94284 0
M  V30 1287 C 123.121 1.454 -0.802997 0
M  V30 1288 O 124.306 1.58588 -1.06087 0
M  V30 1289 C 121.446 2.58631 -2.28482 0
M  V30 1290 C 120.559 2.45426 -3.55514 0
M  V30 1291 C 119.694 3.7215 -3.79049 0
M  V30 1292 C 118.733 3.53763 -4.99518 0
M  V30 1293 N 117.87 4.72491 -5.19323 0
M  V30 1294 H 122.71 0.915356 -2.83593 0
M  V30 1295 H 120.247 0.440629 -1.40346 0
M  V30 1296 H 122.205 3.3672 -2.46324 0
M  V30 1297 H 120.835 2.89734 -1.42317 0
M  V30 1298 H 119.887 1.58652 -3.45737 0
M  V30 1299 H 121.199 2.27772 -4.43758 0
M  V30 1300 H 120.353 4.58679 -3.97113 0
M  V30 1301 H 119.092 3.92754 -2.89129 0
M  V30 1302 H 118.097 2.65619 -4.8138 0
M  V30 1303 H 119.322 3.34607 -5.90944 0
M  V30 1304 H 117.268 4.93365 -4.3235 0
M  V30 1305 H 117.185 4.5765 -6.01741 0
M  V30 1306 H 118.453 5.6038 -5.41843 0
M  V30 1307 N 122.682 1.50554 0.465978 0
M  V30 1308 C 123.931 1.61038 1.21448 0
M  V30 1309 C 124.244 0.31865 1.92987 0
M  V30 1310 O 125.45 0.302469 2.6981 0
M  V30 1311 C 123.906 2.84283 2.20706 0
M  V30 1312 C 123.514 4.20352 1.54946 0
M  V30 1313 C 125.258 3.04115 2.96166 0
M  V30 1314 C 123.165 5.34778 2.5252 0
M  V30 1315 H 122.095 0.599718 0.457005 0
M  V30 1316 H 124.746 1.7699 0.484424 0
M  V30 1317 H 123.128 2.61901 2.97025 0
M  V30 1318 H 124.302 4.53008 0.843811 0
M  V30 1319 H 122.617 4.06167 0.917475 0
M  V30 1320 H 125.214 3.86774 3.69202 0
M  V30 1321 H 125.557 2.16045 3.55852 0
M  V30 1322 H 126.09 3.26702 2.26959 0
M  V30 1323 H 122.829 6.25018 1.97566 0
M  V30 1324 H 122.349 5.06534 3.21222 0
M  V30 1325 H 124.028 5.65561 3.14245 0
M  V30 1326 N 124.16 -0.719506 1.40217 0
M  V30 1327 C 125.123 -1.8153 1.39927 0
M  V30 1328 C 126.123 -1.58095 0.293723 0
M  V30 1329 O 127.313 -1.65209 0.552429 0
M  V30 1330 C 124.445 -3.19561 1.18716 0
M  V30 1331 H 125.638 -1.83186 2.37451 0
M  V30 1332 H 123.191 -0.924746 1.26008 0
M  V30 1333 H 123.926 -3.23557 0.219366 0
M  V30 1334 H 123.711 -3.3797 1.98793 0
M  V30 1335 H 125.201 -3.99598 1.21291 0
M  V30 1336 N 125.638 -1.25649 -0.95132 0
M  V30 1337 C 126.915 -1.01361 -1.67288 0
M  V30 1338 C 127.295 0.459135 -2.06046 0
M  V30 1339 O 126.643 1.43723 -1.7764 0
M  V30 1340 C 126.853 -1.95256 -2.89268 0
M  V30 1341 C 128.201 -2.23289 -3.61147 0
M  V30 1342 O 129.225 -1.93041 -2.99355 0
M  V30 1343 O 128.084 -2.74741 -4.72419 0
M  V30 1344 H 125.178 -0.38464 -0.732107 0
M  V30 1345 H 127.724 -1.36817 -1.00395 0
M  V30 1346 H 126.496 -2.94685 -2.57442 0
M  V30 1347 H 126.119 -1.60218 -3.6389 0
M  V30 1348 N 127.117 1.15442 -1.07289 0
M  V30 1349 C 128.363 1.86489 -0.796846 0
M  V30 1350 C 128.696 1.82078 0.675371 0
M  V30 1351 O 127.971 1.24346 1.4956 0
M  V30 1352 C 128.254 3.35626 -1.30489 0
M  V30 1353 C 128.107 3.48673 -2.84161 0
M  V30 1354 C 129.426 4.30357 -0.920907 0
M  V30 1355 H 126.545 0.677144 -0.290939 0
M  V30 1356 H 129.187 1.35633 -1.33056 0
M  V30 1357 H 127.337 3.79068 -0.850883 0
M  V30 1358 H 129.009 3.14099 -3.37846 0
M  V30 1359 H 127.252 2.90253 -3.22391 0
M  V30 1360 H 127.923 4.53453 -3.14777 0
M  V30 1361 H 130.399 3.94871 -1.3121 0
M  V30 1362 H 129.275 5.33193 -1.30372 0
M  V30 1363 H 129.536 4.4176 0.173226 0
M  V30 1364 N 128.595 0.856903 1.32268 0
M  V30 1365 C 129.841 0.462069 1.97466 0
M  V30 1366 C 130.174 -0.980298 1.67642 0
M  V30 1367 O 129.449 -1.68824 0.965858 0
M  V30 1368 C 129.732 0.704336 3.53145 0
M  V30 1369 C 129.585 2.19529 3.9259 0
M  V30 1370 C 130.904 0.1622 4.39801 0
M  V30 1371 H 128.023 0.169357 0.717278 0
M  V30 1372 H 130.665 1.07574 1.56614 0
M  V30 1373 H 128.815 0.181999 3.88073 0
M  V30 1374 H 130.487 2.78387 3.67829 0
M  V30 1375 H 128.73 2.67292 3.41668 0
M  V30 1376 H 129.401 2.31549 5.01088 0
M  V30 1377 H 131.877 0.608905 4.11621 0
M  V30 1378 H 130.753 0.361265 5.4771 0
M  V30 1379 H 131.014 -0.935158 4.32096 0
M  V30 1380 N 130.073 -1.45103 0.615059 0
M  V30 1381 C 131.003 -2.33339 -0.0865619 0
M  V30 1382 C 131.984 -1.4727 -0.851209 0
M  V30 1383 O 133.169 -1.76026 -0.820281 0
M  V30 1384 C 130.299 -3.30095 -1.07956 0
M  V30 1385 C 129.253 -4.25858 -0.427628 0
M  V30 1386 C 128.579 -5.12361 -1.5294 0
M  V30 1387 C 129.879 -5.18165 0.655944 0
M  V30 1388 H 131.573 -2.92254 0.650224 0
M  V30 1389 H 129.119 -1.40532 0.314138 0
M  V30 1390 H 131.072 -3.90698 -1.57901 0
M  V30 1391 H 129.796 -2.69355 -1.84703 0
M  V30 1392 H 128.455 -3.66564 0.0510292 0
M  V30 1393 H 128.103 -4.47984 -2.28734 0
M  V30 1394 H 127.803 -5.77238 -1.09865 0
M  V30 1395 H 129.327 -5.75833 -2.03098 0
M  V30 1396 H 130.741 -5.72796 0.240257 0
M  V30 1397 H 129.138 -5.91559 1.00888 0
M  V30 1398 H 130.208 -4.60144 1.52957 0
M  V30 1399 N 131.551 -0.354651 -1.53558 0
M  V30 1400 C 132.481 0.489091 -2.2832 0
M  V30 1401 C 133.462 1.09324 -1.30316 0
M  V30 1402 O 134.647 1.11255 -1.59173 0
M  V30 1403 C 131.777 1.63456 -3.0643 0
M  V30 1404 C 130.731 1.1582 -4.12031 0
M  V30 1405 C 130.057 2.39305 -4.7816 0
M  V30 1406 C 131.357 0.250731 -5.21698 0
M  V30 1407 H 133.051 -0.134614 -2.99097 0
M  V30 1408 H 130.597 -0.0661826 -1.43848 0
M  V30 1409 H 132.55 2.23136 -3.57475 0
M  V30 1410 H 131.274 2.28533 -2.33325 0
M  V30 1411 H 129.933 0.584146 -3.61916 0
M  V30 1412 H 129.581 3.02814 -4.01637 0
M  V30 1413 H 129.281 2.08109 -5.49513 0
M  V30 1414 H 130.805 2.99691 -5.31994 0
M  V30 1415 H 132.219 0.754695 -5.68311 0
M  V30 1416 H 130.616 0.0301468 -6.00092 0
M  V30 1417 H 131.686 -0.710125 -4.79672 0
M  V30 1418 N 133.029 1.57378 -0.0835403 0
M  V30 1419 C 133.961 2.10389 0.909338 0
M  V30 1420 C 134.974 1.03858 1.25369 0
M  V30 1421 O 136.163 1.31338 1.20882 0
M  V30 1422 C 133.263 2.55908 2.2218 0
M  V30 1423 C 132.436 3.86145 2.05453 0
M  V30 1424 C 131.495 4.17633 3.20108 0
M  V30 1425 O 130.521 4.87043 2.94581 0
M  V30 1426 N 131.723 3.72113 4.45547 0
M  V30 1427 H 134.488 2.962 0.456657 0
M  V30 1428 H 132.049 1.61579 0.101877 0
M  V30 1429 H 134.041 2.74027 2.97811 0
M  V30 1430 H 132.611 1.75171 2.58909 0
M  V30 1431 H 131.831 3.7729 1.1422 0
M  V30 1432 H 133.119 4.7137 1.91541 0
M  V30 1433 H 132.517 3.16062 4.69171 0
M  V30 1434 H 131.074 3.95409 5.18165 0
M  V30 1435 N 134.507 -0.190092 1.56449 0
M  V30 1436 C 135.454 -1.23557 1.94942 0
M  V30 1437 C 136.424 -1.44972 0.810696 0
M  V30 1438 O 137.609 -1.58023 1.06927 0
M  V30 1439 C 134.749 -2.57416 2.2985 0
M  V30 1440 C 133.862 -2.43537 3.5681 0
M  V30 1441 C 132.997 -3.70134 3.81017 0
M  V30 1442 C 132.036 -3.51109 5.01387 0
M  V30 1443 N 131.173 -4.6973 5.21822 0
M  V30 1444 H 136.013 -0.900304 2.84075 0
M  V30 1445 H 133.55 -0.43318 1.40577 0
M  V30 1446 H 135.508 -3.35409 2.48106 0
M  V30 1447 H 134.138 -2.88975 1.43852 0
M  V30 1448 H 133.19 -1.56816 3.46573 0
M  V30 1449 H 134.502 -2.25415 4.4496 0
M  V30 1450 H 133.656 -4.56566 3.9954 0
M  V30 1451 H 132.395 -3.91215 2.91207 0
M  V30 1452 H 131.4 -2.63063 4.82782 0
M  V30 1453 H 132.625 -3.31468 5.9271 0
M  V30 1454 H 130.571 -4.91065 4.34961 0
M  V30 1455 H 130.488 -4.54452 6.0416 0
M  V30 1456 H 131.756 -5.57499 5.44808 0
M  V30 1457 N 135.985 -1.50799 -0.457987 0
M  V30 1458 C 136.915 -1.73553 -1.5621 0
M  V30 1459 C 137.896 -0.584774 -1.59732 0
M  V30 1460 O 139.081 -0.825314 -1.7579 0
M  V30 1461 C 136.211 -1.84169 -2.94447 0
M  V30 1462 C 135.165 -2.99461 -3.0579 0
M  V30 1463 C 134.491 -2.95235 -4.45803 0
M  V30 1464 C 135.791 -4.39766 -2.81786 0
M  V30 1465 H 137.485 -2.66 -1.37421 0
M  V30 1466 H 135.031 -1.28002 -0.659662 0
M  V30 1467 H 136.984 -1.98672 -3.71628 0
M  V30 1468 H 135.708 -0.883545 -3.14422 0
M  V30 1469 H 134.367 -2.8463 -2.31044 0
M  V30 1470 H 134.015 -1.97239 -4.62715 0
M  V30 1471 H 133.715 -3.72642 -4.54326 0
M  V30 1472 H 135.239 -3.11803 -5.24987 0
M  V30 1473 H 136.653 -4.55054 -3.4871 0
M  V30 1474 H 135.05 -5.18722 -3.0174 0
M  V30 1475 H 136.12 -4.51229 -1.7754 0
M  V30 1476 N 137.463 0.71206 -1.40597 0
M  V30 1477 C 138.395 1.83704 -1.37061 0
M  V30 1478 C 139.408 1.60453 -0.275426 0
M  V30 1479 O 140.597 1.70262 -0.53602 0
M  V30 1480 C 137.697 3.20172 -1.11099 0
M  V30 1481 C 136.87 3.7059 -2.3234 0
M  V30 1482 C 135.929 4.85681 -2.02485 0
M  V30 1483 O 134.955 4.9815 -2.75382 0
M  V30 1484 N 136.157 5.71735 -1.00497 0
M  V30 1485 H 138.922 1.87235 -2.34016 0
M  V30 1486 H 136.483 0.893739 -1.34996 0
M  V30 1487 H 138.475 3.94768 -0.891064 0
M  V30 1488 H 137.045 3.11767 -0.227989 0
M  V30 1489 H 136.265 2.87085 -2.7014 0
M  V30 1490 H 137.553 4.01011 -3.13157 0
M  V30 1491 H 136.951 5.64275 -0.401298 0
M  V30 1492 H 135.508 6.463 -0.844942 0
M  V30 1493 N 138.941 1.26152 0.944643 0
M  V30 1494 C 139.891 1.04081 2.02857 0
M  V30 1495 C 140.875 -0.0256555 1.6088 0
M  V30 1496 O 142.067 0.190884 1.75968 0
M  V30 1497 C 139.196 0.672118 3.36656 0
M  V30 1498 C 138.282 1.77586 3.85128 0
M  V30 1499 N 138.673 3.01272 4.06287 0
M  V30 1500 C 136.971 1.65867 4.1401 0
M  V30 1501 C 137.672 3.72983 4.46384 0
M  V30 1502 N 136.648 3.00653 4.52889 0
M  V30 1503 H 140.45 1.97968 2.17223 0
M  V30 1504 H 137.964 1.16618 1.13022 0
M  V30 1505 H 139.961 0.495166 4.13949 0
M  V30 1506 H 138.621 -0.259307 3.23663 0
M  V30 1507 H 139.632 3.37213 3.93075 0
M  V30 1508 H 136.309 0.796907 4.09824 0
M  V30 1509 H 137.699 4.792 4.70975 0
M  V30 1510 N 140.419 -1.14872 1.07899 0
M  V30 1511 C 141.382 -2.17986 0.708161 0
M  V30 1512 C 142.382 -1.58775 -0.25442 0
M  V30 1513 O 143.572 -1.74166 -0.034645 0
M  V30 1514 C 140.704 -3.40871 0.0446929 0
M  V30 1515 H 141.897 -2.52306 1.62116 0
M  V30 1516 H 139.45 -1.2943 0.876218 0
M  V30 1517 H 140.185 -3.12124 -0.880281 0
M  V30 1518 H 139.97 -3.8511 0.737091 0
M  V30 1519 H 141.46 -4.17121 -0.19991 0
M  V30 1520 N 141.898 -0.863906 -1.31812 0
M  V30 1521 C 142.861 -0.320212 -2.26952 0
M  V30 1522 C 143.861 0.525369 -1.51975 0
M  V30 1523 O 145.051 0.335547 -1.70938 0
M  V30 1524 C 142.183 0.545919 -3.365 0
M  V30 1525 H 143.376 -1.16004 -2.76556 0
M  V30 1526 H 140.929 -0.638995 -1.42641 0
M  V30 1527 H 141.664 1.40718 -2.92179 0
M  V30 1528 H 141.449 -0.0594674 -3.92055 0
M  V30 1529 H 142.939 0.918796 -4.07367 0
M  V30 1530 N 143.376 1.44774 -0.622745 0
M  V30 1531 C 144.308 2.28856 0.125485 0
M  V30 1532 C 145.321 1.40811 0.817069 0
M  V30 1533 O 146.51 1.65044 0.679918 0
M  V30 1534 C 143.61 3.16963 1.19949 0
M  V30 1535 C 142.783 4.33374 0.592064 0
M  V30 1536 C 141.842 5.02577 1.55893 0
M  V30 1537 O 140.868 5.58873 1.07933 0
M  V30 1538 N 142.07 5.03256 2.89334 0
M  V30 1539 H 144.835 2.93713 -0.596068 0
M  V30 1540 H 142.396 1.55129 -0.463303 0
M  V30 1541 H 144.388 3.60123 1.84644 0
M  V30 1542 H 142.958 2.53913 1.82337 0
M  V30 1543 H 142.178 3.93509 -0.233322 0
M  V30 1544 H 143.466 5.08527 0.166738 0
M  V30 1545 H 142.864 4.58836 3.30887 0
M  V30 1546 H 141.421 5.50232 3.49412 0
M  V30 1547 N 144.854 0.36279 1.53368 0
M  V30 1548 C 145.787 -0.528507 2.21996 0
M  V30 1549 C 146.765 -1.0852 1.21087 0
M  V30 1550 O 147.949 -1.14186 1.4998 0
M  V30 1551 C 145.076 -1.72893 2.91249 0
M  V30 1552 C 144.122 -1.29994 4.06207 0
M  V30 1553 S 144.955 -0.303575 5.34639 0
M  V30 1554 C 146.111 -1.51039 6.07403 0
M  V30 1555 H 146.344 0.0543423 2.9725 0
M  V30 1556 H 143.877 0.146889 1.537 0
M  V30 1557 H 145.835 -2.41751 3.31763 0
M  V30 1558 H 144.496 -2.28303 2.15724 0
M  V30 1559 H 143.689 -2.19549 4.53667 0
M  V30 1560 H 143.291 -0.690608 3.67569 0
M  V30 1561 H 145.583 -2.44186 6.31965 0
M  V30 1562 H 146.526 -1.07721 6.99858 0
M  V30 1563 H 146.934 -1.71518 5.37812 0
M  V30 1564 N 146.332 -1.57332 0.0918853 0
M  V30 1565 C 147.242 -2.17368 -0.882505 0
M  V30 1566 C 148.258 -1.14226 -1.31257 0
M  V30 1567 O 149.434 -1.46582 -1.38115 0
M  V30 1568 C 146.499 -2.73962 -2.12476 0
M  V30 1569 C 145.56 -3.92048 -1.7492 0
M  V30 1570 C 144.793 -4.45933 -2.93223 0
M  V30 1571 O 145.016 -3.98764 -4.07852 0
M  V30 1572 O 143.95 -5.36999 -2.71875 0
M  V30 1573 H 147.776 -3.01031 -0.40172 0
M  V30 1574 H 145.361 -1.48813 -0.132291 0
M  V30 1575 H 147.243 -3.10147 -2.85283 0
M  V30 1576 H 145.918 -1.93347 -2.59613 0
M  V30 1577 H 144.825 -3.6068 -0.993025 0
M  V30 1578 H 146.158 -4.74017 -1.32548 0
M  V30 1579 N 147.81 0.181792 -1.56548 0
M  V30 1580 C 148.742 1.24956 -1.92142 0
M  V30 1581 C 149.755 1.41022 -0.813422 0
M  V30 1582 O 150.944 1.41212 -1.09186 0
M  V30 1583 C 148.044 2.61981 -2.14987 0
M  V30 1584 C 147.217 2.6735 -3.46183 0
M  V30 1585 C 146.276 3.85664 -3.5798 0
M  V30 1586 O 145.302 3.72148 -4.30691 0
M  V30 1587 N 146.504 5.01683 -2.92053 0
M  V30 1588 H 149.269 0.947329 -2.84334 0
M  V30 1589 H 146.83 0.371629 -1.57577 0
M  V30 1590 H 148.822 3.3958 -2.20154 0
M  V30 1591 H 147.392 2.84637 -1.2923 0
M  V30 1592 H 146.612 1.75925 -3.52766 0
M  V30 1593 H 147.9 2.67939 -4.32534 0
M  V30 1594 H 147.298 5.15564 -2.32832 0
M  V30 1595 H 145.855 5.77181 -3.0283 0
M  V30 1596 N 149.288 1.51039 0.449983 0
M  V30 1597 C 150.235 1.71439 1.54523 0
M  V30 1598 C 151.205 0.555871 1.56522 0
M  V30 1599 O 152.39 0.788871 1.73728 0
M  V30 1600 C 149.53 1.83384 2.92343 0
M  V30 1601 C 148.643 3.10873 2.9997 0
M  V30 1602 C 147.778 3.13488 4.28834 0
M  V30 1603 C 146.817 4.35343 4.30282 0
M  V30 1604 N 145.954 4.35579 5.5065 0
M  V30 1605 H 150.794 2.64934 1.36433 0
M  V30 1606 H 148.331 1.31312 0.662982 0
M  V30 1607 H 150.289 1.88291 3.72293 0
M  V30 1608 H 148.919 0.933086 3.0902 0
M  V30 1609 H 147.971 3.15336 2.12761 0
M  V30 1610 H 149.283 4.00814 2.96901 0
M  V30 1611 H 148.437 3.17241 5.17149 0
M  V30 1612 H 147.176 2.21414 4.34543 0
M  V30 1613 H 146.181 4.3178 3.40362 0
M  V30 1614 H 147.406 5.28668 4.26248 0
M  V30 1615 H 145.352 3.46369 5.57104 0
M  V30 1616 H 145.269 5.19313 5.49409 0
M  V30 1617 H 146.537 4.43507 6.41032 0
M  V30 1618 N 150.766 -0.704594 1.40972 0
M  V30 1619 C 151.698 -1.82974 1.38033 0
M  V30 1620 C 152.711 -1.60305 0.283931 0
M  V30 1621 O 153.9 -1.69975 0.545042 0
M  V30 1622 C 151 -3.19578 1.12795 0
M  V30 1623 C 150.173 -3.69352 2.34302 0
M  V30 1624 C 149.232 -4.84601 2.05058 0
M  V30 1625 O 148.258 -4.96682 2.7802 0
M  V30 1626 N 149.46 -5.71194 1.03528 0
M  V30 1627 H 152.225 -1.85991 2.35005 0
M  V30 1628 H 149.786 -0.886567 1.35468 0
M  V30 1629 H 151.778 -3.9429 0.911987 0
M  V30 1630 H 150.348 -3.11642 0.24452 0
M  V30 1631 H 149.568 -2.85649 2.71659 0
M  V30 1632 H 150.856 -3.99345 3.1528 0
M  V30 1633 H 150.254 -5.64054 0.431217 0
M  V30 1634 H 148.811 -6.45843 0.879205 0
M  V30 1635 N 152.244 -1.26651 -0.937939 0
M  V30 1636 C 153.192 -1.08308 -2.05845 0
M  V30 1637 C 154.186 -0.0090757 -1.69398 0
M  V30 1638 O 155.392 -0.166007 -1.79233 0
M  V30 1639 H 151.767 -0.333416 -0.674046 0
M  V30 1640 H 153.738 -2.03261 -2.18467 0
M  V30 1641 C 152.487 -0.736229 -3.39816 0
M  V30 1642 H 151.81 -1.55453 -3.6834 0
M  V30 1643 H 153.25 -0.64769 -4.19024 0
M  V30 1644 C 151.709 0.558824 -3.32233 0
M  V30 1645 O 152.239 1.59621 -3.68624 0
M  V30 1646 N 150.445 0.550657 -2.85335 0
M  V30 1647 H 149.992 -0.293943 -2.55917 0
M  V30 1648 H 149.95 1.41726 -2.80644 0
M  V30 1649 N 153.722 1.14298 -1.08507 0
M  V30 1650 C 154.999 1.81544 -0.728088 0
M  V30 1651 C 155.379 1.95838 0.78808 0
M  V30 1652 O 154.727 1.51904 1.70697 0
M  V30 1653 C 154.937 3.17169 -1.45619 0
M  V30 1654 C 156.285 3.9265 -1.61591 0
M  V30 1655 O 157.309 3.26762 -1.41793 0
M  V30 1656 O 156.168 5.10807 -1.94263 0
M  V30 1657 H 153.262 0.78491 -0.260471 0
M  V30 1658 H 155.808 1.21307 -1.18671 0
M  V30 1659 H 154.58 3.01934 -2.489 0
M  V30 1660 H 154.203 3.851 -0.989124 0
M  V30 1661 N 155.201 0.870884 1.31352 0
M  V30 1662 C 156.429 0.49677 2.00848 0
M  V30 1663 C 156.844 -0.910998 1.65367 0
M  V30 1664 O 156.201 -1.59696 0.883374 0
M  V30 1665 C 156.252 0.645308 3.55694 0
M  V30 1666 O 155.973 1.99764 3.89905 0
M  V30 1667 C 157.474 0.272326 4.42463 0
M  V30 1668 H 154.694 0.193462 0.642506 0
M  V30 1669 H 157.238 1.1723 1.67563 0
M  V30 1670 H 155.393 0.0173176 3.87396 0
M  V30 1671 H 155.807 2.00607 4.84621 0
M  V30 1672 H 157.281 0.427208 5.50344 0
M  V30 1673 H 157.758 -0.788587 4.32062 0
M  V30 1674 H 158.364 0.876054 4.1618 0
M  V30 1675 N 156.679 -1.44442 0.630414 0
M  V30 1676 C 157.589 -2.34476 -0.0761693 0
M  V30 1677 C 158.605 -1.52576 -0.836449 0
M  V30 1678 O 159.781 -1.85307 -0.788874 0
M  V30 1679 C 156.846 -3.30545 -1.04599 0
M  V30 1680 C 155.907 -4.28352 -0.28516 0
M  V30 1681 C 155.14 -5.19831 -1.20878 0
M  V30 1682 O 155.363 -5.15223 -2.44747 0
M  V30 1683 O 154.297 -5.97892 -0.693491 0
M  V30 1684 H 158.123 -2.96345 0.664324 0
M  V30 1685 H 155.708 -1.44203 0.39061 0
M  V30 1686 H 157.59 -3.89681 -1.60396 0
M  V30 1687 H 156.265 -2.7121 -1.76711 0
M  V30 1688 H 155.172 -3.72764 0.315837 0
M  V30 1689 H 156.505 -4.90605 0.395924 0
M  V30 1690 N 158.157 -0.370918 -1.53173 0
M  V30 1691 C 159.105 0.488101 -2.27421 0
M  V30 1692 C 160.099 1.07884 -1.30604 0
M  V30 1693 O 161.305 1.02143 -1.48212 0
M  V30 1694 H 157.68 0.176134 -0.731082 0
M  V30 1695 H 159.651 -0.159815 -2.97972 0
M  V30 1696 C 158.4 1.61306 -3.08019 0
M  V30 1697 H 157.723 1.1678 -3.82364 0
M  V30 1698 H 159.163 2.18872 -3.63141 0
M  V30 1699 C 157.622 2.55848 -2.19188 0
M  V30 1700 O 158.152 3.58799 -1.80626 0
M  V30 1701 N 156.358 2.2516 -1.83715 0
M  V30 1702 H 155.905 1.41476 -2.15273 0
M  V30 1703 H 155.863 2.8867 -1.24567 0
M  V30 1704 N 159.635 1.57281 -0.100228 0
M  V30 1705 C 160.582 2.14305 0.856858 0
M  V30 1706 C 161.552 1.06296 1.27634 0
M  V30 1707 O 162.737 1.34109 1.35718 0
M  V30 1708 C 159.877 2.73184 2.10866 0
M  V30 1709 C 158.99 3.95442 1.73925 0
M  V30 1710 C 158.125 4.42468 2.93931 0
M  V30 1711 C 157.164 5.57303 2.5314 0
M  V30 1712 N 156.301 5.99158 3.65997 0
M  V30 1713 H 161.141 2.95772 0.363726 0
M  V30 1714 H 158.678 1.46139 0.167858 0
M  V30 1715 H 160.636 3.05442 2.84185 0
M  V30 1716 H 159.266 1.94437 2.57671 0
M  V30 1717 H 158.318 3.69464 0.905554 0
M  V30 1718 H 159.63 4.78769 1.39935 0
M  V30 1719 H 158.784 4.76537 3.75496 0
M  V30 1720 H 157.523 3.58052 3.31134 0
M  V30 1721 H 156.528 5.22857 1.70003 0
M  V30 1722 H 157.753 6.43471 2.17075 0
M  V30 1723 H 155.699 5.17687 4.02909 0
M  V30 1724 H 155.616 6.77295 3.35869 0
M  V30 1725 H 156.884 6.3786 4.48057 0
M  V30 1726 N 161.113 -0.173488 1.56642 0
M  V30 1727 C 162.06 -1.21482 1.96242 0
M  V30 1728 C 163.03 -1.44104 0.826027 0
M  V30 1729 O 164.215 -1.5688 1.08597 0
M  V30 1730 C 161.355 -2.54964 2.32567 0
M  V30 1731 C 160.468 -2.39739 3.59373 0
M  V30 1732 C 159.603 -3.66072 3.84921 0
M  V30 1733 C 158.642 -3.45771 5.05083 0
M  V30 1734 N 157.779 -4.64169 5.26775 0
M  V30 1735 H 162.619 -0.870123 2.85014 0
M  V30 1736 H 160.156 -0.418245 1.41029 0
M  V30 1737 H 162.114 -3.32758 2.5165 0
M  V30 1738 H 160.744 -2.87433 1.46908 0
M  V30 1739 H 159.796 -1.53131 3.48217 0
M  V30 1740 H 161.108 -2.20683 4.47326 0
M  V30 1741 H 160.262 -4.52303 4.0436 0
M  V30 1742 H 159.001 -3.88105 2.9534 0
M  V30 1743 H 158.006 -2.57927 4.85545 0
M  V30 1744 H 159.231 -3.25163 5.96193 0
M  V30 1745 H 157.177 -4.86425 4.40144 0
M  V30 1746 H 157.094 -4.48019 6.08946 0
M  V30 1747 H 158.362 -5.51689 5.5069 0
M  V30 1748 N 162.591 -1.51276 -0.441967 0
M  V30 1749 C 163.837 -1.63958 -1.19355 0
M  V30 1750 C 164.17 -0.352543 -1.90973 0
M  V30 1751 O 163.445 0.647627 -1.83401 0
M  V30 1752 C 163.728 -2.83979 -2.21422 0
M  V30 1753 C 163.581 -4.22646 -1.53918 0
M  V30 1754 C 164.9 -2.99521 -3.22451 0
M  V30 1755 H 162.019 -0.596709 -0.432559 0
M  V30 1756 H 164.661 -1.83748 -0.483398 0
M  V30 1757 H 162.811 -2.67237 -2.81987 0
M  V30 1758 H 164.483 -4.51045 -0.967256 0
M  V30 1759 H 162.726 -4.25558 -0.841615 0
M  V30 1760 H 163.397 -5.02609 -2.28229 0
M  V30 1761 H 165.873 -3.14944 -2.71937 0
M  V30 1762 H 164.749 -3.85072 -3.91166 0
M  V30 1763 H 165.01 -2.11391 -3.88287 0
M  V30 1764 N 164.069 0.697108 -1.41344 0
M  V30 1765 C 165.019 1.80313 -1.39539 0
M  V30 1766 C 166.003 1.58618 -0.270001 0
M  V30 1767 O 167.195 1.69477 -0.510551 0
M  V30 1768 C 164.324 3.18606 -1.27848 0
M  V30 1769 C 163.41 3.46001 -2.45244 0
M  V30 1770 N 163.801 3.44103 -3.70711 0
M  V30 1771 C 162.099 3.76542 -2.39023 0
M  V30 1772 C 162.8 3.7036 -4.48563 0
M  V30 1773 N 161.776 3.90027 -3.78655 0
M  V30 1774 H 165.578 1.77207 -2.34468 0
M  V30 1775 H 163.092 0.897031 -1.35378 0
M  V30 1776 H 165.089 3.97833 -1.24637 0
M  V30 1777 H 163.749 3.22925 -0.339032 0
M  V30 1778 H 164.76 3.2452 -4.03618 0
M  V30 1779 H 161.437 3.88241 -1.53542 0
M  V30 1780 H 162.827 3.75042 -5.57488 0
M  V30 1781 N 165.547 1.27147 0.931209 0
M  V30 1782 C 166.795 1.13055 1.6752 0
M  V30 1783 C 167.116 -0.324791 1.92276 0
M  V30 1784 O 166.386 -1.22775 1.52654 0
M  V30 1785 H 164.966 0.415391 0.620854 0
M  V30 1786 H 167.628 1.59623 1.11833 0
M  V30 1787 H 166.724 1.65694 2.64485 0
M  V30 1788 N 167.025 -1.13721 1.09112 0
M  V30 1789 C 168.302 -1.81155 0.737706 0
M  V30 1790 C 168.682 -1.96253 -0.777683 0
M  V30 1791 O 168.03 -1.52807 -1.69889 0
M  V30 1792 C 168.24 -3.16392 1.47299 0
M  V30 1793 C 169.588 -3.91787 1.63671 0
M  V30 1794 O 170.612 -3.26005 1.43524 0
M  V30 1795 O 169.471 -5.0977 1.96969 0
M  V30 1796 H 166.565 -0.783518 0.26463 0
M  V30 1797 H 169.111 -1.20676 1.19312 0
M  V30 1798 H 167.883 -3.0061 2.50498 0
M  V30 1799 H 167.506 -3.8457 1.00953 0
M  V30 1800 N 168.503 -0.877838 -1.30888 0
M  V30 1801 C 169.749 -0.493426 -1.96706 0
M  V30 1802 C 170.082 0.953504 -1.6918 0
M  V30 1803 O 169.357 1.67266 -0.992594 0
M  V30 1804 C 169.64 -0.760429 -3.51979 0
M  V30 1805 C 169.493 -2.25747 -3.89048 0
M  V30 1806 C 170.812 -0.232148 -4.39487 0
M  V30 1807 H 167.931 -0.180746 -0.714493 0
M  V30 1808 H 170.573 -1.10052 -1.54882 0
M  V30 1809 H 168.723 -0.243715 -3.87735 0
M  V30 1810 H 170.395 -2.84204 -3.63354 0
M  V30 1811 H 168.638 -2.72694 -3.37373 0
M  V30 1812 H 169.309 -2.39491 -4.97341 0
M  V30 1813 H 171.785 -0.674314 -4.106 0
M  V30 1814 H 170.661 -0.448355 -5.47066 0
M  V30 1815 H 170.922 0.866297 -4.33529 0
M  V30 1816 N 169.982 1.44106 -0.638065 0
M  V30 1817 C 171.228 2.02277 -0.145546 0
M  V30 1818 C 171.561 1.50125 1.23191 0
M  V30 1819 O 170.836 0.688133 1.8192 0
M  V30 1820 C 171.119 3.59829 -0.139791 0
M  V30 1821 C 170.972 4.22247 -1.55008 0
M  V30 1822 C 172.291 4.36873 0.531966 0
M  V30 1823 H 169.41 0.734992 -0.0543632 0
M  V30 1824 H 172.052 1.71592 -0.815863 0
M  V30 1825 H 170.202 3.86102 0.431007 0
M  V30 1826 H 171.874 4.07057 -2.1703 0
M  V30 1827 H 170.117 3.79476 -2.10191 0
M  V30 1828 H 170.788 5.31284 -1.49804 0
M  V30 1829 H 173.264 4.16074 0.0464781 0
M  V30 1830 H 172.14 5.4657 0.505206 0
M  V30 1831 H 172.401 4.11995 1.60352 0
M  V30 1832 N 171.46 0.379036 1.52974 0
M  V30 1833 C 172.407 -0.461048 2.26148 0
M  V30 1834 C 173.377 -1.06637 1.27349 0
M  V30 1835 O 174.562 -1.09633 1.56157 0
M  V30 1836 C 171.702 -1.58782 3.06402 0
M  V30 1837 C 170.815 -1.00636 4.20115 0
M  V30 1838 C 169.95 -2.10334 4.87784 0
M  V30 1839 C 168.989 -1.49724 5.93506 0
M  V30 1840 N 168.126 -2.5331 6.54812 0
M  V30 1841 H 172.966 0.169429 2.97518 0
M  V30 1842 H 170.503 0.0953806 1.4679 0
M  V30 1843 H 172.461 -2.25174 3.51215 0
M  V30 1844 H 171.091 -2.18876 2.37261 0
M  V30 1845 H 170.143 -0.232332 3.7969 0
M  V30 1846 H 171.455 -0.523343 4.96047 0
M  V30 1847 H 170.609 -2.84519 5.35849 0
M  V30 1848 H 169.348 -2.61992 4.11353 0
M  V30 1849 H 168.353 -0.740598 5.44789 0
M  V30 1850 H 169.578 -0.988732 6.71864 0
M  V30 1851 H 167.524 -3.04156 5.81227 0
M  V30 1852 H 167.441 -2.09734 7.26325 0
M  V30 1853 H 168.709 -3.27155 7.07524 0
M  V30 1854 N 172.938 -1.57226 0.108567 0
M  V30 1855 C 174.168 -1.9889 -0.559142 0
M  V30 1856 C 174.576 -0.986889 -1.61422 0
M  V30 1857 O 173.919 0.0298705 -1.83676 0
M  V30 1858 C 173.981 -3.36952 -1.25315 0
M  V30 1859 C 173.645 -4.55679 -0.347248 0
M  V30 1860 C 174.642 -5.18281 0.409996 0
M  V30 1861 C 172.327 -5.0162 -0.261367 0
M  V30 1862 C 174.321 -6.25203 1.24096 0
M  V30 1863 C 172.008 -6.08405 0.573238 0
M  V30 1864 C 173.006 -6.70063 1.32304 0
M  V30 1865 O 172.694 -7.74788 2.14381 0
M  V30 1866 H 172.426 -0.658343 -0.153492 0
M  V30 1867 H 174.98 -2.04532 0.188584 0
M  V30 1868 H 173.21 -3.28032 -2.04773 0
M  V30 1869 H 174.899 -3.62974 -1.81673 0
M  V30 1870 H 175.665 -4.8371 0.353457 0
M  V30 1871 H 171.544 -4.53381 -0.834656 0
M  V30 1872 H 175.088 -6.73259 1.82669 0
M  V30 1873 H 170.985 -6.42406 0.631208 0
M  V30 1874 H 171.753 -7.91837 2.07209 0
M  V30 1875 N 174.416 0.165178 -1.56732 0
M  V30 1876 C 175.664 0.879068 -1.8198 0
M  V30 1877 C 175.985 1.82514 -0.686561 0
M  V30 1878 O 175.255 1.93694 0.293146 0
M  V30 1879 H 173.835 0.327608 -0.671329 0
M  V30 1880 H 176.497 0.163526 -1.94213 0
M  V30 1881 H 175.593 1.45228 -2.76252 0
M  V30 1882 N 175.894 1.51508 0.433938 0
M  V30 1883 C 177.119 1.68443 1.21003 0
M  V30 1884 C 177.544 0.382636 1.84167 0
M  V30 1885 O 176.902 -0.65755 1.68956 0
M  V30 1886 C 176.95 2.80405 2.26727 0
M  V30 1887 O 176.054 2.44245 3.32292 0
M  V30 1888 H 175.395 0.561536 0.354363 0
M  V30 1889 H 177.925 1.9809 0.512024 0
M  V30 1890 H 177.935 3.0459 2.71457 0
M  V30 1891 H 176.61 3.74867 1.80132 0
M  V30 1892 H 175.187 2.30644 2.93015 0
M  V30 1893 N 177.372 -0.689602 1.41712 0
M  V30 1894 C 178.618 -1.45181 1.41599 0
M  V30 1895 C 178.951 -1.94181 0.0270081 0
M  V30 1896 O 178.226 -1.6993 -0.946265 0
M  V30 1897 C 178.509 -2.65945 2.42787 0
M  V30 1898 C 178.362 -2.22672 3.90816 0
M  V30 1899 C 179.681 -3.68149 2.41151 0
M  V30 1900 H 176.8 -0.526576 0.515642 0
M  V30 1901 H 179.442 -0.784947 1.73028 0
M  V30 1902 H 177.592 -3.2284 2.16116 0
M  V30 1903 H 179.264 -1.71058 4.28412 0
M  V30 1904 H 177.507 -1.54394 4.05395 0
M  V30 1905 H 178.178 -3.0935 4.57172 0
M  V30 1906 H 180.654 -3.2094 2.64834 0
M  V30 1907 H 179.53 -4.50248 3.13955 0
M  V30 1908 H 179.791 -4.18259 1.43221 0
M  V30 1909 N 178.85 -1.27639 -0.924453 0
M  V30 1910 C 180.099 -1.13549 -1.66702 0
M  V30 1911 C 180.412 0.317487 -1.93006 0
M  V30 1912 O 181.618 0.579333 -2.65247 0
M  V30 1913 C 180.074 -1.98426 -3.00259 0
M  V30 1914 C 179.682 -3.484 -2.81641 0
M  V30 1915 C 181.426 -1.92993 -3.78092 0
M  V30 1916 C 179.333 -4.25464 -4.10773 0
M  V30 1917 H 178.263 -0.421351 -0.625283 0
M  V30 1918 H 180.914 -1.52085 -1.02676 0
M  V30 1919 H 179.296 -1.52736 -3.6536 0
M  V30 1920 H 180.47 -4.01973 -2.25287 0
M  V30 1921 H 178.785 -3.55245 -2.17232 0
M  V30 1922 H 181.382 -2.47844 -4.7379 0
M  V30 1923 H 181.725 -0.904281 -4.0636 0
M  V30 1924 H 182.258 -2.36595 -3.19793 0
M  V30 1925 H 178.997 -5.28566 -3.87683 0
M  V30 1926 H 178.517 -3.76667 -4.66779 0
M  V30 1927 H 180.196 -4.34812 -4.79111 0
M  V30 1928 N 180.328 1.1314 -1.09713 0
M  V30 1929 C 181.26 2.18343 -0.697056 0
M  V30 1930 C 182.273 1.60669 0.262551 0
M  V30 1931 O 183.462 1.78435 0.0481527 0
M  V30 1932 C 180.562 3.38899 -0.00684728 0
M  V30 1933 C 179.735 4.26078 -0.988741 0
M  V30 1934 C 178.794 5.25155 -0.331394 0
M  V30 1935 O 177.82 5.60701 -0.979926 0
M  V30 1936 N 179.022 5.73271 0.913261 0
M  V30 1937 H 181.787 2.5328 -1.60216 0
M  V30 1938 H 179.348 1.28491 -0.984971 0
M  V30 1939 H 181.34 4.02255 0.444191 0
M  V30 1940 H 179.91 3.02175 0.800551 0
M  V30 1941 H 179.13 3.59453 -1.61826 0
M  V30 1942 H 180.418 4.81178 -1.65364 0
M  V30 1943 H 179.816 5.46544 1.45966 0
M  V30 1944 H 178.373 6.3855 1.30757 0
M  V30 1945 N 181.806 0.884767 1.30421 0
M  V30 1946 C 182.736 0.367574 2.30589 0
M  V30 1947 C 183.717 -0.549464 1.60981 0
M  V30 1948 O 184.902 -0.46336 1.88591 0
M  V30 1949 C 182.032 -0.418944 3.44764 0
M  V30 1950 C 180.986 0.406316 4.26067 0
M  V30 1951 C 180.312 -0.506793 5.32293 0
M  V30 1952 C 181.612 1.64832 4.95608 0
M  V30 1953 H 183.306 1.20462 2.74097 0
M  V30 1954 H 180.852 0.580695 1.31772 0
M  V30 1955 H 182.805 -0.791395 4.13902 0
M  V30 1956 H 181.529 -1.28964 3.0006 0
M  V30 1957 H 180.188 0.760903 3.58617 0
M  V30 1958 H 179.836 -1.37519 4.83836 0
M  V30 1959 H 179.536 0.0415828 5.87585 0
M  V30 1960 H 181.06 -0.875764 6.04287 0
M  V30 1961 H 182.474 1.34646 5.57264 0
M  V30 1962 H 180.871 2.13688 5.60765 0
M  V30 1963 H 181.941 2.39284 4.21748 0
M  V30 1964 N 183.284 -1.43765 0.645699 0
M  V30 1965 C 184.214 -2.33471 -0.0370477 0
M  V30 1966 C 185.195 -1.49042 -0.819779 0
M  V30 1967 O 186.38 -1.77726 -0.782758 0
M  V30 1968 C 183.51 -3.32311 -1.0093 0
M  V30 1969 C 182.464 -4.2667 -0.337201 0
M  V30 1970 C 181.79 -5.1549 -1.42037 0
M  V30 1971 C 183.09 -5.16657 0.765706 0
M  V30 1972 H 184.784 -2.90809 0.712069 0
M  V30 1973 H 182.33 -1.39834 0.343876 0
M  V30 1974 H 184.283 -3.9396 -1.49578 0
M  V30 1975 H 183.007 -2.73213 -1.78948 0
M  V30 1976 H 181.666 -3.66374 0.128771 0
M  V30 1977 H 181.314 -4.52735 -2.1918 0
M  V30 1978 H 181.014 -5.79438 -0.975966 0
M  V30 1979 H 182.538 -5.80012 -1.90838 0
M  V30 1980 H 183.952 -5.72158 0.361702 0
M  V30 1981 H 182.349 -5.89286 1.13413 0
M  V30 1982 H 183.419 -4.56796 1.62683 0
M  V30 1983 N 184.763 -0.387143 -1.52771 0
M  V30 1984 C 185.713 0.465942 -2.23188 0
M  V30 1985 C 186.697 1.03138 -1.23496 0
M  V30 1986 O 187.889 0.957845 -1.48843 0
M  V30 1987 C 185.018 1.59384 -3.04059 0
M  V30 1988 C 184.104 1.04024 -4.11144 0
M  V30 1989 N 184.495 0.211416 -5.05358 0
M  V30 1990 C 182.793 1.31295 -4.26237 0
M  V30 1991 C 183.494 -0.0941698 -5.81624 0
M  V30 1992 N 182.47 0.509207 -5.4121 0
M  V30 1993 H 186.272 -0.173856 -2.93385 0
M  V30 1994 H 183.786 -0.19633 -1.61209 0
M  V30 1995 H 185.783 2.21738 -3.53041 0
M  V30 1996 H 184.443 2.23648 -2.35397 0
M  V30 1997 H 185.454 -0.151151 -5.17679 0
M  V30 1998 H 182.131 1.95679 -3.68803 0
M  V30 1999 H 183.521 -0.765572 -6.67524 0
M  V30 2000 N 186.241 1.57166 -0.116904 0
M  V30 2001 C 187.174 2.10912 0.871291 0
M  V30 2002 C 188.152 1.025 1.26224 0
M  V30 2003 O 189.336 1.3014 1.36366 0
M  V30 2004 C 186.463 2.6041 2.16574 0
M  V30 2005 C 185.509 3.80687 1.92302 0
M  V30 2006 S 186.342 5.23199 1.14119 0
M  V30 2007 C 187.498 5.76064 2.44748 0
M  V30 2008 H 187.731 2.94401 0.414138 0
M  V30 2009 H 185.264 1.54096 0.096829 0
M  V30 2010 H 187.222 2.89583 2.9095 0
M  V30 2011 H 185.883 1.77106 2.59408 0
M  V30 2012 H 185.076 4.13462 2.8821 0
M  V30 2013 H 184.678 3.5212 1.26047 0
M  V30 2014 H 186.97 5.8566 3.406 0
M  V30 2015 H 187.913 6.74184 2.16521 0
M  V30 2016 H 188.321 5.04117 2.54019 0
M  V30 2017 N 187.719 -0.156864 1.56817 0
M  V30 2018 C 188.666 -1.19394 1.97519 0
M  V30 2019 C 189.636 -1.4322 0.841265 0
M  V30 2020 O 190.821 -1.55719 1.10255 0
M  V30 2021 C 187.961 -2.52483 2.35258 0
M  V30 2022 C 187.074 -2.35914 3.61896 0
M  V30 2023 C 186.209 -3.61969 3.88782 0
M  V30 2024 C 185.248 -3.40395 5.08722 0
M  V30 2025 N 184.385 -4.58556 5.31668 0
M  V30 2026 H 189.225 -0.839845 2.85921 0
M  V30 2027 H 186.762 -0.403264 1.41464 0
M  V30 2028 H 188.72 -3.30071 2.55165 0
M  V30 2029 H 187.35 -2.85859 1.49949 0
M  V30 2030 H 186.402 -1.49429 3.49821 0
M  V30 2031 H 187.714 -2.15926 4.49641 0
M  V30 2032 H 186.868 -4.47989 4.09135 0
M  V30 2033 H 185.607 -3.84951 2.9944 0
M  V30 2034 H 184.612 -2.52763 4.88253 0
M  V30 2035 H 185.837 -3.18822 5.99608 0
M  V30 2036 H 183.783 -4.81729 4.45279 0
M  V30 2037 H 183.7 -4.41535 6.13664 0
M  V30 2038 H 184.968 -5.45817 5.5651 0
M  V30 2039 N 189.197 -1.51736 -0.425897 0
M  V30 2040 C 190.422 -1.69082 -1.20108 0
M  V30 2041 C 190.847 -0.392398 -1.83962 0
M  V30 2042 O 190.205 0.64858 -1.69302 0
M  V30 2043 C 190.253 -2.81604 -2.25237 0
M  V30 2044 O 189.357 -2.46004 -3.30992 0
M  V30 2045 H 188.698 -0.563408 -0.35138 0
M  V30 2046 H 191.228 -1.98358 -0.501512 0
M  V30 2047 H 191.238 -3.06025 -2.69838 0
M  V30 2048 H 189.913 -3.75817 -1.78142 0
M  V30 2049 H 188.49 -2.32195 -2.91787 0
M  V30 2050 N 190.675 0.682077 -1.42076 0
M  V30 2051 C 191.623 1.81707 -1.45208 0
M  V30 2052 C 192.617 1.66183 -0.328591 0
M  V30 2053 O 193.823 1.7288 -0.501264 0
M  V30 2054 H 190.198 0.599014 -0.454628 0
M  V30 2055 H 192.169 1.76183 -2.40836 0
M  V30 2056 C 190.918 3.19816 -1.36428 0
M  V30 2057 H 190.241 3.32385 -2.22171 0
M  V30 2058 H 191.681 3.99272 -1.42681 0
M  V30 2059 C 190.14 3.36809 -0.078191 0
M  V30 2060 O 190.67 3.92124 0.87188 0
M  V30 2061 N 188.876 2.906 0.00229266 0
M  V30 2062 H 188.423 2.45772 -0.771616 0
M  V30 2063 H 188.381 3.02347 0.862179 0
M  V30 2064 N 192.153 1.28127 0.917671 0
M  V30 2065 C 193.1 1.11717 2.0196 0
M  V30 2066 C 194.07 0.0153929 1.66093 0
M  V30 2067 O 195.255 0.179596 1.89953 0
M  V30 2068 C 192.395 0.780927 3.36148 0
M  V30 2069 C 191.508 1.96135 3.84909 0
M  V30 2070 C 190.643 1.56609 5.0759 0
M  V30 2071 C 189.682 2.71339 5.48673 0
M  V30 2072 N 188.819 2.32332 6.62545 0
M  V30 2073 H 193.659 2.06003 2.15329 0
M  V30 2074 H 191.196 1.02535 1.05475 0
M  V30 2075 H 193.154 0.56675 4.13333 0
M  V30 2076 H 191.784 -0.124998 3.22558 0
M  V30 2077 H 190.836 2.28777 3.03916 0
M  V30 2078 H 192.148 2.82165 4.1132 0
M  V30 2079 H 191.302 1.31374 5.92305 0
M  V30 2080 H 190.041 0.677014 4.82978 0
M  V30 2081 H 189.046 2.97276 4.62501 0
M  V30 2082 H 190.271 3.60882 5.75274 0
M  V30 2083 H 188.217 1.45889 6.39572 0
M  V30 2084 H 188.134 3.11899 6.88662 0
M  V30 2085 H 189.402 2.10371 7.50576 0
M  V30 2086 N 193.631 -1.12557 1.10312 0
M  V30 2087 C 194.861 -1.87592 0.865617 0
M  V30 2088 C 195.269 -1.79851 -0.587389 0
M  V30 2089 O 194.612 -1.16949 -1.41664 0
M  V30 2090 C 194.674 -3.37665 1.23381 0
M  V30 2091 C 194.338 -3.69181 2.69359 0
M  V30 2092 C 195.335 -3.67652 3.67597 0
M  V30 2093 C 193.02 -3.98555 3.05711 0
M  V30 2094 C 195.014 -3.95053 5.00212 0
M  V30 2095 C 192.701 -4.25616 4.38514 0
M  V30 2096 C 193.699 -4.23851 5.35574 0
M  V30 2097 O 193.387 -4.50242 6.65986 0
M  V30 2098 H 193.119 -0.600442 0.310557 0
M  V30 2099 H 195.673 -1.4335 1.47105 0
M  V30 2100 H 193.903 -3.82454 0.571467 0
M  V30 2101 H 195.592 -3.94041 0.973994 0
M  V30 2102 H 196.358 -3.45024 3.40857 0
M  V30 2103 H 192.237 -3.99071 2.30789 0
M  V30 2104 H 195.781 -3.93591 5.75962 0
M  V30 2105 H 191.678 -4.47718 4.64994 0
M  V30 2106 H 192.446 -4.67867 6.71597 0
M  V30 2107 N 195.109 -0.891671 -1.2995 0
M  V30 2108 C 196.039 -0.379797 -2.30391 0
M  V30 2109 C 197.02 0.540919 -1.6127 0
M  V30 2110 O 198.205 0.453352 -1.88834 0
M  V30 2111 C 195.335 0.400654 -3.44981 0
M  V30 2112 C 194.289 -0.428905 -4.25846 0
M  V30 2113 C 193.615 0.478557 -5.32554 0
M  V30 2114 C 194.915 -1.67458 -4.94727 0
M  V30 2115 H 196.609 -1.21914 -2.73454 0
M  V30 2116 H 194.155 -0.587675 -1.31462 0
M  V30 2117 H 196.108 0.769434 -4.14316 0
M  V30 2118 H 194.832 1.27371 -3.0074 0
M  V30 2119 H 193.491 -0.779911 -3.58208 0
M  V30 2120 H 193.139 1.34951 -4.84559 0
M  V30 2121 H 192.839 -0.0727433 -5.87555 0
M  V30 2122 H 194.363 0.843705 -6.04743 0
M  V30 2123 H 195.777 -1.376 -5.56542 0
M  V30 2124 H 194.174 -2.16659 -5.59624 0
M  V30 2125 H 195.244 -2.41518 -4.20473 0
M  V30 2126 N 196.587 1.43421 -0.653314 0
M  V30 2127 C 197.815 2.06163 -0.174491 0
M  V30 2128 C 198.23 1.48969 1.1599 0
M  V30 2129 O 197.587 0.621042 1.71608 0
M  V30 2130 C 197.638 3.61417 -0.0774865 0
M  V30 2131 O 197.359 4.16485 -1.35912 0
M  V30 2132 C 198.86 4.41235 0.427402 0
M  V30 2133 H 196.08 0.664946 -0.0899353 0
M  V30 2134 H 198.624 1.83924 -0.893988 0
M  V30 2135 H 196.779 3.82841 0.59257 0
M  V30 2136 H 197.193 5.10153 -1.21839 0
M  V30 2137 H 198.667 5.5021 0.44423 0
M  V30 2138 H 199.144 4.14268 1.45873 0
M  V30 2139 H 199.75 4.2478 -0.210167 0
M  V30 2140 N 198.065 0.39524 1.52563 0
M  V30 2141 C 199.311 -0.185318 2.01952 0
M  V30 2142 C 199.644 -1.45964 1.28095 0
M  V30 2143 O 198.919 -1.90689 0.38315 0
M  V30 2144 C 199.202 -0.447193 3.57312 0
M  V30 2145 C 199.055 0.842828 4.41833 0
M  V30 2146 C 200.374 -1.23529 4.22408 0
M  V30 2147 H 197.493 -0.0658788 0.73405 0
M  V30 2148 H 200.135 0.525975 1.82575 0
M  V30 2149 H 198.285 -1.05312 3.73954 0
M  V30 2150 H 199.957 1.4795 4.36931 0
M  V30 2151 H 198.2 1.45686 4.08605 0
M  V30 2152 H 198.871 0.614165 5.48573 0
M  V30 2153 H 201.347 -0.722445 4.0978 0
M  V30 2154 H 200.223 -1.38727 5.3108 0
M  V30 2155 H 200.484 -2.25213 3.80436 0
M  V30 2156 N 199.544 -1.57102 0.125237 0
M  V30 2157 C 200.492 -2.16905 -0.839927 0
M  V30 2158 C 201.486 -1.11998 -1.27094 0
M  V30 2159 O 202.692 -1.3029 -1.24195 0
M  V30 2160 H 199.067 -0.694252 -0.288995 0
M  V30 2161 H 201.038 -2.96774 -0.311115 0
M  V30 2162 C 199.787 -2.78795 -2.07771 0
M  V30 2163 H 199.11 -3.59221 -1.755 0
M  V30 2164 H 200.55 -3.2417 -2.73295 0
M  V30 2165 C 199.009 -1.76193 -2.87155 0
M  V30 2166 O 199.539 -1.21909 -3.82755 0
M  V30 2167 N 197.745 -1.45991 -2.51267 0
M  V30 2168 H 197.292 -1.90325 -1.73592 0
M  V30 2169 H 197.25 -0.775844 -3.04677 0
M  V30 2170 N 201.022 0.148545 -1.56898 0
M  V30 2171 C 201.969 1.18345 -1.98149 0
M  V30 2172 C 202.939 1.42772 -0.848848 0
M  V30 2173 O 204.124 1.55132 -1.11079 0
M  V30 2174 C 201.264 2.51231 -2.36594 0
M  V30 2175 C 200.377 2.33991 -3.63142 0
M  V30 2176 C 199.512 3.59902 -3.90697 0
M  V30 2177 C 198.551 3.37692 -5.1052 0
M  V30 2178 N 197.688 4.5573 -5.34092 0
M  V30 2179 H 202.528 0.82467 -2.86362 0
M  V30 2180 H 200.065 0.395756 -1.41676 0
M  V30 2181 H 202.023 3.28713 -2.56912 0
M  V30 2182 H 200.653 2.85059 -1.51463 0
M  V30 2183 H 199.705 1.47572 -3.50609 0
M  V30 2184 H 201.017 2.13539 -4.5078 0
M  V30 2185 H 200.171 4.45813 -4.11505 0
M  V30 2186 H 198.91 3.83357 -3.01477 0
M  V30 2187 H 197.915 2.5017 -4.89587 0
M  V30 2188 H 199.14 3.15637 -6.0129 0
M  V30 2189 H 197.086 4.79361 -4.47827 0
M  V30 2190 H 197.003 4.38274 -6.15996 0
M  V30 2191 H 198.271 5.42858 -5.59397 0
M  V30 2192 N 202.5 1.5196 0.417844 0
M  V30 2193 C 203.916 1.40569 0.755816 0
M  V30 2194 C 204.116 0.503316 1.95113 0
M  V30 2195 O 203.172 -0.0341925 2.52477 0
M  V30 2196 C 204.485 2.82947 1.01791 0
M  V30 2197 C 206.033 2.92231 1.12116 0
M  V30 2198 C 206.508 4.35559 1.41608 0
M  V30 2199 N 207.999 4.38753 1.48491 0
M  V30 2200 C 208.734 5.46705 1.7292 0
M  V30 2201 N 208.23 6.64788 1.95011 0
M  V30 2202 N 210.023 5.34209 1.74863 0
M  V30 2203 H 202.174 2.09168 -0.369098 0
M  V30 2204 H 204.437 0.942409 -0.102809 0
M  V30 2205 H 204.143 3.5106 0.212081 0
M  V30 2206 H 204.017 3.23462 1.94042 0
M  V30 2207 H 206.404 2.24304 1.9176 0
M  V30 2208 H 206.485 2.55185 0.177225 0
M  V30 2209 H 206.129 5.04042 0.624848 0
M  V30 2210 H 206.059 4.70133 2.37239 0
M  V30 2211 H 208.55 3.5363 1.33244 0
M  V30 2212 H 208.863 7.42845 2.13076 0
M  V30 2213 H 207.208 6.67869 1.92293 0
M  V30 2214 H 210.399 4.40937 1.57137 0
M  V30 2215 H 210.572 6.18415 1.93563 0
M  V30 2216 N 203.978 -0.674533 1.42435 0
M  V30 2217 C 204.908 -1.80009 1.48724 0
M  V30 2218 C 205.889 -1.6659 0.343793 0
M  V30 2219 O 207.074 -1.86007 0.558137 0
M  V30 2220 C 204.204 -3.18306 1.38919 0
M  V30 2221 C 203.158 -3.46461 2.51294 0
M  V30 2222 C 202.484 -4.84335 2.26547 0
M  V30 2223 C 203.784 -3.43328 3.93603 0
M  V30 2224 H 205.478 -1.75004 2.42928 0
M  V30 2225 H 203.024 -0.840533 1.16923 0
M  V30 2226 H 204.977 -3.9678 1.41927 0
M  V30 2227 H 203.701 -3.2399 0.412094 0
M  V30 2228 H 202.36 -2.70348 2.47604 0
M  V30 2229 H 202.008 -4.86669 1.2713 0
M  V30 2230 H 201.708 -5.04136 3.01861 0
M  V30 2231 H 203.232 -5.65094 2.31304 0
M  V30 2232 H 204.646 -4.11772 3.98894 0
M  V30 2233 H 203.043 -3.74664 4.68771 0
M  V30 2234 H 204.113 -2.41897 4.20255 0
M  V30 2235 N 205.456 -1.28612 -0.910864 0
M  V30 2236 C 206.867 -1.14406 -1.47541 0
M  V30 2237 C 207.218 0.264901 -1.94403 0
M  V30 2238 O 206.343 1.15942 -1.82719 0
M  V30 2239 C 206.938 -2.07073 -2.68153 0
M  V30 2240 C 205.497 -1.96923 -3.20778 0
M  V30 2241 C 204.644 -1.98646 -1.93481 0
M  V30 2242 H 207.595 -1.41259 -0.723291 0
M  V30 2243 H 207.616 -1.63642 -3.43514 0
M  V30 2244 H 207.128 -3.09611 -2.34015 0
M  V30 2245 H 205.229 -0.97433 -3.59635 0
M  V30 2246 H 205.342 -2.84026 -3.85832 0
M  V30 2247 H 203.706 -1.43093 -2.10705 0
M  V30 2248 H 204.489 -3.02868 -1.61634 0
M  V30 2249 N 206.934 1.1197 -1.10907 0
M  V30 2250 C 207.897 2.16031 -0.765707 0
M  V30 2251 C 208.897 1.59393 0.212235 0
M  V30 2252 O 210.087 1.74196 -0.0115441 0
M  V30 2253 C 207.219 3.40632 -0.135053 0
M  V30 2254 H 208.412 2.47919 -1.68748 0
M  V30 2255 H 205.965 1.27061 -0.910226 0
M  V30 2256 H 206.7 3.14348 0.797218 0
M  V30 2257 H 206.485 3.8302 -0.838937 0
M  V30 2258 H 207.975 4.17505 0.0892469 0
M  V30 2259 N 208.412 0.89855 1.29475 0
M  V30 2260 C 209.342 0.39201 2.30186 0
M  V30 2261 C 210.323 -0.532359 1.61555 0
M  V30 2262 O 211.508 -0.443331 1.89072 0
M  V30 2263 C 208.638 -0.382353 3.45189 0
M  V30 2264 C 207.592 0.451483 4.25612 0
M  V30 2265 C 206.918 -0.450307 5.328 0
M  V30 2266 C 208.218 1.70079 4.93832 0
M  V30 2267 H 209.912 1.23362 2.72804 0
M  V30 2268 H 207.458 0.594638 1.31149 0
M  V30 2269 H 209.411 -0.747451 4.14718 0
M  V30 2270 H 208.135 -1.25774 3.01411 0
M  V30 2271 H 206.794 0.798897 3.57789 0
M  V30 2272 H 206.442 -1.32379 4.85268 0
M  V30 2273 H 206.142 0.103902 5.87508 0
M  V30 2274 H 207.666 -0.811623 6.05182 0
M  V30 2275 H 209.08 1.40549 5.55805 0
M  V30 2276 H 207.477 2.19623 5.58467 0
M  V30 2277 H 208.547 2.43744 4.19186 0
M  V30 2278 N 209.89 -1.43072 0.660911 0
M  V30 2279 C 210.82 -2.33497 -0.0122829 0
M  V30 2280 C 211.801 -1.49903 -0.803925 0
M  V30 2281 O 212.986 -1.78546 -0.763864 0
M  V30 2282 C 210.116 -3.33363 -0.973994 0
M  V30 2283 C 209.07 -4.27003 -0.291928 0
M  V30 2284 C 208.396 -5.16967 -1.36562 0
M  V30 2285 C 209.696 -5.15816 0.820462 0
M  V30 2286 H 211.39 -2.90038 0.742873 0
M  V30 2287 H 208.936 -1.39461 0.358688 0
M  V30 2288 H 210.889 -3.95524 -1.45392 0
M  V30 2289 H 209.613 -2.75095 -1.7604 0
M  V30 2290 H 208.272 -3.66217 0.167623 0
M  V30 2291 H 207.92 -4.55034 -2.14366 0
M  V30 2292 H 207.62 -5.80441 -0.914454 0
M  V30 2293 H 209.144 -5.82003 -1.84675 0
M  V30 2294 H 210.558 -5.71742 0.422366 0
M  V30 2295 H 208.955 -5.8805 1.19656 0
M  V30 2296 H 210.025 -4.55045 1.67518 0
M  V30 2297 N 211.368 -0.403325 -1.52352 0
M  V30 2298 C 212.278 0.432009 -2.30588 0
M  V30 2299 C 213.294 1.05884 -1.38075 0
M  V30 2300 O 214.47 1.06161 -1.71148 0
M  V30 2301 C 211.535 1.53669 -3.10784 0
M  V30 2302 C 210.596 0.933525 -4.19027 0
M  V30 2303 C 209.829 1.98557 -4.9539 0
M  V30 2304 O 210.052 3.20283 -4.71991 0
M  V30 2305 O 208.986 1.59504 -5.80381 0
M  V30 2306 H 212.812 -0.205739 -3.03002 0
M  V30 2307 H 210.397 -0.166675 -1.48467 0
M  V30 2308 H 212.279 2.17814 -3.60742 0
M  V30 2309 H 210.954 2.15915 -2.41169 0
M  V30 2310 H 209.861 0.254954 -3.7323 0
M  V30 2311 H 211.194 0.35508 -4.90918 0
M  V30 2312 N 212.846 1.57033 -0.133567 0
M  V30 2313 C 213.793 2.16074 0.811208 0
M  V30 2314 C 214.763 1.08979 1.2535 0
M  V30 2315 O 215.948 1.36958 1.32843 0
M  V30 2316 C 213.088 2.77595 2.05024 0
M  V30 2317 C 212.201 3.99042 1.65498 0
M  V30 2318 C 211.336 4.48603 2.84479 0
M  V30 2319 C 210.375 5.62547 2.41262 0
M  V30 2320 N 209.512 6.06787 3.53206 0
M  V30 2321 H 214.352 2.96477 0.300906 0
M  V30 2322 H 211.889 1.46462 0.136822 0
M  V30 2323 H 213.847 3.11402 2.77642 0
M  V30 2324 H 212.477 1.99859 2.53488 0
M  V30 2325 H 211.529 3.71302 0.826981 0
M  V30 2326 H 212.841 4.81629 1.29748 0
M  V30 2327 H 211.995 4.84395 3.65303 0
M  V30 2328 H 210.734 3.64995 3.23465 0
M  V30 2329 H 209.739 5.26345 1.58874 0
M  V30 2330 H 210.964 6.47931 2.03377 0
M  V30 2331 H 208.91 5.26117 3.91838 0
M  V30 2332 H 208.827 6.84266 3.21427 0
M  V30 2333 H 210.095 6.4722 4.34427 0
M  V30 2334 N 214.325 -0.140222 1.56975 0
M  V30 2335 C 215.273 -1.19207 1.99731 0
M  V30 2336 C 216.267 -1.44089 0.890777 0
M  V30 2337 O 217.473 -1.44301 1.07597 0
M  V30 2338 H 213.848 -0.40142 0.635898 0
M  V30 2339 H 215.819 -0.804813 2.87342 0
M  V30 2340 C 214.568 -2.51617 2.39967 0
M  V30 2341 H 213.891 -2.33303 3.24669 0
M  V30 2342 H 215.331 -3.23827 2.73701 0
M  V30 2343 C 213.79 -3.12654 1.25496 0
M  V30 2344 O 214.32 -3.97786 0.559371 0
M  V30 2345 N 212.526 -2.72206 1.01746 0
M  V30 2346 H 212.073 -2.03074 1.58489 0
M  V30 2347 H 212.031 -3.13377 0.253461 0
M  V30 2348 N 215.803 -1.52179 -0.40978 0
M  V30 2349 C 216.766 -1.74853 -1.48186 0
M  V30 2350 C 217.766 -0.618417 -1.48433 0
M  V30 2351 O 218.956 -0.886286 -1.49969 0
M  V30 2352 C 216.088 -1.8303 -2.87598 0
M  V30 2353 H 217.281 -2.70559 -1.29374 0
M  V30 2354 H 214.834 -1.42586 -0.640233 0
M  V30 2355 H 215.569 -0.89236 -3.11781 0
M  V30 2356 H 215.354 -2.65187 -2.88822 0
M  V30 2357 H 216.844 -2.02316 -3.65319 0
M  V30 2358 N 217.281 0.66697 -1.42791 0
M  V30 2359 C 218.214 1.79177 -1.41318 0
M  V30 2360 C 219.192 1.60234 -0.276401 0
M  V30 2361 O 220.376 1.82602 -0.46785 0
M  V30 2362 C 217.503 3.16289 -1.21157 0
M  V30 2363 C 216.549 3.53964 -2.37932 0
M  V30 2364 S 217.382 3.55501 -4.00474 0
M  V30 2365 C 218.538 4.95292 -3.8267 0
M  V30 2366 H 218.771 1.80153 -2.365 0
M  V30 2367 H 216.304 0.838357 -1.29657 0
M  V30 2368 H 218.262 3.95428 -1.10212 0
M  V30 2369 H 216.923 3.1289 -0.275481 0
M  V30 2370 H 216.116 4.53646 -2.19594 0
M  V30 2371 H 215.718 2.82204 -2.45432 0
M  V30 2372 H 218.01 5.83584 -3.44145 0
M  V30 2373 H 218.953 5.18679 -4.82055 0
M  V30 2374 H 219.361 4.68179 -3.15386 0
M  V30 2375 N 218.759 1.29093 0.90403 0
M  V30 2376 C 220.175 1.07011 1.1841 0
M  V30 2377 C 220.375 -0.181358 2.00682 0
M  V30 2378 O 219.431 -0.880331 2.36657 0
M  V30 2379 C 220.744 2.32311 1.90924 0
M  V30 2380 C 222.292 2.37587 2.03768 0
M  V30 2381 C 222.767 3.62679 2.79693 0
M  V30 2382 N 224.258 3.63376 2.87249 0
M  V30 2383 C 224.993 4.56848 3.46522 0
M  V30 2384 N 224.489 5.60648 4.06996 0
M  V30 2385 N 226.282 4.44426 3.44154 0
M  V30 2386 H 218.433 2.09412 0.354993 0
M  V30 2387 H 220.696 0.922181 0.219742 0
M  V30 2388 H 220.402 3.23536 1.37905 0
M  V30 2389 H 220.276 2.39483 2.91424 0
M  V30 2390 H 222.663 1.46853 2.55965 0
M  V30 2391 H 222.744 2.34403 1.02415 0
M  V30 2392 H 222.388 4.53762 2.28173 0
M  V30 2393 H 222.318 3.63119 3.81381 0
M  V30 2394 H 224.809 2.88321 2.44293 0
M  V30 2395 H 225.122 6.28101 4.50232 0
M  V30 2396 H 223.467 5.64463 4.05471 0
M  V30 2397 H 226.658 3.62529 2.96126 0
M  V30 2398 H 226.831 5.17457 3.90054 0
M  V30 2399 N 220.237 -1.11381 1.11499 0
M  V30 2400 C 221.483 -1.83403 0.865512 0
M  V30 2401 C 221.816 -1.84459 -0.607329 0
M  V30 2402 O 221.091 -1.29811 -1.44842 0
M  V30 2403 C 221.374 -3.30552 1.42855 0
M  V30 2404 C 221.227 -3.37886 2.96906 0
M  V30 2405 C 222.546 -4.26643 1.08 0
M  V30 2406 H 219.665 -0.665879 0.31587 0
M  V30 2407 H 222.307 -1.30601 1.37998 0
M  V30 2408 H 220.457 -3.75648 0.990985 0
M  V30 2409 H 222.129 -3.01343 3.49271 0
M  V30 2410 H 220.372 -2.78088 3.32941 0
M  V30 2411 H 221.043 -4.41458 3.31389 0
M  V30 2412 H 223.519 -3.89729 1.45775 0
M  V30 2413 H 222.395 -5.27986 1.50072 0
M  V30 2414 H 222.656 -4.42099 -0.00915037 0
M  V30 2415 N 221.715 -0.905404 -1.28997 0
M  V30 2416 C 222.943 -0.549846 -1.9946 0
M  V30 2417 C 223.358 0.866834 -1.67724 0
M  V30 2418 O 222.715 1.57298 -0.925404 0
M  V30 2419 C 222.766 -0.739387 -3.53858 0
M  V30 2420 O 222.487 -2.10031 -3.84472 0
M  V30 2421 C 223.988 -0.389541 -4.41585 0
M  V30 2422 H 221.208 -0.210429 -0.637151 0
M  V30 2423 H 223.752 -1.21632 -1.64396 0
M  V30 2424 H 221.907 -0.120023 -3.87214 0
M  V30 2425 H 222.321 -2.13385 -4.79132 0
M  V30 2426 H 223.795 -0.572972 -5.49018 0
M  V30 2427 H 224.272 0.673756 -4.34001 0
M  V30 2428 H 224.878 -0.986089 -4.1371 0
M  V30 2429 N 223.193 1.4272 -0.668489 0
M  V30 2430 C 224.123 2.335 -0.000100175 0
M  V30 2431 C 225.104 1.50328 0.795964 0
M  V30 2432 O 226.289 1.78949 0.754385 0
M  V30 2433 C 223.419 3.33874 0.956302 0
M  V30 2434 C 222.373 4.27152 0.269278 0
M  V30 2435 C 221.699 5.17684 1.33818 0
M  V30 2436 C 222.999 5.15373 -0.847805 0
M  V30 2437 H 224.693 2.89639 -0.758244 0
M  V30 2438 H 222.239 1.39269 -0.366079 0
M  V30 2439 H 224.192 3.9629 1.43292 0
M  V30 2440 H 222.916 2.76025 1.74579 0
M  V30 2441 H 221.575 3.66123 -0.187042 0
M  V30 2442 H 221.223 4.56165 2.1195 0
M  V30 2443 H 220.923 5.80918 0.883659 0
M  V30 2444 H 222.447 5.82974 1.81586 0
M  V30 2445 H 223.861 5.7151 -0.452681 0
M  V30 2446 H 222.258 5.87407 -1.22773 0
M  V30 2447 H 223.328 4.5415 -1.69929 0
M  V30 2448 N 224.671 0.411399 1.52136 0
M  V30 2449 C 225.948 -0.222308 1.94333 0
M  V30 2450 C 226.328 -1.6242 1.34844 0
M  V30 2451 O 225.676 -2.22384 0.525145 0
M  V30 2452 C 225.886 -0.226345 3.48265 0
M  V30 2453 C 227.234 -0.444592 4.22266 0
M  V30 2454 O 228.258 -0.305602 3.54887 0
M  V30 2455 O 227.117 -0.718749 5.41753 0
M  V30 2456 H 224.211 -0.143907 0.814383 0
M  V30 2457 H 226.757 0.467506 1.63133 0
M  V30 2458 H 225.529 0.75475 3.83952 0
M  V30 2459 H 225.152 -0.960163 3.85832 0
M  V30 2460 N 226.149 -1.5696 0.141893 0
M  V30 2461 C 227.112 -2.15316 -0.785587 0
M  V30 2462 C 228.112 -1.09366 -1.1788 0
M  V30 2463 O 229.302 -1.35031 -1.10056 0
M  V30 2464 C 226.434 -2.71211 -2.06537 0
M  V30 2465 H 227.627 -2.98608 -0.278041 0
M  V30 2466 H 225.18 -1.5593 -0.107519 0
M  V30 2467 H 225.915 -1.91571 -2.6167 0
M  V30 2468 H 225.7 -3.4872 -1.79268 0
M  V30 2469 H 227.19 -3.16189 -2.72789 0
M  V30 2470 N 227.627 0.131896 -1.57047 0
M  V30 2471 C 228.855 0.856461 -1.88341 0
M  V30 2472 C 229.27 1.74042 -0.731757 0
M  V30 2473 O 228.627 1.80051 0.297945 0
M  V30 2474 C 228.678 1.70064 -3.18999 0
M  V30 2475 O 228.399 0.852278 -4.2973 0
M  V30 2476 C 229.9 2.53148 -3.63911 0
M  V30 2477 H 227.12 0.246885 -0.62393 0
M  V30 2478 H 229.664 0.120152 -2.04147 0
M  V30 2479 H 227.819 2.38984 -3.04902 0
M  V30 2480 H 228.233 1.43329 -5.04537 0
M  V30 2481 H 229.707 3.07931 -4.58129 0
M  V30 2482 H 230.184 3.29901 -2.89935 0
M  V30 2483 H 230.79 1.89492 -3.80753 0
M  V30 2484 N 229.106 1.52395 0.401703 0
M  V30 2485 C 230.354 1.66488 1.14569 0
M  V30 2486 C 230.675 0.400897 1.90835 0
M  V30 2487 O 229.945 -0.584415 1.8698 0
M  V30 2488 H 228.525 0.613672 0.425929 0
M  V30 2489 H 231.187 1.89464 0.457093 0
M  V30 2490 H 230.283 2.50942 1.85566 0
M  V30 2491 N 230.584 -0.659388 1.43143 0
M  V30 2492 C 231.532 -1.79374 1.4808 0
M  V30 2493 C 232.526 -1.65639 0.354988 0
M  V30 2494 O 233.732 -1.7206 0.528704 0
M  V30 2495 H 230.107 -0.591705 0.4641 0
M  V30 2496 H 232.078 -1.72329 2.43609 0
M  V30 2497 C 230.827 -3.17606 1.41499 0
M  V30 2498 H 230.15 -3.28809 2.27431 0
M  V30 2499 H 231.59 -3.96951 1.49015 0
M  V30 2500 C 230.049 -3.36642 0.131765 0
M  V30 2501 O 230.579 -3.93461 -0.809386 0
M  V30 2502 N 228.785 -2.90567 0.0439396 0
M  V30 2503 H 228.332 -2.44513 0.810619 0
M  V30 2504 H 228.29 -3.03681 -0.813969 0
M  V30 2505 N 232.062 -1.29571 -0.897171 0
M  V30 2506 C 232.972 -1.16808 -2.03453 0
M  V30 2507 C 233.988 -0.0907471 -1.73763 0
M  V30 2508 O 235.164 -0.303312 -1.99103 0
M  V30 2509 C 232.229 -0.848264 -3.36163 0
M  V30 2510 C 231.29 -2.0097 -3.79354 0
M  V30 2511 C 230.523 -1.70505 -5.05731 0
M  V30 2512 O 230.746 -0.62718 -5.66941 0
M  V30 2513 O 229.68 -2.5538 -5.45036 0
M  V30 2514 H 233.506 -2.12325 -2.17144 0
M  V30 2515 H 231.091 -1.09047 -1.02123 0
M  V30 2516 H 232.973 -0.684581 -4.15802 0
M  V30 2517 H 231.648 0.0771071 -3.23608 0
M  V30 2518 H 230.555 -2.22863 -3.00471 0
M  V30 2519 H 231.888 -2.91636 -3.96496 0
M  V30 2520 N 233.54 1.10788 -1.12088 0
M  V30 2521 C 234.788 1.8231 -0.872205 0
M  V30 2522 C 235.109 1.85419 0.603709 0
M  V30 2523 O 234.379 1.32963 1.43867 0
M  V30 2524 H 232.959 0.675137 -0.319686 0
M  V30 2525 H 235.621 1.34068 -1.41463 0
M  V30 2526 H 234.717 2.85955 -1.25045 0
M  V30 2527 N 235.018 0.912232 1.28515 0
M  V30 2528 C 236.243 0.559774 1.99703 0
M  V30 2529 C 236.668 -0.851393 1.67729 0
M  V30 2530 O 236.026 -1.56875 0.908834 0
M  V30 2531 C 236.074 0.773874 3.52198 0
M  V30 2532 O 235.178 -0.167842 4.12058 0
M  V30 2533 H 234.519 0.21723 0.627461 0
M  V30 2534 H 237.049 1.22725 1.63706 0
M  V30 2535 H 237.059 0.683386 4.02236 0
M  V30 2536 H 235.734 1.80261 3.74805 0
M  V30 2537 H 234.311 -0.0287509 3.72889 0
M  V30 2538 N 236.496 -1.42363 0.676048 0
M  V30 2539 C 237.742 -2.02336 0.207809 0
M  V30 2540 C 238.097 -1.52506 -1.17302 0
M  V30 2541 O 237.39 -0.718048 -1.77636 0
M  V30 2542 C 237.584 -3.56929 0.183431 0
M  V30 2543 C 237.413 -4.21762 1.56036 0
M  V30 2544 C 236.183 -4.56881 2.15842 0
M  V30 2545 C 238.381 -4.49267 2.50327 0
M  V30 2546 N 236.363 -5.069 3.46303 0
M  V30 2547 C 237.734 -5.00851 3.65443 0
M  V30 2548 C 239.789 -4.31257 2.48841 0
M  V30 2549 C 238.492 -5.36317 4.79329 0
M  V30 2550 C 240.518 -4.678 3.61824 0
M  V30 2551 C 239.88 -5.19537 4.75668 0
M  V30 2552 H 235.979 -0.772583 0.120993 0
M  V30 2553 H 238.563 -1.73203 0.889306 0
M  V30 2554 H 236.734 -3.85576 -0.467483 0
M  V30 2555 H 238.466 -4.03603 -0.297808 0
M  V30 2556 H 235.221 -4.4268 1.68319 0
M  V30 2557 H 235.645 -5.36338 4.13123 0
M  V30 2558 H 240.287 -3.90511 1.62051 0
M  V30 2559 H 238.005 -5.75995 5.66794 0
M  V30 2560 H 241.591 -4.55541 3.61903 0
M  V30 2561 H 240.471 -5.47287 5.61646 0
M  V30 2562 N 237.974 -0.419461 -1.51915 0
M  V30 2563 C 238.904 0.391813 -2.30189 0
M  V30 2564 C 239.885 1.03699 -1.34836 0
M  V30 2565 O 241.07 1.04403 -1.63748 0
M  V30 2566 C 238.2 1.50312 -3.13087 0
M  V30 2567 C 237.154 0.9824 -4.16573 0
M  V30 2568 C 236.48 2.18809 -4.8788 0
M  V30 2569 C 237.78 0.0292356 -5.22292 0
M  V30 2570 H 239.474 -0.26135 -2.98257 0
M  V30 2571 H 237.02 -0.127134 -1.43438 0
M  V30 2572 H 238.973 2.07773 -3.66617 0
M  V30 2573 H 237.697 2.18431 -2.42807 0
M  V30 2574 H 236.356 0.430119 -3.64068 0
M  V30 2575 H 236.004 2.85507 -4.14119 0
M  V30 2576 H 235.704 1.84615 -5.57845 0
M  V30 2577 H 237.228 2.76858 -5.44226 0
M  V30 2578 H 238.642 0.512976 -5.71 0
M  V30 2579 H 237.039 -0.2244 -5.9968 0
M  V30 2580 H 238.109 -0.912931 -4.76228 0
M  V30 2581 N 239.452 1.56882 -0.150215 0
M  V30 2582 C 240.699 1.96228 0.500093 0
M  V30 2583 C 241.027 1.03522 1.64661 0
M  V30 2584 O 240.282 0.0650683 1.95592 0
M  V30 2585 C 240.581 3.41801 1.04437 0
M  V30 2586 C 240.247 4.50897 0.0159671 0
M  V30 2587 C 238.909 4.8046 -0.266731 0
M  V30 2588 C 241.261 5.16703 -0.683192 0
M  V30 2589 C 238.589 5.73135 -1.25434 0
M  V30 2590 C 240.941 6.10441 -1.65964 0
M  V30 2591 C 239.605 6.38382 -1.95 0
M  V30 2592 H 238.875 0.718048 0.182997 0
M  V30 2593 H 241.522 1.90019 -0.237724 0
M  V30 2594 H 239.827 3.44857 1.85959 0
M  V30 2595 H 241.524 3.69573 1.55618 0
M  V30 2596 H 238.114 4.27891 0.246485 0
M  V30 2597 H 242.298 4.93993 -0.477983 0
M  V30 2598 H 237.554 5.93074 -1.48571 0
M  V30 2599 H 241.728 6.60507 -2.20689 0
M  V30 2600 H 239.355 7.09996 -2.71679 0
M  V30 2601 N 240.93 -0.123565 1.57115 0
M  V30 2602 C 242.179 -0.830704 1.83799 0
M  V30 2603 C 242.492 -1.81259 0.735158 0
M  V30 2604 O 243.698 -2.56558 0.888278 0
M  V30 2605 C 242.154 -1.52802 3.25852 0
M  V30 2606 C 241.762 -0.587356 4.44133 0
M  V30 2607 C 243.506 -2.22056 3.61789 0
M  V30 2608 C 241.413 -1.28764 5.77212 0
M  V30 2609 H 240.343 -0.313967 0.685522 0
M  V30 2610 H 242.994 -0.0834359 1.8331 0
M  V30 2611 H 241.376 -2.32175 3.20797 0
M  V30 2612 H 242.55 0.172829 4.60476 0
M  V30 2613 H 240.865 -0.00201892 4.164 0
M  V30 2614 H 243.462 -2.75131 4.58483 0
M  V30 2615 H 243.805 -2.99644 2.88997 0
M  V30 2616 H 244.338 -1.49576 3.68608 0
M  V30 2617 H 241.077 -0.55314 6.53162 0
M  V30 2618 H 240.597 -2.01995 5.64764 0
M  V30 2619 H 242.276 -1.8221 6.20813 0
M  V30 2620 N 242.408 -1.52605 -0.393616 0
M  V30 2621 C 243.34 -1.73303 -1.49995 0
M  V30 2622 C 244.353 -0.613473 -1.50799 0
M  V30 2623 O 245.542 -0.889049 -1.54784 0
M  V30 2624 C 242.642 -1.77245 -2.88855 0
M  V30 2625 C 241.815 -3.06483 -3.12069 0
M  V30 2626 C 240.874 -3.02033 -4.30886 0
M  V30 2627 O 239.9 -3.75907 -4.27414 0
M  V30 2628 N 241.102 -2.20897 -5.36828 0
M  V30 2629 H 243.867 -2.68756 -1.32629 0
M  V30 2630 H 241.428 -1.51036 -0.583083 0
M  V30 2631 H 243.42 -1.7178 -3.66434 0
M  V30 2632 H 241.99 -0.891993 -2.99603 0
M  V30 2633 H 241.21 -3.25474 -2.22396 0
M  V30 2634 H 242.498 -3.91947 -3.2443 0
M  V30 2635 H 241.896 -1.60336 -5.42502 0
M  V30 2636 H 240.453 -2.21275 -6.13091 0
M  V30 2637 N 243.887 0.651787 -1.4349 0
M  V30 2638 C 245.298 1.233 -1.40193 0
M  V30 2639 C 245.649 1.9591 -0.106727 0
M  V30 2640 O 244.774 2.01316 0.793773 0
M  V30 2641 C 245.369 2.24257 -2.53957 0
M  V30 2642 C 243.928 2.77852 -2.5392 0
M  V30 2643 C 243.075 1.52517 -2.3159 0
M  V30 2644 H 246.026 0.443717 -1.52371 0
M  V30 2645 H 246.047 3.0646 -2.25528 0
M  V30 2646 H 245.559 1.71382 -3.4821 0
M  V30 2647 H 243.66 3.34786 -1.63551 0
M  V30 2648 H 243.773 3.25299 -3.51735 0
M  V30 2649 H 242.137 1.79915 -1.80285 0
M  V30 2650 H 242.92 1.01574 -3.27929 0
M  V30 2651 N 245.365 1.30045 0.890287 0
M  V30 2652 C 246.612 1.18561 1.64163 0
M  V30 2653 C 246.94 -0.260852 1.92743 0
M  V30 2654 O 246.195 -1.20376 1.54299 0
M  V30 2655 C 246.494 1.95409 2.99249 0
M  V30 2656 C 246.16 3.45066 2.90242 0
M  V30 2657 C 244.822 3.85878 2.87492 0
M  V30 2658 C 247.174 4.4039 2.78758 0
M  V30 2659 C 244.502 5.20314 2.7109 0
M  V30 2660 C 246.854 5.74928 2.63894 0
M  V30 2661 C 245.518 6.14986 2.59516 0
M  V30 2662 H 244.788 0.433846 0.600715 0
M  V30 2663 H 247.435 1.61088 1.03552 0
M  V30 2664 H 245.74 1.45501 3.63781 0
M  V30 2665 H 247.437 1.8392 3.56334 0
M  V30 2666 H 244.027 3.12631 2.93189 0
M  V30 2667 H 248.211 4.09806 2.79952 0
M  V30 2668 H 243.467 5.50449 2.66112 0
M  V30 2669 H 247.641 6.48434 2.53981 0
M  V30 2670 H 245.268 7.19104 2.46565 0
M  V30 2671 N 246.843 -1.10192 1.12674 0
M  V30 2672 C 248.089 -1.82658 0.894847 0
M  V30 2673 C 248.444 -1.83666 -0.573107 0
M  V30 2674 O 247.737 -1.28816 -1.41835 0
M  V30 2675 C 247.931 -3.28552 1.4067 0
M  V30 2676 C 247.76 -3.41756 2.92289 0
M  V30 2677 C 246.53 -3.54021 3.60551 0
M  V30 2678 C 248.728 -3.34949 3.90274 0
M  V30 2679 N 246.71 -3.55827 5.0026 0
M  V30 2680 C 248.081 -3.43531 5.16127 0
M  V30 2681 C 250.136 -3.18565 3.8265 0
M  V30 2682 C 248.839 -3.37416 6.3525 0
M  V30 2683 C 250.865 -3.13772 5.01299 0
M  V30 2684 C 250.227 -3.22938 6.26012 0
M  V30 2685 H 246.326 -0.683044 0.380756 0
M  V30 2686 H 248.91 -1.31752 1.43351 0
M  V30 2687 H 247.081 -3.77946 0.895055 0
M  V30 2688 H 248.813 -3.88991 1.11661 0
M  V30 2689 H 245.568 -3.57135 3.1105 0
M  V30 2690 H 245.992 -3.60335 5.73138 0
M  V30 2691 H 250.634 -3.10354 2.87124 0
M  V30 2692 H 248.352 -3.44391 7.3104 0
M  V30 2693 H 251.938 -3.02242 4.97133 0
M  V30 2694 H 250.818 -3.19235 7.16281 0
M  V30 2695 N 248.321 -0.919034 -1.28029 0
M  V30 2696 C 249.268 -0.410005 -2.27129 0
M  V30 2697 C 250.238 0.518405 -1.57803 0
M  V30 2698 O 251.423 0.439451 -1.8567 0
M  V30 2699 C 248.563 0.339054 -3.4343 0
M  V30 2700 C 247.676 -0.622468 -4.27492 0
M  V30 2701 C 246.811 0.145567 -5.31001 0
M  V30 2702 C 245.85 -0.809226 -6.06727 0
M  V30 2703 N 244.987 -0.0743728 -7.02061 0
M  V30 2704 H 249.827 -1.26011 -2.70047 0
M  V30 2705 H 247.364 -0.632663 -1.328 0
M  V30 2706 H 249.322 0.789586 -4.0966 0
M  V30 2707 H 247.952 1.15346 -3.01488 0
M  V30 2708 H 247.004 -1.19153 -3.61257 0
M  V30 2709 H 248.316 -1.35252 -4.80113 0
M  V30 2710 H 247.47 0.656417 -6.03139 0
M  V30 2711 H 246.209 0.908643 -4.79161 0
M  V30 2712 H 245.214 -1.3314 -5.33436 0
M  V30 2713 H 246.439 -1.57194 -6.60656 0
M  V30 2714 H 244.385 0.670616 -6.52563 0
M  V30 2715 H 244.302 -0.744157 -7.52329 0
M  V30 2716 H 245.57 0.416109 -7.78389 0
M  V30 2717 N 249.799 1.42003 -0.683588 0
M  V30 2718 C 250.729 2.33487 -0.024866 0
M  V30 2719 C 251.71 1.51163 0.779975 0
M  V30 2720 O 252.895 1.79739 0.735362 0
M  V30 2721 C 250.025 3.3487 0.920836 0
M  V30 2722 C 248.979 4.27414 0.223958 0
M  V30 2723 C 248.305 5.19074 1.2832 0
M  V30 2724 C 249.605 5.14445 -0.90242 0
M  V30 2725 H 251.299 2.88819 -0.788921 0
M  V30 2726 H 248.845 1.38873 -0.38083 0
M  V30 2727 H 250.798 3.97787 1.39081 0
M  V30 2728 H 249.522 2.77861 1.71642 0
M  V30 2729 H 248.181 3.65904 -0.225864 0
M  V30 2730 H 247.829 4.58387 2.071 0
M  V30 2731 H 247.529 5.81822 0.821995 0
M  V30 2732 H 249.053 5.84867 1.75392 0
M  V30 2733 H 250.467 5.70998 -0.513272 0
M  V30 2734 H 248.864 5.86072 -1.28997 0
M  V30 2735 H 249.934 4.52322 -1.74737 0
M  V30 2736 N 251.277 0.427512 1.51691 0
M  V30 2737 C 252.693 0.0792977 1.59403 0
M  V30 2738 C 252.893 -1.41035 1.43914 0
M  V30 2739 O 251.949 -2.17922 1.27539 0
M  V30 2740 C 253.262 0.590636 2.94842 0
M  V30 2741 C 254.81 0.550215 3.08126 0
M  V30 2742 C 255.285 1.03836 4.46074 0
M  V30 2743 N 256.776 0.995943 4.52366 0
M  V30 2744 C 257.511 1.34463 5.57411 0
M  V30 2745 N 257.007 1.76569 6.69922 0
M  V30 2746 N 258.8 1.26343 5.47717 0
M  V30 2747 H 250.951 1.39687 1.60004 0
M  V30 2748 H 253.214 0.575003 0.753708 0
M  V30 2749 H 252.92 1.63251 3.11516 0
M  V30 2750 H 252.794 0.0102061 3.77199 0
M  V30 2751 H 255.181 -0.482654 2.91126 0
M  V30 2752 H 255.262 1.16693 2.27632 0
M  V30 2753 H 254.906 2.06965 4.63819 0
M  V30 2754 H 254.836 0.398286 5.25092 0
M  V30 2755 H 257.327 0.68661 3.7161 0
M  V30 2756 H 257.64 2.01438 7.46085 0
M  V30 2757 H 255.985 1.80488 6.71155 0
M  V30 2758 H 259.176 0.933209 4.58703 0
M  V30 2759 H 259.349 1.53846 6.29472 0
M  V30 2760 N 252.755 -1.56801 0.158532 0
M  V30 2761 C 253.98 -2.01295 -0.499516 0
M  V30 2762 C 254.405 -1.03799 -1.56867 0
M  V30 2763 O 253.763 -0.0155162 -1.81293 0
M  V30 2764 C 253.811 -3.44469 -1.06647 0
M  V30 2765 O 252.915 -3.50012 -2.18095 0
M  V30 2766 H 252.256 -0.652884 -0.12099 0
M  V30 2767 H 254.786 -2.02958 0.258661 0
M  V30 2768 H 254.796 -3.8351 -1.39227 0
M  V30 2769 H 253.471 -4.14932 -0.283581 0
M  V30 2770 H 252.048 -3.22822 -1.86656 0
M  V30 2771 N 254.233 0.115231 -1.57178 0
M  V30 2772 C 255.181 1.16014 -2.01602 0
M  V30 2773 C 256.175 1.42653 -0.913587 0
M  V30 2774 O 257.381 1.42571 -1.09879 0
M  V30 2775 H 253.756 0.391252 -0.642204 0
M  V30 2776 H 255.727 0.758998 -2.88586 0
M  V30 2777 C 254.476 2.47767 -2.4394 0
M  V30 2778 H 253.799 2.28108 -3.28339 0
M  V30 2779 H 255.239 3.19432 -2.78818 0
M  V30 2780 C 253.698 3.10617 -1.30455 0
M  V30 2781 O 254.228 3.96846 -0.622585 0
M  V30 2782 N 252.434 2.70553 -1.06064 0
M  V30 2783 H 251.981 2.00527 -1.61699 0
M  V30 2784 H 251.939 3.12934 -0.303284 0
M  V30 2785 N 255.711 1.52812 0.385517 0
M  V30 2786 C 256.959 1.67694 1.12797 0
M  V30 2787 C 257.28 0.421115 1.90399 0
M  V30 2788 O 256.55 -0.564551 1.87589 0
M  V30 2789 H 255.13 0.618155 0.419396 0
M  V30 2790 H 257.792 1.89938 0.436972 0
M  V30 2791 H 256.888 2.52896 1.82894 0
M  V30 2792 N 257.189 -0.644168 1.43834 0
M  V30 2793 C 258.466 -1.40188 1.36406 0
M  V30 2794 C 258.846 -2.11094 0.0163124 0
M  V30 2795 O 258.194 -2.05426 -1.00062 0
M  V30 2796 C 258.404 -2.3791 2.55343 0
M  V30 2797 C 259.752 -3.01637 2.98832 0
M  V30 2798 O 260.776 -2.48237 2.55455 0
M  V30 2799 O 259.635 -3.98477 3.74003 0
M  V30 2800 H 256.729 -0.626773 0.539523 0
M  V30 2801 H 259.275 -0.670317 1.559 0
M  V30 2802 H 258.047 -1.84525 3.4506 0
M  V30 2803 H 257.67 -3.18503 2.37995 0
M  V30 2804 N 258.668 -1.30515 -0.883378 0
M  V30 2805 C 259.616 -1.16941 -2.01066 0
M  V30 2806 C 260.61 -0.0809148 -1.69207 0
M  V30 2807 O 261.816 -0.241877 -1.78367 0
M  V30 2808 H 258.191 -0.361705 -0.659298 0
M  V30 2809 H 260.162 -2.12344 -2.09649 0
M  V30 2810 C 258.911 -0.879694 -3.36388 0
M  V30 2811 H 258.234 -1.70936 -3.61415 0
M  V30 2812 H 259.674 -0.82483 -4.159 0
M  V30 2813 C 258.133 0.417409 -3.34304 0
M  V30 2814 O 258.663 1.43843 -3.75063 0
M  V30 2815 N 256.869 0.429141 -2.87414 0
M  V30 2816 H 256.416 -0.402222 -2.5444 0
M  V30 2817 H 256.374 1.29696 -2.86403 0
M  V30 2818 N 260.146 1.09593 -1.13257 0
M  V30 2819 C 261.392 1.82003 -0.89458 0
M  V30 2820 C 261.725 1.85402 0.577906 0
M  V30 2821 O 261 1.32099 1.42759 0
M  V30 2822 C 261.283 3.28237 -1.48096 0
M  V30 2823 C 261.136 3.3312 -3.02244 0
M  V30 2824 C 262.455 4.24871 -1.14774 0
M  V30 2825 H 259.574 0.66077 -0.326424 0
M  V30 2826 H 262.216 1.28389 -1.40058 0
M  V30 2827 H 260.366 3.74024 -1.05062 0
M  V30 2828 H 262.038 2.95748 -3.54021 0
M  V30 2829 H 260.281 2.72756 -3.37323 0
M  V30 2830 H 260.952 4.3613 -3.38371 0
M  V30 2831 H 263.428 3.87361 -1.51957 0
M  V30 2832 H 262.304 5.25532 -1.58452 0
M  V30 2833 H 262.565 4.42058 -0.0611849 0
M  V30 2834 N 261.624 0.925811 1.2754 0
M  V30 2835 C 262.87 0.566092 1.94739 0
M  V30 2836 C 263.203 -0.890057 1.72603 0
M  V30 2837 O 262.478 -1.63467 1.05399 0
M  V30 2838 C 262.761 0.89054 3.48915 0
M  V30 2839 C 262.614 2.4003 3.80402 0
M  V30 2840 C 263.933 0.395101 4.38323 0
M  V30 2841 H 261.052 0.20714 0.707292 0
M  V30 2842 H 263.694 1.15725 1.50691 0
M  V30 2843 H 261.844 0.387452 3.86563 0
M  V30 2844 H 263.516 2.97494 3.52555 0
M  V30 2845 H 261.759 2.85028 3.2702 0
M  V30 2846 H 262.43 2.57785 4.8811 0
M  V30 2847 H 264.906 0.826241 4.07814 0
M  V30 2848 H 263.782 0.651086 5.45025 0
M  V30 2849 H 264.043 -0.704798 4.36446 0
M  V30 2850 N 263.102 -1.41638 0.69111 0
M  V30 2851 C 264.348 -2.01598 0.220519 0
M  V30 2852 C 264.681 -1.54594 -1.17535 0
M  V30 2853 O 263.956 -0.755177 -1.79241 0
M  V30 2854 C 264.239 -3.59062 0.273243 0
M  V30 2855 C 264.092 -4.16203 1.70573 0
M  V30 2856 C 265.411 -4.38546 -0.369457 0
M  V30 2857 H 262.53 -0.732468 0.0816045 0
M  V30 2858 H 265.172 -1.68445 0.878986 0
M  V30 2859 H 263.322 -3.87435 -0.287411 0
M  V30 2860 H 264.994 -3.98722 2.31989 0
M  V30 2861 H 263.237 -3.71414 2.2413 0
M  V30 2862 H 263.908 -5.25358 1.69419 0
M  V30 2863 H 266.384 -4.1596 0.107977 0
M  V30 2864 H 265.26 -5.48069 -0.302002 0
M  V30 2865 H 265.521 -4.17662 -1.44951 0
M  V30 2866 N 264.58 -0.43555 -1.51462 0
M  V30 2867 C 265.828 0.131254 -2.01673 0
M  V30 2868 C 266.149 1.43368 -1.32177 0
M  V30 2869 O 265.419 1.90524 -0.455769 0
M  V30 2870 H 263.999 0.0514954 -0.745223 0
M  V30 2871 H 266.661 -0.577847 -1.86137 0
M  V30 2872 H 265.757 0.308446 -3.10572 0
M  V30 2873 N 266.058 1.56714 -0.166846 0
M  V30 2874 C 267.335 1.88412 0.525373 0
M  V30 2875 C 267.715 1.07602 1.81618 0
M  V30 2876 O 267.063 0.168621 2.27877 0
M  V30 2877 C 267.273 3.40363 0.771613 0
M  V30 2878 C 268.621 4.10007 1.1036 0
M  V30 2879 O 269.645 3.45655 0.860304 0
M  V30 2880 O 268.504 5.2369 1.56239 0
M  V30 2881 H 265.598 0.781587 0.270278 0
M  V30 2882 H 268.144 1.68458 -0.204946 0
M  V30 2883 H 266.916 3.91046 -0.141093 0
M  V30 2884 H 266.539 3.65914 1.55541 0
M  V30 2885 N 267.536 -0.106894 1.57237 0
M  V30 2886 C 268.483 -1.13049 2.01217 0
M  V30 2887 C 269.453 -1.40471 0.886403 0
M  V30 2888 O 270.638 -1.52133 1.15153 0
M  V30 2889 C 267.778 -2.4487 2.43172 0
M  V30 2890 C 266.891 -2.24281 3.69218 0
M  V30 2891 C 266.026 -3.49417 4.00101 0
M  V30 2892 C 265.065 -3.24038 5.19294 0
M  V30 2893 N 264.202 -4.41409 5.45988 0
M  V30 2894 H 269.042 -0.748456 2.88448 0
M  V30 2895 H 266.579 -0.358054 1.42676 0
M  V30 2896 H 268.537 -3.21786 2.65537 0
M  V30 2897 H 267.167 -2.80944 1.58967 0
M  V30 2898 H 266.219 -1.38224 3.54398 0
M  V30 2899 H 267.531 -2.01512 4.56283 0
M  V30 2900 H 266.685 -4.34746 4.2318 0
M  V30 2901 H 265.424 -3.75229 3.11535 0
M  V30 2902 H 264.429 -2.37102 4.96047 0
M  V30 2903 H 265.654 -2.99584 6.09447 0
M  V30 2904 H 263.6 -4.67319 4.60379 0
M  V30 2905 H 263.517 -4.21788 6.274 0
M  V30 2906 H 264.785 -5.27836 5.73593 0
M  V30 2907 N 269.014 -1.53014 -0.377408 0
M  V30 2908 C 270.26 -1.68872 -1.12294 0
M  V30 2909 C 270.593 -0.433224 -1.89306 0
M  V30 2910 O 269.868 0.569258 -1.85983 0
M  V30 2911 C 270.151 -2.93115 -2.09179 0
M  V30 2912 C 270.004 -4.28794 -1.35853 0
M  V30 2913 C 271.323 -3.12928 -3.09458 0
M  V30 2914 H 268.442 -0.614518 -0.406862 0
M  V30 2915 H 271.084 -1.85633 -0.40503 0
M  V30 2916 H 269.234 -2.78956 -2.70399 0
M  V30 2917 H 270.906 -4.54742 -0.775082 0
M  V30 2918 H 269.149 -4.28744 -0.660364 0
M  V30 2919 H 269.82 -5.11837 -2.06706 0
M  V30 2920 H 272.296 -3.26194 -2.58334 0
M  V30 2921 H 271.172 -4.01316 -3.74482 0
M  V30 2922 H 271.433 -2.27669 -3.78971 0
M  V30 2923 N 270.492 0.636531 -1.44174 0
M  V30 2924 C 271.741 1.39213 -1.45954 0
M  V30 2925 C 272.054 1.95374 -0.0939119 0
M  V30 2926 O 273.26 2.71498 0.0107767 0
M  V30 2927 C 271.716 2.52025 -2.56927 0
M  V30 2928 C 271.324 2.024 -3.99673 0
M  V30 2929 C 273.068 3.29269 -2.67922 0
M  V30 2930 C 270.975 3.12521 -5.0208 0
M  V30 2931 H 269.905 0.523132 -0.542999 0
M  V30 2932 H 272.556 0.685349 -1.70221 0
M  V30 2933 H 270.938 3.25253 -2.25891 0
M  V30 2934 H 272.112 1.36073 -4.40251 0
M  V30 2935 H 270.427 1.37987 -3.92872 0
M  V30 2936 H 273.024 4.11352 -3.41605 0
M  V30 2937 H 273.367 3.78397 -1.73555 0
M  V30 2938 H 273.9 2.63129 -2.98342 0
M  V30 2939 H 270.639 2.68343 -5.98057 0
M  V30 2940 H 270.159 3.77507 -4.66099 0
M  V30 2941 H 271.838 3.77385 -5.25538 0
M  V30 2942 N 271.97 1.30982 0.876444 0
M  V30 2943 C 272.9 1.20668 1.99903 0
M  V30 2944 C 273.881 0.095354 1.69833 0
M  V30 2945 O 275.066 0.27885 1.92188 0
M  V30 2946 C 272.196 0.90655 3.3526 0
M  V30 2947 C 271.15 1.97675 3.79617 0
M  V30 2948 C 270.476 1.52943 5.1236 0
M  V30 2949 C 271.776 3.389 3.97422 0
M  V30 2950 H 273.47 2.14586 2.0879 0
M  V30 2951 H 271.016 1.03308 1.00317 0
M  V30 2952 H 272.969 0.821025 4.13324 0
M  V30 2953 H 271.693 -0.0682969 3.26529 0
M  V30 2954 H 270.352 2.05205 3.03787 0
M  V30 2955 H 270 0.54262 5.00065 0
M  V30 2956 H 269.7 2.24532 5.43009 0
M  V30 2957 H 271.224 1.45786 5.92941 0
M  V30 2958 H 272.638 3.34081 4.659 0
M  V30 2959 H 271.035 4.0865 4.3946 0
M  V30 2960 H 272.105 3.80163 3.01006 0
M  V30 2961 N 273.449 -1.08991 1.13837 0
M  V30 2962 C 274.397 -2.17841 0.815347 0
M  V30 2963 C 275.391 -1.68164 -0.204233 0
M  V30 2964 O 276.597 -1.79897 -0.0609304 0
M  V30 2965 H 272.972 -0.710654 0.245915 0
M  V30 2966 H 274.943 -2.42315 1.74143 0
M  V30 2967 C 273.692 -3.46381 0.302614 0
M  V30 2968 H 273.015 -3.84979 1.0785 0
M  V30 2969 H 274.455 -4.23844 0.115074 0
M  V30 2970 C 272.914 -3.22556 -0.972591 0
M  V30 2971 O 273.444 -3.45599 -2.04754 0
M  V30 2972 N 271.65 -2.76134 -0.905455 0
M  V30 2973 H 271.197 -2.57582 -0.0305421 0
M  V30 2974 H 271.155 -2.60571 -1.75926 0
M  V30 2975 N 274.927 -0.932562 -1.27047 0
M  V30 2976 C 276.338 -0.619451 -1.76124 0
M  V30 2977 C 276.689 0.865397 -1.76083 0
M  V30 2978 O 275.814 1.67722 -1.36742 0
M  V30 2979 C 276.409 -1.11771 -3.19832 0
M  V30 2980 C 274.968 -0.855174 -3.66557 0
M  V30 2981 C 274.115 -1.27362 -2.46321 0
M  V30 2982 H 277.066 -1.11181 -1.13245 0
M  V30 2983 H 277.087 -0.46759 -3.77616 0
M  V30 2984 H 276.599 -2.19842 -3.1983 0
M  V30 2985 H 274.7 0.211524 -3.71999 0
M  V30 2986 H 274.813 -1.47613 -4.55793 0
M  V30 2987 H 273.177 -0.692119 -2.45116 0
M  V30 2988 H 273.96 -2.36307 -2.49025 0
M  V30 2989 N 276.405 1.4127 -0.698611 0
M  V30 2990 C 277.651 2.01478 -0.231207 0
M  V30 2991 C 277.984 1.55215 1.16713 0
M  V30 2992 O 277.259 0.764672 1.78838 0
M  V30 2993 C 277.542 3.58912 -0.292281 0
M  V30 2994 C 277.395 4.15293 -1.72778 0
M  V30 2995 C 278.714 4.38736 0.346194 0
M  V30 2996 H 275.833 0.732025 -0.0854878 0
M  V30 2997 H 278.475 1.67977 -0.887906 0
M  V30 2998 H 276.625 3.87582 0.26686 0
M  V30 2999 H 278.297 3.97486 -2.341 0
M  V30 3000 H 276.54 3.7022 -2.26096 0
M  V30 3001 H 277.211 5.24452 -1.72202 0
M  V30 3002 H 279.687 4.15897 -0.130035 0
M  V30 3003 H 278.563 5.48221 0.272932 0
M  V30 3004 H 278.824 4.18425 1.42734 0
M  V30 3005 N 277.883 0.443576 1.51229 0
M  V30 3006 C 278.831 -0.37904 2.29491 0
M  V30 3007 C 279.825 -1.0153 1.35603 0
M  V30 3008 O 281.031 -0.94955 1.52917 0
M  V30 3009 H 277.406 -0.141053 0.738653 0
M  V30 3010 H 279.377 0.301799 2.9687 0
M  V30 3011 C 278.126 -1.46426 3.15364 0
M  V30 3012 H 277.449 -0.984037 3.87501 0
M  V30 3013 H 278.889 -2.01297 3.7317 0
M  V30 3014 C 277.348 -2.45099 2.31146 0
M  V30 3015 O 277.878 -3.49773 1.9754 0
M  V30 3016 N 276.084 -2.16139 1.94249 0
M  V30 3017 H 275.631 -1.31044 2.21777 0
M  V30 3018 H 275.589 -2.82398 1.38198 0
M  V30 3019 N 279.361 -1.56624 0.175154 0
M  V30 3020 C 280.324 -2.16934 -0.739738 0
M  V30 3021 C 281.324 -1.11842 -1.15533 0
M  V30 3022 O 282.514 -1.37335 -1.07167 0
M  V30 3023 C 279.646 -2.75531 -2.00738 0
M  V30 3024 H 280.839 -2.99131 -0.214639 0
M  V30 3025 H 278.392 -1.56123 -0.0744197 0
M  V30 3026 H 279.127 -1.97078 -2.57548 0
M  V30 3027 H 278.912 -3.52444 -1.71831 0
M  V30 3028 H 280.402 -3.21904 -2.66021 0
M  V30 3029 N 280.839 0.0985539 -1.57292 0
M  V30 3030 C 282.087 0.801092 -1.85545 0
M  V30 3031 C 282.408 1.79438 -0.763353 0
M  V30 3032 O 281.678 1.94763 0.21073 0
M  V30 3033 H 280.258 0.29884 -0.684619 0
M  V30 3034 H 282.92 0.0810064 -1.94732 0
M  V30 3035 H 282.016 1.3338 -2.82163 0
M  V30 3036 N 282.317 1.53212 0.369288 0
M  V30 3037 C 283.249 1.75668 1.47219 0
M  V30 3038 C 284.262 0.637387 1.49804 0
M  V30 3039 O 285.451 0.913561 1.5335 0
M  V30 3040 C 282.551 1.81818 2.85999 0
M  V30 3041 C 281.724 3.11409 3.07153 0
M  V30 3042 C 280.783 3.08849 4.26026 0
M  V30 3043 O 279.809 3.82659 4.2138 0
M  V30 3044 N 281.011 2.29409 5.33246 0
M  V30 3045 H 283.776 2.70832 1.28337 0
M  V30 3046 H 281.337 1.51944 0.55898 0
M  V30 3047 H 283.329 1.77588 3.63655 0
M  V30 3048 H 281.899 0.939544 2.98146 0
M  V30 3049 H 281.119 3.28971 2.1719 0
M  V30 3050 H 282.407 3.97059 3.18154 0
M  V30 3051 H 281.805 1.68946 5.39883 0
M  V30 3052 H 280.362 2.31001 6.09493 0
M  V30 3053 N 283.795 -0.628877 1.44509 0
M  V30 3054 C 285.206 -1.21054 1.42137 0
M  V30 3055 C 285.557 -1.95715 0.137881 0
M  V30 3056 O 284.682 -2.02554 -0.761645 0
M  V30 3057 C 285.277 -2.20189 2.57493 0
M  V30 3058 C 283.836 -2.73777 2.58308 0
M  V30 3059 C 282.983 -1.48813 2.33987 0
M  V30 3060 H 285.934 -0.41942 1.53057 0
M  V30 3061 H 285.955 -3.02833 2.30375 0
M  V30 3062 H 285.467 -1.6582 3.50892 0
M  V30 3063 H 283.568 -3.32142 1.68856 0
M  V30 3064 H 283.681 -3.19662 3.56865 0
M  V30 3065 H 282.045 -1.77024 1.83124 0
M  V30 3066 H 282.828 -0.963442 3.29504 0
M  V30 3067 N 285.273 -1.31445 -0.869486 0
M  V30 3068 C 286.203 -1.21727 -1.99261 0
M  V30 3069 C 287.184 -0.104359 -1.6978 0
M  V30 3070 O 288.369 -0.289038 -1.92037 0
M  V30 3071 C 285.499 -0.924317 -3.34774 0
M  V30 3072 C 284.453 -1.99685 -3.78563 0
M  V30 3073 C 283.779 -1.55658 -5.11541 0
M  V30 3074 C 285.079 -3.41003 -3.95619 0
M  V30 3075 H 286.773 -2.1569 -2.07649 0
M  V30 3076 H 284.319 -1.03839 -0.997675 0
M  V30 3077 H 286.272 -0.842934 -4.12883 0
M  V30 3078 H 284.996 0.0509793 -3.2656 0
M  V30 3079 H 283.655 -2.06813 -3.02694 0
M  V30 3080 H 283.303 -0.569132 -4.9977 0
M  V30 3081 H 283.003 -2.27409 -5.41811 0
M  V30 3082 H 284.527 -1.48928 -5.92159 0
M  V30 3083 H 285.941 -3.36547 -4.64122 0
M  V30 3084 H 284.338 -4.10975 -4.37286 0
M  V30 3085 H 285.408 -3.81754 -2.98985 0
M  V30 3086 N 286.751 1.08385 -1.14413 0
M  V30 3087 C 287.701 2.13509 -0.79987 0
M  V30 3088 C 288.685 1.5951 0.211059 0
M  V30 3089 O 289.877 1.76995 0.0133694 0
M  V30 3090 C 287.006 3.42162 -0.279297 0
M  V30 3091 C 286.092 4.03042 -1.31976 0
M  V30 3092 N 286.483 4.38327 -2.52395 0
M  V30 3093 C 284.781 4.30379 -1.17004 0
M  V30 3094 C 285.482 4.86428 -3.19003 0
M  V30 3095 N 284.458 4.84547 -2.46405 0
M  V30 3096 H 288.26 2.38609 -1.7159 0
M  V30 3097 H 285.774 1.2572 -1.02802 0
M  V30 3098 H 287.771 4.16898 -0.0143688 0
M  V30 3099 H 286.431 3.18511 0.630923 0
M  V30 3100 H 287.442 4.29349 -2.89621 0
M  V30 3101 H 284.119 4.16281 -0.318854 0
M  V30 3102 H 285.509 5.23107 -4.21674 0
M  V30 3103 N 288.23 0.939286 1.26551 0
M  V30 3104 C 289.193 0.451987 2.24699 0
M  V30 3105 C 290.193 -0.435869 1.5478 0
M  V30 3106 O 291.383 -0.235314 1.72603 0
M  V30 3107 C 288.515 -0.348801 3.39111 0
M  V30 3108 H 289.708 1.3193 2.69322 0
M  V30 3109 H 287.261 0.721072 1.38673 0
M  V30 3110 H 287.996 -1.23444 2.99887 0
M  V30 3111 H 287.781 0.287945 3.91041 0
M  V30 3112 H 289.271 -0.679726 4.12031 0
M  V30 3113 N 289.708 -1.40897 0.706093 0
M  V30 3114 C 290.933 -2.05895 0.249435 0
M  V30 3115 C 291.358 -1.52823 -1.09666 0
M  V30 3116 O 290.716 -0.659589 -1.68876 0
M  V30 3117 C 290.764 -3.59872 0.22904 0
M  V30 3118 O 289.868 -4.04708 -0.792784 0
M  V30 3119 H 289.209 -0.653206 0.119241 0
M  V30 3120 H 291.739 -1.80471 0.96391 0
M  V30 3121 H 291.749 -4.07951 0.0634791 0
M  V30 3122 H 290.424 -3.97866 1.21141 0
M  V30 3123 H 289.001 -3.68111 -0.59572 0
M  V30 3124 N 291.186 -0.45159 -1.50991 0
M  V30 3125 C 292.134 0.366864 -2.29689 0
M  V30 3126 C 293.128 1.00809 -1.36139 0
M  V30 3127 O 294.334 0.941427 -1.53418 0
M  V30 3128 H 290.709 0.137133 -0.739391 0
M  V30 3129 H 292.68 -0.317538 -2.96706 0
M  V30 3130 C 291.429 1.44751 -3.16137 0
M  V30 3131 H 290.752 0.963473 -3.88017 0
M  V30 3132 H 292.192 1.99315 -3.74232 0
M  V30 3133 C 290.651 2.43869 -2.32442 0
M  V30 3134 O 291.181 3.4872 -1.99392 0
M  V30 3135 N 289.387 2.15105 -1.95392 0
M  V30 3136 H 288.934 1.29866 -2.22469 0
M  V30 3137 H 288.892 2.81661 -1.39693 0
M  V30 3138 N 292.664 1.56529 -0.183458 0
M  V30 3139 C 293.894 2.01331 0.463612 0
M  V30 3140 C 294.302 1.06278 1.5653 0
M  V30 3141 O 293.645 0.0577976 1.83609 0
M  V30 3142 C 293.707 3.42547 1.09096 0
M  V30 3143 C 293.371 4.56817 0.129442 0
M  V30 3144 C 294.368 5.15734 -0.656807 0
M  V30 3145 C 292.053 5.02295 0.02174 0
M  V30 3146 C 294.047 6.1857 -1.53784 0
M  V30 3147 C 291.734 6.04978 -0.862864 0
M  V30 3148 C 292.732 6.62988 -1.64123 0
M  V30 3149 O 292.42 7.63677 -2.51103 0
M  V30 3150 H 292.152 0.664917 0.121907 0
M  V30 3151 H 294.706 2.034 -0.285954 0
M  V30 3152 H 292.936 3.37428 1.88889 0
M  V30 3153 H 294.625 3.71228 1.64148 0
M  V30 3154 H 295.391 4.81473 -0.583839 0
M  V30 3155 H 291.27 4.56847 0.617392 0
M  V30 3156 H 294.814 6.63777 -2.14583 0
M  V30 3157 H 290.711 6.38663 -0.93699 0
M  V30 3158 H 291.479 7.81049 -2.44753 0
M  V30 3159 N 294.142 -0.090211 1.57342 0
M  V30 3160 C 295.052 -1.12735 2.05738 0
M  V30 3161 C 296.068 -1.43557 0.983231 0
M  V30 3162 O 297.244 -1.54101 1.29672 0
M  V30 3163 C 294.309 -2.42659 2.47624 0
M  V30 3164 C 293.37 -2.18975 3.69254 0
M  V30 3165 C 292.603 -3.42704 4.09133 0
M  V30 3166 O 292.826 -4.51127 3.49057 0
M  V30 3167 O 291.76 -3.32003 5.02053 0
M  V30 3168 H 295.586 -0.746279 2.94388 0
M  V30 3169 H 293.171 -0.303064 1.46294 0
M  V30 3170 H 295.053 -3.19155 2.7517 0
M  V30 3171 H 293.728 -2.80182 1.62109 0
M  V30 3172 H 292.635 -1.40244 3.46818 0
M  V30 3173 H 293.968 -1.86342 4.55563 0
M  V30 3174 N 295.62 -1.53406 -0.361157 0
M  V30 3175 C 296.55 -1.83136 -1.44857 0
M  V30 3176 C 297.531 -0.685174 -1.5569 0
M  V30 3177 O 298.716 -0.93544 -1.70186 0
M  V30 3178 C 295.846 -2.02522 -2.82138 0
M  V30 3179 C 294.8 -3.18302 -2.86126 0
M  V30 3180 C 294.126 -3.22989 -4.26125 0
M  V30 3181 C 295.426 -4.56796 -2.53248 0
M  V30 3182 H 297.12 -2.74201 -1.20226 0
M  V30 3183 H 294.666 -1.31938 -0.576922 0
M  V30 3184 H 296.619 -2.21904 -3.58241 0
M  V30 3185 H 295.343 -1.08172 -3.08166 0
M  V30 3186 H 294.002 -2.98747 -2.12475 0
M  V30 3187 H 293.65 -2.26267 -4.49235 0
M  V30 3188 H 293.35 -4.00781 -4.29708 0
M  V30 3189 H 294.874 -3.44559 -5.04094 0
M  V30 3190 H 296.288 -4.7631 -3.19064 0
M  V30 3191 H 294.685 -5.36862 -2.68141 0
M  V30 3192 H 295.755 -4.61606 -1.48484 0
M  V30 3193 N 297.098 0.621204 -1.44841 0
M  V30 3194 C 298.323 1.41244 -1.51871 0
M  V30 3195 C 298.748 1.87519 -0.147764 0
M  V30 3196 O 298.106 1.59334 0.865 0
M  V30 3197 C 298.154 2.60221 -2.49634 0
M  V30 3198 O 297.258 3.60395 -2.00473 0
M  V30 3199 H 296.599 0.42223 -0.512463 0
M  V30 3200 H 299.129 0.757305 -1.90069 0
M  V30 3201 H 299.139 3.0764 -2.67996 0
M  V30 3202 H 297.814 2.25887 -3.4921 0
M  V30 3203 H 296.391 3.19717 -1.91925 0
M  V30 3204 N 298.576 1.31904 0.862503 0
M  V30 3205 C 299.853 1.12644 1.59908 0
M  V30 3206 C 300.233 -0.316104 2.0872 0
M  V30 3207 O 299.581 -1.31145 1.87118 0
M  V30 3208 C 299.791 2.1472 2.7513 0
M  V30 3209 C 301.139 2.47637 3.44907 0
M  V30 3210 O 302.163 2.13205 2.85346 0
M  V30 3211 O 301.022 3.06632 4.52371 0
M  V30 3212 H 298.116 0.43416 0.703871 0
M  V30 3213 H 300.662 1.43408 0.907314 0
M  V30 3214 H 299.434 3.1172 2.3653 0
M  V30 3215 H 299.057 1.84905 3.51989 0
M  V30 3216 N 300.054 -1.07777 1.14986 0
M  V30 3217 C 301.002 -2.16964 0.838406 0
M  V30 3218 C 301.996 -1.68372 -0.186386 0
M  V30 3219 O 303.202 -1.79951 -0.0418465 0
M  V30 3220 H 299.577 -0.708006 0.253439 0
M  V30 3221 H 301.548 -2.40454 1.76704 0
M  V30 3222 C 300.297 -3.4604 0.339335 0
M  V30 3223 H 299.62 -3.83813 1.11927 0
M  V30 3224 H 301.06 -4.23698 0.160021 0
M  V30 3225 C 299.519 -3.23569 -0.938325 0
M  V30 3226 O 300.049 -3.47752 -2.01077 0
M  V30 3227 N 298.255 -2.77079 -0.876117 0
M  V30 3228 H 297.802 -2.576 -0.00322037 0
M  V30 3229 H 297.76 -2.62422 -1.73153 0
M  V30 3230 N 301.532 -0.945985 -1.26051 0
M  V30 3231 C 302.495 -0.463897 -2.24456 0
M  V30 3232 C 303.495 0.427655 -1.55009 0
M  V30 3233 O 304.685 0.226157 -1.72726 0
M  V30 3234 C 301.817 0.330812 -3.39291 0
M  V30 3235 H 303.01 -1.33357 -2.68619 0
M  V30 3236 H 300.563 -0.728416 -1.38289 0
M  V30 3237 H 301.298 1.21852 -3.00537 0
M  V30 3238 H 301.083 -0.308679 -3.90883 0
M  V30 3239 H 302.573 0.657865 -4.12386 0
M  V30 3240 N 303.011 1.40521 -0.713556 0
M  V30 3241 C 304.259 2.00527 -0.251692 0
M  V30 3242 C 304.58 1.56857 1.15848 0
M  V30 3243 O 303.85 0.807127 1.785 0
M  V30 3244 H 302.43 0.741551 -0.0900646 0
M  V30 3245 H 305.092 1.71887 -0.918733 0
M  V30 3246 H 304.188 3.10813 -0.283192 0
M  V30 3247 N 304.489 0.459591 1.5075 0
M  V30 3248 C 305.729 -0.09824 2.04164 0
M  V30 3249 C 306.093 -1.3801 1.33481 0
M  V30 3250 O 307.294 -2.01959 1.77387 0
M  V30 3251 C 305.565 -0.289467 3.56226 0
M  V30 3252 S 307.124 -0.807507 4.31306 0
M  V30 3253 H 303.942 -0.0213845 0.710678 0
M  V30 3254 H 306.544 0.624098 1.85271 0
M  V30 3255 H 305.248 0.649461 4.05229 0
M  V30 3256 H 304.779 -1.03825 3.79452 0
M  V30 3257 H 306.794 -2.0824 4.50389 0
M  V30 3258 N 305.967 -1.56429 0.191757 0
M  V30 3259 C 306.914 -2.18936 -0.730454 0
M  V30 3260 C 307.884 -1.13557 -1.21219 0
M  V30 3261 O 309.069 -1.41794 -1.27668 0
M  V30 3262 C 306.209 -2.85013 -1.9458 0
M  V30 3263 C 305.322 -4.04909 -1.50574 0
M  V30 3264 C 304.457 -4.58853 -2.67634 0
M  V30 3265 C 303.496 -5.71114 -2.20217 0
M  V30 3266 N 302.633 -6.19478 -3.30442 0
M  V30 3267 H 307.473 -2.97389 -0.190664 0
M  V30 3268 H 305.01 -1.46869 -0.0823694 0
M  V30 3269 H 306.968 -3.21492 -2.65893 0
M  V30 3270 H 305.598 -2.09129 -2.45896 0
M  V30 3271 H 304.65 -3.74115 -0.688605 0
M  V30 3272 H 305.962 -4.86113 -1.11784 0
M  V30 3273 H 305.116 -4.97619 -3.47074 0
M  V30 3274 H 303.855 -3.76749 -3.09696 0
M  V30 3275 H 302.86 -5.31879 -1.3923 0
M  V30 3276 H 304.085 -6.55033 -1.79189 0
M  V30 3277 H 302.031 -5.40297 -3.72041 0
M  V30 3278 H 301.948 -6.95725 -2.9581 0
M  V30 3279 H 303.216 -6.62898 -4.10106 0
M  V30 3280 N 307.445 0.0818655 -1.57387 0
M  V30 3281 C 308.355 1.11642 -2.06333 0
M  V30 3282 C 309.371 1.43033 -0.99083 0
M  V30 3283 O 310.547 1.53411 -1.30488 0
M  V30 3284 C 307.612 2.41342 -2.48907 0
M  V30 3285 C 306.673 2.17014 -3.7041 0
M  V30 3286 C 305.906 3.4053 -4.10944 0
M  V30 3287 O 306.129 4.4927 -3.51444 0
M  V30 3288 O 305.063 3.29336 -5.03807 0
M  V30 3289 H 308.889 0.730657 -2.9478 0
M  V30 3290 H 306.474 0.295301 -1.46452 0
M  V30 3291 H 308.356 3.17691 -2.76858 0
M  V30 3292 H 307.031 2.79319 -1.63593 0
M  V30 3293 H 305.938 1.38403 -3.47556 0
M  V30 3294 H 307.271 1.83923 -4.56545 0
M  V30 3295 N 308.923 1.53595 0.353017 0
M  V30 3296 C 310.169 1.70638 1.09593 0
M  V30 3297 C 310.502 0.463286 1.88593 0
M  V30 3298 O 309.777 -0.539597 1.86865 0
M  V30 3299 C 310.06 2.96406 2.04489 0
M  V30 3300 C 309.913 4.30901 1.29014 0
M  V30 3301 C 311.232 3.17812 3.0444 0
M  V30 3302 H 308.351 0.620913 0.397034 0
M  V30 3303 H 310.993 1.86254 0.375446 0
M  V30 3304 H 309.143 2.83223 2.65927 0
M  V30 3305 H 310.815 4.55917 0.702638 0
M  V30 3306 H 309.058 4.29741 0.592071 0
M  V30 3307 H 309.729 5.1506 1.98537 0
M  V30 3308 H 312.205 3.30263 2.53112 0
M  V30 3309 H 311.081 4.07223 3.6805 0
M  V30 3310 H 311.342 2.33669 3.75301 0
M  V30 3311 N 310.401 -0.613514 1.45168 0
M  V30 3312 C 311.349 -1.74572 1.53712 0
M  V30 3313 C 312.343 -1.64426 0.407505 0
M  V30 3314 O 313.549 -1.70291 0.583176 0
M  V30 3315 H 309.924 -0.576641 0.48269 0
M  V30 3316 H 311.895 -1.64492 2.48968 0
M  V30 3317 C 310.644 -3.12943 1.51532 0
M  V30 3318 H 309.967 -3.21407 2.37776 0
M  V30 3319 H 311.407 -3.9201 1.61569 0
M  V30 3320 C 309.866 -3.36053 0.238798 0
M  V30 3321 O 310.396 -3.95837 -0.6838 0
M  V30 3322 N 308.602 -2.9028 0.136359 0
M  V30 3323 H 308.149 -2.41811 0.887999 0
M  V30 3324 H 308.107 -3.06116 -0.716944 0
M  V30 3325 N 311.879 -1.3236 -0.855495 0
M  V30 3326 C 313.104 -1.2601 -1.64731 0
M  V30 3327 C 313.529 0.169068 -1.87339 0
M  V30 3328 O 312.887 1.12016 -1.42556 0
M  V30 3329 C 312.935 -2.02417 -2.98429 0
M  V30 3330 O 312.039 -1.3714 -3.8893 0
M  V30 3331 H 311.38 -0.434325 -0.502253 0
M  V30 3332 H 313.91 -1.74661 -1.06558 0
M  V30 3333 H 313.92 -2.12559 -3.48257 0
M  V30 3334 H 312.595 -3.06343 -2.81295 0
M  V30 3335 H 311.172 -1.3554 -3.47395 0
M  V30 3336 N 313.357 1.07166 -1.15556 0
M  V30 3337 C 314.603 1.80065 -0.932984 0
M  V30 3338 C 314.936 1.86586 0.53845 0
M  V30 3339 O 314.211 1.35098 1.39924 0
M  V30 3340 C 314.494 3.25022 -1.55025 0
M  V30 3341 C 314.347 3.26634 -3.09242 0
M  V30 3342 C 315.666 4.22341 -1.2376 0
M  V30 3343 H 312.785 0.653697 -0.340366 0
M  V30 3344 H 315.427 1.25389 -1.4275 0
M  V30 3345 H 313.577 3.71712 -1.12972 0
M  V30 3346 H 315.249 2.88173 -3.60214 0
M  V30 3347 H 313.492 2.65539 -3.43033 0
M  V30 3348 H 314.163 4.28854 -3.47546 0
M  V30 3349 H 316.639 3.8405 -1.60139 0
M  V30 3350 H 315.515 5.22053 -1.69564 0
M  V30 3351 H 315.776 4.41828 -0.154938 0
M  V30 3352 N 314.835 0.952656 1.25548 0
M  V30 3353 C 315.783 0.462354 2.27958 0
M  V30 3354 C 316.777 -0.46634 1.62855 0
M  V30 3355 O 317.983 -0.343287 1.76696 0
M  V30 3356 H 314.358 0.13101 0.7405 0
M  V30 3357 H 316.329 1.33839 2.66702 0
M  V30 3358 C 315.078 -0.24628 3.46827 0
M  V30 3359 H 314.401 0.459192 3.97154 0
M  V30 3360 H 315.841 -0.553393 4.20373 0
M  V30 3361 C 314.3 -1.4681 3.0323 0
M  V30 3362 O 314.83 -2.56591 3.09069 0
M  V30 3363 N 313.036 -1.32874 2.58443 0
M  V30 3364 H 312.583 -0.435536 2.53891 0
M  V30 3365 H 312.541 -2.14742 2.29637 0
M  V30 3366 N 316.313 -1.40141 0.720998 0
M  V30 3367 C 317.553 -2.02644 0.267335 0
M  V30 3368 C 317.917 -1.55948 -1.12001 0
M  V30 3369 O 319.118 -2.10552 -1.67097 0
M  V30 3370 C 317.389 -3.55679 0.350281 0
M  V30 3371 S 318.948 -4.38793 -0.0256004 0
M  V30 3372 H 315.766 -0.703105 0.105664 0
M  V30 3373 H 318.368 -1.71175 0.944416 0
M  V30 3374 H 317.072 -3.87157 1.36153 0
M  V30 3375 H 316.603 -3.91883 -0.345096 0
M  V30 3376 H 318.618 -4.803 -1.24604 0
M  V30 3377 N 317.792 -0.46758 -1.50504 0
M  V30 3378 C 318.74 0.342482 -2.30065 0
M  V30 3379 C 319.734 0.993596 -1.37201 0
M  V30 3380 O 320.94 0.925102 -1.54408 0
M  V30 3381 H 317.315 0.129283 -0.740803 0
M  V30 3382 H 319.286 -0.34899 -2.96352 0
M  V30 3383 C 318.035 1.4139 -3.17654 0
M  V30 3384 H 317.358 0.922264 -3.89017 0
M  V30 3385 H 318.798 1.95335 -3.76325 0
M  V30 3386 C 317.257 2.4139 -2.35016 0
M  V30 3387 O 317.787 3.46586 -2.03079 0
M  V30 3388 N 315.993 2.13021 -1.97662 0
M  V30 3389 H 315.54 1.27499 -2.23834 0
M  V30 3390 H 315.498 2.80164 -1.42673 0
M  V30 3391 N 319.27 1.56325 -0.20005 0
M  V30 3392 C 320.498 2.02105 0.442874 0
M  V30 3393 C 320.913 1.08014 1.5485 0
M  V30 3394 O 320.27 0.0858797 1.82298 0
M  V30 3395 C 320.321 3.47549 0.994583 0
M  V30 3396 O 320.042 4.38049 -0.0669322 0
M  V30 3397 C 321.543 4.0887 1.7129 0
M  V30 3398 H 318.763 0.661807 0.110691 0
M  V30 3399 H 321.307 2.02134 -0.310207 0
M  V30 3400 H 319.462 3.48204 1.69803 0
M  V30 3401 H 319.876 5.23368 0.344462 0
M  V30 3402 H 321.35 5.12475 2.05118 0
M  V30 3403 H 321.827 3.52615 2.61838 0
M  V30 3404 H 322.433 4.12002 1.05518 0
M  V30 3405 N 320.748 -0.0735177 1.57428 0
M  V30 3406 C 321.973 -0.789787 1.91774 0
M  V30 3407 C 322.398 -1.70413 0.796306 0
M  V30 3408 O 321.756 -1.79555 -0.250961 0
M  V30 3409 C 321.804 -1.5609 3.25067 0
M  V30 3410 O 320.908 -2.67144 3.14178 0
M  V30 3411 H 320.249 -0.215582 0.628029 0
M  V30 3412 H 322.779 -0.0422781 2.04556 0
M  V30 3413 H 322.789 -1.94052 3.58898 0
M  V30 3414 H 321.464 -0.890015 4.06265 0
M  V30 3415 H 320.041 -2.32052 2.91901 0
M  V30 3416 N 322.226 -1.5378 -0.344866 0
M  V30 3417 C 323.472 -1.72158 -1.0832 0
M  V30 3418 C 323.827 -0.478218 -1.86362 0
M  V30 3419 O 323.12 0.529152 -1.84148 0
M  V30 3420 C 323.314 -2.92407 -2.05506 0
M  V30 3421 C 323.143 -4.28318 -1.37017 0
M  V30 3422 C 321.913 -4.92832 -1.11558 0
M  V30 3423 C 324.111 -5.08086 -0.797071 0
M  V30 3424 N 322.093 -6.12619 -0.396358 0
M  V30 3425 C 323.464 -6.1965 -0.208336 0
M  V30 3426 C 325.519 -4.92986 -0.697787 0
M  V30 3427 C 324.222 -7.17763 0.470023 0
M  V30 3428 C 326.248 -5.91391 -0.033171 0
M  V30 3429 C 325.61 -7.02292 0.544599 0
M  V30 3430 H 321.709 -0.683017 -0.380805 0
M  V30 3431 H 324.293 -1.91211 -0.366961 0
M  V30 3432 H 322.464 -2.74857 -2.74423 0
M  V30 3433 H 324.196 -2.9951 -2.72169 0
M  V30 3434 H 320.951 -4.52362 -1.40234 0
M  V30 3435 H 321.375 -6.7698 -0.0515119 0
M  V30 3436 H 326.017 -4.07414 -1.13022 0
M  V30 3437 H 323.735 -8.0291 0.914351 0
M  V30 3438 H 327.321 -5.81784 0.0430009 0
M  V30 3439 H 326.201 -7.77129 1.05073 0
M  V30 3440 N 323.704 0.605807 -1.45491 0
M  V30 3441 C 324.651 1.7164 -1.54299 0
M  V30 3442 C 325.621 1.61486 -0.388761 0
M  V30 3443 O 326.806 1.81039 -0.602445 0
M  V30 3444 C 323.946 3.09953 -1.51734 0
M  V30 3445 C 323.059 3.309 -2.77721 0
M  V30 3446 C 322.194 4.59329 -2.66816 0
M  V30 3447 C 321.233 4.7354 -3.87848 0
M  V30 3448 N 320.37 5.9327 -3.75467 0
M  V30 3449 H 325.21 1.63449 -2.49176 0
M  V30 3450 H 322.747 0.796957 -1.23641 0
M  V30 3451 H 324.705 3.89977 -1.48235 0
M  V30 3452 H 323.335 3.17098 -0.604068 0
M  V30 3453 H 322.387 2.44639 -2.913 0
M  V30 3454 H 323.699 3.37274 -3.67488 0
M  V30 3455 H 322.853 5.4755 -2.61292 0
M  V30 3456 H 321.592 4.55355 -1.74651 0
M  V30 3457 H 320.597 3.83741 -3.93729 0
M  V30 3458 H 321.822 4.79309 -4.81082 0
M  V30 3459 H 319.768 5.90338 -2.86072 0
M  V30 3460 H 319.685 6.00811 -4.5887 0
M  V30 3461 H 320.953 6.83984 -3.73879 0
M  V30 3462 N 325.182 1.32811 0.848464 0
M  V30 3463 C 326.431 1.23075 1.59798 0
M  V30 3464 C 326.744 -0.204419 1.94529 0
M  V30 3465 O 327.95 -0.423701 2.68173 0
M  V30 3466 C 326.406 2.15594 2.88179 0
M  V30 3467 C 326.014 3.64228 2.60849 0
M  V30 3468 C 327.758 2.14709 3.66197 0
M  V30 3469 C 325.665 4.48689 3.85269 0
M  V30 3470 H 324.595 0.457091 0.599653 0
M  V30 3471 H 327.246 1.57813 0.936342 0
M  V30 3472 H 325.628 1.73778 3.55833 0
M  V30 3473 H 326.802 4.14424 2.01467 0
M  V30 3474 H 325.117 3.67306 1.96151 0
M  V30 3475 H 327.714 2.75046 4.58534 0
M  V30 3476 H 328.057 1.13966 4.00397 0
M  V30 3477 H 328.59 2.54837 3.05455 0
M  V30 3478 H 325.329 5.5027 3.56207 0
M  V30 3479 H 324.849 4.03241 4.44024 0
M  V30 3480 H 326.528 4.62006 4.52946 0
M  V30 3481 N 326.66 -1.06551 1.16123 0
M  V30 3482 C 327.608 -2.16063 0.861371 0
M  V30 3483 C 328.602 -1.6856 -0.168517 0
M  V30 3484 O 329.808 -1.79986 -0.0227579 0
M  V30 3485 H 326.183 -0.705278 0.260934 0
M  V30 3486 H 328.154 -2.38567 1.79244 0
M  V30 3487 C 326.903 -3.45661 0.376018 0
M  V30 3488 H 326.226 -3.82604 1.15992 0
M  V30 3489 H 327.666 -4.23504 0.204951 0
M  V30 3490 C 326.125 -3.24546 -0.903954 0
M  V30 3491 O 326.655 -3.49865 -1.97377 0
M  V30 3492 N 324.861 -2.77992 -0.846679 0
M  V30 3493 H 324.408 -2.57589 0.0241017 0
M  V30 3494 H 324.366 -2.64244 -1.70359 0
M  V30 3495 N 328.138 -0.959301 -1.25041 0
M  V30 3496 C 329.068 -0.501388 -2.28053 0
M  V30 3497 C 330.049 0.454673 -1.63911 0
M  V30 3498 O 331.234 0.352618 -1.90972 0
M  V30 3499 C 328.364 0.217224 -3.4662 0
M  V30 3500 C 327.318 -0.654034 -4.22973 0
M  V30 3501 C 326.644 0.195589 -5.34342 0
M  V30 3502 C 327.944 -1.93447 -4.85155 0
M  V30 3503 H 329.638 -1.36238 -2.66608 0
M  V30 3504 H 327.184 -0.656534 -1.28163 0
M  V30 3505 H 329.137 0.548732 -4.17812 0
M  V30 3506 H 327.861 1.1125 -3.07068 0
M  V30 3507 H 326.52 -0.968693 -3.5357 0
M  V30 3508 H 326.168 1.09076 -4.91031 0
M  V30 3509 H 325.868 -0.384091 -5.86343 0
M  V30 3510 H 327.392 0.521958 -6.08365 0
M  V30 3511 H 328.806 -1.66908 -5.48466 0
M  V30 3512 H 327.203 -2.46018 -5.47353 0
M  V30 3513 H 328.273 -2.63466 -4.07079 0
M  V30 3514 N 329.616 1.39756 -0.72842 0
M  V30 3515 C 330.863 2.00645 -0.273487 0
M  V30 3516 C 331.191 1.57786 1.13727 0
M  V30 3517 O 330.446 0.794886 1.7883 0
M  V30 3518 C 330.745 3.56002 -0.315776 0
M  V30 3519 C 330.411 4.18489 -1.67863 0
M  V30 3520 C 329.073 4.3527 -2.05166 0
M  V30 3521 C 331.425 4.53219 -2.57375 0
M  V30 3522 C 328.753 4.84069 -3.31503 0
M  V30 3523 C 331.105 5.03423 -3.83077 0
M  V30 3524 C 329.769 5.18413 -4.20481 0
M  V30 3525 H 329.039 0.734211 -0.100076 0
M  V30 3526 H 331.686 1.6718 -0.933972 0
M  V30 3527 H 329.991 3.89452 0.428285 0
M  V30 3528 H 331.688 4.00963 0.0542575 0
M  V30 3529 H 328.278 4.05824 -1.37858 0
M  V30 3530 H 332.462 4.39878 -2.29827 0
M  V30 3531 H 327.718 4.93859 -3.60435 0
M  V30 3532 H 331.892 5.2927 -4.52599 0
M  V30 3533 H 329.519 5.55987 -5.18443 0
M  V30 3534 N 331.094 0.475555 1.50254 0
M  V30 3535 C 332.027 -0.362381 2.25304 0
M  V30 3536 C 333.005 -0.992393 1.28803 0
M  V30 3537 O 334.189 -1.02746 1.58036 0
M  V30 3538 C 331.316 -1.50813 3.03271 0
M  V30 3539 C 330.362 -0.995044 4.1473 0
M  V30 3540 S 331.195 0.0938436 5.35418 0
M  V30 3541 C 332.351 -1.05567 6.16933 0
M  V30 3542 H 332.584 0.274686 2.96028 0
M  V30 3543 H 330.117 0.260495 1.52187 0
M  V30 3544 H 332.075 -2.16476 3.48781 0
M  V30 3545 H 330.736 -2.11672 2.32064 0
M  V30 3546 H 329.929 -1.85293 4.68703 0
M  V30 3547 H 329.531 -0.416052 3.71679 0
M  V30 3548 H 331.823 -1.96636 6.48337 0
M  V30 3549 H 332.766 -0.555109 7.05921 0
M  V30 3550 H 333.174 -1.31151 5.49053 0
M  V30 3551 N 332.573 -1.56217 0.208337 0
M  V30 3552 C 333.505 -2.1695 -0.739276 0
M  V30 3553 C 334.518 -1.13492 -1.1672 0
M  V30 3554 O 335.707 -1.40529 -1.10063 0
M  V30 3555 C 332.807 -2.72755 -2.01142 0
M  V30 3556 C 331.98 -4.0125 -1.74118 0
M  V30 3557 C 331.039 -4.41749 -2.85909 0
M  V30 3558 O 330.065 -5.08912 -2.54946 0
M  V30 3559 N 331.267 -4.06342 -4.14568 0
M  V30 3560 H 334.032 -2.98893 -0.219837 0
M  V30 3561 H 331.593 -1.61878 0.0268445 0
M  V30 3562 H 333.585 -2.96826 -2.75094 0
M  V30 3563 H 332.155 -1.95191 -2.4417 0
M  V30 3564 H 331.375 -3.85173 -0.838775 0
M  V30 3565 H 332.663 -4.851 -1.53477 0
M  V30 3566 H 332.061 -3.52345 -4.42571 0
M  V30 3567 H 330.618 -4.35335 -4.85105 0
M  V30 3568 N 334.051 0.0651679 -1.57465 0
M  V30 3569 C 335.298 0.763063 -1.87573 0
M  V30 3570 C 335.626 1.77242 -0.800961 0
M  V30 3571 O 334.881 1.94651 0.202316 0
M  V30 3572 C 335.18 1.50081 -3.24362 0
M  V30 3573 C 334.846 0.630816 -4.46466 0
M  V30 3574 C 333.508 0.391082 -4.79608 0
M  V30 3575 C 335.86 0.0279465 -5.21193 0
M  V30 3576 C 333.188 -0.460894 -5.84887 0
M  V30 3577 C 335.54 -0.811522 -6.27373 0
M  V30 3578 C 334.204 -1.06106 -6.59013 0
M  V30 3579 H 333.474 0.279224 -0.686378 0
M  V30 3580 H 336.121 0.0236726 -1.91485 0
M  V30 3581 H 334.426 2.31258 -3.16271 0
M  V30 3582 H 336.123 2.04571 -3.44894 0
M  V30 3583 H 332.713 0.8278 -4.2053 0
M  V30 3584 H 336.897 0.200262 -4.95896 0
M  V30 3585 H 332.153 -0.662907 -6.07796 0
M  V30 3586 H 336.327 -1.28537 -6.84435 0
M  V30 3587 H 333.954 -1.723 -7.40417 0
M  V30 3588 N 335.529 1.53961 0.336706 0
M  V30 3589 C 336.945 1.44378 0.680241 0
M  V30 3590 C 337.145 0.606034 1.9217 0
M  V30 3591 O 336.201 0.099688 2.52303 0
M  V30 3592 C 337.514 2.87945 0.8665 0
M  V30 3593 C 339.062 2.97763 0.964682 0
M  V30 3594 C 339.537 4.42453 1.18321 0
M  V30 3595 N 341.028 4.46008 1.25025 0
M  V30 3596 C 341.763 5.55102 1.43697 0
M  V30 3597 N 341.259 6.7419 1.59498 0
M  V30 3598 N 343.052 5.42727 1.463 0
M  V30 3599 H 335.203 2.06918 -0.479455 0
M  V30 3600 H 337.466 0.935634 -0.152619 0
M  V30 3601 H 337.172 3.51691 0.0256937 0
M  V30 3602 H 337.046 3.33293 1.76623 0
M  V30 3603 H 339.433 2.34153 1.796 0
M  V30 3604 H 339.514 2.55766 0.041708 0
M  V30 3605 H 339.158 5.06645 0.356788 0
M  V30 3606 H 339.088 4.82048 2.11985 0
M  V30 3607 H 341.579 3.60196 1.14312 0
M  V30 3608 H 341.892 7.53095 1.734 0
M  V30 3609 H 340.237 6.77123 1.56621 0
M  V30 3610 H 343.428 4.48647 1.33543 0
M  V30 3611 H 343.601 6.27806 1.6051 0
M  V30 3612 N 337.007 -0.598083 1.45811 0
M  V30 3613 C 338.284 -1.35777 1.40797 0
M  V30 3614 C 338.664 -2.10935 0.083462 0
M  V30 3615 O 338.012 -2.08505 -0.934763 0
M  V30 3616 C 338.222 -2.29666 2.62783 0
M  V30 3617 C 339.57 -2.91977 3.08277 0
M  V30 3618 O 340.594 -2.39984 2.63223 0
M  V30 3619 O 339.453 -3.86376 3.86491 0
M  V30 3620 H 336.547 -0.609291 0.55919 0
M  V30 3621 H 339.093 -0.620379 1.57954 0
M  V30 3622 H 337.865 -1.73454 3.50756 0
M  V30 3623 H 337.488 -3.1077 2.48008 0
M  V30 3624 N 338.485 -1.33259 -0.841409 0
M  V30 3625 C 339.435 -1.19872 -1.93945 0
M  V30 3626 C 340.419 -0.102269 -1.60575 0
M  V30 3627 O 341.611 -0.330114 -1.73894 0
M  V30 3628 C 338.74 -0.937517 -3.30251 0
M  V30 3629 C 337.826 -2.07629 -3.69799 0
M  V30 3630 N 338.217 -3.32604 -3.81062 0
M  V30 3631 C 336.515 -1.98242 -3.9952 0
M  V30 3632 C 337.216 -4.07275 -4.15333 0
M  V30 3633 N 336.192 -3.35691 -4.27566 0
M  V30 3634 H 339.994 -2.14604 -2.00805 0
M  V30 3635 H 337.508 -1.2523 -1.03398 0
M  V30 3636 H 339.505 -0.822545 -4.08705 0
M  V30 3637 H 338.165 0.00128798 -3.247 0
M  V30 3638 H 339.176 -3.67382 -3.65035 0
M  V30 3639 H 335.853 -1.12005 -4.02195 0
M  V30 3640 H 337.243 -5.1511 -4.31406 0
M  V30 3641 N 339.963 1.05934 -1.16686 0
M  V30 3642 C 340.893 2.1546 -0.899949 0
M  V30 3643 C 341.874 1.69391 0.155154 0
M  V30 3644 O 343.059 1.94199 0.00648693 0
M  V30 3645 C 340.189 3.44939 -0.404241 0
M  V30 3646 C 339.143 4.04536 -1.39767 0
M  V30 3647 C 338.469 5.29268 -0.760216 0
M  V30 3648 C 339.769 4.42893 -2.76845 0
M  V30 3649 H 341.463 2.38046 -1.81588 0
M  V30 3650 H 339.009 1.14404 -0.874514 0
M  V30 3651 H 340.962 4.20901 -0.204971 0
M  V30 3652 H 339.686 3.21983 0.547206 0
M  V30 3653 H 338.345 3.30635 -1.58355 0
M  V30 3654 H 337.993 5.02611 0.197831 0
M  V30 3655 H 337.693 5.70101 -1.42332 0
M  V30 3656 H 339.217 6.07924 -0.57105 0
M  V30 3657 H 340.631 5.09921 -2.62019 0
M  V30 3658 H 339.028 4.94721 -3.39663 0
M  V30 3659 H 340.098 3.53584 -3.31823 0
M  V30 3660 N 341.441 0.965919 1.2453 0
M  V30 3661 C 342.351 0.502154 2.29163 0
M  V30 3662 C 343.367 -0.436017 1.68448 0
M  V30 3663 O 344.543 -0.309497 1.99008 0
M  V30 3664 C 341.608 -0.201956 3.46111 0
M  V30 3665 C 340.669 0.775821 4.22232 0
M  V30 3666 C 339.902 0.105217 5.33596 0
M  V30 3667 O 340.125 -1.10683 5.59558 0
M  V30 3668 O 339.059 0.796475 5.96607 0
M  V30 3669 H 342.885 1.37194 2.70946 0
M  V30 3670 H 340.47 0.732875 1.30189 0
M  V30 3671 H 342.352 -0.597564 4.17142 0
M  V30 3672 H 341.027 -1.04673 3.06309 0
M  V30 3673 H 339.934 1.22185 3.53584 0
M  V30 3674 H 341.267 1.58896 4.65846 0
M  V30 3675 N 342.919 -1.39368 0.735821 0
M  V30 3676 C 343.829 -2.34395 0.0979693 0
M  V30 3677 C 344.845 -1.58361 -0.720968 0
M  V30 3678 O 346.021 -1.90648 -0.649245 0
M  V30 3679 C 343.086 -3.37393 -0.797916 0
M  V30 3680 C 342.147 -4.29287 0.0333662 0
M  V30 3681 C 341.38 -5.27365 -0.819854 0
M  V30 3682 O 341.603 -5.31959 -2.05855 0
M  V30 3683 O 340.537 -6.01389 -0.248079 0
M  V30 3684 H 344.363 -2.90601 0.882315 0
M  V30 3685 H 341.948 -1.40909 0.4965 0
M  V30 3686 H 343.83 -4.00505 -1.31048 0
M  V30 3687 H 342.505 -2.83571 -1.56106 0
M  V30 3688 H 341.412 -3.69395 0.591475 0
M  V30 3689 H 342.745 -4.86317 0.758752 0
M  V30 3690 N 344.397 -0.483516 -1.5 0
M  V30 3691 C 345.643 0.0672592 -2.02688 0
M  V30 3692 C 345.976 1.38247 -1.36387 0
M  V30 3693 O 345.251 1.88131 -0.493675 0
M  V30 3694 C 345.534 0.238109 -3.59312 0
M  V30 3695 C 345.387 -1.099 -4.36168 0
M  V30 3696 C 346.706 0.986916 -4.28892 0
M  V30 3697 H 343.825 0.0229696 -0.736642 0
M  V30 3698 H 346.467 -0.631527 -1.79197 0
M  V30 3699 H 344.617 0.8333 -3.79458 0
M  V30 3700 H 346.289 -1.73172 -4.27562 0
M  V30 3701 H 344.532 -1.69261 -3.99416 0
M  V30 3702 H 345.203 -0.932954 -5.44059 0
M  V30 3703 H 347.679 0.482302 -4.13295 0
M  V30 3704 H 346.555 1.07527 -5.38265 0
M  V30 3705 H 346.816 2.0265 -3.92919 0
M  V30 3706 N 345.875 1.56104 -0.216619 0
M  V30 3707 C 346.805 2.23063 0.690296 0
M  V30 3708 C 347.786 1.20072 1.20485 0
M  V30 3709 O 348.971 1.48643 1.24976 0
M  V30 3710 C 346.101 2.90672 1.90072 0
M  V30 3711 C 345.055 4.00092 1.5202 0
M  V30 3712 C 344.381 4.54972 2.80899 0
M  V30 3713 C 345.681 5.17398 0.71391 0
M  V30 3714 H 347.375 2.99109 0.132038 0
M  V30 3715 H 344.921 1.43866 0.0620664 0
M  V30 3716 H 346.874 3.36204 2.54057 0
M  V30 3717 H 345.598 2.12066 2.48386 0
M  V30 3718 H 344.257 3.55283 0.903839 0
M  V30 3719 H 343.905 3.73102 3.37348 0
M  V30 3720 H 343.605 5.28817 2.56176 0
M  V30 3721 H 345.129 5.0322 3.45836 0
M  V30 3722 H 346.543 5.59342 1.25735 0
M  V30 3723 H 344.94 5.97444 0.563951 0
M  V30 3724 H 346.01 4.84088 -0.280527 0
M  V30 3725 N 347.353 -0.0568162 1.57498 0
M  V30 3726 C 348.3 -1.06591 2.04712 0
M  V30 3727 C 349.27 -1.3758 0.930644 0
M  V30 3728 O 350.455 -1.48392 1.19935 0
M  V30 3729 C 347.595 -2.3701 2.50839 0
M  V30 3730 C 346.708 -2.12421 3.76167 0
M  V30 3731 C 345.843 -3.36511 4.11015 0
M  V30 3732 C 344.882 -3.07353 5.2934 0
M  V30 3733 N 344.019 -4.23816 5.59754 0
M  V30 3734 H 348.859 -0.65631 2.90683 0
M  V30 3735 H 346.396 -0.312481 1.43743 0
M  V30 3736 H 348.354 -3.13175 2.7564 0
M  V30 3737 H 346.984 -2.75744 1.67825 0
M  V30 3738 H 346.036 -1.2688 3.58616 0
M  V30 3739 H 347.348 -1.86894 4.62463 0
M  V30 3740 H 346.502 -4.21062 4.36797 0
M  V30 3741 H 345.241 -3.65128 3.23315 0
M  V30 3742 H 344.246 -2.212 5.03339 0
M  V30 3743 H 345.471 -2.80043 6.1867 0
M  V30 3744 H 343.417 -4.52436 4.75014 0
M  V30 3745 H 343.334 -4.01614 6.40501 0
M  V30 3746 H 344.602 -5.0932 5.90096 0
M  V30 3747 N 348.832 -1.54138 -0.328536 0
M  V30 3748 C 350.08 -1.71765 -1.06496 0
M  V30 3749 C 350.401 -0.49149 -1.88704 0
M  V30 3750 O 349.671 0.494539 -1.89555 0
M  V30 3751 H 348.251 -0.633295 -0.396164 0
M  V30 3752 H 350.913 -1.91429 -0.366176 0
M  V30 3753 H 350.009 -2.5951 -1.73381 0
M  V30 3754 N 350.31 0.590341 -1.46126 0
M  V30 3755 C 351.558 1.34616 -1.50742 0
M  V30 3756 C 351.879 1.94363 -0.157486 0
M  V30 3757 O 351.149 1.78136 0.815136 0
M  V30 3758 H 349.729 0.499789 -0.555175 0
M  V30 3759 H 352.391 0.691953 -1.82203 0
M  V30 3760 H 351.487 2.15678 -2.25587 0
M  V30 3761 N 351.788 1.33704 0.83433 0
M  V30 3762 C 353.065 1.16011 1.57483 0
M  V30 3763 C 353.445 -0.27176 2.09343 0
M  V30 3764 O 352.793 -1.27146 1.89858 0
M  V30 3765 C 353.003 2.20507 2.70514 0
M  V30 3766 C 354.351 2.54898 3.39577 0
M  V30 3767 O 355.375 2.19209 2.80759 0
M  V30 3768 O 354.234 3.16158 4.45765 0
M  V30 3769 H 351.328 0.448992 0.694503 0
M  V30 3770 H 353.874 1.453 0.876691 0
M  V30 3771 H 352.646 3.16667 2.29865 0
M  V30 3772 H 352.269 1.92329 3.47987 0
M  V30 3773 N 353.266 -1.05314 1.17247 0
M  V30 3774 C 354.512 -1.78557 0.961513 0
M  V30 3775 C 354.845 -1.87419 -0.508697 0
M  V30 3776 O 354.12 -1.37307 -1.37757 0
M  V30 3777 C 354.403 -3.22514 1.60176 0
M  V30 3778 C 354.256 -3.21673 3.14399 0
M  V30 3779 C 355.575 -4.20318 1.30463 0
M  V30 3780 H 352.694 -0.6482 0.350723 0
M  V30 3781 H 355.336 -1.23102 1.44727 0
M  V30 3782 H 353.486 -3.69867 1.18871 0
M  V30 3783 H 355.158 -2.82405 3.64753 0
M  V30 3784 H 353.401 -2.60048 3.47214 0
M  V30 3785 H 354.072 -4.23271 3.54324 0
M  V30 3786 H 356.548 -3.81454 1.66229 0
M  V30 3787 H 355.424 -5.19289 1.77848 0
M  V30 3788 H 355.685 -4.41526 0.22521 0
M  V30 3789 N 354.744 -0.972509 -1.24016 0
M  V30 3790 C 355.99 -0.637978 -1.92504 0
M  V30 3791 C 356.323 0.825383 -1.75787 0
M  V30 3792 O 355.598 1.59442 -1.11393 0
M  V30 3793 C 355.881 -1.01942 -3.45369 0
M  V30 3794 C 355.734 -2.53983 -3.71231 0
M  V30 3795 C 357.053 -0.55751 -4.36555 0
M  V30 3796 H 354.172 -0.233248 -0.699117 0
M  V30 3797 H 356.814 -1.21238 -1.46292 0
M  V30 3798 H 354.964 -0.530656 -3.84859 0
M  V30 3799 H 356.636 -3.10374 -3.41271 0
M  V30 3800 H 354.879 -2.96968 -3.16216 0
M  V30 3801 H 355.55 -2.75723 -4.78206 0
M  V30 3802 H 358.026 -0.977029 -4.04467 0
M  V30 3803 H 356.902 -0.85292 -5.42233 0
M  V30 3804 H 357.163 0.542328 -4.38761 0
M  V30 3805 N 356.222 1.38976 -0.743202 0
M  V30 3806 C 357.638 1.53984 -0.419664 0
M  V30 3807 C 357.838 1.70837 1.0685 0
M  V30 3808 O 356.894 1.7135 1.8546 0
M  V30 3809 C 358.207 2.75287 -1.20985 0
M  V30 3810 C 359.755 2.89129 -1.19889 0
M  V30 3811 C 360.23 4.13381 -1.97181 0
M  V30 3812 N 361.721 4.20437 -1.94389 0
M  V30 3813 C 362.456 5.15547 -2.50996 0
M  V30 3814 N 361.952 6.16395 -3.16274 0
M  V30 3815 N 363.745 5.07822 -2.40984 0
M  V30 3816 H 355.896 1.26285 -1.7078 0
M  V30 3817 H 358.159 0.612689 -0.723406 0
M  V30 3818 H 357.865 2.69204 -2.26323 0
M  V30 3819 H 357.739 3.68184 -0.819759 0
M  V30 3820 H 360.126 2.947 -0.153606 0
M  V30 3821 H 360.207 1.97272 -1.62841 0
M  V30 3822 H 359.851 4.08572 -3.01714 0
M  V30 3823 H 359.781 5.04298 -1.51629 0
M  V30 3824 H 362.272 3.48205 -1.46839 0
M  V30 3825 H 362.585 6.85443 -3.56915 0
M  V30 3826 H 360.93 6.16758 -3.20367 0
M  V30 3827 H 364.121 4.27973 -1.89622 0
M  V30 3828 H 364.294 5.81767 -2.85397 0
M  V30 3829 N 357.7 0.491464 1.49741 0
M  V30 3830 C 358.63 -0.28154 2.31796 0
M  V30 3831 C 359.611 -0.971473 1.3963 0
M  V30 3832 O 360.796 -0.964719 1.68543 0
M  V30 3833 C 357.926 -1.35203 3.19902 0
M  V30 3834 C 356.88 -0.782529 4.20786 0
M  V30 3835 C 356.206 -1.95283 4.97764 0
M  V30 3836 C 357.506 0.21999 5.21837 0
M  V30 3837 H 359.2 0.403355 2.96671 0
M  V30 3838 H 356.746 0.195425 1.42668 0
M  V30 3839 H 358.699 -1.90045 3.76113 0
M  V30 3840 H 357.423 -2.06598 2.52953 0
M  V30 3841 H 356.082 -0.255928 3.65706 0
M  V30 3842 H 355.73 -2.65423 4.2727 0
M  V30 3843 H 355.43 -1.57789 5.66018 0
M  V30 3844 H 356.954 -2.50577 5.56816 0
M  V30 3845 H 358.368 -0.23996 5.72798 0
M  V30 3846 H 356.765 0.51026 5.97927 0
M  V30 3847 H 357.835 1.13911 4.7133 0
M  V30 3848 N 359.178 -1.55987 0.224894 0
M  V30 3849 C 360.425 -1.9839 -0.4059 0
M  V30 3850 C 360.753 -1.11261 -1.59535 0
M  V30 3851 O 360.008 -0.158314 -1.95059 0
M  V30 3852 C 360.307 -3.46394 -0.880106 0
M  V30 3853 C 359.973 -4.5046 0.19918 0
M  V30 3854 C 358.635 -4.7864 0.495661 0
M  V30 3855 C 360.987 -5.12855 0.928939 0
M  V30 3856 C 358.315 -5.66497 1.52636 0
M  V30 3857 C 360.667 -6.01828 1.949 0
M  V30 3858 C 359.331 -6.28351 2.25236 0
M  V30 3859 H 358.601 -0.725961 -0.148529 0
M  V30 3860 H 361.248 -1.88668 0.328113 0
M  V30 3861 H 359.553 -3.53337 -1.69294 0
M  V30 3862 H 361.25 -3.76577 -1.37808 0
M  V30 3863 H 357.84 -4.28579 -0.0420526 0
M  V30 3864 H 362.024 -4.9115 0.713129 0
M  V30 3865 H 357.28 -5.8531 1.76698 0
M  V30 3866 H 361.454 -6.49225 2.51951 0
M  V30 3867 H 359.081 -6.96226 3.05244 0
M  V30 3868 N 360.656 0.0484629 -1.57525 0
M  V30 3869 C 361.606 1.06246 -2.01732 0
M  V30 3870 C 362.59 1.33155 -0.903245 0
M  V30 3871 O 363.782 1.33065 -1.16717 0
M  V30 3872 C 360.911 2.36943 -2.48421 0
M  V30 3873 C 359.997 2.13208 -3.6661 0
M  V30 3874 N 360.388 1.5947 -4.80003 0
M  V30 3875 C 358.686 2.43581 -3.7361 0
M  V30 3876 C 359.387 1.51092 -5.61735 0
M  V30 3877 N 358.363 1.9797 -5.0627 0
M  V30 3878 H 362.165 0.640675 -2.86832 0
M  V30 3879 H 359.679 0.255134 -1.60383 0
M  V30 3880 H 361.676 3.10374 -2.78341 0
M  V30 3881 H 360.336 2.79818 -1.64718 0
M  V30 3882 H 361.347 1.28008 -5.01831 0
M  V30 3883 H 358.024 2.89662 -3.00669 0
M  V30 3884 H 359.414 1.10199 -6.62801 0
M  V30 3885 N 362.134 1.5431 0.320358 0
M  V30 3886 C 363.097 1.83195 1.3774 0
M  V30 3887 C 364.097 0.703906 1.44575 0
M  V30 3888 O 365.287 0.972214 1.44546 0
M  V30 3889 C 362.419 1.99487 2.76438 0
M  V30 3890 H 363.612 2.77642 1.1338 0
M  V30 3891 H 361.165 1.46076 0.556012 0
M  V30 3892 H 361.9 1.07262 3.06048 0
M  V30 3893 H 361.685 2.81575 2.7287 0
M  V30 3894 H 363.175 2.23271 3.52902 0
M  V30 3895 N 363.613 -0.582584 1.46437 0
M  V30 3896 C 364.523 -1.71949 1.59595 0
M  V30 3897 C 365.539 -1.67264 0.479443 0
M  V30 3898 O 366.715 -1.87171 0.743579 0
M  V30 3899 C 363.78 -3.08452 1.58298 0
M  V30 3900 C 362.841 -3.244 2.81182 0
M  V30 3901 C 362.074 -4.54391 2.79937 0
M  V30 3902 O 362.297 -5.38287 1.8869 0
M  V30 3903 O 361.231 -4.73588 3.71481 0
M  V30 3904 H 365.057 -1.63795 2.55744 0
M  V30 3905 H 362.642 -0.749643 1.29231 0
M  V30 3906 H 364.524 -3.89732 1.60271 0
M  V30 3907 H 363.199 -3.17043 0.653094 0
M  V30 3908 H 362.106 -2.42613 2.84763 0
M  V30 3909 H 363.439 -3.20699 3.7338 0
M  V30 3910 N 365.091 -1.34144 -0.827227 0
M  V30 3911 C 366.023 -1.21206 -1.9453 0
M  V30 3912 C 367.036 -0.140176 -1.62195 0
M  V30 3913 O 368.225 -0.391647 -1.7415 0
M  V30 3914 C 365.325 -0.839141 -3.28347 0
M  V30 3915 C 364.498 -2.0051 -3.88734 0
M  V30 3916 C 363.557 -1.61128 -5.00923 0
M  V30 3917 O 362.583 -2.32726 -5.19449 0
M  V30 3918 N 363.785 -0.522958 -5.7814 0
M  V30 3919 H 366.55 -2.17525 -2.06162 0
M  V30 3920 H 364.111 -1.27043 -1.00358 0
M  V30 3921 H 366.103 -0.557556 -4.00841 0
M  V30 3922 H 364.673 0.0337293 -3.12582 0
M  V30 3923 H 363.893 -2.45166 -3.08686 0
M  V30 3924 H 365.181 -2.78498 -4.25812 0
M  V30 3925 H 364.579 0.0723518 -5.65654 0
M  V30 3926 H 363.136 -0.301089 -6.51104 0
M  V30 3927 N 366.569 1.04691 -1.17803 0
M  V30 3928 C 367.479 2.16057 -0.914151 0
M  V30 3929 C 368.495 1.73589 0.119503 0
M  V30 3930 O 369.671 2.01308 -0.0609468 0
M  V30 3931 C 366.736 3.4394 -0.436603 0
M  V30 3932 C 365.797 4.00825 -1.53746 0
M  V30 3933 C 365.03 5.22604 -1.0826 0
M  V30 3934 O 365.253 5.70367 0.0612244 0
M  V30 3935 O 364.187 5.7186 -1.87775 0
M  V30 3936 H 368.013 2.41169 -1.84584 0
M  V30 3937 H 365.598 1.1453 -0.959334 0
M  V30 3938 H 367.48 4.21024 -0.178057 0
M  V30 3939 H 366.155 3.20316 0.466869 0
M  V30 3940 H 365.062 3.25158 -1.84995 0
M  V30 3941 H 366.395 4.28778 -2.41683 0
M  V30 3942 N 368.047 0.979072 1.23499 0
M  V30 3943 C 368.994 0.517904 2.24914 0
M  V30 3944 C 369.964 -0.442525 1.60097 0
M  V30 3945 O 371.149 -0.350365 1.87556 0
M  V30 3946 C 368.289 -0.174813 3.44657 0
M  V30 3947 C 367.402 0.825721 4.24035 0
M  V30 3948 C 366.537 0.107946 5.3109 0
M  V30 3949 C 365.576 1.09778 6.02175 0
M  V30 3950 N 364.713 0.40925 7.00906 0
M  V30 3951 H 369.553 1.38751 2.63727 0
M  V30 3952 H 367.09 0.695303 1.2963 0
M  V30 3953 H 369.048 -0.593233 4.12961 0
M  V30 3954 H 367.678 -1.0083 3.06648 0
M  V30 3955 H 366.73 1.36253 3.55161 0
M  V30 3956 H 368.042 1.58005 4.73113 0
M  V30 3957 H 367.196 -0.367904 6.05583 0
M  V30 3958 H 365.935 -0.678994 4.8295 0
M  V30 3959 H 364.94 1.5844 5.26476 0
M  V30 3960 H 366.165 1.88536 6.52404 0
M  V30 3961 H 364.111 -0.358506 6.5502 0
M  V30 3962 H 364.028 1.10226 7.47921 0
M  V30 3963 H 365.296 -0.0442557 7.79487 0
M  V30 3964 N 369.525 -1.3858 0.750561 0
M  V30 3965 C 370.772 -2.00184 0.305373 0
M  V30 3966 C 371.1 -1.59575 -1.11203 0
M  V30 3967 O 370.355 -0.823236 -1.77542 0
M  V30 3968 C 370.654 -3.55455 0.372373 0
M  V30 3969 C 370.32 -4.15765 1.745 0
M  V30 3970 C 368.982 -4.31951 2.12065 0
M  V30 3971 C 371.334 -4.49067 2.64553 0
M  V30 3972 C 368.662 -4.78734 3.39162 0
M  V30 3973 C 371.014 -4.97265 3.91038 0
M  V30 3974 C 369.678 -5.11658 4.28676 0
M  V30 3975 H 368.948 -0.732526 0.111744 0
M  V30 3976 H 371.595 -1.65673 0.960451 0
M  V30 3977 H 369.9 -3.90084 -0.366272 0
M  V30 3978 H 371.597 -4.00999 0.00953918 0
M  V30 3979 H 368.187 -4.03579 1.44297 0
M  V30 3980 H 372.371 -4.36166 2.36796 0
M  V30 3981 H 367.627 -4.88062 3.68246 0
M  V30 3982 H 371.801 -5.22003 4.60962 0
M  V30 3983 H 369.428 -5.47668 5.27222 0
M  V30 3984 N 371.003 -0.499398 -1.49478 0
M  V30 3985 C 371.933 0.269244 -2.31943 0
M  V30 3986 C 372.914 0.964054 -1.40143 0
M  V30 3987 O 374.099 0.955767 -1.69052 0
M  V30 3988 C 371.229 1.33504 -3.20615 0
M  V30 3989 C 370.183 0.760202 -4.21195 0
M  V30 3990 C 369.509 1.9264 -4.98792 0
M  V30 3991 C 370.809 -0.247661 -5.21712 0
M  V30 3992 H 372.503 -0.419082 -2.96452 0
M  V30 3993 H 370.049 -0.202988 -1.42562 0
M  V30 3994 H 372.002 1.88048 -3.77115 0
M  V30 3995 H 370.726 2.05253 -2.54045 0
M  V30 3996 H 369.385 0.23653 -3.65836 0
M  V30 3997 H 369.033 2.63154 -4.28671 0
M  V30 3998 H 368.733 1.54785 -5.66847 0
M  V30 3999 H 370.257 2.4762 -5.58137 0
M  V30 4000 H 371.671 0.209579 -5.72917 0
M  V30 4001 H 370.068 -0.541962 -5.97648 0
M  V30 4002 H 371.138 -1.16409 -4.7072 0
M  V30 4003 N 372.481 1.55866 -0.233164 0
M  V30 4004 C 373.709 2.02998 0.399905 0
M  V30 4005 C 374.124 1.11274 1.52524 0
M  V30 4006 O 373.481 0.124528 1.82075 0
M  V30 4007 C 373.532 3.4958 0.920639 0
M  V30 4008 O 373.253 4.37808 -0.159834 0
M  V30 4009 C 374.754 4.12411 1.62578 0
M  V30 4010 H 371.974 0.664006 0.0966281 0
M  V30 4011 H 374.518 2.0143 -0.353013 0
M  V30 4012 H 372.673 3.51727 1.62379 0
M  V30 4013 H 373.087 5.23981 0.23337 0
M  V30 4014 H 374.561 5.16711 1.94201 0
M  V30 4015 H 375.038 3.5809 2.54299 0
M  V30 4016 H 375.644 4.14148 0.967553 0
M  V30 4017 N 373.959 -0.0401083 1.57549 0
M  V30 4018 C 375.199 -0.738098 1.90608 0
M  V30 4019 C 375.563 -1.73107 0.830539 0
M  V30 4020 O 376.764 -2.4765 1.04513 0
M  V30 4021 C 375.035 -1.39985 3.28845 0
M  V30 4022 S 376.594 -2.12852 3.83718 0
M  V30 4023 H 373.412 -0.24477 0.667539 0
M  V30 4024 H 376.014 0.00693599 1.95499 0
M  V30 4025 H 374.718 -0.663775 4.04997 0
M  V30 4026 H 374.249 -2.18366 3.2723 0
M  V30 4027 H 376.264 -3.39842 3.61555 0
M  V30 4028 N 375.437 -1.54477 -0.31217 0
M  V30 4029 C 376.714 -1.63891 -1.06767 0
M  V30 4030 C 377.094 -0.480028 -2.0557 0
M  V30 4031 O 376.442 0.524487 -2.22399 0
M  V30 4032 C 376.652 -3.01402 -1.75948 0
M  V30 4033 C 378 -3.57838 -2.28554 0
M  V30 4034 O 379.024 -3.03782 -1.85998 0
M  V30 4035 O 377.883 -4.52462 -3.06497 0
M  V30 4036 H 374.977 -0.664125 -0.492816 0
M  V30 4037 H 377.523 -1.66823 -0.311149 0
M  V30 4038 H 376.295 -3.77187 -1.04144 0
M  V30 4039 H 375.918 -3.02199 -2.58383 0
M  V30 4040 N 376.915 0.57481 -1.46744 0
M  V30 4041 C 377.825 1.711 -1.60505 0
M  V30 4042 C 378.841 1.67008 -0.488307 0
M  V30 4043 O 380.017 1.86774 -0.753495 0
M  V30 4044 C 377.082 3.07608 -1.59932 0
M  V30 4045 C 376.143 3.22904 -2.82898 0
M  V30 4046 C 375.376 4.529 -2.82343 0
M  V30 4047 O 375.599 5.37278 -1.91542 0
M  V30 4048 O 374.533 4.71611 -3.73987 0
M  V30 4049 H 378.359 1.62436 -2.56609 0
M  V30 4050 H 375.944 0.742779 -1.29627 0
M  V30 4051 H 377.826 3.88877 -1.62336 0
M  V30 4052 H 376.501 3.16692 -0.669898 0
M  V30 4053 H 375.408 2.41099 -2.86046 0
M  V30 4054 H 376.741 3.18715 -3.75076 0
M  V30 4055 N 378.394 1.34581 0.820102 0
M  V30 4056 C 379.624 1.29991 1.6058 0
M  V30 4057 C 380.032 -0.127588 1.88769 0
M  V30 4058 O 379.375 -1.08595 1.48165 0
M  V30 4059 C 379.437 2.02548 2.9701 0
M  V30 4060 C 379.101 3.51794 2.91701 0
M  V30 4061 C 380.098 4.46647 2.66087 0
M  V30 4062 C 377.783 3.94249 3.11245 0
M  V30 4063 C 379.777 5.81929 2.60071 0
M  V30 4064 C 377.464 5.2963 3.04853 0
M  V30 4065 C 378.462 6.23282 2.793 0
M  V30 4066 O 378.15 7.56181 2.72847 0
M  V30 4067 H 377.882 0.448539 0.505756 0
M  V30 4068 H 380.436 1.77811 1.02822 0
M  V30 4069 H 378.666 1.49345 3.56697 0
M  V30 4070 H 380.355 1.91211 3.58041 0
M  V30 4071 H 381.121 4.15168 2.5072 0
M  V30 4072 H 377 3.21749 3.30149 0
M  V30 4073 H 380.544 6.54999 2.40046 0
M  V30 4074 H 376.441 5.60727 3.19774 0
M  V30 4075 H 377.209 7.6595 2.88553 0
M  V30 4076 N 379.872 -1.04064 1.18357 0
M  V30 4077 C 380.819 -2.12077 0.910603 0
M  V30 4078 C 381.789 -1.65421 -0.15 0
M  V30 4079 O 382.974 -1.90797 -0.0103614 0
M  V30 4080 C 380.114 -3.42252 0.442472 0
M  V30 4081 C 379.227 -4.0252 1.5685 0
M  V30 4082 C 378.362 -5.20657 1.05309 0
M  V30 4083 C 377.401 -5.72955 2.1538 0
M  V30 4084 N 376.538 -6.8238 1.65233 0
M  V30 4085 H 381.378 -2.34764 1.83548 0
M  V30 4086 H 378.915 -1.15157 0.915279 0
M  V30 4087 H 380.873 -4.16921 0.152534 0
M  V30 4088 H 379.503 -3.19712 -0.445428 0
M  V30 4089 H 378.555 -3.25178 1.97391 0
M  V30 4090 H 379.867 -4.37362 2.39824 0
M  V30 4091 H 379.021 -6.0244 0.717677 0
M  V30 4092 H 377.76 -4.87318 0.19293 0
M  V30 4093 H 376.765 -4.89793 2.49766 0
M  V30 4094 H 377.99 -6.08337 3.01832 0
M  V30 4095 H 375.936 -6.50917 0.815064 0
M  V30 4096 H 375.853 -7.16286 2.41805 0
M  V30 4097 H 377.121 -7.67788 1.34619 0
M  V30 4098 N 381.35 -0.985608 -1.22978 0
M  V30 4099 C 382.598 -0.656087 -1.91154 0
M  V30 4100 C 382.919 0.813561 -1.77218 0
M  V30 4101 O 382.189 1.58244 -1.1548 0
M  V30 4102 H 380.769 -0.239674 -0.707506 0
M  V30 4103 H 383.431 -1.25054 -1.49491 0
M  V30 4104 H 382.527 -0.912253 -2.9847 0
M  V30 4105 N 382.828 1.3818 -0.7579 0
M  V30 4106 C 383.775 2.30416 -0.133057 0
M  V30 4107 C 384.745 1.50398 0.704957 0
M  V30 4108 O 385.93 1.79014 0.660192 0
M  V30 4109 C 383.07 3.36834 0.750813 0
M  V30 4110 C 382.183 4.31879 -0.102297 0
M  V30 4111 C 381.318 5.25368 0.784979 0
M  V30 4112 C 380.357 6.12058 -0.0715046 0
M  V30 4113 N 379.494 6.97832 0.772972 0
M  V30 4114 H 384.334 2.83274 -0.925186 0
M  V30 4115 H 381.871 1.39461 -0.467866 0
M  V30 4116 H 383.829 3.97145 1.27794 0
M  V30 4117 H 382.459 2.85374 1.50868 0
M  V30 4118 H 381.511 3.72991 -0.747095 0
M  V30 4119 H 382.823 4.92921 -0.763552 0
M  V30 4120 H 381.977 5.90818 1.37911 0
M  V30 4121 H 380.716 4.64703 1.47996 0
M  V30 4122 H 379.721 5.456 -0.678272 0
M  V30 4123 H 380.946 6.74793 -0.763606 0
M  V30 4124 H 378.892 6.3971 1.45282 0
M  V30 4125 H 378.809 7.55812 0.168709 0
M  V30 4126 H 380.077 7.67687 1.35194 0
M  V30 4127 N 384.306 0.507319 1.49211 0
M  V30 4128 C 385.236 -0.256939 2.32082 0
M  V30 4129 C 386.217 -0.956609 1.40652 0
M  V30 4130 O 387.402 -0.946788 1.69557 0
M  V30 4131 C 384.532 -1.31802 3.21318 0
M  V30 4132 C 383.486 -0.737855 4.21592 0
M  V30 4133 C 382.812 -1.89992 4.99807 0
M  V30 4134 C 384.112 0.275325 5.21574 0
M  V30 4135 H 385.806 0.434798 2.96226 0
M  V30 4136 H 383.352 0.210546 1.42452 0
M  V30 4137 H 385.305 -1.86045 3.78107 0
M  V30 4138 H 384.029 -2.03903 2.5513 0
M  V30 4139 H 382.688 -0.217126 3.65956 0
M  V30 4140 H 382.336 -2.60877 4.30061 0
M  V30 4141 H 382.036 -1.51777 5.6766 0
M  V30 4142 H 383.56 -2.44657 5.59442 0
M  V30 4143 H 384.974 -0.179193 5.7302 0
M  V30 4144 H 383.371 0.573649 5.97352 0
M  V30 4145 H 384.441 1.18903 4.70096 0
M  V30 4146 N 385.784 -1.5574 0.241426 0
M  V30 4147 C 386.716 -2.18469 -0.693091 0
M  V30 4148 C 387.729 -1.15942 -1.14286 0
M  V30 4149 O 388.918 -1.42832 -1.07058 0
M  V30 4150 C 386.018 -2.7696 -1.95311 0
M  V30 4151 C 385.191 -4.04853 -1.65568 0
M  V30 4152 C 384.25 -4.47715 -2.76474 0
M  V30 4153 O 383.276 -5.14205 -2.44094 0
M  V30 4154 N 384.478 -4.15044 -4.05855 0
M  V30 4155 H 387.243 -2.99292 -0.156388 0
M  V30 4156 H 384.804 -1.61784 0.0611752 0
M  V30 4157 H 386.796 -3.02594 -2.68736 0
M  V30 4158 H 385.366 -2.00326 -2.39975 0
M  V30 4159 H 384.586 -3.86865 -0.756886 0
M  V30 4160 H 385.874 -4.88246 -1.43153 0
M  V30 4161 H 385.272 -3.61654 -4.34998 0
M  V30 4162 H 383.829 -4.45526 -4.75762 0
M  V30 4163 N 387.262 0.0317525 -1.57568 0
M  V30 4164 C 388.508 0.724175 -1.8943 0
M  V30 4165 C 388.841 1.75149 -0.838836 0
M  V30 4166 O 388.116 1.93948 0.146422 0
M  V30 4167 C 388.399 1.39615 -3.31933 0
M  V30 4168 C 388.252 0.382537 -4.4817 0
M  V30 4169 C 389.571 2.33084 -3.73309 0
M  V30 4170 H 386.69 0.261797 -0.688935 0
M  V30 4171 H 389.332 -0.013017 -1.89996 0
M  V30 4172 H 387.482 2.02451 -3.31581 0
M  V30 4173 H 389.154 -0.243689 -4.60656 0
M  V30 4174 H 387.397 -0.29844 -4.32772 0
M  V30 4175 H 388.068 0.891145 -5.44759 0
M  V30 4176 H 390.544 1.80295 -3.7501 0
M  V30 4177 H 389.42 2.77084 -4.73831 0
M  V30 4178 H 389.681 3.19643 -3.05419 0
M  V30 4179 N 388.74 1.54641 0.303973 0
M  V30 4180 C 389.987 1.7378 1.03955 0
M  V30 4181 C 390.315 0.521986 1.87365 0
M  V30 4182 O 389.57 -0.496099 1.89308 0
M  V30 4183 C 389.869 2.97753 1.97681 0
M  V30 4184 C 389.535 4.31671 1.30271 0
M  V30 4185 C 388.197 4.68075 1.11619 0
M  V30 4186 C 390.549 5.147 0.82055 0
M  V30 4187 C 387.877 5.8509 0.434304 0
M  V30 4188 C 390.229 6.32416 0.152395 0
M  V30 4189 C 388.893 6.67484 -0.0461067 0
M  V30 4190 H 388.163 0.635908 0.380398 0
M  V30 4191 H 390.81 1.88896 0.314718 0
M  V30 4192 H 389.115 2.77406 2.76682 0
M  V30 4193 H 390.812 3.09756 2.54661 0
M  V30 4194 H 387.402 4.03041 1.45795 0
M  V30 4195 H 391.586 4.87077 0.952374 0
M  V30 4196 H 386.842 6.10806 0.269495 0
M  V30 4197 H 391.016 6.96023 -0.229126 0
M  V30 4198 H 388.643 7.58011 -0.576494 0
M  V30 4199 N 390.218 -0.567019 1.47046 0
M  V30 4200 C 391.148 -1.68482 1.61667 0
M  V30 4201 C 392.129 -1.6358 0.466418 0
M  V30 4202 O 393.314 -1.81354 0.694574 0
M  V30 4203 C 390.444 -3.07124 1.62148 0
M  V30 4204 C 389.398 -3.26867 2.76301 0
M  V30 4205 C 388.724 -4.66196 2.61849 0
M  V30 4206 C 390.024 -3.13186 4.17986 0
M  V30 4207 H 391.718 -1.56502 2.5524 0
M  V30 4208 H 389.264 -0.751486 1.22836 0
M  V30 4209 H 391.217 -3.8516 1.70968 0
M  V30 4210 H 389.941 -3.2004 0.651287 0
M  V30 4211 H 388.6 -2.51237 2.66975 0
M  V30 4212 H 388.248 -4.75898 1.62879 0
M  V30 4213 H 387.948 -4.80356 3.38425 0
M  V30 4214 H 389.472 -5.46379 2.72584 0
M  V30 4215 H 390.886 -3.81049 4.2834 0
M  V30 4216 H 389.283 -3.3886 4.95272 0
M  V30 4217 H 390.353 -2.10057 4.3704 0
M  V30 4218 N 391.696 -1.35014 -0.812953 0
M  V30 4219 C 393.112 -1.14914 -1.10757 0
M  V30 4220 C 393.312 0.0426818 -2.01455 0
M  V30 4221 O 392.368 0.715212 -2.42159 0
M  V30 4222 C 393.681 -2.44911 -1.74468 0
M  V30 4223 C 395.229 -2.5106 -1.86917 0
M  V30 4224 C 395.704 -3.81085 -2.54044 0
M  V30 4225 N 397.195 -3.82301 -2.61535 0
M  V30 4226 C 397.93 -4.79634 -3.14227 0
M  V30 4227 N 397.426 -5.87353 -3.67407 0
M  V30 4228 N 399.219 -4.67078 -3.12721 0
M  V30 4229 H 391.37 -2.1136 -0.20989 0
M  V30 4230 H 393.633 -0.935128 -0.155692 0
M  V30 4231 H 393.339 -3.32267 -1.15289 0
M  V30 4232 H 393.213 -2.58989 -2.74234 0
M  V30 4233 H 395.6 -1.64137 -2.45241 0
M  V30 4234 H 395.681 -2.40901 -0.860242 0
M  V30 4235 H 395.325 -4.68402 -1.96372 0
M  V30 4236 H 395.255 -3.88529 -3.55461 0
M  V30 4237 H 397.746 -3.04465 -2.23851 0
M  V30 4238 H 398.059 -6.57624 -4.05894 0
M  V30 4239 H 396.404 -5.91054 -3.65623 0
M  V30 4240 H 399.595 -3.82067 -2.70449 0
M  V30 4241 H 399.768 -5.43098 -3.53481 0
M  V30 4242 N 393.175 1.03435 -1.18907 0
M  V30 4243 C 394.403 1.80381 -1.01342 0
M  V30 4244 C 394.818 1.83649 0.438005 0
M  V30 4245 O 394.175 1.27655 1.30424 0
M  V30 4246 C 394.226 3.25689 -1.56873 0
M  V30 4247 O 393.947 3.22673 -2.96334 0
M  V30 4248 C 395.448 4.19255 -1.44014 0
M  V30 4249 H 392.668 0.56784 -0.35749 0
M  V30 4250 H 395.212 1.30317 -1.576 0
M  V30 4251 H 393.367 3.72962 -1.04777 0
M  V30 4252 H 393.781 4.13748 -3.22355 0
M  V30 4253 H 395.255 5.19123 -1.87657 0
M  V30 4254 H 395.732 4.37467 -0.389815 0
M  V30 4255 H 396.338 3.77851 -1.95214 0
M  V30 4256 N 394.653 0.992116 1.22453 0
M  V30 4257 C 395.881 0.685944 1.95198 0
M  V30 4258 C 396.296 -0.749233 1.73297 0
M  V30 4259 O 395.653 -1.50549 1.03156 0
M  V30 4260 C 395.704 0.981395 3.47924 0
M  V30 4261 O 395.425 2.36018 3.6909 0
M  V30 4262 C 396.926 0.692815 4.37853 0
M  V30 4263 H 394.146 0.253821 0.621141 0
M  V30 4264 H 396.69 1.32668 1.55626 0
M  V30 4265 H 394.845 0.386481 3.85467 0
M  V30 4266 H 395.259 2.45884 4.63294 0
M  V30 4267 H 396.733 0.949818 5.43767 0
M  V30 4268 H 397.21 -0.373181 4.37612 0
M  V30 4269 H 397.816 1.26874 4.05935 0
M  V30 4270 N 396.131 -1.37776 0.765217 0
M  V30 4271 C 397.061 -2.32945 0.160953 0
M  V30 4272 C 398.042 -1.55454 -0.690516 0
M  V30 4273 O 399.227 -1.83721 -0.629318 0
M  V30 4274 C 396.357 -3.39669 -0.724031 0
M  V30 4275 C 395.311 -4.27992 0.0256173 0
M  V30 4276 C 394.637 -5.25673 -0.978383 0
M  V30 4277 C 395.937 -5.08309 1.20082 0
M  V30 4278 H 397.631 -2.83728 0.955969 0
M  V30 4279 H 395.177 -1.36416 0.461149 0
M  V30 4280 H 397.13 -4.05219 -1.15652 0
M  V30 4281 H 395.854 -2.87396 -1.5515 0
M  V30 4282 H 394.513 -3.63964 0.438812 0
M  V30 4283 H 394.161 -4.69682 -1.80022 0
M  V30 4284 H 393.861 -5.85625 -0.481378 0
M  V30 4285 H 395.385 -5.94098 -1.40995 0
M  V30 4286 H 396.799 -5.67034 0.845307 0
M  V30 4287 H 395.196 -5.77554 1.62947 0
M  V30 4288 H 396.266 -4.41365 2.00811 0
M  V30 4289 N 397.609 -0.515225 -1.4894 0
M  V30 4290 C 399.025 -0.172099 -1.58669 0
M  V30 4291 C 399.225 1.32405 -1.51892 0
M  V30 4292 O 398.281 2.10116 -1.40027 0
M  V30 4293 C 399.594 -0.761533 -2.90897 0
M  V30 4294 C 401.142 -0.728926 -3.04394 0
M  V30 4295 C 401.617 -1.29667 -4.39261 0
M  V30 4296 N 403.108 -1.25799 -4.4579 0
M  V30 4297 C 403.843 -1.66733 -5.48623 0
M  V30 4298 N 403.339 -2.15327 -6.58488 0
M  V30 4299 N 405.132 -1.58061 -5.39419 0
M  V30 4300 H 397.283 -1.48778 -1.51588 0
M  V30 4301 H 399.546 -0.617968 -0.718901 0
M  V30 4302 H 399.252 -1.81136 -3.01468 0
M  V30 4303 H 399.126 -0.230106 -3.76497 0
M  V30 4304 H 401.513 0.312098 -2.93445 0
M  V30 4305 H 401.594 -1.29766 -2.20442 0
M  V30 4306 H 401.238 -2.33655 -4.50963 0
M  V30 4307 H 401.168 -0.703752 -5.21876 0
M  V30 4308 H 403.659 -0.902102 -3.66975 0
M  V30 4309 H 403.972 -2.44594 -7.33071 0
M  V30 4310 H 402.317 -2.19311 -6.59491 0
M  V30 4311 H 405.508 -1.19906 -4.52482 0
M  V30 4312 H 405.681 -1.90284 -6.19432 0
M  V30 4313 N 399.087 1.5561 -0.249682 0
M  V30 4314 C 400.019 2.18834 0.681496 0
M  V30 4315 C 401.032 1.16546 1.1367 0
M  V30 4316 O 402.221 1.43397 1.06299 0
M  V30 4317 C 399.321 2.77992 1.9384 0
M  V30 4318 C 398.494 4.05725 1.63419 0
M  V30 4319 C 397.553 4.49174 2.74096 0
M  V30 4320 O 396.579 5.15492 2.41364 0
M  V30 4321 N 397.781 4.17191 4.03649 0
M  V30 4322 H 400.546 2.9937 0.140514 0
M  V30 4323 H 398.107 1.6175 -0.0697541 0
M  V30 4324 H 400.099 3.04015 2.67127 0
M  V30 4325 H 398.669 2.01596 2.38909 0
M  V30 4326 H 397.889 3.87261 0.736358 0
M  V30 4327 H 399.177 4.88999 1.40562 0
M  V30 4328 H 398.575 3.63955 4.33074 0
M  V30 4329 H 397.132 4.48043 4.73393 0
M  V30 4330 N 400.565 -0.0233959 1.57583 0
M  V30 4331 C 401.79 -0.728376 1.94189 0
M  V30 4332 C 402.215 -1.67793 0.850119 0
M  V30 4333 O 401.573 -1.80262 -0.19371 0
M  V30 4334 C 401.621 -1.45669 3.29868 0
M  V30 4335 O 400.725 -2.57013 3.22518 0
M  V30 4336 H 400.066 -0.195493 0.63457 0
M  V30 4337 H 402.596 0.0228214 2.04587 0
M  V30 4338 H 402.606 -1.82535 3.6489 0
M  V30 4339 H 401.281 -0.760314 4.08891 0
M  V30 4340 H 399.858 -2.22648 2.99136 0
M  V30 4341 N 402.043 -1.548 -0.295768 0
M  V30 4342 C 403.006 -1.85363 -1.34808 0
M  V30 4343 C 404.006 -0.726817 -1.43436 0
M  V30 4344 O 405.196 -0.995088 -1.42981 0
M  V30 4345 C 402.328 -2.03859 -2.73229 0
M  V30 4346 H 403.521 -2.7941 -1.08949 0
M  V30 4347 H 401.074 -1.46942 -0.532702 0
M  V30 4348 H 401.809 -1.12117 -3.04303 0
M  V30 4349 H 401.594 -2.8588 -2.68356 0
M  V30 4350 H 403.084 -2.28857 -3.49305 0
M  V30 4351 N 403.521 0.559213 -1.47345 0
M  V30 4352 C 404.749 1.34194 -1.57479 0
M  V30 4353 C 405.164 1.87463 -0.224261 0
M  V30 4354 O 404.521 1.64888 0.782185 0
M  V30 4355 C 404.572 2.51324 -2.59843 0
M  V30 4356 O 404.293 2.00256 -3.89653 0
M  V30 4357 C 405.794 3.43563 -2.80142 0
M  V30 4358 H 403.014 0.409136 -0.531835 0
M  V30 4359 H 405.558 0.677609 -1.92947 0
M  V30 4360 H 403.713 3.13699 -2.27314 0
M  V30 4361 H 404.127 2.76708 -4.4557 0
M  V30 4362 H 405.601 4.2217 -3.55635 0
M  V30 4363 H 406.078 3.9698 -1.87892 0
M  V30 4364 H 406.684 2.87005 -3.1386 0
M  V30 4365 N 404.999 1.35443 0.805782 0
M  V30 4366 C 406.224 1.32037 1.59941 0
M  V30 4367 C 406.649 -0.0994215 1.87837 0
M  V30 4368 O 406.007 -1.06648 1.46615 0
M  V30 4369 C 406.055 2.13354 2.90711 0
M  V30 4370 O 405.159 1.5148 3.83572 0
M  V30 4371 H 404.5 0.452666 0.485787 0
M  V30 4372 H 407.03 1.78496 1.00002 0
M  V30 4373 H 407.04 2.25338 3.40128 0
M  V30 4374 H 405.715 3.16572 2.69732 0
M  V30 4375 H 404.292 1.4834 3.42125 0
M  V30 4376 N 406.477 -1.02803 1.19454 0
M  V30 4377 C 407.44 -2.09264 0.934955 0
M  V30 4378 C 408.44 -1.60576 -0.0849015 0
M  V30 4379 O 409.63 -1.73554 0.149933 0
M  V30 4380 C 406.762 -3.38482 0.40531 0
M  V30 4381 H 407.955 -2.33726 1.87916 0
M  V30 4382 H 405.508 -1.19426 1.00832 0
M  V30 4383 H 406.243 -3.19689 -0.544899 0
M  V30 4384 H 406.028 -3.75142 1.14065 0
M  V30 4385 H 407.518 -4.16894 0.242806 0
M  V30 4386 N 407.956 -0.998596 -1.21925 0
M  V30 4387 C 409.184 -0.696286 -1.94832 0
M  V30 4388 C 409.599 0.740032 -1.73692 0
M  V30 4389 O 408.956 1.5 -1.03953 0
M  V30 4390 C 409.007 -0.999833 -3.47398 0
M  V30 4391 O 408.728 -2.37972 -3.67833 0
M  V30 4392 C 410.229 -0.716025 -4.37479 0
M  V30 4393 H 407.449 -0.257111 -0.619786 0
M  V30 4394 H 409.993 -1.33491 -1.54921 0
M  V30 4395 H 408.148 -0.406918 -3.85257 0
M  V30 4396 H 408.562 -2.48338 -4.61983 0
M  V30 4397 H 410.036 -0.978642 -5.43256 0
M  V30 4398 H 410.513 0.349968 -4.37803 0
M  V30 4399 H 411.119 -1.29025 -4.05256 0
M  V30 4400 N 409.434 1.37368 -0.772513 0
M  V30 4401 C 410.659 2.0447 -0.347386 0
M  V30 4402 C 411.084 1.57882 1.0225 0
M  V30 4403 O 410.442 0.73941 1.65537 0
M  V30 4404 C 410.49 3.58369 -0.400479 0
M  V30 4405 O 409.594 4.0803 0.598789 0
M  V30 4406 H 408.935 0.646773 -0.15027 0
M  V30 4407 H 411.465 1.75667 -1.04892 0
M  V30 4408 H 411.475 4.07183 -0.258045 0
M  V30 4409 H 410.15 3.91633 -1.39986 0
M  V30 4410 H 408.727 3.70534 0.419411 0
M  V30 4411 N 410.912 0.523116 1.48665 0
M  V30 4412 C 412.137 -0.0117284 2.07397 0
M  V30 4413 C 412.562 -1.28031 1.37803 0
M  V30 4414 O 411.92 -1.75836 0.441762 0
M  V30 4415 C 411.968 -0.225786 3.59892 0
M  V30 4416 O 411.072 -1.29592 3.91509 0
M  V30 4417 H 410.413 0.0360673 0.66302 0
M  V30 4418 H 412.943 0.729066 1.9117 0
M  V30 4419 H 412.953 -0.450552 4.05505 0
M  V30 4420 H 411.628 0.700944 4.09951 0
M  V30 4421 H 410.205 -1.05436 3.57684 0
M  V30 4422 N 412.39 -1.55475 0.257931 0
M  V30 4423 C 413.338 -2.23244 -0.653076 0
M  V30 4424 C 414.332 -1.22366 -1.17144 0
M  V30 4425 O 415.538 -1.40347 -1.12706 0
M  V30 4426 H 411.913 -0.716247 -0.229117 0
M  V30 4427 H 413.884 -2.98343 -0.0584788 0
M  V30 4428 C 412.633 -2.95401 -1.83395 0
M  V30 4429 H 411.956 -3.72802 -1.44424 0
M  V30 4430 H 413.396 -3.46165 -2.44838 0
M  V30 4431 C 411.855 -1.99895 -2.71189 0
M  V30 4432 O 412.385 -1.53909 -3.71046 0
M  V30 4433 N 410.591 -1.6676 -2.3799 0
M  V30 4434 H 410.138 -2.04352 -1.56837 0
M  V30 4435 H 410.096 -1.03127 -2.97005 0
M  V30 4436 N 413.868 0.0150385 -1.57593 0
M  V30 4437 C 414.831 0.995996 -2.06428 0
M  V30 4438 C 415.831 1.2818 -0.970903 0
M  V30 4439 O 417.021 1.22949 -1.23406 0
M  V30 4440 C 414.153 2.32506 -2.49307 0
M  V30 4441 H 415.346 0.573873 -2.94358 0
M  V30 4442 H 412.899 0.262186 -1.54085 0
M  V30 4443 H 413.634 2.79438 -1.64575 0
M  V30 4444 H 413.419 2.13087 -3.29145 0
M  V30 4445 H 414.909 3.02906 -2.87468 0
M  V30 4446 N 415.346 1.54954 0.287554 0
M  V30 4447 C 416.276 1.89839 1.35954 0
M  V30 4448 C 417.257 0.758675 1.52244 0
M  V30 4449 O 418.442 1.01557 1.65529 0
M  V30 4450 C 415.572 2.15753 2.72154 0
M  V30 4451 C 414.526 3.3159 2.70614 0
M  V30 4452 C 413.852 3.42952 4.10229 0
M  V30 4453 C 415.152 4.68359 2.31165 0
M  V30 4454 H 416.846 2.79625 1.07007 0
M  V30 4455 H 414.392 1.3454 0.513316 0
M  V30 4456 H 416.345 2.38743 3.47246 0
M  V30 4457 H 415.069 1.22752 3.02654 0
M  V30 4458 H 413.728 3.08545 1.97979 0
M  V30 4459 H 413.376 2.47443 4.37928 0
M  V30 4460 H 413.076 4.20826 4.10097 0
M  V30 4461 H 414.6 3.68218 4.87081 0
M  V30 4462 H 416.014 4.9099 2.95976 0
M  V30 4463 H 414.411 5.49044 2.42221 0
M  V30 4464 H 415.481 4.68165 1.26291 0
M  V30 4465 N 416.824 -0.551391 1.4764 0
M  V30 4466 C 418.07 -1.30789 1.55774 0
M  V30 4467 C 418.425 -1.91143 0.219562 0
M  V30 4468 O 417.718 -1.7521 -0.775375 0
M  V30 4469 C 417.912 -2.43469 2.61644 0
M  V30 4470 C 417.741 -1.94157 4.05627 0
M  V30 4471 C 416.511 -1.77734 4.7301 0
M  V30 4472 C 418.709 -1.48262 4.92466 0
M  V30 4473 N 416.691 -1.22823 6.01488 0
M  V30 4474 C 418.062 -1.05156 6.11017 0
M  V30 4475 C 420.117 -1.36367 4.78862 0
M  V30 4476 C 418.82 -0.513357 7.17466 0
M  V30 4477 C 420.846 -0.839484 5.85411 0
M  V30 4478 C 420.208 -0.418377 7.03156 0
M  V30 4479 H 416.307 -0.470406 0.624694 0
M  V30 4480 H 418.891 -0.624331 1.84419 0
M  V30 4481 H 417.062 -3.09348 2.34859 0
M  V30 4482 H 418.794 -3.10477 2.59589 0
M  V30 4483 H 415.549 -2.00623 4.29007 0
M  V30 4484 H 415.973 -0.974393 6.69951 0
M  V30 4485 H 420.615 -1.67535 3.88191 0
M  V30 4486 H 418.333 -0.189318 8.07878 0
M  V30 4487 H 421.919 -0.750921 5.76934 0
M  V30 4488 H 420.799 -0.0190538 7.84198 0
M  V30 4489 N 418.302 -1.35869 -0.798587 0
M  V30 4490 C 419.212 -1.31578 -1.94228 0
M  V30 4491 C 420.228 -0.21939 -1.72611 0
M  V30 4492 O 421.404 -0.450167 -1.96305 0
M  V30 4493 C 418.469 -1.09528 -3.28944 0
M  V30 4494 C 417.53 -2.28556 -3.63402 0
M  V30 4495 C 416.763 -2.07549 -4.9169 0
M  V30 4496 O 416.986 -1.046 -5.60727 0
M  V30 4497 O 415.92 -2.95106 -5.24591 0
M  V30 4498 H 419.746 -2.27847 -2.00796 0
M  V30 4499 H 417.331 -1.16322 -0.937526 0
M  V30 4500 H 419.213 -0.991127 -4.09579 0
M  V30 4501 H 417.888 -0.16315 -3.23289 0
M  V30 4502 H 416.795 -2.44538 -2.83112 0
M  V30 4503 H 418.128 -3.20244 -3.73771 0
M  V30 4504 N 419.78 1.02168 -1.19998 0
M  V30 4505 C 421.026 1.75945 -1.00852 0
M  V30 4506 C 421.359 1.88702 0.458828 0
M  V30 4507 O 420.634 1.40911 1.34069 0
M  V30 4508 C 420.917 3.18154 -1.68671 0
M  V30 4509 C 420.77 3.13224 -3.22817 0
M  V30 4510 C 422.089 4.16711 -1.41561 0
M  V30 4511 H 419.208 0.638673 -0.367785 0
M  V30 4512 H 421.85 1.19222 -1.4794 0
M  V30 4513 H 420 3.66586 -1.28636 0
M  V30 4514 H 421.672 2.72635 -3.72112 0
M  V30 4515 H 419.915 2.50751 -3.53986 0
M  V30 4516 H 420.586 4.13728 -3.65422 0
M  V30 4517 H 423.062 3.76913 -1.76284 0
M  V30 4518 H 421.938 5.14391 -1.91553 0
M  V30 4519 H 422.199 4.40774 -0.342193 0
M  V30 4520 N 421.258 1.00505 1.21394 0
M  V30 4521 C 422.168 0.574806 2.27449 0
M  V30 4522 C 423.184 -0.382206 1.6975 0
M  V30 4523 O 424.36 -0.246027 1.99892 0
M  V30 4524 C 421.425 -0.0917414 3.46579 0
M  V30 4525 C 420.486 0.909758 4.1955 0
M  V30 4526 C 419.719 0.274924 5.32991 0
M  V30 4527 O 419.942 -0.928254 5.62796 0
M  V30 4528 O 418.876 0.985877 5.93771 0
M  V30 4529 H 422.702 1.45744 2.66444 0
M  V30 4530 H 420.287 0.773923 1.27792 0
M  V30 4531 H 422.169 -0.464551 4.18832 0
M  V30 4532 H 420.844 -0.948755 3.09484 0
M  V30 4533 H 419.751 1.33372 3.49518 0
M  V30 4534 H 421.084 1.73636 4.60555 0
M  V30 4535 N 422.737 -1.36956 0.779787 0
M  V30 4536 C 423.983 -1.99787 0.348281 0
M  V30 4537 C 424.316 -1.61756 -1.07465 0
M  V30 4538 O 423.591 -0.867639 -1.74075 0
M  V30 4539 C 423.874 -3.56597 0.50104 0
M  V30 4540 C 423.727 -4.04513 1.96697 0
M  V30 4541 C 425.046 -4.40008 -0.0898097 0
M  V30 4542 H 422.165 -0.725796 0.128022 0
M  V30 4543 H 424.807 -1.62514 0.984331 0
M  V30 4544 H 422.957 -3.88479 -0.0404347 0
M  V30 4545 H 424.629 -3.83161 2.56876 0
M  V30 4546 H 422.872 -3.56408 2.47297 0
M  V30 4547 H 423.543 -5.1352 2.02486 0
M  V30 4548 H 426.019 -4.14431 0.372293 0
M  V30 4549 H 424.895 -5.4888 0.0471605 0
M  V30 4550 H 425.156 -4.26035 -1.18096 0
M  V30 4551 N 424.215 -0.530993 -1.48385 0
M  V30 4552 C 425.461 0.00274135 -2.028 0
M  V30 4553 C 425.794 1.33838 -1.40716 0
M  V30 4554 O 425.069 1.86465 -0.553277 0
M  V30 4555 C 425.352 0.123676 -3.59888 0
M  V30 4556 C 425.205 -1.2372 -4.3245 0
M  V30 4557 C 426.524 0.849967 -4.31814 0
M  V30 4558 H 423.643 -0.000477758 -0.737 0
M  V30 4559 H 426.285 -0.688217 -1.77098 0
M  V30 4560 H 424.435 0.712157 -3.81917 0
M  V30 4561 H 426.107 -1.86687 -4.21836 0
M  V30 4562 H 424.35 -1.81882 -3.93829 0
M  V30 4563 H 425.021 -1.10557 -5.40815 0
M  V30 4564 H 427.497 0.350572 -4.14621 0
M  V30 4565 H 426.373 0.903486 -5.41413 0
M  V30 4566 H 426.634 1.90047 -3.99167 0
M  V30 4567 N 425.693 1.55336 -0.266172 0
M  V30 4568 C 426.643 2.18848 0.639497 0
M  V30 4569 C 427.627 1.1503 1.12503 0
M  V30 4570 O 428.819 1.40875 1.0716 0
M  V30 4571 C 425.948 2.90626 1.82733 0
M  V30 4572 C 425.034 4.01723 1.35939 0
M  V30 4573 N 425.425 5.02145 0.606988 0
M  V30 4574 C 423.723 4.1463 1.6431 0
M  V30 4575 C 424.424 5.80572 0.362138 0
M  V30 4576 N 423.4 5.35551 0.931971 0
M  V30 4577 H 427.202 2.93845 0.0567057 0
M  V30 4578 H 424.716 1.62252 -0.0693312 0
M  V30 4579 H 426.713 3.34569 2.48735 0
M  V30 4580 H 425.373 2.17137 2.41416 0
M  V30 4581 H 426.384 5.17271 0.255198 0
M  V30 4582 H 423.061 3.52326 2.23993 0
M  V30 4583 H 424.451 6.71472 -0.239848 0
M  V30 4584 N 427.171 -0.0066808 1.57599 0
M  V30 4585 C 428.121 -1.0086 2.04478 0
M  V30 4586 C 429.105 -1.30714 0.938231 0
M  V30 4587 O 430.297 -1.29924 1.20203 0
M  V30 4588 C 427.426 -2.30273 2.54615 0
M  V30 4589 C 426.512 -2.03413 3.72134 0
M  V30 4590 N 426.903 -1.46688 4.84062 0
M  V30 4591 C 425.201 -2.33589 3.79937 0
M  V30 4592 C 425.902 -1.36146 5.65543 0
M  V30 4593 N 424.878 -1.84477 5.1134 0
M  V30 4594 H 428.68 -0.564402 2.8843 0
M  V30 4595 H 426.194 -0.212521 1.61003 0
M  V30 4596 H 428.191 -3.02885 2.86472 0
M  V30 4597 H 426.851 -2.75352 1.72079 0
M  V30 4598 H 427.862 -1.14658 5.05049 0
M  V30 4599 H 424.539 -2.81589 3.08243 0
M  V30 4600 H 425.929 -0.925873 6.6549 0
M  V30 4601 N 428.649 -1.55105 -0.279332 0
M  V30 4602 C 429.926 -1.66119 -1.03267 0
M  V30 4603 C 430.306 -0.523525 -2.04505 0
M  V30 4604 O 429.654 0.477194 -2.23462 0
M  V30 4605 C 429.864 -3.05067 -1.69515 0
M  V30 4606 C 431.212 -3.62606 -2.20912 0
M  V30 4607 O 432.236 -3.07659 -1.79512 0
M  V30 4608 O 431.095 -4.58861 -2.96831 0
M  V30 4609 H 428.189 -0.674429 -0.478618 0
M  V30 4610 H 430.735 -1.67446 -0.275694 0
M  V30 4611 H 429.507 -3.79311 -0.9612 0
M  V30 4612 H 429.13 -3.07611 -2.51915 0
M  V30 4613 N 430.127 0.543554 -1.4793 0
M  V30 4614 C 431.538 1.12561 -1.48953 0
M  V30 4615 C 431.889 1.94578 -0.251754 0
M  V30 4616 O 431.014 2.0665 0.642255 0
M  V30 4617 C 431.609 2.04801 -2.69892 0
M  V30 4618 C 430.168 2.58251 -2.73831 0
M  V30 4619 C 429.315 1.34918 -2.42265 0
M  V30 4620 H 432.266 0.32947 -1.55242 0
M  V30 4621 H 432.287 2.88886 -2.47639 0
M  V30 4622 H 431.799 1.4508 -3.59963 0
M  V30 4623 H 429.9 3.21732 -1.87934 0
M  V30 4624 H 430.013 2.98312 -3.74895 0
M  V30 4625 H 428.377 1.66046 -1.93134 0
M  V30 4626 H 429.16 0.769693 -3.3456 0
M  V30 4627 N 431.605 1.3629 0.791371 0
M  V30 4628 C 432.845 1.31792 1.56238 0
M  V30 4629 C 433.209 -0.102237 1.91728 0
M  V30 4630 O 434.41 -0.271759 2.67423 0
M  V30 4631 C 432.681 2.21303 2.80642 0
M  V30 4632 S 434.24 2.34468 3.70904 0
M  V30 4633 H 431.058 0.468141 0.535131 0
M  V30 4634 H 433.66 1.71841 0.932246 0
M  V30 4635 H 432.364 3.23439 2.52617 0
M  V30 4636 H 431.895 1.82266 3.4863 0
M  V30 4637 H 433.91 1.54074 4.71673 0
M  V30 4638 N 433.083 -1.0153 1.20538 0
M  V30 4639 C 434.499 -1.27461 0.96051 0
M  V30 4640 C 434.699 -1.98273 -0.359193 0
M  V30 4641 O 433.755 -2.27886 -1.0874 0
M  V30 4642 C 435.068 -2.10837 2.14402 0
M  V30 4643 C 436.616 -2.24099 2.18515 0
M  V30 4644 C 437.091 -3.10852 3.36355 0
M  V30 4645 N 438.582 -3.18441 3.36377 0
M  V30 4646 C 439.317 -3.85795 4.24205 0
M  V30 4647 N 438.813 -4.55264 5.22213 0
M  V30 4648 N 440.606 -3.82331 4.12043 0
M  V30 4649 H 432.757 -0.539907 2.05423 0
M  V30 4650 H 435.02 -0.30092 0.898972 0
M  V30 4651 H 434.726 -1.66144 3.09983 0
M  V30 4652 H 434.6 -3.11576 2.12604 0
M  V30 4653 H 436.987 -2.68016 1.23497 0
M  V30 4654 H 437.068 -1.22865 2.24361 0
M  V30 4655 H 436.712 -2.6764 4.31661 0
M  V30 4656 H 436.642 -4.12177 3.27746 0
M  V30 4657 H 439.133 -2.68978 2.65442 0
M  V30 4658 H 439.446 -5.04331 5.85551 0
M  V30 4659 H 437.791 -4.54085 5.26148 0
M  V30 4660 H 440.982 -3.27207 3.34743 0
M  V30 4661 H 441.155 -4.34547 4.807 0
M  V30 4662 N 434.561 -1.01147 -1.20859 0
M  V30 4663 C 435.809 -0.696486 -1.89719 0
M  V30 4664 C 436.13 0.775788 -1.78904 0
M  V30 4665 O 435.4 1.55759 -1.18811 0
M  V30 4666 H 433.98 -0.254628 -0.702263 0
M  V30 4667 H 436.642 -1.28197 -1.46804 0
M  V30 4668 H 435.738 -0.975357 -2.96468 0
M  V30 4669 N 436.039 1.36541 -0.78704 0
M  V30 4670 C 437.287 1.98911 -0.357633 0
M  V30 4671 C 437.608 1.62778 1.07371 0
M  V30 4672 O 436.878 0.900612 1.73971 0
M  V30 4673 H 435.458 0.735734 -0.129246 0
M  V30 4674 H 438.12 1.66776 -1.00855 0
M  V30 4675 H 437.216 3.08874 -0.447549 0
M  V30 4676 N 437.518 0.538854 1.48102 0
M  V30 4677 C 438.481 -0.208395 2.28251 0
M  V30 4678 C 439.481 -0.859656 1.35892 0
M  V30 4679 O 440.671 -0.71834 1.58699 0
M  V30 4680 C 437.803 -1.30252 3.15035 0
M  V30 4681 H 438.996 0.495407 2.9578 0
M  V30 4682 H 436.549 0.295112 1.53489 0
M  V30 4683 H 437.284 -2.0393 2.52157 0
M  V30 4684 H 437.069 -0.840551 3.82985 0
M  V30 4685 H 438.559 -1.82787 3.75471 0
M  V30 4686 N 438.996 -1.55193 0.274407 0
M  V30 4687 C 440.244 -1.99187 -0.341902 0
M  V30 4688 C 440.565 -1.16422 -1.56431 0
M  V30 4689 O 439.835 -0.253573 -1.94252 0
M  V30 4690 H 438.415 -0.735721 -0.129317 0
M  V30 4691 H 441.077 -1.91168 0.379578 0
M  V30 4692 H 440.173 -3.05629 -0.632253 0
M  V30 4693 N 440.474 -0.00167713 -1.576 0
M  V30 4694 C 441.424 0.997744 -2.0501 0
M  V30 4695 C 442.408 1.30214 -0.94515 0
M  V30 4696 O 443.6 1.29284 -1.20891 0
M  V30 4697 C 440.729 2.2892 -2.55833 0
M  V30 4698 C 439.815 2.01437 -3.73208 0
M  V30 4699 N 440.206 1.44119 -4.84833 0
M  V30 4700 C 438.504 2.31571 -3.8117 0
M  V30 4701 C 439.205 1.33145 -5.66257 0
M  V30 4702 N 438.181 1.81763 -5.12312 0
M  V30 4703 H 441.983 0.549098 -2.88725 0
M  V30 4704 H 439.497 0.20398 -1.61114 0
M  V30 4705 H 441.494 3.01361 -2.88075 0
M  V30 4706 H 440.154 2.74436 -1.73537 0
M  V30 4707 H 441.165 1.11978 -5.0565 0
M  V30 4708 H 437.842 2.7995 -3.09732 0
M  V30 4709 H 439.232 0.890567 -6.65972 0
M  V30 4710 N 441.952 1.55251 0.271103 0
M  V30 4711 C 443.198 1.7713 0.999832 0
M  V30 4712 C 443.553 0.56659 1.83868 0
M  V30 4713 O 442.846 -0.44069 1.86463 0
M  V30 4714 C 443.04 3.01879 1.91321 0
M  V30 4715 C 442.869 4.34368 1.16426 0
M  V30 4716 C 441.639 4.97593 0.879169 0
M  V30 4717 C 443.837 5.1131 0.553749 0
M  V30 4718 N 441.819 6.13813 0.103618 0
M  V30 4719 C 443.19 6.19938 -0.0875442 0
M  V30 4720 C 445.245 4.95754 0.461782 0
M  V30 4721 C 443.948 7.14703 -0.811942 0
M  V30 4722 C 445.974 5.90875 -0.249027 0
M  V30 4723 C 445.336 6.98893 -0.879051 0
M  V30 4724 H 441.435 0.700407 0.347784 0
M  V30 4725 H 444.019 1.92744 0.275314 0
M  V30 4726 H 442.19 2.87637 2.60997 0
M  V30 4727 H 443.922 3.12154 2.57569 0
M  V30 4728 H 440.677 4.58538 1.18491 0
M  V30 4729 H 441.101 6.76455 -0.271543 0
M  V30 4730 H 445.743 4.12342 0.934552 0
M  V30 4731 H 443.461 7.97634 -1.29639 0
M  V30 4732 H 447.047 5.80916 -0.320529 0
M  V30 4733 H 445.927 7.71231 -1.42031 0
M  V30 4734 N 443.43 -0.535701 1.48216 0
M  V30 4735 C 444.378 -1.66179 1.62749 0
M  V30 4736 C 445.372 -1.62034 0.49409 0
M  V30 4737 O 446.578 -1.6696 0.672624 0
M  V30 4738 H 442.953 -0.550244 0.512578 0
M  V30 4739 H 444.924 -1.51063 2.57337 0
M  V30 4740 C 443.673 -3.04471 1.67907 0
M  V30 4741 H 442.996 -3.08351 2.54479 0
M  V30 4742 H 444.436 -3.82894 1.82121 0
M  V30 4743 C 442.895 -3.34314 0.416596 0
M  V30 4744 O 443.425 -3.98905 -0.473014 0
M  V30 4745 N 441.631 -2.89149 0.290038 0
M  V30 4746 H 441.178 -2.36764 1.01493 0
M  V30 4747 H 441.136 -3.09486 -0.55367 0
M  V30 4748 N 444.908 -1.36708 -0.784132 0
M  V30 4749 C 446.156 -1.30972 -1.53918 0
M  V30 4750 C 446.477 0.109086 -1.94695 0
M  V30 4751 O 445.747 1.05048 -1.65353 0
M  V30 4752 H 444.327 -0.481819 -0.570841 0
M  V30 4753 H 446.989 -1.71063 -0.934002 0
M  V30 4754 H 446.085 -1.94061 -2.44431 0
M  V30 4755 N 446.386 1.0089 -1.21074 0
M  V30 4756 C 447.316 2.1145 -0.990523 0
M  V30 4757 C 448.297 1.69897 0.0831699 0
M  V30 4758 O 449.482 1.94052 -0.0758853 0
M  V30 4759 C 446.612 3.42914 -0.550177 0
M  V30 4760 C 445.566 3.98244 -1.56799 0
M  V30 4761 C 444.892 5.25568 -0.984013 0
M  V30 4762 C 446.192 4.30752 -2.95381 0
M  V30 4763 H 447.886 2.3013 -1.91521 0
M  V30 4764 H 445.432 1.10592 -0.92225 0
M  V30 4765 H 447.385 4.19653 -0.383305 0
M  V30 4766 H 446.109 3.24014 0.41015 0
M  V30 4767 H 444.768 3.23621 -1.72236 0
M  V30 4768 H 444.416 5.02998 -0.0155216 0
M  V30 4769 H 444.116 5.63551 -1.66384 0
M  V30 4770 H 445.64 6.04955 -0.828378 0
M  V30 4771 H 447.054 4.98349 -2.8341 0
M  V30 4772 H 445.451 4.79869 -3.60341 0
M  V30 4773 H 446.521 3.39192 -3.46521 0
M  V30 4774 N 447.864 1.01787 1.20321 0
M  V30 4775 C 449.094 0.72614 1.93419 0
M  V30 4776 C 449.502 -0.717317 1.75075 0
M  V30 4777 O 448.845 -1.49836 1.06278 0
M  V30 4778 C 448.907 0.983621 3.45782 0
M  V30 4779 C 448.571 2.41645 3.87888 0
M  V30 4780 C 449.568 3.39732 3.93545 0
M  V30 4781 C 447.253 2.75752 4.19841 0
M  V30 4782 C 449.247 4.69988 4.30569 0
M  V30 4783 C 446.934 4.06221 4.56539 0
M  V30 4784 C 447.932 5.0315 4.61876 0
M  V30 4785 O 447.62 6.31284 4.97731 0
M  V30 4786 H 447.352 0.265824 0.621541 0
M  V30 4787 H 449.906 1.3623 1.53722 0
M  V30 4788 H 448.136 0.290301 3.85609 0
M  V30 4789 H 449.825 0.683279 4.00108 0
M  V30 4790 H 450.591 3.14718 3.69022 0
M  V30 4791 H 446.47 2.00993 4.14877 0
M  V30 4792 H 450.014 5.45642 4.3465 0
M  V30 4793 H 445.911 4.31013 4.80518 0
M  V30 4794 H 446.679 6.35591 5.15719 0
M  V30 4795 N 449.342 -1.36122 0.79427 0
M  V30 4796 C 450.758 -1.5232 0.476525 0
M  V30 4797 C 450.958 -1.74685 -1.00436 0
M  V30 4798 O 450.014 -1.78115 -1.78973 0
M  V30 4799 C 451.327 -2.70607 1.31119 0
M  V30 4800 C 452.875 -2.8448 1.30537 0
M  V30 4801 C 453.35 -4.05778 2.12387 0
M  V30 4802 N 454.841 -4.12933 2.09859 0
M  V30 4803 C 455.576 -5.05876 2.69957 0
M  V30 4804 N 455.072 -6.04232 3.38934 0
M  V30 4805 N 456.865 -4.98528 2.59665 0
M  V30 4806 H 449.016 -1.1986 1.75349 0
M  V30 4807 H 451.279 -0.585418 0.745647 0
M  V30 4808 H 450.985 -2.60619 2.36158 0
M  V30 4809 H 450.859 -3.64888 0.955843 0
M  V30 4810 H 453.246 -2.93927 0.262876 0
M  V30 4811 H 453.327 -1.91093 1.70051 0
M  V30 4812 H 452.971 -3.97092 3.1667 0
M  V30 4813 H 452.901 -4.98323 1.70242 0
M  V30 4814 H 455.392 -3.42515 1.59662 0
M  V30 4815 H 455.705 -6.71724 3.82109 0
M  V30 4816 H 454.05 -6.04443 3.43036 0
M  V30 4817 H 457.241 -4.20641 2.05375 0
M  V30 4818 H 457.414 -5.70773 3.06793 0
M  V30 4819 N 450.82 -0.546701 -1.47814 0
M  V30 4820 C 452.067 -0.0187407 -2.02491 0
M  V30 4821 C 452.395 1.32685 -1.42215 0
M  V30 4822 O 451.65 1.87413 -0.563454 0
M  V30 4823 C 451.949 0.134869 -3.57145 0
M  V30 4824 C 451.615 -1.13849 -4.3629 0
M  V30 4825 C 450.277 -1.48743 -4.57634 0
M  V30 4826 C 452.629 -1.98277 -4.82012 0
M  V30 4827 C 449.957 -2.67932 -5.21948 0
M  V30 4828 C 452.309 -3.16659 -5.4764 0
M  V30 4829 C 450.973 -3.51879 -5.67219 0
M  V30 4830 H 450.243 -0.0068577 -0.740968 0
M  V30 4831 H 452.89 -0.716097 -1.77607 0
M  V30 4832 H 451.195 0.915118 -3.80963 0
M  V30 4833 H 452.892 0.558556 -3.97091 0
M  V30 4834 H 449.482 -0.856767 -4.19949 0
M  V30 4835 H 453.666 -1.72628 -4.6531 0
M  V30 4836 H 448.922 -2.95401 -5.35302 0
M  V30 4837 H 453.096 -3.82374 -5.82033 0
M  V30 4838 H 450.723 -4.44331 -6.16825 0
M  V30 4839 N 452.299 1.55045 -0.282633 0
M  V30 4840 C 453.246 2.22822 0.601566 0
M  V30 4841 C 454.216 1.20431 1.14392 0
M  V30 4842 O 455.401 1.48996 1.19184 0
M  V30 4843 C 452.541 2.95873 1.77632 0
M  V30 4844 C 451.654 4.12999 1.26711 0
M  V30 4845 C 450.789 4.73676 2.40426 0
M  V30 4846 C 449.828 5.82981 1.86545 0
M  V30 4847 N 448.965 6.3769 2.93762 0
M  V30 4848 H 453.805 2.97995 0.0169528 0
M  V30 4849 H 451.342 1.471 -0.00339964 0
M  V30 4850 H 453.3 3.36447 2.46697 0
M  V30 4851 H 451.93 2.2311 2.33285 0
M  V30 4852 H 450.982 3.77494 0.469314 0
M  V30 4853 H 452.294 4.91803 0.832518 0
M  V30 4854 H 451.448 5.17008 3.17471 0
M  V30 4855 H 450.187 3.94164 2.87203 0
M  V30 4856 H 449.192 5.39092 1.07983 0
M  V30 4857 H 450.417 6.64366 1.40694 0
M  V30 4858 H 448.363 5.61069 3.39908 0
M  V30 4859 H 448.28 7.11788 2.54744 0
M  V30 4860 H 449.548 6.8568 3.7076 0
M  V30 4861 N 453.777 0.010035 1.57597 0
M  V30 4862 C 454.727 -0.986858 2.05536 0
M  V30 4863 C 455.711 -1.29711 0.952042 0
M  V30 4864 O 456.903 -1.28641 1.21575 0
M  V30 4865 C 454.032 -2.2756 2.57043 0
M  V30 4866 C 453.118 -1.99455 3.74271 0
M  V30 4867 N 453.509 -1.41546 4.85591 0
M  V30 4868 C 451.807 -2.29547 3.82393 0
M  V30 4869 C 452.508 -1.3014 5.66956 0
M  V30 4870 N 451.484 -1.79044 5.13268 0
M  V30 4871 H 455.286 -0.533778 2.89012 0
M  V30 4872 H 452.8 -0.195432 1.6122 0
M  V30 4873 H 454.797 -2.99829 2.89669 0
M  V30 4874 H 453.457 -2.73512 1.7499 0
M  V30 4875 H 454.468 -1.09294 5.06236 0
M  V30 4876 H 451.145 -2.78304 3.11213 0
M  V30 4877 H 452.535 -0.855237 6.66435 0
M  V30 4878 N 455.255 -1.55392 -0.262866 0
M  V30 4879 C 456.185 -1.91978 -1.32917 0
M  V30 4880 C 457.166 -0.7828 -1.51017 0
M  V30 4881 O 458.351 -1.04178 -1.63892 0
M  V30 4882 C 455.481 -2.20055 -2.68687 0
M  V30 4883 C 454.435 -3.35854 -2.65304 0
M  V30 4884 C 453.761 -3.49435 -4.04721 0
M  V30 4885 C 455.061 -4.71977 -2.23685 0
M  V30 4886 H 456.755 -2.81292 -1.02544 0
M  V30 4887 H 454.301 -1.3534 -0.491846 0
M  V30 4888 H 456.254 -2.44237 -3.43404 0
M  V30 4889 H 454.978 -1.27551 -3.00663 0
M  V30 4890 H 453.637 -3.11655 -1.93045 0
M  V30 4891 H 453.285 -2.54379 -4.33936 0
M  V30 4892 H 452.985 -4.27297 -4.0335 0
M  V30 4893 H 454.509 -3.7592 -4.81161 0
M  V30 4894 H 455.923 -4.95637 -2.88127 0
M  V30 4895 H 454.32 -5.52828 -2.33456 0
M  V30 4896 H 455.39 -4.70115 -1.18827 0
M  V30 4897 N 456.733 0.527833 -1.48498 0
M  V30 4898 C 457.696 1.61439 -1.62696 0
M  V30 4899 C 458.696 1.52824 -0.500136 0
M  V30 4900 O 459.886 1.56456 -0.765976 0
M  V30 4901 C 457.018 3.01063 -1.59918 0
M  V30 4902 H 458.211 1.50189 -2.59583 0
M  V30 4903 H 455.764 0.750055 -1.37127 0
M  V30 4904 H 456.499 3.17818 -0.645163 0
M  V30 4905 H 456.284 3.08725 -2.41726 0
M  V30 4906 H 457.774 3.80057 -1.73051 0
M  V30 4907 N 458.211 1.37122 0.776871 0
M  V30 4908 C 459.439 1.3523 1.5659 0
M  V30 4909 C 459.854 -0.0635518 1.88693 0
M  V30 4910 O 459.211 -1.02394 1.51069 0
M  V30 4911 C 459.262 2.18583 2.8793 0
M  V30 4912 O 458.983 3.5465 2.57206 0
M  V30 4913 C 460.484 2.24612 3.82183 0
M  V30 4914 H 457.704 0.4634 0.485285 0
M  V30 4915 H 460.248 1.80392 0.963266 0
M  V30 4916 H 458.403 1.76943 3.4463 0
M  V30 4917 H 458.817 3.98286 3.41275 0
M  V30 4918 H 460.291 2.87267 4.71361 0
M  V30 4919 H 460.768 1.25309 4.20944 0
M  V30 4920 H 461.374 2.66543 3.31414 0
M  V30 4921 N 459.689 -1.00246 1.21608 0
M  V30 4922 C 460.937 -1.73717 1.0328 0
M  V30 4923 C 461.258 -1.90102 -0.434318 0
M  V30 4924 O 460.528 -1.45376 -1.31311 0
M  V30 4925 H 459.108 -0.643613 0.379172 0
M  V30 4926 H 461.77 -1.20787 1.52959 0
M  V30 4927 H 460.866 -2.73535 1.50283 0
M  V30 4928 N 461.167 -1.02423 -1.1978 0
M  V30 4929 C 462.115 -0.594474 -2.24875 0
M  V30 4930 C 463.109 0.370598 -1.65296 0
M  V30 4931 O 464.315 0.239684 -1.78397 0
M  V30 4932 H 460.69 -0.173961 -0.731602 0
M  V30 4933 H 462.661 -1.4916 -2.58445 0
M  V30 4934 C 461.41 0.0436512 -3.47673 0
M  V30 4935 H 460.733 -0.689963 -3.93801 0
M  V30 4936 H 462.173 0.307362 -4.22884 0
M  V30 4937 C 460.632 1.28881 -3.11274 0
M  V30 4938 O 461.162 2.38135 -3.23503 0
M  V30 4939 N 459.368 1.1758 -2.6575 0
M  V30 4940 H 458.915 0.286769 -2.55999 0
M  V30 4941 H 458.873 2.00988 -2.41767 0
M  V30 4942 N 462.645 1.35699 -0.801477 0
M  V30 4943 C 463.875 2.02862 -0.3912 0
M  V30 4944 C 464.283 1.60552 1.00099 0
M  V30 4945 O 463.626 0.796215 1.65548 0
M  V30 4946 C 463.688 3.57386 -0.389299 0
M  V30 4947 C 463.352 4.22943 -1.73113 0
M  V30 4948 C 464.349 4.44984 -2.68859 0
M  V30 4949 C 462.034 4.60167 -2.01373 0
M  V30 4950 C 464.028 5.03345 -3.91053 0
M  V30 4951 C 461.715 5.18243 -3.23832 0
M  V30 4952 C 462.713 5.39773 -4.1849 0
M  V30 4953 O 462.401 5.96626 -5.38788 0
M  V30 4954 H 462.133 0.657341 -0.157732 0
M  V30 4955 H 464.687 1.74407 -1.08496 0
M  V30 4956 H 462.917 3.85011 0.361031 0
M  V30 4957 H 464.606 4.059 -0.0020365 0
M  V30 4958 H 465.372 4.1661 -2.48316 0
M  V30 4959 H 461.251 4.42726 -1.28508 0
M  V30 4960 H 464.795 5.20065 -4.64949 0
M  V30 4961 H 460.692 5.46044 -3.44248 0
M  V30 4962 H 461.46 6.15082 -5.40015 0
M  V30 4963 N 464.123 0.554532 1.47522 0
M  V30 4964 C 465.053 -0.182974 2.32782 0
M  V30 4965 C 466.034 -0.911377 1.43624 0
M  V30 4966 O 467.219 -0.892366 1.72483 0
M  V30 4967 C 464.349 -1.21513 3.25349 0
M  V30 4968 C 463.303 -0.603355 4.23726 0
M  V30 4969 C 462.629 -1.73995 5.05598 0
M  V30 4970 C 463.929 0.441121 5.20434 0
M  V30 4971 H 465.623 0.52882 2.94693 0
M  V30 4972 H 463.169 0.255759 1.41711 0
M  V30 4973 H 465.122 -1.73922 3.83835 0
M  V30 4974 H 463.846 -1.95683 2.61487 0
M  V30 4975 H 462.505 -0.10059 3.66462 0
M  V30 4976 H 462.153 -2.47063 4.38143 0
M  V30 4977 H 461.853 -1.3364 5.72201 0
M  V30 4978 H 463.377 -2.26735 5.66942 0
M  V30 4979 H 464.791 0.00319931 5.733 0
M  V30 4980 H 463.188 0.763402 5.95224 0
M  V30 4981 H 464.258 1.33799 4.66075 0
M  V30 4982 N 465.601 -1.54893 0.290851 0
M  V30 4983 C 466.564 -2.21824 -0.576784 0
M  V30 4984 C 467.564 -1.20104 -1.06919 0
M  V30 4985 O 468.754 -1.44906 -0.966843 0
M  V30 4986 C 465.886 -2.89662 -1.79747 0
M  V30 4987 H 467.079 -2.99899 0.00784051 0
M  V30 4988 H 464.632 -1.56245 0.0415934 0
M  V30 4989 H 465.367 -2.15639 -2.42219 0
M  V30 4990 H 465.152 -3.64219 -1.45214 0
M  V30 4991 H 466.642 -3.4075 -2.4141 0
M  V30 4992 N 467.08 -0.0183926 -1.57589 0
M  V30 4993 C 468.043 0.951986 -2.08494 0
M  V30 4994 C 469.043 1.26092 -0.997874 0
M  V30 4995 O 470.233 1.20304 -1.25987 0
M  V30 4996 C 467.365 2.27165 -2.54182 0
M  V30 4997 H 468.558 0.511307 -2.95509 0
M  V30 4998 H 466.111 0.229444 -1.54607 0
M  V30 4999 H 466.846 2.75884 -1.70465 0
M  V30 5000 H 466.631 2.06057 -3.33591 0
M  V30 5001 H 468.121 2.9674 -2.93828 0
M  V30 5002 N 468.558 1.5553 0.254621 0
M  V30 5003 C 469.468 1.92789 1.33677 0
M  V30 5004 C 470.484 0.827356 1.53071 0
M  V30 5005 O 471.66 1.12807 1.66843 0
M  V30 5006 C 468.725 2.20827 2.67275 0
M  V30 5007 C 467.786 3.4427 2.5647 0
M  V30 5008 C 467.019 3.70961 3.83697 0
M  V30 5009 O 467.242 2.99852 4.85227 0
M  V30 5010 O 466.176 4.64491 3.82794 0
M  V30 5011 H 470.002 2.84945 1.05071 0
M  V30 5012 H 467.587 1.42312 0.454723 0
M  V30 5013 H 469.469 2.40204 3.46237 0
M  V30 5014 H 468.144 1.31851 2.9563 0
M  V30 5015 H 467.051 3.30209 1.75821 0
M  V30 5016 H 468.384 4.33524 2.33062 0
M  V30 5017 N 470.036 -0.519951 1.48776 0
M  V30 5018 C 470.946 -1.65025 1.66745 0
M  V30 5019 C 471.962 -1.6508 0.549954 0
M  V30 5020 O 473.138 -1.83848 0.822295 0
M  V30 5021 C 470.203 -3.0146 1.71238 0
M  V30 5022 C 469.264 -3.12182 2.94688 0
M  V30 5023 C 468.497 -4.42109 2.98958 0
M  V30 5024 O 468.72 -5.29799 2.1135 0
M  V30 5025 O 467.654 -4.57406 3.91233 0
M  V30 5026 H 471.48 -1.52801 2.62461 0
M  V30 5027 H 469.065 -0.694157 1.32294 0
M  V30 5028 H 470.947 -3.82584 1.76657 0
M  V30 5029 H 469.622 -3.13988 0.786975 0
M  V30 5030 H 468.529 -2.30316 2.94797 0
M  V30 5031 H 469.862 -3.04574 3.86646 0
M  V30 5032 N 471.514 -1.37532 -0.769588 0
M  V30 5033 C 472.462 -1.33561 -1.90432 0
M  V30 5034 C 473.456 -0.224027 -1.67912 0
M  V30 5035 O 474.662 -0.392174 -1.75676 0
M  V30 5036 H 471.037 -0.416279 -0.626271 0
M  V30 5037 H 473.008 -2.29348 -1.90899 0
M  V30 5038 C 471.757 -1.16162 -3.27722 0
M  V30 5039 H 471.08 -2.00951 -3.45628 0
M  V30 5040 H 472.52 -1.17434 -4.07413 0
M  V30 5041 C 470.979 0.132583 -3.36639 0
M  V30 5042 O 471.509 1.11539 -3.85904 0
M  V30 5043 N 469.715 0.184013 -2.90017 0
M  V30 5044 H 469.262 -0.616415 -2.50116 0
M  V30 5045 H 469.22 1.04956 -2.96364 0
M  V30 5046 N 472.992 0.995999 -1.22138 0
M  V30 5047 C 474.403 1.54961 -1.04135 0
M  V30 5048 C 474.754 1.92159 0.396147 0
M  V30 5049 O 473.879 1.74435 1.28069 0
M  V30 5050 C 474.474 2.81581 -1.88408 0
M  V30 5051 C 473.033 3.33396 -1.74712 0
M  V30 5052 C 472.18 2.06509 -1.85066 0
M  V30 5053 H 475.131 0.817436 -1.36028 0
M  V30 5054 H 475.152 3.53822 -1.39966 0
M  V30 5055 H 474.664 2.54476 -2.93025 0
M  V30 5056 H 472.765 3.65416 -0.728159 0
M  V30 5057 H 472.878 4.04208 -2.57202 0
M  V30 5058 H 471.242 2.19925 -1.28472 0
M  V30 5059 H 472.025 1.81804 -2.91208 0
M  V30 5060 N 474.47 1.03057 1.19235 0
M  V30 5061 C 475.695 0.74757 1.93458 0
M  V30 5062 C 476.12 -0.687648 1.7508 0
M  V30 5063 O 475.478 -1.47499 1.05422 0
M  V30 5064 C 475.526 1.10604 3.43219 0
M  V30 5065 O 474.63 0.225671 4.11782 0
M  V30 5066 H 473.971 0.276047 0.603899 0
M  V30 5067 H 476.501 1.3777 1.51263 0
M  V30 5068 H 476.511 1.06366 3.93891 0
M  V30 5069 H 475.186 2.15165 3.55917 0
M  V30 5070 H 473.763 0.326795 3.71465 0
M  V30 5071 N 475.948 -1.35272 0.808662 0
M  V30 5072 C 477.178 -2.02652 0.401953 0
M  V30 5073 C 477.586 -1.6108 -0.992462 0
M  V30 5074 O 476.929 -0.804984 -1.65123 0
M  V30 5075 C 476.991 -3.57174 0.408246 0
M  V30 5076 C 476.655 -4.22019 1.75353 0
M  V30 5077 C 477.652 -4.43552 2.71215 0
M  V30 5078 C 475.337 -4.59093 2.03811 0
M  V30 5079 C 477.331 -5.01264 3.93717 0
M  V30 5080 C 475.018 -5.16519 3.26576 0
M  V30 5081 C 476.016 -5.37546 4.21347 0
M  V30 5082 O 475.704 -5.93761 5.41944 0
M  V30 5083 H 475.436 -0.656495 0.161216 0
M  V30 5084 H 477.99 -1.73829 1.0942 0
M  V30 5085 H 476.22 -3.85197 -0.340608 0
M  V30 5086 H 477.909 -4.05893 0.0235623 0
M  V30 5087 H 478.675 -4.15288 2.50522 0
M  V30 5088 H 474.554 -4.42039 1.30854 0
M  V30 5089 H 478.098 -5.17592 4.67701 0
M  V30 5090 H 473.995 -5.4421 3.47139 0
M  V30 5091 H 474.763 -6.1221 5.43269 0
M  V30 5092 N 477.426 -0.562348 -1.47226 0
M  V30 5093 C 478.373 0.182461 -2.30078 0
M  V30 5094 C 479.343 0.903503 -1.39377 0
M  V30 5095 O 480.528 0.898188 -1.68337 0
M  V30 5096 C 477.668 1.20322 -3.23445 0
M  V30 5097 C 476.781 0.487717 -4.29238 0
M  V30 5098 C 475.916 1.49422 -5.09752 0
M  V30 5099 C 474.955 0.763976 -6.07314 0
M  V30 5100 N 474.092 1.71755 -6.80768 0
M  V30 5101 H 478.932 -0.530169 -2.93246 0
M  V30 5102 H 476.469 -0.273276 -1.44539 0
M  V30 5103 H 478.427 1.80768 -3.76004 0
M  V30 5104 H 477.057 1.88382 -2.6213 0
M  V30 5105 H 476.109 -0.231374 -3.79696 0
M  V30 5106 H 477.421 -0.0841003 -4.98729 0
M  V30 5107 H 476.575 2.17206 -5.66486 0
M  V30 5108 H 475.314 2.09995 -4.40174 0
M  V30 5109 H 474.319 0.0722344 -5.49753 0
M  V30 5110 H 475.544 0.16391 -6.78902 0
M  V30 5111 H 473.49 2.31177 -6.13916 0
M  V30 5112 H 473.407 1.19802 -7.46447 0
M  V30 5113 H 474.675 2.38638 -7.42073 0
M  V30 5114 N 478.904 1.54736 -0.299062 0
M  V30 5115 C 480.152 1.99706 0.31017 0
M  V30 5116 C 480.473 1.18896 1.54559 0
M  V30 5117 O 479.743 0.284445 1.93824 0
M  V30 5118 H 478.323 0.737686 0.117596 0
M  V30 5119 H 480.985 1.9054 -0.409943 0
M  V30 5120 H 480.081 3.06596 0.58355 0
M  V30 5121 N 480.382 0.0267497 1.57577 0
M  V30 5122 C 481.659 -0.690926 1.82991 0
M  V30 5123 C 482.039 -1.90471 0.910164 0
M  V30 5124 O 481.387 -2.28474 -0.0347985 0
M  V30 5125 C 481.597 -1.07139 3.32148 0
M  V30 5126 C 482.945 -1.46402 3.98562 0
M  V30 5127 O 483.969 -1.16443 3.36629 0
M  V30 5128 O 482.828 -2.02214 5.07712 0
M  V30 5129 H 479.922 -0.338747 0.75444 0
M  V30 5130 H 482.468 0.0542506 1.69613 0
M  V30 5131 H 481.24 -0.207394 3.9075 0
M  V30 5132 H 480.863 -1.87481 3.50623 0
M  V30 5133 N 481.861 -1.55662 -0.24637 0
M  V30 5134 C 482.824 -1.89558 -1.28842 0
M  V30 5135 C 483.824 -0.772082 -1.41052 0
M  V30 5136 O 485.014 -1.04007 -1.39743 0
M  V30 5137 C 482.146 -2.12449 -2.66605 0
M  V30 5138 H 483.339 -2.82735 -1.00004 0
M  V30 5139 H 480.892 -1.48562 -0.485684 0
M  V30 5140 H 481.627 -1.21742 -3.00582 0
M  V30 5141 H 481.412 -2.94273 -2.59125 0
M  V30 5142 H 482.902 -2.39854 -3.41847 0
M  V30 5143 N 483.339 0.512053 -1.4905 0
M  V30 5144 C 484.564 1.2959 -1.6193 0
M  V30 5145 C 484.989 1.85906 -0.286454 0
M  V30 5146 O 484.347 1.65312 0.744426 0
M  V30 5147 C 484.395 2.40987 -2.68249 0
M  V30 5148 O 483.499 3.44531 -2.26654 0
M  V30 5149 H 482.84 0.383053 -0.542371 0
M  V30 5150 H 485.37 0.614231 -1.95162 0
M  V30 5151 H 485.38 2.86913 -2.90078 0
M  V30 5152 H 484.055 1.99361 -3.65004 0
M  V30 5153 H 482.632 3.046 -2.15112 0
M  V30 5154 N 484.817 1.37938 0.762283 0
M  V30 5155 C 486.094 1.24196 1.51112 0
M  V30 5156 C 486.474 -0.160409 2.1049 0
M  V30 5157 O 485.822 -1.16904 1.96331 0
M  V30 5158 C 486.032 2.34537 2.58445 0
M  V30 5159 C 487.38 2.7254 3.25588 0
M  V30 5160 O 488.404 2.33783 2.68745 0
M  V30 5161 O 487.263 3.39343 4.28379 0
M  V30 5162 H 484.357 0.485175 0.669727 0
M  V30 5163 H 486.903 1.49743 0.798438 0
M  V30 5164 H 485.675 3.28406 2.12756 0
M  V30 5165 H 485.298 2.10505 3.37303 0
M  V30 5166 N 486.295 -0.989507 1.22664 0
M  V30 5167 C 487.706 -1.54406 1.04955 0
M  V30 5168 C 488.057 -1.92366 -0.385951 0
M  V30 5169 O 487.182 -1.75111 -1.27142 0
M  V30 5170 C 487.777 -2.80578 1.89899 0
M  V30 5171 C 486.336 -3.32464 1.76478 0
M  V30 5172 C 485.483 -2.05524 1.86159 0
M  V30 5173 H 488.434 -0.810211 1.3646 0
M  V30 5174 H 488.455 -3.53075 1.4184 0
M  V30 5175 H 487.967 -2.52918 2.94371 0
M  V30 5176 H 486.068 -3.65024 0.747528 0
M  V30 5177 H 486.181 -4.02838 2.59342 0
M  V30 5178 H 484.545 -2.19241 1.29636 0
M  V30 5179 H 485.328 -1.80258 2.92168 0
M  V30 5180 N 487.773 -1.03688 -1.18687 0
M  V30 5181 C 488.72 -0.624624 -2.22187 0
M  V30 5182 C 489.69 0.365636 -1.62026 0
M  V30 5183 O 490.875 0.260481 -1.89014 0
M  V30 5184 C 488.015 0.0101738 -3.45099 0
M  V30 5185 C 487.128 -1.02709 -4.19613 0
M  V30 5186 C 486.263 -0.361213 -5.2997 0
M  V30 5187 C 485.302 -1.38384 -5.96252 0
M  V30 5188 N 484.439 -0.743196 -6.98155 0
M  V30 5189 H 489.279 -1.51176 -2.56807 0
M  V30 5190 H 486.816 -0.75636 -1.26165 0
M  V30 5191 H 488.774 0.395528 -4.15321 0
M  V30 5192 H 487.404 0.860848 -3.1111 0
M  V30 5193 H 486.456 -1.53043 -3.48256 0
M  V30 5194 H 487.768 -1.80398 -4.65036 0
M  V30 5195 H 486.922 0.0785537 -6.06649 0
M  V30 5196 H 485.661 0.447799 -4.8564 0
M  V30 5197 H 484.666 -1.83378 -5.18317 0
M  V30 5198 H 485.891 -2.19448 -6.42666 0
M  V30 5199 H 483.837 0.0455789 -6.55984 0
M  V30 5200 H 483.754 -1.45784 -7.41811 0
M  V30 5201 H 485.022 -0.327698 -7.78811 0
M  V30 5202 N 489.251 1.34841 -0.815825 0
M  V30 5203 C 490.214 2.27959 -0.238185 0
M  V30 5204 C 491.214 1.49983 0.579816 0
M  V30 5205 O 492.404 1.69617 0.396953 0
M  V30 5206 C 489.536 3.34314 0.666876 0
M  V30 5207 H 490.729 2.80558 -1.05958 0
M  V30 5208 H 488.282 1.44852 -0.587156 0
M  V30 5209 H 489.017 2.86916 1.5116 0
M  V30 5210 H 488.802 3.92014 0.0819106 0
M  V30 5211 H 490.292 4.0379 1.06506 0
M  V30 5212 N 490.729 0.570148 1.46925 0
M  V30 5213 C 491.692 -0.159933 2.28641 0
M  V30 5214 C 492.692 -0.830638 1.37685 0
M  V30 5215 O 493.882 -0.684516 1.60187 0
M  V30 5216 C 491.014 -1.2354 3.17727 0
M  V30 5217 H 492.207 0.558035 2.94662 0
M  V30 5218 H 489.76 0.327603 1.52828 0
M  V30 5219 H 490.495 -1.98535 2.56426 0
M  V30 5220 H 490.28 -0.759125 3.84681 0
M  V30 5221 H 491.77 -1.74782 3.79264 0
M  V30 5222 N 492.207 -1.54576 0.307264 0
M  V30 5223 C 493.455 -1.99867 -0.299574 0
M  V30 5224 C 493.776 -1.19714 -1.53927 0
M  V30 5225 O 493.046 -0.29472 -1.9367 0
M  V30 5226 H 491.626 -0.738299 -0.113683 0
M  V30 5227 H 494.288 -1.9032 0.420042 0
M  V30 5228 H 493.384 -3.06901 -0.567283 0
M  V30 5229 N 493.685 -0.035106 -1.57561 0
M  V30 5230 C 494.618 0.979673 -2.06101 0
M  V30 5231 C 495.596 1.31378 -0.958046 0
M  V30 5232 O 496.78 1.42942 -1.22881 0
M  V30 5233 C 493.907 2.29809 -2.48808 0
M  V30 5234 C 492.953 2.11817 -3.70184 0
M  V30 5235 S 493.786 1.41143 -5.16565 0
M  V30 5236 C 494.942 2.74341 -5.62572 0
M  V30 5237 H 495.175 0.566506 -2.91853 0
M  V30 5238 H 492.708 0.176744 -1.53385 0
M  V30 5239 H 494.666 3.056 -2.74078 0
M  V30 5240 H 493.327 2.68257 -1.63392 0
M  V30 5241 H 492.52 3.09299 -3.97933 0
M  V30 5242 H 492.122 1.44168 -3.45097 0
M  V30 5243 H 494.414 3.70562 -5.67177 0
M  V30 5244 H 495.357 2.51249 -6.62027 0
M  V30 5245 H 495.765 2.79863 -4.90242 0
M  V30 5246 N 495.163 1.55791 0.238111 0
M  V30 5247 C 496.411 1.77681 0.963001 0
M  V30 5248 C 496.732 0.600674 1.85518 0
M  V30 5249 O 496.002 -0.383182 1.92116 0
M  V30 5250 H 494.582 0.655315 0.358568 0
M  V30 5251 H 497.244 1.93239 0.253945 0
M  V30 5252 H 496.34 2.69177 1.57956 0
M  V30 5253 N 496.642 -0.504142 1.49319 0
M  V30 5254 C 497.605 -1.5883 1.65244 0
M  V30 5255 C 498.605 -1.52009 0.524386 0
M  V30 5256 O 499.795 -1.55218 0.79077 0
M  V30 5257 C 496.927 -2.98481 1.64687 0
M  V30 5258 H 498.12 -1.4604 2.61939 0
M  V30 5259 H 495.673 -0.728144 1.38303 0
M  V30 5260 H 496.408 -3.16751 0.695644 0
M  V30 5261 H 496.193 -3.0484 2.46607 0
M  V30 5262 H 497.683 -3.77256 1.79075 0
M  V30 5263 N 498.12 -1.38341 -0.754957 0
M  V30 5264 C 499.052 -1.31347 -1.87831 0
M  V30 5265 C 500.065 -0.225955 -1.61224 0
M  V30 5266 O 501.254 -0.48341 -1.7183 0
M  V30 5267 C 498.354 -1.01201 -3.23437 0
M  V30 5268 C 497.527 -2.20834 -3.77559 0
M  V30 5269 C 496.586 -1.87454 -4.91678 0
M  V30 5270 O 495.612 -2.59934 -5.06382 0
M  V30 5271 N 496.814 -0.828682 -5.74555 0
M  V30 5272 H 499.579 -2.28147 -1.94342 0
M  V30 5273 H 497.14 -1.32184 -0.934828 0
M  V30 5274 H 499.132 -0.769249 -3.97322 0
M  V30 5275 H 497.702 -0.132011 -3.12321 0
M  V30 5276 H 496.922 -2.61184 -2.95256 0
M  V30 5277 H 498.21 -3.00678 -4.10451 0
M  V30 5278 H 497.608 -0.227591 -5.65242 0
M  V30 5279 H 496.165 -0.645802 -6.48593 0
M  V30 5280 N 499.598 0.982988 -1.23187 0
M  V30 5281 C 500.846 1.72052 -1.06031 0
M  V30 5282 C 501.167 1.90769 0.404019 0
M  V30 5283 O 500.437 1.47446 1.28982 0
M  V30 5284 H 499.017 0.637499 -0.389363 0
M  V30 5285 H 501.679 1.18338 -1.54862 0
M  V30 5286 H 500.775 2.7111 -1.54615 0
M  V30 5287 N 501.076 1.04316 1.18135 0
M  V30 5288 C 502.492 0.762858 1.40188 0
M  V30 5289 C 502.692 -0.646547 1.90846 0
M  V30 5290 O 501.748 -1.41036 2.0944 0
M  V30 5291 C 503.061 1.81106 2.40044 0
M  V30 5292 C 504.609 1.83226 2.53766 0
M  V30 5293 C 505.084 2.87044 3.56889 0
M  V30 5294 N 506.575 2.85951 3.64398 0
M  V30 5295 C 507.31 3.62932 4.43923 0
M  V30 5296 N 506.806 4.49672 5.27036 0
M  V30 5297 N 508.599 3.51411 4.38711 0
M  V30 5298 H 500.75 1.95264 0.835805 0
M  V30 5299 H 503.013 0.845017 0.429709 0
M  V30 5300 H 502.719 2.82214 2.09876 0
M  V30 5301 H 502.593 1.64529 3.39426 0
M  V30 5302 H 504.98 0.827869 2.8325 0
M  V30 5303 H 505.061 2.03879 1.54489 0
M  V30 5304 H 504.705 3.87663 3.28145 0
M  V30 5305 H 504.635 2.63645 4.5585 0
M  V30 5306 H 507.126 2.23051 3.05052 0
M  V30 5307 H 507.439 5.05116 5.84874 0
M  V30 5308 H 505.784 4.53738 5.26447 0
M  V30 5309 H 508.975 2.83047 3.72829 0
M  V30 5310 H 509.148 4.11654 5.00445 0
M  V30 5311 N 502.554 -1.34406 0.822964 0
M  V30 5312 C 503.782 -2.02508 0.424039 0
M  V30 5313 C 504.197 -1.61975 -0.970022 0
M  V30 5314 O 503.554 -0.825228 -1.62777 0
M  V30 5315 C 503.605 -3.57789 0.516657 0
M  V30 5316 O 503.326 -3.96853 1.85577 0
M  V30 5317 C 504.827 -4.43157 0.112637 0
M  V30 5318 H 502.047 -0.649063 0.170173 0
M  V30 5319 H 504.591 -1.7168 1.11113 0
M  V30 5320 H 502.746 -3.87207 -0.122353 0
M  V30 5321 H 503.16 -4.91538 1.83005 0
M  V30 5322 H 504.634 -5.51527 0.228526 0
M  V30 5323 H 505.111 -4.28939 -0.943837 0
M  V30 5324 H 505.717 -4.19067 0.725449 0
M  V30 5325 N 504.032 -0.577932 -1.46621 0
M  V30 5326 C 505.28 -0.061566 -2.02006 0
M  V30 5327 C 505.601 1.30117 -1.4524 0
M  V30 5328 O 504.871 1.85313 -0.63529 0
M  V30 5329 H 503.451 -0.0197692 -0.746738 0
M  V30 5330 H 506.113 -0.752631 -1.79782 0
M  V30 5331 H 505.209 0.0110238 -3.12098 0
M  V30 5332 N 505.51 1.54411 -0.315457 0
M  V30 5333 C 506.926 1.59556 0.037464 0
M  V30 5334 C 507.126 1.33217 1.5118 0
M  V30 5335 O 506.182 1.11264 2.26664 0
M  V30 5336 C 507.495 2.98372 -0.373477 0
M  V30 5337 C 509.043 3.11324 -0.323452 0
M  V30 5338 C 509.518 4.52472 -0.709433 0
M  V30 5339 N 511.009 4.58437 -0.662524 0
M  V30 5340 C 511.744 5.65751 -0.933474 0
M  V30 5341 N 511.24 6.81039 -1.27114 0
M  V30 5342 N 513.033 5.55489 -0.859573 0
M  V30 5343 H 505.184 1.6979 -1.27614 0
M  V30 5344 H 507.447 0.793732 -0.518356 0
M  V30 5345 H 507.153 3.22618 -1.40037 0
M  V30 5346 H 507.027 3.76264 0.265615 0
M  V30 5347 H 509.414 2.86818 0.694223 0
M  V30 5348 H 509.495 2.35555 -0.997367 0
M  V30 5349 H 509.139 4.7771 -1.72498 0
M  V30 5350 H 509.069 5.26598 -0.0132923 0
M  V30 5351 H 511.56 3.75636 -0.413065 0
M  V30 5352 H 511.873 7.58816 -1.46348 0
M  V30 5353 H 510.218 6.82555 -1.30932 0
M  V30 5354 H 513.409 4.64299 -0.595324 0
M  V30 5355 H 513.582 6.39036 -1.0741 0
M  V30 5356 N 506.988 0.0434614 1.5754 0
M  V30 5357 C 508.404 -0.313039 1.565 0
M  V30 5358 C 508.604 -1.71954 1.05043 0
M  V30 5359 O 507.66 -2.425 0.703564 0
M  V30 5360 C 508.973 -0.148544 3.00333 0
M  V30 5361 C 510.521 -0.220231 3.12224 0
M  V30 5362 C 510.996 -0.0843565 4.57922 0
M  V30 5363 N 512.487 -0.140881 4.62986 0
M  V30 5364 C 513.222 -0.0597443 5.73369 0
M  V30 5365 N 512.718 0.0733004 6.92761 0
M  V30 5366 N 514.511 -0.11477 5.61983 0
M  V30 5367 H 506.662 0.96303 1.89313 0
M  V30 5368 H 508.925 0.373164 0.871466 0
M  V30 5369 H 508.631 0.820894 3.41986 0
M  V30 5370 H 508.505 -0.912798 3.65989 0
M  V30 5371 H 510.892 -1.18014 2.70475 0
M  V30 5372 H 510.973 0.574646 2.49262 0
M  V30 5373 H 510.617 0.872192 5.00355 0
M  V30 5374 H 510.547 -0.898281 5.18882 0
M  V30 5375 H 513.038 -0.243273 3.77116 0
M  V30 5376 H 513.351 0.128128 7.72694 0
M  V30 5377 H 511.696 0.10828 6.94916 0
M  V30 5378 H 514.887 -0.217212 4.67596 0
M  V30 5379 H 515.06 -0.0480779 6.47982 0
M  V30 5380 N 508.466 -1.55915 -0.229846 0
M  V30 5381 C 509.414 -1.9258 -1.30444 0
M  V30 5382 C 510.408 -0.806839 -1.48951 0
M  V30 5383 O 511.614 -0.991606 -1.50224 0
M  V30 5384 H 507.989 -0.611878 -0.437161 0
M  V30 5385 H 509.96 -2.82264 -0.96797 0
M  V30 5386 C 508.709 -2.25171 -2.6494 0
M  V30 5387 H 508.032 -3.10782 -2.51504 0
M  V30 5388 H 509.472 -2.54716 -3.38963 0
M  V30 5389 C 507.931 -1.07394 -3.19324 0
M  V30 5390 O 508.461 -0.330759 -4.00336 0
M  V30 5391 N 506.667 -0.859984 -2.77584 0
M  V30 5392 H 506.214 -1.46605 -2.11813 0
M  V30 5393 H 506.172 -0.0736671 -3.14314 0
M  V30 5394 N 509.944 0.496216 -1.49584 0
M  V30 5395 C 510.907 1.57952 -1.66084 0
M  V30 5396 C 511.907 1.51729 -0.53244 0
M  V30 5397 O 513.097 1.54796 -0.79899 0
M  V30 5398 C 510.229 2.97604 -1.66268 0
M  V30 5399 H 511.422 1.44649 -2.6271 0
M  V30 5400 H 508.975 0.7208 -1.38687 0
M  V30 5401 H 509.71 3.16378 -0.712432 0
M  V30 5402 H 509.495 3.03528 -2.4822 0
M  V30 5403 H 510.985 3.76301 -1.81073 0
M  V30 5404 N 511.423 1.38739 0.74761 0
M  V30 5405 C 512.671 1.35007 1.50391 0
M  V30 5406 C 512.992 -0.0574274 1.94915 0
M  V30 5407 O 512.262 -1.00628 1.6808 0
M  V30 5408 H 510.842 0.496784 0.557866 0
M  V30 5409 H 513.504 1.73479 0.888319 0
M  V30 5410 H 512.6 2.00474 2.392 0
M  V30 5411 N 512.901 -0.976442 1.23707 0
M  V30 5412 C 513.811 -2.10359 1.03856 0
M  V30 5413 C 514.827 -1.73991 -0.0180919 0
M  V30 5414 O 516.003 -2.0061 0.178211 0
M  V30 5415 C 513.068 -3.40809 0.636387 0
M  V30 5416 C 512.129 -3.91179 1.76854 0
M  V30 5417 C 511.362 -5.15404 1.38546 0
M  V30 5418 O 511.585 -5.69754 0.27142 0
M  V30 5419 O 510.519 -5.5994 2.20797 0
M  V30 5420 H 514.345 -2.29997 1.98331 0
M  V30 5421 H 511.93 -1.08742 1.02448 0
M  V30 5422 H 513.812 -4.19269 0.423223 0
M  V30 5423 H 512.487 -3.22493 -0.279322 0
M  V30 5424 H 511.394 -3.13819 2.03638 0
M  V30 5425 H 512.727 -4.13958 2.6627 0
M  V30 5426 N 514.379 -1.04941 -1.1758 0
M  V30 5427 C 515.326 -0.648155 -2.21512 0
M  V30 5428 C 516.296 0.348431 -1.62404 0
M  V30 5429 O 517.481 0.240419 -1.89279 0
M  V30 5430 C 514.621 -0.0264291 -3.4509 0
M  V30 5431 C 513.734 -1.07154 -4.185 0
M  V30 5432 C 512.869 -0.417403 -5.29558 0
M  V30 5433 C 511.908 -1.447 -5.94751 0
M  V30 5434 N 511.045 -0.817203 -6.97328 0
M  V30 5435 H 515.885 -1.53891 -2.55189 0
M  V30 5436 H 513.422 -0.769699 -1.25356 0
M  V30 5437 H 515.38 0.351456 -4.15717 0
M  V30 5438 H 514.01 0.827802 -3.12005 0
M  V30 5439 H 513.062 -1.56728 -3.46613 0
M  V30 5440 H 514.374 -1.8532 -4.63096 0
M  V30 5441 H 513.528 0.0142061 -6.06698 0
M  V30 5442 H 512.267 0.396265 -4.86087 0
M  V30 5443 H 511.272 -1.88865 -5.16343 0
M  V30 5444 H 512.497 -2.26252 -6.40302 0
M  V30 5445 H 510.443 -0.0239995 -6.55996 0
M  V30 5446 H 510.36 -1.53644 -7.40223 0
M  V30 5447 H 511.628 -0.410283 -7.7842 0
M  V30 5448 N 515.857 1.33968 -0.830081 0
M  V30 5449 C 517.106 1.97323 -0.417928 0
M  V30 5450 C 517.419 1.6652 1.02618 0
M  V30 5451 O 518.625 2.2342 1.54259 0
M  V30 5452 C 517.081 3.53099 -0.696359 0
M  V30 5453 C 516.689 3.92788 -2.15457 0
M  V30 5454 C 518.433 4.23049 -0.350724 0
M  V30 5455 C 516.34 5.41506 -2.37751 0
M  V30 5456 H 515.27 0.738409 -0.152541 0
M  V30 5457 H 517.921 1.52711 -1.01744 0
M  V30 5458 H 516.303 3.95991 -0.0265904 0
M  V30 5459 H 517.477 3.6098 -2.86408 0
M  V30 5460 H 515.792 3.35795 -2.46232 0
M  V30 5461 H 518.389 5.32403 -0.495036 0
M  V30 5462 H 518.732 4.10279 0.705476 0
M  V30 5463 H 519.265 3.85657 -0.975362 0
M  V30 5464 H 516.004 5.5927 -3.41903 0
M  V30 5465 H 515.524 5.74804 -1.7135 0
M  V30 5466 H 517.203 6.0828 -2.20465 0
M  V30 5467 N 517.335 0.585699 1.46312 0
M  V30 5468 C 518.282 -0.145835 2.30339 0
M  V30 5469 C 519.252 -0.881215 1.40797 0
M  V30 5470 O 520.437 -0.871293 1.69744 0
M  V30 5471 C 517.577 -1.15161 3.25318 0
M  V30 5472 C 516.69 -0.419367 4.2996 0
M  V30 5473 C 515.825 -1.41293 5.12064 0
M  V30 5474 C 514.864 -0.667261 6.08452 0
M  V30 5475 N 514.001 -1.60903 6.83414 0
M  V30 5476 H 518.841 0.576755 2.92365 0
M  V30 5477 H 516.378 0.296237 1.44086 0
M  V30 5478 H 518.336 -1.74763 3.78832 0
M  V30 5479 H 516.966 -1.84188 2.65094 0
M  V30 5480 H 516.018 0.291751 3.7928 0
M  V30 5481 H 517.33 0.163433 4.98532 0
M  V30 5482 H 516.484 -2.08167 5.6987 0
M  V30 5483 H 515.223 -2.02966 4.43459 0
M  V30 5484 H 514.228 0.0152356 5.49798 0
M  V30 5485 H 515.453 -0.0558817 6.79077 0
M  V30 5486 H 513.399 -2.21381 6.17516 0
M  V30 5487 H 513.316 -1.07911 7.48259 0
M  V30 5488 H 514.584 -2.26802 7.45775 0
M  V30 5489 N 518.813 -1.54241 0.323641 0
M  V30 5490 C 520.043 -2.04687 -0.280464 0
M  V30 5491 C 520.451 -1.19939 -1.46326 0
M  V30 5492 O 519.794 -0.222872 -1.82343 0
M  V30 5493 C 519.856 -3.50978 -0.778123 0
M  V30 5494 C 519.52 -4.56127 0.282371 0
M  V30 5495 C 520.517 -5.07726 1.11847 0
M  V30 5496 C 518.202 -5.00451 0.430582 0
M  V30 5497 C 520.196 -6.02212 2.08851 0
M  V30 5498 C 517.883 -5.94752 1.40404 0
M  V30 5499 C 518.881 -6.45519 2.23147 0
M  V30 5500 O 518.569 -7.37968 3.1884 0
M  V30 5501 H 518.301 -0.673192 -0.0615473 0
M  V30 5502 H 520.855 -1.99999 0.467921 0
M  V30 5503 H 519.085 -3.53064 -1.57742 0
M  V30 5504 H 520.774 -3.84499 -1.30058 0
M  V30 5505 H 521.54 -4.74261 1.01496 0
M  V30 5506 H 517.419 -4.6055 -0.203569 0
M  V30 5507 H 520.963 -6.41761 2.73474 0
M  V30 5508 H 516.86 -6.27633 1.5082 0
M  V30 5509 H 517.628 -7.55841 3.14079 0
M  V30 5510 N 520.291 -0.0518155 -1.57515 0
M  V30 5511 C 521.531 0.625712 -1.94587 0
M  V30 5512 C 521.895 1.6797 -0.930053 0
M  V30 5513 O 523.096 2.41135 -1.18774 0
M  V30 5514 C 521.367 1.20574 -3.36447 0
M  V30 5515 S 522.926 1.90118 -3.95475 0
M  V30 5516 H 519.744 0.205434 -0.680675 0
M  V30 5517 H 522.346 -0.120906 -1.95126 0
M  V30 5518 H 521.05 0.426521 -4.08178 0
M  V30 5519 H 520.581 1.98916 -3.39405 0
M  V30 5520 H 522.596 3.18184 -3.80753 0
M  V30 5521 N 521.769 1.56035 0.221574 0
M  V30 5522 C 522.699 1.95434 1.2778 0
M  V30 5523 C 523.68 0.822564 1.48889 0
M  V30 5524 O 524.865 1.08486 1.61072 0
M  V30 5525 C 521.995 2.27102 2.62759 0
M  V30 5526 C 520.949 3.4277 2.56306 0
M  V30 5527 C 520.275 3.60043 3.95314 0
M  V30 5528 C 521.575 4.77742 2.11093 0
M  V30 5529 H 523.269 2.83912 0.950504 0
M  V30 5530 H 520.815 1.36596 0.455791 0
M  V30 5531 H 522.768 2.53256 3.36807 0
M  V30 5532 H 521.492 1.35478 2.97176 0
M  V30 5533 H 520.151 3.16664 1.84715 0
M  V30 5534 H 519.799 2.65794 4.27039 0
M  V30 5535 H 519.499 4.37841 3.91879 0
M  V30 5536 H 521.023 3.88545 4.71025 0
M  V30 5537 H 522.437 5.03102 2.74885 0
M  V30 5538 H 520.834 5.58823 2.18716 0
M  V30 5539 H 521.904 4.731 1.06321 0
M  V30 5540 N 523.247 -0.488276 1.49845 0
M  V30 5541 C 524.493 -1.24341 1.6021 0
M  V30 5542 C 524.826 -1.91967 0.293651 0
M  V30 5543 O 524.101 -1.81323 -0.703718 0
M  V30 5544 C 524.384 -2.3005 2.77036 0
M  V30 5545 C 524.237 -1.66842 4.17713 0
M  V30 5546 C 525.556 -3.31509 2.89464 0
M  V30 5547 H 522.675 -0.450704 0.583125 0
M  V30 5548 H 525.317 -0.539673 1.82174 0
M  V30 5549 H 523.467 -2.90071 2.58439 0
M  V30 5550 H 525.139 -1.1055 4.47858 0
M  V30 5551 H 523.382 -0.972079 4.22768 0
M  V30 5552 H 524.053 -2.43576 4.95353 0
M  V30 5553 H 526.529 -2.81493 3.06433 0
M  V30 5554 H 525.405 -4.02822 3.72861 0
M  V30 5555 H 525.666 -3.94603 1.99351 0
M  V30 5556 N 524.725 -1.39134 -0.740242 0
M  V30 5557 C 525.688 -1.37217 -1.83587 0
M  V30 5558 C 526.688 -0.270221 -1.58513 0
M  V30 5559 O 527.878 -0.527843 -1.6601 0
M  V30 5560 C 525.01 -1.13959 -3.21288 0
M  V30 5561 H 526.203 -2.34705 -1.86691 0
M  V30 5562 H 523.756 -1.24622 -0.94335 0
M  V30 5563 H 524.491 -0.17131 -3.23847 0
M  V30 5564 H 524.276 -1.93754 -3.40884 0
M  V30 5565 H 525.766 -1.15346 -4.01354 0
M  V30 5566 N 526.204 0.969867 -1.24223 0
M  V30 5567 C 527.45 1.7151 -1.08223 0
M  V30 5568 C 527.783 1.90478 0.37838 0
M  V30 5569 O 527.058 1.4647 1.27971 0
M  V30 5570 C 527.341 3.10714 -1.82013 0
M  V30 5571 C 527.194 2.9925 -3.35811 0
M  V30 5572 C 528.513 4.10332 -1.59108 0
M  V30 5573 H 525.632 0.622499 -0.394543 0
M  V30 5574 H 528.274 1.1284 -1.52863 0
M  V30 5575 H 526.424 3.608 -1.44068 0
M  V30 5576 H 528.096 2.56608 -3.83341 0
M  V30 5577 H 526.339 2.35512 -3.64303 0
M  V30 5578 H 527.01 3.97857 -3.82641 0
M  V30 5579 H 529.486 3.69097 -1.92111 0
M  V30 5580 H 528.362 5.05804 -2.13198 0
M  V30 5581 H 528.623 4.38926 -0.528832 0
M  V30 5582 N 527.682 1.05563 1.17022 0
M  V30 5583 C 529.093 0.793475 1.69 0
M  V30 5584 C 529.444 -0.683882 1.83895 0
M  V30 5585 O 528.569 -1.53116 1.5292 0
M  V30 5586 C 529.164 1.43376 3.06967 0
M  V30 5587 C 527.723 1.21956 3.56095 0
M  V30 5588 C 526.87 1.51494 2.3226 0
M  V30 5589 H 529.821 1.22008 1.01487 0
M  V30 5590 H 529.842 0.845068 3.70997 0
M  V30 5591 H 529.354 2.50899 2.96093 0
M  V30 5592 H 527.455 0.163749 3.7224 0
M  V30 5593 H 527.568 1.92713 4.38633 0
M  V30 5594 H 525.932 0.935175 2.3691 0
M  V30 5595 H 526.715 2.60159 2.23992 0
M  V30 5596 N 529.16 -1.33526 0.837174 0
M  V30 5597 C 530.11 -2.2672 0.241269 0
M  V30 5598 C 531.094 -1.49183 -0.602756 0
M  V30 5599 O 532.286 -1.71052 -0.455002 0
M  V30 5600 C 529.415 -3.38294 -0.584125 0
M  V30 5601 C 528.501 -4.23231 0.271315 0
M  V30 5602 N 528.892 -4.87473 1.34922 0
M  V30 5603 C 527.19 -4.45962 0.0580589 0
M  V30 5604 C 527.891 -5.50685 1.87405 0
M  V30 5605 N 526.867 -5.30732 1.17578 0
M  V30 5606 H 530.669 -2.73903 1.06558 0
M  V30 5607 H 528.183 -1.47411 0.68145 0
M  V30 5608 H 530.18 -4.04044 -1.02731 0
M  V30 5609 H 528.84 -2.9266 -1.40643 0
M  V30 5610 H 529.851 -4.88077 1.7321 0
M  V30 5611 H 526.528 -4.11052 -0.730938 0
M  V30 5612 H 527.918 -6.11845 2.77661 0
M  V30 5613 N 530.638 -0.59345 -1.46 0
M  V30 5614 C 531.886 -0.082988 -2.0193 0
M  V30 5615 C 532.207 1.28569 -1.46612 0
M  V30 5616 O 531.477 1.84629 -0.654909 0
M  V30 5617 H 530.057 -0.0276882 -0.746487 0
M  V30 5618 H 532.719 -0.771657 -1.78973 0
M  V30 5619 H 531.815 -0.022079 -3.12092 0
M  V30 5620 N 532.116 1.54067 -0.331816 0
M  V30 5621 C 533.064 2.26105 0.54582 0
M  V30 5622 C 534.058 1.27816 1.11173 0
M  V30 5623 O 535.264 1.45565 1.05882 0
M  V30 5624 H 531.639 0.726363 0.194683 0
M  V30 5625 H 533.61 2.98282 -0.083931 0
M  V30 5626 C 532.359 3.03814 1.69092 0
M  V30 5627 H 531.682 3.79269 1.26473 0
M  V30 5628 H 533.122 3.57453 2.28043 0
M  V30 5629 C 531.581 2.12606 2.61343 0
M  V30 5630 O 532.111 1.71437 3.6328 0
M  V30 5631 N 530.317 1.77925 2.29763 0
M  V30 5632 H 529.864 2.11602 1.46909 0
M  V30 5633 H 529.822 1.1718 2.91747 0
M  V30 5634 N 533.594 0.0601682 1.57485 0
M  V30 5635 C 534.871 -0.651956 1.84415 0
M  V30 5636 C 535.251 -1.88498 0.950361 0
M  V30 5637 O 534.599 -2.28496 0.0136719 0
M  V30 5638 C 534.809 -1.00069 3.34346 0
M  V30 5639 C 536.157 -1.37915 4.01578 0
M  V30 5640 O 537.181 -1.09277 3.39024 0
M  V30 5641 O 536.04 -1.91399 5.11887 0
M  V30 5642 H 533.134 -0.322668 0.761455 0
M  V30 5643 H 535.68 0.0902159 1.6946 0
M  V30 5644 H 534.452 -0.124463 3.91102 0
M  V30 5645 H 534.075 -1.80001 3.54521 0
M  V30 5646 N 535.072 -1.5615 -0.213296 0
M  V30 5647 C 536.321 -1.78743 -0.93455 0
M  V30 5648 C 536.634 -0.630199 -1.8517 0
M  V30 5649 O 537.84 -0.739966 -2.61222 0
M  V30 5650 C 536.296 -3.16571 -1.71203 0
M  V30 5651 C 535.904 -4.40043 -0.840617 0
M  V30 5652 C 537.648 -3.48485 -2.42401 0
M  V30 5653 C 535.555 -5.68895 -1.61592 0
M  V30 5654 H 534.485 -0.666426 -0.352692 0
M  V30 5655 H 537.136 -1.82532 -0.188227 0
M  V30 5656 H 535.518 -3.06981 -2.50157 0
M  V30 5657 H 536.692 -4.6071 -0.0910326 0
M  V30 5658 H 535.007 -4.15706 -0.240365 0
M  V30 5659 H 537.604 -4.41983 -3.00924 0
M  V30 5660 H 537.947 -2.71371 -3.15695 0
M  V30 5661 H 538.48 -3.59442 -1.7043 0
M  V30 5662 H 535.219 -6.48925 -0.926106 0
M  V30 5663 H 534.739 -5.52275 -2.33991 0
M  V30 5664 H 536.418 -6.09365 -2.17447 0
M  V30 5665 N 536.55 0.480323 -1.50102 0
M  V30 5666 C 537.513 1.56181 -1.6775 0
M  V30 5667 C 538.513 1.51156 -0.548503 0
M  V30 5668 O 539.703 1.5394 -0.815363 0
M  V30 5669 C 536.835 2.95823 -1.69415 0
M  V30 5670 H 538.028 1.41855 -2.6423 0
M  V30 5671 H 535.581 0.70605 -1.39444 0
M  V30 5672 H 536.316 3.15604 -0.745948 0
M  V30 5673 H 536.101 3.00878 -2.51425 0
M  V30 5674 H 537.591 3.74359 -1.85054 0
M  V30 5675 N 538.028 1.39524 0.732853 0
M  V30 5676 C 539.253 1.40329 1.52717 0
M  V30 5677 C 539.678 0.000286574 1.881 0
M  V30 5678 O 539.036 -0.987262 1.52062 0
M  V30 5679 C 539.084 2.28464 2.78992 0
M  V30 5680 O 538.188 1.716 3.75003 0
M  V30 5681 H 537.529 0.47778 0.461109 0
M  V30 5682 H 540.059 1.83546 0.903996 0
M  V30 5683 H 540.069 2.43051 3.27705 0
M  V30 5684 H 538.744 3.30425 2.52572 0
M  V30 5685 H 537.321 1.66267 3.33781 0
M  V30 5686 N 539.506 -0.963266 1.24736 0
M  V30 5687 C 540.436 -2.07628 1.06832 0
M  V30 5688 C 541.417 -1.70088 -0.0200566 0
M  V30 5689 O 542.602 -1.93636 0.147854 0
M  V30 5690 C 539.732 -3.40636 0.677069 0
M  V30 5691 C 538.686 -3.9215 1.71471 0
M  V30 5692 C 538.012 -5.21553 1.1784 0
M  V30 5693 C 539.312 -4.19493 3.11164 0
M  V30 5694 H 541.006 -2.22864 1.9993 0
M  V30 5695 H 538.552 -1.07093 0.96266 0
M  V30 5696 H 540.505 -4.17941 0.538792 0
M  V30 5697 H 539.229 -3.25313 -0.289612 0
M  V30 5698 H 537.888 -3.17005 1.84128 0
M  V30 5699 H 537.536 -5.02593 0.202195 0
M  V30 5700 H 537.236 -5.56988 1.87185 0
M  V30 5701 H 538.76 -6.01463 1.05233 0
M  V30 5702 H 540.174 -4.87487 3.01711 0
M  V30 5703 H 538.571 -4.66165 3.77902 0
M  V30 5704 H 539.641 -3.26097 3.58871 0
M  V30 5705 N 540.985 -1.06182 -1.16461 0
M  V30 5706 C 542.232 -0.777863 -1.86964 0
M  V30 5707 C 542.56 0.695602 -1.81636 0
M  V30 5708 O 541.815 1.52532 -1.22607 0
M  V30 5709 C 542.114 -1.21633 -3.36066 0
M  V30 5710 C 541.78 -2.69371 -3.61594 0
M  V30 5711 C 540.442 -3.09727 -3.6827 0
M  V30 5712 C 542.794 -3.64791 -3.7226 0
M  V30 5713 C 540.122 -4.44345 -3.83112 0
M  V30 5714 C 542.474 -4.99155 -3.88623 0
M  V30 5715 C 541.138 -5.39149 -3.93541 0
M  V30 5716 H 540.408 -0.28464 -0.68415 0
M  V30 5717 H 543.055 -1.33071 -1.37711 0
M  V30 5718 H 541.36 -0.582651 -3.87443 0
M  V30 5719 H 543.057 -0.973682 -3.88999 0
M  V30 5720 H 539.647 -2.37124 -3.57029 0
M  V30 5721 H 543.831 -3.34746 -3.66413 0
M  V30 5722 H 539.087 -4.74819 -3.85172 0
M  V30 5723 H 543.261 -5.72976 -3.95817 0
M  V30 5724 H 540.888 -6.43464 -4.04794 0
M  V30 5725 N 542.463 1.3308 -0.844243 0
M  V30 5726 C 543.373 2.32876 -0.283922 0
M  V30 5727 C 544.389 1.63589 0.592846 0
M  V30 5728 O 545.565 1.95205 0.495693 0
M  V30 5729 C 542.63 3.42667 0.527283 0
M  V30 5730 C 541.691 4.27664 -0.374394 0
M  V30 5731 C 540.924 5.32212 0.39819 0
M  V30 5732 O 541.147 5.46635 1.62932 0
M  V30 5733 O 540.081 6.01458 -0.2306 0
M  V30 5734 H 543.907 2.82671 -1.11045 0
M  V30 5735 H 541.492 1.36518 -0.606903 0
M  V30 5736 H 543.374 4.09652 0.988078 0
M  V30 5737 H 542.049 2.95079 1.33078 0
M  V30 5738 H 540.956 3.63526 -0.883144 0
M  V30 5739 H 542.289 4.78749 -1.1428 0
M  V30 5740 N 543.941 0.601185 1.45683 0
M  V30 5741 C 544.871 -0.108824 2.33246 0
M  V30 5742 C 545.852 -0.865223 1.46451 0
M  V30 5743 O 547.037 -0.83704 1.75235 0
M  V30 5744 C 544.167 -1.11101 3.2905 0
M  V30 5745 C 543.121 -0.468244 4.25431 0
M  V30 5746 C 542.447 -1.57822 5.10878 0
M  V30 5747 C 543.747 0.606469 5.18767 0
M  V30 5748 H 545.441 0.622306 2.92861 0
M  V30 5749 H 542.987 0.300714 1.40825 0
M  V30 5750 H 544.94 -1.61622 3.89174 0
M  V30 5751 H 543.664 -1.87265 2.67581 0
M  V30 5752 H 542.323 0.0160484 3.66596 0
M  V30 5753 H 541.971 -2.32998 4.45781 0
M  V30 5754 H 541.671 -1.15369 5.76163 0
M  V30 5755 H 543.195 -2.08583 5.73869 0
M  V30 5756 H 544.609 0.185589 5.73 0
M  V30 5757 H 543.006 0.952381 5.92494 0
M  V30 5758 H 544.076 1.48559 4.61582 0
M  V30 5759 N 545.419 -1.53889 0.339982 0
M  V30 5760 C 546.696 -1.93084 -0.312719 0
M  V30 5761 C 547.076 -1.2712 -1.68534 0
M  V30 5762 O 546.424 -0.420835 -2.24591 0
M  V30 5763 C 546.634 -3.4683 -0.388558 0
M  V30 5764 C 547.982 -4.19732 -0.641088 0
M  V30 5765 O 549.006 -3.53075 -0.470818 0
M  V30 5766 O 547.865 -5.3781 -0.970685 0
M  V30 5767 H 544.959 -0.806784 -0.18174 0
M  V30 5768 H 547.505 -1.65137 0.390898 0
M  V30 5769 H 546.277 -3.87055 0.574821 0
M  V30 5770 H 545.9 -3.80933 -1.1391 0
M  V30 5771 N 546.897 -0.0685191 -1.57451 0
M  V30 5772 C 548.308 0.464634 -1.80826 0
M  V30 5773 C 548.659 1.69847 -0.982169 0
M  V30 5774 O 547.784 2.15439 -0.203734 0
M  V30 5775 C 548.379 0.849721 -3.27971 0
M  V30 5776 C 546.938 1.32776 -3.52204 0
M  V30 5777 C 546.085 0.311332 -2.75547 0
M  V30 5778 H 549.036 -0.294248 -1.55948 0
M  V30 5779 H 549.057 1.71138 -3.39841 0
M  V30 5780 H 548.569 -0.0484736 -3.8807 0
M  V30 5781 H 546.67 2.24456 -2.97406 0
M  V30 5782 H 546.783 1.30794 -4.60901 0
M  V30 5783 H 545.147 0.787915 -2.42206 0
M  V30 5784 H 545.93 -0.579078 -3.38381 0
M  V30 5785 N 548.375 1.56261 0.205012 0
M  V30 5786 C 549.603 1.84141 0.943386 0
M  V30 5787 C 550.018 0.649772 1.77266 0
M  V30 5788 O 549.375 -0.381612 1.78466 0
M  V30 5789 C 549.426 3.10719 1.84759 0
M  V30 5790 O 549.147 4.25286 1.05181 0
M  V30 5791 C 550.648 3.51706 2.69848 0
M  V30 5792 H 547.868 0.611734 0.275721 0
M  V30 5793 H 550.412 2.03364 0.215253 0
M  V30 5794 H 548.567 2.93422 2.52947 0
M  V30 5795 H 548.981 4.97301 1.66709 0
M  V30 5796 H 550.455 4.43266 3.28967 0
M  V30 5797 H 550.932 2.7423 3.43067 0
M  V30 5798 H 551.538 3.71499 2.07047 0
M  V30 5799 N 549.853 -0.472356 1.50355 0
M  V30 5800 C 551.081 -1.24784 1.65035 0
M  V30 5801 C 551.496 -1.85837 0.333176 0
M  V30 5802 O 550.853 -1.69168 -0.68472 0
M  V30 5803 C 550.904 -2.35747 2.74054 0
M  V30 5804 O 550.625 -1.77197 4.00665 0
M  V30 5805 C 552.126 -3.26645 2.99696 0
M  V30 5806 H 549.346 -0.377432 0.554785 0
M  V30 5807 H 551.89 -0.563962 1.9657 0
M  V30 5808 H 550.045 -2.99912 2.45217 0
M  V30 5809 H 550.459 -2.5026 4.60945 0
M  V30 5810 H 551.933 -4.00718 3.79644 0
M  V30 5811 H 552.41 -3.8535 2.10718 0
M  V30 5812 H 553.016 -2.68218 3.3006 0
M  V30 5813 N 551.331 -1.39911 -0.725443 0
M  V30 5814 C 552.261 -1.42138 -1.85254 0
M  V30 5815 C 553.242 -0.283513 -1.67721 0
M  V30 5816 O 554.427 -0.490717 -1.87898 0
M  V30 5817 C 551.557 -1.27354 -3.23107 0
M  V30 5818 C 550.511 -2.3864 -3.55296 0
M  V30 5819 C 549.837 -2.08939 -4.92188 0
M  V30 5820 C 551.137 -3.8097 -3.57295 0
M  V30 5821 H 552.831 -2.36461 -1.83648 0
M  V30 5822 H 550.377 -1.13817 -0.882138 0
M  V30 5823 H 552.33 -1.2753 -4.01639 0
M  V30 5824 H 551.054 -0.295025 -3.25265 0
M  V30 5825 H 549.713 -2.37696 -2.79099 0
M  V30 5826 H 549.361 -1.09502 -4.90936 0
M  V30 5827 H 549.061 -2.83491 -5.14691 0
M  V30 5828 H 550.585 -2.10781 -5.73065 0
M  V30 5829 H 551.999 -3.8379 -4.25885 0
M  V30 5830 H 550.396 -4.5496 -3.9132 0
M  V30 5831 H 551.466 -4.11261 -2.5689 0
M  V30 5832 N 552.809 0.956637 -1.25245 0
M  V30 5833 C 553.741 2.05628 -1.01242 0
M  V30 5834 C 554.754 1.62785 0.0219579 0
M  V30 5835 O 555.943 1.77184 -0.216365 0
M  V30 5836 C 553.043 3.35069 -0.508161 0
M  V30 5837 C 552.216 4.06761 -1.60823 0
M  V30 5838 C 551.275 5.14473 -1.1047 0
M  V30 5839 O 550.301 5.40033 -1.79868 0
M  V30 5840 N 551.503 5.80474 0.0550773 0
M  V30 5841 H 554.268 2.2679 -1.95925 0
M  V30 5842 H 551.829 1.12505 -1.16423 0
M  V30 5843 H 553.821 4.044 -0.155819 0
M  V30 5844 H 552.391 3.10694 0.344683 0
M  V30 5845 H 551.611 3.31555 -2.13224 0
M  V30 5846 H 552.899 4.51418 -2.34733 0
M  V30 5847 H 552.297 5.62125 0.635004 0
M  V30 5848 H 550.854 6.50868 0.348469 0
M  V30 5849 N 554.287 1.06798 1.15896 0
M  V30 5850 C 555.234 0.683314 2.20453 0
M  V30 5851 C 556.204 -0.32255 1.62938 0
M  V30 5852 O 557.389 -0.210276 1.89638 0
M  V30 5853 C 554.529 0.0813266 3.45004 0
M  V30 5854 C 553.642 1.13799 4.16742 0
M  V30 5855 C 552.777 0.501598 5.28826 0
M  V30 5856 C 551.816 1.54144 5.92373 0
M  V30 5857 N 550.953 0.928038 6.9594 0
M  V30 5858 H 555.793 1.57932 2.52708 0
M  V30 5859 H 553.33 0.789544 1.24115 0
M  V30 5860 H 555.288 -0.285274 4.16224 0
M  V30 5861 H 553.918 -0.77806 3.13283 0
M  V30 5862 H 552.97 1.62223 3.44075 0
M  V30 5863 H 554.282 1.92664 4.60089 0
M  V30 5864 H 553.436 0.0823162 6.06644 0
M  V30 5865 H 552.175 -0.318883 4.86656 0
M  V30 5866 H 551.18 1.97056 5.13273 0
M  V30 5867 H 552.405 2.3641 6.36621 0
M  V30 5868 H 550.351 0.12836 6.55874 0
M  V30 5869 H 550.268 1.65401 7.37685 0
M  V30 5870 H 551.536 0.534071 7.77668 0
M  V30 5871 N 555.766 -1.3263 0.851289 0
M  V30 5872 C 556.994 -2.01563 0.466899 0
M  V30 5873 C 557.409 -1.63996 -0.935447 0
M  V30 5874 O 556.766 -0.85957 -1.6099 0
M  V30 5875 C 556.817 -3.56613 0.592433 0
M  V30 5876 O 556.538 -3.92828 1.93954 0
M  V30 5877 C 558.039 -4.42818 0.206612 0
M  V30 5878 H 555.259 -0.645307 0.183902 0
M  V30 5879 H 557.803 -1.69285 1.1473 0
M  V30 5880 H 555.958 -3.87379 -0.0401936 0
M  V30 5881 H 556.372 -4.87545 1.9339 0
M  V30 5882 H 557.846 -5.50918 0.345462 0
M  V30 5883 H 558.323 -4.30844 -0.85264 0
M  V30 5884 H 558.929 -4.17434 0.814176 0
M  V30 5885 N 557.244 -0.608902 -1.45362 0
M  V30 5886 C 558.521 -0.0365378 -1.95566 0
M  V30 5887 C 558.901 1.43169 -1.55131 0
M  V30 5888 O 558.249 2.1349 -0.814513 0
M  V30 5889 C 558.459 -0.236026 -3.48201 0
M  V30 5890 C 559.807 -0.117518 -4.24437 0
M  V30 5891 O 560.831 -0.166217 -3.55812 0
M  V30 5892 O 559.69 -0.00372127 -5.465 0
M  V30 5893 H 556.784 0.0349874 -0.82626 0
M  V30 5894 H 559.33 -0.679055 -1.55521 0
M  V30 5895 H 558.102 -1.25569 -3.70605 0
M  V30 5896 H 557.725 0.441691 -3.95139 0
M  V30 5897 N 558.722 1.53707 -0.348139 0
M  V30 5898 C 559.947 2.05877 0.250883 0
M  V30 5899 C 560.372 1.22115 1.43072 0
M  V30 5900 O 559.73 0.235986 1.79758 0
M  V30 5901 C 559.778 3.54886 0.639416 0
M  V30 5902 O 558.882 3.73948 1.73888 0
M  V30 5903 H 558.223 0.662754 0.040653 0
M  V30 5904 H 560.753 1.98303 -0.503685 0
M  V30 5905 H 560.763 3.97601 0.915295 0
M  V30 5906 H 559.438 4.153 -0.223386 0
M  V30 5907 H 558.015 3.43134 1.45991 0
M  V30 5908 N 560.2 0.0768682 1.57412 0
M  V30 5909 C 561.447 -0.591085 1.93681 0
M  V30 5910 C 561.775 -1.69311 0.957286 0
M  V30 5911 O 561.03 -1.95682 -0.0262428 0
M  V30 5912 C 561.329 -1.20268 3.36557 0
M  V30 5913 C 560.995 -0.226286 4.50332 0
M  V30 5914 C 559.657 0.0423142 4.81181 0
M  V30 5915 C 562.009 0.441415 5.19327 0
M  V30 5916 C 559.337 0.985616 5.78362 0
M  V30 5917 C 561.689 1.37307 6.17519 0
M  V30 5918 C 560.353 1.65009 6.46783 0
M  V30 5919 H 559.623 -0.216293 0.70873 0
M  V30 5920 H 562.27 0.148824 1.90921 0
M  V30 5921 H 560.575 -2.01844 3.35807 0
M  V30 5922 H 562.272 -1.72688 3.61911 0
M  V30 5923 H 558.862 -0.445821 4.26275 0
M  V30 5924 H 563.046 0.247023 4.95685 0
M  V30 5925 H 558.302 1.20743 5.99359 0
M  V30 5926 H 562.476 1.89637 6.70083 0
M  V30 5927 H 560.103 2.38263 7.21897 0
M  V30 5928 N 561.678 -1.56367 -0.196722 0
M  V30 5929 C 562.924 -1.80796 -0.918725 0
M  V30 5930 C 563.257 -0.650645 -1.82976 0
M  V30 5931 O 562.532 0.348889 -1.91345 0
M  V30 5932 C 562.815 -3.15472 -1.73636 0
M  V30 5933 C 562.668 -4.41693 -0.85015 0
M  V30 5934 C 563.987 -3.46824 -2.70927 0
M  V30 5935 H 561.106 -0.657702 -0.332561 0
M  V30 5936 H 563.748 -1.89086 -0.186186 0
M  V30 5937 H 561.898 -3.08536 -2.36088 0
M  V30 5938 H 563.57 -4.60673 -0.240459 0
M  V30 5939 H 561.813 -4.33517 -0.156785 0
M  V30 5940 H 562.484 -5.32419 -1.45719 0
M  V30 5941 H 564.96 -3.54049 -2.18607 0
M  V30 5942 H 563.836 -4.4218 -3.25219 0
M  V30 5943 H 564.097 -2.70236 -3.49893 0
M  V30 5944 N 563.156 0.464375 -1.50603 0
M  V30 5945 C 564.567 1.04507 -1.5471 0
M  V30 5946 C 564.918 1.9297 -0.354542 0
M  V30 5947 O 564.043 2.09763 0.531812 0
M  V30 5948 C 564.638 1.90207 -2.80369 0
M  V30 5949 C 563.197 2.43373 -2.87135 0
M  V30 5950 C 562.344 1.21886 -2.49076 0
M  V30 5951 H 565.295 0.246716 -1.56771 0
M  V30 5952 H 565.316 2.75353 -2.62604 0
M  V30 5953 H 564.828 1.25796 -3.67147 0
M  V30 5954 H 562.929 3.11318 -2.04724 0
M  V30 5955 H 563.042 2.7802 -3.90181 0
M  V30 5956 H 561.406 1.55575 -2.01664 0
M  V30 5957 H 562.189 0.591268 -3.3817 0
M  V30 5958 N 564.634 1.40294 0.718013 0
M  V30 5959 C 566.05 1.2227 1.02577 0
M  V30 5960 C 566.25 0.0961976 2.0127 0
M  V30 5961 O 565.306 -0.546695 2.46511 0
M  V30 5962 C 566.619 2.56348 1.57182 0
M  V30 5963 C 568.167 2.6334 1.69178 0
M  V30 5964 C 568.642 3.9768 2.27188 0
M  V30 5965 N 570.133 3.99409 2.34578 0
M  V30 5966 C 570.868 5.00141 2.8044 0
M  V30 5967 N 570.364 6.11268 3.26073 0
M  V30 5968 N 572.157 4.87511 2.79802 0
M  V30 5969 H 564.308 2.12304 0.0637899 0
M  V30 5970 H 566.571 0.943632 0.0909036 0
M  V30 5971 H 566.277 3.3942 0.921262 0
M  V30 5972 H 566.151 2.77266 2.55741 0
M  V30 5973 H 568.538 1.80641 2.33351 0
M  V30 5974 H 568.619 2.46255 0.692247 0
M  V30 5975 H 568.263 4.80817 1.63638 0
M  V30 5976 H 568.193 4.12093 3.27852 0
M  V30 5977 H 570.684 3.19162 2.02346 0
M  V30 5978 H 570.997 6.84023 3.59628 0
M  V30 5979 H 569.342 6.14837 3.24038 0
M  V30 5980 H 572.533 3.9979 2.43487 0
M  V30 5981 H 572.706 5.66158 3.15228 0
M  V30 5982 N 566.112 -0.949982 1.2575 0
M  V30 5983 C 567.06 -2.06869 1.06339 0
M  V30 5984 C 568.054 -1.69399 -0.00708901 0
M  V30 5985 O 569.26 -1.79383 0.148897 0
M  V30 5986 H 565.635 -0.677197 0.326969 0
M  V30 5987 H 567.606 -2.20396 2.01167 0
M  V30 5988 C 566.355 -3.40503 0.703769 0
M  V30 5989 H 565.678 -3.69807 1.51931 0
M  V30 5990 H 567.118 -4.19623 0.607677 0
M  V30 5991 C 565.577 -3.31685 -0.5905 0
M  V30 5992 O 566.107 -3.67085 -1.63131 0
M  V30 5993 N 564.313 -2.84797 -0.577859 0
M  V30 5994 H 563.86 -2.56186 0.26951 0
M  V30 5995 H 563.818 -2.79279 -1.44398 0
M  V30 5996 N 567.59 -1.07411 -1.15328 0
M  V30 5997 C 568.815 -0.818856 -1.90551 0
M  V30 5998 C 569.24 0.622194 -1.77512 0
M  V30 5999 O 568.598 1.43484 -1.10824 0
M  V30 6000 C 568.646 -1.23267 -3.38877 0
M  V30 6001 O 567.75 -0.378345 -4.10661 0
M  V30 6002 H 567.091 -0.29827 -0.593238 0
M  V30 6003 H 569.621 -1.43289 -1.46046 0
M  V30 6004 H 569.631 -1.20912 -3.89672 0
M  V30 6005 H 568.306 -2.28226 -3.47686 0
M  V30 6006 H 566.883 -0.464437 -3.69996 0
M  V30 6007 N 569.068 1.32177 -0.85831 0
M  V30 6008 C 570.298 2.01021 -0.476889 0
M  V30 6009 C 570.706 1.64653 0.931995 0
M  V30 6010 O 570.049 0.865713 1.62022 0
M  V30 6011 C 570.111 3.55413 -0.540528 0
M  V30 6012 C 569.775 4.1522 -1.90895 0
M  V30 6013 C 570.772 4.3318 -2.87491 0
M  V30 6014 C 568.457 4.51212 -2.20709 0
M  V30 6015 C 570.451 4.86306 -4.1205 0
M  V30 6016 C 568.138 5.04042 -3.45521 0
M  V30 6017 C 569.136 5.21538 -4.41007 0
M  V30 6018 O 568.824 5.73238 -5.63608 0
M  V30 6019 H 568.556 0.650059 -0.18547 0
M  V30 6020 H 571.11 1.69648 -1.15796 0
M  V30 6021 H 569.34 3.86196 0.19741 0
M  V30 6022 H 571.029 4.05526 -0.174191 0
M  V30 6023 H 571.795 4.05704 -2.65762 0
M  V30 6024 H 567.674 4.36878 -1.4717 0
M  V30 6025 H 571.218 4.99877 -4.86589 0
M  V30 6026 H 567.115 5.30952 -3.67098 0
M  V30 6027 H 567.883 5.91625 -5.65617 0
M  V30 6028 N 570.547 0.616602 1.45037 0
M  V30 6029 C 571.793 0.115501 2.02471 0
M  V30 6030 C 572.126 -1.25406 1.4828 0
M  V30 6031 O 571.401 -1.82922 0.661051 0
M  V30 6032 C 571.684 0.0863588 3.59996 0
M  V30 6033 C 571.537 1.48723 4.24501 0
M  V30 6034 C 572.856 -0.596762 4.36035 0
M  V30 6035 H 569.975 0.0434461 0.735718 0
M  V30 6036 H 572.617 0.7903 1.72784 0
M  V30 6037 H 570.767 -0.488277 3.85419 0
M  V30 6038 H 572.439 2.10964 4.10234 0
M  V30 6039 H 570.682 2.04534 3.82555 0
M  V30 6040 H 571.353 1.419 5.3345 0
M  V30 6041 H 573.829 -0.10824 4.15959 0
M  V30 6042 H 572.705 -0.586289 5.4576 0
M  V30 6043 H 572.966 -1.66451 4.09569 0
M  V30 6044 N 572.025 -1.5352 0.356285 0
M  V30 6045 C 573.441 -1.59599 0.00485267 0
M  V30 6046 C 573.641 -1.37179 -1.47595 0
M  V30 6047 O 572.697 -1.17234 -2.23635 0
M  V30 6048 C 574.01 -2.97277 0.452454 0
M  V30 6049 C 575.558 -3.10357 0.405881 0
M  V30 6050 C 576.033 -4.50432 0.829148 0
M  V30 6051 N 577.524 -4.5652 0.783838 0
M  V30 6052 C 578.259 -5.63077 1.08315 0
M  V30 6053 N 577.755 -6.77429 1.45126 0
M  V30 6054 N 579.548 -5.53014 1.00655 0
M  V30 6055 H 571.699 -1.66346 1.32071 0
M  V30 6056 H 573.962 -0.77971 0.539218 0
M  V30 6057 H 573.668 -3.18792 1.48542 0
M  V30 6058 H 573.542 -3.76836 -0.165762 0
M  V30 6059 H 575.929 -2.88558 -0.617934 0
M  V30 6060 H 576.01 -2.32828 1.05947 0
M  V30 6061 H 575.654 -4.72968 1.85103 0
M  V30 6062 H 575.584 -5.26378 0.152906 0
M  V30 6063 H 578.075 -3.74408 0.512513 0
M  V30 6064 H 578.388 -7.54669 1.66415 0
M  V30 6065 H 576.733 -6.78844 1.48983 0
M  V30 6066 H 579.924 -4.62557 0.718215 0
M  V30 6067 H 580.097 -6.35964 1.24315 0
M  V30 6068 N 573.503 -0.0852151 -1.57369 0
M  V30 6069 C 574.433 0.874556 -2.16503 0
M  V30 6070 C 575.414 1.30111 -1.09568 0
M  V30 6071 O 576.599 1.36977 -1.37662 0
M  V30 6072 C 573.729 2.13731 -2.73745 0
M  V30 6073 C 572.683 1.84971 -3.85966 0
M  V30 6074 C 572.009 3.17991 -4.29867 0
M  V30 6075 C 573.309 1.14442 -5.09608 0
M  V30 6076 H 575.003 0.381899 -2.96954 0
M  V30 6077 H 572.549 0.18225 -1.42842 0
M  V30 6078 H 574.502 2.81302 -3.13763 0
M  V30 6079 H 573.226 2.65263 -1.90534 0
M  V30 6080 H 571.885 1.19801 -3.46473 0
M  V30 6081 H 571.533 3.6739 -3.4356 0
M  V30 6082 H 571.233 2.99534 -5.05523 0
M  V30 6083 H 572.757 3.86737 -4.72511 0
M  V30 6084 H 574.171 1.72105 -5.46857 0
M  V30 6085 H 572.568 1.06197 -5.90629 0
M  V30 6086 H 573.638 0.12559 -4.84737 0
M  V30 6087 N 574.981 1.5647 0.188427 0
M  V30 6088 C 576.397 1.50204 0.539532 0
M  V30 6089 C 576.597 0.78644 1.85519 0
M  V30 6090 O 575.653 0.339714 2.50204 0
M  V30 6091 C 576.966 2.94893 0.588103 0
M  V30 6092 C 578.514 3.05602 0.67648 0
M  V30 6093 C 578.989 4.51716 0.756101 0
M  V30 6094 N 580.48 4.55894 0.819451 0
M  V30 6095 C 581.215 5.66272 0.90134 0
M  V30 6096 N 580.711 6.86323 0.945118 0
M  V30 6097 N 582.504 5.54201 0.939043 0
M  V30 6098 H 574.655 2.01406 -0.674493 0
M  V30 6099 H 576.918 0.916828 -0.241103 0
M  V30 6100 H 576.624 3.50334 -0.309633 0
M  V30 6101 H 576.498 3.4861 1.44051 0
M  V30 6102 H 578.885 2.50206 1.56465 0
M  V30 6103 H 578.966 2.54999 -0.202262 0
M  V30 6104 H 578.61 5.07739 -0.12774 0
M  V30 6105 H 578.54 5.00058 1.65074 0
M  V30 6106 H 581.031 3.69452 0.794594 0
M  V30 6107 H 581.344 7.66194 1.0083 0
M  V30 6108 H 579.689 6.88968 0.913683 0
M  V30 6109 H 582.88 4.59333 0.901725 0
M  V30 6110 H 583.053 6.40247 0.999402 0
M  V30 6111 N 576.459 -0.456382 1.50847 0
M  V30 6112 C 577.409 -1.55045 1.67168 0
M  V30 6113 C 578.393 -1.52061 0.525958 0
M  V30 6114 O 579.585 -1.58836 0.781036 0
M  V30 6115 C 576.714 -2.93386 1.78268 0
M  V30 6116 C 575.8 -3.01198 2.98564 0
M  V30 6117 N 576.191 -2.78792 4.22029 0
M  V30 6118 C 574.489 -3.32346 2.97426 0
M  V30 6119 C 575.19 -2.91953 5.03128 0
M  V30 6120 N 574.166 -3.22797 4.37382 0
M  V30 6121 H 577.968 -1.36444 2.60308 0
M  V30 6122 H 575.482 -0.663375 1.48233 0
M  V30 6123 H 577.479 -3.72071 1.88067 0
M  V30 6124 H 576.139 -3.13022 0.862965 0
M  V30 6125 H 577.15 -2.54087 4.51287 0
M  V30 6126 H 573.827 -3.57877 2.15012 0
M  V30 6127 H 575.217 -2.78745 6.11351 0
M  V30 6128 N 577.937 -1.40673 -0.710563 0
M  V30 6129 C 578.867 -1.44095 -1.83736 0
M  V30 6130 C 579.848 -0.301286 -1.67411 0
M  V30 6131 O 581.033 -0.510618 -1.87367 0
M  V30 6132 C 578.163 -1.30773 -3.21738 0
M  V30 6133 C 577.117 -2.42395 -3.52745 0
M  V30 6134 C 576.443 -2.14147 -4.89944 0
M  V30 6135 C 577.743 -3.84738 -3.53234 0
M  V30 6136 H 579.437 -2.38396 -1.81129 0
M  V30 6137 H 576.983 -1.14746 -0.870017 0
M  V30 6138 H 578.936 -1.31783 -4.00264 0
M  V30 6139 H 577.66 -0.329507 -3.24934 0
M  V30 6140 H 576.319 -2.40643 -2.76562 0
M  V30 6141 H 575.967 -1.14703 -4.89747 0
M  V30 6142 H 575.667 -2.88934 -5.11655 0
M  V30 6143 H 577.191 -2.16848 -5.70797 0
M  V30 6144 H 578.605 -3.88286 -4.2179 0
M  V30 6145 H 577.002 -4.59085 -3.86473 0
M  V30 6146 H 578.072 -4.13962 -2.52514 0
M  V30 6147 N 579.415 0.9433 -1.26252 0
M  V30 6148 C 580.655 1.70397 -1.1289 0
M  V30 6149 C 581.019 1.89268 0.322713 0
M  V30 6150 O 582.22 2.62503 0.578418 0
M  V30 6151 C 580.491 3.04296 -1.87453 0
M  V30 6152 S 582.05 3.95475 -1.90119 0
M  V30 6153 H 578.868 0.585559 -0.403289 0
M  V30 6154 H 581.47 1.12424 -1.59941 0
M  V30 6155 H 580.174 2.8824 -2.9214 0
M  V30 6156 H 579.705 3.67327 -1.40835 0
M  V30 6157 H 581.72 4.86297 -0.986373 0
M  V30 6158 N 580.893 1.08022 1.14757 0
M  V30 6159 C 582.121 0.828847 1.89572 0
M  V30 6160 C 582.536 -0.618621 1.78377 0
M  V30 6161 O 581.893 -1.42482 1.1404 0
M  V30 6162 C 581.944 1.23677 3.39685 0
M  V30 6163 O 581.665 2.62746 3.50566 0
M  V30 6164 C 583.166 1.01569 4.31507 0
M  V30 6165 H 580.386 0.299196 0.600602 0
M  V30 6166 H 582.93 1.43846 1.45357 0
M  V30 6167 H 581.085 0.671347 3.81539 0
M  V30 6168 H 581.499 2.79573 4.43778 0
M  V30 6169 H 582.973 1.35055 5.35223 0
M  V30 6170 H 583.45 -0.0475433 4.39174 0
M  V30 6171 H 584.056 1.56636 3.95405 0
M  V30 6172 N 582.371 -1.3172 0.865308 0
M  V30 6173 C 583.319 -2.30569 0.306674 0
M  V30 6174 C 584.313 -1.59317 -0.575724 0
M  V30 6175 O 585.519 -1.73961 -0.462343 0
M  V30 6176 H 581.894 -0.747681 0.0804834 0
M  V30 6177 H 583.865 -2.75165 1.15441 0
M  V30 6178 C 582.614 -3.44358 -0.480952 0
M  V30 6179 H 581.937 -3.99354 0.18876 0
M  V30 6180 H 583.377 -4.15652 -0.837241 0
M  V30 6181 C 581.836 -2.92574 -1.67039 0
M  V30 6182 O 582.366 -2.90954 -2.76964 0
M  V30 6183 N 580.572 -2.48835 -1.50097 0
M  V30 6184 H 580.119 -2.50353 -0.606738 0
M  V30 6185 H 580.077 -2.14543 -2.29823 0
M  V30 6186 N 583.85 -0.624285 -1.44708 0
M  V30 6187 C 585.077 -0.132919 -2.06473 0
M  V30 6188 C 585.493 1.18967 -1.46602 0
M  V30 6189 O 584.85 1.72824 -0.586341 0
M  V30 6190 C 584.901 -0.00465418 -3.615 0
M  V30 6191 O 584.622 -1.27494 -4.19138 0
M  V30 6192 C 586.123 0.516213 -4.40284 0
M  V30 6193 H 583.343 -0.0765201 -0.666623 0
M  V30 6194 H 585.887 -0.856751 -1.85688 0
M  V30 6195 H 584.042 0.669583 -3.8157 0
M  V30 6196 H 584.456 -1.11536 -5.12504 0
M  V30 6197 H 585.93 0.554994 -5.49203 0
M  V30 6198 H 586.407 1.5419 -4.11245 0
M  V30 6199 H 587.013 -0.124542 -4.25118 0
M  V30 6200 N 585.328 1.53329 -0.364422 0
M  V30 6201 C 586.574 2.02222 0.21855 0
M  V30 6202 C 586.929 1.24702 1.46517 0
M  V30 6203 O 586.222 0.331969 1.88702 0
M  V30 6204 C 586.416 3.52911 0.564661 0
M  V30 6205 C 586.245 4.45023 -0.646862 0
M  V30 6206 C 585.015 4.91838 -1.15858 0
M  V30 6207 C 587.213 4.91581 -1.51172 0
M  V30 6208 N 585.195 5.67955 -2.33025 0
M  V30 6209 C 586.566 5.66028 -2.53006 0
M  V30 6210 C 588.621 4.73656 -1.53473 0
M  V30 6211 C 587.324 6.24457 -3.56996 0
M  V30 6212 C 589.35 5.3295 -2.56356 0
M  V30 6213 C 588.712 6.07282 -3.56914 0
M  V30 6214 H 584.811 0.780832 0.0427199 0
M  V30 6215 H 587.395 1.87937 -0.508704 0
M  V30 6216 H 585.566 3.6736 1.26099 0
M  V30 6217 H 587.298 3.88528 1.13262 0
M  V30 6218 H 584.053 4.68043 -0.723393 0
M  V30 6219 H 584.477 6.10675 -2.92241 0
M  V30 6220 H 589.119 4.15714 -0.770842 0
M  V30 6221 H 586.837 6.81496 -4.34268 0
M  V30 6222 H 590.423 5.20976 -2.58989 0
M  V30 6223 H 589.303 6.52345 -4.35218 0
M  V30 6224 N 586.806 0.0935595 1.57322 0
M  V30 6225 C 588.055 -0.570191 1.93473 0
M  V30 6226 C 588.368 -1.69434 0.977318 0
M  V30 6227 O 589.574 -2.41914 1.23248 0
M  V30 6228 C 588.03 -1.06564 3.43762 0
M  V30 6229 C 587.638 0.0286723 4.47991 0
M  V30 6230 C 589.382 -1.70221 3.88877 0
M  V30 6231 C 587.289 -0.482046 5.89432 0
M  V30 6232 H 586.219 -0.216764 0.72217 0
M  V30 6233 H 588.87 0.169313 1.82717 0
M  V30 6234 H 587.252 -1.85878 3.49664 0
M  V30 6235 H 588.426 0.804106 4.5373 0
M  V30 6236 H 586.741 0.570336 4.12476 0
M  V30 6237 H 589.338 -2.09502 4.91948 0
M  V30 6238 H 589.681 -2.57078 3.27439 0
M  V30 6239 H 590.214 -0.974919 3.85668 0
M  V30 6240 H 586.953 0.349871 6.54566 0
M  V30 6241 H 586.473 -1.22452 5.87167 0
M  V30 6242 H 588.152 -0.951508 6.39965 0
M  V30 6243 N 588.284 -1.56567 -0.180126 0
M  V30 6244 C 589.216 -1.92275 -1.24751 0
M  V30 6245 C 590.229 -0.814922 -1.40936 0
M  V30 6246 O 591.418 -1.09336 -1.41095 0
M  V30 6247 C 588.518 -2.15265 -2.61752 0
M  V30 6248 C 587.691 -3.46467 -2.66981 0
M  V30 6249 C 586.75 -3.58391 -3.85283 0
M  V30 6250 O 585.776 -4.31086 -3.7169 0
M  V30 6251 N 586.978 -2.92587 -5.01371 0
M  V30 6252 H 589.743 -2.84435 -0.944302 0
M  V30 6253 H 587.304 -1.57617 -0.369952 0
M  V30 6254 H 589.296 -2.20515 -3.39345 0
M  V30 6255 H 587.866 -1.29533 -2.845 0
M  V30 6256 H 587.086 -3.52953 -1.75549 0
M  V30 6257 H 588.374 -4.32819 -2.67479 0
M  V30 6258 H 587.772 -2.3338 -5.15316 0
M  V30 6259 H 586.329 -3.03444 -5.76858 0
M  V30 6260 N 589.762 0.448376 -1.51087 0
M  V30 6261 C 590.987 1.22605 -1.6728 0
M  V30 6262 C 591.412 1.84524 -0.365045 0
M  V30 6263 O 590.77 1.6832 0.673642 0
M  V30 6264 C 590.818 2.29393 -2.78229 0
M  V30 6265 O 589.922 3.34608 -2.41063 0
M  V30 6266 H 589.263 0.359705 -0.558129 0
M  V30 6267 H 591.793 0.530903 -1.97592 0
M  V30 6268 H 591.803 2.74352 -3.01986 0
M  V30 6269 H 590.478 1.83701 -3.73131 0
M  V30 6270 H 589.055 2.95202 -2.27838 0
M  V30 6271 N 591.24 1.41047 0.703093 0
M  V30 6272 C 592.468 1.4334 1.49202 0
M  V30 6273 C 592.883 0.0365596 1.88765 0
M  V30 6274 O 592.24 -0.942419 1.56284 0
M  V30 6275 C 592.291 2.33538 2.75939 0
M  V30 6276 O 592.012 3.67786 2.38045 0
M  V30 6277 C 593.513 2.44555 3.6974 0
M  V30 6278 H 590.733 0.488472 0.460039 0
M  V30 6279 H 593.277 1.85245 0.86629 0
M  V30 6280 H 591.432 1.94962 3.34766 0
M  V30 6281 H 591.846 4.15816 3.19683 0
M  V30 6282 H 593.32 3.11849 4.55471 0
M  V30 6283 H 593.797 1.47447 4.1371 0
M  V30 6284 H 594.403 2.83735 3.16819 0
M  V30 6285 N 592.718 -0.936591 1.26751 0
M  V30 6286 C 593.666 -2.0573 1.08527 0
M  V30 6287 C 594.66 -1.69397 0.0108784 0
M  V30 6288 O 595.866 -1.79215 0.167915 0
M  V30 6289 H 592.241 -0.673691 0.334133 0
M  V30 6290 H 594.212 -2.1825 2.03493 0
M  V30 6291 C 592.961 -3.39738 0.739845 0
M  V30 6292 H 592.284 -3.68174 1.55845 0
M  V30 6293 H 593.724 -4.18955 0.652149 0
M  V30 6294 C 592.183 -3.32292 -0.555288 0
M  V30 6295 O 592.713 -3.68794 -1.59229 0
M  V30 6296 N 590.919 -2.85394 -0.54762 0
M  V30 6297 H 590.466 -2.55886 0.296667 0
M  V30 6298 H 590.424 -2.80795 -1.41427 0
M  V30 6299 N 594.196 -1.08629 -1.14182 0
M  V30 6300 C 595.442 -0.818556 -1.85546 0
M  V30 6301 C 595.775 0.654076 -1.82854 0
M  V30 6302 O 595.05 1.48099 -1.26083 0
M  V30 6303 C 595.333 -1.34397 -3.3408 0
M  V30 6304 C 595.186 -2.8821 -3.45333 0
M  V30 6305 C 596.505 -0.971069 -4.29253 0
M  V30 6306 H 593.624 -0.298821 -0.673702 0
M  V30 6307 H 596.266 -1.34629 -1.34071 0
M  V30 6308 H 594.416 -0.895064 -3.78049 0
M  V30 6309 H 596.088 -3.41488 -3.10134 0
M  V30 6310 H 594.331 -3.25756 -2.86471 0
M  V30 6311 H 595.002 -3.20047 -4.49749 0
M  V30 6312 H 597.478 -1.35809 -3.93313 0
M  V30 6313 H 596.354 -1.36586 -5.31635 0
M  V30 6314 H 596.615 0.121659 -4.41933 0
M  V30 6315 N 595.674 1.31259 -0.872281 0
M  V30 6316 C 597.085 1.78822 -0.536617 0
M  V30 6317 C 597.436 1.71855 0.946594 0
M  V30 6318 O 596.561 1.28769 1.73918 0
M  V30 6319 C 597.156 3.24698 -0.967294 0
M  V30 6320 C 595.715 3.70147 -0.683251 0
M  V30 6321 C 594.862 2.51994 -1.15733 0
M  V30 6322 H 597.813 1.18308 -1.05777 0
M  V30 6323 H 597.834 3.79386 -0.290929 0
M  V30 6324 H 597.346 3.29737 -2.04683 0
M  V30 6325 H 595.447 3.70607 0.384825 0
M  V30 6326 H 595.56 4.62183 -1.2619 0
M  V30 6327 H 593.924 2.48078 -0.577024 0
M  V30 6328 H 594.707 2.59778 -2.24434 0
M  V30 6329 N 597.152 0.631951 1.44375 0
M  V30 6330 C 598.401 0.134214 2.01253 0
M  V30 6331 C 598.714 -1.25171 1.50305 0
M  V30 6332 O 599.92 -1.8435 1.99317 0
M  V30 6333 C 598.376 0.189187 3.59402 0
M  V30 6334 C 597.984 1.57647 4.19346 0
M  V30 6335 C 599.728 -0.252044 4.23751 0
M  V30 6336 C 597.635 1.58651 5.69722 0
M  V30 6337 H 596.565 0.0464101 0.75257 0
M  V30 6338 H 599.216 0.790868 1.65582 0
M  V30 6339 H 597.598 -0.534584 3.92375 0
M  V30 6340 H 598.772 2.32389 3.97909 0
M  V30 6341 H 597.087 1.96186 3.67288 0
M  V30 6342 H 599.684 -0.264084 5.34047 0
M  V30 6343 H 600.027 -1.27951 3.96149 0
M  V30 6344 H 600.56 0.41926 3.95584 0
M  V30 6345 H 597.299 2.59237 6.0206 0
M  V30 6346 H 596.819 0.882039 5.93279 0
M  V30 6347 H 598.498 1.32082 6.33375 0
M  V30 6348 N 598.631 -1.53133 0.372548 0
M  V30 6349 C 599.908 -1.93704 -0.271693 0
M  V30 6350 C 600.288 -1.30667 -1.65799 0
M  V30 6351 O 599.636 -0.46838 -2.23648 0
M  V30 6352 C 599.846 -3.47576 -0.314903 0
M  V30 6353 C 601.194 -4.20998 -0.551912 0
M  V30 6354 O 602.218 -3.53994 -0.39582 0
M  V30 6355 O 601.077 -5.39748 -0.85639 0
M  V30 6356 H 598.171 -0.810457 -0.164586 0
M  V30 6357 H 600.717 -1.6427 0.425838 0
M  V30 6358 H 599.489 -3.85749 0.656792 0
M  V30 6359 H 599.112 -3.83264 -1.05804 0
M  V30 6360 N 600.109 -0.101901 -1.5727 0
M  V30 6361 C 601.358 0.559922 -1.93772 0
M  V30 6362 C 601.671 1.68913 -0.98629 0
M  V30 6363 O 602.877 2.41256 -1.24529 0
M  V30 6364 C 601.333 1.04739 -3.44322 0
M  V30 6365 C 600.941 -0.05243 -4.47969 0
M  V30 6366 C 602.685 1.68157 -3.89774 0
M  V30 6367 C 600.592 0.450781 -5.8968 0
M  V30 6368 H 599.522 0.212931 -0.723309 0
M  V30 6369 H 602.173 -0.179001 -1.82625 0
M  V30 6370 H 600.555 1.84021 -3.50645 0
M  V30 6371 H 601.729 -0.828157 -4.53297 0
M  V30 6372 H 600.044 -0.592202 -4.12167 0
M  V30 6373 H 602.641 2.0689 -4.93052 0
M  V30 6374 H 602.984 2.55338 -3.28798 0
M  V30 6375 H 603.517 0.954453 -3.8618 0
M  V30 6376 H 600.256 -0.38458 -6.54371 0
M  V30 6377 H 599.776 1.19336 -5.87809 0
M  V30 6378 H 601.455 0.917555 -6.40461 0
M  V30 6379 N 601.587 1.56661 0.17182 0
M  V30 6380 C 602.497 1.99604 1.2327 0
M  V30 6381 C 603.513 0.907333 1.4847 0
M  V30 6382 O 604.689 1.21492 1.60629 0
M  V30 6383 C 601.754 2.34685 2.55194 0
M  V30 6384 C 600.815 3.57381 2.3786 0
M  V30 6385 C 600.048 3.90779 3.63494 0
M  V30 6386 O 600.271 3.25152 4.6865 0
M  V30 6387 O 599.205 4.84129 3.57634 0
M  V30 6388 H 603.031 2.90114 0.898192 0
M  V30 6389 H 600.616 1.44522 0.378647 0
M  V30 6390 H 602.498 2.5822 3.33017 0
M  V30 6391 H 601.173 1.47336 2.88225 0
M  V30 6392 H 600.08 3.39064 1.5807 0
M  V30 6393 H 601.413 4.45268 2.09754 0
M  V30 6394 N 603.065 -0.440357 1.51323 0
M  V30 6395 C 603.975 -1.55955 1.75258 0
M  V30 6396 C 604.991 -1.61933 0.636687 0
M  V30 6397 O 606.167 -1.79231 0.918593 0
M  V30 6398 C 603.232 -2.9196 1.86977 0
M  V30 6399 C 602.293 -2.96122 3.10822 0
M  V30 6400 C 601.526 -4.2564 3.21973 0
M  V30 6401 O 601.749 -5.17851 2.39137 0
M  V30 6402 O 600.683 -4.36025 4.14929 0
M  V30 6403 H 604.509 -1.38673 2.70191 0
M  V30 6404 H 602.094 -0.623055 1.35788 0
M  V30 6405 H 603.976 -3.72682 1.96688 0
M  V30 6406 H 602.651 -3.09375 0.952307 0
M  V30 6407 H 601.558 -2.14366 3.06591 0
M  V30 6408 H 602.891 -2.83651 4.02247 0
M  V30 6409 N 604.543 -1.41418 -0.695603 0
M  V30 6410 C 605.453 -1.45622 -1.83933 0
M  V30 6411 C 606.469 -0.346825 -1.70508 0
M  V30 6412 O 607.645 -0.59454 -1.92424 0
M  V30 6413 C 604.71 -1.33627 -3.19914 0
M  V30 6414 C 603.771 -2.54882 -3.45447 0
M  V30 6415 C 603.004 -2.43449 -4.7494 0
M  V30 6416 O 603.227 -1.45905 -5.51424 0
M  V30 6417 O 602.161 -3.33206 -5.01256 0
M  V30 6418 H 605.987 -2.42114 -1.83342 0
M  V30 6419 H 603.572 -1.22956 -0.848658 0
M  V30 6420 H 605.454 -1.29221 -4.01098 0
M  V30 6421 H 604.129 -0.402508 -3.21188 0
M  V30 6422 H 603.036 -2.64865 -2.64192 0
M  V30 6423 H 604.369 -3.47087 -3.48987 0
M  V30 6424 N 606.021 0.929856 -1.27246 0
M  V30 6425 C 607.437 1.20542 -1.04603 0
M  V30 6426 C 607.637 2.00276 0.221754 0
M  V30 6427 O 606.693 2.34835 0.927833 0
M  V30 6428 C 608.006 1.95566 -2.28417 0
M  V30 6429 C 609.554 2.08513 -2.33433 0
M  V30 6430 C 610.029 2.86943 -3.5697 0
M  V30 6431 N 611.52 2.94512 -3.57515 0
M  V30 6432 C 612.255 3.55656 -4.49774 0
M  V30 6433 N 611.751 4.18209 -5.52334 0
M  V30 6434 N 613.544 3.53038 -4.37402 0
M  V30 6435 H 605.695 0.397113 -2.08655 0
M  V30 6436 H 607.958 0.238277 -0.917566 0
M  V30 6437 H 607.664 1.44395 -3.20691 0
M  V30 6438 H 607.538 2.9619 -2.33563 0
M  V30 6439 H 609.925 2.58872 -1.41666 0
M  V30 6440 H 610.006 1.07117 -2.32292 0
M  V30 6441 H 609.65 2.37268 -4.49072 0
M  V30 6442 H 609.58 3.8862 -3.55362 0
M  V30 6443 H 612.071 2.50053 -2.83341 0
M  V30 6444 H 612.384 4.62796 -6.18902 0
M  V30 6445 H 610.729 4.16761 -5.56179 0
M  V30 6446 H 613.92 3.0337 -3.56489 0
M  V30 6447 H 614.093 4.004 -5.09493 0
M  V30 6448 N 607.499 1.09233 1.13605 0
M  V30 6449 C 608.91 0.846839 1.6639 0
M  V30 6450 C 609.261 -0.625031 1.85978 0
M  V30 6451 O 608.386 -1.48173 1.57714 0
M  V30 6452 C 608.981 1.5307 3.0225 0
M  V30 6453 C 607.54 1.33223 3.52035 0
M  V30 6454 C 606.687 1.58806 2.27323 0
M  V30 6455 H 609.638 1.25175 0.975541 0
M  V30 6456 H 609.659 0.96267 3.68121 0
M  V30 6457 H 609.171 2.60192 2.87961 0
M  V30 6458 H 607.272 0.282091 3.71531 0
M  V30 6459 H 607.385 2.0657 4.32279 0
M  V30 6460 H 605.749 1.01007 2.33815 0
M  V30 6461 H 606.532 2.67153 2.15602 0
M  V30 6462 N 608.977 -1.30795 0.87923 0
M  V30 6463 C 610.226 -1.95636 0.490875 0
M  V30 6464 C 610.539 -1.70214 -0.963674 0
M  V30 6465 O 611.745 -2.28991 -1.45861 0
M  V30 6466 C 610.201 -3.50271 0.826929 0
M  V30 6467 C 609.809 -3.84521 2.29886 0
M  V30 6468 C 611.553 -4.21456 0.507494 0
M  V30 6469 C 609.46 -5.32309 2.57685 0
M  V30 6470 H 608.39 -0.732238 0.179841 0
M  V30 6471 H 611.041 -1.48829 1.07341 0
M  V30 6472 H 609.423 -3.9562 0.173542 0
M  V30 6473 H 610.597 -3.50102 2.99609 0
M  V30 6474 H 608.912 -3.26425 2.58526 0
M  V30 6475 H 611.509 -5.30199 0.692293 0
M  V30 6476 H 611.852 -4.12614 -0.552718 0
M  V30 6477 H 612.385 -3.81772 1.11782 0
M  V30 6478 H 609.124 -5.46195 3.62424 0
M  V30 6479 H 608.644 -5.68048 1.92566 0
M  V30 6480 H 610.323 -5.99678 2.42889 0
M  V30 6481 N 610.455 -0.639598 -1.44038 0
M  V30 6482 C 611.871 -0.305953 -1.5664 0
M  V30 6483 C 612.071 1.19055 -1.62567 0
M  V30 6484 O 611.127 1.97492 -1.57331 0
M  V30 6485 C 612.44 -1.00533 -2.83397 0
M  V30 6486 C 613.988 -0.984278 -2.97121 0
M  V30 6487 C 614.463 -1.66428 -4.26691 0
M  V30 6488 N 615.954 -1.63127 -4.33525 0
M  V30 6489 C 616.689 -2.12629 -5.32519 0
M  V30 6490 N 616.185 -2.70359 -6.3787 0
M  V30 6491 N 617.978 -2.03208 -5.24083 0
M  V30 6492 H 610.129 -1.6109 -1.38434 0
M  V30 6493 H 612.392 -0.676672 -0.663942 0
M  V30 6494 H 612.098 -2.06034 -2.85032 0
M  V30 6495 H 611.972 -0.548362 -3.73193 0
M  V30 6496 H 614.359 0.0622792 -2.95034 0
M  V30 6497 H 614.44 -1.47981 -2.08651 0
M  V30 6498 H 614.084 -2.71034 -4.29538 0
M  V30 6499 H 614.014 -1.14351 -5.14034 0
M  V30 6500 H 616.505 -1.20987 -3.58009 0
M  V30 6501 H 616.818 -3.05842 -7.09704 0
M  V30 6502 H 615.163 -2.74414 -6.38531 0
M  V30 6503 H 618.354 -1.57823 -4.40692 0
M  V30 6504 H 618.527 -2.42097 -6.01077 0
M  V30 6505 N 611.933 1.52934 -0.380664 0
M  V30 6506 C 612.863 2.29118 0.450268 0
M  V30 6507 C 613.844 1.32153 1.07096 0
M  V30 6508 O 615.029 1.61038 1.08537 0
M  V30 6509 C 612.159 3.09161 1.58231 0
M  V30 6510 C 611.113 4.13938 1.0881 0
M  V30 6511 C 610.439 4.82153 2.31155 0
M  V30 6512 C 611.739 5.22048 0.162146 0
M  V30 6513 H 613.433 2.98826 -0.185361 0
M  V30 6514 H 610.979 1.43715 -0.0905886 0
M  V30 6515 H 612.932 3.61211 2.17036 0
M  V30 6516 H 611.656 2.3717 2.2454 0
M  V30 6517 H 610.315 3.62855 0.522633 0
M  V30 6518 H 609.963 4.06719 2.95953 0
M  V30 6519 H 609.663 5.52966 1.98752 0
M  V30 6520 H 611.187 5.37004 2.90618 0
M  V30 6521 H 612.601 5.6951 0.658126 0
M  V30 6522 H 610.998 6.00057 -0.0717122 0
M  V30 6523 H 612.068 4.78398 -0.791438 0
M  V30 6524 N 613.412 0.11024 1.57214 0
M  V30 6525 C 614.345 -0.880224 2.1054 0
M  V30 6526 C 615.323 -1.26658 1.01964 0
M  V30 6527 O 616.507 -1.36917 1.29561 0
M  V30 6528 C 613.634 -2.17676 2.59489 0
M  V30 6529 C 612.68 -1.93914 3.79868 0
M  V30 6530 S 613.513 -1.16336 5.2271 0
M  V30 6531 C 614.669 -2.47188 5.75021 0
M  V30 6532 H 614.902 -0.426614 2.94223 0
M  V30 6533 H 612.435 -0.10336 1.54054 0
M  V30 6534 H 614.393 -2.92175 2.88347 0
M  V30 6535 H 613.054 -2.60156 1.76005 0
M  V30 6536 H 612.247 -2.8996 4.12236 0
M  V30 6537 H 611.849 -1.27539 3.51582 0
M  V30 6538 H 614.141 -3.43079 5.84211 0
M  V30 6539 H 615.084 -2.19377 6.7326 0
M  V30 6540 H 615.492 -2.56154 5.03036 0
M  V30 6541 N 614.89 -1.56749 -0.16351 0
M  V30 6542 C 615.82 -2.00042 -1.20438 0
M  V30 6543 C 616.801 -0.877256 -1.45733 0
M  V30 6544 O 617.986 -1.1439 -1.56935 0
M  V30 6545 C 615.116 -2.36697 -2.54149 0
M  V30 6546 C 614.07 -3.52046 -2.43408 0
M  V30 6547 C 613.396 -3.74466 -3.81679 0
M  V30 6548 C 614.696 -4.85247 -1.93216 0
M  V30 6549 H 616.39 -2.87244 -0.844477 0
M  V30 6550 H 613.936 -1.38194 -0.40478 0
M  V30 6551 H 615.889 -2.65582 -3.27176 0
M  V30 6552 H 614.613 -1.46414 -2.91943 0
M  V30 6553 H 613.272 -3.23301 -1.72834 0
M  V30 6554 H 612.92 -2.81461 -4.1688 0
M  V30 6555 H 612.62 -4.52084 -3.75359 0
M  V30 6556 H 614.144 -4.0576 -4.5628 0
M  V30 6557 H 615.558 -5.12957 -2.56023 0
M  V30 6558 H 613.955 -5.66556 -1.97825 0
M  V30 6559 H 615.025 -4.7672 -0.88689 0
M  V30 6560 N 616.368 0.432326 -1.51554 0
M  V30 6561 C 617.616 1.17901 -1.64146 0
M  V30 6562 C 617.937 1.91604 -0.362367 0
M  V30 6563 O 617.207 1.85764 0.621968 0
M  V30 6564 H 615.787 0.438206 -0.604966 0
M  V30 6565 H 618.449 0.495172 -1.88505 0
M  V30 6566 H 617.545 1.90584 -2.47152 0
M  V30 6567 N 617.846 1.41785 0.688094 0
M  V30 6568 C 619.074 1.44915 1.47673 0
M  V30 6569 C 619.489 0.0565786 1.88715 0
M  V30 6570 O 618.846 -0.92579 1.57275 0
M  V30 6571 C 618.897 2.36452 2.73446 0
M  V30 6572 O 618.618 3.7029 2.34131 0
M  V30 6573 C 620.119 2.48463 3.67125 0
M  V30 6574 H 617.339 0.493324 0.454832 0
M  V30 6575 H 619.883 1.86153 0.846594 0
M  V30 6576 H 618.038 1.98502 3.3268 0
M  V30 6577 H 618.452 4.19183 3.15255 0
M  V30 6578 H 619.926 3.16662 4.52138 0
M  V30 6579 H 620.403 1.51826 4.12123 0
M  V30 6580 H 621.009 2.8708 3.13792 0
M  V30 6581 N 619.324 -0.923095 1.27737 0
M  V30 6582 C 620.564 -1.6858 1.15586 0
M  V30 6583 C 620.928 -1.89758 -0.292562 0
M  V30 6584 O 622.129 -2.6339 -0.536583 0
M  V30 6585 C 620.4 -3.01275 1.92271 0
M  V30 6586 S 621.959 -3.924 1.96387 0
M  V30 6587 H 618.777 -0.579069 0.412554 0
M  V30 6588 H 621.379 -1.09866 1.61709 0
M  V30 6589 H 620.083 -2.83556 2.96689 0
M  V30 6590 H 619.614 -3.6504 1.46661 0
M  V30 6591 H 621.629 -4.84667 1.06361 0
M  V30 6592 N 620.802 -1.09834 -1.13024 0
M  V30 6593 C 622.213 -0.855651 -1.65938 0
M  V30 6594 C 622.564 0.615159 -1.86307 0
M  V30 6595 O 621.689 1.47335 -1.58497 0
M  V30 6596 C 622.284 -1.5467 -3.01434 0
M  V30 6597 C 620.843 -1.35088 -3.51323 0
M  V30 6598 C 619.99 -1.6001 -2.26478 0
M  V30 6599 H 622.941 -1.25691 -0.968889 0
M  V30 6600 H 622.962 -0.982179 -3.67605 0
M  V30 6601 H 622.474 -2.61715 -2.86578 0
M  V30 6602 H 620.575 -0.30179 -3.71376 0
M  V30 6603 H 620.688 -2.0886 -4.31178 0
M  V30 6604 H 619.052 -1.02246 -2.33276 0
M  V30 6605 H 619.835 -2.68293 -2.14182 0
M  V30 6606 N 622.28 1.30327 -0.886154 0
M  V30 6607 C 623.508 2.00254 -0.520176 0
M  V30 6608 C 623.923 1.66419 0.891637 0
M  V30 6609 O 623.28 0.901951 1.58654 0
M  V30 6610 C 623.331 3.54916 -0.686775 0
M  V30 6611 O 623.052 3.87547 -2.04301 0
M  V30 6612 C 624.553 4.42115 -0.323945 0
M  V30 6613 H 621.773 0.640204 -0.200947 0
M  V30 6614 H 624.317 1.66183 -1.19178 0
M  V30 6615 H 622.472 3.8735 -0.0625273 0
M  V30 6616 H 622.886 4.82247 -2.06249 0
M  V30 6617 H 624.36 5.49808 -0.491407 0
M  V30 6618 H 624.837 4.32953 0.73811 0
M  V30 6619 H 625.443 4.15129 -0.924565 0
M  V30 6620 N 623.758 0.647228 1.43697 0
M  V30 6621 C 624.705 -0.0480092 2.3075 0
M  V30 6622 C 625.675 -0.820705 1.44408 0
M  V30 6623 O 626.86 -0.798515 1.73287 0
M  V30 6624 C 624 -1.01259 3.2991 0
M  V30 6625 C 623.113 -0.236629 4.31351 0
M  V30 6626 C 622.248 -1.19447 5.17596 0
M  V30 6627 C 621.287 -0.408595 6.10735 0
M  V30 6628 N 620.424 -1.31772 6.89623 0
M  V30 6629 H 625.264 0.700238 2.89656 0
M  V30 6630 H 622.801 0.357082 1.427 0
M  V30 6631 H 624.759 -1.58538 3.85903 0
M  V30 6632 H 623.389 -1.72778 2.72667 0
M  V30 6633 H 622.441 0.452353 3.77701 0
M  V30 6634 H 623.753 0.374731 4.9739 0
M  V30 6635 H 622.907 -1.83809 5.78186 0
M  V30 6636 H 621.646 -1.83975 4.51669 0
M  V30 6637 H 620.651 0.24841 5.49239 0
M  V30 6638 H 621.876 0.232188 6.78703 0
M  V30 6639 H 619.822 -1.94991 6.2635 0
M  V30 6640 H 619.739 -0.760779 7.52162 0
M  V30 6641 H 621.007 -1.94967 7.54724 0
M  V30 6642 N 625.236 -1.5273 0.388769 0
M  V30 6643 C 626.146 -2.30165 -0.453993 0
M  V30 6644 C 627.162 -1.37058 -1.07197 0
M  V30 6645 O 628.338 -1.70127 -1.0779 0
M  V30 6646 C 625.403 -3.09303 -1.56628 0
M  V30 6647 C 624.464 -4.18117 -0.973467 0
M  V30 6648 C 623.697 -4.93472 -2.03275 0
M  V30 6649 O 623.92 -4.68913 -3.24772 0
M  V30 6650 O 622.854 -5.78833 -1.65034 0
M  V30 6651 H 626.68 -3.03185 0.176816 0
M  V30 6652 H 624.265 -1.4862 0.152501 0
M  V30 6653 H 626.147 -3.58648 -2.21246 0
M  V30 6654 H 624.822 -2.39098 -2.18206 0
M  V30 6655 H 623.729 -3.7297 -0.290556 0
M  V30 6656 H 625.062 -4.90556 -0.401908 0
M  V30 6657 N 626.714 -0.118576 -1.57153 0
M  V30 6658 C 627.991 0.583062 -1.86708 0
M  V30 6659 C 628.371 1.84841 -1.01967 0
M  V30 6660 O 627.719 2.28288 -0.0984673 0
M  V30 6661 C 627.929 0.875912 -3.3783 0
M  V30 6662 C 629.277 1.22916 -4.0642 0
M  V30 6663 O 630.301 0.966188 -3.42846 0
M  V30 6664 O 629.16 1.72269 -5.18638 0
M  V30 6665 H 626.254 0.294185 -0.772906 0
M  V30 6666 H 628.8 -0.153048 -1.69008 0
M  V30 6667 H 627.572 -0.0207776 -3.91294 0
M  V30 6668 H 627.195 1.66719 -3.60958 0
M  V30 6669 N 628.193 1.56834 0.155195 0
M  V30 6670 C 629.14 1.97646 1.19184 0
M  V30 6671 C 630.11 0.842788 1.4313 0
M  V30 6672 O 631.295 1.1042 1.55602 0
M  V30 6673 C 628.435 2.35527 2.52232 0
M  V30 6674 C 627.548 3.62147 2.35529 0
M  V30 6675 C 626.683 3.89167 3.61555 0
M  V30 6676 C 625.722 5.09084 3.39853 0
M  V30 6677 N 624.859 5.32156 4.5799 0
M  V30 6678 H 629.699 2.8601 0.836802 0
M  V30 6679 H 627.236 1.41507 0.401758 0
M  V30 6680 H 629.194 2.55516 3.29799 0
M  V30 6681 H 627.824 1.50253 2.85699 0
M  V30 6682 H 626.876 3.4998 1.49057 0
M  V30 6683 H 628.188 4.49871 2.15448 0
M  V30 6684 H 627.342 4.09611 4.47553 0
M  V30 6685 H 626.081 2.9985 3.84632 0
M  V30 6686 H 625.086 4.88522 2.52243 0
M  V30 6687 H 626.311 5.99947 3.18183 0
M  V30 6688 H 624.257 4.45791 4.81255 0
M  V30 6689 H 624.174 6.14133 4.40882 0
M  V30 6690 H 625.442 5.57091 5.45225 0
M  V30 6691 N 629.671 -0.424282 1.51781 0
M  V30 6692 C 630.581 -1.54087 1.76902 0
M  V30 6693 C 631.597 -1.61249 0.653826 0
M  V30 6694 O 632.773 -1.78247 0.937552 0
M  V30 6695 C 629.838 -2.8996 1.90063 0
M  V30 6696 C 628.899 -2.92809 3.13945 0
M  V30 6697 C 628.132 -4.22201 3.26469 0
M  V30 6698 O 628.355 -5.15286 2.44616 0
M  V30 6699 O 627.289 -4.31599 4.1953 0
M  V30 6700 H 631.115 -1.358 2.71647 0
M  V30 6701 H 628.7 -0.608618 1.36441 0
M  V30 6702 H 630.582 -3.70575 2.0063 0
M  V30 6703 H 629.257 -3.08347 0.985067 0
M  V30 6704 H 628.164 -2.11102 3.08847 0
M  V30 6705 H 629.497 -2.79369 4.05233 0
M  V30 6706 N 631.149 -1.42148 -0.680565 0
M  V30 6707 C 632.112 -1.4488 -1.77602 0
M  V30 6708 C 633.112 -0.337209 -1.57224 0
M  V30 6709 O 634.302 -0.597778 -1.63622 0
M  V30 6710 C 631.434 -1.27483 -3.16166 0
M  V30 6711 H 632.627 -2.42412 -1.76568 0
M  V30 6712 H 630.18 -1.28511 -0.889645 0
M  V30 6713 H 630.915 -0.30851 -3.22829 0
M  V30 6714 H 630.7 -2.08037 -3.3236 0
M  V30 6715 H 632.19 -1.32265 -3.96101 0
M  V30 6716 N 632.627 0.916307 -1.28225 0
M  V30 6717 C 633.874 1.66518 -1.1523 0
M  V30 6718 C 634.202 1.92178 0.299632 0
M  V30 6719 O 633.457 1.51842 1.2346 0
M  V30 6720 C 633.756 3.03125 -1.8934 0
M  V30 6721 C 633.422 2.97135 -3.39148 0
M  V30 6722 C 632.084 2.95208 -3.80007 0
M  V30 6723 C 634.436 2.87574 -4.34685 0
M  V30 6724 C 631.764 2.81518 -5.14747 0
M  V30 6725 C 634.116 2.75424 -5.69495 0
M  V30 6726 C 632.78 2.71854 -6.09632 0
M  V30 6727 H 632.05 0.609334 -0.421655 0
M  V30 6728 H 634.697 1.06776 -1.58969 0
M  V30 6729 H 633.002 3.66639 -1.38143 0
M  V30 6730 H 634.699 3.59968 -1.76704 0
M  V30 6731 H 631.289 2.99428 -3.06661 0
M  V30 6732 H 635.473 2.88152 -4.04082 0
M  V30 6733 H 630.729 2.77148 -5.44976 0
M  V30 6734 H 634.903 2.66993 -6.43185 0
M  V30 6735 H 632.53 2.61003 -7.1399 0
M  V30 6736 N 634.105 1.10431 1.1244 0
M  V30 6737 C 635.068 0.756542 2.16354 0
M  V30 6738 C 636.068 -0.21899 1.59302 0
M  V30 6739 O 637.258 0.00415969 1.742 0
M  V30 6740 C 634.39 0.120612 3.40687 0
M  V30 6741 H 635.583 1.67696 2.48632 0
M  V30 6742 H 633.136 0.904832 1.27446 0
M  V30 6743 H 633.871 -0.810536 3.14008 0
M  V30 6744 H 633.656 0.822693 3.83372 0
M  V30 6745 H 635.146 -0.106945 4.17463 0
M  V30 6746 N 635.583 -1.29855 0.893053 0
M  V30 6747 C 636.832 -1.95104 0.511597 0
M  V30 6748 C 637.145 -1.71226 -0.945567 0
M  V30 6749 O 638.351 -2.30525 -1.43424 0
M  V30 6750 C 636.807 -3.49374 0.864034 0
M  V30 6751 C 636.415 -3.82061 2.33952 0
M  V30 6752 C 638.159 -4.20894 0.552167 0
M  V30 6753 C 636.066 -5.29546 2.63316 0
M  V30 6754 H 634.996 -0.73029 0.187597 0
M  V30 6755 H 637.647 -1.47682 1.08914 0
M  V30 6756 H 636.029 -3.95413 0.215493 0
M  V30 6757 H 637.203 -3.46904 3.03305 0
M  V30 6758 H 635.518 -3.23665 2.61973 0
M  V30 6759 H 638.115 -5.29435 0.748489 0
M  V30 6760 H 638.458 -4.13178 -0.508924 0
M  V30 6761 H 638.991 -3.80564 1.15825 0
M  V30 6762 H 635.73 -5.4232 3.68197 0
M  V30 6763 H 635.25 -5.65974 1.9858 0
M  V30 6764 H 636.929 -5.97068 2.49236 0
M  V30 6765 N 637.061 -0.65484 -1.43351 0
M  V30 6766 C 638.307 -0.169142 -2.02093 0
M  V30 6767 C 638.64 1.21431 -1.51553 0
M  V30 6768 O 637.915 1.81105 -0.709317 0
M  V30 6769 C 638.198 -0.181775 -3.59641 0
M  V30 6770 C 638.051 -1.59926 -4.20409 0
M  V30 6771 C 639.37 0.480945 -4.37464 0
M  V30 6772 H 636.489 -0.0629371 -0.734308 0
M  V30 6773 H 639.131 -0.835833 -1.70628 0
M  V30 6774 H 637.281 0.385918 -3.86578 0
M  V30 6775 H 638.953 -2.21766 -4.04497 0
M  V30 6776 H 637.196 -2.14605 -3.76998 0
M  V30 6777 H 637.867 -1.55994 -5.295 0
M  V30 6778 H 640.343 -0.00208273 -4.161 0
M  V30 6779 H 639.219 0.441384 -5.47122 0
M  V30 6780 H 639.48 1.55533 -4.13838 0
M  V30 6781 N 638.539 1.52521 -0.396863 0
M  V30 6782 C 639.764 2.06571 0.185258 0
M  V30 6783 C 640.189 1.26605 1.39115 0
M  V30 6784 O 639.547 0.293055 1.78916 0
M  V30 6785 C 639.595 3.5674 0.526189 0
M  V30 6786 O 638.699 3.7929 1.61903 0
M  V30 6787 H 638.04 0.663712 0.0195474 0
M  V30 6788 H 640.57 1.966 -0.566519 0
M  V30 6789 H 640.58 4.00311 0.788338 0
M  V30 6790 H 639.255 4.14379 -0.355397 0
M  V30 6791 H 637.832 3.47605 1.35 0
M  V30 6792 N 640.017 0.126909 1.57088 0
M  V30 6793 C 641.263 -0.529952 1.95753 0
M  V30 6794 C 641.596 -1.65823 1.01077 0
M  V30 6795 O 640.871 -1.94437 0.0494162 0
M  V30 6796 C 641.154 -1.05517 3.44294 0
M  V30 6797 C 641.007 0.0702253 4.49745 0
M  V30 6798 C 642.326 -1.9435 3.94862 0
M  V30 6799 H 639.445 -0.191168 0.711775 0
M  V30 6800 H 642.087 0.204071 1.88901 0
M  V30 6801 H 640.237 -1.68069 3.50264 0
M  V30 6802 H 641.909 0.705834 4.55868 0
M  V30 6803 H 640.152 0.732259 4.27575 0
M  V30 6804 H 640.823 -0.338642 5.5096 0
M  V30 6805 H 643.299 -1.41658 3.91244 0
M  V30 6806 H 642.175 -2.28015 4.993 0
M  V30 6807 H 642.436 -2.87299 3.36024 0
M  V30 6808 N 641.495 -1.56914 -0.146875 0
M  V30 6809 C 642.906 -1.72799 -0.706928 0
M  V30 6810 C 643.257 -0.741329 -1.81656 0
M  V30 6811 O 642.382 0.0920162 -2.16204 0
M  V30 6812 C 642.977 -3.13317 -1.28911 0
M  V30 6813 C 641.536 -3.30803 -1.79573 0
M  V30 6814 C 640.683 -2.68725 -0.684252 0
M  V30 6815 H 643.634 -1.58504 0.0787931 0
M  V30 6816 H 643.655 -3.13323 -2.15891 0
M  V30 6817 H 643.167 -3.85104 -0.481284 0
M  V30 6818 H 641.268 -2.64012 -2.62923 0
M  V30 6819 H 641.381 -4.38754 -1.92436 0
M  V30 6820 H 639.745 -2.29196 -1.11091 0
M  V30 6821 H 640.528 -3.43117 0.112134 0
M  V30 6822 N 642.974 0.416227 -1.52004 0
M  V30 6823 C 644.22 1.16555 -1.6596 0
M  V30 6824 C 644.553 1.90347 -0.384906 0
M  V30 6825 O 643.828 1.84474 0.616405 0
M  V30 6826 C 644.111 2.1657 -2.87696 0
M  V30 6827 C 643.964 1.46722 -4.25197 0
M  V30 6828 C 645.283 3.17321 -3.04951 0
M  V30 6829 H 642.402 0.422369 -0.603965 0
M  V30 6830 H 645.044 0.452141 -1.84542 0
M  V30 6831 H 643.194 2.77411 -2.71985 0
M  V30 6832 H 644.866 0.89056 -4.52622 0
M  V30 6833 H 643.109 0.769263 -4.26925 0
M  V30 6834 H 643.78 2.19665 -5.0641 0
M  V30 6835 H 646.256 2.66552 -3.19514 0
M  V30 6836 H 645.132 3.84573 -3.91656 0
M  V30 6837 H 645.393 3.84643 -2.17951 0
M  V30 6838 N 644.452 1.42507 0.673017 0
M  V30 6839 C 645.677 1.4668 1.46627 0
M  V30 6840 C 646.102 0.080066 1.8793 0
M  V30 6841 O 645.46 -0.921879 1.56112 0
M  V30 6842 C 645.508 2.40091 2.69051 0
M  V30 6843 O 644.612 1.8735 3.67387 0
M  V30 6844 H 643.953 0.496908 0.44043 0
M  V30 6845 H 646.483 1.87215 0.825334 0
M  V30 6846 H 646.493 2.56731 3.17101 0
M  V30 6847 H 645.168 3.4084 2.3833 0
M  V30 6848 H 643.745 1.80274 3.26429 0
M  V30 6849 N 645.93 -0.909495 1.28709 0
M  V30 6850 C 646.84 -2.04558 1.14861 0
M  V30 6851 C 647.856 -1.73842 0.0741621 0
M  V30 6852 O 649.032 -1.99383 0.2843 0
M  V30 6853 C 646.097 -3.36957 0.816148 0
M  V30 6854 C 645.158 -3.81255 1.97341 0
M  V30 6855 C 644.391 -5.07335 1.65671 0
M  V30 6856 O 644.614 -5.67514 0.573053 0
M  V30 6857 O 643.548 -5.47449 2.50167 0
M  V30 6858 H 647.374 -2.19161 2.10243 0
M  V30 6859 H 644.959 -1.03159 1.08068 0
M  V30 6860 H 646.841 -4.16436 0.644873 0
M  V30 6861 H 645.516 -3.2352 -0.107983 0
M  V30 6862 H 644.423 -3.02584 2.19986 0
M  V30 6863 H 645.756 -3.99261 2.87839 0
M  V30 6864 N 647.408 -1.11026 -1.11852 0
M  V30 6865 C 648.657 -0.851249 -1.82857 0
M  V30 6866 C 648.97 0.62514 -1.85341 0
M  V30 6867 O 650.176 1.00026 -2.52403 0
M  V30 6868 C 648.632 -1.47309 -3.28372 0
M  V30 6869 C 648.24 -2.9832 -3.34229 0
M  V30 6870 C 649.984 -1.29373 -4.04306 0
M  V30 6871 C 647.891 -3.53509 -4.74115 0
M  V30 6872 H 646.821 -0.314794 -0.685143 0
M  V30 6873 H 649.472 -1.33499 -1.25898 0
M  V30 6874 H 647.854 -0.917017 -3.85236 0
M  V30 6875 H 649.028 -3.60295 -2.87271 0
M  V30 6876 H 647.343 -3.15482 -2.71772 0
M  V30 6877 H 649.94 -1.68042 -5.07608 0
M  V30 6878 H 650.283 -0.235879 -4.15631 0
M  V30 6879 H 650.816 -1.8182 -3.53817 0
M  V30 6880 H 647.555 -4.58987 -4.67986 0
M  V30 6881 H 647.075 -2.96305 -5.21501 0
M  V30 6882 H 648.754 -3.51693 -5.43066 0
M  V30 6883 N 648.886 1.2938 -0.899927 0
M  V30 6884 C 650.302 1.48052 -0.596059 0
M  V30 6885 C 650.502 1.82114 0.862372 0
M  V30 6886 O 649.558 1.91774 1.64253 0
M  V30 6887 C 650.871 2.59332 -1.52208 0
M  V30 6888 C 652.419 2.73208 -1.5273 0
M  V30 6889 C 652.894 3.87617 -2.43961 0
M  V30 6890 N 654.385 3.9495 -2.42009 0
M  V30 6891 C 655.12 4.82824 -3.09303 0
M  V30 6892 N 654.616 5.75387 -3.85877 0
M  V30 6893 N 656.409 4.76317 -2.98459 0
M  V30 6894 H 648.56 1.05546 -1.8432 0
M  V30 6895 H 650.823 0.524314 -0.78981 0
M  V30 6896 H 650.529 2.41029 -2.56121 0
M  V30 6897 H 650.403 3.56139 -1.24278 0
M  V30 6898 H 652.79 2.90908 -0.495614 0
M  V30 6899 H 652.871 1.76975 -1.84698 0
M  V30 6900 H 652.515 3.70672 -3.47224 0
M  V30 6901 H 652.445 4.83218 -2.09303 0
M  V30 6902 H 654.936 3.28744 -1.86375 0
M  V30 6903 H 655.249 6.39235 -4.34279 0
M  V30 6904 H 653.594 5.75272 -3.89984 0
M  V30 6905 H 656.785 4.0299 -2.38152 0
M  V30 6906 H 656.958 5.44589 -3.51179 0
M  V30 6907 N 650.364 0.662433 1.43002 0
M  V30 6908 C 651.641 0.109096 1.95296 0
M  V30 6909 C 652.021 -1.37313 1.60338 0
M  V30 6910 O 651.369 -2.1032 0.893187 0
M  V30 6911 C 651.579 0.365096 3.47085 0
M  V30 6912 C 652.927 0.274964 4.23709 0
M  V30 6913 O 653.951 0.29816 3.5495 0
M  V30 6914 O 652.81 0.206549 5.4611 0
M  V30 6915 H 649.904 -0.00429724 0.826989 0
M  V30 6916 H 652.45 0.736308 1.52894 0
M  V30 6917 H 651.222 1.39237 3.65689 0
M  V30 6918 H 650.845 -0.294733 3.96506 0
M  V30 6919 N 651.842 -1.52309 0.404946 0
M  V30 6920 C 652.772 -2.29805 -0.41376 0
M  V30 6921 C 653.753 -1.3384 -1.0498 0
M  V30 6922 O 654.938 -1.62745 -1.05961 0
M  V30 6923 C 652.068 -3.11639 -1.53292 0
M  V30 6924 C 651.022 -4.15616 -1.02211 0
M  V30 6925 C 650.348 -4.8577 -2.23455 0
M  V30 6926 C 651.648 -5.2224 -0.0790725 0
M  V30 6927 H 653.342 -2.98493 0.232878 0
M  V30 6928 H 650.888 -1.43552 0.113441 0
M  V30 6929 H 652.841 -3.64618 -2.11262 0
M  V30 6930 H 651.565 -2.40712 -2.20738 0
M  V30 6931 H 650.224 -3.63641 -0.46484 0
M  V30 6932 H 649.872 -4.11376 -2.89445 0
M  V30 6933 H 649.572 -5.56058 -1.89929 0
M  V30 6934 H 651.096 -5.4156 -2.82038 0
M  V30 6935 H 652.51 -5.70485 -0.567438 0
M  V30 6936 H 650.907 -5.99867 0.167167 0
M  V30 6937 H 651.977 -4.77078 0.867447 0
M  V30 6938 N 653.32 -0.135238 -1.57019 0
M  V30 6939 C 654.597 0.563227 -1.87316 0
M  V30 6940 C 654.977 1.83749 -1.03921 0
M  V30 6941 O 654.325 2.2817 -0.122675 0
M  V30 6942 C 654.535 0.840031 -3.3874 0
M  V30 6943 C 655.883 1.18598 -4.077 0
M  V30 6944 O 656.907 0.92977 -3.43851 0
M  V30 6945 O 655.766 1.66758 -5.20436 0
M  V30 6946 H 652.86 0.285971 -0.775983 0
M  V30 6947 H 655.406 -0.170965 -1.68837 0
M  V30 6948 H 654.178 -0.0622785 -3.9125 0
M  V30 6949 H 653.801 1.62882 -3.62706 0
M  V30 6950 N 654.798 1.5699 0.138552 0
M  V30 6951 C 656.045 1.83809 0.849732 0
M  V30 6952 C 656.373 0.717409 1.80786 0
M  V30 6953 O 655.628 -0.292897 1.93496 0
M  V30 6954 C 655.927 3.17007 1.65049 0
M  V30 6955 C 655.593 4.43037 0.838398 0
M  V30 6956 C 654.255 4.77262 0.614385 0
M  V30 6957 C 656.607 5.20495 0.271044 0
M  V30 6958 C 653.935 5.864 -0.187552 0
M  V30 6959 C 656.287 6.30476 -0.517979 0
M  V30 6960 C 654.951 6.63245 -0.75249 0
M  V30 6961 H 654.221 0.672605 0.310939 0
M  V30 6962 H 656.868 1.91166 0.112971 0
M  V30 6963 H 655.173 3.05138 2.4576 0
M  V30 6964 H 656.87 3.34975 2.20437 0
M  V30 6965 H 653.46 4.16211 1.02307 0
M  V30 6966 H 657.644 4.94422 0.431371 0
M  V30 6967 H 652.9 6.10226 -0.378659 0
M  V30 6968 H 657.074 6.89686 -0.964694 0
M  V30 6969 H 654.701 7.47648 -1.37573 0
M  V30 6970 N 656.276 -0.40816 1.52223 0
M  V30 6971 C 657.239 -1.48 1.7501 0
M  V30 6972 C 658.239 -1.48367 0.619996 0
M  V30 6973 O 659.429 -1.49874 0.887881 0
M  V30 6974 C 656.561 -2.87403 1.83336 0
M  V30 6975 H 657.754 -1.29086 2.70697 0
M  V30 6976 H 655.307 -0.638715 1.42654 0
M  V30 6977 H 656.042 -3.11686 0.895677 0
M  V30 6978 H 655.827 -2.8854 2.65494 0
M  V30 6979 H 657.317 -3.65103 2.02705 0
M  V30 6980 N 657.755 -1.42862 -0.66545 0
M  V30 6981 C 658.703 -1.47319 -1.8 0
M  V30 6982 C 659.697 -0.347963 -1.65788 0
M  V30 6983 O 660.903 -0.521406 -1.72283 0
M  V30 6984 H 657.278 -0.461588 -0.593667 0
M  V30 6985 H 659.249 -2.42876 -1.7336 0
M  V30 6986 C 657.998 -1.40152 -3.18203 0
M  V30 6987 H 657.321 -2.26035 -3.2977 0
M  V30 6988 H 658.761 -1.47331 -3.9758 0
M  V30 6989 C 657.22 -0.117493 -3.36695 0
M  V30 6990 O 657.75 0.826058 -3.93115 0
M  V30 6991 N 655.956 -0.0316218 -2.90583 0
M  V30 6992 H 655.503 -0.800247 -2.44855 0
M  V30 6993 H 655.461 0.826835 -3.03333 0
M  V30 6994 N 659.233 0.902656 -1.29189 0
M  V30 6995 C 660.51 1.63296 -1.07674 0
M  V30 6996 C 660.89 2.07649 0.380137 0
M  V30 6997 O 660.238 1.82997 1.36837 0
M  V30 6998 C 660.448 2.81603 -2.06158 0
M  V30 6999 C 661.796 3.52359 -2.36914 0
M  V30 7000 O 662.82 2.91767 -2.04329 0
M  V30 7001 O 661.679 4.61586 -2.92576 0
M  V30 7002 H 658.773 0.716889 -0.41231 0
M  V30 7003 H 661.319 0.950984 -1.4055 0
M  V30 7004 H 660.091 2.46004 -3.04299 0
M  V30 7005 H 659.714 3.57508 -1.73993 0
M  V30 7006 N 660.711 1.11618 1.11262 0
M  V30 7007 C 661.674 0.779447 2.15539 0
M  V30 7008 C 662.674 -0.202081 1.59525 0
M  V30 7009 O 663.864 0.0226356 1.74185 0
M  V30 7010 C 660.996 0.15674 3.40539 0
M  V30 7011 H 662.189 1.70324 2.4684 0
M  V30 7012 H 659.742 0.918298 1.26479 0
M  V30 7013 H 660.477 -0.777186 3.1485 0
M  V30 7014 H 660.262 0.863308 3.82478 0
M  V30 7015 H 661.752 -0.062661 4.17553 0
M  V30 7016 N 662.189 -1.289 0.906776 0
M  V30 7017 C 663.414 -1.99939 0.551303 0
M  V30 7018 C 663.839 -1.67366 -0.858496 0
M  V30 7019 O 663.197 -0.902176 -1.57259 0
M  V30 7020 C 663.245 -3.52523 0.758937 0
M  V30 7021 O 662.349 -4.11983 -0.185308 0
M  V30 7022 H 661.69 -0.628376 0.214568 0
M  V30 7023 H 664.22 -1.64225 1.2203 0
M  V30 7024 H 664.23 -4.02522 0.666329 0
M  V30 7025 H 662.905 -3.75566 1.78671 0
M  V30 7026 H 661.482 -3.72873 -0.0445577 0
M  V30 7027 N 663.667 -0.670007 -1.42649 0
M  V30 7028 C 664.892 -0.196955 -2.06463 0
M  V30 7029 C 665.317 1.1352 -1.49983 0
M  V30 7030 O 664.675 1.705 -0.616397 0
M  V30 7031 C 664.723 -0.137381 -3.60338 0
M  V30 7032 O 663.827 0.895523 -4.02559 0
M  V30 7033 H 663.168 -0.102579 -0.656029 0
M  V30 7034 H 665.698 -0.917669 -1.82866 0
M  V30 7035 H 665.708 0.0403625 -4.0798 0
M  V30 7036 H 664.383 -1.10977 -4.0082 0
M  V30 7037 H 662.96 0.689209 -3.66476 0
M  V30 7038 N 665.145 1.52092 -0.413018 0
M  V30 7039 C 666.078 2.23613 0.455234 0
M  V30 7040 C 667.056 1.2459 1.04481 0
M  V30 7041 O 668.24 1.53653 1.09193 0
M  V30 7042 C 665.367 2.96775 1.63224 0
M  V30 7043 C 664.413 4.10261 1.16568 0
M  V30 7044 S 665.246 5.35348 0.127633 0
M  V30 7045 C 666.402 6.1204 1.30987 0
M  V30 7046 H 666.635 2.96911 -0.152042 0
M  V30 7047 H 664.168 1.53134 -0.197343 0
M  V30 7048 H 666.126 3.39532 2.30713 0
M  V30 7049 H 664.787 2.23113 2.21087 0
M  V30 7050 H 663.98 4.6064 2.04515 0
M  V30 7051 H 663.582 3.6964 0.569386 0
M  V30 7052 H 665.874 6.39651 2.23276 0
M  V30 7053 H 666.817 7.03022 0.846533 0
M  V30 7054 H 667.225 5.43161 1.53743 0
M  V30 7055 N 666.623 0.143563 1.56945 0
M  V30 7056 C 667.553 -0.7936 2.196 0
M  V30 7057 C 668.534 -1.25955 1.14321 0
M  V30 7058 O 669.719 -1.31773 1.42651 0
M  V30 7059 C 666.849 -2.03424 2.81489 0
M  V30 7060 C 665.803 -1.70519 3.92565 0
M  V30 7061 C 665.129 -3.01817 4.41373 0
M  V30 7062 C 666.429 -0.95449 5.13504 0
M  V30 7063 H 668.123 -0.271423 2.98167 0
M  V30 7064 H 665.669 -0.12911 1.4342 0
M  V30 7065 H 667.622 -2.69463 3.23987 0
M  V30 7066 H 666.346 -2.58008 2.00248 0
M  V30 7067 H 665.005 -1.06859 3.5068 0
M  V30 7068 H 664.653 -3.54386 3.56959 0
M  V30 7069 H 664.353 -2.80565 5.16292 0
M  V30 7070 H 665.877 -3.68934 4.86539 0
M  V30 7071 H 667.291 -1.5169 5.52868 0
M  V30 7072 H 665.688 -0.842035 5.94163 0
M  V30 7073 H 666.758 0.0544033 4.84869 0
M  V30 7074 N 668.101 -1.57061 -0.130224 0
M  V30 7075 C 669.064 -1.98593 -1.14426 0
M  V30 7076 C 670.064 -0.874584 -1.34936 0
M  V30 7077 O 671.254 -1.14086 -1.31643 0
M  V30 7078 C 668.386 -2.31639 -2.50112 0
M  V30 7079 H 669.579 -2.89374 -0.787561 0
M  V30 7080 H 667.132 -1.51756 -0.374146 0
M  V30 7081 H 667.867 -1.43703 -2.90723 0
M  V30 7082 H 667.652 -3.12684 -2.36583 0
M  V30 7083 H 669.142 -2.64551 -3.23114 0
M  V30 7084 N 669.579 0.400081 -1.52437 0
M  V30 7085 C 670.804 1.17221 -1.71096 0
M  V30 7086 C 671.229 1.83269 -0.423565 0
M  V30 7087 O 670.587 1.70378 0.619751 0
M  V30 7088 C 670.635 2.20425 -2.85386 0
M  V30 7089 O 669.739 3.26769 -2.51586 0
M  V30 7090 H 669.08 0.341766 -0.569291 0
M  V30 7091 H 671.61 0.467772 -1.99181 0
M  V30 7092 H 671.62 2.64605 -3.10561 0
M  V30 7093 H 670.295 1.71737 -3.78786 0
M  V30 7094 H 668.872 2.87804 -2.37114 0
M  V30 7095 N 671.057 1.43213 0.657864 0
M  V30 7096 C 672.02 1.47687 1.75275 0
M  V30 7097 C 673.02 0.362179 1.56668 0
M  V30 7098 O 674.21 0.623734 1.62651 0
M  V30 7099 C 671.342 1.32497 3.14098 0
M  V30 7100 H 672.535 2.4519 1.7269 0
M  V30 7101 H 670.088 1.2991 0.869087 0
M  V30 7102 H 670.823 0.359831 3.22298 0
M  V30 7103 H 670.608 2.13299 3.29008 0
M  V30 7104 H 672.098 1.38549 3.93946 0
M  V30 7105 N 672.536 -0.895792 1.29666 0
M  V30 7106 C 673.782 -1.64908 1.18039 0
M  V30 7107 C 674.115 -1.9236 -0.266682 0
M  V30 7108 O 673.39 -1.53682 -1.19214 0
M  V30 7109 C 673.673 -2.99574 1.99819 0
M  V30 7110 C 673.526 -2.79163 3.52687 0
M  V30 7111 C 674.845 -4.00358 1.82761 0
M  V30 7112 H 671.964 -0.598437 0.430165 0
M  V30 7113 H 674.606 -1.03736 1.59182 0
M  V30 7114 H 672.756 -3.51786 1.64859 0
M  V30 7115 H 674.428 -2.33821 3.9765 0
M  V30 7116 H 672.671 -2.13871 3.77414 0
M  V30 7117 H 673.342 -3.74871 4.05186 0
M  V30 7118 H 675.818 -3.57268 2.13304 0
M  V30 7119 H 674.694 -4.92514 2.42325 0
M  V30 7120 H 674.955 -4.35096 0.783839 0
M  V30 7121 N 674.014 -1.12206 -1.10668 0
M  V30 7122 C 674.924 -0.800686 -2.20513 0
M  V30 7123 C 675.94 0.209512 -1.72734 0
M  V30 7124 O 677.116 0.043705 -2.01353 0
M  V30 7125 C 674.181 -0.257353 -3.45744 0
M  V30 7126 C 673.242 -1.32718 -4.0827 0
M  V30 7127 C 672.475 -0.809674 -5.27522 0
M  V30 7128 O 672.698 0.35742 -5.69279 0
M  V30 7129 O 671.632 -1.57816 -5.80842 0
M  V30 7130 H 675.458 -1.71807 -2.50432 0
M  V30 7131 H 673.043 -0.898546 -1.19359 0
M  V30 7132 H 674.925 0.0408849 -4.2138 0
M  V30 7133 H 673.6 0.632627 -3.17458 0
M  V30 7134 H 672.507 -1.67855 -3.34329 0
M  V30 7135 H 673.84 -2.19083 -4.40753 0
M  V30 7136 N 675.492 1.28418 -0.913599 0
M  V30 7137 C 676.439 2.27301 -0.400373 0
M  V30 7138 C 677.409 1.57582 0.52509 0
M  V30 7139 O 678.594 1.85482 0.447318 0
M  V30 7140 C 675.734 3.43284 0.35361 0
M  V30 7141 C 674.847 4.27752 -0.604341 0
M  V30 7142 C 673.982 5.30934 0.168075 0
M  V30 7143 C 673.021 6.07065 -0.783499 0
M  V30 7144 N 672.158 7.02086 -0.0446112 0
M  V30 7145 H 676.998 2.70579 -1.24865 0
M  V30 7146 H 674.535 1.33067 -0.627028 0
M  V30 7147 H 676.493 4.09322 0.806945 0
M  V30 7148 H 675.123 3.00997 1.16623 0
M  V30 7149 H 674.175 3.61759 -1.17621 0
M  V30 7150 H 675.487 4.80682 -1.33216 0
M  V30 7151 H 674.641 6.02855 0.681979 0
M  V30 7152 H 673.38 4.78771 0.928947 0
M  V30 7153 H 672.385 5.33995 -1.30878 0
M  V30 7154 H 673.61 6.61317 -1.54392 0
M  V30 7155 H 671.556 6.52273 0.698272 0
M  V30 7156 H 671.473 7.52637 -0.712258 0
M  V30 7157 H 672.741 7.78205 0.449102 0
M  V30 7158 N 676.97 0.677563 1.42291 0
M  V30 7159 C 677.9 0.014968 2.33495 0
M  V30 7160 C 678.881 -0.786376 1.50831 0
M  V30 7161 O 680.066 -0.742975 1.79426 0
M  V30 7162 C 677.196 -0.935023 3.34477 0
M  V30 7163 C 676.15 -0.242074 4.27315 0
M  V30 7164 C 675.476 -1.30519 5.18526 0
M  V30 7165 C 676.776 0.880604 5.14823 0
M  V30 7166 H 678.47 0.776671 2.89151 0
M  V30 7167 H 676.016 0.37494 1.39033 0
M  V30 7168 H 677.969 -1.40766 3.97194 0
M  V30 7169 H 676.693 -1.72818 2.77131 0
M  V30 7170 H 675.352 0.210351 3.65996 0
M  V30 7171 H 675 -2.09041 4.57505 0
M  V30 7172 H 674.7 -0.846652 5.81468 0
M  V30 7173 H 676.224 -1.7787 5.84119 0
M  V30 7174 H 677.638 0.489062 5.7121 0
M  V30 7175 H 676.035 1.26511 5.86613 0
M  V30 7176 H 677.105 1.72818 4.53059 0
M  V30 7177 N 678.448 -1.51871 0.421078 0
M  V30 7178 C 679.396 -2.28903 -0.413066 0
M  V30 7179 C 680.39 -1.3408 -1.03532 0
M  V30 7180 O 681.596 -1.5149 -0.972146 0
M  V30 7181 H 677.971 -0.736478 -0.152003 0
M  V30 7182 H 679.942 -2.97285 0.257695 0
M  V30 7183 C 678.691 -3.13156 -1.51091 0
M  V30 7184 H 678.014 -3.85997 -1.04145 0
M  V30 7185 H 679.454 -3.7014 -2.06814 0
M  V30 7186 C 677.913 -2.27482 -2.48503 0
M  V30 7187 O 678.443 -1.92325 -3.52667 0
M  V30 7188 N 676.649 -1.91019 -2.18998 0
M  V30 7189 H 676.196 -2.19808 -1.34322 0
M  V30 7190 H 676.154 -1.3399 -2.84419 0
M  V30 7191 N 679.926 -0.151884 -1.56866 0
M  V30 7192 C 680.836 0.798876 -2.20579 0
M  V30 7193 C 681.852 1.268 -1.19154 0
M  V30 7194 O 683.028 1.32418 -1.51748 0
M  V30 7195 C 680.093 2.01861 -2.81874 0
M  V30 7196 C 679.154 1.59825 -3.9844 0
M  V30 7197 C 678.387 2.75984 -4.56802 0
M  V30 7198 O 678.61 3.92331 -4.14044 0
M  V30 7199 O 677.544 2.51175 -5.46987 0
M  V30 7200 H 681.37 0.2865 -3.02346 0
M  V30 7201 H 678.955 0.0753806 -1.4921 0
M  V30 7202 H 680.837 2.73235 -3.20813 0
M  V30 7203 H 679.512 2.52042 -2.03117 0
M  V30 7204 H 678.419 0.854601 -3.64208 0
M  V30 7205 H 679.752 1.14355 -4.78731 0
M  V30 7206 N 681.404 1.57128 0.121893 0
M  V30 7207 C 682.652 1.84335 0.828548 0
M  V30 7208 C 682.973 0.736632 1.80551 0
M  V30 7209 O 682.243 -0.23962 1.94429 0
M  V30 7210 H 680.823 0.680108 0.30897 0
M  V30 7211 H 683.485 1.9459 0.109906 0
M  V30 7212 H 682.581 2.80152 1.37554 0
M  V30 7213 N 682.882 -0.391992 1.52647 0
M  V30 7214 C 684.129 -1.13732 1.67545 0
M  V30 7215 C 684.457 -1.90045 0.413881 0
M  V30 7216 O 683.712 -1.86157 -0.603646 0
M  V30 7217 C 684.011 -2.14401 2.85949 0
M  V30 7218 C 683.677 -1.54767 4.23507 0
M  V30 7219 C 682.339 -1.38229 4.60919 0
M  V30 7220 C 684.691 -1.11382 5.0916 0
M  V30 7221 C 682.019 -0.7685 5.81645 0
M  V30 7222 C 684.371 -0.514143 6.30507 0
M  V30 7223 C 683.035 -0.33604 6.66654 0
M  V30 7224 H 682.305 -0.416174 0.613091 0
M  V30 7225 H 684.952 -0.422327 1.86785 0
M  V30 7226 H 683.257 -2.92108 2.61114 0
M  V30 7227 H 684.954 -2.71974 2.94671 0
M  V30 7228 H 681.544 -1.68626 3.94035 0
M  V30 7229 H 685.728 -1.22962 4.80826 0
M  V30 7230 H 680.984 -0.618681 6.08262 0
M  V30 7231 H 685.158 -0.169657 6.96193 0
M  V30 7232 H 682.785 0.14166 7.60068 0
M  V30 7233 N 684.36 -1.4356 -0.65026 0
M  V30 7234 C 685.609 -1.44619 -1.406 0
M  V30 7235 C 685.922 -0.0752645 -1.95455 0
M  V30 7236 O 687.128 0.0366832 -2.71475 0
M  V30 7237 C 685.584 -2.54511 -2.54465 0
M  V30 7238 C 685.192 -3.97723 -2.06204 0
M  V30 7239 C 686.936 -2.64768 -3.31811 0
M  V30 7240 C 684.843 -4.99075 -3.17298 0
M  V30 7241 H 683.773 -0.537983 -0.52829 0
M  V30 7242 H 686.424 -1.69559 -0.701561 0
M  V30 7243 H 684.806 -2.22777 -3.27393 0
M  V30 7244 H 685.98 -4.38932 -1.40267 0
M  V30 7245 H 684.295 -3.91538 -1.41729 0
M  V30 7246 H 686.892 -3.37664 -4.14593 0
M  V30 7247 H 687.235 -1.69936 -3.80036 0
M  V30 7248 H 687.768 -2.95817 -2.65964 0
M  V30 7249 H 684.507 -5.95469 -2.74038 0
M  V30 7250 H 684.027 -4.62476 -3.81937 0
M  V30 7251 H 685.706 -5.21913 -3.82382 0
M  V30 7252 N 685.838 0.888903 -1.30139 0
M  V30 7253 C 687.063 1.67884 -1.21777 0
M  V30 7254 C 687.488 1.86848 0.216689 0
M  V30 7255 O 686.846 1.39659 1.15608 0
M  V30 7256 C 686.894 3.03483 -1.94757 0
M  V30 7257 O 685.998 3.92294 -1.27198 0
M  V30 7258 H 685.339 0.513144 -0.421402 0
M  V30 7259 H 687.869 1.10968 -1.71893 0
M  V30 7260 H 687.879 3.53553 -2.03627 0
M  V30 7261 H 686.554 2.89 -2.99085 0
M  V30 7262 H 685.131 3.50732 -1.26655 0
M  V30 7263 N 687.317 1.12792 1.10072 0
M  V30 7264 C 688.249 0.757003 2.16338 0
M  V30 7265 C 689.262 -0.218144 1.61332 0
M  V30 7266 O 690.451 0.0010727 1.785 0
M  V30 7267 C 687.551 0.100303 3.38752 0
M  V30 7268 C 686.724 1.10586 4.2319 0
M  V30 7269 C 685.783 0.47609 5.24042 0
M  V30 7270 O 684.809 1.13418 5.57786 0
M  V30 7271 N 686.011 -0.754823 5.75572 0
M  V30 7272 H 688.776 1.6714 2.48766 0
M  V30 7273 H 686.337 1.02003 1.25726 0
M  V30 7274 H 688.329 -0.333092 4.03327 0
M  V30 7275 H 686.899 -0.716915 3.04268 0
M  V30 7276 H 686.119 1.71677 3.54853 0
M  V30 7277 H 687.407 1.78571 4.76435 0
M  V30 7278 H 686.805 -1.30838 5.50362 0
M  V30 7279 H 685.362 -1.13098 6.41913 0
M  V30 7280 N 688.795 -1.27931 0.920396 0
M  V30 7281 C 689.743 -2.29061 0.404191 0
M  V30 7282 C 690.737 -1.61615 -0.507634 0
M  V30 7283 O 691.943 -1.75765 -0.388144 0
M  V30 7284 H 688.318 -0.743594 0.112123 0
M  V30 7285 H 690.289 -2.70021 1.27008 0
M  V30 7286 C 689.038 -3.46088 -0.334466 0
M  V30 7287 H 688.361 -3.98194 0.35797 0
M  V30 7288 H 689.801 -4.18829 -0.660196 0
M  V30 7289 C 688.26 -2.99396 -1.54479 0
M  V30 7290 O 688.79 -3.02439 -2.64374 0
M  V30 7291 N 686.996 -2.54978 -1.39408 0
M  V30 7292 H 686.543 -2.52701 -0.500009 0
M  V30 7293 H 686.501 -2.24098 -2.20516 0
M  V30 7294 N 690.273 -0.685099 -1.4193 0
M  V30 7295 C 691.55 -0.140152 -1.95097 0
M  V30 7296 C 691.93 1.34745 -1.62502 0
M  V30 7297 O 691.278 2.08872 -0.926534 0
M  V30 7298 C 691.488 -0.420268 -3.4646 0
M  V30 7299 C 692.836 -0.342338 -4.23218 0
M  V30 7300 O 693.86 -0.354592 -3.54431 0
M  V30 7301 O 692.719 -0.293404 -5.45712 0
M  V30 7302 H 689.813 -0.00885998 -0.826953 0
M  V30 7303 H 692.359 -0.760539 -1.51703 0
M  V30 7304 H 691.131 -1.45037 -3.63428 0
M  V30 7305 H 690.754 0.231616 -3.96925 0
M  V30 7306 N 691.751 1.51645 -0.429126 0
M  V30 7307 C 693.167 1.59394 -0.080994 0
M  V30 7308 C 693.367 1.44064 1.40882 0
M  V30 7309 O 692.423 1.27771 2.17786 0
M  V30 7310 C 693.736 2.94779 -0.593773 0
M  V30 7311 C 695.284 3.08067 -0.553494 0
M  V30 7312 C 695.759 4.45963 -1.04311 0
M  V30 7313 N 697.25 4.5226 -1.00076 0
M  V30 7314 C 697.985 5.57268 -1.35056 0
M  V30 7315 N 697.481 6.69734 -1.77282 0
M  V30 7316 N 699.274 5.47582 -1.26925 0
M  V30 7317 H 691.425 1.59856 -1.39857 0
M  V30 7318 H 693.688 0.753095 -0.575805 0
M  V30 7319 H 693.394 3.11342 -1.63583 0
M  V30 7320 H 693.268 3.77197 -0.0142202 0
M  V30 7321 H 695.655 2.91177 0.479556 0
M  V30 7322 H 695.736 2.27508 -1.16935 0
M  V30 7323 H 695.38 4.63598 -2.07459 0
M  V30 7324 H 695.31 5.25049 -0.403873 0
M  V30 7325 H 697.801 3.71537 -0.690564 0
M  V30 7326 H 698.114 7.4587 -2.02232 0
M  V30 7327 H 696.459 6.70963 -1.81202 0
M  V30 7328 H 699.65 4.58604 -0.93809 0
M  V30 7329 H 699.823 6.29308 -1.54516 0
M  V30 7330 N 693.229 0.160201 1.56784 0
M  V30 7331 C 694.645 -0.196089 1.58391 0
M  V30 7332 C 694.845 -1.63689 1.17508 0
M  V30 7333 O 693.901 -2.36613 0.881506 0
M  V30 7334 C 695.214 0.0746449 3.00607 0
M  V30 7335 C 696.762 0.0119762 3.12998 0
M  V30 7336 C 697.237 0.255551 4.57286 0
M  V30 7337 N 698.728 0.202938 4.62755 0
M  V30 7338 C 699.463 0.365731 5.72232 0
M  V30 7339 N 698.959 0.586972 6.90309 0
M  V30 7340 N 700.752 0.302411 5.61286 0
M  V30 7341 H 692.903 1.1008 1.81648 0
M  V30 7342 H 695.166 0.436779 0.841384 0
M  V30 7343 H 694.872 1.07231 3.34954 0
M  V30 7344 H 694.746 -0.638802 3.71751 0
M  V30 7345 H 697.133 -0.976254 2.78484 0
M  V30 7346 H 697.214 0.75796 2.44313 0
M  V30 7347 H 696.858 1.24094 4.92507 0
M  V30 7348 H 696.788 -0.510912 5.24116 0
M  V30 7349 H 699.279 0.0371328 3.77882 0
M  V30 7350 H 699.592 0.700941 7.69615 0
M  V30 7351 H 697.937 0.623453 6.92198 0
M  V30 7352 H 701.128 0.130238 4.67919 0
M  V30 7353 H 701.301 0.432712 6.46554 0
M  V30 7354 N 694.707 -1.5719 -0.113559 0
M  V30 7355 C 695.954 -1.85138 -0.820382 0
M  V30 7356 C 696.282 -0.74608 -1.79622 0
M  V30 7357 O 695.537 0.262077 -1.93937 0
M  V30 7358 C 695.836 -3.19593 -1.59984 0
M  V30 7359 C 695.502 -4.44315 -0.767809 0
M  V30 7360 C 694.164 -4.78179 -0.538379 0
M  V30 7361 C 696.516 -5.2086 -0.188203 0
M  V30 7362 C 693.844 -5.86028 0.28082 0
M  V30 7363 C 696.196 -6.29572 0.618217 0
M  V30 7364 C 694.86 -6.61964 0.857912 0
M  V30 7365 H 694.13 -0.677467 -0.300199 0
M  V30 7366 H 696.777 -1.91322 -0.0825443 0
M  V30 7367 H 695.082 -3.0901 -2.40874 0
M  V30 7368 H 696.779 -3.3844 -2.1508 0
M  V30 7369 H 693.369 -4.17786 -0.956724 0
M  V30 7370 H 697.553 -4.95045 -0.352658 0
M  V30 7371 H 692.809 -6.09547 0.475693 0
M  V30 7372 H 696.983 -6.88064 1.0743 0
M  V30 7373 H 694.61 -7.45365 1.49451 0
M  V30 7374 N 696.185 0.383891 -1.52853 0
M  V30 7375 C 697.431 1.13009 -1.68395 0
M  V30 7376 C 697.764 1.89488 -0.425195 0
M  V30 7377 O 697.039 1.8574 0.577136 0
M  V30 7378 C 697.322 2.10419 -2.92226 0
M  V30 7379 C 697.175 1.3767 -4.28214 0
M  V30 7380 C 698.494 3.10781 -3.11614 0
M  V30 7381 H 695.613 0.409463 -0.612788 0
M  V30 7382 H 698.255 0.412895 -1.85459 0
M  V30 7383 H 696.405 2.71579 -2.77808 0
M  V30 7384 H 698.077 0.794352 -4.54409 0
M  V30 7385 H 696.32 0.678533 -4.2846 0
M  V30 7386 H 696.991 2.08874 -5.10956 0
M  V30 7387 H 699.467 2.59715 -3.25096 0
M  V30 7388 H 698.343 3.76179 -3.99725 0
M  V30 7389 H 698.604 3.79933 -2.2606 0
M  V30 7390 N 697.663 1.43903 0.642637 0
M  V30 7391 C 698.912 1.45362 1.39831 0
M  V30 7392 C 699.225 0.0856289 1.95412 0
M  V30 7393 O 700.431 -0.0222856 2.71491 0
M  V30 7394 C 698.887 2.55857 2.53111 0
M  V30 7395 C 698.495 3.98811 2.04092 0
M  V30 7396 C 700.239 2.66524 3.30402 0
M  V30 7397 C 698.146 5.00751 3.14647 0
M  V30 7398 H 697.076 0.540777 0.52543 0
M  V30 7399 H 699.727 1.69929 0.692559 0
M  V30 7400 H 698.109 2.2451 3.26207 0
M  V30 7401 H 699.283 4.3967 1.37938 0
M  V30 7402 H 697.598 3.92284 1.39651 0
M  V30 7403 H 700.195 3.39858 4.12796 0
M  V30 7404 H 700.538 1.71949 3.79129 0
M  V30 7405 H 701.071 2.97224 2.64392 0
M  V30 7406 H 697.81 5.96914 2.70876 0
M  V30 7407 H 697.33 4.64495 3.79479 0
M  V30 7408 H 699.009 5.23933 3.79609 0
M  V30 7409 N 699.141 -0.881989 1.30609 0
M  V30 7410 C 700.073 -1.99375 1.13058 0
M  V30 7411 C 701.086 -1.62636 0.0729879 0
M  V30 7412 O 702.275 -1.75621 0.319301 0
M  V30 7413 C 699.375 -3.31536 0.702651 0
M  V30 7414 C 698.548 -3.96693 1.84265 0
M  V30 7415 C 697.607 -5.07158 1.40277 0
M  V30 7416 O 696.633 -5.28628 2.11048 0
M  V30 7417 N 697.835 -5.79808 0.283449 0
M  V30 7418 H 700.6 -2.14981 2.08814 0
M  V30 7419 H 698.161 -1.05526 1.22784 0
M  V30 7420 H 700.153 -4.02804 0.391331 0
M  V30 7421 H 698.723 -3.12175 -0.162954 0
M  V30 7422 H 697.943 -3.1856 2.32192 0
M  V30 7423 H 699.231 -4.36964 2.60653 0
M  V30 7424 H 698.629 -5.64871 -0.306189 0
M  V30 7425 H 697.186 -6.51792 0.0315985 0
M  V30 7426 N 700.619 -1.13374 -1.09472 0
M  V30 7427 C 701.549 -0.833268 -2.18126 0
M  V30 7428 C 702.53 0.207169 -1.68834 0
M  V30 7429 O 703.715 0.0662012 -1.94087 0
M  V30 7430 C 700.845 -0.297979 -3.46019 0
M  V30 7431 C 699.799 -1.27261 -4.08642 0
M  V30 7432 C 699.125 -0.597104 -5.31356 0
M  V30 7433 C 700.425 -2.63095 -4.51197 0
M  V30 7434 H 702.119 -1.74182 -2.43518 0
M  V30 7435 H 699.665 -0.838921 -1.17039 0
M  V30 7436 H 701.618 -0.0754444 -4.21332 0
M  V30 7437 H 700.342 0.645959 -3.20148 0
M  V30 7438 H 699.001 -1.48113 -3.35348 0
M  V30 7439 H 698.649 0.352293 -5.01765 0
M  V30 7440 H 698.349 -1.24734 -5.74208 0
M  V30 7441 H 699.873 -0.38384 -6.09392 0
M  V30 7442 H 701.287 -2.46214 -5.17737 0
M  V30 7443 H 699.684 -3.2429 -5.04932 0
M  V30 7444 H 700.754 -3.20793 -3.6362 0
M  V30 7445 N 702.098 1.27442 -0.927168 0
M  V30 7446 C 703.028 2.29256 -0.443188 0
M  V30 7447 C 704.009 1.62701 0.49624 0
M  V30 7448 O 705.194 1.90013 0.401105 0
M  V30 7449 C 702.324 3.45955 0.305366 0
M  V30 7450 C 701.278 4.24501 -0.546178 0
M  V30 7451 C 700.604 5.33671 0.331512 0
M  V30 7452 C 701.904 4.89921 -1.81037 0
M  V30 7453 H 703.598 2.69988 -1.29409 0
M  V30 7454 H 701.144 1.29792 -0.623705 0
M  V30 7455 H 703.097 4.1628 0.654885 0
M  V30 7456 H 701.821 3.04138 1.19029 0
M  V30 7457 H 700.48 3.55921 -0.878398 0
M  V30 7458 H 700.128 4.88096 1.21537 0
M  V30 7459 H 699.828 5.87131 -0.234746 0
M  V30 7460 H 701.352 6.0684 0.676614 0
M  V30 7461 H 702.766 5.52536 -1.52895 0
M  V30 7462 H 701.163 5.53436 -2.32009 0
M  V30 7463 H 702.233 4.13652 -2.53021 0
M  V30 7464 N 703.576 0.692616 1.41565 0
M  V30 7465 C 704.486 0.0258451 2.34586 0
M  V30 7466 C 705.502 -0.769324 1.56069 0
M  V30 7467 O 706.678 -0.707563 1.88562 0
M  V30 7468 C 703.743 -0.901289 3.3478 0
M  V30 7469 C 702.804 -0.0986579 4.29187 0
M  V30 7470 C 702.037 -0.981634 5.24595 0
M  V30 7471 O 702.26 -2.22115 5.25377 0
M  V30 7472 O 701.194 -0.432892 6.00341 0
M  V30 7473 H 705.02 0.792537 2.93177 0
M  V30 7474 H 702.605 0.452935 1.42369 0
M  V30 7475 H 704.487 -1.43302 3.96286 0
M  V30 7476 H 703.162 -1.64752 2.78637 0
M  V30 7477 H 702.069 0.477604 3.71039 0
M  V30 7478 H 703.402 0.608848 4.8842 0
M  V30 7479 N 705.054 -1.51416 0.437162 0
M  V30 7480 C 706.331 -1.94682 -0.189292 0
M  V30 7481 C 706.711 -1.37581 -1.60108 0
M  V30 7482 O 706.059 -0.562815 -2.2146 0
M  V30 7483 C 706.269 -3.48599 -0.167201 0
M  V30 7484 C 707.617 -4.2296 -0.372856 0
M  V30 7485 O 708.641 -3.55354 -0.245323 0
M  V30 7486 O 707.5 -5.42895 -0.626693 0
M  V30 7487 H 704.594 -0.816708 -0.130063 0
M  V30 7488 H 707.14 -1.62316 0.495128 0
M  V30 7489 H 705.912 -3.82616 0.81981 0
M  V30 7490 H 705.535 -3.87406 -0.894537 0
M  V30 7491 N 706.532 -0.168513 -1.56696 0
M  V30 7492 C 707.462 0.758563 -2.20835 0
M  V30 7493 C 708.443 1.24121 -1.1631 0
M  V30 7494 O 709.628 1.29487 -1.4473 0
M  V30 7495 C 706.758 1.9892 -2.8469 0
M  V30 7496 C 705.712 1.64252 -3.95228 0
M  V30 7497 C 705.038 2.94757 -4.46119 0
M  V30 7498 C 706.338 0.872675 -5.14958 0
M  V30 7499 H 708.032 0.223953 -2.98561 0
M  V30 7500 H 705.578 0.106277 -1.43607 0
M  V30 7501 H 707.531 2.64275 -3.28233 0
M  V30 7502 H 706.255 2.5479 -2.04327 0
M  V30 7503 H 704.914 1.01266 -3.52336 0
M  V30 7504 H 704.562 3.48662 -3.62552 0
M  V30 7505 H 704.262 2.72316 -5.2069 0
M  V30 7506 H 705.786 3.61147 -4.92347 0
M  V30 7507 H 707.2 1.42875 -5.55211 0
M  V30 7508 H 705.597 0.747402 -5.95428 0
M  V30 7509 H 706.667 -0.131535 -4.84722 0
M  V30 7510 N 708.01 1.57248 0.105221 0
M  V30 7511 C 709.256 1.85845 0.811753 0
M  V30 7512 C 709.589 0.756219 1.78871 0
M  V30 7513 O 708.864 -0.236736 1.93054 0
M  V30 7514 C 709.147 3.25059 1.54947 0
M  V30 7515 C 709 4.45898 0.591185 0
M  V30 7516 C 710.319 3.6203 2.50245 0
M  V30 7517 H 707.438 0.675973 0.293649 0
M  V30 7518 H 710.08 1.89849 0.0756269 0
M  V30 7519 H 708.23 3.21776 2.17698 0
M  V30 7520 H 709.902 4.61291 -0.0285352 0
M  V30 7521 H 708.145 4.33693 -0.0962343 0
M  V30 7522 H 708.816 5.40009 1.1443 0
M  V30 7523 H 711.292 3.66192 1.97593 0
M  V30 7524 H 710.168 4.60389 2.98886 0
M  V30 7525 H 710.429 2.90176 3.33542 0
M  V30 7526 N 709.488 -0.375779 1.53054 0
M  V30 7527 C 710.735 -1.11948 1.68742 0
M  V30 7528 C 711.063 -1.89596 0.434015 0
M  V30 7529 O 710.318 -1.86787 -0.583867 0
M  V30 7530 C 710.617 -2.11356 2.88207 0
M  V30 7531 C 710.283 -1.50266 4.25124 0
M  V30 7532 C 708.945 -1.33333 4.62359 0
M  V30 7533 C 711.297 -1.05976 5.10312 0
M  V30 7534 C 708.625 -0.706765 5.82427 0
M  V30 7535 C 710.977 -0.447241 6.31017 0
M  V30 7536 C 709.641 -0.265314 6.66973 0
M  V30 7537 H 708.911 -0.409648 0.61747 0
M  V30 7538 H 711.558 -0.402492 1.87222 0
M  V30 7539 H 709.863 -2.89322 2.64197 0
M  V30 7540 H 711.56 -2.68833 2.97539 0
M  V30 7541 H 708.15 -1.64437 3.95801 0
M  V30 7542 H 712.334 -1.17855 4.82104 0
M  V30 7543 H 707.59 -0.554132 6.08884 0
M  V30 7544 H 711.764 -0.0958064 6.96334 0
M  V30 7545 H 709.391 0.222267 7.59875 0
M  V30 7546 N 710.966 -1.44241 -0.634997 0
M  V30 7547 C 712.213 -1.46821 -1.39463 0
M  V30 7548 C 712.541 -0.0993362 -1.94246 0
M  V30 7549 O 711.796 0.898325 -1.73864 0
M  V30 7550 C 712.095 -2.47279 -2.58046 0
M  V30 7551 C 711.761 -3.92703 -2.21574 0
M  V30 7552 C 710.423 -4.32306 -2.1134 0
M  V30 7553 C 712.775 -4.84271 -1.92695 0
M  V30 7554 C 710.103 -5.61407 -1.70409 0
M  V30 7555 C 712.455 -6.13755 -1.53258 0
M  V30 7556 C 711.119 -6.52316 -1.41562 0
M  V30 7557 H 710.389 -0.537256 -0.51033 0
M  V30 7558 H 713.036 -1.77431 -0.720441 0
M  V30 7559 H 711.341 -2.10138 -3.3068 0
M  V30 7560 H 713.038 -2.46523 -3.16271 0
M  V30 7561 H 709.628 -3.61369 -2.30456 0
M  V30 7562 H 713.812 -4.54432 -1.99513 0
M  V30 7563 H 709.068 -5.90105 -1.59955 0
M  V30 7564 H 713.242 -6.84168 -1.29949 0
M  V30 7565 H 710.869 -7.52255 -1.09619 0
M  V30 7566 N 712.444 0.87505 -1.31075 0
M  V30 7567 C 713.69 1.63009 -1.20647 0
M  V30 7568 C 714.023 1.9276 0.236045 0
M  V30 7569 O 713.298 1.55559 1.16754 0
M  V30 7570 C 713.581 2.96357 -2.0456 0
M  V30 7571 C 713.434 2.73516 -3.57084 0
M  V30 7572 C 714.753 3.974 -1.89107 0
M  V30 7573 H 711.872 0.591518 -0.439631 0
M  V30 7574 H 714.514 1.0119 -1.60812 0
M  V30 7575 H 712.664 3.49119 -1.70435 0
M  V30 7576 H 714.336 2.27465 -4.01319 0
M  V30 7577 H 712.579 2.0784 -3.80769 0
M  V30 7578 H 713.25 3.68377 -4.11099 0
M  V30 7579 H 715.726 3.5383 -2.18961 0
M  V30 7580 H 714.602 4.88596 -2.5013 0
M  V30 7581 H 714.863 4.33794 -0.85296 0
M  V30 7582 N 713.922 1.13953 1.08869 0
M  V30 7583 C 715.147 0.928559 1.85452 0
M  V30 7584 C 715.572 -0.517642 1.80837 0
M  V30 7585 O 714.93 -1.36779 1.19001 0
M  V30 7586 C 714.978 1.42814 3.31114 0
M  V30 7587 O 714.082 0.617129 4.07756 0
M  V30 7588 H 713.423 0.33235 0.574839 0
M  V30 7589 H 715.953 1.5156 1.37443 0
M  V30 7590 H 715.963 1.43425 3.8196 0
M  V30 7591 H 714.638 2.48109 3.33788 0
M  V30 7592 H 713.215 0.679365 3.66659 0
M  V30 7593 N 715.4 -1.26948 0.933913 0
M  V30 7594 C 716.677 -1.89212 0.495784 0
M  V30 7595 C 717.057 -1.84469 -1.02637 0
M  V30 7596 O 716.405 -1.29409 -1.88323 0
M  V30 7597 C 716.615 -3.32865 1.0489 0
M  V30 7598 C 717.963 -4.09749 1.11315 0
M  V30 7599 O 718.987 -3.41905 0.998966 0
M  V30 7600 O 717.846 -5.31061 1.28983 0
M  V30 7601 H 714.94 -0.811284 0.160459 0
M  V30 7602 H 717.486 -1.35171 1.02601 0
M  V30 7603 H 716.258 -3.30642 2.09265 0
M  V30 7604 H 715.881 -3.94435 0.500692 0
M  V30 7605 N 716.879 -0.700114 -1.41195 0
M  V30 7606 C 718.125 -0.233351 -2.01453 0
M  V30 7607 C 718.458 1.16548 -1.55339 0
M  V30 7608 O 717.733 1.78756 -0.766575 0
M  V30 7609 C 718.016 -0.2961 -3.58881 0
M  V30 7610 C 717.869 -1.7322 -4.15108 0
M  V30 7611 C 719.188 0.341525 -4.38773 0
M  V30 7612 H 716.307 -0.0862667 -0.731934 0
M  V30 7613 H 718.949 -0.889693 -1.67882 0
M  V30 7614 H 717.099 0.262736 -3.87611 0
M  V30 7615 H 718.771 -2.34523 -3.97236 0
M  V30 7616 H 717.014 -2.2649 -3.69979 0
M  V30 7617 H 717.685 -1.7276 -5.24269 0
M  V30 7618 H 720.161 -0.134461 -4.15883 0
M  V30 7619 H 719.037 0.267098 -5.4825 0
M  V30 7620 H 719.298 1.42289 -4.18577 0
M  V30 7621 N 718.357 1.51182 -0.445186 0
M  V30 7622 C 719.768 1.86693 0.0160999 0
M  V30 7623 C 720.119 1.36183 1.4124 0
M  V30 7624 O 719.244 0.715895 2.04215 0
M  V30 7625 C 719.839 3.38781 0.0359918 0
M  V30 7626 C 718.398 3.73799 0.441715 0
M  V30 7627 C 717.545 2.74947 -0.360511 0
M  V30 7628 H 720.496 1.44294 -0.660674 0
M  V30 7629 H 720.517 3.71026 0.843813 0
M  V30 7630 H 720.029 3.75513 -0.980378 0
M  V30 7631 H 718.13 3.42659 1.4634 0
M  V30 7632 H 718.243 4.78829 0.16106 0
M  V30 7633 H 716.607 2.54047 0.182269 0
M  V30 7634 H 717.39 3.14521 -1.3759 0
M  V30 7635 N 719.835 0.176821 1.56605 0
M  V30 7636 C 720.783 -0.768159 2.1955 0
M  V30 7637 C 721.777 -1.23343 1.16116 0
M  V30 7638 O 722.983 -1.19844 1.34303 0
M  V30 7639 H 719.358 -0.266013 0.703378 0
M  V30 7640 H 721.329 -0.213374 2.97636 0
M  V30 7641 C 720.078 -1.98492 2.85475 0
M  V30 7642 H 719.401 -1.63595 3.64797 0
M  V30 7643 H 720.841 -2.62489 3.3298 0
M  V30 7644 C 719.3 -2.81207 1.85538 0
M  V30 7645 O 719.83 -3.7854 1.34427 0
M  V30 7646 N 718.036 -2.46331 1.54173 0
M  V30 7647 H 717.583 -1.67241 1.95929 0
M  V30 7648 H 717.541 -3.01961 0.875595 0
M  V30 7649 N 721.313 -1.57302 -0.09688 0
M  V30 7650 C 722.261 -2.02942 -1.13654 0
M  V30 7651 C 723.255 -0.930173 -1.41577 0
M  V30 7652 O 724.461 -1.11535 -1.41279 0
M  V30 7653 H 720.836 -0.646726 -0.383731 0
M  V30 7654 H 722.807 -2.89452 -0.725267 0
M  V30 7655 C 721.556 -2.46815 -2.44903 0
M  V30 7656 H 720.879 -3.30979 -2.24261 0
M  V30 7657 H 722.319 -2.82527 -3.16156 0
M  V30 7658 C 720.778 -1.34071 -3.09074 0
M  V30 7659 O 721.308 -0.668856 -3.96092 0
M  V30 7660 N 719.514 -1.09214 -2.69296 0
M  V30 7661 H 719.061 -1.64029 -1.98626 0
M  V30 7662 H 719.019 -0.339785 -3.12559 0
M  V30 7663 N 722.791 0.367657 -1.53252 0
M  V30 7664 C 724.039 1.10832 -1.68999 0
M  V30 7665 C 724.36 1.89894 -0.443306 0
M  V30 7666 O 723.63 1.88235 0.54262 0
M  V30 7667 H 722.21 0.412153 -0.623008 0
M  V30 7668 H 724.872 0.414775 -1.90435 0
M  V30 7669 H 723.968 1.7993 -2.55013 0
M  V30 7670 N 724.269 1.44576 0.627338 0
M  V30 7671 C 725.201 1.47724 1.75243 0
M  V30 7672 C 726.214 0.370193 1.58535 0
M  V30 7673 O 727.403 0.636151 1.66779 0
M  V30 7674 C 724.503 1.2991 3.13012 0
M  V30 7675 C 723.676 2.5393 3.56143 0
M  V30 7676 C 722.735 2.30961 4.72804 0
M  V30 7677 O 721.761 3.04469 4.80923 0
M  V30 7678 N 722.963 1.34261 5.6476 0
M  V30 7679 H 725.728 2.44718 1.73012 0
M  V30 7680 H 723.289 1.40064 0.812022 0
M  V30 7681 H 725.281 1.12385 3.88782 0
M  V30 7682 H 723.851 0.412668 3.09864 0
M  V30 7683 H 723.071 2.86707 2.70542 0
M  V30 7684 H 724.359 3.36411 3.81713 0
M  V30 7685 H 723.757 0.735573 5.60897 0
M  V30 7686 H 722.314 1.22713 6.40144 0
M  V30 7687 N 725.747 -0.868086 1.31537 0
M  V30 7688 C 726.695 -1.99688 1.1928 0
M  V30 7689 C 727.689 -1.69101 0.100656 0
M  V30 7690 O 728.895 -1.78073 0.262677 0
M  V30 7691 H 725.27 -0.655032 0.369374 0
M  V30 7692 H 727.241 -2.07157 2.14776 0
M  V30 7693 C 725.99 -3.35338 0.918892 0
M  V30 7694 H 725.313 -3.59396 1.75142 0
M  V30 7695 H 726.753 -4.14909 0.873311 0
M  V30 7696 C 725.212 -3.34769 -0.378366 0
M  V30 7697 O 725.742 -3.76716 -1.39456 0
M  V30 7698 N 723.948 -2.87895 -0.39557 0
M  V30 7699 H 723.495 -2.53954 0.431889 0
M  V30 7700 H 723.453 -2.87897 -1.26344 0
M  V30 7701 N 727.225 -1.14528 -1.08264 0
M  V30 7702 C 728.471 -0.91576 -1.80947 0
M  V30 7703 C 728.804 0.55623 -1.86064 0
M  V30 7704 O 728.079 1.41207 -1.33756 0
M  V30 7705 C 728.362 -1.51917 -3.26486 0
M  V30 7706 C 728.215 -3.06111 -3.2957 0
M  V30 7707 C 729.534 -1.19724 -4.23502 0
M  V30 7708 H 726.653 -0.334113 -0.656915 0
M  V30 7709 H 729.295 -1.41547 -1.26746 0
M  V30 7710 H 727.445 -1.0942 -3.72773 0
M  V30 7711 H 729.117 -3.57448 -2.91597 0
M  V30 7712 H 727.36 -3.40483 -2.688 0
M  V30 7713 H 728.031 -3.43438 -4.32151 0
M  V30 7714 H 730.507 -1.56467 -3.85561 0
M  V30 7715 H 729.383 -1.64575 -5.23647 0
M  V30 7716 H 729.644 -0.112771 -4.41956 0
M  V30 7717 N 728.703 1.26451 -0.940633 0
M  V30 7718 C 729.633 2.28773 -0.467479 0
M  V30 7719 C 730.614 1.63218 0.478955 0
M  V30 7720 O 731.799 1.90427 0.380929 0
M  V30 7721 C 728.929 3.46259 0.268656 0
M  V30 7722 C 727.883 4.23898 -0.591171 0
M  V30 7723 C 727.209 5.33993 0.274891 0
M  V30 7724 C 728.509 4.87974 -1.86223 0
M  V30 7725 H 730.203 2.68601 -1.32265 0
M  V30 7726 H 727.749 1.29123 -0.637436 0
M  V30 7727 H 729.702 4.16951 0.610696 0
M  V30 7728 H 728.426 3.05383 1.15796 0
M  V30 7729 H 727.085 3.54969 -0.916098 0
M  V30 7730 H 726.733 4.89358 1.16353 0
M  V30 7731 H 726.433 5.86849 -0.297006 0
M  V30 7732 H 727.957 6.07523 0.612213 0
M  V30 7733 H 729.371 5.50883 -1.58747 0
M  V30 7734 H 727.768 5.50945 -2.37866 0
M  V30 7735 H 728.838 4.10945 -2.57394 0
M  V30 7736 N 730.181 0.707592 1.40822 0
M  V30 7737 C 731.458 0.171172 1.9485 0
M  V30 7738 C 731.838 -1.32143 1.64625 0
M  V30 7739 O 731.186 -2.07372 0.959647 0
M  V30 7740 C 731.396 0.475334 3.45748 0
M  V30 7741 C 732.744 0.409625 4.22619 0
M  V30 7742 O 733.768 0.410934 3.53822 0
M  V30 7743 O 732.627 0.380185 5.45176 0
M  V30 7744 H 729.721 0.022015 0.826707 0
M  V30 7745 H 732.267 0.784577 1.50474 0
M  V30 7746 H 731.039 1.50801 3.61075 0
M  V30 7747 H 730.662 -0.168439 3.97243 0
M  V30 7748 N 731.66 -1.50943 0.453197 0
M  V30 7749 C 732.909 -2.01402 -0.10951 0
M  V30 7750 C 733.222 -1.3411 -1.42386 0
M  V30 7751 O 734.428 -1.75626 -2.07045 0
M  V30 7752 C 732.884 -3.5906 -0.245693 0
M  V30 7753 C 732.492 -4.353 1.05916 0
M  V30 7754 C 734.236 -4.17617 -0.761318 0
M  V30 7755 C 732.143 -5.84699 0.887752 0
M  V30 7756 H 731.073 -0.752674 -0.0447013 0
M  V30 7757 H 733.724 -1.73913 0.585375 0
M  V30 7758 H 732.106 -3.83062 -1.00395 0
M  V30 7759 H 733.28 -4.23034 1.82698 0
M  V30 7760 H 731.595 -3.88269 1.50452 0
M  V30 7761 H 734.192 -5.26963 -0.906306 0
M  V30 7762 H 734.535 -3.77824 -1.74799 0
M  V30 7763 H 735.068 -3.97753 -0.0609416 0
M  V30 7764 H 731.807 -6.28933 1.84726 0
M  V30 7765 H 731.327 -5.99587 0.160006 0
M  V30 7766 H 733.006 -6.44682 0.547223 0
M  V30 7767 N 733.138 -0.185124 -1.56509 0
M  V30 7768 C 734.071 0.77877 -2.145 0
M  V30 7769 C 735.049 1.21649 -1.07891 0
M  V30 7770 O 736.233 1.30579 -1.35946 0
M  V30 7771 C 733.36 2.05048 -2.69579 0
M  V30 7772 C 732.406 1.75569 -3.88687 0
M  V30 7773 S 733.239 0.912642 -5.27666 0
M  V30 7774 C 734.395 2.19471 -5.8616 0
M  V30 7775 H 734.628 0.285751 -2.95924 0
M  V30 7776 H 732.161 0.0297417 -1.54371 0
M  V30 7777 H 734.119 2.78085 -3.01958 0
M  V30 7778 H 732.78 2.51462 -1.88216 0
M  V30 7779 H 731.973 2.69962 -4.25601 0
M  V30 7780 H 731.575 1.10619 -3.57267 0
M  V30 7781 H 733.867 3.14815 -5.99915 0
M  V30 7782 H 734.81 1.87005 -6.8296 0
M  V30 7783 H 735.218 2.31862 -5.14685 0
M  V30 7784 N 734.616 1.57351 0.0885366 0
M  V30 7785 C 735.862 1.86696 0.791996 0
M  V30 7786 C 736.195 0.775148 1.78059 0
M  V30 7787 O 735.47 -0.216247 1.93294 0
M  V30 7788 C 735.753 3.26684 1.51491 0
M  V30 7789 C 735.606 4.465 0.543858 0
M  V30 7790 C 736.925 3.64664 2.46391 0
M  V30 7791 H 734.044 0.679049 0.286463 0
M  V30 7792 H 736.686 1.89919 0.0554866 0
M  V30 7793 H 734.836 3.24067 2.14273 0
M  V30 7794 H 736.508 4.61235 -0.0774597 0
M  V30 7795 H 734.751 4.33567 -0.142228 0
M  V30 7796 H 735.422 5.41192 1.08696 0
M  V30 7797 H 737.898 3.68267 1.93698 0
M  V30 7798 H 736.774 4.63534 2.93986 0
M  V30 7799 H 737.035 2.93698 3.30445 0
M  V30 7800 N 736.094 -0.359525 1.53444 0
M  V30 7801 C 737.322 -1.12198 1.73837 0
M  V30 7802 C 737.737 -1.82854 0.470107 0
M  V30 7803 O 737.094 -1.73781 -0.557349 0
M  V30 7804 C 737.145 -2.14769 2.90786 0
M  V30 7805 O 736.866 -1.46989 4.12706 0
M  V30 7806 C 738.367 -3.03514 3.231 0
M  V30 7807 H 735.587 -0.33524 0.581253 0
M  V30 7808 H 738.131 -0.416598 2.00212 0
M  V30 7809 H 736.286 -2.80896 2.66788 0
M  V30 7810 H 736.7 -2.15378 4.78239 0
M  V30 7811 H 738.174 -3.71453 4.08322 0
M  V30 7812 H 738.651 -3.68658 2.38721 0
M  V30 7813 H 739.257 -2.42996 3.49046 0
M  V30 7814 N 737.572 -1.44907 -0.619662 0
M  V30 7815 C 738.519 -1.52654 -1.73105 0
M  V30 7816 C 739.489 -0.373334 -1.6185 0
M  V30 7817 O 740.674 -0.585143 -1.81606 0
M  V30 7818 C 737.814 -1.48769 -3.11387 0
M  V30 7819 C 736.927 -2.74551 -3.33535 0
M  V30 7820 C 736.062 -2.62421 -4.61854 0
M  V30 7821 C 735.101 -3.83312 -4.77219 0
M  V30 7822 N 734.238 -3.69789 -5.96826 0
M  V30 7823 H 739.078 -2.47605 -1.65819 0
M  V30 7824 H 736.615 -1.22875 -0.808719 0
M  V30 7825 H 738.573 -1.44507 -3.91374 0
M  V30 7826 H 737.203 -0.573783 -3.1766 0
M  V30 7827 H 736.255 -2.88953 -2.47408 0
M  V30 7828 H 737.567 -3.64253 -3.40765 0
M  V30 7829 H 736.721 -2.56056 -5.50019 0
M  V30 7830 H 735.46 -1.70298 -4.57001 0
M  V30 7831 H 734.465 -3.90049 -3.87481 0
M  V30 7832 H 735.69 -4.76486 -4.83878 0
M  V30 7833 H 733.636 -2.80426 -5.93041 0
M  V30 7834 H 733.553 -4.53116 -6.05163 0
M  V30 7835 H 734.821 -3.67335 -6.87521 0
M  V30 7836 N 739.05 0.861098 -1.31996 0
M  V30 7837 C 740.461 1.43065 -1.19955 0
M  V30 7838 C 740.812 1.95273 0.190489 0
M  V30 7839 O 739.937 1.87012 1.08882 0
M  V30 7840 C 740.532 2.60052 -2.1716 0
M  V30 7841 C 739.091 3.13026 -2.09026 0
M  V30 7842 C 738.238 1.85756 -2.05888 0
M  V30 7843 H 741.189 0.668834 -1.43918 0
M  V30 7844 H 741.21 3.37016 -1.76637 0
M  V30 7845 H 740.722 2.22024 -3.18319 0
M  V30 7846 H 738.823 3.55653 -1.11092 0
M  V30 7847 H 738.936 3.74707 -2.98549 0
M  V30 7848 H 737.3 2.05088 -1.51033 0
M  V30 7849 H 738.083 1.49954 -3.08818 0
M  V30 7850 N 740.528 1.15101 1.07655 0
M  V30 7851 C 741.476 0.840714 2.16875 0
M  V30 7852 C 742.47 -0.184594 1.68391 0
M  V30 7853 O 743.676 -0.0399315 1.79956 0
M  V30 7854 H 740.051 0.254192 0.707736 0
M  V30 7855 H 742.022 1.76959 2.40266 0
M  V30 7856 C 740.771 0.343018 3.46004 0
M  V30 7857 H 740.094 1.12335 3.83694 0
M  V30 7858 H 741.534 0.16453 4.23681 0
M  V30 7859 C 739.993 -0.934881 3.23669 0
M  V30 7860 O 740.523 -2.00706 3.47965 0
M  V30 7861 N 738.729 -0.873167 2.77172 0
M  V30 7862 H 738.276 -0.000479072 2.576 0
M  V30 7863 H 738.234 -1.72873 2.62607 0
M  V30 7864 N 742.006 -1.2595 0.947325 0
M  V30 7865 C 743.422 -1.45737 0.650597 0
M  V30 7866 C 743.622 -1.85189 -0.794188 0
M  V30 7867 O 742.678 -1.97738 -1.57022 0
M  V30 7868 C 743.991 -2.53505 1.61728 0
M  V30 7869 C 745.539 -2.67351 1.62765 0
M  V30 7870 C 746.014 -3.78296 2.58179 0
M  V30 7871 N 747.505 -3.85696 2.56501 0
M  V30 7872 C 748.24 -4.71012 3.2701 0
M  V30 7873 N 747.736 -5.60669 4.06966 0
M  V30 7874 N 749.529 -4.64912 3.15932 0
M  V30 7875 H 741.68 -0.986327 1.8811 0
M  V30 7876 H 743.943 -0.494639 0.808725 0
M  V30 7877 H 743.649 -2.31357 2.6489 0
M  V30 7878 H 743.523 -3.51281 1.3741 0
M  V30 7879 H 745.91 -2.88869 0.603241 0
M  V30 7880 H 745.991 -1.69998 1.91139 0
M  V30 7881 H 745.635 -3.5753 3.60742 0
M  V30 7882 H 745.565 -4.75117 2.27093 0
M  V30 7883 H 748.056 -3.21601 1.98447 0
M  V30 7884 H 748.369 -6.22677 4.57704 0
M  V30 7885 H 746.714 -5.60402 4.11066 0
M  V30 7886 H 749.905 -3.93874 2.52945 0
M  V30 7887 H 750.078 -5.3118 3.71149 0
M  V30 7888 N 743.484 -0.715051 -1.40445 0
M  V30 7889 C 744.394 -0.0631624 -2.34515 0
M  V30 7890 C 745.41 0.744397 -1.57273 0
M  V30 7891 O 746.586 0.677475 -1.89663 0
M  V30 7892 C 743.651 0.847915 -3.36172 0
M  V30 7893 C 742.712 0.0303655 -4.29289 0
M  V30 7894 C 741.945 0.898051 -5.2609 0
M  V30 7895 O 742.168 2.13729 -5.28844 0
M  V30 7896 O 741.102 0.337328 -6.00954 0
M  V30 7897 H 744.928 -0.839078 -2.91879 0
M  V30 7898 H 742.513 -0.475527 -1.4163 0
M  V30 7899 H 744.395 1.3698 -3.98515 0
M  V30 7900 H 743.07 1.60299 -2.81222 0
M  V30 7901 H 741.977 -0.536573 -3.70232 0
M  V30 7902 H 743.31 -0.686474 -4.87389 0
M  V30 7903 N 744.962 1.50701 -0.461195 0
M  V30 7904 C 746.378 1.59187 -0.114786 0
M  V30 7905 C 746.578 1.4702 1.37794 0
M  V30 7906 O 745.634 1.32361 2.15027 0
M  V30 7907 C 746.947 2.93453 -0.656167 0
M  V30 7908 C 748.495 3.06824 -0.618715 0
M  V30 7909 C 748.97 4.4365 -1.13747 0
M  V30 7910 N 750.461 4.50035 -1.09646 0
M  V30 7911 C 751.196 5.54278 -1.46846 0
M  V30 7912 N 750.692 6.65822 -1.91448 0
M  V30 7913 N 752.485 5.44767 -1.38512 0
M  V30 7914 H 744.636 1.56853 -1.43216 0
M  V30 7915 H 746.899 0.740712 -0.59165 0
M  V30 7916 H 746.605 3.07802 -1.7015 0
M  V30 7917 H 746.479 3.77082 -0.0942261 0
M  V30 7918 H 748.866 2.92129 0.417685 0
M  V30 7919 H 748.947 2.24976 -1.21734 0
M  V30 7920 H 748.591 4.59093 -2.17245 0
M  V30 7921 H 748.521 5.24074 -0.515153 0
M  V30 7922 H 751.012 3.69988 -0.769217 0
M  V30 7923 H 751.325 7.41413 -2.18007 0
M  V30 7924 H 749.67 6.66968 -1.95393 0
M  V30 7925 H 752.861 4.56511 -1.03516 0
M  V30 7926 H 753.034 6.25889 -1.6783 0
M  V30 7927 N 746.441 0.193421 1.56409 0
M  V30 7928 C 747.373 -0.759944 2.16235 0
M  V30 7929 C 748.386 -1.17797 1.12373 0
M  V30 7930 O 749.575 -1.11399 1.39472 0
M  V30 7931 C 746.675 -2.03735 2.70823 0
M  V30 7932 C 745.848 -1.77939 3.9957 0
M  V30 7933 C 744.907 -2.90111 4.39001 0
M  V30 7934 O 743.933 -2.59791 5.06456 0
M  V30 7935 N 745.135 -4.18426 4.02368 0
M  V30 7936 H 747.9 -0.248348 2.98669 0
M  V30 7937 H 745.461 0.0113966 1.61896 0
M  V30 7938 H 747.453 -2.77914 2.94187 0
M  V30 7939 H 746.023 -2.46022 1.92852 0
M  V30 7940 H 745.243 -0.875491 3.84355 0
M  V30 7941 H 746.531 -1.58099 4.83614 0
M  V30 7942 H 745.929 -4.45913 3.48106 0
M  V30 7943 H 744.486 -4.89237 4.30686 0
M  V30 7944 N 747.919 -1.57396 -0.0801906 0
M  V30 7945 C 748.866 -2.03107 -1.09618 0
M  V30 7946 C 749.836 -0.910118 -1.38946 0
M  V30 7947 O 751.021 -1.17719 -1.50156 0
M  V30 7948 C 748.161 -2.47293 -2.40708 0
M  V30 7949 C 747.274 -3.72972 -2.17982 0
M  V30 7950 C 746.409 -4.05975 -3.42576 0
M  V30 7951 C 745.448 -5.24719 -3.15177 0
M  V30 7952 N 744.585 -5.53401 -4.32078 0
M  V30 7953 H 749.425 -2.89677 -0.69939 0
M  V30 7954 H 746.962 -1.43263 -0.333785 0
M  V30 7955 H 748.92 -2.7096 -3.17232 0
M  V30 7956 H 747.55 -1.63713 -2.78205 0
M  V30 7957 H 746.602 -3.56693 -1.32189 0
M  V30 7958 H 747.914 -4.59638 -1.93738 0
M  V30 7959 H 747.068 -4.30498 -4.275 0
M  V30 7960 H 745.807 -3.17859 -3.69887 0
M  V30 7961 H 744.812 -5 -2.28648 0
M  V30 7962 H 746.037 -6.14445 -2.89197 0
M  V30 7963 H 743.983 -4.68245 -4.59437 0
M  V30 7964 H 743.9 -6.34469 -4.11078 0
M  V30 7965 H 745.168 -5.8247 -5.18024 0
M  V30 7966 N 749.397 0.351382 -1.53633 0
M  V30 7967 C 750.327 1.43688 -1.84055 0
M  V30 7968 C 751.308 1.55251 -0.695073 0
M  V30 7969 O 752.493 1.69587 -0.946257 0
M  V30 7970 C 749.623 2.80843 -2.04315 0
M  V30 7971 C 748.577 2.84094 -3.20117 0
M  V30 7972 C 747.903 4.2406 -3.25696 0
M  V30 7973 C 749.203 2.50334 -4.58399 0
M  V30 7974 H 750.897 1.18478 -2.74961 0
M  V30 7975 H 748.443 0.568509 -1.32303 0
M  V30 7976 H 750.396 3.56821 -2.2418 0
M  V30 7977 H 749.12 3.07471 -1.10132 0
M  V30 7978 H 747.779 2.10568 -3.00094 0
M  V30 7979 H 747.427 4.47785 -2.29123 0
M  V30 7980 H 747.127 4.27147 -4.03509 0
M  V30 7981 H 748.651 5.0189 -3.47762 0
M  V30 7982 H 750.065 3.16025 -4.78332 0
M  V30 7983 H 748.462 2.64717 -5.38558 0
M  V30 7984 H 749.532 1.45542 -4.62543 0
M  V30 7985 N 750.875 1.45233 0.611969 0
M  V30 7986 C 751.808 1.48056 1.73651 0
M  V30 7987 C 752.786 0.337373 1.59061 0
M  V30 7988 O 753.97 0.537222 1.80683 0
M  V30 7989 C 751.097 1.33144 3.11433 0
M  V30 7990 C 750.143 2.51272 3.44623 0
M  V30 7991 S 750.976 4.13754 3.39953 0
M  V30 7992 C 752.132 4.013 4.80322 0
M  V30 7993 H 752.365 2.43205 1.70993 0
M  V30 7994 H 749.898 1.32763 0.788246 0
M  V30 7995 H 751.856 1.25228 3.90932 0
M  V30 7996 H 750.517 0.394734 3.1161 0
M  V30 7997 H 749.71 2.36753 4.44932 0
M  V30 7998 H 749.312 2.56027 2.72629 0
M  V30 7999 H 751.604 3.66174 5.7002 0
M  V30 8000 H 752.547 5.01506 4.99897 0
M  V30 8001 H 752.955 3.3303 4.55797 0
M  V30 8002 N 752.353 -0.854086 1.3245 0
M  V30 8003 C 753.769 -1.14238 1.11453 0
M  V30 8004 C 753.969 -2.01228 -0.10461 0
M  V30 8005 O 753.025 -2.39845 -0.789339 0
M  V30 8006 C 754.338 -1.81916 2.39431 0
M  V30 8007 C 755.886 -1.94549 2.45193 0
M  V30 8008 C 756.361 -2.65642 3.73093 0
M  V30 8009 N 757.852 -2.73167 3.74078 0
M  V30 8010 C 758.587 -3.28828 4.69744 0
M  V30 8011 N 758.083 -3.85295 5.75778 0
M  V30 8012 N 759.876 -3.26936 4.57241 0
M  V30 8013 H 752.027 -0.274786 2.10615 0
M  V30 8014 H 754.29 -0.184375 0.929898 0
M  V30 8015 H 753.996 -1.25452 3.28565 0
M  V30 8016 H 753.87 -2.82068 2.50434 0
M  V30 8017 H 756.257 -2.50172 1.56518 0
M  V30 8018 H 756.338 -0.933914 2.38142 0
M  V30 8019 H 755.982 -2.10683 4.62142 0
M  V30 8020 H 755.912 -3.6724 3.77415 0
M  V30 8021 H 758.403 -2.33108 2.97438 0
M  V30 8022 H 758.716 -4.25925 6.44832 0
M  V30 8023 H 757.061 -3.83625 5.79531 0
M  V30 8024 H 760.252 -2.8207 3.7357 0
M  V30 8025 H 760.425 -3.70014 5.31971 0
M  V30 8026 N 753.831 -1.1567 -1.07043 0
M  V30 8027 C 754.741 -0.870435 -2.17855 0
M  V30 8028 C 755.757 0.154452 -1.73313 0
M  V30 8029 O 756.933 -0.0203759 -2.0139 0
M  V30 8030 C 753.998 -0.367219 -3.4475 0
M  V30 8031 C 753.059 -1.45639 -4.03841 0
M  V30 8032 C 752.292 -0.977092 -5.2468 0
M  V30 8033 O 752.515 0.176127 -5.70128 0
M  V30 8034 O 751.449 -1.76215 -5.75527 0
M  V30 8035 H 755.275 -1.79687 -2.44839 0
M  V30 8036 H 752.86 -0.936064 -1.1644 0
M  V30 8037 H 754.742 -0.0931947 -4.21297 0
M  V30 8038 H 753.417 0.53131 -3.1931 0
M  V30 8039 H 752.324 -1.78406 -3.28819 0
M  V30 8040 H 753.657 -2.32995 -4.3356 0
M  V30 8041 N 755.309 1.25446 -0.953992 0
M  V30 8042 C 756.241 2.25111 -0.431004 0
M  V30 8043 C 757.254 1.56377 0.452764 0
M  V30 8044 O 758.443 1.76579 0.261144 0
M  V30 8045 C 755.543 3.3655 0.39839 0
M  V30 8046 C 754.716 4.34843 -0.472229 0
M  V30 8047 C 753.775 5.25351 0.29886 0
M  V30 8048 O 752.801 5.68396 -0.302522 0
M  V30 8049 N 754.003 5.5824 1.59211 0
M  V30 8050 H 756.768 2.70619 -1.28785 0
M  V30 8051 H 754.329 1.39346 -0.824281 0
M  V30 8052 H 756.321 3.94059 0.921941 0
M  V30 8053 H 754.891 2.90436 1.15609 0
M  V30 8054 H 754.111 3.76222 -1.17689 0
M  V30 8055 H 755.399 4.97497 -1.06648 0
M  V30 8056 H 754.797 5.25172 2.10264 0
M  V30 8057 H 753.354 6.18336 2.06164 0
M  V30 8058 N 756.787 0.722489 1.40064 0
M  V30 8059 C 757.735 0.063329 2.32514 0
M  V30 8060 C 758.729 -0.73953 1.52405 0
M  V30 8061 O 759.935 -0.642122 1.68157 0
M  V30 8062 H 756.31 0.00167692 0.751998 0
M  V30 8063 H 758.281 0.859656 2.85749 0
M  V30 8064 C 757.03 -0.839219 3.3742 0
M  V30 8065 H 756.353 -0.230836 3.99133 0
M  V30 8066 H 757.793 -1.26827 4.04587 0
M  V30 8067 C 756.252 -1.96783 2.73456 0
M  V30 8068 O 756.782 -3.05933 2.60323 0
M  V30 8069 N 754.988 -1.75351 2.31734 0
M  V30 8070 H 754.535 -0.865787 2.42615 0
M  V30 8071 H 754.493 -2.51043 1.89275 0
M  V30 8072 N 758.265 -1.50454 0.469181 0
M  V30 8073 C 759.514 -2.01507 -0.0881425 0
M  V30 8074 C 759.827 -1.35613 -1.40956 0
M  V30 8075 O 761.033 -1.77812 -2.05171 0
M  V30 8076 C 759.489 -3.59301 -0.207596 0
M  V30 8077 C 759.097 -4.34152 1.10527 0
M  V30 8078 C 760.841 -4.18401 -0.716981 0
M  V30 8079 C 758.748 -5.83725 0.949717 0
M  V30 8080 H 757.678 -0.753106 -0.0367156 0
M  V30 8081 H 760.329 -1.73282 0.603788 0
M  V30 8082 H 758.711 -3.84106 -0.963265 0
M  V30 8083 H 759.885 -4.21073 1.87175 0
M  V30 8084 H 758.2 -3.86652 1.54562 0
M  V30 8085 H 760.797 -5.27895 -0.850363 0
M  V30 8086 H 761.14 -3.79657 -1.70782 0
M  V30 8087 H 761.673 -3.97796 -0.0187511 0
M  V30 8088 H 758.412 -6.26938 1.91387 0
M  V30 8089 H 757.932 -5.99383 0.223591 0
M  V30 8090 H 759.611 -6.44065 0.61557 0
M  V30 8091 N 759.743 -0.201713 -1.56304 0
M  V30 8092 C 760.673 0.71155 -2.22394 0
M  V30 8093 C 761.654 1.21625 -1.18917 0
M  V30 8094 O 762.839 1.26388 -1.47444 0
M  V30 8095 C 759.969 1.92837 -2.88845 0
M  V30 8096 C 758.923 1.55831 -3.98623 0
M  V30 8097 C 758.249 2.85228 -4.52271 0
M  V30 8098 C 759.549 0.763249 -5.16693 0
M  V30 8099 H 761.243 0.160573 -2.98969 0
M  V30 8100 H 758.789 0.0757916 -1.438 0
M  V30 8101 H 760.742 2.57253 -3.33764 0
M  V30 8102 H 759.466 2.50398 -2.09686 0
M  V30 8103 H 758.125 0.9377 -3.54405 0
M  V30 8104 H 757.773 3.40893 -3.69866 0
M  V30 8105 H 757.473 2.6121 -5.26349 0
M  V30 8106 H 758.997 3.50622 -4.99897 0
M  V30 8107 H 760.411 1.31066 -5.58117 0
M  V30 8108 H 758.808 0.620935 -5.96879 0
M  V30 8109 H 759.878 -0.234322 -4.84334 0
M  V30 8110 N 761.222 1.57436 0.0718424 0
M  V30 8111 C 762.169 2.03686 1.08539 0
M  V30 8112 C 763.139 0.917474 1.38462 0
M  V30 8113 O 764.324 1.18513 1.4953 0
M  V30 8114 C 761.464 2.48566 2.39393 0
M  V30 8115 C 760.577 3.74122 2.16001 0
M  V30 8116 C 759.712 4.07786 3.40418 0
M  V30 8117 C 758.751 5.26383 3.1239 0
M  V30 8118 N 757.888 5.55685 4.29138 0
M  V30 8119 H 762.728 2.90043 0.684018 0
M  V30 8120 H 760.265 1.43438 0.326183 0
M  V30 8121 H 762.223 2.72639 3.15791 0
M  V30 8122 H 760.853 1.65186 2.77333 0
M  V30 8123 H 759.905 3.57389 1.30296 0
M  V30 8124 H 761.217 4.60659 1.91298 0
M  V30 8125 H 760.371 4.32759 4.25211 0
M  V30 8126 H 759.11 3.19817 3.68197 0
M  V30 8127 H 758.115 5.01206 2.25993 0
M  V30 8128 H 759.34 6.1597 2.85934 0
M  V30 8129 H 757.286 4.70675 4.56948 0
M  V30 8130 H 757.203 6.3664 4.07708 0
M  V30 8131 H 758.471 5.85209 5.14928 0
M  V30 8132 N 762.7 -0.34323 1.53817 0
M  V30 8133 C 763.632 -1.44216 1.78141 0
M  V30 8134 C 764.645 -1.48701 0.662721 0
M  V30 8135 O 765.834 -1.51778 0.939458 0
M  V30 8136 C 762.934 -2.82872 1.86646 0
M  V30 8137 C 762.107 -3.01824 3.16577 0
M  V30 8138 C 761.166 -4.20723 3.16036 0
M  V30 8139 O 760.192 -4.14824 3.89756 0
M  V30 8140 N 761.394 -5.29276 2.38427 0
M  V30 8141 H 764.159 -1.23721 2.72971 0
M  V30 8142 H 761.72 -0.53311 1.52871 0
M  V30 8143 H 763.712 -3.60588 1.83735 0
M  V30 8144 H 762.282 -2.96509 0.990014 0
M  V30 8145 H 761.502 -2.11575 3.3261 0
M  V30 8146 H 762.79 -3.11369 4.02402 0
M  V30 8147 H 762.188 -5.36938 1.78085 0
M  V30 8148 H 760.745 -6.05484 2.41313 0
M  V30 8149 N 764.178 -1.45556 -0.604258 0
M  V30 8150 C 765.424 -1.49968 -1.36519 0
M  V30 8151 C 765.757 -0.142236 -1.93678 0
M  V30 8152 O 765.032 0.843717 -1.75247 0
M  V30 8153 C 765.315 -2.58146 -2.51063 0
M  V30 8154 C 765.168 -4.03346 -1.99078 0
M  V30 8155 C 766.487 -2.62581 -3.53184 0
M  V30 8156 H 763.606 -0.545993 -0.495036 0
M  V30 8157 H 766.248 -1.77382 -0.680845 0
M  V30 8158 H 764.398 -2.34901 -3.09441 0
M  V30 8159 H 766.07 -4.37811 -1.45323 0
M  V30 8160 H 764.313 -4.13845 -1.30055 0
M  V30 8161 H 764.984 -4.74731 -2.81664 0
M  V30 8162 H 767.46 -2.83419 -3.04652 0
M  V30 8163 H 766.336 -3.40131 -4.30816 0
M  V30 8164 H 766.597 -1.67798 -4.09019 0
M  V30 8165 N 765.656 0.84705 -1.32902 0
M  V30 8166 C 766.903 1.60176 -1.23894 0
M  V30 8167 C 767.231 1.93496 0.197341 0
M  V30 8168 O 766.486 1.58173 1.15238 0
M  V30 8169 C 766.785 2.92663 -2.05142 0
M  V30 8170 C 766.451 2.7874 -3.54422 0
M  V30 8171 C 765.113 2.7465 -3.95121 0
M  V30 8172 C 767.465 2.64128 -4.49317 0
M  V30 8173 C 764.793 2.53837 -5.28946 0
M  V30 8174 C 767.145 2.44849 -5.83294 0
M  V30 8175 C 765.809 2.39156 -6.23186 0
M  V30 8176 H 765.079 0.586127 -0.453361 0
M  V30 8177 H 767.726 0.981994 -1.64405 0
M  V30 8178 H 766.031 3.588 -1.57383 0
M  V30 8179 H 767.728 3.50095 -1.95537 0
M  V30 8180 H 764.318 2.82751 -3.22102 0
M  V30 8181 H 768.502 2.66327 -4.18788 0
M  V30 8182 H 763.758 2.4787 -5.58901 0
M  V30 8183 H 767.932 2.32524 -6.56434 0
M  V30 8184 H 765.559 2.22789 -7.26821 0
M  V30 8185 N 767.134 1.16236 1.06428 0
M  V30 8186 C 768.382 0.941171 1.78847 0
M  V30 8187 C 768.703 -0.53248 1.87589 0
M  V30 8188 O 767.973 -1.38686 1.38358 0
M  V30 8189 H 766.553 0.345228 0.66244 0
M  V30 8190 H 769.215 1.46479 1.28569 0
M  V30 8191 H 768.311 1.35871 2.80972 0
M  V30 8192 N 768.612 -1.24939 0.960631 0
M  V30 8193 C 769.861 -1.92118 0.614298 0
M  V30 8194 C 770.174 -1.75998 -0.853474 0
M  V30 8195 O 771.38 -2.37804 -1.31003 0
M  V30 8196 C 769.836 -3.44303 1.04801 0
M  V30 8197 C 769.444 -3.69123 2.53875 0
M  V30 8198 C 771.188 -4.17375 0.774497 0
M  V30 8199 C 769.095 -5.14843 2.91016 0
M  V30 8200 H 768.025 -0.719319 0.226045 0
M  V30 8201 H 770.676 -1.41701 1.16589 0
M  V30 8202 H 769.058 -3.93715 0.42479 0
M  V30 8203 H 770.232 -3.30339 3.21267 0
M  V30 8204 H 768.547 -3.09323 2.78762 0
M  V30 8205 H 771.144 -5.24723 1.02808 0
M  V30 8206 H 771.487 -4.15294 -0.289192 0
M  V30 8207 H 772.02 -3.7389 1.35835 0
M  V30 8208 H 768.759 -5.2204 3.96427 0
M  V30 8209 H 768.279 -5.54652 2.28302 0
M  V30 8210 H 769.958 -5.83017 2.80535 0
M  V30 8211 N 770.09 -0.729906 -1.39679 0
M  V30 8212 C 771.02 -0.101618 -2.33279 0
M  V30 8213 C 772.001 0.729854 -1.53646 0
M  V30 8214 O 773.186 0.67587 -1.82059 0
M  V30 8215 C 770.316 0.81024 -3.37716 0
M  V30 8216 C 769.27 0.0833126 -4.27919 0
M  V30 8217 C 768.596 1.11185 -5.23012 0
M  V30 8218 C 769.896 -1.07107 -5.112 0
M  V30 8219 H 771.59 -0.883452 -2.86069 0
M  V30 8220 H 769.136 -0.426283 -1.37546 0
M  V30 8221 H 771.089 1.25927 -4.02145 0
M  V30 8222 H 769.813 1.62413 -2.83354 0
M  V30 8223 H 768.472 -0.346043 -3.64963 0
M  V30 8224 H 768.12 1.91917 -4.64948 0
M  V30 8225 H 767.82 0.63026 -5.8421 0
M  V30 8226 H 769.344 1.56068 -5.90318 0
M  V30 8227 H 770.758 -0.700726 -5.69002 0
M  V30 8228 H 769.155 -1.48196 -5.81514 0
M  V30 8229 H 770.225 -1.89513 -4.46332 0
M  V30 8230 N 771.568 1.50203 -0.477153 0
M  V30 8231 C 772.515 2.28656 0.31386 0
M  V30 8232 C 773.485 1.33977 0.981802 0
M  V30 8233 O 774.67 1.62919 0.993072 0
M  V30 8234 C 771.81 3.16027 1.38639 0
M  V30 8235 C 770.923 4.25743 0.732615 0
M  V30 8236 C 770.058 5.00363 1.78355 0
M  V30 8237 C 769.097 6.01945 1.11035 0
M  V30 8238 N 768.234 6.6982 2.10441 0
M  V30 8239 H 773.074 2.958 -0.361445 0
M  V30 8240 H 770.611 1.45867 -0.190093 0
M  V30 8241 H 772.569 3.6504 2.01994 0
M  V30 8242 H 771.199 2.50917 2.03077 0
M  V30 8243 H 770.251 3.80398 -0.0136546 0
M  V30 8244 H 771.563 4.98393 0.201513 0
M  V30 8245 H 770.717 5.53124 2.49276 0
M  V30 8246 H 769.456 4.27432 2.34847 0
M  V30 8247 H 768.461 5.48438 0.386797 0
M  V30 8248 H 769.686 6.76851 0.552248 0
M  V30 8249 H 767.632 5.99677 2.65939 0
M  V30 8250 H 767.549 7.38366 1.62332 0
M  V30 8251 H 768.817 7.27196 2.80724 0
M  V30 8252 N 773.046 0.209999 1.56195 0
M  V30 8253 C 774.009 -0.691232 2.18528 0
M  V30 8254 C 775.009 -1.13013 1.14388 0
M  V30 8255 O 776.199 -1.04081 1.39688 0
M  V30 8256 C 773.331 -1.94551 2.79934 0
M  V30 8257 H 774.524 -0.147953 2.99535 0
M  V30 8258 H 772.077 -0.0396243 1.5625 0
M  V30 8259 H 772.812 -2.53094 2.02766 0
M  V30 8260 H 772.597 -1.63938 3.56184 0
M  V30 8261 H 774.087 -2.58785 3.2775 0
M  V30 8262 N 774.524 -1.57472 -0.0634922 0
M  V30 8263 C 775.935 -1.76303 -0.614337 0
M  V30 8264 C 776.286 -0.836578 -1.77471 0
M  V30 8265 O 775.411 -0.0227184 -2.16388 0
M  V30 8266 C 776.006 -3.19709 -1.12122 0
M  V30 8267 C 774.565 -3.39856 -1.61786 0
M  V30 8268 C 773.712 -2.71975 -0.540845 0
M  V30 8269 H 776.663 -1.57864 0.162702 0
M  V30 8270 H 776.684 -3.24326 -1.98979 0
M  V30 8271 H 776.196 -3.87114 -0.276472 0
M  V30 8272 H 774.297 -2.77578 -2.48558 0
M  V30 8273 H 774.41 -4.48338 -1.68908 0
M  V30 8274 H 772.774 -2.34763 -0.987854 0
M  V30 8275 H 773.557 -3.4204 0.293856 0
M  V30 8276 N 776.003 0.335068 -1.53997 0
M  V30 8277 C 777.25 1.07435 -1.71651 0
M  V30 8278 C 777.578 1.88378 -0.48413 0
M  V30 8279 O 776.833 1.8827 0.534139 0
M  V30 8280 C 777.132 2.0364 -2.9371 0
M  V30 8281 C 776.798 1.38942 -4.28959 0
M  V30 8282 C 775.46 1.21027 -4.65732 0
M  V30 8283 C 777.812 0.924083 -5.12943 0
M  V30 8284 C 775.14 0.552097 -5.84097 0
M  V30 8285 C 777.492 0.27978 -6.31981 0
M  V30 8286 C 776.156 0.0883843 -6.67441 0
M  V30 8287 H 775.426 0.393133 -0.628114 0
M  V30 8288 H 778.073 0.352712 -1.88224 0
M  V30 8289 H 776.378 2.82215 -2.71775 0
M  V30 8290 H 778.075 2.6085 -3.04562 0
M  V30 8291 H 774.665 1.53885 -4.00022 0
M  V30 8292 H 778.849 1.05032 -4.85059 0
M  V30 8293 H 774.105 0.392502 -6.10139 0
M  V30 8294 H 778.279 -0.0888479 -6.96343 0
M  V30 8295 H 775.906 -0.423657 -7.59019 0
M  V30 8296 N 777.481 1.45874 0.596531 0
M  V30 8297 C 778.897 1.30524 0.918459 0
M  V30 8298 C 779.097 0.266429 1.99731 0
M  V30 8299 O 778.153 -0.335809 2.50257 0
M  V30 8300 C 779.466 2.68747 1.3489 0
M  V30 8301 C 781.014 2.7673 1.46251 0
M  V30 8302 C 781.489 4.15504 1.92667 0
M  V30 8303 N 782.98 4.17853 1.99883 0
M  V30 8304 C 783.715 5.22109 2.37044 0
M  V30 8305 N 783.211 6.36704 2.73094 0
M  V30 8306 N 785.004 5.09471 2.37479 0
M  V30 8307 H 777.155 2.12081 -0.116368 0
M  V30 8308 H 779.418 0.947941 0.0106033 0
M  V30 8309 H 779.124 3.46006 0.630288 0
M  V30 8310 H 778.998 2.97942 2.31323 0
M  V30 8311 H 781.385 1.99768 2.17202 0
M  V30 8312 H 781.466 2.51236 0.481054 0
M  V30 8313 H 781.11 4.92956 1.223 0
M  V30 8314 H 781.04 4.38396 2.91747 0
M  V30 8315 H 783.531 3.35163 1.74568 0
M  V30 8316 H 783.844 7.12041 3.00362 0
M  V30 8317 H 782.189 6.40087 2.70764 0
M  V30 8318 H 785.38 4.18987 2.08728 0
M  V30 8319 H 785.553 5.90837 2.66112 0
M  V30 8320 N 778.959 -0.83999 1.33349 0
M  V30 8321 C 779.869 -1.98182 1.25543 0
M  V30 8322 C 780.885 -1.73204 0.166208 0
M  V30 8323 O 782.061 -1.97596 0.389589 0
M  V30 8324 C 779.126 -3.32157 0.993614 0
M  V30 8325 C 778.187 -3.70258 2.17273 0
M  V30 8326 C 777.42 -4.9784 1.92331 0
M  V30 8327 O 777.643 -5.63679 0.873074 0
M  V30 8328 O 776.577 -5.33418 2.78835 0
M  V30 8329 H 780.403 -2.07708 2.21565 0
M  V30 8330 H 777.988 -0.972852 1.13384 0
M  V30 8331 H 779.87 -4.12433 0.864711 0
M  V30 8332 H 778.545 -3.23637 0.0636596 0
M  V30 8333 H 777.452 -2.90497 2.35716 0
M  V30 8334 H 778.785 -3.83442 3.08598 0
M  V30 8335 N 780.437 -1.16799 -1.0581 0
M  V30 8336 C 781.384 -0.87902 -2.13405 0
M  V30 8337 C 782.354 0.174541 -1.6518 0
M  V30 8338 O 783.539 0.0386843 -1.90761 0
M  V30 8339 C 780.679 -0.391616 -3.42871 0
M  V30 8340 C 779.792 -1.50857 -4.04804 0
M  V30 8341 C 778.927 -0.975682 -5.22163 0
M  V30 8342 C 777.966 -2.06851 -5.76089 0
M  V30 8343 N 777.103 -1.55085 -6.84758 0
M  V30 8344 H 781.943 -1.80043 -2.37463 0
M  V30 8345 H 779.48 -0.898083 -1.16503 0
M  V30 8346 H 781.438 -0.0906247 -4.17102 0
M  V30 8347 H 780.068 0.49284 -3.19016 0
M  V30 8348 H 779.12 -1.92542 -3.28073 0
M  V30 8349 H 780.432 -2.33305 -4.40874 0
M  V30 8350 H 779.586 -0.628165 -6.03439 0
M  V30 8351 H 778.325 -0.120566 -4.87551 0
M  V30 8352 H 777.33 -2.42467 -4.93447 0
M  V30 8353 H 778.555 -2.92768 -6.12751 0
M  V30 8354 H 776.501 -0.718345 -6.52055 0
M  V30 8355 H 776.418 -2.31145 -7.19797 0
M  V30 8356 H 777.686 -1.23206 -7.69702 0
M  V30 8357 N 781.915 1.24427 -0.967243 0
M  V30 8358 C 783.163 1.92107 -0.627638 0
M  V30 8359 C 783.484 1.75991 0.83978 0
M  V30 8360 O 782.754 1.13118 1.59941 0
M  V30 8361 H 781.334 0.710986 -0.229145 0
M  V30 8362 H 783.996 1.51331 -1.22821 0
M  V30 8363 H 783.092 2.99791 -0.867844 0
M  V30 8364 N 783.393 0.737304 1.3929 0
M  V30 8365 C 784.641 0.285691 2.00071 0
M  V30 8366 C 784.962 -1.13169 1.58801 0
M  V30 8367 O 784.232 -1.77104 0.837308 0
M  V30 8368 H 782.812 0.102638 0.739915 0
M  V30 8369 H 785.474 0.947775 1.70303 0
M  V30 8370 H 784.57 0.335906 3.10287 0
M  V30 8371 N 784.871 -1.49948 0.485112 0
M  V30 8372 C 785.781 -2.32587 -0.306697 0
M  V30 8373 C 786.797 -1.43598 -0.982632 0
M  V30 8374 O 787.973 -1.76638 -0.967519 0
M  V30 8375 C 785.038 -3.18638 -1.3664 0
M  V30 8376 C 784.099 -4.23462 -0.705589 0
M  V30 8377 C 783.332 -5.05401 -1.7148 0
M  V30 8378 O 783.555 -4.88618 -2.94293 0
M  V30 8379 O 782.489 -5.88157 -1.27889 0
M  V30 8380 H 786.315 -3.01447 0.369272 0
M  V30 8381 H 783.9 -1.47349 0.246709 0
M  V30 8382 H 785.782 -3.71992 -1.9799 0
M  V30 8383 H 784.457 -2.52491 -2.02559 0
M  V30 8384 H 783.364 -3.74063 -0.0527733 0
M  V30 8385 H 784.697 -4.92119 -0.0891187 0
M  V30 8386 N 786.349 -0.21828 -1.56081 0
M  V30 8387 C 787.597 0.413488 -1.97825 0
M  V30 8388 C 787.918 1.60527 -1.10707 0
M  V30 8389 O 787.188 1.9504 -0.183378 0
M  V30 8390 H 785.768 0.155757 -0.730581 0
M  V30 8391 H 788.43 -0.310413 -1.92412 0
M  V30 8392 H 787.526 0.742024 -3.03151 0
M  V30 8393 N 787.827 1.57504 0.0551401 0
M  V30 8394 C 789.238 1.76626 0.604979 0
M  V30 8395 C 789.589 0.845978 1.77024 0
M  V30 8396 O 788.714 0.0341936 2.16373 0
M  V30 8397 C 789.309 3.203 1.10425 0
M  V30 8398 C 787.868 3.4071 1.59981 0
M  V30 8399 C 787.015 2.72258 0.526414 0
M  V30 8400 H 789.966 1.57775 -0.171072 0
M  V30 8401 H 789.987 3.25377 1.97256 0
M  V30 8402 H 789.499 3.87255 0.255939 0
M  V30 8403 H 787.6 2.78892 2.47083 0
M  V30 8404 H 787.713 4.49227 1.66528 0
M  V30 8405 H 786.077 2.35283 0.97539 0
M  V30 8406 H 786.86 3.41879 -0.311991 0
M  V30 8407 N 789.305 -0.326896 1.54172 0
M  V30 8408 C 790.235 -1.40741 1.86317 0
M  V30 8409 C 791.216 -1.54125 0.719684 0
M  V30 8410 O 792.401 -1.6806 0.973117 0
M  V30 8411 C 789.531 -2.77557 2.08757 0
M  V30 8412 C 788.485 -2.78965 3.24596 0
M  V30 8413 C 787.811 -4.18824 3.32401 0
M  V30 8414 C 789.111 -2.4301 4.62324 0
M  V30 8415 H 790.805 -1.14088 2.76811 0
M  V30 8416 H 788.351 -0.547389 1.3319 0
M  V30 8417 H 790.304 -3.53209 2.29829 0
M  V30 8418 H 789.028 -3.0568 1.15009 0
M  V30 8419 H 787.687 -2.05767 3.03406 0
M  V30 8420 H 787.335 -4.44083 2.36218 0
M  V30 8421 H 787.035 -4.20673 4.10253 0
M  V30 8422 H 788.559 -4.96294 3.55703 0
M  V30 8423 H 789.973 -3.08375 4.83299 0
M  V30 8424 H 788.37 -2.56116 5.42701 0
M  V30 8425 H 789.44 -1.38165 4.64799 0
M  V30 8426 N 790.784 -1.46188 -0.588786 0
M  V30 8427 C 792.03 -1.51407 -1.34921 0
M  V30 8428 C 792.363 -0.162771 -1.93517 0
M  V30 8429 O 791.638 0.825082 -1.76132 0
M  V30 8430 C 791.921 -2.60795 -2.48311 0
M  V30 8431 C 791.774 -4.05435 -1.94789 0
M  V30 8432 C 793.093 -2.66313 -3.50379 0
M  V30 8433 H 790.212 -0.551213 -0.489217 0
M  V30 8434 H 792.854 -1.78095 -0.661993 0
M  V30 8435 H 791.004 -2.3817 -3.06932 0
M  V30 8436 H 792.676 -4.39328 -1.40672 0
M  V30 8437 H 790.919 -4.15202 -1.25659 0
M  V30 8438 H 791.59 -4.77691 -2.76613 0
M  V30 8439 H 794.066 -2.86634 -3.01629 0
M  V30 8440 H 792.942 -3.44681 -4.27184 0
M  V30 8441 H 793.203 -1.72127 -4.07216 0
M  V30 8442 N 792.262 0.832906 -1.33792 0
M  V30 8443 C 793.678 1.1245 -1.13257 0
M  V30 8444 C 793.878 2.01369 0.0725832 0
M  V30 8445 O 792.934 2.41071 0.751082 0
M  V30 8446 C 794.247 1.78084 -2.42294 0
M  V30 8447 C 795.795 1.90624 -2.48257 0
M  V30 8448 C 796.27 2.59673 -3.77271 0
M  V30 8449 N 797.761 2.67181 -3.78376 0
M  V30 8450 C 798.496 3.21313 -4.74916 0
M  V30 8451 N 797.992 3.76086 -5.81835 0
M  V30 8452 N 799.785 3.19621 -4.62384 0
M  V30 8453 H 791.936 0.241244 -2.11026 0
M  V30 8454 H 794.199 0.169557 -0.932713 0
M  V30 8455 H 793.905 1.20209 -3.30519 0
M  V30 8456 H 793.779 2.78049 -2.5489 0
M  V30 8457 H 796.166 2.4765 -1.60478 0
M  V30 8458 H 796.247 0.89591 -2.39598 0
M  V30 8459 H 795.891 2.03304 -4.65435 0
M  V30 8460 H 795.821 3.61189 -3.8321 0
M  V30 8461 H 798.312 2.28346 -3.01108 0
M  V30 8462 H 798.625 4.15612 -6.51526 0
M  V30 8463 H 796.97 3.74357 -5.85561 0
M  V30 8464 H 800.161 2.76091 -3.7801 0
M  V30 8465 H 800.334 3.61504 -5.37791 0
M  V30 8466 N 793.74 1.17359 1.05189 0
M  V30 8467 C 794.67 0.91365 2.14883 0
M  V30 8468 C 795.651 -0.144365 1.69486 0
M  V30 8469 O 796.836 0.00587861 1.94199 0
M  V30 8470 C 793.966 0.426196 3.44675 0
M  V30 8471 C 792.92 1.4234 4.03638 0
M  V30 8472 C 792.246 0.793902 5.28773 0
M  V30 8473 C 793.546 2.7966 4.41121 0
M  V30 8474 H 795.24 1.831 2.36885 0
M  V30 8475 H 792.786 0.881781 1.13845 0
M  V30 8476 H 794.739 0.231767 4.20762 0
M  V30 8477 H 793.463 -0.526693 3.22325 0
M  V30 8478 H 792.122 1.60457 3.2962 0
M  V30 8479 H 791.77 -0.165824 5.02727 0
M  V30 8480 H 791.47 1.45959 5.69183 0
M  V30 8481 H 792.994 0.609747 6.07548 0
M  V30 8482 H 794.408 2.6526 5.08242 0
M  V30 8483 H 792.805 3.42807 4.92548 0
M  V30 8484 H 793.875 3.34068 3.51464 0
M  V30 8485 N 795.218 -1.23913 0.973828 0
M  V30 8486 C 796.128 -2.28838 0.516735 0
M  V30 8487 C 797.144 -1.68723 -0.425282 0
M  V30 8488 O 798.32 -1.99201 -0.296819 0
M  V30 8489 C 795.385 -3.46233 -0.179914 0
M  V30 8490 C 794.446 -4.21729 0.80269 0
M  V30 8491 C 793.679 -5.33518 0.139191 0
M  V30 8492 O 793.902 -5.60252 -1.07118 0
M  V30 8493 O 792.836 -5.96088 0.834447 0
M  V30 8494 H 796.662 -2.70067 1.38916 0
M  V30 8495 H 794.247 -1.2972 0.74115 0
M  V30 8496 H 796.129 -4.17514 -0.570991 0
M  V30 8497 H 794.804 -3.06969 -1.02721 0
M  V30 8498 H 793.711 -3.52799 1.24434 0
M  V30 8499 H 795.044 -4.64825 1.61859 0
M  V30 8500 N 796.696 -0.74468 -1.38897 0
M  V30 8501 C 797.606 -0.112892 -2.34328 0
M  V30 8502 C 798.622 0.71087 -1.58816 0
M  V30 8503 O 799.798 0.637092 -1.91058 0
M  V30 8504 C 796.863 0.776417 -3.37894 0
M  V30 8505 C 795.924 -0.0606999 -4.29257 0
M  V30 8506 C 795.157 0.786258 -5.27877 0
M  V30 8507 O 795.38 2.02463 -5.33259 0
M  V30 8508 O 794.314 0.209781 -6.01534 0
M  V30 8509 H 798.14 -0.900801 -2.90033 0
M  V30 8510 H 795.725 -0.505462 -1.4059 0
M  V30 8511 H 797.607 1.28496 -4.01331 0
M  V30 8512 H 796.282 1.54297 -2.84559 0
M  V30 8513 H 795.189 -0.614984 -3.69011 0
M  V30 8514 H 796.522 -0.789702 -4.85824 0
M  V30 8515 N 798.174 1.49689 -0.493057 0
M  V30 8516 C 799.104 2.31826 0.279073 0
M  V30 8517 C 800.085 1.39733 0.969987 0
M  V30 8518 O 801.27 1.68646 0.962925 0
M  V30 8519 C 798.4 3.20046 1.34862 0
M  V30 8520 C 797.354 4.20869 0.77805 0
M  V30 8521 C 796.68 4.97971 1.94753 0
M  V30 8522 C 797.98 5.21813 -0.225543 0
M  V30 8523 H 799.674 2.96627 -0.406512 0
M  V30 8524 H 797.22 1.42647 -0.196943 0
M  V30 8525 H 799.173 3.76315 1.89645 0
M  V30 8526 H 797.897 2.53172 2.06328 0
M  V30 8527 H 796.556 3.65733 0.252036 0
M  V30 8528 H 796.204 4.27552 2.64969 0
M  V30 8529 H 795.904 5.66186 1.57187 0
M  V30 8530 H 797.428 5.57082 2.49984 0
M  V30 8531 H 798.842 5.72823 0.233864 0
M  V30 8532 H 797.239 5.97872 -0.516622 0
M  V30 8533 H 798.309 4.71209 -1.14412 0
M  V30 8534 N 799.652 0.226554 1.55963 0
M  V30 8535 C 800.877 -0.411527 2.03276 0
M  V30 8536 C 801.302 -1.52206 1.10521 0
M  V30 8537 O 800.66 -1.81054 0.0943217 0
M  V30 8538 C 800.708 -0.915694 3.4878 0
M  V30 8539 O 799.812 -2.02672 3.59163 0
M  V30 8540 H 799.153 -0.0924907 0.657527 0
M  V30 8541 H 801.683 0.346656 2.01642 0
M  V30 8542 H 801.693 -1.22421 3.892 0
M  V30 8543 H 800.368 -0.102915 4.15773 0
M  V30 8544 H 798.945 -1.72445 3.30632 0
M  V30 8545 N 801.13 -1.57531 -0.0467866 0
M  V30 8546 C 802.407 -1.79568 -0.775536 0
M  V30 8547 C 802.787 -0.820322 -1.94509 0
M  V30 8548 O 802.135 0.14134 -2.28062 0
M  V30 8549 C 802.345 -3.26789 -1.22516 0
M  V30 8550 C 803.693 -3.91299 -1.64835 0
M  V30 8551 O 804.717 -3.30831 -1.3202 0
M  V30 8552 O 803.576 -4.97727 -2.25677 0
M  V30 8553 H 800.67 -0.737817 -0.373572 0
M  V30 8554 H 803.216 -1.69682 -0.0249302 0
M  V30 8555 H 801.988 -3.89357 -0.389446 0
M  V30 8556 H 801.611 -3.41496 -2.03633 0
M  V30 8557 N 802.608 0.318715 -1.54344 0
M  V30 8558 C 803.54 1.41364 -1.80413 0
M  V30 8559 C 804.553 1.47627 -0.686294 0
M  V30 8560 O 805.742 1.50264 -0.963486 0
M  V30 8561 C 802.842 2.79867 -1.91123 0
M  V30 8562 C 802.015 2.96749 -3.21339 0
M  V30 8563 C 801.074 4.15642 -3.22689 0
M  V30 8564 O 800.1 4.08571 -3.96306 0
M  V30 8565 N 801.302 5.25416 -2.46817 0
M  V30 8566 H 804.067 1.19363 -2.74905 0
M  V30 8567 H 801.628 0.508722 -1.537 0
M  V30 8568 H 803.62 3.57619 -1.89448 0
M  V30 8569 H 802.19 2.94896 -1.03706 0
M  V30 8570 H 801.41 2.06257 -3.35934 0
M  V30 8571 H 802.698 3.04927 -4.07304 0
M  V30 8572 H 802.096 5.34037 -1.86605 0
M  V30 8573 H 800.653 6.01569 -2.50915 0
M  V30 8574 N 804.086 1.46499 0.581025 0
M  V30 8575 C 805.033 1.5719 1.68997 0
M  V30 8576 C 806.003 0.416114 1.60803 0
M  V30 8577 O 807.188 0.633086 1.79991 0
M  V30 8578 C 804.328 1.56973 3.07333 0
M  V30 8579 C 803.441 2.83298 3.26139 0
M  V30 8580 C 802.576 2.74574 4.54734 0
M  V30 8581 C 801.615 3.9583 4.66889 0
M  V30 8582 N 800.752 3.85482 5.86811 0
M  V30 8583 H 805.592 2.51914 1.59196 0
M  V30 8584 H 803.129 1.24975 0.775857 0
M  V30 8585 H 805.087 1.54832 3.87405 0
M  V30 8586 H 803.717 0.657803 3.16027 0
M  V30 8587 H 802.769 2.95411 2.3966 0
M  V30 8588 H 804.081 3.7316 3.30988 0
M  V30 8589 H 803.235 2.70548 5.43036 0
M  V30 8590 H 801.974 1.82354 4.52325 0
M  V30 8591 H 800.979 4.00186 3.77003 0
M  V30 8592 H 802.204 4.89148 4.71075 0
M  V30 8593 H 800.15 2.96051 5.85397 0
M  V30 8594 H 800.067 4.69002 5.92936 0
M  V30 8595 H 801.335 3.85434 6.7754 0
M  V30 8596 N 805.565 -0.825799 1.34232 0
M  V30 8597 C 806.513 -1.95792 1.25572 0
M  V30 8598 C 807.507 -1.68695 0.154404 0
M  V30 8599 O 808.713 -1.77147 0.319196 0
M  V30 8600 H 805.088 -0.642949 0.390027 0
M  V30 8601 H 807.059 -2.00219 2.21258 0
M  V30 8602 C 805.808 -3.32245 1.02511 0
M  V30 8603 H 805.131 -3.53642 1.86487 0
M  V30 8604 H 806.571 -4.1192 1.00487 0
M  V30 8605 C 805.03 -3.35803 -0.27167 0
M  V30 8606 O 805.56 -3.80962 -1.274 0
M  V30 8607 N 803.766 -2.89008 -0.303778 0
M  V30 8608 H 803.313 -2.52451 0.512464 0
M  V30 8609 H 803.271 -2.9177 -1.17121 0
M  V30 8610 N 807.043 -1.17915 -1.04565 0
M  V30 8611 C 808.006 -0.903787 -2.10628 0
M  V30 8612 C 809.006 0.10873 -1.60432 0
M  V30 8613 O 810.196 -0.124152 -1.73757 0
M  V30 8614 C 807.328 -0.355017 -3.39046 0
M  V30 8615 H 808.521 -1.84425 -2.3649 0
M  V30 8616 H 806.074 -0.990477 -1.2091 0
M  V30 8617 H 806.809 0.592297 -3.18845 0
M  V30 8618 H 806.594 -1.08484 -3.76794 0
M  V30 8619 H 808.084 -0.180891 -4.17208 0
M  V30 8620 N 808.521 1.23394 -0.980386 0
M  V30 8621 C 809.932 1.73631 -0.686239 0
M  V30 8622 C 810.283 1.79259 0.797541 0
M  V30 8623 O 809.408 1.43046 1.62379 0
M  V30 8624 C 810.003 3.15332 -1.239 0
M  V30 8625 C 808.562 3.63024 -0.994494 0
M  V30 8626 C 807.709 2.41279 -1.36673 0
M  V30 8627 H 810.66 1.08918 -1.15423 0
M  V30 8628 H 810.681 3.75556 -0.611414 0
M  V30 8629 H 810.193 3.11204 -2.31892 0
M  V30 8630 H 808.294 3.72535 0.0693492 0
M  V30 8631 H 808.407 4.49825 -1.64906 0
M  V30 8632 H 806.771 2.42295 -0.785195 0
M  V30 8633 H 807.554 2.39822 -2.45642 0
M  V30 8634 N 809.999 0.752036 1.385 0
M  V30 8635 C 811.229 0.317812 2.04141 0
M  V30 8636 C 811.637 -1.05822 1.56839 0
M  V30 8637 O 810.98 -1.68311 0.736016 0
M  V30 8638 C 811.042 0.260205 3.58557 0
M  V30 8639 C 810.706 1.57753 4.28909 0
M  V30 8640 C 811.703 2.52642 4.54387 0
M  V30 8641 C 809.388 1.84653 4.67128 0
M  V30 8642 C 811.382 3.72653 5.17116 0
M  V30 8643 C 809.069 3.04938 5.29581 0
M  V30 8644 C 810.067 3.98759 5.54509 0
M  V30 8645 O 809.755 5.16929 6.15662 0
M  V30 8646 H 809.487 0.133931 0.6626 0
M  V30 8647 H 812.041 1.02138 1.78205 0
M  V30 8648 H 810.271 -0.499596 3.83459 0
M  V30 8649 H 811.96 -0.144295 4.05643 0
M  V30 8650 H 812.726 2.33135 4.25292 0
M  V30 8651 H 808.605 1.12464 4.47071 0
M  V30 8652 H 812.149 4.45898 5.36489 0
M  V30 8653 H 808.046 3.24339 5.58099 0
M  V30 8654 H 808.814 5.1749 6.3415 0
M  V30 8655 N 811.477 -1.49425 0.500989 0
M  V30 8656 C 812.409 -2.27037 -0.314159 0
M  V30 8657 C 813.422 -1.33578 -0.930626 0
M  V30 8658 O 814.611 -1.58861 -0.813968 0
M  V30 8659 C 811.711 -3.05968 -1.45729 0
M  V30 8660 C 810.884 -4.27 -0.948135 0
M  V30 8661 C 809.943 -4.87977 -1.96888 0
M  V30 8662 O 808.969 -5.48044 -1.53743 0
M  V30 8663 N 810.171 -4.77627 -3.29928 0
M  V30 8664 H 812.936 -2.97634 0.351336 0
M  V30 8665 H 810.497 -1.58427 0.333536 0
M  V30 8666 H 812.489 -3.43634 -2.1377 0
M  V30 8667 H 811.059 -2.37978 -2.02695 0
M  V30 8668 H 810.279 -3.94091 -0.0926311 0
M  V30 8669 H 811.567 -5.0541 -0.586362 0
M  V30 8670 H 810.965 -4.29926 -3.67669 0
M  V30 8671 H 809.522 -5.19478 -3.93682 0
M  V30 8672 N 812.955 -0.234822 -1.55841 0
M  V30 8673 C 813.905 0.68346 -2.17515 0
M  V30 8674 C 814.889 1.14798 -1.1274 0
M  V30 8675 O 816.081 1.09976 -1.38688 0
M  V30 8676 C 813.21 1.88551 -2.86886 0
M  V30 8677 C 812.296 1.44006 -3.98903 0
M  V30 8678 N 812.687 0.708034 -5.0082 0
M  V30 8679 C 810.985 1.7263 -4.11236 0
M  V30 8680 C 811.686 0.479036 -5.79724 0
M  V30 8681 N 810.662 1.03968 -5.33565 0
M  V30 8682 H 814.464 0.115897 -2.93671 0
M  V30 8683 H 811.978 -0.0366273 -1.62359 0
M  V30 8684 H 813.975 2.55425 -3.2949 0
M  V30 8685 H 812.635 2.45742 -2.12229 0
M  V30 8686 H 813.646 0.359363 -5.16652 0
M  V30 8687 H 810.323 2.31046 -3.47741 0
M  V30 8688 H 811.713 -0.104514 -6.71819 0
M  V30 8689 N 814.433 1.57553 0.0384317 0
M  V30 8690 C 815.366 2.01307 1.07475 0
M  V30 8691 C 816.344 0.895717 1.35704 0
M  V30 8692 O 817.528 1.16079 1.48519 0
M  V30 8693 C 814.655 2.37817 2.41165 0
M  V30 8694 C 813.701 3.599 2.28855 0
M  V30 8695 S 814.534 5.09418 1.65086 0
M  V30 8696 C 815.69 5.49162 3.00286 0
M  V30 8697 H 815.923 2.88892 0.702034 0
M  V30 8698 H 813.456 1.52394 0.248103 0
M  V30 8699 H 815.414 2.59524 3.18053 0
M  V30 8700 H 814.075 1.507 2.75587 0
M  V30 8701 H 813.268 3.83071 3.27525 0
M  V30 8702 H 812.87 3.37996 1.60109 0
M  V30 8703 H 815.162 5.49274 3.96617 0
M  V30 8704 H 816.105 6.49586 2.81858 0
M  V30 8705 H 816.513 4.76653 3.02427 0
M  V30 8706 N 815.911 -0.310526 1.54511 0
M  V30 8707 C 817.158 -1.04691 1.73338 0
M  V30 8708 C 817.486 -1.87584 0.514038 0
M  V30 8709 O 816.741 -1.89096 -0.504119 0
M  V30 8710 C 817.04 -1.98942 2.96912 0
M  V30 8711 C 816.706 -1.321 4.31115 0
M  V30 8712 C 815.368 -1.13603 4.67598 0
M  V30 8713 C 817.72 -0.842362 5.14348 0
M  V30 8714 C 815.048 -0.459102 5.84901 0
M  V30 8715 C 817.4 -0.179202 6.32346 0
M  V30 8716 C 816.064 0.0178111 6.67498 0
M  V30 8717 H 815.334 -0.38309 0.634289 0
M  V30 8718 H 817.981 -0.322723 1.88761 0
M  V30 8719 H 816.286 -2.77856 2.76231 0
M  V30 8720 H 817.983 -2.55972 3.08674 0
M  V30 8721 H 814.573 -1.47502 4.02419 0
M  V30 8722 H 818.757 -0.973013 4.86668 0
M  V30 8723 H 814.013 -0.295385 6.10686 0
M  V30 8724 H 818.187 0.199619 6.96114 0
M  V30 8725 H 815.814 0.544356 7.58249 0
M  V30 8726 N 817.389 -1.46805 -0.573248 0
M  V30 8727 C 818.805 -1.31969 -0.897577 0
M  V30 8728 C 819.005 -0.298171 -1.99282 0
M  V30 8729 O 818.061 0.295953 -2.5076 0
M  V30 8730 C 819.374 -2.70859 -1.30598 0
M  V30 8731 C 820.922 -2.79022 -1.4183 0
M  V30 8732 C 821.397 -4.18516 -1.86033 0
M  V30 8733 N 822.888 -4.2098 -1.9321 0
M  V30 8734 C 823.623 -5.25814 -2.28707 0
M  V30 8735 N 823.119 -6.40968 -2.6293 0
M  V30 8736 N 824.912 -5.13184 -2.29343 0
M  V30 8737 H 817.063 -2.11869 0.150094 0
M  V30 8738 H 819.326 -0.947989 0.00447895 0
M  V30 8739 H 819.032 -3.46965 -0.575161 0
M  V30 8740 H 818.906 -3.01585 -2.26554 0
M  V30 8741 H 821.293 -2.03198 -2.13996 0
M  V30 8742 H 821.374 -2.51969 -0.441024 0
M  V30 8743 H 821.018 -4.94839 -1.14442 0
M  V30 8744 H 820.948 -4.42982 -2.84735 0
M  V30 8745 H 823.439 -3.37898 -1.69214 0
M  V30 8746 H 823.752 -7.16729 -2.88996 0
M  V30 8747 H 822.097 -6.44314 -2.60547 0
M  V30 8748 H 825.288 -4.22255 -2.02036 0
M  V30 8749 H 825.461 -5.94996 -2.56679 0
M  V30 8750 N 818.867 0.818669 -1.34668 0
M  V30 8751 C 819.797 1.94468 -1.29245 0
M  V30 8752 C 820.778 1.69257 -0.169101 0
M  V30 8753 O 821.963 1.90794 -0.362143 0
M  V30 8754 C 819.093 3.31001 -1.05145 0
M  V30 8755 C 818.047 3.70663 -2.13992 0
M  V30 8756 C 817.373 5.05226 -1.75074 0
M  V30 8757 C 818.673 3.82312 -3.55858 0
M  V30 8758 H 820.367 1.99263 -2.2346 0
M  V30 8759 H 817.913 0.957304 -1.07572 0
M  V30 8760 H 819.866 4.09364 -0.999949 0
M  V30 8761 H 818.59 3.26517 -0.0737312 0
M  V30 8762 H 817.249 2.94578 -2.18219 0
M  V30 8763 H 816.897 4.97233 -0.759518 0
M  V30 8764 H 816.597 5.32734 -2.47928 0
M  V30 8765 H 818.121 5.86042 -1.71427 0
M  V30 8766 H 819.535 4.50935 -3.5402 0
M  V30 8767 H 817.932 4.21278 -4.2737 0
M  V30 8768 H 819.002 2.84193 -3.9289 0
M  V30 8769 N 820.346 1.18468 1.03938 0
M  V30 8770 C 821.586 0.991823 1.78724 0
M  V30 8771 C 821.95 -0.470115 1.86156 0
M  V30 8772 O 823.151 -0.782451 2.5716 0
M  V30 8773 C 821.422 1.63018 3.18056 0
M  V30 8774 S 822.981 1.58527 4.09163 0
M  V30 8775 H 819.799 0.356137 0.615376 0
M  V30 8776 H 822.401 1.50634 1.24618 0
M  V30 8777 H 821.105 2.68642 3.10258 0
M  V30 8778 H 820.636 1.11601 3.77238 0
M  V30 8779 H 822.651 0.602059 4.92534 0
M  V30 8780 N 821.824 -1.22873 0.986916 0
M  V30 8781 C 823.054 -1.95204 0.67668 0
M  V30 8782 C 823.462 -1.73193 -0.761641 0
M  V30 8783 O 822.805 -1.0243 -1.52492 0
M  V30 8784 C 822.867 -3.48173 0.895302 0
M  V30 8785 C 822.531 -3.93912 2.31695 0
M  V30 8786 C 823.528 -4.02064 3.29607 0
M  V30 8787 C 821.213 -4.26722 2.64978 0
M  V30 8788 C 823.207 -4.42391 4.58878 0
M  V30 8789 C 820.894 -4.66729 3.94471 0
M  V30 8790 C 821.892 -4.74531 4.91232 0
M  V30 8791 O 821.58 -5.13636 6.18412 0
M  V30 8792 H 821.312 -0.628105 0.24992 0
M  V30 8793 H 823.866 -1.5714 1.32274 0
M  V30 8794 H 822.096 -3.86223 0.192072 0
M  V30 8795 H 823.785 -4.01717 0.581233 0
M  V30 8796 H 824.551 -3.76912 3.05225 0
M  V30 8797 H 820.43 -4.19858 1.9037 0
M  V30 8798 H 823.974 -4.48395 5.34404 0
M  V30 8799 H 819.871 -4.91332 4.18645 0
M  V30 8800 H 820.639 -5.31728 6.2226 0
M  V30 8801 N 823.302 -0.75937 -1.38099 0
M  V30 8802 C 824.718 -0.437606 -1.53483 0
M  V30 8803 C 824.918 1.04849 -1.72072 0
M  V30 8804 O 823.974 1.83448 -1.73502 0
M  V30 8805 C 825.287 -1.24189 -2.73857 0
M  V30 8806 C 826.835 -1.23255 -2.8771 0
M  V30 8807 C 827.31 -2.01992 -4.11051 0
M  V30 8808 N 828.801 -1.99282 -4.1814 0
M  V30 8809 C 829.536 -2.56996 -5.12583 0
M  V30 8810 N 829.032 -3.23446 -6.12662 0
M  V30 8811 N 830.825 -2.46894 -5.04975 0
M  V30 8812 H 822.976 -1.72242 -1.24283 0
M  V30 8813 H 825.239 -0.730507 -0.604205 0
M  V30 8814 H 824.945 -2.29449 -2.66545 0
M  V30 8815 H 824.819 -0.862672 -3.67203 0
M  V30 8816 H 827.206 -0.187988 -2.94501 0
M  V30 8817 H 827.287 -1.65132 -1.95359 0
M  V30 8818 H 826.931 -3.06462 -4.05023 0
M  V30 8819 H 826.861 -1.57505 -5.02494 0
M  V30 8820 H 829.352 -1.50893 -3.46467 0
M  V30 8821 H 829.665 -3.6489 -6.81231 0
M  V30 8822 H 828.01 -3.27543 -6.12977 0
M  V30 8823 H 831.201 -1.94604 -4.25731 0
M  V30 8824 H 831.374 -2.92168 -5.78396 0
M  V30 8825 N 824.78 1.49157 -0.508906 0
M  V30 8826 C 826.026 2.02773 0.0328469 0
M  V30 8827 C 826.359 1.38714 1.35912 0
M  V30 8828 O 825.634 0.525536 1.87266 0
M  V30 8829 C 825.917 3.59664 0.177088 0
M  V30 8830 C 825.77 4.34239 -1.17287 0
M  V30 8831 C 827.089 4.30505 0.913977 0
M  V30 8832 H 824.208 0.736926 0.0104631 0
M  V30 8833 H 826.85 1.781 -0.661851 0
M  V30 8834 H 825 3.80818 0.768774 0
M  V30 8835 H 826.672 4.24561 -1.80404 0
M  V30 8836 H 824.915 3.96486 -1.76016 0
M  V30 8837 H 825.586 5.42397 -1.02516 0
M  V30 8838 H 828.062 4.14054 0.412084 0
M  V30 8839 H 826.938 5.40012 0.983759 0
M  V30 8840 H 827.199 3.96302 1.95951 0
M  V30 8841 N 826.258 0.243083 1.55714 0
M  V30 8842 C 827.188 -0.652336 2.24203 0
M  V30 8843 C 828.169 -1.1843 1.221 0
M  V30 8844 O 829.354 -1.22435 1.50743 0
M  V30 8845 C 826.484 -1.85111 2.93856 0
M  V30 8846 C 825.438 -1.45208 4.02615 0
M  V30 8847 C 824.764 -2.73137 4.59674 0
M  V30 8848 C 826.064 -0.625988 5.18535 0
M  V30 8849 H 827.758 -0.0812504 2.9929 0
M  V30 8850 H 825.304 -0.0376388 1.43951 0
M  V30 8851 H 827.257 -2.48314 3.40468 0
M  V30 8852 H 825.981 -2.44751 2.16251 0
M  V30 8853 H 824.64 -0.843406 3.56766 0
M  V30 8854 H 824.288 -3.30967 3.78774 0
M  V30 8855 H 823.988 -2.47163 5.33089 0
M  V30 8856 H 825.512 -3.37245 5.09017 0
M  V30 8857 H 826.926 -1.16223 5.61396 0
M  V30 8858 H 825.323 -0.462465 5.98315 0
M  V30 8859 H 826.393 0.362652 4.83542 0
M  V30 8860 N 827.736 -1.57571 -0.0300757 0
M  V30 8861 C 829.152 -1.54869 -0.385703 0
M  V30 8862 C 829.352 -0.969068 -1.76667 0
M  V30 8863 O 828.408 -0.589676 -2.45518 0
M  V30 8864 C 829.721 -2.99313 -0.288482 0
M  V30 8865 C 831.269 -3.10857 -0.365638 0
M  V30 8866 C 831.744 -4.5703 -0.297878 0
M  V30 8867 N 833.235 -4.61825 -0.356703 0
M  V30 8868 C 833.97 -5.72466 -0.327146 0
M  V30 8869 N 833.466 -6.92349 -0.249941 0
M  V30 8870 N 835.259 -5.60836 -0.376801 0
M  V30 8871 H 827.41 -1.936 0.87367 0
M  V30 8872 H 829.673 -0.887924 0.332106 0
M  V30 8873 H 829.379 -3.45443 0.66047 0
M  V30 8874 H 829.253 -3.61332 -1.08253 0
M  V30 8875 H 831.64 -2.64676 -1.30502 0
M  V30 8876 H 831.721 -2.51671 0.457744 0
M  V30 8877 H 831.365 -5.03879 0.637835 0
M  V30 8878 H 831.295 -5.14127 -1.13935 0
M  V30 8879 H 833.786 -3.75571 -0.418926 0
M  V30 8880 H 834.099 -7.7245 -0.23246 0
M  V30 8881 H 832.444 -6.94664 -0.216004 0
M  V30 8882 H 835.635 -4.66073 -0.435101 0
M  V30 8883 H 835.808 -6.47052 -0.350298 0
M  V30 8884 N 829.214 0.302327 -1.54673 0
M  V30 8885 C 830.164 1.37443 -1.81916 0
M  V30 8886 C 831.148 1.45999 -0.676251 0
M  V30 8887 O 832.34 1.50174 -0.93685 0
M  V30 8888 C 829.469 2.73966 -2.06876 0
M  V30 8889 C 828.555 2.69637 -3.27348 0
M  V30 8890 N 828.946 2.34926 -4.47933 0
M  V30 8891 C 827.244 3.00742 -3.29348 0
M  V30 8892 C 827.945 2.39862 -5.29944 0
M  V30 8893 N 826.921 2.77163 -4.67634 0
M  V30 8894 H 830.723 1.09567 -2.72713 0
M  V30 8895 H 828.237 0.5109 -1.54154 0
M  V30 8896 H 830.234 3.51265 -2.2454 0
M  V30 8897 H 828.894 3.02754 -1.17346 0
M  V30 8898 H 829.905 2.07403 -4.74557 0
M  V30 8899 H 826.582 3.34434 -2.49921 0
M  V30 8900 H 827.972 2.15835 -6.3629 0
M  V30 8901 N 830.692 1.47107 0.565454 0
M  V30 8902 C 831.917 1.57153 1.35343 0
M  V30 8903 C 832.342 0.219247 1.86818 0
M  V30 8904 O 831.7 -0.803539 1.62521 0
M  V30 8905 C 831.748 2.59387 2.50501 0
M  V30 8906 O 830.852 2.14086 3.52478 0
M  V30 8907 H 830.193 0.528209 0.402357 0
M  V30 8908 H 832.723 1.92821 0.684189 0
M  V30 8909 H 832.733 2.79546 2.97184 0
M  V30 8910 H 831.408 3.57579 2.12391 0
M  V30 8911 H 829.985 2.03991 3.12157 0
M  V30 8912 N 832.17 -0.811516 1.35101 0
M  V30 8913 C 833.102 -1.93102 1.23468 0
M  V30 8914 C 834.115 -1.62021 0.159095 0
M  V30 8915 O 835.304 -1.73682 0.411945 0
M  V30 8916 C 832.404 -3.27345 0.877404 0
M  V30 8917 C 831.577 -3.86368 2.05033 0
M  V30 8918 C 830.636 -4.99009 1.66963 0
M  V30 8919 O 829.662 -5.16698 2.38772 0
M  V30 8920 N 830.864 -5.7749 0.590394 0
M  V30 8921 H 833.629 -2.0361 2.19916 0
M  V30 8922 H 831.19 -0.988687 1.28205 0
M  V30 8923 H 833.182 -4.00163 0.604298 0
M  V30 8924 H 831.752 -3.126 0.00275267 0
M  V30 8925 H 830.972 -3.05804 2.48752 0
M  V30 8926 H 832.26 -4.22533 2.83449 0
M  V30 8927 H 831.658 -5.657 -0.00633259 0
M  V30 8928 H 830.215 -6.50708 0.377055 0
M  V30 8929 N 833.648 -1.19017 -1.03309 0
M  V30 8930 C 834.558 -0.939303 -2.14975 0
M  V30 8931 C 835.574 0.0992359 -1.73717 0
M  V30 8932 O 836.75 -0.0844362 -2.01223 0
M  V30 8933 C 833.815 -0.476712 -3.43407 0
M  V30 8934 C 832.876 -1.58413 -3.99003 0
M  V30 8935 C 832.109 -1.14352 -5.21305 0
M  V30 8936 O 832.332 -0.00534408 -5.704 0
M  V30 8937 O 831.266 -1.94436 -5.6963 0
M  V30 8938 H 835.092 -1.87386 -2.38998 0
M  V30 8939 H 832.677 -0.972635 -1.13403 0
M  V30 8940 H 834.559 -0.22718 -4.20787 0
M  V30 8941 H 833.234 0.429455 -3.20839 0
M  V30 8942 H 832.141 -1.88777 -3.22977 0
M  V30 8943 H 833.474 -2.4667 -4.25928 0
M  V30 8944 N 835.127 1.22348 -0.993418 0
M  V30 8945 C 836.404 1.86632 -0.585495 0
M  V30 8946 C 836.784 1.89156 0.937187 0
M  V30 8947 O 836.132 1.38247 1.81934 0
M  V30 8948 C 836.342 3.27481 -1.20652 0
M  V30 8949 C 837.69 4.03971 -1.30738 0
M  V30 8950 O 838.714 3.3675 -1.16096 0
M  V30 8951 O 837.573 5.24302 -1.54173 0
M  V30 8952 H 834.667 0.802704 -0.198984 0
M  V30 8953 H 837.213 1.30122 -1.08933 0
M  V30 8954 H 835.985 3.20281 -2.24802 0
M  V30 8955 H 835.608 3.91597 -0.688312 0
M  V30 8956 N 836.605 0.766683 1.37694 0
M  V30 8957 C 837.835 0.339446 2.03792 0
M  V30 8958 C 838.243 -1.04153 1.57952 0
M  V30 8959 O 837.586 -1.67521 0.753826 0
M  V30 8960 C 837.648 0.29822 3.58261 0
M  V30 8961 C 837.312 1.62293 4.27212 0
M  V30 8962 C 838.309 2.57447 4.51682 0
M  V30 8963 C 835.994 1.89597 4.65143 0
M  V30 8964 C 837.988 3.78117 5.13134 0
M  V30 8965 C 835.675 3.10538 5.26317 0
M  V30 8966 C 836.673 4.04617 5.50249 0
M  V30 8967 O 836.361 5.23429 6.10145 0
M  V30 8968 H 836.093 0.140952 0.661142 0
M  V30 8969 H 838.647 1.04022 1.77111 0
M  V30 8970 H 836.877 -0.458897 3.83967 0
M  V30 8971 H 838.566 -0.101263 4.05774 0
M  V30 8972 H 839.332 2.37633 4.22795 0
M  V30 8973 H 835.211 1.17199 4.45854 0
M  V30 8974 H 838.755 4.51563 5.3173 0
M  V30 8975 H 834.652 3.3024 5.54628 0
M  V30 8976 H 835.42 5.24187 6.28626 0
M  V30 8977 N 838.083 -1.48885 0.516809 0
M  V30 8978 C 839.499 -1.58651 0.173788 0
M  V30 8979 C 839.699 -1.52033 -1.32243 0
M  V30 8980 O 838.755 -1.40251 -2.09967 0
M  V30 8981 C 840.068 -2.90816 0.764628 0
M  V30 8982 C 841.616 -3.04316 0.732164 0
M  V30 8983 C 842.091 -4.39123 1.30135 0
M  V30 8984 N 843.582 -4.45656 1.26273 0
M  V30 8985 C 844.317 -5.48446 1.67317 0
M  V30 8986 N 843.813 -6.58258 2.16028 0
M  V30 8987 N 845.606 -5.39251 1.58635 0
M  V30 8988 H 837.757 -1.5143 1.48939 0
M  V30 8989 H 840.02 -0.718243 0.618733 0
M  V30 8990 H 839.726 -3.01275 1.81456 0
M  V30 8991 H 839.6 -3.76473 0.234113 0
M  V30 8992 H 841.987 -2.93478 -0.308975 0
M  V30 8993 H 842.068 -2.20303 1.3 0
M  V30 8994 H 841.712 -4.50714 2.34135 0
M  V30 8995 H 841.642 -5.21801 0.709305 0
M  V30 8996 H 844.133 -3.66879 0.906006 0
M  V30 8997 H 844.446 -7.32811 2.45374 0
M  V30 8998 H 842.791 -6.59257 2.20013 0
M  V30 8999 H 845.982 -4.52354 1.20387 0
M  V30 9000 H 846.155 -6.19229 1.90944 0
M  V30 9001 N 839.561 -0.251338 -1.55583 0
M  V30 9002 C 840.508 0.646337 -2.21565 0
M  V30 9003 C 841.478 1.16796 -1.18102 0
M  V30 9004 O 842.663 1.22162 -1.46564 0
M  V30 9005 C 839.803 1.83557 -2.92234 0
M  V30 9006 C 838.916 1.35006 -4.10363 0
M  V30 9007 C 838.051 2.4992 -4.68736 0
M  V30 9008 C 837.09 1.98253 -5.79105 0
M  V30 9009 N 836.227 3.06551 -6.31642 0
M  V30 9010 H 841.067 0.0769881 -2.97901 0
M  V30 9011 H 838.604 0.026238 -1.47077 0
M  V30 9012 H 840.562 2.53425 -3.31408 0
M  V30 9013 H 839.192 2.37733 -2.18364 0
M  V30 9014 H 838.244 0.545274 -3.76472 0
M  V30 9015 H 839.556 0.931435 -4.90026 0
M  V30 9016 H 838.71 3.27823 -5.10507 0
M  V30 9017 H 837.449 2.95086 -3.88298 0
M  V30 9018 H 836.454 1.18822 -5.36807 0
M  V30 9019 H 837.679 1.54051 -6.61396 0
M  V30 9020 H 835.625 3.51143 -5.54107 0
M  V30 9021 H 835.542 2.69033 -7.06511 0
M  V30 9022 H 836.81 3.84499 -6.78071 0
M  V30 9023 N 841.039 1.57585 0.0217189 0
M  V30 9024 C 841.987 2.08134 1.03842 0
M  V30 9025 C 842.981 0.996662 1.36978 0
M  V30 9026 O 844.187 1.18149 1.35797 0
M  V30 9027 H 840.562 0.664298 0.352438 0
M  V30 9028 H 842.533 2.92583 0.58634 0
M  V30 9029 C 841.282 2.58218 2.32849 0
M  V30 9030 H 840.605 3.41302 2.08214 0
M  V30 9031 H 842.045 2.97289 3.02316 0
M  V30 9032 C 840.504 1.48664 3.02325 0
M  V30 9033 O 841.034 0.857075 3.9245 0
M  V30 9034 N 839.24 1.21938 2.63779 0
M  V30 9035 H 838.787 1.73319 1.90574 0
M  V30 9036 H 838.745 0.488523 3.10581 0
M  V30 9037 N 842.517 -0.29412 1.54831 0
M  V30 9038 C 843.449 -1.38476 1.82639 0
M  V30 9039 C 844.462 -1.46517 0.709694 0
M  V30 9040 O 845.651 -1.48712 0.987269 0
M  V30 9041 C 842.751 -2.76791 1.95551 0
M  V30 9042 C 841.924 -2.91599 3.26019 0
M  V30 9043 C 840.983 -4.10456 3.29261 0
M  V30 9044 O 840.009 -4.02214 4.02756 0
M  V30 9045 N 841.211 -5.21422 2.55145 0
M  V30 9046 H 843.976 -1.14974 2.76769 0
M  V30 9047 H 841.537 -0.484206 1.5449 0
M  V30 9048 H 843.529 -3.5456 1.95113 0
M  V30 9049 H 842.099 -2.93209 1.08384 0
M  V30 9050 H 841.319 -2.00886 3.39173 0
M  V30 9051 H 842.607 -2.98409 4.12104 0
M  V30 9052 H 842.005 -5.31 1.95078 0
M  V30 9053 H 840.562 -5.97501 2.60454 0
M  V30 9054 N 843.995 -1.47404 -0.557645 0
M  V30 9055 C 844.905 -1.62491 -1.69216 0
M  V30 9056 C 845.921 -0.507764 -1.66426 0
M  V30 9057 O 847.097 -0.775241 -1.85882 0
M  V30 9058 C 844.162 -1.63511 -3.05721 0
M  V30 9059 C 843.223 -2.86648 -3.1958 0
M  V30 9060 C 842.456 -2.87609 -4.49574 0
M  V30 9061 O 842.679 -1.97799 -5.35006 0
M  V30 9062 O 841.613 -3.79465 -4.67215 0
M  V30 9063 H 845.439 -2.58487 -1.59431 0
M  V30 9064 H 843.024 -1.30485 -0.7276 0
M  V30 9065 H 844.906 -1.66863 -3.86956 0
M  V30 9066 H 843.581 -0.706812 -3.15889 0
M  V30 9067 H 842.488 -2.8884 -2.37744 0
M  V30 9068 H 843.821 -3.7877 -3.14316 0
M  V30 9069 N 845.473 0.80434 -1.35529 0
M  V30 9070 C 846.423 1.90565 -1.25175 0
M  V30 9071 C 847.407 1.60232 -0.146512 0
M  V30 9072 O 848.599 1.72918 -0.377943 0
M  V30 9073 C 845.728 3.2754 -1.02823 0
M  V30 9074 C 844.814 3.63932 -2.17748 0
M  V30 9075 N 845.205 3.71744 -3.42986 0
M  V30 9076 C 843.503 3.93901 -2.09184 0
M  V30 9077 C 844.204 4.03944 -4.18574 0
M  V30 9078 N 843.18 4.18146 -3.47355 0
M  V30 9079 H 846.982 1.9481 -2.20059 0
M  V30 9080 H 844.496 0.99905 -1.28034 0
M  V30 9081 H 846.493 4.06281 -0.934941 0
M  V30 9082 H 845.153 3.2458 -0.0882551 0
M  V30 9083 H 846.164 3.54765 -3.77309 0
M  V30 9084 H 842.841 3.98954 -1.23054 0
M  V30 9085 H 844.231 4.17036 -5.26811 0
M  V30 9086 N 846.951 1.19563 1.02676 0
M  V30 9087 C 848.2 0.993864 1.75514 0
M  V30 9088 C 848.513 -0.475882 1.89723 0
M  V30 9089 O 849.719 -0.796525 2.59553 0
M  V30 9090 C 848.175 1.72937 3.15628 0
M  V30 9091 C 847.783 3.23937 3.09466 0
M  V30 9092 C 849.527 1.61092 3.92746 0
M  V30 9093 C 847.434 3.90067 4.44524 0
M  V30 9094 H 846.364 0.368244 0.657961 0
M  V30 9095 H 849.015 1.43081 1.14891 0
M  V30 9096 H 847.397 1.22025 3.76731 0
M  V30 9097 H 848.571 3.81983 2.57731 0
M  V30 9098 H 846.886 3.3608 2.45843 0
M  V30 9099 H 849.483 2.07848 4.92649 0
M  V30 9100 H 849.826 0.565415 4.12442 0
M  V30 9101 H 850.359 2.09361 3.3825 0
M  V30 9102 H 847.098 4.94725 4.30032 0
M  V30 9103 H 846.618 3.36809 4.96306 0
M  V30 9104 H 848.297 3.93736 5.13401 0
M  V30 9105 N 848.429 -1.21819 0.999893 0
M  V30 9106 C 849.392 -2.22227 0.561044 0
M  V30 9107 C 850.392 -1.56722 -0.359858 0
M  V30 9108 O 851.582 -1.73546 -0.150848 0
M  V30 9109 C 848.714 -3.40409 -0.182987 0
M  V30 9110 H 849.907 -2.62567 1.44909 0
M  V30 9111 H 847.46 -1.34991 0.78785 0
M  V30 9112 H 848.195 -3.05551 -1.08671 0
M  V30 9113 H 847.98 -3.89171 0.47833 0
M  V30 9114 H 849.47 -4.14856 -0.477952 0
M  V30 9115 N 849.908 -0.773975 -1.37286 0
M  V30 9116 C 850.855 -0.159938 -2.30245 0
M  V30 9117 C 851.825 0.687356 -1.51211 0
M  V30 9118 O 853.01 0.639255 -1.79773 0
M  V30 9119 C 850.15 0.711452 -3.37687 0
M  V30 9120 C 849.263 -0.152692 -4.3173 0
M  V30 9121 C 848.398 0.723613 -5.26248 0
M  V30 9122 C 847.437 -0.14293 -6.11933 0
M  V30 9123 N 846.574 0.691479 -6.98687 0
M  V30 9124 H 851.414 -0.958182 -2.82175 0
M  V30 9125 H 848.951 -0.48411 -1.38906 0
M  V30 9126 H 850.909 1.2315 -3.9861 0
M  V30 9127 H 849.539 1.47528 -2.87116 0
M  V30 9128 H 848.591 -0.790574 -3.72094 0
M  V30 9129 H 849.903 -0.821027 -4.91997 0
M  V30 9130 H 849.057 1.31006 -5.92387 0
M  V30 9131 H 847.796 1.42562 -4.66398 0
M  V30 9132 H 846.801 -0.7419 -5.44771 0
M  V30 9133 H 848.026 -0.842305 -6.73856 0
M  V30 9134 H 845.972 1.37806 -6.41362 0
M  V30 9135 H 845.889 0.0804911 -7.55957 0
M  V30 9136 H 847.157 1.26225 -7.69212 0
M  V30 9137 N 851.386 1.48609 -0.524698 0
M  V30 9138 C 852.318 2.27508 0.278 0
M  V30 9139 C 853.331 1.35042 0.909258 0
M  V30 9140 O 854.52 1.60136 0.788592 0
M  V30 9141 C 851.62 3.08247 1.40843 0
M  V30 9142 C 850.793 4.28455 0.880083 0
M  V30 9143 C 849.852 4.91048 1.891 0
M  V30 9144 O 848.878 5.5042 1.45005 0
M  V30 9145 N 850.08 4.82816 3.22288 0
M  V30 9146 H 852.845 2.97037 -0.398642 0
M  V30 9147 H 850.406 1.57876 -0.358698 0
M  V30 9148 H 852.398 3.46992 2.08276 0
M  V30 9149 H 850.968 2.41173 1.98883 0
M  V30 9150 H 850.188 3.94189 0.0299228 0
M  V30 9151 H 851.476 5.06279 0.505881 0
M  V30 9152 H 850.874 4.3572 3.60783 0
M  V30 9153 H 849.431 5.25676 3.85368 0
M  V30 9154 N 852.864 0.259585 1.55447 0
M  V30 9155 C 854.111 -0.361607 1.99245 0
M  V30 9156 C 854.439 -1.57017 1.14787 0
M  V30 9157 O 853.694 -1.94658 0.201724 0
M  V30 9158 C 853.993 -0.802727 3.48269 0
M  V30 9159 C 853.659 0.299472 4.49904 0
M  V30 9160 C 852.321 0.602157 4.77418 0
M  V30 9161 C 854.673 1.04295 5.10658 0
M  V30 9162 C 852.001 1.65217 5.62957 0
M  V30 9163 C 854.353 2.08257 5.97337 0
M  V30 9164 C 853.017 2.39177 6.23178 0
M  V30 9165 H 852.287 -0.132322 0.72909 0
M  V30 9166 H 854.934 0.370059 1.8789 0
M  V30 9167 H 853.239 -1.61381 3.5702 0
M  V30 9168 H 854.936 -1.29385 3.79553 0
M  V30 9169 H 851.526 0.0534256 4.28567 0
M  V30 9170 H 855.71 0.822358 4.89439 0
M  V30 9171 H 850.966 1.89692 5.81229 0
M  V30 9172 H 855.14 2.6635 6.43452 0
M  V30 9173 H 852.767 3.20677 6.89253 0
M  V30 9174 N 854.342 -1.57594 -0.0133615 0
M  V30 9175 C 855.59 -1.89605 -0.699596 0
M  V30 9176 C 855.911 -0.85926 -1.75048 0
M  V30 9177 O 855.181 0.105112 -1.95618 0
M  V30 9178 H 853.761 -0.699776 -0.261385 0
M  V30 9179 H 856.423 -1.94885 0.0244044 0
M  V30 9180 H 855.519 -2.88962 -1.17928 0
M  V30 9181 N 855.82 0.285905 -1.54985 0
M  V30 9182 C 856.753 1.37817 -1.81884 0
M  V30 9183 C 857.731 1.4811 -0.670988 0
M  V30 9184 O 858.915 1.64936 -0.912595 0
M  V30 9185 C 856.042 2.75587 -1.969 0
M  V30 9186 C 855.088 2.82643 -3.19398 0
M  V30 9187 S 855.921 2.43199 -4.7709 0
M  V30 9188 C 857.077 3.82969 -4.95061 0
M  V30 9189 H 857.31 1.14794 -2.74244 0
M  V30 9190 H 854.843 0.484843 -1.4659 0
M  V30 9191 H 856.801 3.54932 -2.06236 0
M  V30 9192 H 855.462 2.9587 -1.05451 0
M  V30 9193 H 854.655 3.8373 -3.26753 0
M  V30 9194 H 854.257 2.11306 -3.08586 0
M  V30 9195 H 856.549 4.78117 -4.80011 0
M  V30 9196 H 857.492 3.80575 -5.97133 0
M  V30 9197 H 857.9 3.73673 -4.23118 0
M  V30 9198 N 857.298 1.47698 0.54982 0
M  V30 9199 C 858.231 1.55288 1.67215 0
M  V30 9200 C 859.209 0.404533 1.57487 0
M  V30 9201 O 860.393 0.613372 1.78241 0
M  V30 9202 C 857.52 1.46233 3.05505 0
M  V30 9203 C 856.566 2.65662 3.33655 0
M  V30 9204 S 857.399 4.278 3.22098 0
M  V30 9205 C 858.555 4.21311 4.62869 0
M  V30 9206 H 858.788 2.50238 1.60524 0
M  V30 9207 H 856.321 1.35987 0.731227 0
M  V30 9208 H 858.279 1.41696 3.85269 0
M  V30 9209 H 856.94 0.526543 3.09655 0
M  V30 9210 H 856.133 2.55411 4.3449 0
M  V30 9211 H 855.735 2.67359 2.61524 0
M  V30 9212 H 858.027 3.90021 5.53977 0
M  V30 9213 H 858.97 5.22257 4.78177 0
M  V30 9214 H 859.378 3.52063 4.41262 0
M  V30 9215 N 858.776 -0.797141 1.35954 0
M  V30 9216 C 859.708 -1.91782 1.25509 0
M  V30 9217 C 860.721 -1.61843 0.176271 0
M  V30 9218 O 861.91 -1.73235 0.430343 0
M  V30 9219 C 859.01 -3.26396 0.912073 0
M  V30 9220 C 858.183 -3.84171 2.0912 0
M  V30 9221 C 857.242 -4.9721 1.72246 0
M  V30 9222 O 856.268 -5.14136 2.44239 0
M  V30 9223 N 857.47 -5.76831 0.651611 0
M  V30 9224 H 860.235 -2.01266 2.22063 0
M  V30 9225 H 857.796 -0.975033 1.29247 0
M  V30 9226 H 859.788 -3.99499 0.646707 0
M  V30 9227 H 858.358 -3.12579 0.0359079 0
M  V30 9228 H 857.578 -3.03148 2.51982 0
M  V30 9229 H 858.866 -4.19503 2.87914 0
M  V30 9230 H 858.264 -5.65675 0.0536678 0
M  V30 9231 H 856.821 -6.50272 0.44605 0
M  V30 9232 N 860.254 -1.20106 -1.0204 0
M  V30 9233 C 861.479 -1.0351 -1.79723 0
M  V30 9234 C 861.904 0.411328 -1.83548 0
M  V30 9235 O 861.262 1.29608 -1.26773 0
M  V30 9236 C 861.31 -1.61876 -3.22224 0
M  V30 9237 O 860.414 -0.853813 -4.03465 0
M  V30 9238 H 859.755 -0.365299 -0.554484 0
M  V30 9239 H 862.285 -1.59316 -1.28373 0
M  V30 9240 H 862.295 -1.65451 -3.72948 0
M  V30 9241 H 860.97 -2.67148 -3.18755 0
M  V30 9242 H 859.547 -0.891983 -3.62075 0
M  V30 9243 N 861.732 1.21287 -1.00634 0
M  V30 9244 C 862.664 2.2308 -0.526094 0
M  V30 9245 C 863.677 1.58157 0.386031 0
M  V30 9246 O 864.866 1.77528 0.186016 0
M  V30 9247 C 861.966 3.37937 0.255289 0
M  V30 9248 C 861.139 4.32449 -0.656236 0
M  V30 9249 C 860.198 5.26145 0.0757714 0
M  V30 9250 O 859.224 5.66601 -0.543325 0
M  V30 9251 N 860.426 5.6449 1.35391 0
M  V30 9252 H 863.191 2.64913 -1.40147 0
M  V30 9253 H 860.752 1.35724 -0.882641 0
M  V30 9254 H 862.744 3.97614 0.753977 0
M  V30 9255 H 861.314 2.95078 1.03187 0
M  V30 9256 H 860.534 3.70892 -1.3354 0
M  V30 9257 H 861.822 4.92526 -1.27653 0
M  V30 9258 H 861.22 5.33617 1.878 0
M  V30 9259 H 859.777 6.26524 1.79753 0
M  V30 9260 N 863.21 0.781244 1.36873 0
M  V30 9261 C 864.459 0.34652 1.98701 0
M  V30 9262 C 864.772 -1.08555 1.62712 0
M  V30 9263 O 865.978 -1.62213 2.17713 0
M  V30 9264 C 864.434 0.568611 3.5538 0
M  V30 9265 C 864.042 2.01156 4.003 0
M  V30 9266 C 865.786 0.197983 4.24038 0
M  V30 9267 C 863.693 2.18074 5.49725 0
M  V30 9268 H 862.623 0.125821 0.743428 0
M  V30 9269 H 865.274 0.961721 1.56279 0
M  V30 9270 H 863.656 -0.116185 3.9583 0
M  V30 9271 H 864.83 2.73209 3.71071 0
M  V30 9272 H 863.145 2.33967 3.44454 0
M  V30 9273 H 865.742 0.302778 5.33842 0
M  V30 9274 H 866.085 -0.852927 4.07469 0
M  V30 9275 H 866.618 0.835696 3.88923 0
M  V30 9276 H 863.357 3.21519 5.71232 0
M  V30 9277 H 862.877 1.50517 5.80607 0
M  V30 9278 H 864.556 1.98393 6.15832 0
M  V30 9279 N 864.689 -1.48329 0.532571 0
M  V30 9280 C 865.937 -2.021 -0.000581206 0
M  V30 9281 C 866.258 -1.4117 -1.34522 0
M  V30 9282 O 865.528 -0.578005 -1.87179 0
M  V30 9283 H 864.108 -0.746993 -0.00320281 0
M  V30 9284 H 866.77 -1.82011 0.696991 0
M  V30 9285 H 865.866 -3.11917 -0.106991 0
M  V30 9286 N 866.167 -0.267825 -1.55308 0
M  V30 9287 C 867.397 0.354073 -2.03543 0
M  V30 9288 C 867.805 1.50554 -1.14586 0
M  V30 9289 O 867.148 1.83028 -0.156991 0
M  V30 9290 C 867.21 0.904148 -3.47945 0
M  V30 9291 C 866.874 -0.11775 -4.56848 0
M  V30 9292 C 867.871 -0.934707 -5.11429 0
M  V30 9293 C 865.556 -0.249885 -5.01678 0
M  V30 9294 C 867.55 -1.87005 -6.0935 0
M  V30 9295 C 865.237 -1.18872 -5.99427 0
M  V30 9296 C 866.235 -1.99731 -6.53144 0
M  V30 9297 O 865.923 -2.92028 -7.48983 0
M  V30 9298 H 865.655 0.0857765 -0.670536 0
M  V30 9299 H 868.209 -0.395515 -2.01556 0
M  V30 9300 H 866.439 1.70368 -3.47148 0
M  V30 9301 H 868.128 1.43835 -3.79561 0
M  V30 9302 H 868.894 -0.84332 -4.77612 0
M  V30 9303 H 864.773 0.369469 -4.59517 0
M  V30 9304 H 868.317 -2.5016 -6.51203 0
M  V30 9305 H 864.214 -1.28095 -6.32663 0
M  V30 9306 H 864.982 -2.86627 -7.66673 0
M  V30 9307 N 867.645 1.57599 0.00500368 0
M  V30 9308 C 868.922 1.81561 0.727654 0
M  V30 9309 C 869.302 0.871604 1.92266 0
M  V30 9310 O 868.65 -0.0808232 2.28357 0
M  V30 9311 C 868.86 3.29922 1.13809 0
M  V30 9312 C 870.208 3.95531 1.54403 0
M  V30 9313 O 871.232 3.34215 1.23202 0
M  V30 9314 O 870.091 5.03535 2.12402 0
M  V30 9315 H 867.185 0.747462 0.353878 0
M  V30 9316 H 869.731 1.69688 -0.0200667 0
M  V30 9317 H 868.503 3.90253 0.286078 0
M  V30 9318 H 868.126 3.46775 1.94507 0
M  V30 9319 N 869.123 -0.277682 1.55134 0
M  V30 9320 C 870.372 -1.00766 1.74726 0
M  V30 9321 C 870.685 -1.87617 0.553092 0
M  V30 9322 O 871.891 -2.64058 0.631318 0
M  V30 9323 C 870.347 -1.84147 3.09221 0
M  V30 9324 C 869.955 -1.02186 4.3619 0
M  V30 9325 C 871.699 -2.56604 3.38164 0
M  V30 9326 C 869.606 -1.84978 5.61727 0
M  V30 9327 H 868.536 -0.379948 0.651273 0
M  V30 9328 H 871.187 -0.263543 1.81598 0
M  V30 9329 H 869.569 -2.62637 2.96375 0
M  V30 9330 H 870.743 -0.281459 4.5994 0
M  V30 9331 H 869.058 -0.412054 4.14356 0
M  V30 9332 H 871.655 -3.18942 4.29162 0
M  V30 9333 H 871.998 -3.26647 2.58085 0
M  V30 9334 H 872.531 -1.85147 3.52087 0
M  V30 9335 H 869.27 -1.19365 6.4454 0
M  V30 9336 H 868.79 -2.56628 5.42128 0
M  V30 9337 H 870.469 -2.42458 5.99853 0
M  V30 9338 N 870.601 -1.47988 -0.541979 0
M  V30 9339 C 871.531 -1.64503 -1.65713 0
M  V30 9340 C 872.512 -0.494116 -1.62765 0
M  V30 9341 O 873.697 -0.725256 -1.80149 0
M  V30 9342 C 870.827 -1.67337 -3.04328 0
M  V30 9343 C 869.781 -2.81809 -3.2213 0
M  V30 9344 C 869.107 -2.69724 -4.61685 0
M  V30 9345 C 870.407 -4.23241 -3.06046 0
M  V30 9346 H 872.101 -2.5786 -1.52147 0
M  V30 9347 H 869.647 -1.24094 -0.730529 0
M  V30 9348 H 871.6 -1.77481 -3.82202 0
M  V30 9349 H 870.324 -0.705514 -3.18889 0
M  V30 9350 H 868.983 -2.71201 -2.46669 0
M  V30 9351 H 868.631 -1.70934 -4.73065 0
M  V30 9352 H 868.331 -3.4653 -4.74543 0
M  V30 9353 H 869.855 -2.81818 -5.41674 0
M  V30 9354 H 871.269 -4.34746 -3.73723 0
M  V30 9355 H 869.666 -5.00952 -3.30405 0
M  V30 9356 H 870.736 -4.40543 -2.02609 0
M  V30 9357 N 872.079 0.78992 -1.36375 0
M  V30 9358 C 873.042 1.88414 -1.30509 0
M  V30 9359 C 874.042 1.59384 -0.2129 0
M  V30 9360 O 875.232 1.67805 -0.467651 0
M  V30 9361 C 872.364 3.25188 -1.02302 0
M  V30 9362 H 873.557 1.95031 -2.27822 0
M  V30 9363 H 871.11 0.987664 -1.2114 0
M  V30 9364 H 871.845 3.24254 -0.0544486 0
M  V30 9365 H 871.63 3.47647 -1.81338 0
M  V30 9366 H 873.12 4.05252 -1.00801 0
M  V30 9367 N 873.557 1.20646 1.01402 0
M  V30 9368 C 874.467 0.973385 2.13453 0
M  V30 9369 C 875.483 -0.0715865 1.73853 0
M  V30 9370 O 876.659 0.116438 2.01063 0
M  V30 9371 C 873.724 0.531285 3.42605 0
M  V30 9372 C 872.785 1.64741 3.96433 0
M  V30 9373 C 872.018 1.22631 5.1942 0
M  V30 9374 O 872.241 0.0960891 5.70319 0
M  V30 9375 O 871.175 2.03474 5.66465 0
M  V30 9376 H 875.001 1.91164 2.35987 0
M  V30 9377 H 872.586 0.990553 1.11841 0
M  V30 9378 H 874.468 0.294095 4.20373 0
M  V30 9379 H 873.143 -0.378358 3.21481 0
M  V30 9380 H 872.05 1.93891 3.19933 0
M  V30 9381 H 873.383 2.53415 4.2195 0
M  V30 9382 N 875.035 -1.20752 1.01276 0
M  V30 9383 C 876.312 -1.85676 0.615112 0
M  V30 9384 C 876.692 -1.90623 -0.906976 0
M  V30 9385 O 876.04 -1.41124 -1.79712 0
M  V30 9386 C 876.25 -3.2552 1.25847 0
M  V30 9387 C 877.598 -4.0184 1.37148 0
M  V30 9388 O 878.622 -3.3486 1.21438 0
M  V30 9389 O 877.481 -5.21783 1.62495 0
M  V30 9390 H 874.575 -0.799437 0.211729 0
M  V30 9391 H 877.121 -1.28372 1.10989 0
M  V30 9392 H 875.893 -3.16664 2.29869 0
M  V30 9393 H 875.516 -3.90452 0.750524 0
M  V30 9394 N 876.513 -0.788492 -1.36457 0
M  V30 9395 C 877.741 -0.372365 -2.03522 0
M  V30 9396 C 878.156 1.01093 -1.59454 0
M  V30 9397 O 877.513 1.64824 -0.783535 0
M  V30 9398 C 877.564 -0.425435 -3.58988 0
M  V30 9399 O 877.285 -1.75418 -4.01448 0
M  V30 9400 C 878.786 0.000180167 -4.433 0
M  V30 9401 H 876.006 -0.1536 -0.653183 0
M  V30 9402 H 878.55 -1.06708 -1.74452 0
M  V30 9403 H 876.705 0.220856 -3.8677 0
M  V30 9404 H 877.119 -1.70437 -4.96036 0
M  V30 9405 H 878.593 -0.0880919 -5.5193 0
M  V30 9406 H 879.07 1.05269 -4.26398 0
M  V30 9407 H 879.676 -0.618563 -4.20778 0
M  V30 9408 N 877.991 1.48044 -0.54043 0
M  V30 9409 C 879.24 2.01698 -0.00809961 0
M  V30 9410 C 879.553 1.42184 1.34325 0
M  V30 9411 O 880.759 1.87398 1.96454 0
M  V30 9412 C 879.215 3.59882 0.035933 0
M  V30 9413 C 878.823 4.28384 -1.31115 0
M  V30 9414 C 880.567 4.21346 0.51654 0
M  V30 9415 C 878.474 5.78529 -1.22714 0
M  V30 9416 H 877.404 0.754 0.000742174 0
M  V30 9417 H 880.055 1.70204 -0.685775 0
M  V30 9418 H 878.437 3.88264 0.778906 0
M  V30 9419 H 879.611 4.11663 -2.07051 0
M  V30 9420 H 877.926 3.78837 -1.72834 0
M  V30 9421 H 880.523 5.31351 0.597529 0
M  V30 9422 H 880.866 3.87373 1.52473 0
M  V30 9423 H 881.399 3.97432 -0.171064 0
M  V30 9424 H 878.138 6.17093 -2.21081 0
M  V30 9425 H 877.658 5.97634 -0.50931 0
M  V30 9426 H 879.337 6.40395 -0.92216 0
M  V30 9427 N 879.47 0.276058 1.55163 0
M  V30 9428 C 880.698 -0.343772 2.04024 0
M  V30 9429 C 881.113 -1.49397 1.15438 0
M  V30 9430 O 880.47 -1.81662 0.174692 0
M  V30 9431 C 880.521 -0.823885 3.51986 0
M  V30 9432 O 880.242 0.280507 4.37201 0
M  V30 9433 C 881.743 -1.51143 4.16738 0
M  V30 9434 H 878.963 -0.07828 0.666418 0
M  V30 9435 H 881.507 0.408427 2.0038 0
M  V30 9436 H 879.662 -1.52617 3.56071 0
M  V30 9437 H 880.076 -0.0887831 5.24425 0
M  V30 9438 H 881.55 -1.79878 5.2187 0
M  V30 9439 H 882.027 -2.44327 3.64967 0
M  V30 9440 H 882.633 -0.852975 4.16659 0
M  V30 9441 N 880.948 -1.576 0.00335426 0
M  V30 9442 C 881.911 -2.07576 -0.971838 0
M  V30 9443 C 882.911 -0.985796 -1.27038 0
M  V30 9444 O 884.101 -1.24833 -1.21501 0
M  V30 9445 C 881.233 -2.52003 -2.29581 0
M  V30 9446 H 882.426 -2.95008 -0.539481 0
M  V30 9447 H 879.979 -1.54381 -0.244186 0
M  V30 9448 H 880.714 -1.67825 -2.77498 0
M  V30 9449 H 880.499 -3.31609 -2.09231 0
M  V30 9450 H 881.989 -2.90983 -2.99531 0
M  V30 9451 N 882.426 0.269451 -1.5528 0
M  V30 9452 C 883.356 1.33729 -1.91413 0
M  V30 9453 C 884.337 1.51348 -0.776391 0
M  V30 9454 O 885.522 1.64332 -1.03482 0
M  V30 9455 C 882.652 2.69618 -2.18914 0
M  V30 9456 C 881.606 2.66725 -3.34726 0
M  V30 9457 C 880.932 4.06199 -3.47716 0
M  V30 9458 C 882.232 2.25684 -4.71025 0
M  V30 9459 H 883.926 1.03736 -2.80854 0
M  V30 9460 H 881.472 0.497579 -1.3513 0
M  V30 9461 H 883.425 3.44436 -2.42779 0
M  V30 9462 H 882.149 3.01201 -1.26275 0
M  V30 9463 H 880.808 1.94365 -3.10834 0
M  V30 9464 H 880.456 4.3501 -2.52537 0
M  V30 9465 H 880.156 4.05157 -4.25583 0
M  V30 9466 H 881.68 4.8275 -3.73877 0
M  V30 9467 H 883.094 2.90225 -4.94411 0
M  V30 9468 H 881.491 2.35797 -5.51833 0
M  V30 9469 H 882.561 1.20819 -4.69607 0
M  V30 9470 N 883.904 1.48273 0.534124 0
M  V30 9471 C 884.834 1.6538 1.64839 0
M  V30 9472 C 885.815 0.502741 1.62501 0
M  V30 9473 O 887 0.734799 1.79762 0
M  V30 9474 C 884.13 1.68949 3.03436 0
M  V30 9475 C 883.084 2.83513 3.20631 0
M  V30 9476 C 882.41 2.72169 4.60248 0
M  V30 9477 C 883.71 4.24858 3.03797 0
M  V30 9478 H 885.404 2.58663 1.50777 0
M  V30 9479 H 882.95 1.24479 0.723937 0
M  V30 9480 H 884.903 1.79505 3.81256 0
M  V30 9481 H 883.627 0.722415 3.1851 0
M  V30 9482 H 882.286 2.72505 2.45227 0
M  V30 9483 H 881.934 1.7344 4.72152 0
M  V30 9484 H 881.634 3.49042 4.72698 0
M  V30 9485 H 883.158 2.84687 5.40172 0
M  V30 9486 H 884.572 4.36721 3.71413 0
M  V30 9487 H 882.969 5.02697 3.27743 0
M  V30 9488 H 884.039 4.41611 2.0027 0
M  V30 9489 N 885.382 -0.782676 1.36792 0
M  V30 9490 C 886.332 -1.8855 1.28191 0
M  V30 9491 C 887.316 -1.59978 0.171984 0
M  V30 9492 O 888.508 -1.72295 0.405405 0
M  V30 9493 C 885.637 -3.25862 1.08021 0
M  V30 9494 C 884.723 -3.60422 2.2351 0
M  V30 9495 N 885.114 -3.66241 3.48857 0
M  V30 9496 C 883.412 -3.90523 2.15424 0
M  V30 9497 C 884.113 -3.97233 4.24948 0
M  V30 9498 N 883.089 -4.12567 3.53963 0
M  V30 9499 H 886.891 -1.91285 2.23131 0
M  V30 9500 H 884.405 -0.978554 1.29607 0
M  V30 9501 H 886.402 -4.04742 0.999458 0
M  V30 9502 H 885.062 -3.24399 0.139882 0
M  V30 9503 H 886.073 -3.48717 3.82906 0
M  V30 9504 H 882.75 -3.96945 1.29386 0
M  V30 9505 H 884.14 -4.08602 5.33379 0
M  V30 9506 N 886.86 -1.21182 -1.00761 0
M  V30 9507 C 887.808 -0.965728 -2.11604 0
M  V30 9508 C 888.802 0.0861028 -1.69181 0
M  V30 9509 O 890.008 -0.0650558 -1.79882 0
M  V30 9510 H 886.383 -0.295023 -0.691712 0
M  V30 9511 H 888.354 -1.90667 -2.2954 0
M  V30 9512 C 887.103 -0.544164 -3.43415 0
M  V30 9513 H 886.426 -1.34515 -3.76491 0
M  V30 9514 H 887.866 -0.411268 -4.22001 0
M  V30 9515 C 886.325 0.744583 -3.28569 0
M  V30 9516 O 886.855 1.80078 -3.59075 0
M  V30 9517 N 885.061 0.710083 -2.81791 0
M  V30 9518 H 884.608 -0.14971 -2.57165 0
M  V30 9519 H 884.566 1.57268 -2.72239 0
M  V30 9520 N 888.338 1.20213 -1.01915 0
M  V30 9521 C 889.286 2.25125 -0.584936 0
M  V30 9522 C 890.28 1.65138 0.377602 0
M  V30 9523 O 891.486 1.78294 0.247245 0
M  V30 9524 H 887.861 0.732333 -0.170858 0
M  V30 9525 H 889.832 2.59075 -1.48063 0
M  V30 9526 C 888.581 3.47651 0.058389 0
M  V30 9527 H 887.904 3.9409 -0.673263 0
M  V30 9528 H 889.344 4.2275 0.325285 0
M  V30 9529 C 887.803 3.10725 1.30199 0
M  V30 9530 O 888.333 3.22491 2.39505 0
M  V30 9531 N 886.539 2.6525 1.18706 0
M  V30 9532 H 886.086 2.55875 0.297618 0
M  V30 9533 H 886.044 2.40913 2.02011 0
M  V30 9534 N 889.816 0.795718 1.36037 0
M  V30 9535 C 891.232 0.478145 1.52269 0
M  V30 9536 C 891.432 -1.0025 1.74792 0
M  V30 9537 O 890.488 -1.78783 1.78305 0
M  V30 9538 C 891.801 1.31406 2.70468 0
M  V30 9539 C 893.349 1.3084 2.84341 0
M  V30 9540 C 893.824 2.12819 4.05551 0
M  V30 9541 N 895.315 2.10298 4.12709 0
M  V30 9542 C 896.05 2.70495 5.05589 0
M  V30 9543 N 895.546 3.39576 6.03871 0
M  V30 9544 N 897.339 2.60195 4.98252 0
M  V30 9545 H 889.49 1.75477 1.19673 0
M  V30 9546 H 891.753 0.74627 0.584624 0
M  V30 9547 H 891.459 2.36435 2.60368 0
M  V30 9548 H 891.333 0.959726 3.64786 0
M  V30 9549 H 893.72 0.266003 2.93899 0
M  V30 9550 H 893.801 1.70254 1.90912 0
M  V30 9551 H 893.445 3.17093 3.96755 0
M  V30 9552 H 893.375 1.70772 4.98141 0
M  V30 9553 H 895.866 1.60026 3.42345 0
M  V30 9554 H 896.179 3.82823 6.71317 0
M  V30 9555 H 894.524 3.43679 6.04077 0
M  V30 9556 H 897.715 2.05823 4.20422 0
M  V30 9557 H 897.888 3.074 5.70447 0
M  V30 9558 N 891.294 -1.47756 0.548274 0
M  V30 9559 C 892.241 -2.29893 -0.204408 0
M  V30 9560 C 893.211 -1.38509 -0.916761 0
M  V30 9561 O 894.396 -1.67472 -0.91421 0
M  V30 9562 C 891.536 -3.22282 -1.23403 0
M  V30 9563 C 890.649 -4.28753 -0.528654 0
M  V30 9564 C 889.784 -5.08303 -1.54279 0
M  V30 9565 C 888.823 -6.06557 -0.821893 0
M  V30 9566 N 887.96 -6.79098 -1.78243 0
M  V30 9567 H 892.8 -2.93739 0.502163 0
M  V30 9568 H 890.337 -1.44793 0.259471 0
M  V30 9569 H 892.295 -3.74262 -1.84348 0
M  V30 9570 H 890.925 -2.6032 -1.90875 0
M  V30 9571 H 889.977 -3.79899 0.195132 0
M  V30 9572 H 891.289 -4.98787 0.0365066 0
M  V30 9573 H 890.443 -5.64388 -2.22602 0
M  V30 9574 H 889.182 -4.3815 -2.14186 0
M  V30 9575 H 888.187 -5.49659 -0.12469 0
M  V30 9576 H 889.412 -6.78715 -0.228685 0
M  V30 9577 H 887.358 -6.11682 -2.37025 0
M  V30 9578 H 887.275 -7.4527 -1.26919 0
M  V30 9579 H 888.543 -7.39762 -2.45709 0
M  V30 9580 N 892.772 -0.284283 -1.55015 0
M  V30 9581 C 893.702 0.592663 -2.25853 0
M  V30 9582 C 894.683 1.15151 -1.25197 0
M  V30 9583 O 895.868 1.18395 -1.53936 0
M  V30 9584 C 892.998 1.77254 -2.98661 0
M  V30 9585 C 891.952 1.34482 -4.06323 0
M  V30 9586 C 891.278 2.60853 -4.66754 0
M  V30 9587 C 892.578 0.488288 -5.20013 0
M  V30 9588 H 894.272 0.00187041 -2.994 0
M  V30 9589 H 891.818 -0.000540402 -1.44 0
M  V30 9590 H 893.771 2.39199 -3.46932 0
M  V30 9591 H 892.495 2.38931 -2.22664 0
M  V30 9592 H 891.154 0.748519 -3.58877 0
M  V30 9593 H 890.802 3.20808 -3.87416 0
M  V30 9594 H 890.502 2.32942 -5.39455 0
M  V30 9595 H 892.026 3.23631 -5.1778 0
M  V30 9596 H 893.44 1.01298 -5.6428 0
M  V30 9597 H 891.837 0.303669 -5.99331 0
M  V30 9598 H 892.907 -0.490727 -4.8241 0
M  V30 9599 N 894.251 1.57596 -0.0117121 0
M  V30 9600 C 895.181 2.12188 0.9746 0
M  V30 9601 C 896.162 1.03379 1.35081 0
M  V30 9602 O 897.347 1.31123 1.4325 0
M  V30 9603 C 894.477 2.63477 2.26268 0
M  V30 9604 C 893.431 3.76917 2.02774 0
M  V30 9605 C 892.757 4.14566 3.37697 0
M  V30 9606 C 894.057 5.03715 1.38089 0
M  V30 9607 H 895.751 2.9485 0.520007 0
M  V30 9608 H 893.297 1.41836 0.248685 0
M  V30 9609 H 895.25 3.00299 2.95633 0
M  V30 9610 H 893.974 1.77953 2.73862 0
M  V30 9611 H 892.633 3.40507 1.35832 0
M  V30 9612 H 892.281 3.26048 3.83016 0
M  V30 9613 H 891.981 4.91 3.22789 0
M  V30 9614 H 893.505 4.53956 4.08358 0
M  V30 9615 H 894.919 5.38233 1.97428 0
M  V30 9616 H 893.316 5.85032 1.33634 0
M  V30 9617 H 894.386 4.83624 0.351575 0
M  V30 9618 N 895.729 -0.261212 1.5542 0
M  V30 9619 C 896.639 -1.34493 1.92221 0
M  V30 9620 C 897.655 -1.53421 0.82086 0
M  V30 9621 O 898.831 -1.6732 1.12099 0
M  V30 9622 C 895.896 -2.68209 2.19692 0
M  V30 9623 C 894.957 -2.57927 3.43179 0
M  V30 9624 C 894.19 -3.85266 3.69331 0
M  V30 9625 O 894.413 -4.86493 2.97793 0
M  V30 9626 O 893.347 -3.8476 4.62865 0
M  V30 9627 H 897.173 -1.06278 2.84497 0
M  V30 9628 H 894.758 -0.460752 1.42118 0
M  V30 9629 H 896.64 -3.47252 2.38734 0
M  V30 9630 H 895.315 -2.96186 1.30597 0
M  V30 9631 H 894.222 -1.77219 3.2946 0
M  V30 9632 H 895.555 -2.34898 4.32532 0
M  V30 9633 N 897.207 -1.48554 -0.526253 0
M  V30 9634 C 898.154 -1.63354 -1.63046 0
M  V30 9635 C 899.124 -0.475509 -1.59148 0
M  V30 9636 O 900.309 -0.699453 -1.77517 0
M  V30 9637 C 897.449 -1.68271 -3.01295 0
M  V30 9638 C 896.562 -2.95207 -3.15399 0
M  V30 9639 C 895.697 -2.91262 -4.4423 0
M  V30 9640 C 894.736 -4.12886 -4.51876 0
M  V30 9641 N 893.873 -4.06996 -5.721 0
M  V30 9642 H 898.713 -2.57649 -1.49737 0
M  V30 9643 H 896.25 -1.27769 -0.728938 0
M  V30 9644 H 898.208 -1.69104 -3.81392 0
M  V30 9645 H 896.838 -0.774641 -3.13367 0
M  V30 9646 H 895.89 -3.04102 -2.2853 0
M  V30 9647 H 897.202 -3.85187 -3.1691 0
M  V30 9648 H 896.356 -2.90516 -5.32621 0
M  V30 9649 H 895.095 -1.99016 -4.45246 0
M  V30 9650 H 894.1 -4.13902 -3.61891 0
M  V30 9651 H 895.325 -5.06294 -4.52596 0
M  V30 9652 H 893.271 -3.17573 -5.74006 0
M  V30 9653 H 893.188 -4.90685 -5.75121 0
M  V30 9654 H 894.456 -4.10315 -6.62768 0
M  V30 9655 N 898.685 0.775411 -1.37205 0
M  V30 9656 C 899.635 1.87867 -1.29189 0
M  V30 9657 C 900.619 1.59885 -0.180466 0
M  V30 9658 O 901.811 1.72077 -0.414536 0
M  V30 9659 C 898.94 3.25285 -1.09748 0
M  V30 9660 C 898.026 3.59231 -2.25419 0
M  V30 9661 N 898.417 3.64386 -3.50795 0
M  V30 9662 C 896.715 3.89375 -2.17492 0
M  V30 9663 C 897.416 3.94974 -4.27048 0
M  V30 9664 N 896.392 4.10684 -3.56146 0
M  V30 9665 H 900.194 1.90099 -2.24142 0
M  V30 9666 H 897.708 0.971667 -1.30125 0
M  V30 9667 H 899.705 4.04207 -1.02091 0
M  V30 9668 H 898.365 3.2432 -0.157083 0
M  V30 9669 H 899.376 3.46682 -3.8475 0
M  V30 9670 H 896.053 3.96254 -1.31489 0
M  V30 9671 H 897.443 4.05768 -5.35539 0
M  V30 9672 N 900.163 1.21714 1.00117 0
M  V30 9673 C 901.412 1.03087 1.73367 0
M  V30 9674 C 901.725 -0.435532 1.90689 0
M  V30 9675 O 902.931 -0.741291 2.61184 0
M  V30 9676 C 901.387 1.79593 3.11888 0
M  V30 9677 C 900.995 3.30428 3.02525 0
M  V30 9678 C 902.739 1.69386 3.89241 0
M  V30 9679 C 900.646 3.99408 4.3615 0
M  V30 9680 H 899.576 0.382117 0.650002 0
M  V30 9681 H 902.227 1.45486 1.11831 0
M  V30 9682 H 900.609 1.29988 3.74058 0
M  V30 9683 H 901.783 3.87364 2.49571 0
M  V30 9684 H 900.098 3.4122 2.38659 0
M  V30 9685 H 902.695 2.18251 4.8813 0
M  V30 9686 H 903.038 0.652773 4.1115 0
M  V30 9687 H 903.571 2.16489 3.33733 0
M  V30 9688 H 900.31 5.03735 4.19442 0
M  V30 9689 H 899.83 3.47261 4.8905 0
M  V30 9690 H 901.509 4.04537 5.04934 0
M  V30 9691 N 901.641 -1.19671 1.02551 0
M  V30 9692 C 902.869 -1.93233 0.739513 0
M  V30 9693 C 903.284 -1.75298 -0.701158 0
M  V30 9694 O 902.641 -1.07269 -1.47647 0
M  V30 9695 C 902.692 -3.45085 1.07697 0
M  V30 9696 O 902.413 -3.62441 2.46106 0
M  V30 9697 C 903.914 -4.35776 0.813298 0
M  V30 9698 H 901.134 -0.613905 0.270853 0
M  V30 9699 H 903.678 -1.51909 1.36909 0
M  V30 9700 H 901.833 -3.84255 0.492635 0
M  V30 9701 H 902.247 -4.56337 2.58567 0
M  V30 9702 H 903.721 -5.40941 1.09941 0
M  V30 9703 H 904.198 -4.38474 -0.252359 0
M  V30 9704 H 904.804 -4.02282 1.38021 0
M  V30 9705 N 903.119 -0.802921 -1.35613 0
M  V30 9706 C 904.066 -0.20874 -2.29854 0
M  V30 9707 C 905.036 0.655128 -1.52634 0
M  V30 9708 O 906.221 0.600979 -1.81088 0
M  V30 9709 C 903.361 0.639663 -3.3912 0
M  V30 9710 C 902.474 -0.244234 -4.31309 0
M  V30 9711 C 901.609 0.611825 -5.27665 0
M  V30 9712 C 900.648 -0.272698 -6.11492 0
M  V30 9713 N 899.785 0.543122 -6.99996 0
M  V30 9714 H 904.625 -1.01782 -2.80079 0
M  V30 9715 H 902.162 -0.513465 -1.37848 0
M  V30 9716 H 904.12 1.14668 -4.01132 0
M  V30 9717 H 902.75 1.41404 -2.9018 0
M  V30 9718 H 901.802 -0.869322 -3.70334 0
M  V30 9719 H 903.114 -0.925202 -4.90144 0
M  V30 9720 H 902.268 1.18412 -5.95032 0
M  V30 9721 H 901.007 1.32637 -4.69317 0
M  V30 9722 H 900.012 -0.857287 -5.43075 0
M  V30 9723 H 901.237 -0.985051 -6.71918 0
M  V30 9724 H 899.183 1.24171 -6.44141 0
M  V30 9725 H 899.1 -0.0798767 -7.55958 0
M  V30 9726 H 900.368 1.09881 -7.71717 0
M  V30 9727 N 904.597 1.47463 -0.556102 0
M  V30 9728 C 905.825 2.06868 -0.0364585 0
M  V30 9729 C 906.24 1.40893 1.25677 0
M  V30 9730 O 905.597 0.505083 1.75371 0
M  V30 9731 C 905.648 3.61128 0.163984 0
M  V30 9732 O 905.369 4.24629 -1.07803 0
M  V30 9733 C 906.87 4.37397 0.721036 0
M  V30 9734 H 904.09 0.669466 -0.0453399 0
M  V30 9735 H 906.634 1.89482 -0.769198 0
M  V30 9736 H 904.789 3.78031 0.84685 0
M  V30 9737 H 905.203 5.17149 -0.875067 0
M  V30 9738 H 906.677 5.46016 0.810584 0
M  V30 9739 H 907.154 4.03604 1.73206 0
M  V30 9740 H 907.76 4.25236 0.073904 0
M  V30 9741 N 906.075 0.2925 1.54862 0
M  V30 9742 C 906.985 -0.597036 2.26876 0
M  V30 9743 C 908.001 -1.15558 1.30086 0
M  V30 9744 O 909.177 -1.18217 1.63054 0
M  V30 9745 C 906.242 -1.75664 2.98903 0
M  V30 9746 C 905.303 -1.23303 4.11212 0
M  V30 9747 C 904.536 -2.33736 4.79795 0
M  V30 9748 O 904.759 -3.53459 4.47686 0
M  V30 9749 O 903.693 -2.00908 5.67379 0
M  V30 9750 H 907.519 -0.0131242 3.03697 0
M  V30 9751 H 905.104 0.0592642 1.49282 0
M  V30 9752 H 906.986 -2.43241 3.4411 0
M  V30 9753 H 905.661 -2.32731 2.24984 0
M  V30 9754 H 904.568 -0.523222 3.70423 0
M  V30 9755 H 905.901 -0.707887 4.87083 0
M  V30 9756 N 907.553 -1.57587 0.0200696 0
M  V30 9757 C 908.799 -1.91708 -0.661503 0
M  V30 9758 C 909.132 -0.895968 -1.72296 0
M  V30 9759 O 908.407 0.082577 -1.94325 0
M  V30 9760 C 908.69 -3.36344 -1.28627 0
M  V30 9761 C 908.543 -4.49186 -0.234982 0
M  V30 9762 C 909.862 -3.80771 -2.20685 0
M  V30 9763 H 906.981 -0.69717 -0.239005 0
M  V30 9764 H 909.623 -1.8985 0.0754764 0
M  V30 9765 H 907.773 -3.38058 -1.91439 0
M  V30 9766 H 909.445 -4.59606 0.395011 0
M  V30 9767 H 907.688 -4.31557 0.440565 0
M  V30 9768 H 908.359 -5.47395 -0.711558 0
M  V30 9769 H 910.835 -3.80735 -1.67868 0
M  V30 9770 H 909.711 -4.82685 -2.61356 0
M  V30 9771 H 909.972 -3.15764 -3.09428 0
M  V30 9772 N 909.032 0.252966 -1.55557 0
M  V30 9773 C 909.942 1.33472 -1.92931 0
M  V30 9774 C 910.958 1.52983 -0.828985 0
M  V30 9775 O 912.134 1.66723 -1.12984 0
M  V30 9776 C 909.199 2.6704 -2.21112 0
M  V30 9777 C 908.26 2.56103 -3.44542 0
M  V30 9778 C 907.493 3.83302 -3.71369 0
M  V30 9779 O 907.716 4.84907 -3.00368 0
M  V30 9780 O 906.65 3.823 -4.64898 0
M  V30 9781 H 910.476 1.04768 -2.85057 0
M  V30 9782 H 908.061 0.453208 -1.4236 0
M  V30 9783 H 909.943 3.45981 -2.40572 0
M  V30 9784 H 908.618 2.95489 -1.32166 0
M  V30 9785 H 907.525 1.7547 -3.30396 0
M  V30 9786 H 908.858 2.32601 -4.33772 0
M  V30 9787 N 910.51 1.48831 0.518367 0
M  V30 9788 C 911.738 1.6112 1.298 0
M  V30 9789 C 912.153 0.275872 1.86774 0
M  V30 9790 O 911.51 -0.736416 1.66983 0
M  V30 9791 C 911.561 2.66675 2.44063 0
M  V30 9792 O 911.282 3.95027 1.89434 0
M  V30 9793 C 912.783 2.8951 3.35706 0
M  V30 9794 H 910.003 0.542916 0.394314 0
M  V30 9795 H 912.547 1.94743 0.624142 0
M  V30 9796 H 910.702 2.35879 3.07311 0
M  V30 9797 H 911.116 4.53031 2.64316 0
M  V30 9798 H 912.59 3.67142 4.12202 0
M  V30 9799 H 913.067 1.98768 3.91648 0
M  V30 9800 H 913.673 3.21656 2.7824 0
M  V30 9801 N 911.988 -0.768124 1.37614 0
M  V30 9802 C 913.235 -1.5268 1.33022 0
M  V30 9803 C 913.563 -1.94318 -0.0841918 0
M  V30 9804 O 912.818 -1.64623 -1.0582 0
M  V30 9805 C 913.117 -2.80204 2.21856 0
M  V30 9806 C 912.783 -2.57602 3.7007 0
M  V30 9807 C 911.445 -2.51146 4.10462 0
M  V30 9808 C 913.797 -2.37482 4.63952 0
M  V30 9809 C 911.125 -2.22566 5.42846 0
M  V30 9810 C 913.477 -2.10425 5.96577 0
M  V30 9811 C 912.141 -2.02416 6.36069 0
M  V30 9812 H 911.411 -0.558697 0.486763 0
M  V30 9813 H 914.058 -0.88447 1.69851 0
M  V30 9814 H 912.363 -3.49014 1.78034 0
M  V30 9815 H 914.06 -3.38099 2.15615 0
M  V30 9816 H 910.65 -2.63491 3.38039 0
M  V30 9817 H 914.834 -2.41457 4.33604 0
M  V30 9818 H 910.09 -2.14863 5.72402 0
M  V30 9819 H 914.264 -1.93857 6.68874 0
M  V30 9820 H 911.891 -1.80034 7.38574 0
M  V30 9821 N 913.466 -1.22244 -0.994698 0
M  V30 9822 C 914.712 -1.04746 -1.73655 0
M  V30 9823 C 915.045 0.41668 -1.89677 0
M  V30 9824 O 914.32 1.30897 -1.43862 0
M  V30 9825 C 914.603 -1.75716 -3.14318 0
M  V30 9826 C 914.456 -3.29714 -3.05955 0
M  V30 9827 C 915.775 -1.50809 -4.13455 0
M  V30 9828 H 912.894 -0.381921 -0.630322 0
M  V30 9829 H 915.536 -1.50559 -1.15897 0
M  V30 9830 H 913.686 -1.3677 -3.63629 0
M  V30 9831 H 915.358 -3.78093 -2.64279 0
M  V30 9832 H 913.601 -3.59484 -2.42804 0
M  V30 9833 H 914.272 -3.74547 -4.05485 0
M  V30 9834 H 916.748 -1.84636 -3.72892 0
M  V30 9835 H 915.624 -2.02964 -5.09997 0
M  V30 9836 H 915.885 -0.440292 -4.39902 0
M  V30 9837 N 914.944 1.19125 -1.03184 0
M  V30 9838 C 916.169 1.93379 -0.749628 0
M  V30 9839 C 916.594 1.75153 0.685785 0
M  V30 9840 O 915.952 1.05579 1.47386 0
M  V30 9841 C 916 3.43101 -1.1097 0
M  V30 9842 O 915.104 4.11758 -0.230053 0
M  V30 9843 H 914.445 0.603605 -0.276689 0
M  V30 9844 H 916.975 1.51116 -1.37931 0
M  V30 9845 H 916.985 3.93778 -1.06785 0
M  V30 9846 H 915.66 3.55688 -2.15544 0
M  V30 9847 H 914.237 3.7143 -0.330748 0
M  V30 9848 N 916.422 0.810101 1.35185 0
M  V30 9849 C 917.352 0.237453 2.32289 0
M  V30 9850 C 918.333 -0.639032 1.5764 0
M  V30 9851 O 919.518 -0.568575 1.8569 0
M  V30 9852 C 916.648 -0.611964 3.41866 0
M  V30 9853 C 915.602 0.166318 4.27677 0
M  V30 9854 C 914.928 -0.805024 5.28605 0
M  V30 9855 C 916.228 1.36729 5.04086 0
M  V30 9856 H 917.922 1.04874 2.80432 0
M  V30 9857 H 915.468 0.505751 1.34826 0
M  V30 9858 H 917.421 -1.02267 4.08802 0
M  V30 9859 H 916.145 -1.45617 2.92341 0
M  V30 9860 H 914.804 0.558238 3.62325 0
M  V30 9861 H 914.452 -1.64483 4.75347 0
M  V30 9862 H 914.152 -0.288577 5.86891 0
M  V30 9863 H 915.676 -1.21386 5.98413 0
M  V30 9864 H 917.09 1.03128 5.63948 0
M  V30 9865 H 915.487 1.81848 5.71884 0
M  V30 9866 H 916.557 2.15214 4.34524 0
M  V30 9867 N 917.9 -1.47166 0.563914 0
M  V30 9868 C 919.146 -2.02756 0.0424338 0
M  V30 9869 C 919.479 -1.43662 -1.3067 0
M  V30 9870 O 918.754 -0.594676 -1.85186 0
M  V30 9871 C 919.037 -3.60074 -0.0434793 0
M  V30 9872 C 918.89 -4.29587 1.33323 0
M  V30 9873 C 920.209 -4.336 -0.753568 0
M  V30 9874 H 917.328 -0.736806 0.0168946 0
M  V30 9875 H 919.97 -1.75521 0.727496 0
M  V30 9876 H 918.12 -3.83409 -0.626906 0
M  V30 9877 H 919.792 -4.17573 1.96037 0
M  V30 9878 H 918.035 -3.8968 1.9061 0
M  V30 9879 H 918.706 -5.38218 1.22576 0
M  V30 9880 H 921.182 -4.15299 -0.258126 0
M  V30 9881 H 920.058 -5.43291 -0.782659 0
M  V30 9882 H 920.319 -4.03302 -1.81108 0
M  V30 9883 N 919.378 -0.300708 -1.54705 0
M  V30 9884 C 920.794 0.0526874 -1.59513 0
M  V30 9885 C 920.994 1.52444 -1.31769 0
M  V30 9886 O 920.05 2.27716 -1.09096 0
M  V30 9887 C 921.363 -0.344989 -2.98714 0
M  V30 9888 C 922.911 -0.29373 -3.11619 0
M  V30 9889 C 923.386 -0.666225 -4.53129 0
M  V30 9890 N 924.877 -0.618749 -4.59049 0
M  V30 9891 C 925.612 -0.879447 -5.66616 0
M  V30 9892 N 925.108 -1.2061 -6.82221 0
M  V30 9893 N 926.901 -0.806528 -5.56284 0
M  V30 9894 H 919.052 -1.25988 -1.71 0
M  V30 9895 H 921.315 -0.510758 -0.798643 0
M  V30 9896 H 921.021 -1.36953 -3.2394 0
M  V30 9897 H 920.895 0.301507 -3.75993 0
M  V30 9898 H 923.282 0.72156 -2.86142 0
M  V30 9899 H 923.363 -0.974844 -2.36496 0
M  V30 9900 H 923.007 -1.67932 -4.79334 0
M  V30 9901 H 922.937 0.0369575 -5.26587 0
M  V30 9902 H 925.428 -0.377202 -3.76013 0
M  V30 9903 H 925.741 -1.391 -7.60178 0
M  V30 9904 H 924.086 -1.24413 -6.83774 0
M  V30 9905 H 927.277 -0.550993 -4.64846 0
M  V30 9906 H 927.45 -1.01307 -6.40032 0
M  V30 9907 N 920.856 1.57574 -0.0284266 0
M  V30 9908 C 921.803 2.10176 0.953658 0
M  V30 9909 C 922.773 1.00367 1.32347 0
M  V30 9910 O 923.958 1.27783 1.4169 0
M  V30 9911 C 921.098 2.63287 2.231 0
M  V30 9912 C 920.211 3.87102 1.91771 0
M  V30 9913 C 919.346 4.28609 3.13795 0
M  V30 9914 C 918.385 5.45184 2.78282 0
M  V30 9915 N 917.522 5.81851 3.92929 0
M  V30 9916 H 922.362 2.93806 0.498176 0
M  V30 9917 H 919.899 1.45222 0.234302 0
M  V30 9918 H 921.857 2.9217 2.97813 0
M  V30 9919 H 920.487 1.82489 2.66266 0
M  V30 9920 H 919.539 3.64952 1.07303 0
M  V30 9921 H 920.851 4.71892 1.61615 0
M  V30 9922 H 920.005 4.58925 3.96829 0
M  V30 9923 H 918.744 3.42585 3.47112 0
M  V30 9924 H 917.749 5.14563 1.93661 0
M  V30 9925 H 918.974 6.32907 2.46182 0
M  V30 9926 H 916.92 4.98782 4.2609 0
M  V30 9927 H 916.837 6.6128 3.66395 0
M  V30 9928 H 918.105 6.16772 4.76669 0
M  V30 9929 N 922.334 -0.244713 1.55689 0
M  V30 9930 C 923.282 -1.32276 1.91326 0
M  V30 9931 C 924.276 -1.49714 0.792589 0
M  V30 9932 O 925.482 -1.51163 0.977227 0
M  V30 9933 H 921.857 -0.442979 0.607679 0
M  V30 9934 H 923.828 -0.99486 2.81327 0
M  V30 9935 C 922.577 -2.67077 2.22633 0
M  V30 9936 H 921.9 -2.54458 3.08368 0
M  V30 9937 H 923.34 -3.41378 2.5147 0
M  V30 9938 C 921.799 -3.20335 1.04342 0
M  V30 9939 O 922.329 -4.00633 0.292543 0
M  V30 9940 N 920.535 -2.78392 0.833457 0
M  V30 9941 H 920.082 -2.13202 1.44577 0
M  V30 9942 H 920.04 -3.1437 0.0436713 0
M  V30 9943 N 923.813 -1.49104 -0.510467 0
M  V30 9944 C 925.229 -1.35657 -0.840797 0
M  V30 9945 C 925.429 -0.382425 -1.97838 0
M  V30 9946 O 924.485 0.189331 -2.51789 0
M  V30 9947 C 925.798 -2.76155 -1.18992 0
M  V30 9948 C 927.346 -2.84786 -1.29868 0
M  V30 9949 C 927.821 -4.2603 -1.68115 0
M  V30 9950 N 929.312 -4.28796 -1.75181 0
M  V30 9951 C 930.047 -5.35041 -2.062 0
M  V30 9952 N 929.543 -6.51543 -2.35508 0
M  V30 9953 N 931.336 -5.2245 -2.07371 0
M  V30 9954 H 923.487 -2.11042 0.23982 0
M  V30 9955 H 925.75 -0.946946 0.0446824 0
M  V30 9956 H 925.456 -3.49092 -0.427484 0
M  V30 9957 H 925.33 -3.10922 -2.13558 0
M  V30 9958 H 927.717 -2.12092 -2.05186 0
M  V30 9959 H 927.798 -2.53613 -0.333758 0
M  V30 9960 H 927.442 -4.99247 -0.933512 0
M  V30 9961 H 927.372 -4.5466 -2.65691 0
M  V30 9962 H 929.863 -3.44771 -1.5473 0
M  V30 9963 H 930.176 -7.28342 -2.58337 0
M  V30 9964 H 928.521 -6.54785 -2.32985 0
M  V30 9965 H 931.712 -4.30444 -1.83945 0
M  V30 9966 H 931.885 -6.05347 -2.31212 0
M  V30 9967 N 925.291 0.760815 -1.38019 0
M  V30 9968 C 926.201 1.90526 -1.36884 0
M  V30 9969 C 927.217 1.71941 -0.266908 0
M  V30 9970 O 928.393 1.94988 -0.50413 0
M  V30 9971 C 925.458 3.25799 -1.18558 0
M  V30 9972 C 924.519 3.56961 -2.3849 0
M  V30 9973 C 923.752 4.8578 -2.21029 0
M  V30 9974 O 923.975 5.57629 -1.20023 0
M  V30 9975 O 922.909 5.16254 -3.0946 0
M  V30 9976 H 926.735 1.94437 -2.33298 0
M  V30 9977 H 924.32 0.905091 -1.18863 0
M  V30 9978 H 926.202 4.0669 -1.1037 0
M  V30 9979 H 924.877 3.22716 -0.252241 0
M  V30 9980 H 923.784 2.7626 -2.52252 0
M  V30 9981 H 925.117 3.64798 -3.30429 0
M  V30 9982 N 926.769 1.22769 0.988202 0
M  V30 9983 C 928.18 1.0512 1.54294 0
M  V30 9984 C 928.531 -0.383904 1.92407 0
M  V30 9985 O 927.656 -1.26955 1.75246 0
M  V30 9986 C 928.251 1.90198 2.80375 0
M  V30 9987 C 926.81 1.76831 3.32276 0
M  V30 9988 C 925.957 1.86377 2.05326 0
M  V30 9989 H 928.908 1.36546 0.808758 0
M  V30 9990 H 928.929 1.42216 3.52923 0
M  V30 9991 H 928.441 2.9464 2.52605 0
M  V30 9992 H 926.542 0.751412 3.64945 0
M  V30 9993 H 926.655 2.59771 4.02562 0
M  V30 9994 H 925.019 1.2987 2.19103 0
M  V30 9995 H 925.802 2.9236 1.79946 0
M  V30 9996 N 928.247 -1.18576 1.03814 0
M  V30 9997 C 929.663 -1.4051 0.756909 0
M  V30 9998 C 929.863 -1.9057 -0.654631 0
M  V30 9999 O 928.919 -2.0884 -1.41922 0
M  V30 10000 C 930.232 -2.4081 1.80087 0
M  V30 10001 C 931.78 -2.54541 1.82148 0
M  V30 10002 C 932.255 -3.58102 2.85529 0
M  V30 10003 N 933.746 -3.65607 2.84404 0
M  V30 10004 C 934.481 -4.45458 3.61047 0
M  V30 10005 N 933.977 -5.28937 4.47434 0
M  V30 10006 N 935.77 -4.40196 3.49548 0
M  V30 10007 H 927.921 -0.844075 1.94908 0
M  V30 10008 H 930.184 -0.433287 0.843188 0
M  V30 10009 H 929.89 -2.1107 2.81322 0
M  V30 10010 H 929.764 -3.4012 1.63089 0
M  V30 10011 H 932.151 -2.83598 0.815855 0
M  V30 10012 H 932.232 -1.55352 2.03223 0
M  V30 10013 H 931.876 -3.29786 3.86269 0
M  V30 10014 H 931.806 -4.56963 2.6171 0
M  V30 10015 H 934.297 -3.05994 2.21756 0
M  V30 10016 H 934.61 -5.8701 5.02632 0
M  V30 10017 H 932.955 -5.28366 4.51503 0
M  V30 10018 H 936.146 -3.74026 2.81464 0
M  V30 10019 H 936.319 -5.02186 4.09528 0
M  V30 10020 N 929.725 -0.817259 -1.34754 0
M  V30 10021 C 930.972 -0.402648 -1.98457 0
M  V30 10022 C 931.3 1.03287 -1.64809 0
M  V30 10023 O 930.555 1.73316 -0.908851 0
M  V30 10024 C 930.854 -0.5453 -3.53216 0
M  V30 10025 C 930.52 -1.9457 -4.06759 0
M  V30 10026 C 929.182 -2.32881 -4.21094 0
M  V30 10027 C 931.534 -2.86141 -4.35629 0
M  V30 10028 C 928.862 -3.62108 -4.61622 0
M  V30 10029 C 931.214 -4.14826 -4.776 0
M  V30 10030 C 929.878 -4.53121 -4.9014 0
M  V30 10031 H 929.148 -0.147339 -0.726204 0
M  V30 10032 H 931.795 -1.04011 -1.60791 0
M  V30 10033 H 930.1 0.175576 -3.91406 0
M  V30 10034 H 931.797 -0.205112 -4.00475 0
M  V30 10035 H 928.387 -1.6381 -3.96061 0
M  V30 10036 H 932.571 -2.57788 -4.24098 0
M  V30 10037 H 927.827 -3.91613 -4.69521 0
M  V30 10038 H 932.001 -4.85874 -4.98899 0
M  V30 10039 H 929.628 -5.53307 -5.21302 0
M  V30 10040 N 931.203 1.46865 -0.571711 0
M  V30 10041 C 932.133 2.3298 0.155795 0
M  V30 10042 C 933.114 1.44678 0.894553 0
M  V30 10043 O 934.299 1.73513 0.872176 0
M  V30 10044 C 931.429 3.26745 1.17708 0
M  V30 10045 C 930.383 4.24401 0.553863 0
M  V30 10046 C 929.709 5.07595 1.68083 0
M  V30 10047 C 931.009 5.19884 -0.501827 0
M  V30 10048 H 932.703 2.94056 -0.563176 0
M  V30 10049 H 930.249 1.41402 -0.27228 0
M  V30 10050 H 932.202 3.85838 1.6943 0
M  V30 10051 H 930.926 2.63753 1.92618 0
M  V30 10052 H 929.585 3.66554 0.057815 0
M  V30 10053 H 929.233 4.40996 2.41933 0
M  V30 10054 H 928.933 5.73722 1.26953 0
M  V30 10055 H 930.457 5.6955 2.20103 0
M  V30 10056 H 931.871 5.73257 -0.0701057 0
M  V30 10057 H 930.268 5.94293 -0.832815 0
M  V30 10058 H 931.338 4.64482 -1.39229 0
M  V30 10059 N 932.681 0.308908 1.54543 0
M  V30 10060 C 933.958 -0.351558 1.92415 0
M  V30 10061 C 934.338 -1.71061 1.23699 0
M  V30 10062 O 933.686 -2.25394 0.3755 0
M  V30 10063 C 933.896 -0.458357 3.45977 0
M  V30 10064 C 935.244 -0.725524 4.18355 0
M  V30 10065 O 936.268 -0.541859 3.52054 0
M  V30 10066 O 935.127 -1.07884 5.35745 0
M  V30 10067 H 932.221 -0.197957 0.802958 0
M  V30 10068 H 934.767 0.357548 1.65891 0
M  V30 10069 H 933.539 0.496723 3.88134 0
M  V30 10070 H 933.162 -1.21562 3.78561 0
M  V30 10071 N 934.159 -1.57557 0.0367827 0
M  V30 10072 C 935.389 -1.96134 -0.649225 0
M  V30 10073 C 935.797 -0.912279 -1.65753 0
M  V30 10074 O 935.14 0.113569 -1.83349 0
M  V30 10075 C 935.202 -3.30889 -1.40545 0
M  V30 10076 C 934.866 -4.53622 -0.554609 0
M  V30 10077 C 935.863 -5.19611 0.17331 0
M  V30 10078 C 933.548 -4.99907 -0.48976 0
M  V30 10079 C 935.542 -6.3021 0.95467 0
M  V30 10080 C 933.229 -6.10386 0.295299 0
M  V30 10081 C 934.227 -6.75398 1.01621 0
M  V30 10082 O 933.915 -7.83755 1.78839 0
M  V30 10083 H 933.647 -0.650662 -0.183344 0
M  V30 10084 H 936.201 -2.05179 0.0951512 0
M  V30 10085 H 934.431 -3.18356 -2.19513 0
M  V30 10086 H 936.12 -3.54315 -1.9803 0
M  V30 10087 H 936.886 -4.84819 0.132589 0
M  V30 10088 H 932.765 -4.49105 -1.04046 0
M  V30 10089 H 936.309 -6.80886 1.51789 0
M  V30 10090 H 932.206 -6.44616 0.33771 0
M  V30 10091 H 932.974 -8.0046 1.70898 0
M  V30 10092 N 935.637 0.236453 -1.55816 0
M  V30 10093 C 936.567 1.29639 -1.94206 0
M  V30 10094 C 937.548 1.49667 -0.808319 0
M  V30 10095 O 938.733 1.621 -1.06945 0
M  V30 10096 C 935.863 2.64914 -2.24584 0
M  V30 10097 C 934.817 2.59565 -3.40308 0
M  V30 10098 C 934.143 3.98732 -3.56254 0
M  V30 10099 C 935.443 2.15642 -4.75706 0
M  V30 10100 H 937.137 0.977552 -2.82992 0
M  V30 10101 H 934.683 0.468804 -1.36155 0
M  V30 10102 H 936.636 3.39209 -2.50031 0
M  V30 10103 H 935.36 2.98455 -1.32636 0
M  V30 10104 H 934.019 1.87728 -3.14887 0
M  V30 10105 H 933.667 4.29556 -2.61707 0
M  V30 10106 H 933.367 3.96039 -4.34082 0
M  V30 10107 H 934.891 4.74711 -3.84033 0
M  V30 10108 H 936.305 2.79673 -5.00456 0
M  V30 10109 H 934.702 2.24039 -5.56711 0
M  V30 10110 H 935.772 1.10831 -4.72064 0
M  V30 10111 N 937.115 1.49373 0.502552 0
M  V30 10112 C 938.34 1.62752 1.28556 0
M  V30 10113 C 938.765 0.298285 1.8572 0
M  V30 10114 O 938.123 -0.733885 1.65782 0
M  V30 10115 C 938.171 2.69778 2.39274 0
M  V30 10116 O 937.275 2.28843 3.43081 0
M  V30 10117 H 936.616 0.544799 0.379592 0
M  V30 10118 H 939.146 1.9555 0.601792 0
M  V30 10119 H 939.156 2.91899 2.8506 0
M  V30 10120 H 937.831 3.66266 1.97033 0
M  V30 10121 H 936.408 2.17047 3.03224 0
M  V30 10122 N 938.594 -0.753485 1.38421 0
M  V30 10123 C 939.871 -1.50318 1.25155 0
M  V30 10124 C 940.251 -2.10588 -0.147003 0
M  V30 10125 O 939.599 -1.97071 -1.15651 0
M  V30 10126 C 939.809 -2.56946 2.36177 0
M  V30 10127 C 941.157 -3.23846 2.74607 0
M  V30 10128 O 942.181 -2.67251 2.3549 0
M  V30 10129 O 941.04 -4.2621 3.42064 0
M  V30 10130 H 938.134 -0.666624 0.48943 0
M  V30 10131 H 940.68 -0.788887 1.50249 0
M  V30 10132 H 939.452 -2.1066 3.29754 0
M  V30 10133 H 939.075 -3.35956 2.12648 0
M  V30 10134 N 940.072 -1.23292 -0.981677 0
M  V30 10135 C 941.002 -1.03738 -2.09191 0
M  V30 10136 C 941.983 0.0453041 -1.7004 0
M  V30 10137 O 943.168 -0.119092 -1.93834 0
M  V30 10138 C 940.298 -0.626426 -3.41604 0
M  V30 10139 C 939.252 -1.65631 -3.94652 0
M  V30 10140 C 938.578 -1.10084 -5.23245 0
M  V30 10141 C 939.878 -3.04903 -4.24066 0
M  V30 10142 H 941.572 -1.966 -2.25807 0
M  V30 10143 H 939.118 -0.946656 -1.0851 0
M  V30 10144 H 941.071 -0.476689 -4.18695 0
M  V30 10145 H 939.795 0.337873 -3.24848 0
M  V30 10146 H 938.454 -1.79402 -3.19704 0
M  V30 10147 H 938.102 -0.127562 -5.02838 0
M  V30 10148 H 937.802 -1.78896 -5.59705 0
M  V30 10149 H 939.326 -0.962928 -6.02959 0
M  V30 10150 H 940.74 -2.94441 -4.91912 0
M  V30 10151 H 939.137 -3.70941 -4.71724 0
M  V30 10152 H 940.207 -3.53991 -3.31389 0
M  V30 10153 N 941.55 1.18024 -1.04442 0
M  V30 10154 C 942.79 1.89787 -0.758957 0
M  V30 10155 C 943.154 1.78757 0.700707 0
M  V30 10156 O 944.355 2.45265 1.09994 0
M  V30 10157 C 942.626 3.36047 -1.21685 0
M  V30 10158 S 944.185 4.25864 -1.05761 0
M  V30 10159 H 941.003 0.655311 -0.275841 0
M  V30 10160 H 943.605 1.42589 -1.33749 0
M  V30 10161 H 942.309 3.41606 -2.2745 0
M  V30 10162 H 941.84 3.88286 -0.63227 0
M  V30 10163 H 943.855 4.96195 0.022729 0
M  V30 10164 N 943.028 0.824394 1.34319 0
M  V30 10165 C 944.274 0.413779 1.98534 0
M  V30 10166 C 944.607 -1.02089 1.65201 0
M  V30 10167 O 943.882 -1.71129 0.924402 0
M  V30 10168 C 944.165 0.61801 3.54757 0
M  V30 10169 C 944.018 2.0989 3.97827 0
M  V30 10170 C 945.337 0.0549041 4.40066 0
M  V30 10171 H 942.456 0.151815 0.721194 0
M  V30 10172 H 945.098 1.03723 1.5919 0
M  V30 10173 H 943.248 0.0873107 3.88402 0
M  V30 10174 H 944.92 2.69335 3.74508 0
M  V30 10175 H 943.163 2.58881 3.48085 0
M  V30 10176 H 943.834 2.1926 5.06586 0
M  V30 10177 H 946.31 0.508348 4.12983 0
M  V30 10178 H 945.186 0.227595 5.48428 0
M  V30 10179 H 945.447 -1.04025 4.29687 0
M  V30 10180 N 944.506 -1.46559 0.579492 0
M  V30 10181 C 945.731 -2.0729 0.0674595 0
M  V30 10182 C 946.156 -1.4259 -1.22677 0
M  V30 10183 O 945.514 -0.50857 -1.74021 0
M  V30 10184 C 945.562 -3.60492 -0.0882227 0
M  V30 10185 O 944.666 -3.96172 -1.14551 0
M  V30 10186 H 944.007 -0.661159 0.0613536 0
M  V30 10187 H 946.537 -1.88247 0.801519 0
M  V30 10188 H 946.547 -4.06929 -0.295411 0
M  V30 10189 H 945.222 -4.06976 0.856943 0
M  V30 10190 H 943.799 -3.61448 -0.917033 0
M  V30 10191 N 945.984 -0.3171 -1.54377 0
M  V30 10192 C 946.932 0.567371 -2.25574 0
M  V30 10193 C 947.926 1.12387 -1.2675 0
M  V30 10194 O 949.132 1.07266 -1.44548 0
M  V30 10195 H 945.507 0.201605 -0.724472 0
M  V30 10196 H 947.478 -0.0554644 -2.98348 0
M  V30 10197 C 946.227 1.71984 -3.02187 0
M  V30 10198 H 945.55 1.30086 -3.78044 0
M  V30 10199 H 946.99 2.31443 -3.5526 0
M  V30 10200 C 945.449 2.6336 -2.10103 0
M  V30 10201 O 945.979 3.64899 -1.67962 0
M  V30 10202 N 944.185 2.3145 -1.75725 0
M  V30 10203 H 943.732 1.48921 -2.10191 0
M  V30 10204 H 943.69 2.92852 -1.14391 0
M  V30 10205 N 947.462 1.57535 -0.0451378 0
M  V30 10206 C 948.412 2.07683 0.940829 0
M  V30 10207 C 949.396 0.9807 1.27558 0
M  V30 10208 O 950.588 1.2441 1.25901 0
M  V30 10209 C 947.717 2.62049 2.21778 0
M  V30 10210 C 946.803 3.78621 1.91068 0
M  V30 10211 N 947.194 4.88623 1.30694 0
M  V30 10212 C 945.492 3.87411 2.20972 0
M  V30 10213 C 946.193 5.69714 1.17478 0
M  V30 10214 N 945.169 5.17129 1.67566 0
M  V30 10215 H 948.971 2.90129 0.469267 0
M  V30 10216 H 946.485 1.61615 0.159472 0
M  V30 10217 H 948.482 2.96276 2.93302 0
M  V30 10218 H 947.142 1.81039 2.69546 0
M  V30 10219 H 948.153 5.08545 0.979907 0
M  V30 10220 H 944.83 3.17335 2.71302 0
M  V30 10221 H 946.22 6.68174 0.706574 0
M  V30 10222 N 948.94 -0.228186 1.55939 0
M  V30 10223 C 950.189 -0.951563 1.77843 0
M  V30 10224 C 950.502 -1.85763 0.612501 0
M  V30 10225 O 951.708 -2.61916 0.715006 0
M  V30 10226 C 950.164 -1.74216 3.14923 0
M  V30 10227 C 949.772 -0.882569 4.39221 0
M  V30 10228 C 951.516 -2.45715 3.46156 0
M  V30 10229 C 949.423 -1.67014 5.67327 0
M  V30 10230 H 948.353 -0.359035 0.663031 0
M  V30 10231 H 951.004 -0.205636 1.82344 0
M  V30 10232 H 949.386 -2.53075 3.0458 0
M  V30 10233 H 950.56 -0.13499 4.60602 0
M  V30 10234 H 948.875 -0.280022 4.15457 0
M  V30 10235 H 951.472 -3.05127 4.39092 0
M  V30 10236 H 951.815 -3.1827 2.68346 0
M  V30 10237 H 952.348 -1.73852 3.57799 0
M  V30 10238 H 949.087 -0.987985 6.48012 0
M  V30 10239 H 948.607 -2.3925 5.50018 0
M  V30 10240 H 950.286 -2.23252 6.07262 0
M  V30 10241 N 950.418 -1.49637 -0.494624 0
M  V30 10242 C 951.381 -1.66252 -1.57775 0
M  V30 10243 C 952.381 -0.534054 -1.51672 0
M  V30 10244 O 953.571 -0.800637 -1.54711 0
M  V30 10245 C 950.703 -1.66584 -2.97426 0
M  V30 10246 H 951.896 -2.62864 -1.4437 0
M  V30 10247 H 949.449 -1.38764 -0.719323 0
M  V30 10248 H 950.184 -0.715798 -3.16302 0
M  V30 10249 H 949.969 -2.48543 -3.03264 0
M  V30 10250 H 951.459 -1.81474 -3.76108 0
M  V30 10251 N 951.896 0.746133 -1.38819 0
M  V30 10252 C 953.145 1.50085 -1.34749 0
M  V30 10253 C 953.458 1.95516 0.0574786 0
M  V30 10254 O 954.664 2.70601 0.22073 0
M  V30 10255 C 953.12 2.71141 -2.36665 0
M  V30 10256 C 952.728 2.32706 -3.82821 0
M  V30 10257 C 954.472 3.49005 -2.41652 0
M  V30 10258 C 952.379 3.50418 -4.76405 0
M  V30 10259 H 951.309 0.563563 -0.500912 0
M  V30 10260 H 953.96 0.814951 -1.6441 0
M  V30 10261 H 952.342 3.4175 -2.00058 0
M  V30 10262 H 953.516 1.69715 -4.28408 0
M  V30 10263 H 951.831 1.67959 -3.81023 0
M  V30 10264 H 954.428 4.36541 -3.08766 0
M  V30 10265 H 954.771 3.90687 -1.43769 0
M  V30 10266 H 955.304 2.85416 -2.77097 0
M  V30 10267 H 952.043 3.13795 -5.75511 0
M  V30 10268 H 951.563 4.12426 -4.35505 0
M  V30 10269 H 953.242 4.16901 -4.94775 0
M  V30 10270 N 953.375 1.23811 0.975125 0
M  V30 10271 C 954.786 1.0675 1.53171 0
M  V30 10272 C 955.137 -0.363475 1.92804 0
M  V30 10273 O 954.262 -1.25089 1.76583 0
M  V30 10274 C 954.857 1.93161 2.78342 0
M  V30 10275 C 953.416 1.80346 3.30382 0
M  V30 10276 C 952.563 1.88544 2.03338 0
M  V30 10277 H 955.514 1.37396 0.79423 0
M  V30 10278 H 955.535 1.45951 3.51395 0
M  V30 10279 H 955.047 2.97302 2.49465 0
M  V30 10280 H 953.148 0.790077 3.64127 0
M  V30 10281 H 953.261 2.64026 3.99784 0
M  V30 10282 H 951.625 1.32186 2.17713 0
M  V30 10283 H 952.408 2.94252 1.76836 0
M  V30 10284 N 954.853 -1.17469 1.05066 0
M  V30 10285 C 956.099 -1.87976 0.761113 0
M  V30 10286 C 956.432 -1.80756 -0.709995 0
M  V30 10287 O 955.707 -1.21469 -1.51906 0
M  V30 10288 C 955.99 -3.38055 1.2406 0
M  V30 10289 C 955.843 -3.54032 2.77455 0
M  V30 10290 C 957.162 -4.32036 0.838612 0
M  V30 10291 H 954.281 -0.682573 0.277963 0
M  V30 10292 H 956.923 -1.38147 1.30443 0
M  V30 10293 H 955.073 -3.80622 0.778388 0
M  V30 10294 H 956.745 -3.20489 3.3179 0
M  V30 10295 H 954.988 -2.96352 3.16793 0
M  V30 10296 H 955.659 -4.59377 3.06066 0
M  V30 10297 H 958.135 -3.97303 1.23651 0
M  V30 10298 H 957.011 -5.35583 1.20173 0
M  V30 10299 H 957.272 -4.41349 -0.257498 0
M  V30 10300 N 956.331 -0.831506 -1.3388 0
M  V30 10301 C 957.559 -0.436925 -2.02234 0
M  V30 10302 C 957.974 0.959689 -1.6259 0
M  V30 10303 O 957.331 1.62248 -0.835576 0
M  V30 10304 C 957.382 -0.539429 -3.57453 0
M  V30 10305 O 957.103 -1.88101 -3.95664 0
M  V30 10306 C 958.604 -0.140852 -4.43076 0
M  V30 10307 H 955.824 -0.174302 -0.647966 0
M  V30 10308 H 958.368 -1.12204 -1.70969 0
M  V30 10309 H 956.523 0.0976959 -3.87277 0
M  V30 10310 H 956.937 -1.86131 -4.90363 0
M  V30 10311 H 958.411 -0.26364 -5.5137 0
M  V30 10312 H 958.888 0.916505 -4.29531 0
M  V30 10313 H 959.494 -0.752117 -4.18597 0
M  V30 10314 N 957.809 1.4625 -0.587256 0
M  V30 10315 C 958.741 2.28482 0.181256 0
M  V30 10316 C 959.754 1.38777 0.851163 0
M  V30 10317 O 960.943 1.63336 0.719963 0
M  V30 10318 C 958.043 3.13944 1.27643 0
M  V30 10319 C 957.216 4.31802 0.697569 0
M  V30 10320 C 956.275 4.98626 1.68102 0
M  V30 10321 O 955.301 5.56075 1.21529 0
M  V30 10322 N 956.503 4.96051 3.0152 0
M  V30 10323 H 959.268 2.95079 -0.524267 0
M  V30 10324 H 956.829 1.56213 -0.425336 0
M  V30 10325 H 958.821 3.55513 1.93371 0
M  V30 10326 H 957.391 2.49391 1.88475 0
M  V30 10327 H 956.611 3.93961 -0.137293 0
M  V30 10328 H 957.899 5.07969 0.290696 0
M  V30 10329 H 957.297 4.5063 3.41978 0
M  V30 10330 H 955.854 5.41547 3.62725 0
M  V30 10331 N 959.287 0.325282 1.54207 0
M  V30 10332 C 960.197 -0.548778 2.28091 0
M  V30 10333 C 961.213 -1.12772 1.32508 0
M  V30 10334 O 962.389 -1.14732 1.65525 0
M  V30 10335 C 959.454 -1.69284 3.02562 0
M  V30 10336 C 958.515 -1.14553 4.13734 0
M  V30 10337 C 957.748 -2.23506 4.84645 0
M  V30 10338 O 957.971 -3.43884 4.55082 0
M  V30 10339 O 956.905 -1.88828 5.71513 0
M  V30 10340 H 960.731 0.0512974 3.03657 0
M  V30 10341 H 958.316 0.0909159 1.49123 0
M  V30 10342 H 960.198 -2.35887 3.49192 0
M  V30 10343 H 958.873 -2.27906 2.2987 0
M  V30 10344 H 957.78 -0.444532 3.71449 0
M  V30 10345 H 959.113 -0.60441 4.88475 0
M  V30 10346 N 960.765 -1.57509 0.0534917 0
M  V30 10347 C 961.695 -2.14698 -0.917999 0
M  V30 10348 C 962.676 -1.06924 -1.32292 0
M  V30 10349 O 963.861 -1.34875 -1.39723 0
M  V30 10350 C 960.991 -2.69383 -2.19203 0
M  V30 10351 C 959.945 -3.82161 -1.9271 0
M  V30 10352 C 959.271 -4.23373 -3.26587 0
M  V30 10353 C 960.571 -5.07199 -1.24686 0
M  V30 10354 H 962.265 -2.96125 -0.44165 0
M  V30 10355 H 959.811 -1.42446 -0.210993 0
M  V30 10356 H 961.764 -3.08031 -2.87567 0
M  V30 10357 H 960.488 -1.85151 -2.69048 0
M  V30 10358 H 959.147 -3.43989 -1.26757 0
M  V30 10359 H 958.795 -3.36089 -3.74237 0
M  V30 10360 H 958.495 -4.99385 -3.09658 0
M  V30 10361 H 960.019 -4.64623 -3.96178 0
M  V30 10362 H 961.433 -5.43279 -1.83088 0
M  V30 10363 H 959.83 -5.88369 -1.18076 0
M  V30 10364 H 960.9 -4.84386 -0.223227 0
M  V30 10365 N 962.243 0.219913 -1.56058 0
M  V30 10366 C 963.492 0.942119 -1.78345 0
M  V30 10367 C 963.805 1.85435 -0.622344 0
M  V30 10368 O 965.011 2.61533 -0.728886 0
M  V30 10369 C 963.467 1.72544 -3.15843 0
M  V30 10370 C 963.075 0.859263 -4.39682 0
M  V30 10371 C 964.819 2.43876 -3.47455 0
M  V30 10372 C 962.726 1.64003 -5.68205 0
M  V30 10373 H 961.656 0.355514 -0.664925 0
M  V30 10374 H 964.307 0.195963 -1.82451 0
M  V30 10375 H 962.689 2.51456 -3.05918 0
M  V30 10376 H 963.863 0.110562 -4.60667 0
M  V30 10377 H 962.178 0.257985 -4.156 0
M  V30 10378 H 964.775 3.02794 -4.40704 0
M  V30 10379 H 965.118 3.16843 -2.7003 0
M  V30 10380 H 965.651 1.71952 -3.58716 0
M  V30 10381 H 962.39 0.953606 -6.48526 0
M  V30 10382 H 961.91 2.3633 -5.51279 0
M  V30 10383 H 963.589 2.20028 -6.08438 0
M  V30 10384 N 963.721 1.49897 0.486681 0
M  V30 10385 C 964.961 1.61732 1.24988 0
M  V30 10386 C 965.325 0.303724 1.89582 0
M  V30 10387 O 966.526 0.297373 2.6715 0
M  V30 10388 C 964.797 2.75429 2.27757 0
M  V30 10389 S 966.356 3.07304 3.13225 0
M  V30 10390 H 963.174 0.570316 0.424571 0
M  V30 10391 H 965.776 1.87617 0.549549 0
M  V30 10392 H 964.48 3.69376 1.78857 0
M  V30 10393 H 964.011 2.51582 3.0244 0
M  V30 10394 H 966.026 2.49928 4.28661 0
M  V30 10395 N 965.199 -0.738761 1.39212 0
M  V30 10396 C 966.146 -1.85273 1.37631 0
M  V30 10397 C 967.116 -1.64407 0.236572 0
M  V30 10398 O 968.301 -1.85866 0.431104 0
M  V30 10399 C 965.441 -3.22745 1.22188 0
M  V30 10400 C 964.554 -3.55342 2.45674 0
M  V30 10401 C 963.689 -4.82195 2.22847 0
M  V30 10402 C 962.728 -5.07625 3.42029 0
M  V30 10403 N 961.865 -6.25679 3.18543 0
M  V30 10404 H 966.705 -1.85959 2.32859 0
M  V30 10405 H 964.242 -0.908716 1.15675 0
M  V30 10406 H 966.2 -4.02095 1.11245 0
M  V30 10407 H 964.83 -3.21347 0.30592 0
M  V30 10408 H 963.882 -2.70722 2.67233 0
M  V30 10409 H 965.194 -3.70054 3.34457 0
M  V30 10410 H 964.348 -5.69518 2.09126 0
M  V30 10411 H 963.087 -4.6965 1.31454 0
M  V30 10412 H 962.092 -4.18765 3.56253 0
M  V30 10413 H 963.317 -5.22058 4.34319 0
M  V30 10414 H 961.263 -6.14429 2.2981 0
M  V30 10415 H 961.18 -6.40961 4.0088 0
M  V30 10416 H 962.448 -7.15851 3.08508 0
M  V30 10417 N 966.677 -1.24326 -0.968545 0
M  V30 10418 C 967.917 -1.09434 -1.72637 0
M  V30 10419 C 968.281 0.360781 -1.8858 0
M  V30 10420 O 969.482 0.631188 -2.61284 0
M  V30 10421 C 967.753 -1.81285 -3.08011 0
M  V30 10422 S 969.312 -1.82113 -3.99225 0
M  V30 10423 H 966.13 -0.391409 -0.593565 0
M  V30 10424 H 968.732 -1.57643 -1.15624 0
M  V30 10425 H 967.436 -2.86274 -2.94067 0
M  V30 10426 H 966.967 -1.33405 -3.7009 0
M  V30 10427 H 968.982 -0.888196 -4.88186 0
M  V30 10428 N 968.156 1.1691 -1.05688 0
M  V30 10429 C 969.402 1.8757 -0.771071 0
M  V30 10430 C 969.735 1.8113 0.700399 0
M  V30 10431 O 969.01 1.22273 1.5126 0
M  V30 10432 C 969.293 3.37392 -1.25851 0
M  V30 10433 C 969.146 3.52556 -2.79329 0
M  V30 10434 C 970.465 4.31585 -0.861512 0
M  V30 10435 H 967.584 0.681089 -0.281579 0
M  V30 10436 H 970.226 1.37453 -1.31174 0
M  V30 10437 H 968.376 3.80204 -0.798563 0
M  V30 10438 H 970.048 3.18725 -3.33485 0
M  V30 10439 H 968.291 2.94668 -3.1836 0
M  V30 10440 H 968.962 4.57748 -3.08498 0
M  V30 10441 H 971.438 3.96642 -1.25756 0
M  V30 10442 H 970.314 5.34939 -1.23012 0
M  V30 10443 H 970.575 4.4148 0.234089 0
M  V30 10444 N 969.634 0.838594 1.33437 0
M  V30 10445 C 970.564 0.286672 2.31734 0
M  V30 10446 C 971.545 -0.605451 1.5896 0
M  V30 10447 O 972.73 -0.529059 1.86854 0
M  V30 10448 C 969.86 -0.539311 3.43087 0
M  V30 10449 C 968.814 0.256997 4.27228 0
M  V30 10450 C 968.14 -0.692718 5.30194 0
M  V30 10451 C 969.44 1.47391 5.01072 0
M  V30 10452 H 971.134 1.10798 2.78144 0
M  V30 10453 H 968.68 0.534235 1.33723 0
M  V30 10454 H 970.633 -0.935724 4.1088 0
M  V30 10455 H 969.357 -1.39383 2.95364 0
M  V30 10456 H 968.016 0.634967 3.61059 0
M  V30 10457 H 967.664 -1.54363 4.78729 0
M  V30 10458 H 967.364 -0.164023 5.87371 0
M  V30 10459 H 968.888 -1.08665 6.00853 0
M  V30 10460 H 970.302 1.15067 5.61634 0
M  V30 10461 H 968.699 1.93937 5.67898 0
M  V30 10462 H 969.769 2.24382 4.29861 0
M  V30 10463 N 971.112 -1.45937 0.595003 0
M  V30 10464 C 972.389 -1.95592 0.0178748 0
M  V30 10465 C 972.769 -1.53758 -1.44643 0
M  V30 10466 O 972.117 -0.794104 -2.14257 0
M  V30 10467 C 972.327 -3.4841 0.202789 0
M  V30 10468 C 973.675 -4.2453 0.0770121 0
M  V30 10469 O 974.699 -3.55954 0.132257 0
M  V30 10470 O 973.558 -5.46479 -0.0484271 0
M  V30 10471 H 970.652 -0.825888 -0.0428702 0
M  V30 10472 H 973.198 -1.56162 0.664184 0
M  V30 10473 H 971.97 -3.71787 1.22027 0
M  V30 10474 H 971.593 -3.947 -0.479376 0
M  V30 10475 N 972.59 -0.333456 -1.54032 0
M  V30 10476 C 974.001 0.15256 -1.86076 0
M  V30 10477 C 974.352 1.50819 -1.25492 0
M  V30 10478 O 973.477 2.08903 -0.564665 0
M  V30 10479 C 974.072 0.283599 -3.37611 0
M  V30 10480 C 972.631 0.713841 -3.69569 0
M  V30 10481 C 971.778 -0.158515 -2.76847 0
M  V30 10482 H 974.729 -0.553404 -1.48738 0
M  V30 10483 H 974.75 1.11284 -3.63863 0
M  V30 10484 H 974.262 -0.703193 -3.81676 0
M  V30 10485 H 972.363 1.71002 -3.31042 0
M  V30 10486 H 972.476 0.510731 -4.7637 0
M  V30 10487 H 970.84 0.367531 -2.52034 0
M  V30 10488 H 971.623 -1.14226 -3.2374 0
M  V30 10489 N 974.068 1.57479 -0.061844 0
M  V30 10490 C 975.015 2.12152 0.908862 0
M  V30 10491 C 975.985 1.03152 1.30188 0
M  V30 10492 O 977.17 1.3076 1.38948 0
M  V30 10493 C 974.31 2.6796 2.17465 0
M  V30 10494 C 973.423 3.91083 1.83517 0
M  V30 10495 C 972.558 4.35169 3.04633 0
M  V30 10496 C 971.597 5.50964 2.66655 0
M  V30 10497 N 970.734 5.90055 3.80499 0
M  V30 10498 H 975.574 2.94797 0.435743 0
M  V30 10499 H 973.111 1.45686 0.203445 0
M  V30 10500 H 975.069 2.98421 2.91548 0
M  V30 10501 H 973.699 1.88096 2.62335 0
M  V30 10502 H 972.751 3.67146 0.995381 0
M  V30 10503 H 974.063 4.75214 1.51569 0
M  V30 10504 H 973.217 4.67239 3.87005 0
M  V30 10505 H 971.956 3.49871 3.39767 0
M  V30 10506 H 970.961 5.18556 1.82703 0
M  V30 10507 H 972.186 6.37986 2.32702 0
M  V30 10508 H 970.132 5.07708 4.15414 0
M  V30 10509 H 970.049 6.68903 3.52285 0
M  V30 10510 H 971.317 6.26744 4.63479 0
M  V30 10511 N 975.546 -0.211634 1.56173 0
M  V30 10512 C 976.494 -1.28188 1.94089 0
M  V30 10513 C 977.488 -1.47999 0.824167 0
M  V30 10514 O 978.694 -1.49056 1.00907 0
M  V30 10515 H 975.069 -0.42999 0.616938 0
M  V30 10516 H 977.04 -0.934962 2.83374 0
M  V30 10517 C 975.789 -2.62294 2.28248 0
M  V30 10518 H 975.112 -2.4786 3.13696 0
M  V30 10519 H 976.552 -3.35967 2.58655 0
M  V30 10520 C 975.011 -3.18049 1.11113 0
M  V30 10521 O 975.541 -3.99923 0.377458 0
M  V30 10522 N 973.747 -2.76561 0.892321 0
M  V30 10523 H 973.294 -2.10088 1.49067 0
M  V30 10524 H 973.252 -3.14206 0.110344 0
M  V30 10525 N 977.024 -1.50153 -0.478725 0
M  V30 10526 C 978.249 -1.64776 -1.2595 0
M  V30 10527 C 978.674 -0.327794 -1.85222 0
M  V30 10528 O 978.032 0.707418 -1.66929 0
M  V30 10529 C 978.08 -2.73551 -2.34952 0
M  V30 10530 O 977.184 -2.34273 -3.39397 0
M  V30 10531 H 976.525 -0.550769 -0.370877 0
M  V30 10532 H 979.055 -1.96482 -0.570605 0
M  V30 10533 H 979.065 -2.96397 -2.8038 0
M  V30 10534 H 977.74 -3.69354 -1.91181 0
M  V30 10535 H 976.317 -2.21844 -2.99733 0
M  V30 10536 N 978.502 0.731368 -1.39602 0
M  V30 10537 C 979.779 1.48308 -1.27531 0
M  V30 10538 C 980.159 2.10795 0.113482 0
M  V30 10539 O 979.507 1.98886 1.12501 0
M  V30 10540 C 979.717 2.53156 -2.40235 0
M  V30 10541 C 981.065 3.19436 -2.79725 0
M  V30 10542 O 982.089 2.6347 -2.39712 0
M  V30 10543 O 980.948 4.20714 -3.48801 0
M  V30 10544 H 978.042 0.658753 -0.499973 0
M  V30 10545 H 980.588 0.764884 -1.51485 0
M  V30 10546 H 979.36 2.05387 -3.33064 0
M  V30 10547 H 978.983 3.3253 -2.17966 0
M  V30 10548 N 979.98 1.24838 0.961938 0
M  V30 10549 C 981.229 1.0855 1.69999 0
M  V30 10550 C 981.542 -0.374645 1.91979 0
M  V30 10551 O 982.748 -0.657822 2.6341 0
M  V30 10552 C 981.204 1.89424 3.06017 0
M  V30 10553 C 980.812 3.39885 2.9186 0
M  V30 10554 C 982.556 1.81684 3.83655 0
M  V30 10555 C 980.463 4.13082 4.23223 0
M  V30 10556 H 979.393 0.402603 0.637516 0
M  V30 10557 H 982.044 1.4897 1.07146 0
M  V30 10558 H 980.426 1.41823 3.69733 0
M  V30 10559 H 981.6 3.95108 2.37121 0
M  V30 10560 H 979.915 3.4864 2.27683 0
M  V30 10561 H 982.512 2.3367 4.80939 0
M  V30 10562 H 982.855 0.783247 4.08865 0
M  V30 10563 H 983.388 2.26997 3.26676 0
M  V30 10564 H 980.127 5.16824 4.03204 0
M  V30 10565 H 979.647 3.62644 4.77755 0
M  V30 10566 H 981.326 4.20397 4.91808 0
M  V30 10567 N 981.458 -1.16348 1.06306 0
M  V30 10568 C 982.388 -2.2291 0.695234 0
M  V30 10569 C 983.369 -1.67208 -0.312343 0
M  V30 10570 O 984.554 -1.93293 -0.187442 0
M  V30 10571 C 981.684 -3.47205 0.0810149 0
M  V30 10572 C 980.638 -4.15801 1.01458 0
M  V30 10573 C 979.964 -5.3405 0.263656 0
M  V30 10574 C 981.264 -4.66766 2.34365 0
M  V30 10575 H 982.958 -2.53934 1.58613 0
M  V30 10576 H 980.504 -1.22056 0.76409 0
M  V30 10577 H 982.457 -4.2098 -0.18818 0
M  V30 10578 H 981.181 -3.15482 -0.844897 0
M  V30 10579 H 979.84 -3.43954 1.26852 0
M  V30 10580 H 979.488 -4.9858 -0.665378 0
M  V30 10581 H 979.188 -5.80885 0.88582 0
M  V30 10582 H 980.712 -6.106 0.00200994 0
M  V30 10583 H 982.126 -5.3212 2.13356 0
M  V30 10584 H 980.523 -5.24223 2.9208 0
M  V30 10585 H 981.593 -3.82969 2.97426 0
M  V30 10586 N 982.937 -0.845659 -1.3299 0
M  V30 10587 C 984.186 -0.440928 -1.96822 0
M  V30 10588 C 984.499 1.00668 -1.67706 0
M  V30 10589 O 985.705 1.51641 -2.25205 0
M  V30 10590 C 984.161 -0.73752 -3.52262 0
M  V30 10591 C 983.769 -2.20026 -3.90247 0
M  V30 10592 C 985.513 -0.400072 -4.22611 0
M  V30 10593 C 983.42 -2.44054 -5.38694 0
M  V30 10594 H 982.35 -0.161148 -0.736578 0
M  V30 10595 H 985.001 -1.03519 -1.51513 0
M  V30 10596 H 983.383 -0.0728025 -3.95933 0
M  V30 10597 H 984.557 -2.90602 -3.57613 0
M  V30 10598 H 982.872 -2.50135 -3.32899 0
M  V30 10599 H 985.469 -0.557136 -5.3179 0
M  V30 10600 H 985.812 0.657547 -4.11074 0
M  V30 10601 H 986.345 -1.0203 -3.84493 0
M  V30 10602 H 983.084 -3.48407 -5.55241 0
M  V30 10603 H 982.604 -1.78047 -5.72765 0
M  V30 10604 H 984.283 -2.27549 -6.05665 0
M  V30 10605 N 984.415 1.45619 -0.602734 0
M  V30 10606 C 985.831 1.57368 -0.26599 0
M  V30 10607 C 986.031 1.59485 1.23154 0
M  V30 10608 O 985.087 1.52254 2.01432 0
M  V30 10609 C 986.4 2.85863 -0.932881 0
M  V30 10610 C 987.948 2.9953 -0.908344 0
M  V30 10611 C 988.423 4.30789 -1.55515 0
M  V30 10612 N 989.914 4.37536 -1.52042 0
M  V30 10613 C 990.649 5.37758 -1.99008 0
M  V30 10614 N 990.145 6.44544 -2.54038 0
M  V30 10615 N 991.938 5.29085 -1.89805 0
M  V30 10616 H 984.089 1.42489 -1.57514 0
M  V30 10617 H 986.352 0.680948 -0.659556 0
M  V30 10618 H 986.058 2.90183 -1.98713 0
M  V30 10619 H 985.932 3.74467 -0.453209 0
M  V30 10620 H 988.319 2.9478 0.137344 0
M  V30 10621 H 988.4 2.12349 -1.42623 0
M  V30 10622 H 988.044 4.36297 -2.60014 0
M  V30 10623 H 987.974 5.16778 -1.01232 0
M  V30 10624 H 990.465 3.60972 -1.11837 0
M  V30 10625 H 990.778 7.17258 -2.87682 0
M  V30 10626 H 989.123 6.45308 -2.58075 0
M  V30 10627 H 992.314 4.44566 -1.46556 0
M  V30 10628 H 992.487 6.07043 -2.26722 0
M  V30 10629 N 985.893 0.34162 1.53853 0
M  V30 10630 C 987.121 -0.256929 2.05299 0
M  V30 10631 C 987.536 -1.44366 1.21671 0
M  V30 10632 O 986.893 -1.80758 0.251584 0
M  V30 10633 C 986.944 -0.673854 3.55164 0
M  V30 10634 O 986.665 0.465687 4.35618 0
M  V30 10635 C 988.166 -1.33332 4.22773 0
M  V30 10636 H 985.386 -0.0499445 0.669139 0
M  V30 10637 H 987.93 0.493048 1.98467 0
M  V30 10638 H 986.085 -1.37378 3.62224 0
M  V30 10639 H 986.499 0.133723 5.2433 0
M  V30 10640 H 987.973 -1.57582 5.29029 0
M  V30 10641 H 988.45 -2.28628 3.75001 0
M  V30 10642 H 989.056 -0.675489 4.19901 0
M  V30 10643 N 987.371 -1.57444 0.0701946 0
M  V30 10644 C 988.281 -2.16132 -0.912377 0
M  V30 10645 C 989.297 -1.12406 -1.32819 0
M  V30 10646 O 990.473 -1.44665 -1.40121 0
M  V30 10647 C 987.538 -2.71008 -2.16231 0
M  V30 10648 C 986.599 -3.896 -1.80306 0
M  V30 10649 C 985.832 -4.4185 -2.9934 0
M  V30 10650 O 986.055 -3.93106 -4.13309 0
M  V30 10651 O 984.989 -5.33201 -2.7925 0
M  V30 10652 H 988.815 -3.00449 -0.443167 0
M  V30 10653 H 986.4 -1.48617 -0.152786 0
M  V30 10654 H 988.282 -3.06186 -2.8953 0
M  V30 10655 H 986.957 -1.8975 -2.62253 0
M  V30 10656 H 985.864 -3.59277 -1.04264 0
M  V30 10657 H 987.197 -4.72145 -1.39068 0
M  V30 10658 N 988.849 0.203349 -1.56283 0
M  V30 10659 C 989.779 1.2549 -1.96912 0
M  V30 10660 C 990.76 1.47919 -0.839884 0
M  V30 10661 O 991.945 1.59795 -1.10359 0
M  V30 10662 C 989.075 2.6009 -2.30153 0
M  V30 10663 C 988.029 2.52289 -3.45738 0
M  V30 10664 C 987.355 3.91086 -3.64632 0
M  V30 10665 C 988.655 2.05503 -4.80173 0
M  V30 10666 H 990.349 0.917306 -2.85002 0
M  V30 10667 H 987.895 0.439818 -1.37119 0
M  V30 10668 H 989.848 3.33829 -2.5717 0
M  V30 10669 H 988.572 2.95574 -1.38937 0
M  V30 10670 H 987.231 1.81006 -3.18798 0
M  V30 10671 H 986.879 4.23908 -2.7076 0
M  V30 10672 H 986.579 3.86742 -4.42385 0
M  V30 10673 H 988.103 4.66459 -3.94016 0
M  V30 10674 H 989.517 2.68995 -5.06275 0
M  V30 10675 H 987.914 2.1218 -5.61337 0
M  V30 10676 H 988.984 1.00793 -4.74309 0
M  V30 10677 N 990.327 1.50405 0.470755 0
M  V30 10678 C 991.743 1.37838 0.804534 0
M  V30 10679 C 991.943 0.434743 1.96754 0
M  V30 10680 O 990.999 -0.122507 2.52203 0
M  V30 10681 C 992.312 2.79212 1.11629 0
M  V30 10682 C 993.86 2.88129 1.22272 0
M  V30 10683 C 994.335 4.30337 1.5676 0
M  V30 10684 N 995.826 4.3329 1.63751 0
M  V30 10685 C 996.561 5.4032 1.91942 0
M  V30 10686 N 996.057 6.57558 2.18151 0
M  V30 10687 N 997.85 5.27764 1.93446 0
M  V30 10688 H 990.001 2.10332 -0.295689 0
M  V30 10689 H 992.264 0.945429 -0.0697733 0
M  V30 10690 H 991.97 3.50103 0.334778 0
M  V30 10691 H 991.844 3.16475 2.0524 0
M  V30 10692 H 994.231 2.17457 1.9949 0
M  V30 10693 H 994.312 2.54409 0.2664 0
M  V30 10694 H 993.956 5.01547 0.800817 0
M  V30 10695 H 993.886 4.61545 2.53543 0
M  V30 10696 H 996.377 3.48752 1.45535 0
M  V30 10697 H 996.69 7.34935 2.38936 0
M  V30 10698 H 995.035 6.60732 2.15542 0
M  V30 10699 H 998.226 4.35169 1.72468 0
M  V30 10700 H 998.399 6.11264 2.15081 0
M  V30 10701 N 991.805 -0.723954 1.39988 0
M  V30 10702 C 993.216 -1.30273 1.33738 0
M  V30 10703 C 993.567 -1.96199 0.00690581 0
M  V30 10704 O 992.692 -1.97016 -0.895179 0
M  V30 10705 C 993.287 -2.36889 2.42217 0
M  V30 10706 C 991.846 -2.90412 2.39453 0
M  V30 10707 C 990.993 -1.64103 2.2353 0
M  V30 10708 H 993.944 -0.520672 1.49916 0
M  V30 10709 H 993.965 -3.17538 2.09642 0
M  V30 10710 H 993.477 -1.88878 3.39038 0
M  V30 10711 H 991.578 -3.42674 1.46304 0
M  V30 10712 H 991.691 -3.42775 3.34727 0
M  V30 10713 H 990.055 -1.88855 1.70897 0
M  V30 10714 H 990.838 -1.18128 3.22336 0
M  V30 10715 N 993.283 -1.25346 -0.955304 0
M  V30 10716 C 994.529 -1.10218 -1.70235 0
M  V30 10717 C 994.862 0.356124 -1.90907 0
M  V30 10718 O 994.137 1.26253 -1.47954 0
M  V30 10719 C 994.42 -1.85627 -3.08569 0
M  V30 10720 C 994.273 -3.39281 -2.95311 0
M  V30 10721 C 995.592 -1.63886 -4.08448 0
M  V30 10722 H 992.711 -0.401781 -0.617852 0
M  V30 10723 H 995.353 -1.5417 -1.11048 0
M  V30 10724 H 993.503 -1.48269 -3.59094 0
M  V30 10725 H 995.175 -3.8631 -2.52116 0
M  V30 10726 H 993.418 -3.67027 -2.31244 0
M  V30 10727 H 994.089 -3.87258 -3.93364 0
M  V30 10728 H 996.565 -1.96406 -3.6683 0
M  V30 10729 H 995.441 -2.19087 -5.03281 0
M  V30 10730 H 995.702 -0.580021 -4.38279 0
M  V30 10731 N 994.761 1.15782 -1.06922 0
M  V30 10732 C 995.708 2.2038 -0.685659 0
M  V30 10733 C 996.678 1.62972 0.320816 0
M  V30 10734 O 997.863 1.8966 0.208258 0
M  V30 10735 C 995.003 3.44995 -0.084998 0
M  V30 10736 C 994.116 4.16621 -1.14242 0
M  V30 10737 C 993.251 5.28773 -0.507226 0
M  V30 10738 C 992.29 5.92209 -1.54774 0
M  V30 10739 N 991.427 6.9584 -0.935443 0
M  V30 10740 H 996.267 2.5254 -1.58201 0
M  V30 10741 H 993.804 1.24031 -0.790864 0
M  V30 10742 H 995.762 4.16254 0.280845 0
M  V30 10743 H 994.392 3.13365 0.774725 0
M  V30 10744 H 993.444 3.43903 -1.62589 0
M  V30 10745 H 994.756 4.59884 -1.93154 0
M  V30 10746 H 993.91 6.06635 -0.0887719 0
M  V30 10747 H 992.649 4.8669 0.313704 0
M  V30 10748 H 991.654 5.13063 -1.97602 0
M  V30 10749 H 992.879 6.3637 -2.37088 0
M  V30 10750 H 990.825 6.5586 -0.135339 0
M  V30 10751 H 990.742 7.37508 -1.66186 0
M  V30 10752 H 992.01 7.77611 -0.542346 0
M  V30 10753 N 996.239 0.8527 1.3254 0
M  V30 10754 C 997.149 0.298744 2.3269 0
M  V30 10755 C 998.165 -0.582418 1.63963 0
M  V30 10756 O 999.341 -0.483253 1.95516 0
M  V30 10757 C 996.406 -0.505453 3.42996 0
M  V30 10758 C 995.467 0.401618 4.27417 0
M  V30 10759 C 994.7 -0.364294 5.32455 0
M  V30 10760 O 994.923 -1.59448 5.47661 0
M  V30 10761 O 993.857 0.268892 6.01299 0
M  V30 10762 H 997.683 1.12843 2.81958 0
M  V30 10763 H 995.268 0.615584 1.36128 0
M  V30 10764 H 997.15 -0.961974 4.10273 0
M  V30 10765 H 995.825 -1.31197 2.95921 0
M  V30 10766 H 994.732 0.906274 3.62957 0
M  V30 10767 H 996.065 1.17327 4.78012 0
M  V30 10768 N 997.718 -1.45297 0.610449 0
M  V30 10769 C 998.651 -2.27669 -0.155637 0
M  V30 10770 C 999.629 -1.37308 -0.870936 0
M  V30 10771 O 1000.81 -1.66739 -0.879228 0
M  V30 10772 C 997.94 -3.15748 -1.2256 0
M  V30 10773 C 996.986 -4.2207 -0.613116 0
M  V30 10774 S 997.819 -5.32337 0.581183 0
M  V30 10775 C 998.975 -6.23985 -0.489298 0
M  V30 10776 H 999.208 -2.92295 0.543205 0
M  V30 10777 H 996.741 -1.49181 0.398044 0
M  V30 10778 H 998.699 -3.67051 -1.83804 0
M  V30 10779 H 997.36 -2.50381 -1.89652 0
M  V30 10780 H 996.553 -4.83633 -1.41827 0
M  V30 10781 H 996.155 -3.73923 -0.0757482 0
M  V30 10782 H 998.447 -6.63553 -1.36759 0
M  V30 10783 H 999.39 -7.08042 0.0902456 0
M  V30 10784 H 999.798 -5.58718 -0.805911 0
M  V30 10785 N 999.196 -0.349774 -1.5367 0
M  V30 10786 C 1000.16 0.491676 -2.23864 0
M  V30 10787 C 1001.16 1.02256 -1.24098 0
M  V30 10788 O 1002.35 0.910816 -1.48492 0
M  V30 10789 C 999.481 1.68557 -2.96313 0
M  V30 10790 H 1000.67 -0.12233 -2.9965 0
M  V30 10791 H 998.227 -0.101214 -1.55972 0
M  V30 10792 H 998.962 2.3381 -2.2473 0
M  V30 10793 H 998.747 1.31203 -3.69497 0
M  V30 10794 H 1000.24 2.28225 -3.49718 0
M  V30 10795 N 1000.67 1.57404 -0.0785433 0
M  V30 10796 C 1001.61 2.101 0.916013 0
M  V30 10797 C 1002.62 1.03459 1.25698 0
M  V30 10798 O 1003.81 1.30954 1.21299 0
M  V30 10799 C 1000.91 2.55202 2.22992 0
M  V30 10800 C 1000.08 3.85491 2.06678 0
M  V30 10801 C 999.14 4.16614 3.21433 0
M  V30 10802 O 998.166 4.86105 2.96126 0
M  V30 10803 N 999.368 3.70697 4.46726 0
M  V30 10804 H 1002.13 2.96054 0.466059 0
M  V30 10805 H 999.694 1.61546 0.107006 0
M  V30 10806 H 1001.69 2.7308 2.9868 0
M  V30 10807 H 1000.26 1.74348 2.59464 0
M  V30 10808 H 999.476 3.76925 1.15417 0
M  V30 10809 H 1000.76 4.70759 1.93036 0
M  V30 10810 H 1000.16 3.14571 4.70172 0
M  V30 10811 H 998.719 3.93762 5.19418 0
M  V30 10812 N 1002.15 -0.195058 1.56388 0
M  V30 10813 C 1003.38 -0.935745 1.85091 0
M  V30 10814 C 1003.8 -1.76061 0.662118 0
M  V30 10815 O 1003.16 -1.77076 -0.389083 0
M  V30 10816 C 1003.21 -1.80764 3.1202 0
M  V30 10817 O 1002.31 -2.90643 2.92575 0
M  V30 10818 H 1001.65 -0.26351 0.609474 0
M  V30 10819 H 1004.18 -0.200362 2.03617 0
M  V30 10820 H 1004.19 -2.21229 3.42815 0
M  V30 10821 H 1002.87 -1.20157 3.98165 0
M  V30 10822 H 1001.44 -2.53934 2.73079 0
M  V30 10823 N 1003.63 -1.50653 -0.462772 0
M  V30 10824 C 1004.58 -1.66509 -1.55752 0
M  V30 10825 C 1005.56 -0.519508 -1.52282 0
M  V30 10826 O 1006.76 -0.774296 -1.59166 0
M  V30 10827 C 1003.88 -1.77023 -2.94139 0
M  V30 10828 C 1002.97 -2.97284 -3.02461 0
M  V30 10829 N 1003.36 -4.20843 -2.80579 0
M  V30 10830 C 1001.66 -2.96014 -3.33604 0
M  V30 10831 C 1002.36 -5.01886 -2.94084 0
M  V30 10832 N 1001.34 -4.3601 -3.24648 0
M  V30 10833 H 1005.14 -2.59727 -1.37546 0
M  V30 10834 H 1002.65 -1.47951 -0.669653 0
M  V30 10835 H 1004.65 -1.86488 -3.72864 0
M  V30 10836 H 1003.31 -0.849688 -3.13385 0
M  V30 10837 H 1004.32 -4.50206 -2.55998 0
M  V30 10838 H 1001 -2.13493 -3.58786 0
M  V30 10839 H 1002.39 -6.10164 -2.81334 0
M  V30 10840 N 1005.11 0.71652 -1.4037 0
M  V30 10841 C 1006.02 1.86074 -1.42876 0
M  V30 10842 C 1007.03 1.71005 -0.321475 0
M  V30 10843 O 1008.21 1.93286 -0.565909 0
M  V30 10844 C 1005.28 3.21862 -1.28863 0
M  V30 10845 C 1004.34 3.49193 -2.49726 0
M  V30 10846 C 1003.57 4.78502 -2.36372 0
M  V30 10847 O 1003.79 5.53529 -1.37703 0
M  V30 10848 O 1002.73 5.06147 -3.25728 0
M  V30 10849 H 1006.55 1.86916 -2.39366 0
M  V30 10850 H 1004.14 0.866818 -1.21683 0
M  V30 10851 H 1006.02 4.02972 -1.23253 0
M  V30 10852 H 1004.69 3.2175 -0.354783 0
M  V30 10853 H 1003.6 2.68095 -2.60913 0
M  V30 10854 H 1004.93 3.54101 -3.41868 0
M  V30 10855 N 1006.59 1.25851 0.948643 0
M  V30 10856 C 1007.82 1.13546 1.726 0
M  V30 10857 C 1008.22 -0.312857 1.86595 0
M  V30 10858 O 1007.57 -1.22657 1.36751 0
M  V30 10859 C 1007.63 1.72315 3.15512 0
M  V30 10860 C 1007.29 3.2136 3.24926 0
M  V30 10861 C 1008.29 4.18274 3.08777 0
M  V30 10862 C 1005.98 3.61683 3.48555 0
M  V30 10863 C 1007.97 5.53491 3.16112 0
M  V30 10864 C 1005.66 4.97035 3.55526 0
M  V30 10865 C 1006.65 5.92749 3.3932 0
M  V30 10866 O 1006.34 7.25637 3.45985 0
M  V30 10867 H 1006.07 0.396555 0.547467 0
M  V30 10868 H 1008.63 1.66822 1.19832 0
M  V30 10869 H 1006.86 1.13494 3.6967 0
M  V30 10870 H 1008.55 1.55024 3.7513 0
M  V30 10871 H 1009.31 3.88461 2.90385 0
M  V30 10872 H 1005.19 2.87674 3.60229 0
M  V30 10873 H 1008.74 6.28177 3.0338 0
M  V30 10874 H 1004.63 5.26512 3.73437 0
M  V30 10875 H 1005.4 7.33812 3.62577 0
M  V30 10876 N 1008.06 -1.15214 1.07534 0
M  V30 10877 C 1008.99 -2.2216 0.718837 0
M  V30 10878 C 1009.98 -1.6753 -0.29459 0
M  V30 10879 O 1011.16 -1.93481 -0.166931 0
M  V30 10880 C 1008.29 -3.471 0.117836 0
M  V30 10881 C 1007.24 -4.14701 1.05862 0
M  V30 10882 C 1006.57 -5.3374 0.320284 0
M  V30 10883 C 1007.87 -4.64254 2.39302 0
M  V30 10884 H 1009.56 -2.52237 1.61297 0
M  V30 10885 H 1007.11 -1.21239 0.776992 0
M  V30 10886 H 1009.06 -4.21156 -0.143519 0
M  V30 10887 H 1007.79 -3.16361 -0.811389 0
M  V30 10888 H 1006.45 -3.42589 1.30493 0
M  V30 10889 H 1006.09 -4.99257 -0.61246 0
M  V30 10890 H 1005.79 -5.79912 0.947381 0
M  V30 10891 H 1007.32 -6.10563 0.0667721 0
M  V30 10892 H 1008.73 -5.29827 2.18988 0
M  V30 10893 H 1007.13 -5.21095 2.97623 0
M  V30 10894 H 1008.2 -3.79793 3.01472 0
M  V30 10895 N 1009.54 -0.859717 -1.32086 0
M  V30 10896 C 1010.77 -0.478865 -2.01796 0
M  V30 10897 C 1011.19 0.918274 -1.64163 0
M  V30 10898 O 1010.55 1.60409 -0.844896 0
M  V30 10899 C 1010.6 -0.631356 -3.5503 0
M  V30 10900 O 1009.7 0.333712 -4.11048 0
M  V30 10901 H 1009.04 -0.191775 -0.635703 0
M  V30 10902 H 1011.57 -1.16031 -1.68517 0
M  V30 10903 H 1011.58 -0.520783 -4.04663 0
M  V30 10904 H 1010.26 -1.65015 -3.81763 0
M  V30 10905 H 1008.84 0.178953 -3.7247 0
M  V30 10906 N 1011.02 1.44971 -0.618145 0
M  V30 10907 C 1012.27 2.01372 -0.115004 0
M  V30 10908 C 1012.58 1.49104 1.26599 0
M  V30 10909 O 1013.79 1.97549 1.86244 0
M  V30 10910 C 1012.24 3.59567 -0.154883 0
M  V30 10911 C 1011.85 4.20832 -1.53639 0
M  V30 10912 C 1013.6 4.23491 0.292468 0
M  V30 10913 C 1011.5 5.7121 -1.53208 0
M  V30 10914 H 1010.43 0.752979 -0.0392267 0
M  V30 10915 H 1013.08 1.66329 -0.775032 0
M  V30 10916 H 1011.47 3.91847 0.572001 0
M  V30 10917 H 1012.64 4.00109 -2.28582 0
M  V30 10918 H 1010.96 3.69143 -1.92672 0
M  V30 10919 H 1013.55 5.33771 0.315032 0
M  V30 10920 H 1013.9 3.9491 1.31725 0
M  V30 10921 H 1014.43 3.95967 -0.381493 0
M  V30 10922 H 1011.17 6.04506 -2.53481 0
M  V30 10923 H 1010.69 5.94094 -0.825387 0
M  V30 10924 H 1012.37 6.34606 -1.26032 0
M  V30 10925 N 1012.5 0.357919 1.53482 0
M  V30 10926 C 1013.41 -0.500273 2.29204 0
M  V30 10927 C 1014.42 -1.09936 1.3487 0
M  V30 10928 O 1015.6 -1.11195 1.67921 0
M  V30 10929 C 1012.67 -1.62828 3.06085 0
M  V30 10930 C 1011.73 -1.05751 4.16071 0
M  V30 10931 C 1010.96 -2.13176 4.89277 0
M  V30 10932 O 1011.18 -3.34153 4.62274 0
M  V30 10933 O 1010.12 -1.76663 5.7539 0
M  V30 10934 H 1013.94 0.115696 3.0348 0
M  V30 10935 H 1011.53 0.122527 1.48897 0
M  V30 10936 H 1013.41 -2.28427 3.54117 0
M  V30 10937 H 1012.08 -2.22979 2.34653 0
M  V30 10938 H 1010.99 -0.365642 3.72309 0
M  V30 10939 H 1012.32 -0.500661 4.89647 0
M  V30 10940 N 1013.98 -1.5736 0.0868897 0
M  V30 10941 C 1015.21 -1.981 -0.586498 0
M  V30 10942 C 1015.61 -0.96455 -1.62767 0
M  V30 10943 O 1014.96 0.0551801 -1.83617 0
M  V30 10944 C 1015.02 -3.35193 -1.29947 0
M  V30 10945 C 1014.68 -4.55157 -0.410012 0
M  V30 10946 C 1015.68 -5.18797 0.338532 0
M  V30 10947 C 1013.37 -5.01212 -0.33047 0
M  V30 10948 C 1015.36 -6.26854 1.15468 0
M  V30 10949 C 1013.05 -6.09138 0.48934 0
M  V30 10950 C 1014.04 -6.71823 1.23057 0
M  V30 10951 O 1013.73 -7.77669 2.03683 0
M  V30 10952 H 1013.46 -0.656166 -0.16255 0
M  V30 10953 H 1016.02 -2.04773 0.160379 0
M  V30 10954 H 1014.25 -3.25179 -2.09274 0
M  V30 10955 H 1015.94 -3.60435 -1.86658 0
M  V30 10956 H 1016.7 -4.84151 0.286764 0
M  V30 10957 H 1012.58 -4.52188 -0.897058 0
M  V30 10958 H 1016.13 -6.75712 1.73374 0
M  V30 10959 H 1012.02 -6.43215 0.542618 0
M  V30 10960 H 1012.79 -7.94618 1.96277 0
M  V30 10961 N 1015.45 0.186762 -1.56489 0
M  V30 10962 C 1016.68 0.925916 -1.85584 0
M  V30 10963 C 1017.1 1.75708 -0.671446 0
M  V30 10964 O 1016.46 1.7728 0.379687 0
M  V30 10965 C 1016.51 1.79107 -3.12975 0
M  V30 10966 O 1015.61 2.89088 -2.94112 0
M  V30 10967 H 1014.96 0.260275 -0.610863 0
M  V30 10968 H 1017.49 0.189561 -2.0372 0
M  V30 10969 H 1017.5 2.19408 -3.43983 0
M  V30 10970 H 1016.17 1.18044 -3.98796 0
M  V30 10971 H 1014.75 2.52482 -2.74422 0
M  V30 10972 N 1016.93 1.50896 0.454776 0
M  V30 10973 C 1017.84 1.73762 1.5762 0
M  V30 10974 C 1018.86 0.621206 1.62533 0
M  V30 10975 O 1020.03 0.901449 1.801 0
M  V30 10976 C 1017.1 1.84183 2.9373 0
M  V30 10977 C 1016.16 3.07982 2.99075 0
M  V30 10978 C 1015.39 3.17896 4.28693 0
M  V30 10979 O 1015.62 2.34184 5.20109 0
M  V30 10980 O 1014.55 4.10749 4.39964 0
M  V30 10981 H 1018.38 2.68856 1.41245 0
M  V30 10982 H 1015.96 1.35187 0.635984 0
M  V30 10983 H 1017.84 1.93123 3.74542 0
M  V30 10984 H 1016.52 0.922742 3.10269 0
M  V30 10985 H 1015.43 3.04531 2.17282 0
M  V30 10986 H 1016.76 3.99523 2.87476 0
M  V30 10987 N 1018.41 -0.709066 1.40748 0
M  V30 10988 C 1019.32 -1.85314 1.43861 0
M  V30 10989 C 1020.34 -1.70832 0.330539 0
M  V30 10990 O 1021.51 -1.92983 0.576152 0
M  V30 10991 C 1018.58 -3.21174 1.30568 0
M  V30 10992 C 1017.64 -3.47863 2.51574 0
M  V30 10993 C 1016.87 -4.77241 2.38906 0
M  V30 10994 O 1017.09 -5.52791 1.40636 0
M  V30 10995 O 1016.03 -5.04413 3.28407 0
M  V30 10996 H 1019.85 -1.85644 2.40354 0
M  V30 10997 H 1017.44 -0.860352 1.2214 0
M  V30 10998 H 1019.32 -4.02313 1.25388 0
M  V30 10999 H 1018 -3.21557 0.371841 0
M  V30 11000 H 1016.9 -2.66708 2.62331 0
M  V30 11001 H 1018.24 -3.52283 3.43741 0
M  V30 11002 N 1019.89 -1.26353 -0.941956 0
M  V30 11003 C 1020.8 -1.09618 -2.07415 0
M  V30 11004 C 1021.82 -0.0298963 -1.73974 0
M  V30 11005 O 1022.99 -0.233466 -2.00042 0
M  V30 11006 C 1020.06 -0.73013 -3.38925 0
M  V30 11007 C 1019.12 -1.87574 -3.86153 0
M  V30 11008 C 1018.35 -1.52706 -5.11387 0
M  V30 11009 O 1018.57 -0.428438 -5.68789 0
M  V30 11010 O 1017.51 -2.36154 -5.53638 0
M  V30 11011 H 1021.33 -2.04598 -2.2444 0
M  V30 11012 H 1018.92 -1.05407 -1.05876 0
M  V30 11013 H 1020.8 -0.538684 -4.17943 0
M  V30 11014 H 1019.48 0.190282 -3.2314 0
M  V30 11015 H 1018.38 -2.12214 -3.08084 0
M  V30 11016 H 1019.72 -2.77585 -4.06457 0
M  V30 11017 N 1021.37 1.14642 -1.08144 0
M  V30 11018 C 1022.61 1.85892 -0.810683 0
M  V30 11019 C 1022.95 1.82575 0.661821 0
M  V30 11020 O 1022.22 1.25454 1.48632 0
M  V30 11021 C 1022.5 3.34647 -1.32979 0
M  V30 11022 C 1022.36 3.46551 -2.86744 0
M  V30 11023 C 1023.68 4.29661 -0.952864 0
M  V30 11024 H 1020.8 0.674963 -0.295963 0
M  V30 11025 H 1023.44 1.3464 -1.3406 0
M  V30 11026 H 1021.59 3.78425 -0.87903 0
M  V30 11027 H 1023.26 3.11579 -3.40171 0
M  V30 11028 H 1021.5 2.87849 -3.24539 0
M  V30 11029 H 1022.17 4.51101 -3.18138 0
M  V30 11030 H 1024.65 3.93885 -1.34141 0
M  V30 11031 H 1023.53 5.32209 -1.34331 0
M  V30 11032 H 1023.79 4.41877 0.140392 0
M  V30 11033 N 1022.85 0.866709 1.31628 0
M  V30 11034 C 1024.09 0.486046 1.97507 0
M  V30 11035 C 1024.45 -0.95049 1.67283 0
M  V30 11036 O 1023.74 -1.65979 0.957158 0
M  V30 11037 C 1023.93 0.676018 3.50948 0
M  V30 11038 C 1023.76 2.12947 3.96086 0
M  V30 11039 C 1022.53 2.77041 4.22583 0
M  V30 11040 C 1024.73 3.10139 4.10266 0
M  V30 11041 N 1022.71 4.13172 4.54051 0
M  V30 11042 C 1024.08 4.3129 4.45409 0
M  V30 11043 C 1026.14 3.06173 3.92635 0
M  V30 11044 C 1024.84 5.4899 4.6476 0
M  V30 11045 C 1026.87 4.23128 4.13178 0
M  V30 11046 C 1026.23 5.43041 4.48649 0
M  V30 11047 H 1022.33 0.226831 0.748379 0
M  V30 11048 H 1024.91 1.12063 1.59217 0
M  V30 11049 H 1023.08 0.071055 3.88335 0
M  V30 11050 H 1024.82 0.264062 4.03838 0
M  V30 11051 H 1021.57 2.28009 4.15101 0
M  V30 11052 H 1021.99 4.83426 4.7395 0
M  V30 11053 H 1026.64 2.14576 3.64303 0
M  V30 11054 H 1024.35 6.41108 4.91942 0
M  V30 11055 H 1027.94 4.21509 4.01026 0
M  V30 11056 H 1026.82 6.32034 4.64223 0
M  V30 11057 N 1024.32 -1.44642 0.625825 0
M  V30 11058 C 1025.25 -2.33397 -0.0692188 0
M  V30 11059 C 1026.23 -1.47898 -0.840241 0
M  V30 11060 O 1027.42 -1.7663 -0.807176 0
M  V30 11061 C 1024.55 -3.30888 -1.055 0
M  V30 11062 C 1023.5 -4.26164 -0.395968 0
M  V30 11063 C 1022.83 -5.13483 -1.49128 0
M  V30 11064 C 1024.13 -5.17663 0.694433 0
M  V30 11065 H 1025.82 -2.91763 0.671925 0
M  V30 11066 H 1023.37 -1.40294 0.324573 0
M  V30 11067 H 1025.32 -3.91861 -1.54993 0
M  V30 11068 H 1024.05 -2.7072 -1.82696 0
M  V30 11069 H 1022.71 -3.66516 0.0782691 0
M  V30 11070 H 1022.35 -4.49672 -2.25399 0
M  V30 11071 H 1022.05 -5.78038 -1.05573 0
M  V30 11072 H 1023.58 -5.77327 -1.98813 0
M  V30 11073 H 1024.99 -5.72602 0.282818 0
M  V30 11074 H 1023.39 -5.90793 1.05281 0
M  V30 11075 H 1024.46 -4.58994 1.56372 0
M  V30 11076 N 1025.8 -0.366053 -1.5329 0
M  V30 11077 C 1027.03 0.224236 -2.05681 0
M  V30 11078 C 1027.44 1.42412 -1.23952 0
M  V30 11079 O 1026.8 1.80334 -0.280309 0
M  V30 11080 C 1026.85 0.617266 -3.56191 0
M  V30 11081 O 1026.57 -0.534931 -4.34822 0
M  V30 11082 C 1028.07 1.26589 -4.24841 0
M  V30 11083 H 1025.29 0.0392928 -0.669849 0
M  V30 11084 H 1027.84 -0.52456 -1.97658 0
M  V30 11085 H 1025.99 1.31598 -3.64364 0
M  V30 11086 H 1026.41 -0.217123 -5.2405 0
M  V30 11087 H 1027.88 1.49146 -5.31469 0
M  V30 11088 H 1028.36 2.22633 -3.78591 0
M  V30 11089 H 1028.96 0.6086 -4.20923 0
M  V30 11090 N 1027.28 1.57312 -0.0952337 0
M  V30 11091 C 1028.53 1.95449 0.563155 0
M  V30 11092 C 1028.88 0.976396 1.65784 0
M  V30 11093 O 1028.17 0.00241533 1.916 0
M  V30 11094 C 1028.37 3.37937 1.16332 0
M  V30 11095 C 1028.2 4.49517 0.128308 0
M  V30 11096 C 1026.97 5.04437 -0.295252 0
M  V30 11097 C 1029.16 5.10257 -0.643571 0
M  V30 11098 N 1027.15 5.99573 -1.31852 0
M  V30 11099 C 1028.52 6.01113 -1.51867 0
M  V30 11100 C 1030.57 4.92996 -0.697074 0
M  V30 11101 C 1029.28 6.76559 -2.44256 0
M  V30 11102 C 1031.3 5.69104 -1.60857 0
M  V30 11103 C 1030.66 6.59626 -2.47129 0
M  V30 11104 H 1026.76 0.761844 0.176402 0
M  V30 11105 H 1029.35 1.93886 -0.177833 0
M  V30 11106 H 1027.52 3.40193 1.87413 0
M  V30 11107 H 1029.25 3.63253 1.78408 0
M  V30 11108 H 1026 4.7351 0.0925153 0
M  V30 11109 H 1026.43 6.51843 -1.82836 0
M  V30 11110 H 1031.07 4.22777 -0.0442422 0
M  V30 11111 H 1028.79 7.4604 -3.10564 0
M  V30 11112 H 1032.37 5.57761 -1.65511 0
M  V30 11113 H 1031.25 7.17487 -3.16515 0
M  V30 11114 N 1028.76 -0.17846 1.56586 0
M  V30 11115 C 1029.99 -0.911996 1.85715 0
M  V30 11116 C 1030.4 -1.76138 0.679766 0
M  V30 11117 O 1029.76 -1.79088 -0.351266 0
M  V30 11118 C 1029.81 -1.79459 3.1381 0
M  V30 11119 O 1029.53 -0.979476 4.2701 0
M  V30 11120 C 1031.03 -2.6384 3.56235 0
M  V30 11121 H 1028.25 -0.265299 0.616326 0
M  V30 11122 H 1030.79 -0.180704 2.037 0
M  V30 11123 H 1028.95 -2.4793 2.97673 0
M  V30 11124 H 1029.36 -1.58244 5.00059 0
M  V30 11125 H 1030.84 -3.21396 4.48786 0
M  V30 11126 H 1031.31 -3.38363 2.80013 0
M  V30 11127 H 1031.92 -2.00712 3.7496 0
M  V30 11128 N 1030.24 -1.51135 -0.446768 0
M  V30 11129 C 1031.51 -1.5387 -1.20762 0
M  V30 11130 C 1031.89 -0.297446 -2.08994 0
M  V30 11131 O 1031.24 0.717975 -2.16927 0
M  V30 11132 C 1031.45 -2.84767 -2.01764 0
M  V30 11133 C 1032.8 -3.3636 -2.59128 0
M  V30 11134 O 1033.82 -2.86254 -2.11984 0
M  V30 11135 O 1032.68 -4.23765 -3.45088 0
M  V30 11136 H 1029.78 -0.618228 -0.549293 0
M  V30 11137 H 1032.32 -1.63442 -0.456605 0
M  V30 11138 H 1031.09 -3.6657 -1.36901 0
M  V30 11139 H 1030.72 -2.78313 -2.8395 0
M  V30 11140 N 1031.71 0.701592 -1.41122 0
M  V30 11141 C 1032.66 1.81559 -1.42495 0
M  V30 11142 C 1033.63 1.63722 -0.280078 0
M  V30 11143 O 1034.82 1.84658 -0.480231 0
M  V30 11144 C 1031.96 3.19392 -1.30702 0
M  V30 11145 C 1031.07 3.48704 -2.55009 0
M  V30 11146 C 1030.2 4.76118 -2.35554 0
M  V30 11147 C 1029.24 4.98378 -3.55367 0
M  V30 11148 N 1028.38 6.17014 -3.3502 0
M  V30 11149 H 1033.22 1.7972 -2.37707 0
M  V30 11150 H 1030.76 0.877727 -1.18044 0
M  V30 11151 H 1032.71 3.99004 -1.21867 0
M  V30 11152 H 1031.34 3.20423 -0.391012 0
M  V30 11153 H 1030.4 2.63542 -2.74317 0
M  V30 11154 H 1031.71 3.61057 -3.44151 0
M  V30 11155 H 1030.86 5.63774 -2.24152 0
M  V30 11156 H 1029.6 4.66 -1.43859 0
M  V30 11157 H 1028.61 4.09172 -3.6723 0
M  V30 11158 H 1029.83 5.10359 -4.48007 0
M  V30 11159 H 1027.78 6.0812 -2.4602 0
M  V30 11160 H 1027.69 6.30107 -4.17733 0
M  V30 11161 H 1028.96 7.0742 -3.27379 0
M  V30 11162 N 1033.19 1.2685 0.935242 0
M  V30 11163 C 1034.14 1.08746 2.05614 0
M  V30 11164 C 1035.13 0.012681 1.69395 0
M  V30 11165 O 1036.34 0.169822 1.79197 0
M  V30 11166 H 1032.71 0.33485 0.673335 0
M  V30 11167 H 1034.69 2.03725 2.18033 0
M  V30 11168 C 1033.43 0.74346 3.39659 0
M  V30 11169 H 1032.76 1.56236 3.68008 0
M  V30 11170 H 1034.2 0.656607 4.18885 0
M  V30 11171 C 1032.66 -0.551751 3.32351 0
M  V30 11172 O 1033.19 -1.58836 3.68963 0
M  V30 11173 N 1031.39 -0.544583 2.85452 0
M  V30 11174 H 1030.94 0.29939 2.55854 0
M  V30 11175 H 1030.9 -1.41129 2.80945 0
M  V30 11176 N 1034.67 -1.14067 1.0875 0
M  V30 11177 C 1035.62 -2.21332 0.715195 0
M  V30 11178 C 1036.61 -1.67059 -0.280679 0
M  V30 11179 O 1037.82 -1.79432 -0.142874 0
M  V30 11180 H 1034.19 -0.721126 0.213264 0
M  V30 11181 H 1036.16 -2.50002 1.62916 0
M  V30 11182 C 1034.91 -3.474 0.144401 0
M  V30 11183 H 1034.24 -3.89495 0.901884 0
M  V30 11184 H 1035.68 -4.23928 -0.0782564 0
M  V30 11185 C 1034.14 -3.17787 -1.11862 0
M  V30 11186 O 1034.67 -3.35906 -2.20295 0
M  V30 11187 N 1032.87 -2.71719 -1.03039 0
M  V30 11188 H 1032.42 -2.57175 -0.14793 0
M  V30 11189 H 1032.38 -2.52281 -1.87621 0
M  V30 11190 N 1036.15 -0.873678 -1.31166 0
M  V30 11191 C 1037.06 -0.335726 -2.32185 0
M  V30 11192 C 1038.07 0.556259 -1.64869 0
M  V30 11193 O 1039.25 0.452087 -1.9626 0
M  V30 11194 C 1036.32 0.450822 -3.43756 0
M  V30 11195 C 1035.38 -0.469565 -4.26724 0
M  V30 11196 C 1034.61 0.279538 -5.32967 0
M  V30 11197 O 1034.83 1.50715 -5.50128 0
M  V30 11198 O 1033.77 -0.36452 -6.00795 0
M  V30 11199 H 1037.59 -1.17314 -2.80127 0
M  V30 11200 H 1035.18 -0.637163 -1.35132 0
M  V30 11201 H 1037.06 0.896582 -4.11752 0
M  V30 11202 H 1035.73 1.26472 -2.9797 0
M  V30 11203 H 1034.64 -0.963902 -3.61469 0
M  V30 11204 H 1035.97 -1.24916 -4.76085 0
M  V30 11205 N 1037.63 1.44308 -0.633487 0
M  V30 11206 C 1038.58 2.27814 0.0919619 0
M  V30 11207 C 1039.56 1.38798 0.813882 0
M  V30 11208 O 1040.75 1.62587 0.699601 0
M  V30 11209 C 1037.88 3.26158 1.07125 0
M  V30 11210 C 1036.97 4.22663 0.348831 0
M  V30 11211 N 1037.36 5.01938 -0.623854 0
M  V30 11212 C 1035.66 4.42041 0.592958 0
M  V30 11213 C 1036.36 5.72129 -1.05088 0
M  V30 11214 N 1035.33 5.42205 -0.389183 0
M  V30 11215 H 1039.14 2.86515 -0.654721 0
M  V30 11216 H 1036.65 1.55773 -0.459178 0
M  V30 11217 H 1038.65 3.84742 1.60559 0
M  V30 11218 H 1037.31 2.69019 1.81821 0
M  V30 11219 H 1038.32 5.08119 -1.00176 0
M  V30 11220 H 1034.99 3.95997 1.32261 0
M  V30 11221 H 1036.38 6.45797 -1.85461 0
M  V30 11222 N 1039.1 0.374177 1.53094 0
M  V30 11223 C 1040.05 -0.484848 2.22785 0
M  V30 11224 C 1041.04 -1.04181 1.22617 0
M  V30 11225 O 1042.23 -0.97043 1.48026 0
M  V30 11226 C 1039.36 -1.61956 3.02696 0
M  V30 11227 C 1038.45 -1.07506 4.10248 0
M  V30 11228 N 1038.84 -0.254253 5.05161 0
M  V30 11229 C 1037.13 -1.34904 4.25108 0
M  V30 11230 C 1037.84 0.0448558 5.81683 0
M  V30 11231 N 1036.81 -0.555073 5.40759 0
M  V30 11232 H 1040.61 0.148976 2.93522 0
M  V30 11233 H 1038.13 0.182656 1.6137 0
M  V30 11234 H 1040.12 -2.24723 3.51148 0
M  V30 11235 H 1038.78 -2.25636 2.33492 0
M  V30 11236 H 1039.8 0.107256 5.17789 0
M  V30 11237 H 1036.47 -1.98799 3.67131 0
M  V30 11238 H 1037.86 0.708952 6.68149 0
M  V30 11239 N 1040.58 -1.57259 0.103575 0
M  V30 11240 C 1041.49 -2.18018 -0.866327 0
M  V30 11241 C 1042.51 -1.15198 -1.30404 0
M  V30 11242 O 1043.68 -1.47605 -1.37021 0
M  V30 11243 C 1040.75 -2.75533 -2.10434 0
M  V30 11244 C 1039.81 -3.93337 -1.72002 0
M  V30 11245 C 1039.04 -4.481 -2.89901 0
M  V30 11246 O 1039.27 -4.01784 -4.04877 0
M  V30 11247 O 1038.2 -5.39004 -2.67877 0
M  V30 11248 H 1042.03 -3.01322 -0.379338 0
M  V30 11249 H 1039.61 -1.48907 -0.121228 0
M  V30 11250 H 1041.49 -3.12259 -2.8297 0
M  V30 11251 H 1040.17 -1.9527 -2.58169 0
M  V30 11252 H 1039.08 -3.61408 -0.966193 0
M  V30 11253 H 1040.41 -4.74989 -1.29022 0
M  V30 11254 N 1042.06 0.170153 -1.56679 0
M  V30 11255 C 1043.01 1.21064 -1.965 0
M  V30 11256 C 1043.98 1.43928 -0.829092 0
M  V30 11257 O 1045.16 1.56649 -1.08931 0
M  V30 11258 C 1042.3 2.54468 -2.33109 0
M  V30 11259 C 1041.42 2.38974 -3.59883 0
M  V30 11260 C 1040.55 3.65252 -3.857 0
M  V30 11261 C 1039.59 3.44696 -5.05817 0
M  V30 11262 N 1038.73 4.63047 -5.27761 0
M  V30 11263 H 1043.57 0.864055 -2.85198 0
M  V30 11264 H 1041.1 0.415243 -1.41117 0
M  V30 11265 H 1043.06 3.32222 -2.52358 0
M  V30 11266 H 1041.69 2.8712 -1.4752 0
M  V30 11267 H 1040.74 1.5239 -3.48542 0
M  V30 11268 H 1042.06 2.19731 -4.47794 0
M  V30 11269 H 1041.21 4.51441 -4.05322 0
M  V30 11270 H 1039.95 3.87475 -2.96166 0
M  V30 11271 H 1038.95 2.56893 -4.86092 0
M  V30 11272 H 1040.18 3.23894 -5.96883 0
M  V30 11273 H 1038.12 4.85487 -4.41179 0
M  V30 11274 H 1038.04 4.46722 -6.09898 0
M  V30 11275 H 1039.31 5.50516 -5.51863 0
M  V30 11276 N 1043.54 1.5137 0.438746 0
M  V30 11277 C 1044.76 1.68058 1.21537 0
M  V30 11278 C 1045.19 0.376787 1.84288 0
M  V30 11279 O 1044.55 -0.662911 1.68746 0
M  V30 11280 C 1044.59 2.79684 2.27616 0
M  V30 11281 O 1043.7 2.43189 3.33066 0
M  V30 11282 H 1043.04 0.560408 0.356144 0
M  V30 11283 H 1045.57 1.97926 0.518311 0
M  V30 11284 H 1045.58 3.03726 2.72423 0
M  V30 11285 H 1044.25 3.74293 1.81321 0
M  V30 11286 H 1042.83 2.29713 2.93746 0
M  V30 11287 N 1045.02 -0.694098 1.41492 0
M  V30 11288 C 1046.26 -1.4563 1.41137 0
M  V30 11289 C 1046.6 -1.94189 0.0208428 0
M  V30 11290 O 1045.87 -1.69628 -0.951655 0
M  V30 11291 C 1046.15 -2.66714 2.41941 0
M  V30 11292 C 1046.01 -2.23912 3.90107 0
M  V30 11293 C 1047.33 -3.68913 2.39981 0
M  V30 11294 H 1044.44 -0.52821 0.513968 0
M  V30 11295 H 1047.09 -0.790437 1.72778 0
M  V30 11296 H 1045.24 -3.23525 2.1509 0
M  V30 11297 H 1046.91 -1.72417 4.27867 0
M  V30 11298 H 1045.15 -1.5568 4.04903 0
M  V30 11299 H 1045.82 -3.108 4.56188 0
M  V30 11300 H 1048.3 -3.21779 2.63813 0
M  V30 11301 H 1047.17 -4.51242 3.12524 0
M  V30 11302 H 1047.44 -4.18711 1.41892 0
M  V30 11303 N 1046.49 -1.27344 -0.928501 0
M  V30 11304 C 1047.91 -1.04732 -1.2043 0
M  V30 11305 C 1048.11 0.219623 -2.003 0
M  V30 11306 O 1047.17 0.925333 -2.34934 0
M  V30 11307 C 1048.48 -2.28625 -1.95323 0
M  V30 11308 C 1050.03 -2.33655 -2.08265 0
M  V30 11309 C 1050.5 -3.57275 -2.86563 0
M  V30 11310 N 1051.99 -3.57828 -2.94132 0
M  V30 11311 C 1052.73 -4.50152 -3.55177 0
M  V30 11312 N 1052.22 -5.52779 -4.17621 0
M  V30 11313 N 1054.02 -4.37777 -3.52573 0
M  V30 11314 H 1046.17 -2.08697 -0.394892 0
M  V30 11315 H 1048.43 -0.91782 -0.2373 0
M  V30 11316 H 1048.14 -3.20845 -1.44054 0
M  V30 11317 H 1048.01 -2.33878 -2.95941 0
M  V30 11318 H 1050.4 -1.41942 -2.58721 0
M  V30 11319 H 1050.48 -2.32406 -1.0687 0
M  V30 11320 H 1050.12 -4.49325 -2.3679 0
M  V30 11321 H 1050.05 -3.55775 -3.88242 0
M  V30 11322 H 1052.54 -2.83607 -2.49751 0
M  V30 11323 H 1052.86 -6.19394 -4.62137 0
M  V30 11324 H 1051.2 -5.56622 -4.16169 0
M  V30 11325 H 1054.39 -3.56811 -3.02991 0
M  V30 11326 H 1054.57 -5.09919 -3.99858 0
M  V30 11327 N 1047.97 1.13488 -1.09353 0
M  V30 11328 C 1048.9 2.18563 -0.69012 0
M  V30 11329 C 1049.92 1.60585 0.267651 0
M  V30 11330 O 1051.11 1.78419 0.0538176 0
M  V30 11331 C 1048.21 3.389 0.00391255 0
M  V30 11332 C 1047.38 4.2639 -0.975209 0
M  V30 11333 C 1046.44 5.25258 -0.314719 0
M  V30 11334 O 1045.46 5.6101 -0.962119 0
M  V30 11335 N 1046.67 5.72978 0.931458 0
M  V30 11336 H 1049.43 2.53788 -1.59411 0
M  V30 11337 H 1046.99 1.28803 -0.980886 0
M  V30 11338 H 1048.98 4.02112 0.45696 0
M  V30 11339 H 1047.55 3.0192 0.81014 0
M  V30 11340 H 1046.77 3.59964 -1.60684 0
M  V30 11341 H 1048.06 4.817 -1.63836 0
M  V30 11342 H 1047.46 5.46078 1.477 0
M  V30 11343 H 1046.02 6.38131 1.32784 0
M  V30 11344 N 1049.45 0.880621 1.30701 0
M  V30 11345 C 1050.38 0.360251 2.30704 0
M  V30 11346 C 1051.36 -0.554572 1.60806 0
M  V30 11347 O 1052.55 -0.469345 1.88443 0
M  V30 11348 C 1049.68 -0.429888 3.44629 0
M  V30 11349 C 1048.63 0.392786 4.26194 0
M  V30 11350 C 1047.96 -0.52369 5.32129 0
M  V30 11351 C 1049.26 1.63258 4.96129 0
M  V30 11352 H 1050.95 1.19591 2.74478 0
M  V30 11353 H 1048.5 0.576508 1.31956 0
M  V30 11354 H 1050.45 -0.804532 4.13649 0
M  V30 11355 H 1049.17 -1.29916 2.99649 0
M  V30 11356 H 1047.83 0.749514 3.58856 0
M  V30 11357 H 1047.48 -1.39054 4.83397 0
M  V30 11358 H 1047.18 0.0229272 5.87596 0
M  V30 11359 H 1048.71 -0.894946 6.04006 0
M  V30 11360 H 1050.12 1.32877 5.57689 0
M  V30 11361 H 1048.52 2.11906 5.61441 0
M  V30 11362 H 1049.59 2.37944 4.22505 0
M  V30 11363 N 1050.93 -1.4397 0.641131 0
M  V30 11364 C 1051.89 -2.29149 -0.0482243 0
M  V30 11365 C 1052.89 -1.41572 -0.762495 0
M  V30 11366 O 1054.08 -1.63335 -0.605571 0
M  V30 11367 C 1051.21 -3.23375 -1.07896 0
M  V30 11368 H 1052.41 -2.9159 0.70109 0
M  V30 11369 H 1049.96 -1.51048 0.401754 0
M  V30 11370 H 1050.7 -2.65804 -1.85792 0
M  V30 11371 H 1050.48 -3.87926 -0.570597 0
M  V30 11372 H 1051.97 -3.87337 -1.56075 0
M  V30 11373 N 1052.41 -0.382291 -1.52893 0
M  V30 11374 C 1053.34 0.491199 -2.23875 0
M  V30 11375 C 1054.35 1.03249 -1.25871 0
M  V30 11376 O 1055.54 0.936016 -1.5199 0
M  V30 11377 C 1052.64 1.6927 -2.936 0
M  V30 11378 C 1051.81 1.28 -4.18252 0
M  V30 11379 C 1050.87 2.34541 -4.71038 0
M  V30 11380 O 1049.9 1.96239 -5.34302 0
M  V30 11381 N 1051.1 3.6636 -4.50289 0
M  V30 11382 H 1053.87 -0.116897 -2.99472 0
M  V30 11383 H 1051.43 -0.208296 -1.60554 0
M  V30 11384 H 1053.42 2.40054 -3.25816 0
M  V30 11385 H 1051.99 2.20729 -2.21354 0
M  V30 11386 H 1051.21 0.40133 -3.92152 0
M  V30 11387 H 1052.5 0.98082 -4.99257 0
M  V30 11388 H 1051.9 4.00245 -3.99775 0
M  V30 11389 H 1050.45 4.332 -4.87013 0
M  V30 11390 N 1053.89 1.57202 -0.111913 0
M  V30 11391 C 1054.8 2.18475 0.854753 0
M  V30 11392 C 1055.81 1.15888 1.29792 0
M  V30 11393 O 1056.99 1.48329 1.36237 0
M  V30 11394 C 1054.05 2.76645 2.0897 0
M  V30 11395 C 1053.11 3.94244 1.69913 0
M  V30 11396 C 1052.35 4.49631 2.8752 0
M  V30 11397 O 1052.57 4.03926 4.02741 0
M  V30 11398 O 1051.5 5.40417 2.65015 0
M  V30 11399 H 1055.33 3.01519 0.363352 0
M  V30 11400 H 1052.91 1.4897 0.113329 0
M  V30 11401 H 1054.8 3.13755 2.81311 0
M  V30 11402 H 1053.47 1.96637 2.5713 0
M  V30 11403 H 1052.38 3.61915 0.947013 0
M  V30 11404 H 1053.71 4.75666 1.26501 0
M  V30 11405 N 1055.36 -0.161842 1.56767 0
M  V30 11406 C 1056.33 -1.18404 1.96247 0
M  V30 11407 C 1057.33 -1.3667 0.84722 0
M  V30 11408 O 1058.52 -1.33915 1.11411 0
M  V30 11409 C 1055.65 -2.54728 2.26553 0
M  V30 11410 H 1056.84 -0.845703 2.87729 0
M  V30 11411 H 1054.39 -0.404645 1.50971 0
M  V30 11412 H 1055.13 -2.93559 1.37816 0
M  V30 11413 H 1054.91 -2.42834 3.07854 0
M  V30 11414 H 1056.4 -3.28378 2.57987 0
M  V30 11415 N 1056.84 -1.516 -0.430713 0
M  V30 11416 C 1058.26 -1.39923 -0.767706 0
M  V30 11417 C 1058.46 -0.486756 -1.95532 0
M  V30 11418 O 1057.51 0.0555965 -2.52439 0
M  V30 11419 C 1058.83 -2.82074 -1.04187 0
M  V30 11420 C 1060.37 -2.9127 -1.1459 0
M  V30 11421 C 1060.85 -4.34342 -1.45295 0
M  V30 11422 N 1062.34 -4.37479 -1.52206 0
M  V30 11423 C 1063.08 -5.45219 -1.77549 0
M  V30 11424 N 1062.57 -6.6311 -2.0064 0
M  V30 11425 N 1064.36 -5.32707 -1.79386 0
M  V30 11426 H 1056.52 -2.09474 0.351351 0
M  V30 11427 H 1058.78 -0.943247 0.0948151 0
M  V30 11428 H 1058.48 -3.50868 -0.241837 0
M  V30 11429 H 1058.36 -3.21805 -1.96777 0
M  V30 11430 H 1060.75 -2.2267 -1.93655 0
M  V30 11431 H 1060.83 -2.55026 -0.198854 0
M  V30 11432 H 1060.47 -5.03494 -0.667559 0
M  V30 11433 H 1060.4 -4.68105 -2.41217 0
M  V30 11434 H 1062.89 -3.52488 -1.36237 0
M  V30 11435 H 1063.2 -7.41012 -2.19366 0
M  V30 11436 H 1061.55 -6.66214 -1.97948 0
M  V30 11437 H 1064.74 -4.39589 -1.60869 0
M  V30 11438 H 1064.91 -6.16752 -1.98799 0
M  V30 11439 N 1058.32 0.686584 -1.41858 0
M  V30 11440 C 1059.28 1.78214 -1.44126 0
M  V30 11441 C 1060.28 1.57366 -0.330541 0
M  V30 11442 O 1061.47 1.63874 -0.590837 0
M  V30 11443 C 1058.6 3.16704 -1.26142 0
M  V30 11444 H 1059.8 1.77594 -2.41661 0
M  V30 11445 H 1057.35 0.895085 -1.28132 0
M  V30 11446 H 1058.09 3.22957 -0.294823 0
M  V30 11447 H 1057.87 3.33238 -2.06627 0
M  V30 11448 H 1059.36 3.96658 -1.30584 0
M  V30 11449 N 1059.8 1.27835 0.921735 0
M  V30 11450 C 1061.05 1.14296 1.66676 0
M  V30 11451 C 1061.37 -0.310493 1.92512 0
M  V30 11452 O 1060.64 -1.21637 1.53562 0
M  V30 11453 H 1059.22 0.419994 0.617749 0
M  V30 11454 H 1061.88 1.60449 1.10644 0
M  V30 11455 H 1060.97 1.67654 2.63246 0
M  V30 11456 N 1061.28 -1.12907 1.09954 0
M  V30 11457 C 1062.22 -2.20561 0.73863 0
M  V30 11458 C 1063.22 -1.67347 -0.262944 0
M  V30 11459 O 1064.42 -1.79574 -0.123834 0
M  V30 11460 H 1060.8 -0.718823 0.220901 0
M  V30 11461 H 1062.77 -2.4826 1.65559 0
M  V30 11462 C 1061.52 -3.47227 0.181239 0
M  V30 11463 H 1060.84 -3.88516 0.943144 0
M  V30 11464 H 1062.28 -4.23987 -0.0332888 0
M  V30 11465 C 1060.74 -3.18956 -1.08485 0
M  V30 11466 O 1061.27 -3.38224 -2.1672 0
M  V30 11467 N 1059.48 -2.72797 -1.00151 0
M  V30 11468 H 1059.02 -2.57317 -0.120645 0
M  V30 11469 H 1058.98 -2.54256 -1.84935 0
M  V30 11470 N 1062.75 -0.88754 -1.30232 0
M  V30 11471 C 1063.72 -0.361095 -2.26338 0
M  V30 11472 C 1064.72 0.497871 -1.52898 0
M  V30 11473 O 1065.91 0.30466 -1.71515 0
M  V30 11474 C 1063.04 0.485135 -3.3743 0
M  V30 11475 H 1064.23 -1.20973 -2.74419 0
M  V30 11476 H 1061.78 -0.664619 -1.41466 0
M  V30 11477 H 1062.52 1.35425 -2.9467 0
M  V30 11478 H 1062.3 -0.130173 -3.91884 0
M  V30 11479 H 1063.79 0.845169 -4.08958 0
M  V30 11480 N 1064.23 1.43628 -0.648757 0
M  V30 11481 C 1065.18 2.27899 0.0677939 0
M  V30 11482 C 1066.17 1.39653 0.799115 0
M  V30 11483 O 1067.36 1.6332 0.682317 0
M  V30 11484 C 1064.49 3.27276 1.0366 0
M  V30 11485 C 1063.57 4.23009 0.303982 0
M  V30 11486 N 1063.96 5.01248 -0.677056 0
M  V30 11487 C 1062.26 4.42645 0.546041 0
M  V30 11488 C 1062.96 5.70982 -1.11151 0
M  V30 11489 N 1061.94 5.41762 -0.446669 0
M  V30 11490 H 1065.74 2.85804 -0.685073 0
M  V30 11491 H 1063.26 1.55277 -0.475674 0
M  V30 11492 H 1065.25 3.86423 1.5647 0
M  V30 11493 H 1063.91 2.70932 1.78958 0
M  V30 11494 H 1064.92 5.07028 -1.0556 0
M  V30 11495 H 1061.6 3.97377 1.28053 0
M  V30 11496 H 1062.99 6.43794 -1.923 0
M  V30 11497 N 1065.71 0.390394 1.52688 0
M  V30 11498 C 1066.99 -0.249068 1.94008 0
M  V30 11499 C 1067.37 -1.64263 1.32593 0
M  V30 11500 O 1066.72 -2.23086 0.494448 0
M  V30 11501 C 1066.93 -0.274318 3.4792 0
M  V30 11502 C 1068.27 -0.502743 4.21613 0
M  V30 11503 O 1069.3 -0.35448 3.54432 0
M  V30 11504 O 1068.16 -0.79334 5.40711 0
M  V30 11505 H 1065.25 -0.155116 0.812323 0
M  V30 11506 H 1067.8 0.44498 1.63762 0
M  V30 11507 H 1066.57 0.701766 3.84956 0
M  V30 11508 H 1066.19 -1.01324 3.84473 0
M  V30 11509 N 1067.19 -1.57141 0.120249 0
M  V30 11510 C 1068.1 -2.18925 -0.843155 0
M  V30 11511 C 1069.11 -1.16575 -1.29175 0
M  V30 11512 O 1070.29 -1.4905 -1.35448 0
M  V30 11513 C 1067.36 -2.7775 -2.075 0
M  V30 11514 C 1066.42 -3.95139 -1.6782 0
M  V30 11515 C 1065.65 -4.51149 -2.85132 0
M  V30 11516 O 1065.87 -4.06056 -4.00593 0
M  V30 11517 O 1064.81 -5.41815 -2.62145 0
M  V30 11518 H 1068.63 -3.01707 -0.347357 0
M  V30 11519 H 1066.22 -1.49028 -0.105427 0
M  V30 11520 H 1068.1 -3.15243 -2.79643 0
M  V30 11521 H 1066.77 -1.97998 -2.56083 0
M  V30 11522 H 1065.68 -3.62412 -0.927807 0
M  V30 11523 H 1067.01 -4.7633 -1.23977 0
M  V30 11524 N 1068.67 0.153526 -1.5685 0
M  V30 11525 C 1069.61 1.20896 -1.98713 0
M  V30 11526 C 1070.61 1.44839 -0.878529 0
M  V30 11527 O 1071.81 1.45208 -1.0637 0
M  V30 11528 H 1068.19 0.406797 -0.632472 0
M  V30 11529 H 1070.16 0.829145 -2.86649 0
M  V30 11530 C 1068.91 2.53642 -2.37825 0
M  V30 11531 H 1068.23 2.36047 -3.22679 0
M  V30 11532 H 1069.67 3.26136 -2.70946 0
M  V30 11533 C 1068.13 3.13706 -1.22841 0
M  V30 11534 O 1068.66 3.98246 -0.525626 0
M  V30 11535 N 1066.87 2.73059 -0.99435 0
M  V30 11536 H 1066.41 2.0441 -1.56761 0
M  V30 11537 H 1066.37 3.1358 -0.226883 0
M  V30 11538 N 1070.14 1.51827 0.422667 0
M  V30 11539 C 1071.39 1.65464 1.17258 0
M  V30 11540 C 1071.72 0.376834 1.90509 0
M  V30 11541 O 1071 -0.624219 1.84211 0
M  V30 11542 C 1071.28 2.86776 2.17788 0
M  V30 11543 C 1071.13 4.24571 1.48523 0
M  V30 11544 C 1072.45 3.03603 3.18611 0
M  V30 11545 H 1069.57 0.602169 0.424925 0
M  V30 11546 H 1072.21 1.84349 0.45996 0
M  V30 11547 H 1070.36 2.70806 2.78561 0
M  V30 11548 H 1072.04 4.5224 0.909739 0
M  V30 11549 H 1070.28 4.26595 0.787354 0
M  V30 11550 H 1070.95 5.05475 2.2181 0
M  V30 11551 H 1073.43 3.18381 2.67904 0
M  V30 11552 H 1072.3 3.90022 3.8623 0
M  V30 11553 H 1072.56 2.16318 3.85563 0
M  V30 11554 N 1071.62 -0.679052 1.4222 0
M  V30 11555 C 1072.55 -1.80481 1.48152 0
M  V30 11556 C 1073.53 -1.66698 0.338502 0
M  V30 11557 O 1074.72 -1.86183 0.552228 0
M  V30 11558 C 1071.85 -3.18746 1.37908 0
M  V30 11559 C 1070.8 -3.47258 2.50192 0
M  V30 11560 C 1070.13 -4.85052 2.25008 0
M  V30 11561 C 1071.43 -3.44576 3.92511 0
M  V30 11562 H 1073.12 -1.75774 2.42371 0
M  V30 11563 H 1070.67 -0.844241 1.16656 0
M  V30 11564 H 1072.62 -3.97229 1.40666 0
M  V30 11565 H 1071.35 -3.24119 0.401806 0
M  V30 11566 H 1070 -2.71133 2.46744 0
M  V30 11567 H 1069.65 -4.8707 1.25584 0
M  V30 11568 H 1069.35 -5.05092 3.00259 0
M  V30 11569 H 1070.88 -5.65825 2.29508 0
M  V30 11570 H 1072.29 -4.13036 3.97585 0
M  V30 11571 H 1070.69 -3.76151 4.67579 0
M  V30 11572 H 1071.76 -2.4323 4.19484 0
M  V30 11573 N 1073.1 -1.28322 -0.914942 0
M  V30 11574 C 1074.33 -1.1837 -1.70304 0
M  V30 11575 C 1074.75 0.254291 -1.86373 0
M  V30 11576 O 1074.11 1.18398 -1.37301 0
M  V30 11577 C 1074.16 -1.88603 -3.07346 0
M  V30 11578 O 1073.26 -1.19268 -3.94777 0
M  V30 11579 H 1072.6 -0.410978 -0.52153 0
M  V30 11580 H 1075.13 -1.69622 -1.14409 0
M  V30 11581 H 1075.14 -1.96463 -3.57584 0
M  V30 11582 H 1073.82 -2.93201 -2.94967 0
M  V30 11583 H 1072.39 -1.19563 -3.53212 0
M  V30 11584 N 1074.58 1.12322 -1.10551 0
M  V30 11585 C 1075.81 1.87407 -0.869607 0
M  V30 11586 C 1076.22 1.79976 0.58356 0
M  V30 11587 O 1075.56 1.1725 1.41415 0
M  V30 11588 C 1075.62 3.37401 -1.24099 0
M  V30 11589 C 1075.29 3.68607 -2.70144 0
M  V30 11590 C 1076.28 3.66869 -3.68379 0
M  V30 11591 C 1073.97 3.97903 -3.06559 0
M  V30 11592 C 1075.96 3.93987 -5.01052 0
M  V30 11593 C 1073.65 4.24681 -4.39419 0
M  V30 11594 C 1074.65 4.2271 -5.36475 0
M  V30 11595 O 1074.33 4.48823 -6.66943 0
M  V30 11596 H 1074.07 0.59978 -0.311834 0
M  V30 11597 H 1076.62 1.43037 -1.4741 0
M  V30 11598 H 1074.85 3.82332 -0.579606 0
M  V30 11599 H 1076.54 3.93833 -0.982378 0
M  V30 11600 H 1077.31 3.44297 -3.41591 0
M  V30 11601 H 1073.18 3.98578 -2.31638 0
M  V30 11602 H 1076.73 3.92364 -5.76798 0
M  V30 11603 H 1072.63 4.46727 -4.65945 0
M  V30 11604 H 1073.39 4.66436 -6.72592 0
M  V30 11605 N 1076.06 0.894434 1.2976 0
M  V30 11606 C 1077.29 0.532143 1.99629 0
M  V30 11607 C 1077.69 -0.886234 1.6716 0
M  V30 11608 O 1077.04 -1.59573 0.910065 0
M  V30 11609 C 1077.1 0.638335 3.53787 0
M  V30 11610 C 1076.76 2.02273 4.09798 0
M  V30 11611 C 1077.76 2.99327 4.25087 0
M  V30 11612 C 1075.45 2.33069 4.44954 0
M  V30 11613 C 1077.44 4.25304 4.74758 0
M  V30 11614 C 1075.13 3.59289 4.94322 0
M  V30 11615 C 1076.12 4.55222 5.09178 0
M  V30 11616 O 1075.81 5.79202 5.57477 0
M  V30 11617 H 1075.54 0.203326 0.644697 0
M  V30 11618 H 1078.1 1.2043 1.6639 0
M  V30 11619 H 1076.33 -0.0908338 3.86593 0
M  V30 11620 H 1078.02 0.285956 4.04891 0
M  V30 11621 H 1078.78 2.76849 3.9822 0
M  V30 11622 H 1074.66 1.59162 4.32653 0
M  V30 11623 H 1078.21 5.00189 4.86269 0
M  V30 11624 H 1074.1 3.816 5.20626 0
M  V30 11625 H 1074.87 5.81717 5.75802 0
M  V30 11626 N 1077.53 -1.43282 0.656365 0
M  V30 11627 C 1078.95 -1.56272 0.324213 0
M  V30 11628 C 1079.15 -1.63946 -1.1715 0
M  V30 11629 O 1078.21 -1.59625 -1.95643 0
M  V30 11630 C 1079.52 -2.82204 1.03833 0
M  V30 11631 C 1081.07 -2.95952 1.01889 0
M  V30 11632 C 1081.54 -4.2472 1.71397 0
M  V30 11633 N 1083.03 -4.31591 1.68176 0
M  V30 11634 C 1083.77 -5.30001 2.1883 0
M  V30 11635 N 1083.26 -6.34671 2.77785 0
M  V30 11636 N 1085.06 -5.21676 2.09311 0
M  V30 11637 H 1077.21 -1.36544 1.62694 0
M  V30 11638 H 1079.47 -0.655999 0.684375 0
M  V30 11639 H 1079.18 -2.82608 2.09346 0
M  V30 11640 H 1079.05 -3.72527 0.591878 0
M  V30 11641 H 1081.44 -2.95087 -0.0278431 0
M  V30 11642 H 1081.52 -2.0691 1.50406 0
M  V30 11643 H 1081.16 -4.26346 2.76028 0
M  V30 11644 H 1081.09 -5.12665 1.20342 0
M  V30 11645 H 1083.58 -3.56573 1.25157 0
M  V30 11646 H 1083.9 -7.06087 3.14104 0
M  V30 11647 H 1082.24 -6.35285 2.81847 0
M  V30 11648 H 1085.43 -4.3882 1.62955 0
M  V30 11649 H 1085.61 -5.9821 2.49095 0
M  V30 11650 N 1079.01 -0.398486 -1.52479 0
M  V30 11651 C 1080.24 0.180295 -2.05812 0
M  V30 11652 C 1080.65 1.40301 -1.26934 0
M  V30 11653 O 1079.99 1.81039 -0.311544 0
M  V30 11654 C 1080.06 0.60601 -3.54355 0
M  V30 11655 C 1079.72 -0.504508 -4.54207 0
M  V30 11656 C 1080.72 -1.36478 -5.01667 0
M  V30 11657 C 1078.4 -0.674161 -4.97755 0
M  V30 11658 C 1080.4 -2.37975 -5.91309 0
M  V30 11659 C 1078.08 -1.69246 -5.87196 0
M  V30 11660 C 1079.08 -2.54367 -6.33866 0
M  V30 11661 O 1078.77 -3.54454 -7.21538 0
M  V30 11662 H 1078.5 0.0286396 -0.675393 0
M  V30 11663 H 1081.06 -0.564912 -1.97479 0
M  V30 11664 H 1079.29 1.40334 -3.60338 0
M  V30 11665 H 1080.97 1.1115 -3.90385 0
M  V30 11666 H 1081.74 -1.24506 -4.68746 0
M  V30 11667 H 1077.62 -0.0213029 -4.60995 0
M  V30 11668 H 1081.16 -3.0445 -6.27659 0
M  V30 11669 H 1077.06 -1.81252 -6.1953 0
M  V30 11670 H 1077.83 -3.50571 -7.39623 0
M  V30 11671 N 1080.49 1.57075 -0.12858 0
M  V30 11672 C 1081.42 2.12907 0.848708 0
M  V30 11673 C 1082.44 1.07406 1.22343 0
M  V30 11674 O 1083.63 1.34746 1.17071 0
M  V30 11675 C 1080.73 2.62167 2.1476 0
M  V30 11676 C 1079.9 3.91871 1.94309 0
M  V30 11677 C 1078.96 4.26629 3.08016 0
M  V30 11678 O 1077.98 4.9528 2.80511 0
M  V30 11679 N 1079.19 3.84721 4.34706 0
M  V30 11680 H 1081.95 2.97387 0.371636 0
M  V30 11681 H 1079.51 1.61805 0.0555574 0
M  V30 11682 H 1081.5 2.82444 2.89841 0
M  V30 11683 H 1080.07 1.82514 2.53786 0
M  V30 11684 H 1079.29 3.80406 1.03367 0
M  V30 11685 H 1080.58 4.76662 1.77962 0
M  V30 11686 H 1079.98 3.2937 4.59926 0
M  V30 11687 H 1078.54 4.10087 5.06628 0
M  V30 11688 N 1081.97 -0.145205 1.5693 0
M  V30 11689 C 1082.9 -1.18096 2.01434 0
M  V30 11690 C 1083.88 -1.447 0.894204 0
M  V30 11691 O 1085.07 -1.55589 1.16214 0
M  V30 11692 C 1082.2 -2.51369 2.39647 0
M  V30 11693 C 1081.15 -2.39283 3.54863 0
M  V30 11694 C 1080.48 -3.77283 3.78895 0
M  V30 11695 C 1081.78 -1.8754 4.87469 0
M  V30 11696 H 1083.47 -0.810897 2.8821 0
M  V30 11697 H 1081.02 -0.388624 1.38657 0
M  V30 11698 H 1082.97 -3.24054 2.69382 0
M  V30 11699 H 1081.69 -2.90214 1.49811 0
M  V30 11700 H 1080.35 -1.6905 3.25296 0
M  V30 11701 H 1080 -4.13567 2.86307 0
M  V30 11702 H 1079.7 -3.70057 4.56433 0
M  V30 11703 H 1081.22 -4.51514 4.11057 0
M  V30 11704 H 1082.64 -2.50019 5.1591 0
M  V30 11705 H 1081.03 -1.912 5.68826 0
M  V30 11706 H 1082.1 -0.831194 4.77723 0
M  V30 11707 N 1083.45 -1.52049 -0.414609 0
M  V30 11708 C 1084.39 -1.74998 -1.5048 0
M  V30 11709 C 1085.36 -0.592251 -1.55182 0
M  V30 11710 O 1086.55 -0.829203 -1.7184 0
M  V30 11711 C 1083.69 -1.90157 -2.87983 0
M  V30 11712 C 1082.8 -3.17789 -2.92633 0
M  V30 11713 C 1081.94 -3.23411 -4.21401 0
M  V30 11714 C 1080.98 -4.45267 -4.20004 0
M  V30 11715 N 1080.11 -4.48312 -5.40334 0
M  V30 11716 H 1084.95 -2.68046 -1.30212 0
M  V30 11717 H 1082.49 -1.32824 -0.632154 0
M  V30 11718 H 1084.45 -1.96929 -3.67797 0
M  V30 11719 H 1083.08 -1.00496 -3.06758 0
M  V30 11720 H 1082.13 -3.20216 -2.05343 0
M  V30 11721 H 1083.44 -4.07634 -2.87465 0
M  V30 11722 H 1082.6 -3.29224 -5.09604 0
M  V30 11723 H 1081.34 -2.31495 -4.29257 0
M  V30 11724 H 1080.34 -4.39606 -3.30192 0
M  V30 11725 H 1081.57 -5.38472 -4.13793 0
M  V30 11726 H 1079.51 -3.59277 -5.48868 0
M  V30 11727 H 1079.43 -5.31994 -5.37139 0
M  V30 11728 H 1080.7 -4.58347 -6.30506 0
M  V30 11729 N 1084.93 0.6715 -1.42579 0
M  V30 11730 C 1085.86 1.79693 -1.49107 0
M  V30 11731 C 1086.84 1.66516 -0.347338 0
M  V30 11732 O 1088.02 1.85887 -0.562094 0
M  V30 11733 C 1085.15 3.1801 -1.39596 0
M  V30 11734 C 1084.11 3.45926 -2.5203 0
M  V30 11735 C 1083.43 4.83852 -2.27577 0
M  V30 11736 C 1084.73 3.4249 -3.94333 0
M  V30 11737 H 1086.43 1.74486 -2.433 0
M  V30 11738 H 1083.97 0.838042 -1.17102 0
M  V30 11739 H 1085.92 3.96478 -1.42771 0
M  V30 11740 H 1084.65 3.23901 -0.418989 0
M  V30 11741 H 1083.31 2.6982 -2.48178 0
M  V30 11742 H 1082.96 4.86398 -1.28165 0
M  V30 11743 H 1082.66 5.03493 -3.02934 0
M  V30 11744 H 1084.18 5.646 -2.32506 0
M  V30 11745 H 1085.59 4.10922 -3.9977 0
M  V30 11746 H 1083.99 3.73666 -4.69568 0
M  V30 11747 H 1085.06 2.41002 -4.20768 0
M  V30 11748 N 1086.4 1.28806 0.908124 0
M  V30 11749 C 1087.65 1.16287 1.65781 0
M  V30 11750 C 1087.98 -0.287389 1.92365 0
M  V30 11751 O 1087.23 -1.22491 1.52625 0
M  V30 11752 C 1087.53 1.91267 3.01914 0
M  V30 11753 C 1087.2 3.41033 2.9497 0
M  V30 11754 C 1085.86 3.81879 2.92783 0
M  V30 11755 C 1088.21 4.36507 2.848 0
M  V30 11756 C 1085.54 5.16529 2.78235 0
M  V30 11757 C 1087.89 5.71237 2.71792 0
M  V30 11758 C 1086.56 6.11351 2.67967 0
M  V30 11759 H 1085.83 0.425526 0.606637 0
M  V30 11760 H 1088.47 1.59646 1.05762 0
M  V30 11761 H 1086.78 1.40474 3.65752 0
M  V30 11762 H 1088.48 1.78992 3.58835 0
M  V30 11763 H 1085.07 3.08561 2.97469 0
M  V30 11764 H 1089.25 4.05909 2.85573 0
M  V30 11765 H 1084.51 5.4673 2.73672 0
M  V30 11766 H 1088.68 6.44872 2.62892 0
M  V30 11767 H 1086.31 7.15637 2.56451 0
M  V30 11768 N 1087.88 -1.11734 1.11145 0
M  V30 11769 C 1088.84 -2.15868 0.770303 0
M  V30 11770 C 1089.84 -1.59438 -0.208842 0
M  V30 11771 O 1091.03 -1.74193 0.0152516 0
M  V30 11772 C 1088.17 -3.40603 0.142303 0
M  V30 11773 H 1089.36 -2.4756 1.69276 0
M  V30 11774 H 1086.91 -1.26867 0.912929 0
M  V30 11775 H 1087.65 -3.14517 -0.790526 0
M  V30 11776 H 1087.43 -3.8284 0.847087 0
M  V30 11777 H 1088.92 -4.17523 -0.0803608 0
M  V30 11778 N 1089.36 -0.901303 -1.29284 0
M  V30 11779 C 1090.78 -0.597634 -1.47988 0
M  V30 11780 C 1090.98 0.860434 -1.82205 0
M  V30 11781 O 1090.03 1.64049 -1.91948 0
M  V30 11782 C 1091.34 -1.52484 -2.5917 0
M  V30 11783 C 1092.89 -1.53021 -2.73045 0
M  V30 11784 C 1093.37 -2.44373 -3.87357 0
M  V30 11785 N 1094.86 -2.42429 -3.94693 0
M  V30 11786 C 1095.59 -3.09817 -4.82495 0
M  V30 11787 N 1095.09 -3.86489 -5.74976 0
M  V30 11788 N 1096.88 -2.98966 -4.76 0
M  V30 11789 H 1089.03 -1.84432 -1.0535 0
M  V30 11790 H 1091.3 -0.790367 -0.523473 0
M  V30 11791 H 1091 -2.56378 -2.40756 0
M  V30 11792 H 1090.88 -1.24657 -3.56006 0
M  V30 11793 H 1093.26 -0.498709 -2.90855 0
M  V30 11794 H 1093.34 -1.84886 -1.76779 0
M  V30 11795 H 1092.99 -3.47618 -3.70302 0
M  V30 11796 H 1092.92 -2.09817 -4.82995 0
M  V30 11797 H 1095.41 -1.86724 -3.28546 0
M  V30 11798 H 1095.72 -4.34959 -6.38773 0
M  V30 11799 H 1094.07 -3.90596 -5.74857 0
M  V30 11800 H 1097.26 -2.38581 -4.02737 0
M  V30 11801 H 1097.43 -3.51758 -5.44215 0
M  V30 11802 N 1090.84 1.42931 -0.663954 0
M  V30 11803 C 1091.77 2.28089 0.0710318 0
M  V30 11804 C 1092.75 1.40446 0.819375 0
M  V30 11805 O 1093.93 1.69887 0.816738 0
M  V30 11806 C 1091.06 3.20079 1.10756 0
M  V30 11807 C 1090.11 4.24055 0.456045 0
M  V30 11808 S 1090.94 5.29813 -0.778356 0
M  V30 11809 C 1092.09 6.25371 0.257373 0
M  V30 11810 H 1092.33 2.90078 -0.651315 0
M  V30 11811 H 1089.86 1.47601 -0.453137 0
M  V30 11812 H 1091.82 3.7362 1.70055 0
M  V30 11813 H 1090.48 2.57248 1.80229 0
M  V30 11814 H 1089.67 4.88564 1.23779 0
M  V30 11815 H 1089.27 3.73947 -0.0630832 0
M  V30 11816 H 1091.57 6.68172 1.12037 0
M  V30 11817 H 1092.51 7.0722 -0.352969 0
M  V30 11818 H 1092.92 5.61324 0.597991 0
M  V30 11819 N 1092.32 0.406567 1.52266 0
M  V30 11820 C 1093.56 -0.169611 2.03695 0
M  V30 11821 C 1093.92 -1.42596 1.2857 0
M  V30 11822 O 1095.12 -2.08041 1.70212 0
M  V30 11823 C 1093.39 -0.413924 3.54995 0
M  V30 11824 S 1094.95 -0.957916 4.28217 0
M  V30 11825 H 1091.77 -0.0462362 0.709495 0
M  V30 11826 H 1094.37 0.558895 1.87341 0
M  V30 11827 H 1093.07 0.507285 4.07253 0
M  V30 11828 H 1092.61 -1.17038 3.75587 0
M  V30 11829 H 1094.62 -2.2387 4.42828 0
M  V30 11830 N 1093.79 -1.57004 0.136909 0
M  V30 11831 C 1094.72 -2.19262 -0.802902 0
M  V30 11832 C 1095.71 -1.13786 -1.26439 0
M  V30 11833 O 1096.89 -1.42091 -1.32377 0
M  V30 11834 C 1094.02 -2.80624 -2.04615 0
M  V30 11835 C 1092.97 -3.91839 -1.72181 0
M  V30 11836 C 1092.3 -4.4009 -3.03686 0
M  V30 11837 C 1093.6 -5.13095 -0.976249 0
M  V30 11838 H 1095.29 -2.98049 -0.28406 0
M  V30 11839 H 1092.84 -1.43364 -0.135189 0
M  V30 11840 H 1094.79 -3.22842 -2.70834 0
M  V30 11841 H 1093.52 -1.99153 -2.58855 0
M  V30 11842 H 1092.18 -3.50224 -1.08344 0
M  V30 11843 H 1091.82 -3.55454 -3.55896 0
M  V30 11844 H 1091.52 -5.15098 -2.82751 0
M  V30 11845 H 1093.05 -4.84971 -3.70993 0
M  V30 11846 H 1094.46 -5.5222 -1.54033 0
M  V30 11847 H 1092.86 -5.93801 -0.867214 0
M  V30 11848 H 1093.93 -4.84888 0.0338488 0
M  V30 11849 N 1095.27 0.136881 -1.57004 0
M  V30 11850 C 1096.55 0.87705 -1.74835 0
M  V30 11851 C 1096.93 1.98886 -0.707639 0
M  V30 11852 O 1096.28 2.26879 0.271652 0
M  V30 11853 C 1096.49 1.41021 -3.1924 0
M  V30 11854 C 1097.84 1.86963 -3.81222 0
M  V30 11855 O 1098.86 1.5074 -3.22732 0
M  V30 11856 O 1097.72 2.53798 -4.83993 0
M  V30 11857 H 1094.81 0.415192 -0.715223 0
M  V30 11858 H 1097.36 0.122016 -1.69261 0
M  V30 11859 H 1096.13 0.611677 -3.8649 0
M  V30 11860 H 1095.75 2.22846 -3.2928 0
M  V30 11861 N 1096.75 1.52266 0.40654 0
M  V30 11862 C 1098.17 1.41127 0.745348 0
M  V30 11863 C 1098.37 0.517802 1.94733 0
M  V30 11864 O 1097.42 -0.0154286 2.52495 0
M  V30 11865 C 1098.74 2.83696 0.996859 0
M  V30 11866 C 1100.28 2.93056 1.09942 0
M  V30 11867 C 1100.76 4.36599 1.38367 0
M  V30 11868 N 1102.25 4.39845 1.45226 0
M  V30 11869 C 1102.98 5.47975 1.68852 0
M  V30 11870 N 1102.48 6.66219 1.90065 0
M  V30 11871 N 1104.27 5.35494 1.70888 0
M  V30 11872 H 1096.42 2.08888 -0.384632 0
M  V30 11873 H 1098.69 0.941619 -0.109809 0
M  V30 11874 H 1098.39 3.51208 0.185986 0
M  V30 11875 H 1098.27 3.24895 1.91632 0
M  V30 11876 H 1100.65 2.25723 1.90088 0
M  V30 11877 H 1100.74 2.5531 0.158256 0
M  V30 11878 H 1100.38 5.04492 0.587373 0
M  V30 11879 H 1100.31 4.71883 2.33739 0
M  V30 11880 H 1102.8 3.54611 1.30612 0
M  V30 11881 H 1103.11 7.44408 2.0755 0
M  V30 11882 H 1101.46 6.69279 1.87325 0
M  V30 11883 H 1104.65 4.42093 1.53856 0
M  V30 11884 H 1104.82 6.19837 1.88962 0
M  V30 11885 N 1098.23 -0.663929 1.42933 0
M  V30 11886 C 1099.16 -1.78946 1.43217 0
M  V30 11887 C 1100.17 -1.59426 0.329727 0
M  V30 11888 O 1101.36 -1.68344 0.5935 0
M  V30 11889 C 1098.46 -3.16217 1.21902 0
M  V30 11890 C 1097.64 -3.6249 2.44785 0
M  V30 11891 C 1096.69 -4.78529 2.18853 0
M  V30 11892 O 1095.72 -4.88516 2.92131 0
M  V30 11893 N 1096.92 -5.67994 1.19845 0
M  V30 11894 H 1099.69 -1.79184 2.40236 0
M  V30 11895 H 1097.25 -0.847404 1.37952 0
M  V30 11896 H 1099.24 -3.91517 1.02454 0
M  V30 11897 H 1097.81 -3.10814 0.333676 0
M  V30 11898 H 1097.03 -2.77751 2.79729 0
M  V30 11899 H 1098.32 -3.90151 3.26588 0
M  V30 11900 H 1097.72 -5.62588 0.59259 0
M  V30 11901 H 1096.27 -6.4306 1.06382 0
M  V30 11902 N 1099.71 -1.29285 -0.901281 0
M  V30 11903 C 1100.94 -1.19874 -1.68267 0
M  V30 11904 C 1101.34 0.243387 -1.87628 0
M  V30 11905 O 1100.69 1.17497 -1.41209 0
M  V30 11906 C 1100.75 -1.83907 -3.08899 0
M  V30 11907 C 1100.41 -3.33198 -3.12775 0
M  V30 11908 C 1101.41 -4.29446 -2.9304 0
M  V30 11909 C 1099.1 -3.7437 -3.34892 0
M  V30 11910 C 1101.09 -5.64842 -2.95352 0
M  V30 11911 C 1098.78 -5.09888 -3.36834 0
M  V30 11912 C 1099.77 -6.04934 -3.17087 0
M  V30 11913 O 1099.46 -7.37979 -3.18815 0
M  V30 11914 H 1099.19 -0.416601 -0.532372 0
M  V30 11915 H 1101.75 -1.71154 -1.13558 0
M  V30 11916 H 1099.98 -1.27136 -3.65203 0
M  V30 11917 H 1101.67 -1.6884 -3.69118 0
M  V30 11918 H 1102.43 -3.9897 -2.75767 0
M  V30 11919 H 1098.31 -3.00846 -3.49303 0
M  V30 11920 H 1101.86 -6.39004 -2.79856 0
M  V30 11921 H 1097.75 -5.40009 -3.53638 0
M  V30 11922 H 1098.52 -7.46763 -3.35092 0
M  V30 11923 N 1101.18 1.11143 -1.11736 0
M  V30 11924 C 1102.11 2.19339 -0.800795 0
M  V30 11925 C 1103.1 1.68508 0.23221 0
M  V30 11926 O 1104.28 1.93967 0.0950063 0
M  V30 11927 C 1101.41 3.46424 -0.246579 0
M  V30 11928 C 1100.36 4.10487 -1.21181 0
M  V30 11929 C 1099.69 5.32183 -0.518158 0
M  V30 11930 C 1100.99 4.55052 -2.56368 0
M  V30 11931 H 1102.68 2.46077 -1.70548 0
M  V30 11932 H 1100.23 1.18271 -0.821454 0
M  V30 11933 H 1102.18 4.21398 -0.0128889 0
M  V30 11934 H 1100.91 3.19154 0.693415 0
M  V30 11935 H 1099.57 3.3751 -1.43118 0
M  V30 11936 H 1099.21 5.01187 0.426742 0
M  V30 11937 H 1098.91 5.75997 -1.16196 0
M  V30 11938 H 1100.44 6.09895 -0.293333 0
M  V30 11939 H 1101.85 5.21335 -2.38501 0
M  V30 11940 H 1100.25 5.0969 -3.16758 0
M  V30 11941 H 1101.32 3.68343 -3.1536 0
M  V30 11942 N 1102.66 0.908147 1.28804 0
M  V30 11943 C 1103.63 0.397058 2.25735 0
M  V30 11944 C 1104.63 -0.473483 1.53671 0
M  V30 11945 O 1105.82 -0.277335 1.71978 0
M  V30 11946 C 1102.95 -0.431392 3.38159 0
M  V30 11947 H 1104.14 1.25323 2.72459 0
M  V30 11948 H 1101.69 0.687041 1.4039 0
M  V30 11949 H 1102.43 -1.3072 2.96787 0
M  V30 11950 H 1102.21 0.192502 3.91627 0
M  V30 11951 H 1103.7 -0.78 4.10251 0
M  V30 11952 N 1104.14 -1.42577 0.671525 0
M  V30 11953 C 1105.39 -2.00806 0.189663 0
M  V30 11954 C 1105.7 -1.537 -1.20978 0
M  V30 11955 O 1106.91 -2.04325 -1.78784 0
M  V30 11956 C 1105.36 -3.58744 0.288227 0
M  V30 11957 C 1104.97 -4.14839 1.69152 0
M  V30 11958 C 1106.72 -4.24285 -0.13509 0
M  V30 11959 C 1104.62 -5.65131 1.74302 0
M  V30 11960 H 1103.55 -0.751004 0.067146 0
M  V30 11961 H 1106.2 -1.63338 0.83623 0
M  V30 11962 H 1104.59 -3.937 -0.426175 0
M  V30 11963 H 1105.76 -3.91349 2.43274 0
M  V30 11964 H 1104.08 -3.61738 2.0624 0
M  V30 11965 H 1106.67 -5.34573 -0.116709 0
M  V30 11966 H 1107.02 -3.99527 -1.16977 0
M  V30 11967 H 1107.55 -3.94278 0.528191 0
M  V30 11968 H 1104.29 -5.94682 2.75742 0
M  V30 11969 H 1103.81 -5.90621 1.04531 0
M  V30 11970 H 1105.49 -6.29491 1.49498 0
M  V30 11971 N 1105.62 -0.414636 -1.52048 0
M  V30 11972 C 1106.9 0.218172 -1.94379 0
M  V30 11973 C 1107.28 1.62133 -1.35189 0
M  V30 11974 O 1106.62 2.22271 -0.529877 0
M  V30 11975 C 1106.83 0.218932 -3.48313 0
M  V30 11976 C 1108.18 0.435604 -4.2236 0
M  V30 11977 O 1109.21 0.298049 -3.54951 0
M  V30 11978 O 1108.06 0.707217 -5.41905 0
M  V30 11979 H 1105.16 0.142173 -0.814688 0
M  V30 11980 H 1107.7 -0.470977 -1.63033 0
M  V30 11981 H 1106.48 -0.76292 -3.83791 0
M  V30 11982 H 1106.1 0.951949 -3.86036 0
M  V30 11983 N 1107.1 1.56929 -0.145233 0
M  V30 11984 C 1108.01 2.20238 0.808219 0
M  V30 11985 C 1109.02 1.18615 1.27304 0
M  V30 11986 O 1110.2 1.51186 1.3306 0
M  V30 11987 C 1107.26 2.81016 2.03055 0
M  V30 11988 C 1106.32 3.97759 1.61512 0
M  V30 11989 C 1105.56 4.55628 2.77918 0
M  V30 11990 O 1105.78 4.12378 3.94082 0
M  V30 11991 O 1104.71 5.45917 2.53492 0
M  V30 11992 H 1108.54 3.02221 0.299314 0
M  V30 11993 H 1106.13 1.49176 0.0817051 0
M  V30 11994 H 1108.01 3.19652 2.74592 0
M  V30 11995 H 1106.68 2.02047 2.52901 0
M  V30 11996 H 1105.59 3.63842 0.870033 0
M  V30 11997 H 1106.92 4.78242 1.16383 0
M  V30 11998 N 1108.58 -0.128553 1.57075 0
M  V30 11999 C 1109.82 -0.836536 1.83535 0
M  V30 12000 C 1110.14 -1.81491 0.7294 0
M  V30 12001 O 1111.34 -2.56838 0.880128 0
M  V30 12002 C 1109.8 -1.53836 3.25365 0
M  V30 12003 C 1109.41 -0.601454 4.43944 0
M  V30 12004 C 1111.15 -2.23204 3.61082 0
M  V30 12005 C 1109.06 -1.30596 5.768 0
M  V30 12006 H 1107.99 -0.316142 0.684522 0
M  V30 12007 H 1110.64 -0.0892555 1.83283 0
M  V30 12008 H 1109.02 -2.33192 3.20058 0
M  V30 12009 H 1110.2 0.158209 4.60528 0
M  V30 12010 H 1108.51 -0.0152393 4.16397 0
M  V30 12011 H 1111.11 -2.76585 4.57608 0
M  V30 12012 H 1111.45 -3.0056 2.88044 0
M  V30 12013 H 1111.98 -1.50746 3.68131 0
M  V30 12014 H 1108.72 -0.573874 6.52983 0
M  V30 12015 H 1108.24 -2.03787 5.6412 0
M  V30 12016 H 1109.92 -1.8418 6.20231 0
M  V30 12017 N 1110.05 -1.5248 -0.398459 0
M  V30 12018 C 1111.28 -1.71221 -1.17039 0
M  V30 12019 C 1111.7 -0.425515 -1.83224 0
M  V30 12020 O 1111.06 0.617938 -1.70444 0
M  V30 12021 C 1111.11 -2.8562 -2.20121 0
M  V30 12022 O 1110.21 -2.51934 -3.26501 0
M  V30 12023 H 1109.55 -0.569654 -0.34116 0
M  V30 12024 H 1112.08 -1.99231 -0.465652 0
M  V30 12025 H 1112.09 -3.10842 -2.64275 0
M  V30 12026 H 1110.77 -3.78969 -1.71334 0
M  V30 12027 H 1109.35 -2.3742 -2.87552 0
M  V30 12028 N 1111.53 0.65634 -1.43283 0
M  V30 12029 C 1112.46 1.78184 -1.44164 0
M  V30 12030 C 1113.48 1.59249 -0.338177 0
M  V30 12031 O 1114.67 1.68027 -0.60242 0
M  V30 12032 C 1111.77 3.15566 -1.23577 0
M  V30 12033 C 1110.94 3.61187 -2.46704 0
M  V30 12034 C 1110 4.77361 -2.21388 0
M  V30 12035 O 1109.02 4.8696 -2.94718 0
M  V30 12036 N 1110.23 5.67351 -1.22855 0
M  V30 12037 H 1112.99 1.77907 -2.41183 0
M  V30 12038 H 1110.55 0.840076 -1.38399 0
M  V30 12039 H 1112.54 3.90968 -1.04529 0
M  V30 12040 H 1111.11 3.10633 -0.350155 0
M  V30 12041 H 1110.33 2.76263 -2.81198 0
M  V30 12042 H 1111.62 3.88413 -3.28652 0
M  V30 12043 H 1111.02 5.62265 -0.622417 0
M  V30 12044 H 1109.58 6.42487 -1.09791 0
M  V30 12045 N 1113.01 1.29761 0.894412 0
M  V30 12046 C 1113.94 1.1115 2.00445 0
M  V30 12047 C 1114.95 0.0574655 1.62699 0
M  V30 12048 O 1116.14 0.302528 1.75918 0
M  V30 12049 C 1113.24 0.670984 3.32191 0
M  V30 12050 C 1112.42 1.80471 3.98433 0
M  V30 12051 C 1111.48 1.35431 5.08473 0
M  V30 12052 O 1110.5 2.05994 5.30618 0
M  V30 12053 N 1111.7 0.22811 5.80052 0
M  V30 12054 H 1114.47 2.06753 2.16964 0
M  V30 12055 H 1112.03 1.21772 1.06692 0
M  V30 12056 H 1114.02 0.352877 4.03159 0
M  V30 12057 H 1112.59 -0.192735 3.12005 0
M  V30 12058 H 1111.81 2.29142 3.20761 0
M  V30 12059 H 1113.1 2.56471 4.39431 0
M  V30 12060 H 1112.5 -0.360076 5.64553 0
M  V30 12061 H 1111.05 -0.0305985 6.51793 0
M  V30 12062 N 1114.49 -1.10549 1.12324 0
M  V30 12063 C 1115.42 -2.18911 0.812416 0
M  V30 12064 C 1116.4 -1.68628 -0.22327 0
M  V30 12065 O 1117.58 -1.94015 -0.0847184 0
M  V30 12066 C 1114.71 -3.46288 0.264947 0
M  V30 12067 C 1113.67 -4.09838 1.23356 0
M  V30 12068 C 1112.99 -5.31901 0.546374 0
M  V30 12069 C 1114.29 -4.53686 2.58778 0
M  V30 12070 H 1115.99 -2.45169 1.71851 0
M  V30 12071 H 1113.53 -1.17834 0.827715 0
M  V30 12072 H 1115.49 -4.21385 0.0352364 0
M  V30 12073 H 1114.21 -3.19517 -0.676479 0
M  V30 12074 H 1112.87 -3.36746 1.44906 0
M  V30 12075 H 1112.52 -5.01406 -0.400157 0
M  V30 12076 H 1112.22 -5.75372 1.19249 0
M  V30 12077 H 1113.74 -6.09731 0.325673 0
M  V30 12078 H 1115.16 -5.20063 2.41263 0
M  V30 12079 H 1113.55 -5.08003 3.19457 0
M  V30 12080 H 1114.62 -3.66665 3.17309 0
M  V30 12081 N 1115.97 -0.914965 -1.28321 0
M  V30 12082 C 1117.21 -0.547665 -1.94538 0
M  V30 12083 C 1117.53 0.911834 -1.72368 0
M  V30 12084 O 1116.8 1.64481 -1.06408 0
M  V30 12085 H 1115.38 -0.199549 -0.719853 0
M  V30 12086 H 1118.05 -1.16459 -1.5628 0
M  V30 12087 H 1117.14 -0.743138 -3.03124 0
M  V30 12088 N 1117.44 1.42219 -0.679077 0
M  V30 12089 C 1118.69 2.01777 -0.20342 0
M  V30 12090 C 1119.02 1.53592 1.18841 0
M  V30 12091 O 1118.3 0.739954 1.79875 0
M  V30 12092 C 1118.58 3.59281 -0.242791 0
M  V30 12093 C 1118.43 4.17634 -1.67038 0
M  V30 12094 C 1119.75 4.38218 0.406624 0
M  V30 12095 H 1116.87 0.733134 -0.0753916 0
M  V30 12096 H 1119.51 1.69185 -0.864673 0
M  V30 12097 H 1117.66 3.87178 0.320248 0
M  V30 12098 H 1119.34 4.00674 -2.286 0
M  V30 12099 H 1117.58 3.73301 -2.20973 0
M  V30 12100 H 1118.25 5.26776 -1.64958 0
M  V30 12101 H 1120.73 4.16036 -0.0727077 0
M  V30 12102 H 1119.6 5.47793 0.348457 0
M  V30 12103 H 1119.86 4.16418 1.48487 0
M  V30 12104 N 1118.92 0.422693 1.51826 0
M  V30 12105 C 1120.2 -0.20786 1.94492 0
M  V30 12106 C 1120.58 -1.61414 1.36047 0
M  V30 12107 O 1119.93 -2.21987 0.541657 0
M  V30 12108 C 1120.14 -0.200457 3.48424 0
M  V30 12109 C 1121.48 -0.413199 4.22585 0
M  V30 12110 O 1122.51 -0.27922 3.55104 0
M  V30 12111 O 1121.37 -0.678469 5.42272 0
M  V30 12112 H 1118.46 -0.137851 0.81543 0
M  V30 12113 H 1121.01 0.479617 1.62781 0
M  V30 12114 H 1119.78 0.783263 3.83381 0
M  V30 12115 H 1119.4 -0.931464 3.86535 0
M  V30 12116 N 1120.4 -1.5685 0.153553 0
M  V30 12117 C 1121.33 -2.20101 -0.779601 0
M  V30 12118 C 1122.31 -1.15121 -1.25225 0
M  V30 12119 O 1123.5 -1.43487 -1.30862 0
M  V30 12120 C 1120.63 -2.82778 -2.01628 0
M  V30 12121 C 1119.58 -3.93643 -1.68015 0
M  V30 12122 C 1118.91 -4.43286 -2.99001 0
M  V30 12123 C 1120.21 -5.14102 -0.921774 0
M  V30 12124 H 1121.9 -2.98334 -0.252432 0
M  V30 12125 H 1119.45 -1.43499 -0.119975 0
M  V30 12126 H 1121.4 -3.25696 -2.67395 0
M  V30 12127 H 1120.12 -2.01887 -2.56728 0
M  V30 12128 H 1118.78 -3.51354 -1.04624 0
M  V30 12129 H 1118.43 -3.59208 -3.52106 0
M  V30 12130 H 1118.13 -5.18068 -2.77272 0
M  V30 12131 H 1119.65 -4.88878 -3.65828 0
M  V30 12132 H 1121.07 -5.53823 -1.48167 0
M  V30 12133 H 1119.46 -5.94687 -0.804185 0
M  V30 12134 H 1120.53 -4.84825 0.0852757 0
M  V30 12135 N 1121.88 0.120221 -1.57141 0
M  V30 12136 C 1123.13 0.826791 -1.83976 0
M  V30 12137 C 1123.44 1.81102 -0.739014 0
M  V30 12138 O 1124.65 2.56368 -0.893736 0
M  V30 12139 C 1123.1 1.52108 -3.26176 0
M  V30 12140 C 1122.71 0.577902 -4.44257 0
M  V30 12141 C 1124.45 2.21286 -3.62261 0
M  V30 12142 C 1122.36 1.27535 -5.77485 0
M  V30 12143 H 1121.29 0.312508 -0.686189 0
M  V30 12144 H 1123.94 0.0795343 -1.83328 0
M  V30 12145 H 1122.32 2.31492 -3.2129 0
M  V30 12146 H 1123.5 -0.182629 -4.60438 0
M  V30 12147 H 1121.81 -0.00684348 -4.16399 0
M  V30 12148 H 1124.41 2.74154 -4.59068 0
M  V30 12149 H 1124.75 2.99029 -2.89634 0
M  V30 12150 H 1125.29 1.48791 -3.68925 0
M  V30 12151 H 1122.02 0.539237 -6.53278 0
M  V30 12152 H 1121.54 2.00792 -5.65192 0
M  V30 12153 H 1123.22 1.80888 -6.21199 0
M  V30 12154 N 1123.36 1.52689 0.390367 0
M  V30 12155 C 1124.6 1.67666 1.13553 0
M  V30 12156 C 1124.93 0.415903 1.90001 0
M  V30 12157 O 1124.19 -0.601664 1.86222 0
M  V30 12158 C 1124.49 2.86177 2.14096 0
M  V30 12159 C 1124.15 4.23671 1.54316 0
M  V30 12160 C 1122.81 4.61066 1.37739 0
M  V30 12161 C 1125.17 5.09278 1.1084 0
M  V30 12162 C 1122.49 5.81727 0.76231 0
M  V30 12163 C 1124.85 6.30562 0.507433 0
M  V30 12164 C 1123.51 6.66689 0.328945 0
M  V30 12165 H 1122.78 0.613533 0.415521 0
M  V30 12166 H 1125.43 1.8683 0.420339 0
M  V30 12167 H 1123.73 2.61424 2.9183 0
M  V30 12168 H 1125.43 2.9496 2.7166 0
M  V30 12169 H 1122.02 3.94214 1.68207 0
M  V30 12170 H 1126.2 4.80957 1.2245 0
M  V30 12171 H 1121.46 6.08327 0.612208 0
M  V30 12172 H 1125.63 6.96211 0.162248 0
M  V30 12173 H 1123.26 7.60052 -0.149748 0
M  V30 12174 N 1124.83 -0.648732 1.43629 0
M  V30 12175 C 1125.76 -1.77298 1.51947 0
M  V30 12176 C 1126.75 -1.65942 0.373785 0
M  V30 12177 O 1127.93 -1.8497 0.591596 0
M  V30 12178 C 1125.06 -3.15749 1.44638 0
M  V30 12179 C 1124.01 -3.41872 2.57502 0
M  V30 12180 C 1123.34 -4.8017 2.35246 0
M  V30 12181 C 1124.64 -3.36173 3.99731 0
M  V30 12182 H 1126.33 -1.70594 2.46045 0
M  V30 12183 H 1123.88 -0.819306 1.1842 0
M  V30 12184 H 1125.83 -3.94156 1.4906 0
M  V30 12185 H 1124.56 -3.23194 0.470466 0
M  V30 12186 H 1123.22 -2.65838 2.5244 0
M  V30 12187 H 1122.86 -4.84297 1.35887 0
M  V30 12188 H 1122.56 -4.9861 3.10906 0
M  V30 12189 H 1124.09 -5.6083 2.41459 0
M  V30 12190 H 1125.5 -4.0451 4.06257 0
M  V30 12191 H 1123.9 -3.66148 4.75453 0
M  V30 12192 H 1124.97 -2.34277 4.24549 0
M  V30 12193 N 1126.31 -1.30234 -0.887518 0
M  V30 12194 C 1127.55 -1.20191 -1.65328 0
M  V30 12195 C 1127.92 0.240121 -1.90493 0
M  V30 12196 O 1129.12 0.463744 -2.64769 0
M  V30 12197 C 1127.39 -2.00506 -2.95858 0
M  V30 12198 S 1128.95 -2.07133 -3.86835 0
M  V30 12199 H 1125.77 -0.428366 -0.567472 0
M  V30 12200 H 1128.37 -1.64677 -1.05364 0
M  V30 12201 H 1127.07 -3.04396 -2.75266 0
M  V30 12202 H 1126.6 -1.56672 -3.60857 0
M  V30 12203 H 1128.62 -1.19687 -4.81549 0
M  V30 12204 N 1127.79 1.09952 -1.12909 0
M  V30 12205 C 1128.72 2.15689 -0.745217 0
M  V30 12206 C 1129.7 1.60409 0.266007 0
M  V30 12207 O 1130.89 1.8783 0.158783 0
M  V30 12208 C 1128.01 3.38541 -0.103846 0
M  V30 12209 C 1127.06 4.12529 -1.0827 0
M  V30 12210 S 1127.89 4.67442 -2.61262 0
M  V30 12211 C 1129.05 5.936 -1.9847 0
M  V30 12212 H 1129.28 2.47918 -1.64086 0
M  V30 12213 H 1126.81 1.21817 -0.948682 0
M  V30 12214 H 1128.77 4.09677 0.259816 0
M  V30 12215 H 1127.43 3.04541 0.768982 0
M  V30 12216 H 1126.63 5.00632 -0.581653 0
M  V30 12217 H 1126.23 3.47228 -1.38955 0
M  V30 12218 H 1128.52 6.64308 -1.33048 0
M  V30 12219 H 1129.46 6.48374 -2.84634 0
M  V30 12220 H 1129.87 5.45864 -1.43848 0
M  V30 12221 N 1129.27 0.921757 1.27833 0
M  V30 12222 C 1130.23 0.420978 2.25301 0
M  V30 12223 C 1131.23 -0.457158 1.54165 0
M  V30 12224 O 1132.42 -0.259079 1.72263 0
M  V30 12225 C 1129.55 -0.395501 3.38598 0
M  V30 12226 H 1130.75 1.28206 2.71115 0
M  V30 12227 H 1128.3 0.701893 1.39654 0
M  V30 12228 H 1129.03 -1.27565 2.98157 0
M  V30 12229 H 1128.82 0.234029 3.91401 0
M  V30 12230 H 1130.31 -0.736444 4.11055 0
M  V30 12231 N 1130.75 -1.41857 0.686609 0
M  V30 12232 C 1132.02 -1.95082 0.142228 0
M  V30 12233 C 1132.4 -1.62646 -1.34572 0
M  V30 12234 O 1131.75 -0.928757 -2.08773 0
M  V30 12235 C 1131.96 -3.46415 0.423955 0
M  V30 12236 C 1133.31 -4.23181 0.346842 0
M  V30 12237 O 1134.33 -3.54393 0.358363 0
M  V30 12238 O 1133.19 -5.4568 0.299211 0
M  V30 12239 H 1130.29 -0.826943 0.00974 0
M  V30 12240 H 1132.83 -1.51622 0.762153 0
M  V30 12241 H 1131.6 -3.63273 1.45424 0
M  V30 12242 H 1131.23 -3.96949 -0.227391 0
M  V30 12243 N 1132.22 -0.430739 -1.51599 0
M  V30 12244 C 1133.13 0.390347 -2.3133 0
M  V30 12245 C 1134.15 1.03376 -1.39962 0
M  V30 12246 O 1135.33 1.03057 -1.73035 0
M  V30 12247 C 1132.39 1.48039 -3.13505 0
M  V30 12248 C 1131.45 0.857792 -4.20643 0
M  V30 12249 C 1130.69 1.89589 -4.9889 0
M  V30 12250 O 1130.91 3.11717 -4.77691 0
M  V30 12251 O 1129.84 1.49009 -5.83164 0
M  V30 12252 H 1133.67 -0.260358 -3.02582 0
M  V30 12253 H 1131.25 -0.193428 -1.48143 0
M  V30 12254 H 1133.14 2.11272 -3.64612 0
M  V30 12255 H 1131.81 2.1153 -2.45024 0
M  V30 12256 H 1130.72 0.187592 -3.73629 0
M  V30 12257 H 1132.05 0.266474 -4.91478 0
M  V30 12258 N 1133.7 1.56767 -0.161869 0
M  V30 12259 C 1134.64 2.13321 0.810527 0
M  V30 12260 C 1135.61 1.06073 1.23237 0
M  V30 12261 O 1136.8 1.33993 1.32583 0
M  V30 12262 C 1133.92 2.66506 2.09027 0
M  V30 12263 C 1132.97 3.86038 1.8132 0
M  V30 12264 S 1133.8 5.26253 0.990873 0
M  V30 12265 C 1134.96 5.82837 2.28149 0
M  V30 12266 H 1135.19 2.95467 0.32965 0
M  V30 12267 H 1132.73 1.5431 0.052655 0
M  V30 12268 H 1134.68 2.97797 2.82537 0
M  V30 12269 H 1133.34 1.84463 2.54229 0
M  V30 12270 H 1132.54 4.21547 2.7625 0
M  V30 12271 H 1132.14 3.55585 1.1591 0
M  V30 12272 H 1134.43 5.95175 3.23686 0
M  V30 12273 H 1135.37 6.80109 1.97123 0
M  V30 12274 H 1135.78 5.11186 2.39477 0
M  V30 12275 N 1135.18 -0.111886 1.57202 0
M  V30 12276 C 1136.11 -1.13796 2.03894 0
M  V30 12277 C 1137.09 -1.4277 0.924696 0
M  V30 12278 O 1138.28 -1.53089 1.19488 0
M  V30 12279 C 1135.41 -2.46229 2.44925 0
M  V30 12280 C 1134.36 -2.31702 3.59859 0
M  V30 12281 C 1133.69 -3.69161 3.86813 0
M  V30 12282 C 1134.99 -1.77158 4.91337 0
M  V30 12283 H 1136.68 -0.749581 2.89865 0
M  V30 12284 H 1134.23 -0.359126 1.3945 0
M  V30 12285 H 1136.18 -3.18267 2.76195 0
M  V30 12286 H 1134.9 -2.86971 1.55933 0
M  V30 12287 H 1133.56 -1.62112 3.28809 0
M  V30 12288 H 1133.21 -4.07401 2.95015 0
M  V30 12289 H 1132.91 -3.60292 4.6418 0
M  V30 12290 H 1134.43 -4.42693 4.20542 0
M  V30 12291 H 1135.85 -2.3902 5.21097 0
M  V30 12292 H 1134.25 -1.79091 5.72753 0
M  V30 12293 H 1135.32 -0.729675 4.79379 0
M  V30 12294 N 1136.66 -1.52894 -0.382264 0
M  V30 12295 C 1138.07 -1.60135 -0.959887 0
M  V30 12296 C 1138.42 -0.458363 -1.90771 0
M  V30 12297 O 1137.55 0.417614 -2.12332 0
M  V30 12298 C 1138.14 -2.90243 -1.74769 0
M  V30 12299 C 1136.7 -2.99874 -2.27491 0
M  V30 12300 C 1135.85 -2.55302 -1.0824 0
M  V30 12301 H 1138.8 -1.57875 -0.161589 0
M  V30 12302 H 1138.82 -2.77108 -2.60751 0
M  V30 12303 H 1138.33 -3.73412 -1.0576 0
M  V30 12304 H 1136.43 -2.21258 -2.99793 0
M  V30 12305 H 1136.54 -4.04643 -2.56516 0
M  V30 12306 H 1134.91 -2.09781 -1.44444 0
M  V30 12307 H 1135.69 -3.40872 -0.407553 0
M  V30 12308 N 1138.14 0.641106 -1.43971 0
M  V30 12309 C 1139.38 1.40084 -1.46228 0
M  V30 12310 C 1139.71 1.94287 -0.0911011 0
M  V30 12311 O 1138.97 1.73481 0.905688 0
M  V30 12312 C 1139.27 2.59092 -2.46183 0
M  V30 12313 C 1138.93 2.23237 -3.9176 0
M  V30 12314 C 1137.59 2.13171 -4.31407 0
M  V30 12315 C 1139.95 1.94746 -4.83449 0
M  V30 12316 C 1137.27 1.72788 -5.60679 0
M  V30 12317 C 1139.63 1.55858 -6.13099 0
M  V30 12318 C 1138.29 1.44326 -6.5171 0
M  V30 12319 H 1137.56 0.512603 -0.535088 0
M  V30 12320 H 1140.21 0.727956 -1.77124 0
M  V30 12321 H 1138.51 3.31568 -2.08734 0
M  V30 12322 H 1140.21 3.17313 -2.4518 0
M  V30 12323 H 1136.8 2.31986 -3.60389 0
M  V30 12324 H 1140.98 2.01438 -4.53582 0
M  V30 12325 H 1136.24 1.62455 -5.89422 0
M  V30 12326 H 1140.41 1.32848 -6.83611 0
M  V30 12327 H 1138.04 1.12806 -7.51784 0
M  V30 12328 N 1139.62 1.30703 0.880598 0
M  V30 12329 C 1140.89 1.1043 1.61445 0
M  V30 12330 C 1141.27 -0.344837 2.08264 0
M  V30 12331 O 1140.62 -1.33711 1.85293 0
M  V30 12332 C 1140.83 2.10908 2.78063 0
M  V30 12333 C 1142.18 2.42861 3.48287 0
M  V30 12334 O 1143.2 2.09252 2.88257 0
M  V30 12335 O 1142.06 3.00369 4.56553 0
M  V30 12336 H 1139.16 0.424419 0.709787 0
M  V30 12337 H 1141.7 1.42144 0.926991 0
M  V30 12338 H 1140.47 3.08431 2.40803 0
M  V30 12339 H 1140.1 1.80036 3.54503 0
M  V30 12340 N 1141.09 -1.09351 1.1349 0
M  V30 12341 C 1142.02 -2.18037 0.835588 0
M  V30 12342 C 1143 -1.68856 -0.205373 0
M  V30 12343 O 1144.19 -1.94094 -0.0641357 0
M  V30 12344 C 1141.32 -3.45987 0.301661 0
M  V30 12345 C 1140.27 -4.08507 1.27696 0
M  V30 12346 C 1139.6 -5.31292 0.602758 0
M  V30 12347 C 1140.9 -4.50916 2.63575 0
M  V30 12348 H 1142.59 -2.43332 1.74441 0
M  V30 12349 H 1140.14 -1.1695 0.840166 0
M  V30 12350 H 1142.09 -4.21324 0.079928 0
M  V30 12351 H 1140.82 -3.20217 -0.642552 0
M  V30 12352 H 1139.48 -3.3519 1.4847 0
M  V30 12353 H 1139.12 -5.01802 -0.346953 0
M  V30 12354 H 1138.82 -5.74075 1.25345 0
M  V30 12355 H 1140.35 -6.09351 0.390325 0
M  V30 12356 H 1141.76 -5.17474 2.46765 0
M  V30 12357 H 1140.16 -5.04586 3.24827 0
M  V30 12358 H 1141.23 -3.63279 3.2118 0
M  V30 12359 N 1142.57 -0.928524 -1.27343 0
M  V30 12360 C 1143.99 -0.62889 -1.46687 0
M  V30 12361 C 1144.19 0.821592 -1.83989 0
M  V30 12362 O 1143.24 1.59941 -1.95385 0
M  V30 12363 C 1144.56 -1.57947 -2.55878 0
M  V30 12364 C 1146.1 -1.58778 -2.69738 0
M  V30 12365 C 1146.58 -2.52535 -3.82087 0
M  V30 12366 N 1148.07 -2.50747 -3.89462 0
M  V30 12367 C 1148.81 -3.19981 -4.75814 0
M  V30 12368 N 1148.3 -3.98598 -5.66649 0
M  V30 12369 N 1150.09 -3.08996 -4.69551 0
M  V30 12370 H 1142.25 -1.86625 -1.01414 0
M  V30 12371 H 1144.51 -0.801293 -0.50659 0
M  V30 12372 H 1144.21 -2.61427 -2.35264 0
M  V30 12373 H 1144.09 -1.3218 -3.53282 0
M  V30 12374 H 1146.48 -0.560292 -2.89732 0
M  V30 12375 H 1146.56 -1.88594 -1.72817 0
M  V30 12376 H 1146.2 -3.55395 -3.62846 0
M  V30 12377 H 1146.13 -2.20015 -4.78436 0
M  V30 12378 H 1148.62 -1.93651 -3.24511 0
M  V30 12379 H 1148.93 -4.4841 -6.29403 0
M  V30 12380 H 1147.28 -4.02701 -5.66442 0
M  V30 12381 H 1150.47 -2.4707 -3.97585 0
M  V30 12382 H 1150.64 -3.63223 -5.36631 0
M  V30 12383 N 1144.05 1.41491 -0.694123 0
M  V30 12384 C 1145.01 2.2917 -0.0368562 0
M  V30 12385 C 1146.01 1.44305 0.709426 0
M  V30 12386 O 1147.2 1.6547 0.544533 0
M  V30 12387 C 1144.33 3.27156 0.958201 0
M  V30 12388 H 1145.53 2.88787 -0.808829 0
M  V30 12389 H 1143.08 1.49453 -0.457538 0
M  V30 12390 H 1143.82 2.72516 1.75799 0
M  V30 12391 H 1143.6 3.89776 0.426227 0
M  V30 12392 H 1145.09 3.92863 1.41592 0
M  V30 12393 N 1145.53 0.438773 1.51369 0
M  V30 12394 C 1146.75 -0.128221 2.07003 0
M  V30 12395 C 1147.18 -1.3557 1.30393 0
M  V30 12396 O 1146.54 -1.7804 0.342283 0
M  V30 12397 C 1146.58 -0.42761 3.58056 0
M  V30 12398 O 1145.69 -1.51382 3.83611 0
M  V30 12399 H 1145.03 -0.00123679 0.663999 0
M  V30 12400 H 1147.56 0.62052 1.94963 0
M  V30 12401 H 1147.57 -0.677645 4.02333 0
M  V30 12402 H 1146.24 0.469535 4.13241 0
M  V30 12403 H 1144.82 -1.25363 3.51196 0
M  V30 12404 N 1147.01 -1.56678 0.170181 0
M  V30 12405 C 1148.25 -1.96849 -0.475064 0
M  V30 12406 C 1148.58 -1.05611 -1.6333 0
M  V30 12407 O 1147.84 -0.0899708 -1.95493 0
M  V30 12408 C 1148.13 -3.43103 -1.00076 0
M  V30 12409 C 1147.8 -4.50881 0.0414538 0
M  V30 12410 C 1146.46 -4.80082 0.327894 0
M  V30 12411 C 1148.81 -5.15791 0.748936 0
M  V30 12412 C 1146.14 -5.71491 1.32722 0
M  V30 12413 C 1148.49 -6.08278 1.73724 0
M  V30 12414 C 1147.16 -6.35847 2.03114 0
M  V30 12415 H 1146.43 -0.72032 -0.173838 0
M  V30 12416 H 1149.08 -1.89701 0.261903 0
M  V30 12417 H 1147.38 -3.47197 -1.81553 0
M  V30 12418 H 1149.08 -3.71525 -1.50899 0
M  V30 12419 H 1145.67 -4.2817 -0.191976 0
M  V30 12420 H 1149.85 -4.93344 0.540852 0
M  V30 12421 H 1145.11 -5.91134 1.56112 0
M  V30 12422 H 1149.28 -6.57643 2.29082 0
M  V30 12423 H 1146.91 -7.06479 2.80698 0
M  V30 12424 N 1148.48 0.103547 -1.57259 0
M  V30 12425 C 1149.72 0.814289 -1.8748 0
M  V30 12426 C 1150.09 1.76312 -0.760126 0
M  V30 12427 O 1151.29 2.51659 -0.944514 0
M  V30 12428 C 1149.56 1.53119 -3.22938 0
M  V30 12429 S 1151.12 2.28138 -3.74831 0
M  V30 12430 H 1147.94 0.271464 -0.657136 0
M  V30 12431 H 1150.54 0.07183 -1.95368 0
M  V30 12432 H 1149.24 0.826397 -4.01994 0
M  V30 12433 H 1148.77 2.31372 -3.18167 0
M  V30 12434 H 1150.79 3.54132 -3.4757 0
M  V30 12435 N 1149.96 1.53094 0.37415 0
M  V30 12436 C 1150.91 1.75307 1.45779 0
M  V30 12437 C 1151.9 0.607409 1.48994 0
M  V30 12438 O 1153.09 0.865777 1.5438 0
M  V30 12439 C 1150.22 1.93871 2.83318 0
M  V30 12440 C 1149.3 3.14413 2.84614 0
M  V30 12441 N 1149.69 4.36486 2.55565 0
M  V30 12442 C 1147.99 3.14961 3.15778 0
M  V30 12443 C 1148.69 5.18178 2.64322 0
M  V30 12444 N 1147.67 4.54196 2.98675 0
M  V30 12445 H 1151.47 2.67305 1.22169 0
M  V30 12446 H 1148.98 1.51603 0.582254 0
M  V30 12447 H 1150.98 2.0791 3.61357 0
M  V30 12448 H 1149.64 1.03096 3.07898 0
M  V30 12449 H 1150.65 4.64366 2.29314 0
M  V30 12450 H 1147.33 2.34048 3.45728 0
M  V30 12451 H 1148.72 6.25529 2.45282 0
M  V30 12452 N 1151.44 -0.633461 1.44309 0
M  V30 12453 C 1152.37 -1.75676 1.53819 0
M  V30 12454 C 1153.35 -1.65537 0.391365 0
M  V30 12455 O 1154.54 -1.84332 0.611181 0
M  V30 12456 C 1151.67 -3.14197 1.47979 0
M  V30 12457 C 1150.62 -3.39122 2.61113 0
M  V30 12458 C 1149.95 -4.77648 2.40325 0
M  V30 12459 C 1151.25 -3.31914 4.03274 0
M  V30 12460 H 1152.94 -1.67974 2.47841 0
M  V30 12461 H 1150.49 -0.8067 1.19283 0
M  V30 12462 H 1152.44 -3.92553 1.53233 0
M  V30 12463 H 1151.16 -3.22677 0.504718 0
M  V30 12464 H 1149.82 -2.63145 2.55245 0
M  V30 12465 H 1149.47 -4.82829 1.41016 0
M  V30 12466 H 1149.17 -4.95284 3.16177 0
M  V30 12467 H 1150.69 -5.58237 2.47394 0
M  V30 12468 H 1152.11 -4.00178 4.10524 0
M  V30 12469 H 1150.5 -3.61085 4.7931 0
M  V30 12470 H 1151.57 -2.29761 4.2701 0
M  V30 12471 N 1152.92 -1.31168 -0.873655 0
M  V30 12472 C 1153.85 -1.12836 -1.98351 0
M  V30 12473 C 1154.83 -0.0328679 -1.62567 0
M  V30 12474 O 1156.01 -0.18859 -1.87554 0
M  V30 12475 C 1153.14 -0.72332 -3.30886 0
M  V30 12476 C 1152.19 -1.82132 -3.85656 0
M  V30 12477 S 1153.02 -3.42604 -4.11562 0
M  V30 12478 C 1154.18 -3.04028 -5.471 0
M  V30 12479 H 1154.41 -2.06793 -2.13597 0
M  V30 12480 H 1151.94 -1.15611 -1.0234 0
M  V30 12481 H 1153.9 -0.496371 -4.07488 0
M  V30 12482 H 1152.56 0.197077 -3.13481 0
M  V30 12483 H 1151.75 -1.49046 -4.81458 0
M  V30 12484 H 1151.36 -2.00314 -3.15833 0
M  V30 12485 H 1153.65 -2.52692 -6.28612 0
M  V30 12486 H 1154.59 -3.9878 -5.85133 0
M  V30 12487 H 1155 -2.41574 -5.10198 0
M  V30 12488 N 1154.4 1.08748 -1.14068 0
M  V30 12489 C 1155.33 2.17591 -0.84714 0
M  V30 12490 C 1156.31 1.68962 0.196415 0
M  V30 12491 O 1157.49 1.94125 0.0538415 0
M  V30 12492 C 1154.62 3.45823 -0.320005 0
M  V30 12493 C 1153.58 4.07824 -1.2986 0
M  V30 12494 C 1152.9 5.30965 -0.630925 0
M  V30 12495 C 1154.2 4.49512 -2.65963 0
M  V30 12496 H 1155.9 2.42404 -1.75729 0
M  V30 12497 H 1153.44 1.16502 -0.846356 0
M  V30 12498 H 1155.4 4.21276 -0.102271 0
M  V30 12499 H 1154.12 3.20553 0.625561 0
M  V30 12500 H 1152.78 3.34398 -1.50245 0
M  V30 12501 H 1152.43 5.01979 0.320337 0
M  V30 12502 H 1152.13 5.73402 -1.28388 0
M  V30 12503 H 1153.65 6.09136 -0.422635 0
M  V30 12504 H 1155.06 5.16159 -2.49506 0
M  V30 12505 H 1153.46 5.02857 -3.27498 0
M  V30 12506 H 1154.53 3.6157 -3.23102 0
M  V30 12507 N 1155.87 0.935264 1.26849 0
M  V30 12508 C 1156.82 0.411166 2.24262 0
M  V30 12509 C 1157.81 -0.488804 1.53296 0
M  V30 12510 O 1159 -0.325015 1.7399 0
M  V30 12511 C 1156.13 -0.327941 3.4173 0
M  V30 12512 C 1155.22 0.58898 4.1999 0
M  V30 12513 N 1155.61 1.71216 4.7594 0
M  V30 12514 C 1153.9 0.393431 4.44261 0
M  V30 12515 C 1154.61 2.28306 5.35024 0
M  V30 12516 N 1153.58 1.57176 5.20381 0
M  V30 12517 H 1157.38 1.26864 2.65109 0
M  V30 12518 H 1154.9 0.790429 1.41866 0
M  V30 12519 H 1156.89 -0.720404 4.10629 0
M  V30 12520 H 1155.55 -1.18225 3.02412 0
M  V30 12521 H 1156.57 2.09441 4.73661 0
M  V30 12522 H 1153.24 -0.419596 4.15386 0
M  V30 12523 H 1154.63 3.22909 5.89219 0
M  V30 12524 N 1157.35 -1.41121 0.701616 0
M  V30 12525 C 1158.6 -2.01428 0.235495 0
M  V30 12526 C 1158.93 -1.55463 -1.16382 0
M  V30 12527 O 1158.21 -0.768477 -1.78675 0
M  V30 12528 C 1158.49 -3.58849 0.299919 0
M  V30 12529 C 1158.34 -4.14924 1.73661 0
M  V30 12530 C 1159.66 -4.38809 -0.336856 0
M  V30 12531 H 1156.78 -0.731842 0.0870456 0
M  V30 12532 H 1159.42 -1.67787 0.891479 0
M  V30 12533 H 1157.57 -3.87638 -0.258611 0
M  V30 12534 H 1159.24 -3.96987 2.34945 0
M  V30 12535 H 1157.49 -3.69738 2.26884 0
M  V30 12536 H 1158.16 -5.24085 1.73318 0
M  V30 12537 H 1160.63 -4.15868 0.138886 0
M  V30 12538 H 1159.51 -5.48278 -0.261264 0
M  V30 12539 H 1159.77 -4.18728 -1.41843 0
M  V30 12540 N 1158.83 -0.446794 -1.51134 0
M  V30 12541 C 1159.78 0.378002 -2.24845 0
M  V30 12542 C 1160.76 0.982126 -1.27448 0
M  V30 12543 O 1161.96 0.8987 -1.52487 0
M  V30 12544 C 1159.09 1.4733 -3.10079 0
M  V30 12545 C 1158.17 0.878102 -4.1491 0
M  V30 12546 N 1158.56 0.0129452 -5.05798 0
M  V30 12547 C 1156.86 1.14468 -4.3106 0
M  V30 12548 C 1157.56 -0.322333 -5.80806 0
M  V30 12549 N 1156.54 0.296438 -5.42791 0
M  V30 12550 H 1160.34 -0.28885 -2.92477 0
M  V30 12551 H 1157.85 -0.259439 -1.60314 0
M  V30 12552 H 1159.85 2.07713 -3.6147 0
M  V30 12553 H 1158.51 2.14239 -2.43992 0
M  V30 12554 H 1159.52 -0.354177 -5.16688 0
M  V30 12555 H 1156.2 1.81056 -3.76198 0
M  V30 12556 H 1157.59 -1.02693 -6.64006 0
M  V30 12557 N 1160.31 1.56586 -0.178487 0
M  V30 12558 C 1161.55 1.9739 0.465306 0
M  V30 12559 C 1161.89 1.06474 1.6241 0
M  V30 12560 O 1161.16 0.113316 1.9417 0
M  V30 12561 C 1161.45 3.47577 0.941408 0
M  V30 12562 C 1161.3 4.49271 -0.218054 0
M  V30 12563 C 1162.62 4.01038 1.81263 0
M  V30 12564 H 1159.74 0.717676 0.167663 0
M  V30 12565 H 1162.38 1.88128 -0.266067 0
M  V30 12566 H 1160.53 3.556 1.56463 0
M  V30 12567 H 1162.2 4.53301 -0.855332 0
M  V30 12568 H 1160.44 4.24936 -0.872441 0
M  V30 12569 H 1161.11 5.51776 0.157315 0
M  V30 12570 H 1163.59 3.9569 1.28718 0
M  V30 12571 H 1162.47 5.06526 2.11476 0
M  V30 12572 H 1162.73 3.45288 2.76096 0
M  V30 12573 N 1161.79 -0.095206 1.57312 0
M  V30 12574 C 1163.06 -0.830388 1.77099 0
M  V30 12575 C 1163.44 -1.9694 0.760121 0
M  V30 12576 O 1162.79 -2.2752 -0.211403 0
M  V30 12577 C 1163 -1.32507 3.22867 0
M  V30 12578 C 1164.35 -1.7679 3.86045 0
M  V30 12579 O 1165.37 -1.42131 3.26615 0
M  V30 12580 O 1164.23 -2.40876 4.90552 0
M  V30 12581 H 1161.33 -0.396083 0.72598 0
M  V30 12582 H 1163.87 -0.0770965 1.69525 0
M  V30 12583 H 1162.64 -0.508992 3.87975 0
M  V30 12584 H 1162.27 -2.14037 3.35073 0
M  V30 12585 N 1163.26 -1.53291 -0.366026 0
M  V30 12586 C 1164.68 -1.43053 -0.707669 0
M  V30 12587 C 1164.88 -0.56925 -1.93292 0
M  V30 12588 O 1163.94 -0.0515214 -2.52447 0
M  V30 12589 C 1165.25 -2.86239 -0.921292 0
M  V30 12590 C 1166.8 -2.95868 -1.02133 0
M  V30 12591 C 1167.27 -4.40114 -1.26743 0
M  V30 12592 N 1168.76 -4.43541 -1.33514 0
M  V30 12593 C 1169.5 -5.52259 -1.54264 0
M  V30 12594 N 1168.99 -6.71024 -1.72335 0
M  V30 12595 N 1170.79 -5.39836 -1.5663 0
M  V30 12596 H 1162.94 -2.07795 0.43988 0
M  V30 12597 H 1165.2 -0.938376 0.134736 0
M  V30 12598 H 1164.91 -3.51578 -0.0928042 0
M  V30 12599 H 1164.78 -3.29862 -1.82951 0
M  V30 12600 H 1167.17 -2.30683 -1.84036 0
M  V30 12601 H 1167.25 -2.5564 -0.0905097 0
M  V30 12602 H 1166.89 -5.05872 -0.453409 0
M  V30 12603 H 1166.82 -4.77914 -2.21146 0
M  V30 12604 H 1169.31 -3.57949 -1.21165 0
M  V30 12605 H 1169.63 -7.49649 -1.8774 0
M  V30 12606 H 1167.97 -6.7401 -1.69514 0
M  V30 12607 H 1171.16 -4.46017 -1.4208 0
M  V30 12608 H 1171.34 -6.24629 -1.72461 0
M  V30 12609 N 1164.74 0.6258 -1.44643 0
M  V30 12610 C 1166.02 1.38439 -1.38181 0
M  V30 12611 C 1166.4 2.11056 -0.0431928 0
M  V30 12612 O 1165.75 2.06683 0.974383 0
M  V30 12613 C 1165.96 2.34639 -2.58352 0
M  V30 12614 C 1167.31 2.97807 -3.02649 0
M  V30 12615 O 1168.33 2.44963 -2.58595 0
M  V30 12616 O 1167.19 3.93682 -3.79048 0
M  V30 12617 H 1164.28 0.619852 -0.54746 0
M  V30 12618 H 1166.83 0.650409 -1.56741 0
M  V30 12619 H 1165.6 1.80116 -3.47382 0
M  V30 12620 H 1165.22 3.15446 -2.42032 0
M  V30 12621 N 1166.22 1.31629 0.866686 0
M  V30 12622 C 1167.63 1.19347 1.43573 0
M  V30 12623 C 1167.98 -0.198765 1.95191 0
M  V30 12624 O 1167.11 -1.09674 1.86549 0
M  V30 12625 C 1167.7 2.16055 2.6097 0
M  V30 12626 C 1166.26 2.07697 3.13909 0
M  V30 12627 C 1165.41 2.05099 1.86627 0
M  V30 12628 H 1168.36 1.43633 0.674929 0
M  V30 12629 H 1168.38 1.75207 3.37761 0
M  V30 12630 H 1167.89 3.17375 2.23371 0
M  V30 12631 H 1165.99 1.09583 3.56121 0
M  V30 12632 H 1166.11 2.96958 3.75969 0
M  V30 12633 H 1164.47 1.50162 2.05727 0
M  V30 12634 H 1165.25 3.0818 1.51261 0
M  V30 12635 N 1167.7 -1.08142 1.14644 0
M  V30 12636 C 1168.63 -2.15022 0.793614 0
M  V30 12637 C 1169.64 -1.61679 -0.190729 0
M  V30 12638 O 1170.83 -1.78472 0.0313696 0
M  V30 12639 C 1167.93 -3.38532 0.157785 0
M  V30 12640 C 1167.11 -4.21252 1.17753 0
M  V30 12641 C 1166.17 -5.23158 0.564968 0
M  V30 12642 O 1165.19 -5.5578 1.22869 0
M  V30 12643 N 1166.39 -5.7677 -0.657022 0
M  V30 12644 H 1169.16 -2.45893 1.71338 0
M  V30 12645 H 1166.72 -1.23976 1.04122 0
M  V30 12646 H 1168.71 -4.03834 -0.264586 0
M  V30 12647 H 1167.28 -3.05441 -0.665168 0
M  V30 12648 H 1166.5 -3.51888 1.77675 0
M  V30 12649 H 1167.79 -4.73335 1.86632 0
M  V30 12650 H 1167.19 -5.52503 -1.21478 0
M  V30 12651 H 1165.74 -6.4374 -1.02186 0
M  V30 12652 N 1169.18 -0.941978 -1.26351 0
M  V30 12653 C 1170.09 -0.45833 -2.30079 0
M  V30 12654 C 1171.1 0.468084 -1.67586 0
M  V30 12655 O 1172.28 0.347418 -1.98381 0
M  V30 12656 C 1169.34 0.26797 -3.45663 0
M  V30 12657 C 1168.41 -0.695102 -4.23635 0
M  V30 12658 C 1167.64 -0.003369 -5.337 0
M  V30 12659 O 1167.86 1.21342 -5.57344 0
M  V30 12660 O 1166.8 -0.682476 -5.98018 0
M  V30 12661 H 1170.62 -1.31998 -2.73514 0
M  V30 12662 H 1168.21 -0.707897 -1.31564 0
M  V30 12663 H 1170.09 0.677061 -4.15925 0
M  V30 12664 H 1168.76 1.105 -3.04256 0
M  V30 12665 H 1167.67 -1.15415 -3.55851 0
M  V30 12666 H 1169 -1.49977 -4.68794 0
M  V30 12667 N 1170.66 1.40747 -0.709091 0
M  V30 12668 C 1171.59 2.33404 -0.0669763 0
M  V30 12669 C 1172.57 1.52546 0.752582 0
M  V30 12670 O 1173.75 1.81036 0.702823 0
M  V30 12671 C 1170.88 3.36476 0.860285 0
M  V30 12672 C 1169.84 4.27748 0.146828 0
M  V30 12673 C 1169.16 5.21304 1.18937 0
M  V30 12674 C 1170.46 5.12734 -0.995064 0
M  V30 12675 H 1172.16 2.87349 -0.840888 0
M  V30 12676 H 1169.7 1.38163 -0.405817 0
M  V30 12677 H 1171.65 4.00231 1.31883 0
M  V30 12678 H 1170.38 2.80912 1.66602 0
M  V30 12679 H 1169.04 3.65437 -0.291826 0
M  V30 12680 H 1168.69 4.62048 1.98798 0
M  V30 12681 H 1168.39 5.8321 0.716917 0
M  V30 12682 H 1169.91 5.87936 1.64815 0
M  V30 12683 H 1171.32 5.69979 -0.61618 0
M  V30 12684 H 1169.72 5.83649 -1.39547 0
M  V30 12685 H 1170.79 4.49097 -1.82867 0
M  V30 12686 N 1172.13 0.454803 1.50895 0
M  V30 12687 C 1173.38 -0.105927 2.02523 0
M  V30 12688 C 1173.71 -1.40825 1.33724 0
M  V30 12689 O 1172.99 -1.89038 0.457683 0
M  V30 12690 C 1173.27 -0.306635 3.58792 0
M  V30 12691 C 1173.12 1.01556 4.38185 0
M  V30 12692 C 1174.44 -1.06858 4.2693 0
M  V30 12693 H 1171.56 -0.0370232 0.736069 0
M  V30 12694 H 1174.2 0.597215 1.8037 0
M  V30 12695 H 1172.35 -0.905563 3.77799 0
M  V30 12696 H 1174.03 1.64981 4.30789 0
M  V30 12697 H 1172.27 1.61608 4.02574 0
M  V30 12698 H 1172.94 0.828959 5.4574 0
M  V30 12699 H 1175.42 -0.561086 4.123 0
M  V30 12700 H 1174.29 -1.1778 5.36115 0
M  V30 12701 H 1174.55 -2.10111 3.8898 0
M  V30 12702 N 1173.61 -1.56489 0.186789 0
M  V30 12703 C 1174.84 -2.01722 -0.459993 0
M  V30 12704 C 1175.25 -1.06697 -1.5576 0
M  V30 12705 O 1174.61 -0.0704212 -1.82364 0
M  V30 12706 C 1174.66 -3.46693 -1.02401 0
M  V30 12707 O 1174.38 -4.3809 0.0297916 0
M  V30 12708 C 1175.88 -4.07403 -1.7475 0
M  V30 12709 H 1173.1 -0.660845 -0.116298 0
M  V30 12710 H 1175.65 -2.02389 0.293059 0
M  V30 12711 H 1173.8 -3.46752 -1.72749 0
M  V30 12712 H 1174.22 -5.23057 -0.388821 0
M  V30 12713 H 1175.69 -5.10718 -2.09455 0
M  V30 12714 H 1176.17 -3.50383 -2.64818 0
M  V30 12715 H 1176.77 -4.11093 -1.09007 0
M  V30 12716 N 1175.09 0.086862 -1.5736 0
M  V30 12717 C 1176.5 0.640442 -1.75372 0
M  V30 12718 C 1176.85 1.78693 -0.81014 0
M  V30 12719 O 1175.98 2.16398 0.00940712 0
M  V30 12720 C 1176.57 1.16856 -3.1801 0
M  V30 12721 C 1175.13 1.66813 -3.37417 0
M  V30 12722 C 1174.28 0.58116 -2.71142 0
M  V30 12723 H 1177.23 -0.139249 -1.58088 0
M  V30 12724 H 1177.25 2.03772 -3.21337 0
M  V30 12725 H 1176.76 0.333909 -3.86661 0
M  V30 12726 H 1174.86 2.52652 -2.73858 0
M  V30 12727 H 1174.98 1.75545 -4.45781 0
M  V30 12728 H 1173.34 1.0226 -2.3327 0
M  V30 12729 H 1174.12 -0.243047 -3.42439 0
M  V30 12730 N 1176.57 1.53483 0.357892 0
M  V30 12731 C 1177.81 1.70289 1.10134 0
M  V30 12732 C 1178.15 0.457296 1.88739 0
M  V30 12733 O 1177.42 -0.545527 1.86693 0
M  V30 12734 C 1177.7 2.95755 2.05429 0
M  V30 12735 C 1177.56 4.30489 1.30382 0
M  V30 12736 C 1178.88 3.16844 3.05447 0
M  V30 12737 H 1176 0.61965 0.399003 0
M  V30 12738 H 1178.64 1.86133 0.381357 0
M  V30 12739 H 1176.79 2.82377 2.66825 0
M  V30 12740 H 1178.46 4.55692 0.71711 0
M  V30 12741 H 1176.7 4.2955 0.605712 0
M  V30 12742 H 1177.37 5.14427 2.00171 0
M  V30 12743 H 1179.85 3.29458 2.54159 0
M  V30 12744 H 1178.73 4.06053 3.69341 0
M  V30 12745 H 1178.99 2.32476 3.76041 0
M  V30 12746 N 1178.05 -0.61812 1.44973 0
M  V30 12747 C 1178.99 -1.72942 1.52838 0
M  V30 12748 C 1179.96 -1.6181 0.375056 0
M  V30 12749 O 1181.15 -1.81544 0.587075 0
M  V30 12750 C 1178.29 -3.11228 1.49101 0
M  V30 12751 C 1177.4 -3.33243 2.74906 0
M  V30 12752 C 1176.54 -4.61574 2.62912 0
M  V30 12753 C 1175.57 -4.76811 3.8382 0
M  V30 12754 N 1174.71 -5.96432 3.70424 0
M  V30 12755 H 1179.55 -1.65556 2.47781 0
M  V30 12756 H 1177.09 -0.807411 1.2296 0
M  V30 12757 H 1179.05 -3.9122 1.44923 0
M  V30 12758 H 1177.68 -3.17598 0.577163 0
M  V30 12759 H 1176.73 -2.471 2.89216 0
M  V30 12760 H 1178.04 -3.40377 3.64616 0
M  V30 12761 H 1177.19 -5.49746 2.56641 0
M  V30 12762 H 1175.93 -4.5682 1.70784 0
M  V30 12763 H 1174.94 -3.87066 3.90461 0
M  V30 12764 H 1176.16 -4.83371 4.77001 0
M  V30 12765 H 1174.11 -5.92742 2.81057 0
M  V30 12766 H 1174.03 -6.0468 4.5376 0
M  V30 12767 H 1175.29 -6.8713 3.68067 0
M  V30 12768 N 1179.52 -1.32087 -0.859693 0
M  V30 12769 C 1180.77 -1.2236 -1.61351 0
M  V30 12770 C 1181.1 0.215796 -1.93299 0
M  V30 12771 O 1180.35 1.16742 -1.57066 0
M  V30 12772 C 1180.65 -2.0234 -2.94607 0
M  V30 12773 C 1180.32 -3.51746 -2.82109 0
M  V30 12774 C 1178.98 -3.92482 -2.78408 0
M  V30 12775 C 1181.33 -4.46776 -2.68403 0
M  V30 12776 C 1178.66 -5.265 -2.58873 0
M  V30 12777 C 1181.01 -5.80931 -2.50404 0
M  V30 12778 C 1179.68 -6.20875 -2.45092 0
M  V30 12779 H 1178.95 -0.447748 -0.590426 0
M  V30 12780 H 1181.59 -1.63461 -0.997637 0
M  V30 12781 H 1179.9 -1.53952 -3.60286 0
M  V30 12782 H 1181.6 -1.92187 -3.51945 0
M  V30 12783 H 1178.19 -3.19389 -2.85812 0
M  V30 12784 H 1182.37 -4.16228 -2.70311 0
M  V30 12785 H 1177.63 -5.5651 -2.53192 0
M  V30 12786 H 1181.8 -6.54185 -2.38777 0
M  V30 12787 H 1179.43 -7.24662 -2.29714 0
M  V30 12788 N 1181 1.07532 -1.15215 0
M  V30 12789 C 1181.96 2.1286 -0.84989 0
M  V30 12790 C 1182.96 1.60103 0.149524 0
M  V30 12791 O 1184.15 1.74017 -0.0798918 0
M  V30 12792 C 1181.29 3.3984 -0.268617 0
M  V30 12793 H 1182.48 2.41106 -1.78347 0
M  V30 12794 H 1180.03 1.23392 -0.959386 0
M  V30 12795 H 1180.77 3.17235 0.67325 0
M  V30 12796 H 1180.55 3.79433 -0.988592 0
M  V30 12797 H 1182.04 4.17533 -0.0746554 0
M  V30 12798 N 1182.48 0.948665 1.2585 0
M  V30 12799 C 1183.9 0.652147 1.45668 0
M  V30 12800 C 1184.1 -0.792217 1.85273 0
M  V30 12801 O 1183.15 -1.56812 1.97905 0
M  V30 12802 C 1184.47 1.61998 2.53332 0
M  V30 12803 C 1186.01 1.6305 2.67178 0
M  V30 12804 C 1186.49 2.58582 3.78021 0
M  V30 12805 N 1187.98 2.56911 3.85423 0
M  V30 12806 C 1188.71 3.27511 4.70664 0
M  V30 12807 N 1188.21 4.07563 5.60236 0
M  V30 12808 N 1190 3.16427 4.64576 0
M  V30 12809 H 1182.15 1.88215 0.984325 0
M  V30 12810 H 1184.42 0.809251 0.493778 0
M  V30 12811 H 1184.12 2.65137 2.31075 0
M  V30 12812 H 1184 1.37784 3.51134 0
M  V30 12813 H 1186.38 0.606315 2.88804 0
M  V30 12814 H 1186.47 1.9132 1.69795 0
M  V30 12815 H 1186.11 3.61122 3.57146 0
M  V30 12816 H 1186.04 2.27598 4.74875 0
M  V30 12817 H 1188.53 1.9879 3.21389 0
M  V30 12818 H 1188.84 4.58367 6.22189 0
M  V30 12819 H 1187.19 4.11662 5.59964 0
M  V30 12820 H 1190.38 2.53364 3.93604 0
M  V30 12821 H 1190.55 3.71714 5.30785 0
M  V30 12822 N 1183.96 -1.40369 0.716545 0
M  V30 12823 C 1184.89 -2.33365 0.0793533 0
M  V30 12824 C 1185.87 -1.52943 -0.744482 0
M  V30 12825 O 1187.05 -1.81406 -0.693212 0
M  V30 12826 C 1184.18 -3.36928 -0.842429 0
M  V30 12827 C 1183.14 -4.2782 -0.124142 0
M  V30 12828 C 1182.46 -5.21928 -1.1617 0
M  V30 12829 C 1183.76 -5.12199 1.02224 0
M  V30 12830 H 1185.46 -2.86899 0.856115 0
M  V30 12831 H 1183 -1.37946 0.413138 0
M  V30 12832 H 1184.96 -4.00925 -1.29759 0
M  V30 12833 H 1183.68 -2.81791 -1.6511 0
M  V30 12834 H 1182.34 -3.65277 0.311201 0
M  V30 12835 H 1181.99 -4.63096 -1.96345 0
M  V30 12836 H 1181.69 -5.83582 -0.685978 0
M  V30 12837 H 1183.21 -5.88802 -1.61694 0
M  V30 12838 H 1184.63 -5.69644 0.646399 0
M  V30 12839 H 1183.02 -5.82901 1.4264 0
M  V30 12840 H 1184.09 -4.4812 1.85246 0
M  V30 12841 N 1185.44 -0.462799 -1.50652 0
M  V30 12842 C 1186.68 0.0873392 -2.03212 0
M  V30 12843 C 1187.04 1.38147 -1.33915 0
M  V30 12844 O 1186.33 1.86161 -0.453286 0
M  V30 12845 C 1186.52 0.335294 -3.55824 0
M  V30 12846 C 1186.35 -0.933253 -4.3991 0
M  V30 12847 C 1185.12 -1.47417 -4.83318 0
M  V30 12848 C 1187.32 -1.8264 -4.80777 0
M  V30 12849 N 1185.3 -2.6926 -5.51699 0
M  V30 12850 C 1186.67 -2.89075 -5.48485 0
M  V30 12851 C 1188.73 -1.83778 -4.62742 0
M  V30 12852 C 1187.43 -3.96625 -6.00067 0
M  V30 12853 C 1189.46 -2.90279 -5.15259 0
M  V30 12854 C 1188.82 -3.95433 -5.82934 0
M  V30 12855 H 1184.92 -0.00785676 -0.781961 0
M  V30 12856 H 1187.5 -0.629156 -1.84254 0
M  V30 12857 H 1185.67 1.02083 -3.74745 0
M  V30 12858 H 1187.41 0.879039 -3.95038 0
M  V30 12859 H 1184.16 -1.02451 -4.62386 0
M  V30 12860 H 1184.59 -3.31115 -5.90502 0
M  V30 12861 H 1189.23 -1.03802 -4.0986 0
M  V30 12862 H 1186.95 -4.77424 -6.51991 0
M  V30 12863 H 1190.53 -2.92133 -5.0314 0
M  V30 12864 H 1189.41 -4.76487 -6.2284 0
M  V30 12865 N 1186.91 1.56388 -0.195085 0
M  V30 12866 C 1188.14 2.01963 0.449289 0
M  V30 12867 C 1188.56 1.07522 1.55192 0
M  V30 12868 O 1187.91 0.0800915 1.82324 0
M  V30 12869 C 1187.97 3.47231 1.00561 0
M  V30 12870 O 1187.69 4.38068 -0.0530241 0
M  V30 12871 C 1189.19 4.08324 1.72587 0
M  V30 12872 H 1186.41 0.661452 0.112792 0
M  V30 12873 H 1188.95 2.02231 -0.303788 0
M  V30 12874 H 1187.11 3.47663 1.70907 0
M  V30 12875 H 1187.52 5.23256 0.361076 0
M  V30 12876 H 1188.99 5.11821 2.06744 0
M  V30 12877 H 1189.47 3.51782 2.62956 0
M  V30 12878 H 1190.08 4.11665 1.06826 0
M  V30 12879 N 1188.39 -0.0785156 1.57404 0
M  V30 12880 C 1189.3 -1.11203 2.0657 0
M  V30 12881 C 1190.32 -1.42822 0.993872 0
M  V30 12882 O 1191.49 -1.53133 1.30814 0
M  V30 12883 C 1188.56 -2.40812 2.4942 0
M  V30 12884 C 1187.62 -2.16225 3.70871 0
M  V30 12885 C 1186.85 -3.39654 4.11668 0
M  V30 12886 O 1187.08 -4.48521 3.524 0
M  V30 12887 O 1186.01 -3.28263 5.04507 0
M  V30 12888 H 1189.84 -0.724381 2.94935 0
M  V30 12889 H 1187.42 -0.292184 1.46515 0
M  V30 12890 H 1189.3 -3.17101 2.77534 0
M  V30 12891 H 1187.98 -2.7897 1.64187 0
M  V30 12892 H 1186.89 -1.37663 3.4785 0
M  V30 12893 H 1188.22 -1.82951 4.56935 0
M  V30 12894 N 1189.87 -1.5367 -0.349747 0
M  V30 12895 C 1191.12 -1.69835 -1.08807 0
M  V30 12896 C 1191.43 -0.46497 -1.89993 0
M  V30 12897 O 1192.64 -0.507452 -2.66716 0
M  V30 12898 C 1191.09 -3.00294 -1.98372 0
M  V30 12899 C 1190.7 -4.30949 -1.22422 0
M  V30 12900 C 1192.45 -3.25826 -2.72099 0
M  V30 12901 C 1190.35 -5.52486 -2.1098 0
M  V30 12902 H 1189.28 -0.63284 -0.409915 0
M  V30 12903 H 1191.93 -1.80171 -0.347968 0
M  V30 12904 H 1190.32 -2.838 -2.76176 0
M  V30 12905 H 1191.49 -4.58126 -0.495707 0
M  V30 12906 H 1189.81 -4.11983 -0.604896 0
M  V30 12907 H 1192.4 -4.13817 -3.38615 0
M  V30 12908 H 1192.75 -2.42566 -3.3833 0
M  V30 12909 H 1193.28 -3.43067 -2.0137 0
M  V30 12910 H 1190.02 -6.38271 -1.49301 0
M  V30 12911 H 1189.54 -5.29566 -2.81638 0
M  V30 12912 H 1191.22 -5.87889 -2.70176 0
M  V30 12913 N 1191.35 0.610423 -1.45298 0
M  V30 12914 C 1192.76 1.19234 -1.43667 0
M  V30 12915 C 1193.11 1.95523 -0.162794 0
M  V30 12916 O 1192.24 2.03507 0.735789 0
M  V30 12917 C 1192.83 2.16892 -2.60276 0
M  V30 12918 C 1191.39 2.70465 -2.61774 0
M  V30 12919 C 1190.54 1.45821 -2.35863 0
M  V30 12920 H 1193.49 0.399895 -1.53579 0
M  V30 12921 H 1193.51 2.99875 -2.34212 0
M  V30 12922 H 1193.02 1.61339 -3.52975 0
M  V30 12923 H 1191.12 3.29965 -1.73072 0
M  V30 12924 H 1191.23 3.15092 -3.60907 0
M  V30 12925 H 1189.6 1.74678 -1.85364 0
M  V30 12926 H 1190.38 0.921403 -3.30704 0
M  V30 12927 N 1192.83 1.32541 0.852676 0
M  V30 12928 C 1194.05 1.2622 1.6394 0
M  V30 12929 C 1194.47 -0.169455 1.88038 0
M  V30 12930 O 1193.83 -1.10719 1.45078 0
M  V30 12931 C 1193.88 2.02062 2.99755 0
M  V30 12932 O 1193.6 3.39641 2.76723 0
M  V30 12933 C 1195.1 2.02787 3.94198 0
M  V30 12934 H 1192.32 0.435405 0.510552 0
M  V30 12935 H 1194.86 1.74696 1.06309 0
M  V30 12936 H 1193.02 1.57303 3.54026 0
M  V30 12937 H 1193.43 3.78484 3.63111 0
M  V30 12938 H 1194.91 2.60333 4.86755 0
M  V30 12939 H 1195.38 1.01464 4.27319 0
M  V30 12940 H 1195.99 2.47504 3.45864 0
M  V30 12941 N 1194.3 -1.0692 1.15784 0
M  V30 12942 C 1195.27 -2.12407 0.861167 0
M  V30 12943 C 1196.27 -1.6018 -0.141031 0
M  V30 12944 O 1197.46 -1.73972 0.0891192 0
M  V30 12945 C 1194.59 -3.39693 0.286636 0
M  V30 12946 H 1195.78 -2.40157 1.79623 0
M  V30 12947 H 1193.34 -1.22881 0.965916 0
M  V30 12948 H 1194.07 -3.17587 -0.656417 0
M  V30 12949 H 1193.86 -3.78903 1.0087 0
M  V30 12950 H 1195.35 -4.17488 0.0967971 0
M  V30 12951 N 1195.78 -0.955326 -1.25345 0
M  V30 12952 C 1197.03 -0.606149 -1.92377 0
M  V30 12953 C 1197.34 0.860927 -1.75634 0
M  V30 12954 O 1198.55 1.3201 -2.37246 0
M  V30 12955 C 1197.01 -1.03341 -3.44744 0
M  V30 12956 C 1196.61 -2.52308 -3.70196 0
M  V30 12957 C 1198.36 -0.756797 -4.17699 0
M  V30 12958 C 1196.27 -2.88831 -5.16072 0
M  V30 12959 H 1195.2 -0.222994 -0.720271 0
M  V30 12960 H 1197.85 -1.15987 -1.42194 0
M  V30 12961 H 1196.23 -0.408096 -3.93892 0
M  V30 12962 H 1197.4 -3.19864 -3.31698 0
M  V30 12963 H 1195.72 -2.77448 -3.10502 0
M  V30 12964 H 1198.31 -1.00583 -5.25154 0
M  V30 12965 H 1198.66 0.306794 -4.15168 0
M  V30 12966 H 1199.19 -1.34249 -3.74462 0
M  V30 12967 H 1195.93 -3.9421 -5.23716 0
M  V30 12968 H 1195.45 -2.25948 -5.55614 0
M  V30 12969 H 1197.13 -2.78061 -5.84201 0
M  V30 12970 N 1197.26 1.39987 -0.723979 0
M  V30 12971 C 1198.49 2.05037 -0.27702 0
M  V30 12972 C 1198.9 1.54565 1.08421 0
M  V30 12973 O 1198.26 0.705795 1.683 0
M  V30 12974 C 1198.31 3.60582 -0.25751 0
M  V30 12975 O 1198.03 4.09194 -1.565 0
M  V30 12976 C 1199.53 4.42817 0.206972 0
M  V30 12977 H 1196.75 0.659637 -0.122963 0
M  V30 12978 H 1199.3 1.7924 -0.98454 0
M  V30 12979 H 1197.45 3.85319 0.401037 0
M  V30 12980 H 1197.87 5.03447 -1.47112 0
M  V30 12981 H 1199.34 5.5174 0.16947 0
M  V30 12982 H 1199.82 4.21023 1.25045 0
M  V30 12983 H 1200.42 4.23205 -0.421604 0
M  V30 12984 N 1198.74 0.470782 1.50404 0
M  V30 12985 C 1199.99 -0.0859981 2.01517 0
M  V30 12986 C 1200.3 -1.40811 1.35763 0
M  V30 12987 O 1201.51 -2.04982 1.7803 0
M  V30 12988 C 1199.96 -0.203773 3.59323 0
M  V30 12989 C 1199.57 1.10989 4.34034 0
M  V30 12990 C 1201.32 -0.712528 4.18477 0
M  V30 12991 C 1199.22 0.955928 5.83623 0
M  V30 12992 H 1198.15 -0.0359142 0.753144 0
M  V30 12993 H 1200.8 0.605631 1.73218 0
M  V30 12994 H 1199.19 -0.959177 3.84208 0
M  V30 12995 H 1200.36 1.87623 4.20873 0
M  V30 12996 H 1198.67 1.54973 3.86487 0
M  V30 12997 H 1201.27 -0.844745 5.27985 0
M  V30 12998 H 1201.61 -1.70377 3.79838 0
M  V30 12999 H 1202.15 -0.0145179 3.97797 0
M  V30 13000 H 1198.89 1.92054 6.26734 0
M  V30 13001 H 1198.41 0.22997 5.99359 0
M  V30 13002 H 1200.09 0.622423 6.43999 0
M  V30 13003 N 1200.22 -1.56282 0.203376 0
M  V30 13004 C 1201.16 -2.19473 -0.714164 0
M  V30 13005 C 1202.13 -1.14454 -1.20372 0
M  V30 13006 O 1203.32 -1.42739 -1.26611 0
M  V30 13007 C 1200.46 -2.86451 -1.92457 0
M  V30 13008 C 1199.57 -4.06017 -1.47561 0
M  V30 13009 C 1198.71 -4.60829 -2.64216 0
M  V30 13010 C 1197.75 -5.72734 -2.15967 0
M  V30 13011 N 1196.88 -6.21916 -3.25829 0
M  V30 13012 H 1201.72 -2.97523 -0.168558 0
M  V30 13013 H 1199.26 -1.46926 -0.0714525 0
M  V30 13014 H 1201.22 -3.23459 -2.63496 0
M  V30 13015 H 1199.85 -2.10951 -2.44335 0
M  V30 13016 H 1198.9 -3.74617 -0.660784 0
M  V30 13017 H 1200.21 -4.8693 -1.08168 0
M  V30 13018 H 1199.37 -5.00185 -3.43366 0
M  V30 13019 H 1198.11 -3.7904 -3.06887 0
M  V30 13020 H 1197.11 -5.32899 -1.35273 0
M  V30 13021 H 1198.34 -6.56346 -1.74316 0
M  V30 13022 H 1196.28 -5.43047 -3.68016 0
M  V30 13023 H 1196.2 -6.97904 -2.90631 0
M  V30 13024 H 1197.47 -6.65927 -4.05168 0
M  V30 13025 N 1201.7 0.070167 -1.57444 0
M  V30 13026 C 1202.97 0.802108 -1.78397 0
M  V30 13027 C 1203.35 1.95706 -0.791356 0
M  V30 13028 O 1202.7 2.27827 0.17518 0
M  V30 13029 C 1202.91 1.27354 -3.24934 0
M  V30 13030 C 1204.26 1.70626 -3.88808 0
M  V30 13031 O 1205.28 1.36916 -3.28835 0
M  V30 13032 O 1204.14 2.33041 -4.94322 0
M  V30 13033 H 1201.24 0.384483 -0.73219 0
M  V30 13034 H 1203.78 0.0501168 -1.69626 0
M  V30 13035 H 1202.55 0.447204 -3.88736 0
M  V30 13036 H 1202.18 2.0868 -3.38435 0
M  V30 13037 N 1203.17 1.53854 0.341593 0
M  V30 13038 C 1204.4 1.7488 1.10002 0
M  V30 13039 C 1204.81 0.488802 1.82777 0
M  V30 13040 O 1204.15 -0.549333 1.75294 0
M  V30 13041 C 1204.22 2.87604 2.15694 0
M  V30 13042 C 1203.88 4.27142 1.62477 0
M  V30 13043 C 1204.88 5.08642 1.07606 0
M  V30 13044 C 1202.56 4.73633 1.67265 0
M  V30 13045 C 1204.56 6.34735 0.582284 0
M  V30 13046 C 1202.24 5.99697 1.175 0
M  V30 13047 C 1203.24 6.80081 0.630742 0
M  V30 13048 O 1202.93 8.03777 0.140519 0
M  V30 13049 H 1202.66 0.587824 0.333824 0
M  V30 13050 H 1205.22 2.01488 0.398965 0
M  V30 13051 H 1203.45 2.56526 2.89364 0
M  V30 13052 H 1205.13 2.96583 2.77117 0
M  V30 13053 H 1205.9 4.73887 1.03227 0
M  V30 13054 H 1201.78 4.11121 2.08567 0
M  V30 13055 H 1205.32 6.97424 0.156811 0
M  V30 13056 H 1201.22 6.33947 1.21579 0
M  V30 13057 H 1201.99 8.18094 0.257626 0
M  V30 13058 N 1204.65 -0.602709 1.4562 0
M  V30 13059 C 1205.93 -1.36224 1.40366 0
M  V30 13060 C 1206.31 -2.1096 0.0767645 0
M  V30 13061 O 1205.66 -2.08207 -0.941378 0
M  V30 13062 C 1205.87 -2.30499 2.62052 0
M  V30 13063 C 1207.21 -2.92954 3.07348 0
M  V30 13064 O 1208.24 -2.40818 2.62459 0
M  V30 13065 O 1207.1 -3.87601 3.85263 0
M  V30 13066 H 1204.19 -0.611064 0.557253 0
M  V30 13067 H 1206.74 -0.625391 1.57756 0
M  V30 13068 H 1205.51 -1.74566 3.50203 0
M  V30 13069 H 1205.13 -3.11556 2.4702 0
M  V30 13070 N 1206.13 -1.32992 -0.845635 0
M  V30 13071 C 1207.35 -1.27231 -1.6379 0
M  V30 13072 C 1207.78 0.155141 -1.87459 0
M  V30 13073 O 1207.14 1.10953 -1.43384 0
M  V30 13074 C 1207.19 -2.04629 -2.96916 0
M  V30 13075 O 1206.29 -1.40027 -3.879 0
M  V30 13076 H 1205.63 -0.438045 -0.499011 0
M  V30 13077 H 1208.16 -1.75448 -1.05257 0
M  V30 13078 H 1208.17 -2.15141 -3.46667 0
M  V30 13079 H 1206.85 -3.08425 -2.79011 0
M  V30 13080 H 1205.42 -1.38118 -3.46378 0
M  V30 13081 N 1207.61 1.06304 -1.1635 0
M  V30 13082 C 1208.56 2.15879 -0.865967 0
M  V30 13083 C 1209.55 1.68595 0.164929 0
M  V30 13084 O 1210.76 1.7999 0.0189271 0
M  V30 13085 H 1207.13 0.704721 -0.262435 0
M  V30 13086 H 1209.1 2.38185 -1.79751 0
M  V30 13087 C 1207.85 3.4558 -0.383374 0
M  V30 13088 H 1207.17 3.82356 -1.16806 0
M  V30 13089 H 1208.61 4.2346 -0.213964 0
M  V30 13090 C 1207.07 3.24738 0.897044 0
M  V30 13091 O 1207.6 3.50284 1.96632 0
M  V30 13092 N 1205.81 2.78172 0.840761 0
M  V30 13093 H 1205.36 2.57583 -0.029584 0
M  V30 13094 H 1205.31 2.64606 1.69797 0
M  V30 13095 N 1209.09 0.96196 1.24836 0
M  V30 13096 C 1210.02 0.506241 2.27946 0
M  V30 13097 C 1211 -0.451183 1.64007 0
M  V30 13098 O 1212.18 -0.348552 1.91046 0
M  V30 13099 C 1209.31 -0.209846 3.46665 0
M  V30 13100 C 1208.27 0.663035 4.22833 0
M  V30 13101 C 1207.59 -0.184216 5.34383 0
M  V30 13102 C 1208.89 1.94479 4.84742 0
M  V30 13103 H 1210.59 1.36805 2.66317 0
M  V30 13104 H 1208.13 0.65926 1.28023 0
M  V30 13105 H 1210.08 -0.539838 4.17928 0
M  V30 13106 H 1208.81 -1.10596 3.07305 0
M  V30 13107 H 1207.47 0.976216 3.53363 0
M  V30 13108 H 1207.12 -1.08031 4.91262 0
M  V30 13109 H 1206.82 0.39657 5.8626 0
M  V30 13110 H 1208.34 -0.509009 6.08475 0
M  V30 13111 H 1209.75 1.68074 5.48109 0
M  V30 13112 H 1208.15 2.47183 5.46828 0
M  V30 13113 H 1209.22 2.64332 4.06517 0
M  V30 13114 N 1210.56 -1.39601 0.731392 0
M  V30 13115 C 1211.51 -2.32469 0.0781328 0
M  V30 13116 C 1212.51 -1.52873 -0.729811 0
M  V30 13117 O 1213.71 -1.68563 -0.631402 0
M  V30 13118 H 1210.09 -0.751972 0.00646515 0
M  V30 13119 H 1212.06 -2.85196 0.877833 0
M  V30 13120 C 1210.81 -3.37948 -0.817717 0
M  V30 13121 H 1210.13 -3.99272 -0.205417 0
M  V30 13122 H 1211.57 -4.05387 -1.24248 0
M  V30 13123 C 1210.03 -2.74703 -1.95038 0
M  V30 13124 O 1210.56 -2.62266 -3.04269 0
M  V30 13125 N 1208.76 -2.32845 -1.73872 0
M  V30 13126 H 1208.31 -2.43161 -0.850321 0
M  V30 13127 H 1208.27 -1.90869 -2.49833 0
M  V30 13128 N 1212.04 -0.478751 -1.50152 0
M  V30 13129 C 1213.01 0.300181 -2.27226 0
M  V30 13130 C 1214.01 0.913705 -1.32318 0
M  V30 13131 O 1215.2 0.781692 -1.55677 0
M  V30 13132 C 1212.33 1.42838 -3.09532 0
M  V30 13133 H 1213.52 -0.375845 -2.97536 0
M  V30 13134 H 1211.07 -0.233037 -1.54553 0
M  V30 13135 H 1211.81 2.13923 -2.43737 0
M  V30 13136 H 1211.59 0.994161 -3.79287 0
M  V30 13137 H 1213.08 1.97765 -3.67802 0
M  V30 13138 N 1213.52 1.56172 -0.211661 0
M  V30 13139 C 1214.75 2.02874 0.430905 0
M  V30 13140 C 1215.17 1.09064 1.53254 0
M  V30 13141 O 1214.53 0.0770408 1.81136 0
M  V30 13142 C 1214.58 3.4789 0.948933 0
M  V30 13143 O 1213.68 3.57213 2.0609 0
M  V30 13144 H 1213.02 0.656614 0.0987607 0
M  V30 13145 H 1215.55 2.01964 -0.327399 0
M  V30 13146 H 1215.56 3.88015 1.2613 0
M  V30 13147 H 1214.24 4.15656 0.142584 0
M  V30 13148 H 1212.81 3.28971 1.75592 0
M  V30 13149 N 1215 -0.0618163 1.57479 0
M  V30 13150 C 1216.41 -0.416827 1.54061 0
M  V30 13151 C 1216.61 -1.78584 0.933277 0
M  V30 13152 O 1215.67 -2.46656 0.54009 0
M  V30 13153 C 1216.98 -0.348728 2.98671 0
M  V30 13154 C 1218.53 -0.428194 3.10057 0
M  V30 13155 C 1219.01 -0.389898 4.56337 0
M  V30 13156 N 1220.5 -0.449677 4.61012 0
M  V30 13157 C 1221.23 -0.442418 5.71691 0
M  V30 13158 N 1220.73 -0.389381 6.91705 0
M  V30 13159 N 1222.52 -0.489719 5.59963 0
M  V30 13160 H 1214.67 0.834487 1.9532 0
M  V30 13161 H 1216.94 0.314149 0.894435 0
M  V30 13162 H 1216.64 0.590738 3.46703 0
M  V30 13163 H 1216.52 -1.15511 3.59078 0
M  V30 13164 H 1218.9 -1.35808 2.61992 0
M  V30 13165 H 1218.98 0.406946 2.52542 0
M  V30 13166 H 1218.63 0.536186 5.05062 0
M  V30 13167 H 1218.56 -1.24271 5.11727 0
M  V30 13168 H 1221.05 -0.49451 3.74651 0
M  V30 13169 H 1221.36 -0.388042 7.71825 0
M  V30 13170 H 1219.71 -0.355918 6.94088 0
M  V30 13171 H 1222.9 -0.528915 4.65102 0
M  V30 13172 H 1223.07 -0.480592 6.46215 0
M  V30 13173 N 1216.48 -1.54033 -0.333429 0
M  V30 13174 C 1217.75 -1.62404 -1.09015 0
M  V30 13175 C 1218.13 -0.451653 -2.06212 0
M  V30 13176 O 1217.48 0.555086 -2.21655 0
M  V30 13177 C 1217.69 -2.98949 -1.80085 0
M  V30 13178 C 1219.04 -3.54655 -2.33464 0
M  V30 13179 O 1220.06 -3.0119 -1.90166 0
M  V30 13180 O 1218.92 -4.48195 -3.12703 0
M  V30 13181 H 1216.02 -0.65727 -0.501921 0
M  V30 13182 H 1218.56 -1.66378 -0.33411 0
M  V30 13183 H 1217.33 -3.75716 -1.09332 0
M  V30 13184 H 1216.96 -2.98609 -2.62523 0
M  V30 13185 N 1217.95 0.594978 -1.45938 0
M  V30 13186 C 1219.23 1.35477 -1.41086 0
M  V30 13187 C 1219.61 2.10917 -0.0879512 0
M  V30 13188 O 1218.96 2.08704 0.930323 0
M  V30 13189 C 1219.17 2.29106 -2.63271 0
M  V30 13190 C 1220.52 2.9132 -3.08898 0
M  V30 13191 O 1221.54 2.39423 -2.63733 0
M  V30 13192 O 1220.4 3.85553 -3.87313 0
M  V30 13193 H 1217.49 0.6081 -0.560485 0
M  V30 13194 H 1220.04 0.617016 -1.58085 0
M  V30 13195 H 1218.81 1.72707 -3.51124 0
M  V30 13196 H 1218.44 3.10241 -2.48669 0
M  V30 13197 N 1219.43 1.33438 0.838571 0
M  V30 13198 C 1220.38 1.23717 1.94841 0
M  V30 13199 C 1221.35 0.11573 1.65696 0
M  V30 13200 O 1222.53 0.294051 1.8852 0
M  V30 13201 C 1219.67 0.982626 3.30815 0
M  V30 13202 C 1218.79 2.19036 3.72354 0
M  V30 13203 C 1217.92 1.86995 4.97199 0
M  V30 13204 C 1216.96 3.03998 5.31274 0
M  V30 13205 N 1216.1 2.71943 6.47295 0
M  V30 13206 H 1220.94 2.18639 2.02487 0
M  V30 13207 H 1218.48 1.08721 0.990861 0
M  V30 13208 H 1220.43 0.81548 4.09152 0
M  V30 13209 H 1219.06 0.0701443 3.22724 0
M  V30 13210 H 1218.12 2.46724 2.89537 0
M  V30 13211 H 1219.43 3.06505 3.93518 0
M  V30 13212 H 1218.58 1.66925 5.83285 0
M  V30 13213 H 1217.32 0.967628 4.78004 0
M  V30 13214 H 1216.33 3.24681 4.43692 0
M  V30 13215 H 1217.55 3.94985 5.52416 0
M  V30 13216 H 1215.5 1.8427 6.29588 0
M  V30 13217 H 1215.41 3.52943 6.68556 0
M  V30 13218 H 1216.68 2.55342 7.36492 0
M  V30 13219 N 1220.91 -1.05686 1.16912 0
M  V30 13220 C 1221.86 -2.13312 0.88129 0
M  V30 13221 C 1222.83 -1.65199 -0.172783 0
M  V30 13222 O 1224.01 -1.90765 -0.0366542 0
M  V30 13223 C 1221.15 -3.42829 0.395264 0
M  V30 13224 C 1220.27 -4.04643 1.51288 0
M  V30 13225 C 1219.4 -5.22059 0.981238 0
M  V30 13226 C 1218.44 -5.75869 2.07464 0
M  V30 13227 N 1217.58 -6.84592 1.55813 0
M  V30 13228 H 1222.42 -2.37271 1.80295 0
M  V30 13229 H 1219.95 -1.16407 0.899322 0
M  V30 13230 H 1221.91 -4.17092 0.0950633 0
M  V30 13231 H 1220.54 -3.19068 -0.489445 0
M  V30 13232 H 1219.59 -3.27867 1.92891 0
M  V30 13233 H 1220.91 -4.40626 2.33774 0
M  V30 13234 H 1220.06 -6.03372 0.634586 0
M  V30 13235 H 1218.8 -4.87538 0.125754 0
M  V30 13236 H 1217.8 -4.93188 2.42992 0
M  V30 13237 H 1219.03 -6.12439 2.93419 0
M  V30 13238 H 1216.97 -6.51978 0.725283 0
M  V30 13239 H 1216.89 -7.19551 2.31911 0
M  V30 13240 H 1218.16 -7.6957 1.24025 0
M  V30 13241 N 1222.39 -0.968567 -1.24324 0
M  V30 13242 C 1223.34 -0.491346 -2.27351 0
M  V30 13243 C 1224.33 0.445563 -1.63435 0
M  V30 13244 O 1225.54 0.320758 -1.77119 0
M  V30 13245 H 1221.91 -0.14043 -0.738772 0
M  V30 13246 H 1223.88 -1.37224 -2.64976 0
M  V30 13247 C 1222.63 0.202093 -3.47112 0
M  V30 13248 H 1221.95 -0.50973 -3.96537 0
M  V30 13249 H 1223.39 0.499815 -4.21044 0
M  V30 13250 C 1221.85 1.42937 -3.05075 0
M  V30 13251 O 1222.38 2.52635 -3.12312 0
M  V30 13252 N 1220.59 1.29572 -2.60114 0
M  V30 13253 H 1220.14 0.403169 -2.54425 0
M  V30 13254 H 1220.09 2.118 -2.32353 0
M  V30 13255 N 1223.87 1.39211 -0.738786 0
M  V30 13256 C 1224.81 2.30578 -0.10129 0
M  V30 13257 C 1225.78 1.49412 0.725616 0
M  V30 13258 O 1226.97 1.78087 0.684799 0
M  V30 13259 C 1224.11 3.35767 0.797161 0
M  V30 13260 C 1223.22 4.31979 -0.0427701 0
M  V30 13261 C 1222.36 5.24236 0.857306 0
M  V30 13262 C 1221.4 6.12099 0.0128501 0
M  V30 13263 N 1220.53 6.96701 0.869067 0
M  V30 13264 H 1225.37 2.84522 -0.88606 0
M  V30 13265 H 1222.91 1.40093 -0.448602 0
M  V30 13266 H 1224.87 3.95347 1.33255 0
M  V30 13267 H 1223.5 2.83268 1.54787 0
M  V30 13268 H 1222.55 3.73986 -0.695622 0
M  V30 13269 H 1223.86 4.93927 -0.69555 0
M  V30 13270 H 1223.02 5.88861 1.4604 0
M  V30 13271 H 1221.75 4.62619 1.54386 0
M  V30 13272 H 1220.76 5.46483 -0.603018 0
M  V30 13273 H 1221.98 6.75781 -0.67054 0
M  V30 13274 H 1219.93 6.37647 1.54084 0
M  V30 13275 H 1219.85 7.55507 0.272852 0
M  V30 13276 H 1221.12 7.65751 1.4576 0
M  V30 13277 N 1225.34 0.486708 1.49896 0
M  V30 13278 C 1226.59 -0.062852 2.02402 0
M  V30 13279 C 1226.92 -1.38306 1.36754 0
M  V30 13280 O 1226.17 -1.89531 0.487493 0
M  V30 13281 C 1226.47 -0.278643 3.56312 0
M  V30 13282 C 1226.14 0.961794 4.40523 0
M  V30 13283 C 1224.8 1.30185 4.63255 0
M  V30 13284 C 1227.15 1.78697 4.89609 0
M  V30 13285 C 1224.48 2.46686 5.32318 0
M  V30 13286 C 1226.83 2.9434 5.59953 0
M  V30 13287 C 1225.5 3.28742 5.80935 0
M  V30 13288 H 1224.77 -0.0229992 0.740643 0
M  V30 13289 H 1227.41 0.643963 1.80348 0
M  V30 13290 H 1225.72 -1.06785 3.76967 0
M  V30 13291 H 1227.42 -0.718078 3.94518 0
M  V30 13292 H 1224.01 0.686887 4.2306 0
M  V30 13293 H 1228.19 1.53742 4.71887 0
M  V30 13294 H 1223.45 2.73596 5.46768 0
M  V30 13295 H 1227.62 3.58616 5.96965 0
M  V30 13296 H 1225.25 4.19121 6.34225 0
M  V30 13297 N 1226.82 -1.56058 0.219941 0
M  V30 13298 C 1227.79 -2.18964 -0.677303 0
M  V30 13299 C 1228.79 -1.15105 -1.12283 0
M  V30 13300 O 1229.98 -1.40348 -1.03189 0
M  V30 13301 C 1227.11 -2.81167 -1.92764 0
M  V30 13302 H 1228.3 -2.99623 -0.128877 0
M  V30 13303 H 1225.85 -1.56272 -0.0296744 0
M  V30 13304 H 1226.59 -2.04374 -2.51797 0
M  V30 13305 H 1226.37 -3.5722 -1.61666 0
M  V30 13306 H 1227.86 -3.29391 -2.56693 0
M  V30 13307 N 1228.3 0.053464 -1.57509 0
M  V30 13308 C 1229.25 1.08014 -2.05999 0
M  V30 13309 C 1230.24 1.38958 -0.968862 0
M  V30 13310 O 1231.45 1.3815 -1.15389 0
M  V30 13311 H 1227.82 0.36575 -0.657062 0
M  V30 13312 H 1229.8 0.645169 -2.91342 0
M  V30 13313 C 1228.54 2.38004 -2.53475 0
M  V30 13314 H 1227.87 2.15048 -3.37038 0
M  V30 13315 H 1229.31 3.08244 -2.91138 0
M  V30 13316 C 1227.77 3.05259 -1.42543 0
M  V30 13317 O 1228.3 3.94097 -0.777832 0
M  V30 13318 N 1226.5 2.66182 -1.16599 0
M  V30 13319 H 1226.05 1.94027 -1.69444 0
M  V30 13320 H 1226.01 3.11503 -0.42585 0
M  V30 13321 N 1229.78 1.54207 0.325255 0
M  V30 13322 C 1231.01 1.76293 1.08298 0
M  V30 13323 C 1231.42 0.510722 1.81761 0
M  V30 13324 O 1230.78 -0.5185 1.7498 0
M  V30 13325 C 1230.83 2.95498 2.08238 0
M  V30 13326 O 1230.55 4.15877 1.37759 0
M  V30 13327 C 1232.05 3.29781 2.96242 0
M  V30 13328 H 1229.27 0.588576 0.322209 0
M  V30 13329 H 1231.82 2.0109 0.371896 0
M  V30 13330 H 1229.97 2.72979 2.74884 0
M  V30 13331 H 1230.39 4.82918 2.04672 0
M  V30 13332 H 1231.86 4.16495 3.62265 0
M  V30 13333 H 1232.34 2.46874 3.63249 0
M  V30 13334 H 1232.94 3.54372 2.3516 0
M  V30 13335 N 1231.26 -0.58723 1.46251 0
M  V30 13336 C 1232.19 -1.71113 1.50982 0
M  V30 13337 C 1233.17 -1.58466 0.364322 0
M  V30 13338 O 1234.35 -1.79745 0.567812 0
M  V30 13339 C 1231.48 -3.09128 1.38411 0
M  V30 13340 C 1230.53 -3.40308 2.57085 0
M  V30 13341 S 1231.36 -3.32881 4.19464 0
M  V30 13342 C 1232.51 -4.73441 4.09395 0
M  V30 13343 H 1232.75 -1.66841 2.46072 0
M  V30 13344 H 1230.28 -0.765598 1.34082 0
M  V30 13345 H 1232.24 -3.88751 1.31846 0
M  V30 13346 H 1230.9 -3.10895 0.447567 0
M  V30 13347 H 1230.09 -4.40849 2.4427 0
M  V30 13348 H 1229.69 -2.68244 2.60617 0
M  V30 13349 H 1231.99 -5.63723 3.75796 0
M  V30 13350 H 1232.93 -4.91313 5.09919 0
M  V30 13351 H 1233.34 -4.50079 3.40719 0
M  V30 13352 N 1232.74 -1.33881 -0.831482 0
M  V30 13353 C 1233.65 -1.26802 -1.97379 0
M  V30 13354 C 1234.66 -0.177233 -1.73095 0
M  V30 13355 O 1235.84 -0.402163 -1.97344 0
M  V30 13356 C 1232.9 -1.01474 -3.31517 0
M  V30 13357 C 1231.96 -2.19626 -3.68867 0
M  V30 13358 C 1231.2 -1.95497 -4.96605 0
M  V30 13359 O 1231.42 -0.908948 -5.63111 0
M  V30 13360 O 1230.35 -2.82226 -5.31632 0
M  V30 13361 H 1234.18 -2.22883 -2.06293 0
M  V30 13362 H 1231.76 -1.14001 -0.965613 0
M  V30 13363 H 1233.65 -0.890954 -4.11874 0
M  V30 13364 H 1232.32 -0.0842656 -3.2359 0
M  V30 13365 H 1231.23 -2.37561 -2.88991 0
M  V30 13366 H 1232.56 -3.11034 -3.81469 0
M  V30 13367 N 1234.21 1.05064 -1.1747 0
M  V30 13368 C 1235.46 1.78089 -0.963883 0
M  V30 13369 C 1235.79 1.87766 0.507365 0
M  V30 13370 O 1235.04 1.37477 1.39279 0
M  V30 13371 C 1235.34 3.21961 -1.55164 0
M  V30 13372 C 1235.01 3.32339 -3.04732 0
M  V30 13373 C 1233.67 3.34878 -3.45557 0
M  V30 13374 C 1236.02 3.3325 -4.00741 0
M  V30 13375 C 1233.35 3.35959 -4.80987 0
M  V30 13376 C 1235.7 3.3587 -5.36073 0
M  V30 13377 C 1234.37 3.36697 -5.7636 0
M  V30 13378 H 1233.64 0.651672 -0.35271 0
M  V30 13379 H 1236.28 1.23471 -1.4638 0
M  V30 13380 H 1234.59 3.79514 -0.973471 0
M  V30 13381 H 1236.29 3.77087 -1.36406 0
M  V30 13382 H 1232.88 3.31076 -2.72188 0
M  V30 13383 H 1237.06 3.30488 -3.70258 0
M  V30 13384 H 1232.32 3.34911 -5.11512 0
M  V30 13385 H 1236.49 3.35524 -6.10243 0
M  V30 13386 H 1234.12 3.37288 -6.81279 0
M  V30 13387 N 1235.69 0.975146 1.23809 0
M  V30 13388 C 1236.94 0.642074 1.92367 0
M  V30 13389 C 1237.27 -0.82164 1.75962 0
M  V30 13390 O 1236.55 -1.59205 1.11732 0
M  V30 13391 C 1236.83 1.02677 3.45151 0
M  V30 13392 C 1236.68 2.54773 3.7069 0
M  V30 13393 C 1238 0.5668 4.36435 0
M  V30 13394 H 1235.12 0.234735 0.698619 0
M  V30 13395 H 1237.76 1.21549 1.46034 0
M  V30 13396 H 1235.91 0.538846 3.84745 0
M  V30 13397 H 1237.58 3.11099 3.4061 0
M  V30 13398 H 1235.83 2.97641 3.15583 0
M  V30 13399 H 1236.5 2.7674 4.77618 0
M  V30 13400 H 1238.97 0.985635 4.04258 0
M  V30 13401 H 1237.85 0.864458 5.4205 0
M  V30 13402 H 1238.11 -0.532989 4.38875 0
M  V30 13403 N 1237.17 -1.38817 0.746158 0
M  V30 13404 C 1238.08 -2.34316 0.115386 0
M  V30 13405 C 1239.1 -1.58892 -0.709179 0
M  V30 13406 O 1240.27 -1.91126 -0.635059 0
M  V30 13407 C 1237.34 -3.37977 -0.772821 0
M  V30 13408 C 1236.4 -4.2925 0.0652679 0
M  V30 13409 C 1235.63 -5.2796 -0.78064 0
M  V30 13410 O 1235.85 -5.33474 -2.01896 0
M  V30 13411 O 1234.79 -6.01556 -0.20338 0
M  V30 13412 H 1238.61 -2.89937 0.903887 0
M  V30 13413 H 1236.2 -1.40536 0.506958 0
M  V30 13414 H 1238.08 -4.01468 -1.28068 0
M  V30 13415 H 1236.76 -2.84723 -1.53994 0
M  V30 13416 H 1235.66 -3.68945 0.61891 0
M  V30 13417 H 1237 -4.85739 0.794871 0
M  V30 13418 N 1238.65 -0.49465 -1.49636 0
M  V30 13419 C 1239.92 0.114829 -1.95263 0
M  V30 13420 C 1240.3 1.54739 -1.43593 0
M  V30 13421 O 1239.65 2.1915 -0.646953 0
M  V30 13422 C 1239.86 0.0339912 -3.48983 0
M  V30 13423 C 1241.21 0.211108 -4.24075 0
M  V30 13424 O 1242.23 0.109478 -3.56032 0
M  V30 13425 O 1241.09 0.418971 -5.44892 0
M  V30 13426 H 1238.19 0.0987883 -0.821078 0
M  V30 13427 H 1240.73 -0.556736 -1.60308 0
M  V30 13428 H 1239.51 -0.965287 -3.79207 0
M  V30 13429 H 1239.13 0.745982 -3.90539 0
M  V30 13430 N 1240.13 1.55939 -0.228214 0
M  V30 13431 C 1241.36 2.02576 0.405759 0
M  V30 13432 C 1241.76 1.10718 1.53422 0
M  V30 13433 O 1241.11 0.110361 1.83368 0
M  V30 13434 C 1241.17 3.45531 0.992405 0
M  V30 13435 C 1240.83 4.57 -0.00144674 0
M  V30 13436 C 1241.83 5.13642 -0.804248 0
M  V30 13437 C 1239.51 5.02152 -0.12213 0
M  V30 13438 C 1241.51 6.13912 -1.71437 0
M  V30 13439 C 1239.2 6.02258 -1.03578 0
M  V30 13440 C 1240.19 6.58015 -1.83044 0
M  V30 13441 O 1239.88 7.56172 -2.72872 0
M  V30 13442 H 1239.61 0.668136 0.102813 0
M  V30 13443 H 1242.17 2.02497 -0.344092 0
M  V30 13444 H 1240.4 3.427 1.79147 0
M  V30 13445 H 1242.09 3.75777 1.53448 0
M  V30 13446 H 1242.85 4.79603 -0.721497 0
M  V30 13447 H 1238.73 4.58428 0.486294 0
M  V30 13448 H 1242.28 6.57359 -2.33506 0
M  V30 13449 H 1238.17 6.35718 -1.11952 0
M  V30 13450 H 1238.94 7.73719 -2.67022 0
M  V30 13451 N 1241.6 -0.0451101 1.57535 0
M  V30 13452 C 1242.53 -1.05046 2.08537 0
M  V30 13453 C 1243.52 -1.3872 0.984418 0
M  V30 13454 O 1244.7 -1.47884 1.25873 0
M  V30 13455 C 1241.83 -2.3562 2.55148 0
M  V30 13456 C 1240.78 -2.16231 3.69362 0
M  V30 13457 C 1240.11 -3.52423 4.02122 0
M  V30 13458 C 1241.41 -1.56159 4.98409 0
M  V30 13459 H 1243.1 -0.625965 2.92783 0
M  V30 13460 H 1240.65 -0.299657 1.40848 0
M  V30 13461 H 1242.6 -3.06266 2.89446 0
M  V30 13462 H 1241.33 -2.80099 1.67964 0
M  V30 13463 H 1239.99 -1.4802 3.35389 0
M  V30 13464 H 1239.63 -3.94522 3.12028 0
M  V30 13465 H 1239.33 -3.4028 4.79044 0
M  V30 13466 H 1240.86 -4.24458 4.38939 0
M  V30 13467 H 1242.27 -2.16703 5.30766 0
M  V30 13468 H 1240.67 -1.54638 5.79834 0
M  V30 13469 H 1241.74 -0.525698 4.82042 0
M  V30 13470 N 1243.08 -1.54377 -0.317073 0
M  V30 13471 C 1244.03 -1.84948 -1.41057 0
M  V30 13472 C 1245.02 -0.721887 -1.53249 0
M  V30 13473 O 1246.23 -0.905648 -1.55557 0
M  V30 13474 H 1242.61 -0.586353 -0.470844 0
M  V30 13475 H 1244.58 -2.7638 -1.12501 0
M  V30 13476 C 1243.33 -2.09932 -2.77171 0
M  V30 13477 H 1242.65 -2.96162 -2.68566 0
M  V30 13478 H 1244.09 -2.35272 -3.52737 0
M  V30 13479 C 1242.55 -0.892855 -3.24853 0
M  V30 13480 O 1243.08 -0.105336 -4.01562 0
M  V30 13481 N 1241.28 -0.702685 -2.81976 0
M  V30 13482 H 1240.83 -1.34474 -2.19715 0
M  V30 13483 H 1240.79 0.103024 -3.14231 0
M  V30 13484 N 1244.56 0.579466 -1.4656 0
M  V30 13485 C 1245.51 1.70937 -1.57744 0
M  V30 13486 C 1246.5 1.6343 -0.44577 0
M  V30 13487 O 1247.71 1.68884 -0.622762 0
M  V30 13488 H 1244.08 0.565218 -0.496017 0
M  V30 13489 H 1246.05 1.58636 -2.52739 0
M  V30 13490 C 1244.8 3.09321 -1.58794 0
M  V30 13491 H 1244.13 3.1577 -2.45213 0
M  V30 13492 H 1245.57 3.88132 -1.70674 0
M  V30 13493 C 1244.03 3.35404 -0.317165 0
M  V30 13494 O 1244.56 3.97325 0.591228 0
M  V30 13495 N 1242.76 2.89883 -0.204071 0
M  V30 13496 H 1242.31 2.39672 -0.944194 0
M  V30 13497 H 1242.27 3.07706 0.645303 0
M  V30 13498 N 1246.04 1.3432 0.824371 0
M  V30 13499 C 1247.28 1.26783 1.58284 0
M  V30 13500 C 1247.62 -0.162282 1.93521 0
M  V30 13501 O 1246.89 -1.1073 1.59903 0
M  V30 13502 C 1247.18 2.15725 2.88331 0
M  V30 13503 C 1247.03 3.67266 2.59684 0
M  V30 13504 C 1248.35 2.04141 3.8989 0
M  V30 13505 H 1245.47 0.461893 0.574303 0
M  V30 13506 H 1248.11 1.64558 0.949769 0
M  V30 13507 H 1246.26 1.83639 3.42358 0
M  V30 13508 H 1247.93 4.09711 2.11978 0
M  V30 13509 H 1246.17 3.88426 1.93151 0
M  V30 13510 H 1246.84 4.24863 3.52414 0
M  V30 13511 H 1249.32 2.3231 3.45212 0
M  V30 13512 H 1248.2 2.68601 4.7869 0
M  V30 13513 H 1248.46 1.01795 4.30221 0
M  V30 13514 N 1247.52 -1.0444 1.18026 0
M  V30 13515 C 1248.76 -1.77838 0.974756 0
M  V30 13516 C 1249.1 -1.87792 -0.494755 0
M  V30 13517 O 1248.37 -1.38327 -1.36733 0
M  V30 13518 C 1248.65 -3.21315 1.62569 0
M  V30 13519 C 1248.51 -3.19327 3.16781 0
M  V30 13520 C 1249.83 -4.19337 1.33583 0
M  V30 13521 H 1246.94 -0.645575 0.35553 0
M  V30 13522 H 1249.59 -1.22023 1.45638 0
M  V30 13523 H 1247.74 -3.68974 1.21617 0
M  V30 13524 H 1249.41 -2.79687 3.66842 0
M  V30 13525 H 1247.65 -2.57461 3.49137 0
M  V30 13526 H 1248.32 -4.20626 3.5746 0
M  V30 13527 H 1250.8 -3.80208 1.69059 0
M  V30 13528 H 1249.67 -5.17953 1.81702 0
M  V30 13529 H 1249.94 -4.41346 0.258016 0
M  V30 13530 N 1248.99 -0.981699 -1.2329 0
M  V30 13531 C 1250.22 -0.669025 -1.96313 0
M  V30 13532 C 1250.64 0.757624 -1.72168 0
M  V30 13533 O 1250 1.51626 -0.993942 0
M  V30 13534 C 1250.05 -0.966875 -3.47396 0
M  V30 13535 O 1249.15 -0.0595933 -4.12357 0
M  V30 13536 H 1248.5 -0.251493 -0.61453 0
M  V30 13537 H 1251.03 -1.31564 -1.56691 0
M  V30 13538 H 1251.04 -0.904112 -3.97857 0
M  V30 13539 H 1249.71 -2.00651 -3.64296 0
M  V30 13540 H 1248.29 -0.176878 -3.7248 0
M  V30 13541 N 1250.47 1.3842 -0.753509 0
M  V30 13542 C 1251.38 2.34252 -0.127811 0
M  V30 13543 C 1252.4 1.59266 0.700743 0
M  V30 13544 O 1253.57 1.9146 0.624914 0
M  V30 13545 C 1250.64 3.38382 0.754886 0
M  V30 13546 C 1249.7 4.2921 -0.0880312 0
M  V30 13547 C 1248.93 5.28367 0.75263 0
M  V30 13548 O 1249.16 5.34537 1.99064 0
M  V30 13549 O 1248.09 6.01656 0.171475 0
M  V30 13550 H 1251.92 2.89454 -0.91925 0
M  V30 13551 H 1249.5 1.40265 -0.514404 0
M  V30 13552 H 1251.38 4.02141 1.25938 0
M  V30 13553 H 1250.06 2.85536 1.52482 0
M  V30 13554 H 1248.97 3.68611 -0.638468 0
M  V30 13555 H 1250.3 4.85311 -0.82062 0
M  V30 13556 N 1251.95 0.502579 1.49372 0
M  V30 13557 C 1252.91 -0.263993 2.27675 0
M  V30 13558 C 1253.91 -0.892538 1.33755 0
M  V30 13559 O 1255.1 -0.756826 1.56901 0
M  V30 13560 C 1252.24 -1.37895 3.11765 0
M  V30 13561 H 1253.43 0.423132 2.969 0
M  V30 13562 H 1250.98 0.257595 1.54163 0
M  V30 13563 H 1251.72 -2.10018 2.47109 0
M  V30 13564 H 1251.5 -0.933694 3.80821 0
M  V30 13565 H 1252.99 -1.91889 3.70902 0
M  V30 13566 N 1253.43 -1.55816 0.23648 0
M  V30 13567 C 1254.67 -1.98981 -0.391725 0
M  V30 13568 C 1255.01 -1.12428 -1.58346 0
M  V30 13569 O 1254.28 -0.185303 -1.93615 0
M  V30 13570 C 1254.57 -3.50831 -0.811759 0
M  V30 13571 C 1254.42 -4.48152 0.384648 0
M  V30 13572 C 1255.74 -4.07489 -1.66254 0
M  V30 13573 H 1252.86 -0.723404 -0.140911 0
M  V30 13574 H 1255.5 -1.87011 0.335706 0
M  V30 13575 H 1253.65 -3.61162 -1.43157 0
M  V30 13576 H 1255.32 -4.49814 1.02298 0
M  V30 13577 H 1253.56 -4.21406 1.02955 0
M  V30 13578 H 1254.23 -5.51979 0.0475809 0
M  V30 13579 H 1256.71 -4.00195 -1.13944 0
M  V30 13580 H 1255.59 -5.14026 -1.92531 0
M  V30 13581 H 1255.85 -3.55297 -2.6309 0
M  V30 13582 N 1254.91 0.036755 -1.57557 0
M  V30 13583 C 1256.32 0.584324 -1.7732 0
M  V30 13584 C 1256.67 1.76025 -0.86658 0
M  V30 13585 O 1255.79 2.16318 -0.059443 0
M  V30 13586 C 1256.39 1.06679 -3.21566 0
M  V30 13587 C 1254.95 1.55994 -3.42553 0
M  V30 13588 C 1254.09 0.494604 -2.72853 0
M  V30 13589 H 1257.05 -0.189473 -1.57565 0
M  V30 13590 H 1257.07 1.93446 -3.27657 0
M  V30 13591 H 1256.58 0.210727 -3.87527 0
M  V30 13592 H 1254.68 2.43811 -2.81757 0
M  V30 13593 H 1254.79 1.61274 -4.5114 0
M  V30 13594 H 1253.16 0.947865 -2.36406 0
M  V30 13595 H 1253.94 -0.351868 -3.41492 0
M  V30 13596 N 1256.39 1.54543 0.308881 0
M  V30 13597 C 1257.63 1.73449 1.04506 0
M  V30 13598 C 1257.96 0.516034 1.8753 0
M  V30 13599 O 1257.22 -0.502106 1.89149 0
M  V30 13600 C 1257.51 2.97124 1.98626 0
M  V30 13601 C 1257.18 4.31256 1.31641 0
M  V30 13602 C 1255.84 4.67719 1.13105 0
M  V30 13603 C 1258.19 5.14437 0.836888 0
M  V30 13604 C 1255.52 5.84949 0.452878 0
M  V30 13605 C 1257.87 6.32365 0.172473 0
M  V30 13606 C 1256.54 6.67495 -0.0249143 0
M  V30 13607 H 1255.81 0.634697 0.382415 0
M  V30 13608 H 1258.46 1.88795 0.320714 0
M  V30 13609 H 1256.76 2.76526 2.77562 0
M  V30 13610 H 1258.46 3.08946 2.55643 0
M  V30 13611 H 1255.05 4.02576 1.47074 0
M  V30 13612 H 1259.23 4.86772 0.967834 0
M  V30 13613 H 1254.49 6.10717 0.288886 0
M  V30 13614 H 1258.66 6.96092 -0.207027 0
M  V30 13615 H 1256.29 7.5819 -0.552425 0
M  V30 13616 N 1257.86 -0.571685 1.46866 0
M  V30 13617 C 1258.83 -1.66198 1.57832 0
M  V30 13618 C 1259.83 -1.54242 0.454547 0
M  V30 13619 O 1261.02 -1.58661 0.719191 0
M  V30 13620 C 1258.15 -3.05678 1.5091 0
M  V30 13621 H 1259.34 -1.57829 2.5501 0
M  V30 13622 H 1256.89 -0.790433 1.3484 0
M  V30 13623 H 1257.63 -3.19593 0.550529 0
M  V30 13624 H 1257.41 -3.15765 2.32454 0
M  V30 13625 H 1258.9 -3.85027 1.61692 0
M  V30 13626 N 1259.34 -1.34755 -0.817236 0
M  V30 13627 C 1260.29 -1.26816 -1.94988 0
M  V30 13628 C 1261.28 -0.165142 -1.68593 0
M  V30 13629 O 1262.49 -0.330469 -1.7694 0
M  V30 13630 H 1258.86 -0.394113 -0.640452 0
M  V30 13631 H 1260.84 -2.22528 -1.98806 0
M  V30 13632 C 1259.58 -1.04625 -3.31586 0
M  V30 13633 H 1258.91 -1.88735 -3.52447 0
M  V30 13634 H 1260.35 -1.03108 -4.11272 0
M  V30 13635 C 1258.81 0.250283 -3.35969 0
M  V30 13636 O 1259.34 1.24972 -3.81765 0
M  V30 13637 N 1257.54 0.285369 -2.89195 0
M  V30 13638 H 1257.09 -0.528528 -2.5212 0
M  V30 13639 H 1257.05 1.15261 -2.9251 0
M  V30 13640 N 1260.82 1.03812 -1.18578 0
M  V30 13641 C 1261.73 2.15371 -0.930182 0
M  V30 13642 C 1262.75 1.73673 0.106599 0
M  V30 13643 O 1263.92 2.01257 -0.0759054 0
M  V30 13644 C 1260.99 3.43606 -0.462151 0
M  V30 13645 C 1260.05 3.99671 -1.5672 0
M  V30 13646 C 1259.28 5.21785 -1.12141 0
M  V30 13647 O 1259.5 5.70397 0.0188357 0
M  V30 13648 O 1258.44 5.70449 -1.9202 0
M  V30 13649 H 1262.26 2.39791 -1.86371 0
M  V30 13650 H 1259.85 1.13814 -0.967819 0
M  V30 13651 H 1261.73 4.2088 -0.20934 0
M  V30 13652 H 1260.41 3.20654 0.443052 0
M  V30 13653 H 1259.31 3.23774 -1.87406 0
M  V30 13654 H 1260.65 4.2697 -2.44862 0
M  V30 13655 N 1262.3 0.988223 1.22768 0
M  V30 13656 C 1263.21 0.543407 2.2822 0
M  V30 13657 C 1264.22 -0.405563 1.69208 0
M  V30 13658 O 1265.4 -0.273551 1.99534 0
M  V30 13659 C 1262.46 -0.139495 3.46419 0
M  V30 13660 C 1261.53 0.851853 4.20764 0
M  V30 13661 C 1260.76 0.201446 5.3332 0
M  V30 13662 O 1260.98 -1.00573 5.61464 0
M  V30 13663 O 1259.92 0.903956 5.95073 0
M  V30 13664 H 1263.74 1.42059 2.68427 0
M  V30 13665 H 1261.33 0.756239 1.28846 0
M  V30 13666 H 1263.21 -0.522226 4.18152 0
M  V30 13667 H 1261.88 -0.991315 3.08147 0
M  V30 13668 H 1260.79 1.28543 3.51322 0
M  V30 13669 H 1262.12 1.67273 4.62905 0
M  V30 13670 N 1263.78 -1.38018 0.760839 0
M  V30 13671 C 1264.72 -2.30387 0.13796 0
M  V30 13672 C 1265.69 -1.50548 -0.701754 0
M  V30 13673 O 1266.88 -1.79154 -0.656381 0
M  V30 13674 C 1264.02 -3.36993 -0.743642 0
M  V30 13675 C 1263.13 -4.31856 0.111489 0
M  V30 13676 C 1262.27 -5.25534 -0.773796 0
M  V30 13677 C 1261.3 -6.12042 0.0845311 0
M  V30 13678 N 1260.44 -6.97995 -0.758118 0
M  V30 13679 H 1265.28 -2.83077 0.931212 0
M  V30 13680 H 1262.82 -1.39361 0.470833 0
M  V30 13681 H 1264.78 -3.97417 -1.26948 0
M  V30 13682 H 1263.41 -2.85695 -1.50261 0
M  V30 13683 H 1262.46 -3.72832 0.755031 0
M  V30 13684 H 1263.77 -4.92758 0.774042 0
M  V30 13685 H 1262.92 -5.9111 -1.36653 0
M  V30 13686 H 1261.66 -4.65017 -1.47006 0
M  V30 13687 H 1260.67 -5.45455 0.689883 0
M  V30 13688 H 1261.89 -6.74629 0.777966 0
M  V30 13689 H 1259.84 -6.40018 -1.4392 0
M  V30 13690 H 1259.76 -7.55846 -0.152623 0
M  V30 13691 H 1261.02 -7.67973 -1.33559 0
M  V30 13692 N 1265.25 -0.510493 -1.49103 0
M  V30 13693 C 1266.2 0.276449 -2.30951 0
M  V30 13694 C 1267.2 0.953893 -1.3999 0
M  V30 13695 O 1268.4 0.880499 -1.56994 0
M  V30 13696 H 1264.78 0.108013 -0.744202 0
M  V30 13697 H 1266.75 -0.433725 -2.95231 0
M  V30 13698 C 1265.5 1.32234 -3.21573 0
M  V30 13699 H 1264.82 0.810468 -3.91499 0
M  V30 13700 H 1266.26 1.84476 -3.81765 0
M  V30 13701 C 1264.72 2.3456 -2.41833 0
M  V30 13702 O 1265.25 3.40627 -2.12922 0
M  V30 13703 N 1263.45 2.07272 -2.03682 0
M  V30 13704 H 1263 1.21036 -2.27394 0
M  V30 13705 H 1262.96 2.75963 -1.50638 0
M  V30 13706 N 1266.73 1.55688 -0.24474 0
M  V30 13707 C 1267.68 2.21289 0.655723 0
M  V30 13708 C 1268.65 1.17606 1.17295 0
M  V30 13709 O 1269.83 1.46045 1.22782 0
M  V30 13710 C 1266.97 2.91453 1.84794 0
M  V30 13711 C 1266.09 4.09787 1.36744 0
M  V30 13712 C 1265.22 4.67672 2.51905 0
M  V30 13713 C 1264.26 5.78259 2.00706 0
M  V30 13714 N 1263.4 6.30336 3.09225 0
M  V30 13715 H 1268.24 2.97865 0.0896156 0
M  V30 13716 H 1265.77 1.47064 0.0324725 0
M  V30 13717 H 1267.73 3.30331 2.54828 0
M  V30 13718 H 1266.36 2.17355 2.38656 0
M  V30 13719 H 1265.41 3.76237 0.561228 0
M  V30 13720 H 1266.73 4.89627 0.952199 0
M  V30 13721 H 1265.88 5.09113 3.29984 0
M  V30 13722 H 1264.62 3.87044 2.9673 0
M  V30 13723 H 1263.62 5.36298 1.21097 0
M  V30 13724 H 1264.85 6.60737 1.56853 0
M  V30 13725 H 1262.8 5.52614 3.53489 0
M  V30 13726 H 1262.71 7.05364 2.72025 0
M  V30 13727 H 1263.98 6.76435 3.8737 0
M  V30 13728 N 1268.21 -0.0283989 1.57574 0
M  V30 13729 C 1269.14 -1.02828 2.09639 0
M  V30 13730 C 1270.12 -1.37668 0.999076 0
M  V30 13731 O 1271.31 -1.4654 1.27435 0
M  V30 13732 C 1268.44 -2.329 2.57633 0
M  V30 13733 C 1267.39 -2.12301 3.71635 0
M  V30 13734 C 1266.72 -3.48138 4.05837 0
M  V30 13735 C 1268.02 -1.50864 5.00037 0
M  V30 13736 H 1269.71 -0.594876 2.93431 0
M  V30 13737 H 1267.26 -0.284701 1.41158 0
M  V30 13738 H 1269.21 -3.03179 2.92678 0
M  V30 13739 H 1267.93 -2.78302 1.70926 0
M  V30 13740 H 1266.59 -1.44454 3.3694 0
M  V30 13741 H 1266.24 -3.9119 3.16195 0
M  V30 13742 H 1265.94 -3.3518 4.82626 0
M  V30 13743 H 1267.46 -4.19779 4.43417 0
M  V30 13744 H 1268.88 -2.11062 5.33035 0
M  V30 13745 H 1267.27 -1.48479 5.81441 0
M  V30 13746 H 1268.34 -0.474541 4.82572 0
M  V30 13747 N 1269.69 -1.54705 -0.300681 0
M  V30 13748 C 1270.92 -1.77993 -1.0548 0
M  V30 13749 C 1271.33 -0.539574 -1.80926 0
M  V30 13750 O 1270.69 0.490597 -1.75782 0
M  V30 13751 C 1270.74 -2.98774 -2.0351 0
M  V30 13752 O 1270.46 -4.18016 -1.31126 0
M  V30 13753 C 1271.96 -3.34452 -2.90958 0
M  V30 13754 H 1269.18 -0.593628 -0.312805 0
M  V30 13755 H 1271.72 -2.01656 -0.339858 0
M  V30 13756 H 1269.88 -2.77318 -2.70506 0
M  V30 13757 H 1270.29 -4.86113 -1.96963 0
M  V30 13758 H 1271.77 -4.22206 -3.55593 0
M  V30 13759 H 1272.24 -2.52622 -3.59275 0
M  V30 13760 H 1272.85 -3.58069 -2.29493 0
M  V30 13761 N 1271.17 0.563888 -1.47167 0
M  V30 13762 C 1272.41 1.32136 -1.53448 0
M  V30 13763 C 1272.74 1.9353 -0.19396 0
M  V30 13764 O 1272 1.78038 0.812456 0
M  V30 13765 C 1272.3 2.45678 -2.59571 0
M  V30 13766 C 1271.96 2.02157 -4.03043 0
M  V30 13767 C 1270.62 1.90003 -4.421 0
M  V30 13768 C 1272.98 1.68846 -4.93093 0
M  V30 13769 C 1270.3 1.42825 -5.6905 0
M  V30 13770 C 1272.66 1.2314 -6.20499 0
M  V30 13771 C 1271.32 1.09578 -6.58444 0
M  V30 13772 H 1270.59 0.483519 -0.561507 0
M  V30 13773 H 1273.24 0.633042 -1.80734 0
M  V30 13774 H 1271.54 3.20037 -2.26017 0
M  V30 13775 H 1273.24 3.03871 -2.61655 0
M  V30 13776 H 1269.83 2.12557 -3.7218 0
M  V30 13777 H 1274.01 1.77111 -4.63622 0
M  V30 13778 H 1269.27 1.30983 -5.97205 0
M  V30 13779 H 1273.44 0.964247 -6.89692 0
M  V30 13780 H 1271.07 0.727975 -7.56706 0
M  V30 13781 N 1272.64 1.35187 0.810078 0
M  V30 13782 C 1273.55 1.29926 1.95337 0
M  V30 13783 C 1274.57 0.204748 1.72791 0
M  V30 13784 O 1275.75 0.433507 1.96679 0
M  V30 13785 C 1272.81 1.06736 3.29861 0
M  V30 13786 C 1271.87 2.25466 3.65326 0
M  V30 13787 C 1271.11 2.03373 4.93432 0
M  V30 13788 O 1271.33 0.998419 5.61594 0
M  V30 13789 O 1270.26 2.90648 5.27075 0
M  V30 13790 H 1274.09 2.26137 2.02721 0
M  V30 13791 H 1271.67 1.15523 0.947354 0
M  V30 13792 H 1273.56 0.956367 4.10404 0
M  V30 13793 H 1272.23 0.135735 3.23415 0
M  V30 13794 H 1271.14 2.42129 2.85175 0
M  V30 13795 H 1272.47 3.17063 3.76473 0
M  V30 13796 N 1274.12 -1.03182 1.19127 0
M  V30 13797 C 1275.37 -1.76794 0.993563 0
M  V30 13798 C 1275.7 -1.88306 -0.474809 0
M  V30 13799 O 1274.98 -1.39769 -1.35258 0
M  V30 13800 C 1275.26 -3.19573 1.65968 0
M  V30 13801 C 1275.11 -3.1595 3.2015 0
M  V30 13802 C 1276.43 -4.17897 1.38023 0
M  V30 13803 H 1273.55 -0.641768 0.362357 0
M  V30 13804 H 1276.19 -1.20472 1.46924 0
M  V30 13805 H 1274.34 -3.67663 1.25524 0
M  V30 13806 H 1276.01 -2.7578 3.69788 0
M  V30 13807 H 1274.26 -2.53743 3.51848 0
M  V30 13808 H 1274.93 -4.16811 3.61901 0
M  V30 13809 H 1277.4 -3.78394 1.73082 0
M  V30 13810 H 1276.28 -5.15997 1.87186 0
M  V30 13811 H 1276.54 -4.41048 0.304812 0
M  V30 13812 N 1275.6 -0.99472 -1.22242 0
M  V30 13813 C 1276.85 -0.672596 -1.91322 0
M  V30 13814 C 1277.18 0.793542 -1.77247 0
M  V30 13815 O 1276.45 1.57407 -1.14251 0
M  V30 13816 C 1276.74 -1.08155 -3.43474 0
M  V30 13817 C 1276.59 -2.60638 -3.6659 0
M  V30 13818 C 1277.91 -0.636161 -4.35478 0
M  V30 13819 H 1275.03 -0.24582 -0.694796 0
M  V30 13820 H 1277.67 -1.23857 -1.44082 0
M  V30 13821 H 1275.82 -0.599987 -3.83839 0
M  V30 13822 H 1277.49 -3.16479 -3.35617 0
M  V30 13823 H 1275.74 -3.02624 -3.10808 0
M  V30 13824 H 1276.41 -2.84304 -4.73155 0
M  V30 13825 H 1278.88 -1.04982 -4.02639 0
M  V30 13826 H 1277.76 -0.950584 -5.40606 0
M  V30 13827 H 1278.02 0.4631 -4.39668 0
M  V30 13828 N 1277.08 1.37613 -0.768148 0
M  V30 13829 C 1278.3 2.04579 -0.340892 0
M  V30 13830 C 1278.73 1.57556 1.02751 0
M  V30 13831 O 1278.09 0.734151 1.65771 0
M  V30 13832 C 1278.13 3.58495 -0.389099 0
M  V30 13833 O 1277.24 4.07838 0.611741 0
M  V30 13834 H 1276.58 0.647246 -0.148216 0
M  V30 13835 H 1279.11 1.75999 -1.04333 0
M  V30 13836 H 1279.12 4.07263 -0.245116 0
M  V30 13837 H 1277.79 3.92076 -1.38742 0
M  V30 13838 H 1276.37 3.70399 0.431173 0
M  V30 13839 N 1278.56 0.518393 1.4883 0
M  V30 13840 C 1279.49 -0.239685 2.32267 0
M  V30 13841 C 1280.47 -0.94613 1.41359 0
M  V30 13842 O 1281.65 -0.934162 1.70256 0
M  V30 13843 C 1278.78 -1.29411 3.22289 0
M  V30 13844 C 1277.74 -0.706504 4.22129 0
M  V30 13845 C 1277.06 -1.86273 5.01205 0
M  V30 13846 C 1278.36 0.314079 5.21355 0
M  V30 13847 H 1280.06 0.4568 2.95895 0
M  V30 13848 H 1277.6 0.221126 1.42292 0
M  V30 13849 H 1279.56 -1.8323 3.7948 0
M  V30 13850 H 1278.28 -2.02001 2.56638 0
M  V30 13851 H 1276.94 -0.189924 3.66108 0
M  V30 13852 H 1276.59 -2.57674 4.31988 0
M  V30 13853 H 1276.29 -1.47554 5.68772 0
M  V30 13854 H 1277.81 -2.40492 5.61245 0
M  V30 13855 H 1279.22 -0.136604 5.73137 0
M  V30 13856 H 1277.62 0.618026 5.96909 0
M  V30 13857 H 1278.69 1.22394 4.69199 0
M  V30 13858 N 1280.03 -1.55556 0.252993 0
M  V30 13859 C 1281 -2.20351 -0.630705 0
M  V30 13860 C 1282 -1.17461 -1.09816 0
M  V30 13861 O 1283.19 -1.42505 -1.00189 0
M  V30 13862 C 1280.32 -2.85192 -1.86757 0
M  V30 13863 H 1281.51 -2.99829 -0.0652939 0
M  V30 13864 H 1279.07 -1.563 0.00347982 0
M  V30 13865 H 1279.8 -2.09669 -2.47406 0
M  V30 13866 H 1279.59 -3.60569 -1.54053 0
M  V30 13867 H 1281.08 -3.34762 -2.49648 0
M  V30 13868 N 1281.51 0.0200419 -1.57587 0
M  V30 13869 C 1282.46 1.0259 -2.03615 0
M  V30 13870 C 1283.45 1.31504 -0.927116 0
M  V30 13871 O 1284.64 1.30938 -1.19098 0
M  V30 13872 C 1281.77 2.32424 -2.52654 0
M  V30 13873 C 1280.85 2.06561 -3.70396 0
M  V30 13874 N 1281.24 1.50787 -4.82801 0
M  V30 13875 C 1279.54 2.36802 -3.77943 0
M  V30 13876 C 1280.24 1.40935 -5.64369 0
M  V30 13877 N 1279.22 1.88806 -5.09758 0
M  V30 13878 H 1283.02 0.588835 -2.87941 0
M  V30 13879 H 1280.54 0.226163 -1.60817 0
M  V30 13880 H 1282.53 3.05303 -2.83894 0
M  V30 13881 H 1281.19 2.76801 -1.69738 0
M  V30 13882 H 1282.2 1.18935 -5.04058 0
M  V30 13883 H 1278.88 2.84192 -3.05845 0
M  V30 13884 H 1280.27 0.982261 -6.64681 0
M  V30 13885 N 1282.99 1.54862 0.292472 0
M  V30 13886 C 1283.94 1.87168 1.38097 0
M  V30 13887 C 1284.93 0.746176 1.52081 0
M  V30 13888 O 1286.14 0.930281 1.54097 0
M  V30 13889 H 1282.51 0.593769 0.461456 0
M  V30 13890 H 1284.48 2.78135 1.0809 0
M  V30 13891 C 1283.23 2.14315 2.73796 0
M  V30 13892 H 1282.56 3.00398 2.63821 0
M  V30 13893 H 1284 2.40853 3.48949 0
M  V30 13894 C 1282.46 0.944424 3.23392 0
M  V30 13895 O 1282.99 0.169208 4.01343 0
M  V30 13896 N 1281.19 0.747456 2.80823 0
M  V30 13897 H 1280.74 1.37953 2.17547 0
M  V30 13898 H 1280.7 -0.0530199 3.14355 0
M  V30 13899 N 1284.47 -0.556076 1.47464 0
M  V30 13900 C 1285.4 -1.67275 1.62915 0
M  V30 13901 C 1286.38 -1.63229 0.478562 0
M  V30 13902 O 1287.56 -1.80833 0.708032 0
M  V30 13903 C 1284.69 -3.05911 1.64426 0
M  V30 13904 C 1283.65 -3.24804 2.78722 0
M  V30 13905 C 1282.97 -4.64238 2.65307 0
M  V30 13906 C 1284.27 -3.10071 4.20302 0
M  V30 13907 H 1285.97 -1.54601 2.56396 0
M  V30 13908 H 1283.51 -0.742337 1.23391 0
M  V30 13909 H 1285.47 -3.83878 1.73826 0
M  V30 13910 H 1284.19 -3.19547 0.675053 0
M  V30 13911 H 1282.85 -2.49246 2.68835 0
M  V30 13912 H 1282.5 -4.74675 1.66412 0
M  V30 13913 H 1282.2 -4.77828 3.41986 0
M  V30 13914 H 1283.72 -5.44339 2.76637 0
M  V30 13915 H 1285.14 -3.77855 4.3116 0
M  V30 13916 H 1283.53 -3.3517 4.97776 0
M  V30 13917 H 1284.6 -2.06803 4.38589 0
M  V30 13918 N 1285.95 -1.35615 -0.802897 0
M  V30 13919 C 1287.2 -1.28428 -1.55528 0
M  V30 13920 C 1287.51 0.138275 -1.95111 0
M  V30 13921 O 1288.72 0.332435 -2.69457 0
M  V30 13922 C 1287.17 -2.25251 -2.80696 0
M  V30 13923 C 1286.78 -3.72871 -2.48336 0
M  V30 13924 C 1288.52 -2.27014 -3.58699 0
M  V30 13925 C 1286.43 -4.61507 -3.69817 0
M  V30 13926 H 1285.36 -0.47718 -0.583794 0
M  V30 13927 H 1288.01 -1.609 -0.882238 0
M  V30 13928 H 1286.39 -1.85755 -3.4973 0
M  V30 13929 H 1287.57 -4.21024 -1.87285 0
M  V30 13930 H 1285.88 -3.73752 -1.83571 0
M  V30 13931 H 1288.48 -2.90451 -4.48935 0
M  V30 13932 H 1288.82 -1.27491 -3.96298 0
M  V30 13933 H 1289.36 -2.65058 -2.9663 0
M  V30 13934 H 1286.09 -5.62043 -3.37324 0
M  V30 13935 H 1285.61 -4.18079 -4.30081 0
M  V30 13936 H 1287.29 -4.77113 -4.37004 0
M  V30 13937 N 1287.43 1.02549 -1.19673 0
M  V30 13938 C 1288.66 1.79363 -1.02531 0
M  V30 13939 C 1289.06 1.84274 0.42893 0
M  V30 13940 O 1288.41 1.28813 1.30969 0
M  V30 13941 C 1288.47 3.2567 -1.52248 0
M  V30 13942 C 1288.13 3.44386 -3.00412 0
M  V30 13943 C 1289.13 3.34329 -3.98146 0
M  V30 13944 C 1286.81 3.70491 -3.39178 0
M  V30 13945 C 1288.81 3.50106 -5.3264 0
M  V30 13946 C 1286.5 3.85912 -4.7383 0
M  V30 13947 C 1287.49 3.75723 -5.70369 0
M  V30 13948 O 1287.18 3.90685 -7.02581 0
M  V30 13949 H 1286.91 0.571194 -0.361544 0
M  V30 13950 H 1289.47 1.30029 -1.59002 0
M  V30 13951 H 1287.7 3.76044 -0.901548 0
M  V30 13952 H 1289.39 3.8409 -1.31262 0
M  V30 13953 H 1290.15 3.14109 -3.69541 0
M  V30 13954 H 1286.03 3.77513 -2.64585 0
M  V30 13955 H 1289.58 3.42069 -6.07976 0
M  V30 13956 H 1285.47 4.05631 -5.02129 0
M  V30 13957 H 1286.24 4.07756 -7.09702 0
M  V30 13958 N 1288.9 1.00119 1.21713 0
M  V30 13959 C 1290.15 0.681723 1.9068 0
M  V30 13960 C 1290.48 -0.787121 1.77861 0
M  V30 13961 O 1289.73 -1.58573 1.14687 0
M  V30 13962 C 1290.03 1.04376 3.41819 0
M  V30 13963 C 1289.7 2.50624 3.74831 0
M  V30 13964 C 1288.36 2.90587 3.83552 0
M  V30 13965 C 1290.71 3.45377 3.90339 0
M  V30 13966 C 1288.04 4.24276 4.05225 0
M  V30 13967 C 1290.39 4.78734 4.13517 0
M  V30 13968 C 1289.06 5.18427 4.20464 0
M  V30 13969 H 1288.33 0.24946 0.697747 0
M  V30 13970 H 1290.97 1.25892 1.44304 0
M  V30 13971 H 1289.28 0.384756 3.89906 0
M  V30 13972 H 1290.98 0.774488 3.9345 0
M  V30 13973 H 1287.57 2.18651 3.68632 0
M  V30 13974 H 1291.75 3.15669 3.82971 0
M  V30 13975 H 1287.01 4.54605 4.08833 0
M  V30 13976 H 1291.18 5.52094 4.24459 0
M  V30 13977 H 1288.81 6.22034 4.3701 0
M  V30 13978 N 1290.38 -1.37203 0.775435 0
M  V30 13979 C 1291.63 -1.99207 0.340756 0
M  V30 13980 C 1291.95 -1.61861 -1.08747 0
M  V30 13981 O 1291.22 -0.88583 -1.74728 0
M  V30 13982 H 1289.8 -0.736803 0.123004 0
M  V30 13983 H 1292.46 -1.67625 0.994379 0
M  V30 13984 H 1291.56 -3.09243 0.421346 0
M  V30 13985 N 1291.86 -0.526279 -1.48553 0
M  V30 13986 C 1293.11 0.0091665 -2.02498 0
M  V30 13987 C 1293.43 1.34632 -1.40373 0
M  V30 13988 O 1292.69 1.88172 -0.537573 0
M  V30 13989 C 1292.99 0.184075 -3.56926 0
M  V30 13990 C 1292.65 -1.07825 -4.37818 0
M  V30 13991 C 1291.32 -1.42422 -4.59641 0
M  V30 13992 C 1293.67 -1.91616 -4.84699 0
M  V30 13993 C 1291 -2.60713 -5.25591 0
M  V30 13994 C 1293.35 -3.09082 -5.51952 0
M  V30 13995 C 1292.01 -3.44029 -5.72014 0
M  V30 13996 H 1291.28 0.00335426 -0.740992 0
M  V30 13997 H 1293.93 -0.691553 -1.78577 0
M  V30 13998 H 1292.23 0.967532 -3.79666 0
M  V30 13999 H 1293.93 0.613226 -3.96283 0
M  V30 14000 H 1290.52 -0.798812 -4.2109 0
M  V30 14001 H 1294.71 -1.66199 -4.67645 0
M  V30 14002 H 1289.96 -2.87996 -5.39322 0
M  V30 14003 H 1294.14 -3.74317 -5.87247 0
M  V30 14004 H 1291.76 -4.35789 -6.2289 0
M  V30 14005 N 1293.34 1.5542 -0.261239 0
M  V30 14006 C 1294.57 2.03391 0.362698 0
M  V30 14007 C 1294.98 1.13947 1.51039 0
M  V30 14008 O 1294.32 0.149231 1.83093 0
M  V30 14009 C 1294.38 3.47558 0.918889 0
M  V30 14010 C 1294.04 4.56894 -0.0983829 0
M  V30 14011 C 1295.04 5.1182 -0.913018 0
M  V30 14012 C 1292.73 5.01779 -0.228616 0
M  V30 14013 C 1294.72 6.10138 -1.84421 0
M  V30 14014 C 1292.41 5.99926 -1.16329 0
M  V30 14015 C 1293.41 6.53984 -1.9696 0
M  V30 14016 O 1293.09 7.50214 -2.8885 0
M  V30 14017 H 1292.83 0.670166 0.0886182 0
M  V30 14018 H 1295.38 2.01722 -0.386967 0
M  V30 14019 H 1293.61 3.46423 1.71838 0
M  V30 14020 H 1295.3 3.78947 1.45443 0
M  V30 14021 H 1296.06 4.77965 -0.823066 0
M  V30 14022 H 1291.94 4.59356 0.388945 0
M  V30 14023 H 1295.49 6.52258 -2.47397 0
M  V30 14024 H 1291.38 6.332 -1.25412 0
M  V30 14025 H 1292.15 7.67881 -2.83374 0
M  V30 14026 N 1294.82 -0.0116844 1.57596 0
M  V30 14027 C 1296.04 -0.713924 1.94725 0
M  V30 14028 C 1296.47 -1.67157 0.862565 0
M  V30 14029 O 1295.82 -1.80401 -0.180308 0
M  V30 14030 C 1295.87 -1.43214 3.30941 0
M  V30 14031 O 1294.98 -2.5461 3.24419 0
M  V30 14032 H 1294.32 -0.190772 0.636005 0
M  V30 14033 H 1296.85 0.0380247 2.04565 0
M  V30 14034 H 1296.86 -1.79819 3.66237 0
M  V30 14035 H 1295.53 -0.729906 4.09445 0
M  V30 14036 H 1294.11 -2.20419 3.00782 0
M  V30 14037 N 1296.29 -1.55015 -0.284256 0
M  V30 14038 C 1297.54 -1.7509 -1.01733 0
M  V30 14039 C 1297.87 -0.545803 -1.86685 0
M  V30 14040 O 1297.12 0.471951 -1.89924 0
M  V30 14041 C 1297.42 -3.00246 -1.93874 0
M  V30 14042 C 1297.09 -4.33295 -1.24764 0
M  V30 14043 C 1295.75 -4.69459 -1.0565 0
M  V30 14044 C 1298.1 -5.15704 -0.754939 0
M  V30 14045 C 1295.43 -5.85596 -0.35976 0
M  V30 14046 C 1297.78 -6.32559 -0.0718473 0
M  V30 14047 C 1296.45 -6.67371 0.131104 0
M  V30 14048 H 1295.72 -0.6407 -0.372269 0
M  V30 14049 H 1298.36 -1.89282 -0.290638 0
M  V30 14050 H 1296.67 -2.80907 -2.73127 0
M  V30 14051 H 1298.37 -3.12974 -2.50696 0
M  V30 14052 H 1294.96 -4.04865 -1.4065 0
M  V30 14053 H 1299.14 -4.8825 -0.89027 0
M  V30 14054 H 1294.4 -6.11099 -0.19169 0
M  V30 14055 H 1298.57 -6.95675 0.317743 0
M  V30 14056 H 1296.2 -7.57215 0.672977 0
M  V30 14057 N 1297.77 0.548248 -1.47757 0
M  V30 14058 C 1299 1.335 -1.58722 0
M  V30 14059 C 1299.42 1.86549 -0.241034 0
M  V30 14060 O 1298.78 1.63447 0.784517 0
M  V30 14061 C 1298.83 2.47457 -2.62293 0
M  V30 14062 O 1297.93 3.49956 -2.18185 0
M  V30 14063 H 1297.27 0.396166 -0.532868 0
M  V30 14064 H 1299.8 0.66164 -1.93607 0
M  V30 14065 H 1299.81 2.93901 -2.82995 0
M  V30 14066 H 1298.49 2.08203 -3.60034 0
M  V30 14067 H 1297.06 3.09755 -2.0762 0
M  V30 14068 N 1299.25 1.36039 0.795694 0
M  V30 14069 C 1300.16 1.31991 1.93948 0
M  V30 14070 C 1301.18 0.223064 1.72564 0
M  V30 14071 O 1302.35 0.454344 1.96208 0
M  V30 14072 C 1299.42 1.10228 3.28711 0
M  V30 14073 C 1298.48 2.29328 3.62914 0
M  V30 14074 C 1297.71 2.08595 4.91247 0
M  V30 14075 O 1297.93 1.05793 5.60503 0
M  V30 14076 O 1296.87 2.96222 5.23962 0
M  V30 14077 H 1300.69 2.28274 2.00311 0
M  V30 14078 H 1298.28 1.16521 0.935048 0
M  V30 14079 H 1300.16 0.999842 4.09367 0
M  V30 14080 H 1298.84 0.17003 3.23253 0
M  V30 14081 H 1297.74 2.4514 2.8259 0
M  V30 14082 H 1299.08 3.21038 3.73089 0
M  V30 14083 N 1300.73 -1.01913 1.20215 0
M  V30 14084 C 1301.66 -2.12282 0.97256 0
M  V30 14085 C 1302.64 -1.6982 -0.0975709 0
M  V30 14086 O 1303.82 -1.94109 0.0594307 0
M  V30 14087 C 1300.95 -3.43369 0.521085 0
M  V30 14088 C 1299.91 -3.99559 1.53417 0
M  V30 14089 C 1299.23 -5.26383 0.93942 0
M  V30 14090 C 1300.53 -4.33241 2.91718 0
M  V30 14091 H 1302.23 -2.31746 1.89563 0
M  V30 14092 H 1299.77 -1.1137 0.912841 0
M  V30 14093 H 1301.73 -4.19963 0.347713 0
M  V30 14094 H 1300.45 -3.23655 -0.437605 0
M  V30 14095 H 1299.11 -3.25069 1.69486 0
M  V30 14096 H 1298.76 -5.02993 -0.0271236 0
M  V30 14097 H 1298.46 -5.64942 1.616 0
M  V30 14098 H 1299.98 -6.05635 0.777059 0
M  V30 14099 H 1301.4 -5.00734 2.79175 0
M  V30 14100 H 1299.79 -4.82907 3.56259 0
M  V30 14101 H 1300.86 -3.42118 3.43633 0
M  V30 14102 N 1302.21 -1.00763 -1.2118 0
M  V30 14103 C 1303.14 -0.590493 -2.2591 0
M  V30 14104 C 1304.12 0.390002 -1.65569 0
M  V30 14105 O 1305.3 0.277406 -1.92208 0
M  V30 14106 C 1302.43 0.0810388 -3.47205 0
M  V30 14107 C 1301.39 -0.81951 -4.20081 0
M  V30 14108 C 1300.71 -0.014244 -5.34698 0
M  V30 14109 C 1302.01 -2.12336 -4.7719 0
M  V30 14110 H 1303.71 -1.46595 -2.61056 0
M  V30 14111 H 1301.25 -0.706321 -1.25487 0
M  V30 14112 H 1303.21 0.384355 -4.19644 0
M  V30 14113 H 1301.93 0.991145 -3.11197 0
M  V30 14114 H 1300.59 -1.10669 -3.49497 0
M  V30 14115 H 1300.24 0.897233 -4.94933 0
M  V30 14116 H 1299.94 -0.613883 -5.84384 0
M  V30 14117 H 1301.46 0.282827 -6.09945 0
M  V30 14118 H 1302.87 -1.88301 -5.41494 0
M  V30 14119 H 1301.27 -2.67308 -5.37277 0
M  V30 14120 H 1302.34 -2.79238 -3.96427 0
M  V30 14121 N 1303.68 1.3679 -0.7827 0
M  V30 14122 C 1305.1 1.52719 -0.463594 0
M  V30 14123 C 1305.3 1.73827 1.01914 0
M  V30 14124 O 1304.36 1.76591 1.80477 0
M  V30 14125 C 1305.67 2.71709 -1.2882 0
M  V30 14126 C 1307.22 2.85577 -1.2812 0
M  V30 14127 C 1307.69 4.07564 -2.0894 0
M  V30 14128 N 1309.18 4.14697 -2.0635 0
M  V30 14129 C 1309.92 5.08147 -2.65659 0
M  V30 14130 N 1309.41 6.07083 -3.33799 0
M  V30 14131 N 1311.21 5.00712 -2.55429 0
M  V30 14132 H 1303.36 1.21342 -1.74327 0
M  V30 14133 H 1305.62 0.591719 -0.740657 0
M  V30 14134 H 1305.33 2.62612 -2.3394 0
M  V30 14135 H 1305.2 3.65686 -0.924873 0
M  V30 14136 H 1307.59 2.94139 -0.237947 0
M  V30 14137 H 1307.67 1.92528 -1.68424 0
M  V30 14138 H 1307.31 3.99763 -3.13293 0
M  V30 14139 H 1307.24 4.99748 -1.66011 0
M  V30 14140 H 1309.73 3.43856 -1.56752 0
M  V30 14141 H 1310.05 6.74939 -3.764 0
M  V30 14142 H 1308.39 6.07329 -3.379 0
M  V30 14143 H 1311.58 4.22367 -2.01802 0
M  V30 14144 H 1311.76 5.73354 -3.01943 0
M  V30 14145 N 1305.16 0.53415 1.48272 0
M  V30 14146 C 1306.09 -0.215037 2.32508 0
M  V30 14147 C 1307.07 -0.931083 1.42355 0
M  V30 14148 O 1308.26 -0.916051 1.71237 0
M  V30 14149 C 1305.39 -1.25985 3.23643 0
M  V30 14150 C 1304.34 -0.661692 4.22854 0
M  V30 14151 C 1303.67 -1.80946 5.03153 0
M  V30 14152 C 1304.97 0.369358 5.20992 0
M  V30 14153 H 1306.66 0.488158 2.95394 0
M  V30 14154 H 1304.21 0.236206 1.4205 0
M  V30 14155 H 1306.16 -1.79195 3.81402 0
M  V30 14156 H 1304.89 -1.99268 2.58766 0
M  V30 14157 H 1303.54 -0.151082 3.66289 0
M  V30 14158 H 1303.19 -2.53077 4.34696 0
M  V30 14159 H 1302.89 -1.41513 5.70305 0
M  V30 14160 H 1304.42 -2.34526 5.63764 0
M  V30 14161 H 1305.83 -0.0758076 5.7325 0
M  V30 14162 H 1304.23 0.681301 5.9622 0
M  V30 14163 H 1305.3 1.27363 4.67875 0
M  V30 14164 N 1306.64 -1.55279 0.269478 0
M  V30 14165 C 1307.87 -2.03876 -0.352418 0
M  V30 14166 C 1308.28 -1.14804 -1.49885 0
M  V30 14167 O 1307.64 -0.166989 -1.81734 0
M  V30 14168 C 1307.69 -3.51634 -0.838799 0
M  V30 14169 O 1307.41 -4.37316 0.261972 0
M  V30 14170 C 1308.91 -4.16094 -1.52909 0
M  V30 14171 H 1306.13 -0.66608 -0.0811043 0
M  V30 14172 H 1308.68 -2.00551 0.399929 0
M  V30 14173 H 1306.83 -3.55421 -1.54125 0
M  V30 14174 H 1307.25 -5.24383 -0.111013 0
M  V30 14175 H 1308.72 -5.21102 -1.82089 0
M  V30 14176 H 1309.2 -3.63928 -2.45872 0
M  V30 14177 H 1309.8 -4.16293 -0.87063 0
M  V30 14178 N 1308.12 0.00332656 -1.576 0
M  V30 14179 C 1309.53 0.359361 -1.55502 0
M  V30 14180 C 1309.73 1.74997 -0.998914 0
M  V30 14181 O 1308.79 2.44482 -0.631263 0
M  V30 14182 C 1310.1 0.237638 -2.9976 0
M  V30 14183 C 1311.65 0.312824 -3.11433 0
M  V30 14184 C 1312.13 0.220262 -4.5747 0
M  V30 14185 N 1313.62 0.278265 -4.62363 0
M  V30 14186 C 1314.35 0.229933 -5.72939 0
M  V30 14187 N 1313.85 0.132391 -6.92673 0
M  V30 14188 N 1315.64 0.281555 -5.61394 0
M  V30 14189 H 1307.79 -0.906404 -1.92089 0
M  V30 14190 H 1310.06 -0.347129 -0.88216 0
M  V30 14191 H 1309.76 -0.719007 -3.44272 0
M  V30 14192 H 1309.64 1.02105 -3.63118 0
M  V30 14193 H 1312.02 1.25991 -2.66852 0
M  V30 14194 H 1312.1 -0.500395 -2.50858 0
M  V30 14195 H 1311.75 -0.723267 -5.02724 0
M  V30 14196 H 1311.68 1.05192 -5.15987 0
M  V30 14197 H 1314.17 0.35512 -3.76228 0
M  V30 14198 H 1314.48 0.101317 -7.72734 0
M  V30 14199 H 1312.83 0.0980665 -6.94931 0
M  V30 14200 H 1316.02 0.355931 -4.66745 0
M  V30 14201 H 1316.19 0.240423 -6.47554 0
M  V30 14202 N 1309.6 1.55164 0.276031 0
M  V30 14203 C 1310.82 1.79649 1.02635 0
M  V30 14204 C 1311.24 0.568289 1.80044 0
M  V30 14205 O 1310.6 -0.462569 1.7654 0
M  V30 14206 C 1310.65 3.01974 1.98731 0
M  V30 14207 O 1310.37 4.2005 1.24459 0
M  V30 14208 C 1311.87 3.39039 2.856 0
M  V30 14209 H 1309.09 0.598529 0.303321 0
M  V30 14210 H 1311.63 2.02171 0.307733 0
M  V30 14211 H 1309.79 2.81586 2.6606 0
M  V30 14212 H 1310.2 4.89185 1.89205 0
M  V30 14213 H 1311.68 4.27809 3.48831 0
M  V30 14214 H 1312.15 2.58306 3.55211 0
M  V30 14215 H 1312.76 3.61674 2.23767 0
M  V30 14216 N 1311.07 -0.540404 1.48045 0
M  V30 14217 C 1312 -1.65538 1.6468 0
M  V30 14218 C 1312.99 -1.62713 0.495847 0
M  V30 14219 O 1314.17 -1.80072 0.727172 0
M  V30 14220 C 1311.3 -3.0415 1.67661 0
M  V30 14221 C 1310.25 -3.2183 2.82152 0
M  V30 14222 C 1309.58 -4.61397 2.70216 0
M  V30 14223 C 1310.88 -3.05596 4.23567 0
M  V30 14224 H 1312.57 -1.51873 2.58021 0
M  V30 14225 H 1310.12 -0.729208 1.24171 0
M  V30 14226 H 1312.07 -3.82013 1.77887 0
M  V30 14227 H 1310.8 -3.18814 0.708907 0
M  V30 14228 H 1309.46 -2.4638 2.71463 0
M  V30 14229 H 1309.1 -4.72883 1.71437 0
M  V30 14230 H 1308.8 -4.74174 3.47035 0
M  V30 14231 H 1310.33 -5.41374 2.82395 0
M  V30 14232 H 1311.74 -3.73261 4.35143 0
M  V30 14233 H 1310.14 -3.29871 5.01303 0
M  V30 14234 H 1311.21 -2.0214 4.40758 0
M  V30 14235 N 1312.55 -1.36459 -0.788468 0
M  V30 14236 C 1313.48 -1.33545 -1.91541 0
M  V30 14237 C 1314.46 -0.206762 -1.68839 0
M  V30 14238 O 1315.65 -0.404553 -1.89939 0
M  V30 14239 C 1312.78 -1.12492 -3.28577 0
M  V30 14240 C 1311.73 -2.22196 -3.65805 0
M  V30 14241 C 1311.06 -1.86285 -5.01201 0
M  V30 14242 C 1312.36 -3.64286 -3.7429 0
M  V30 14243 H 1314.05 -2.27844 -1.94236 0
M  V30 14244 H 1311.6 -1.09677 -0.933105 0
M  V30 14245 H 1313.55 -1.09089 -4.07035 0
M  V30 14246 H 1312.28 -0.146446 -3.26272 0
M  V30 14247 H 1310.93 -2.24727 -2.89644 0
M  V30 14248 H 1310.58 -0.87009 -4.95417 0
M  V30 14249 H 1310.28 -2.59734 -5.27079 0
M  V30 14250 H 1311.81 -1.84439 -5.82078 0
M  V30 14251 H 1313.22 -3.63977 -4.42937 0
M  V30 14252 H 1311.62 -4.36648 -4.11653 0
M  V30 14253 H 1312.69 -3.99123 -2.75371 0
M  V30 14254 N 1314.03 1.01274 -1.20754 0
M  V30 14255 C 1315.28 1.74586 -1.01804 0
M  V30 14256 C 1315.6 1.89727 0.450419 0
M  V30 14257 O 1314.87 1.44257 1.32539 0
M  V30 14258 H 1313.45 0.646804 -0.373702 0
M  V30 14259 H 1316.11 1.22079 -1.5193 0
M  V30 14260 H 1315.21 2.748 -1.47958 0
M  V30 14261 N 1315.51 1.01404 1.20644 0
M  V30 14262 C 1316.76 0.697244 1.89265 0
M  V30 14263 C 1317.07 -0.776149 1.79542 0
M  V30 14264 O 1318.28 -1.2054 2.43274 0
M  V30 14265 C 1316.73 1.19672 3.39421 0
M  V30 14266 C 1316.34 2.69683 3.57736 0
M  V30 14267 C 1318.09 0.955225 4.13613 0
M  V30 14268 C 1315.99 3.13124 5.01704 0
M  V30 14269 H 1314.92 0.257105 0.708811 0
M  V30 14270 H 1317.57 1.22639 1.36499 0
M  V30 14271 H 1315.96 0.595562 3.91496 0
M  V30 14272 H 1317.13 3.35326 3.16059 0
M  V30 14273 H 1315.44 2.91946 2.96911 0
M  V30 14274 H 1318.04 1.25524 5.19757 0
M  V30 14275 H 1318.38 -0.108362 4.16159 0
M  V30 14276 H 1318.92 1.51962 3.67631 0
M  V30 14277 H 1315.66 4.18748 5.04311 0
M  V30 14278 H 1315.18 2.522 5.44201 0
M  V30 14279 H 1316.86 3.05617 5.70269 0
M  V30 14280 N 1316.99 -1.36373 0.789944 0
M  V30 14281 C 1318.24 -1.98476 0.359165 0
M  V30 14282 C 1318.55 -1.634 -1.07517 0
M  V30 14283 O 1319.76 -2.18742 -1.60824 0
M  V30 14284 C 1318.21 -3.55011 0.591228 0
M  V30 14285 C 1317.82 -3.99011 2.03701 0
M  V30 14286 C 1319.56 -4.23903 0.224979 0
M  V30 14287 C 1317.47 -5.48325 2.2157 0
M  V30 14288 H 1316.4 -0.742612 0.130552 0
M  V30 14289 H 1319.05 -1.55664 0.971652 0
M  V30 14290 H 1317.43 -3.95895 -0.0909788 0
M  V30 14291 H 1318.61 -3.69324 2.75566 0
M  V30 14292 H 1316.92 -3.42957 2.36155 0
M  V30 14293 H 1319.52 -5.33638 0.336764 0
M  V30 14294 H 1319.86 -4.08004 -0.826964 0
M  V30 14295 H 1320.4 -3.88383 0.860443 0
M  V30 14296 H 1317.13 -5.69173 3.25149 0
M  V30 14297 H 1316.65 -5.79637 1.54211 0
M  V30 14298 H 1318.33 -6.14556 2.0231 0
M  V30 14299 N 1318.47 -0.542005 -1.47987 0
M  V30 14300 C 1319.74 0.0526494 -1.95529 0
M  V30 14301 C 1320.12 1.50092 -1.48444 0
M  V30 14302 O 1319.47 2.16981 -0.716347 0
M  V30 14303 C 1319.68 -0.0770524 -3.48915 0
M  V30 14304 C 1321.03 0.0760849 -4.24532 0
M  V30 14305 O 1322.05 -0.00384644 -3.562 0
M  V30 14306 O 1320.91 0.245406 -5.45949 0
M  V30 14307 H 1318.01 0.0726163 -0.823806 0
M  V30 14308 H 1320.55 -0.607454 -1.58455 0
M  V30 14309 H 1319.32 -1.08544 -3.75944 0
M  V30 14310 H 1318.95 0.621357 -3.92715 0
M  V30 14311 N 1319.94 1.55134 -0.277709 0
M  V30 14312 C 1321.18 2.01561 0.339489 0
M  V30 14313 C 1321.55 1.16185 1.52856 0
M  V30 14314 O 1322.75 1.52204 2.21556 0
M  V30 14315 C 1321.02 3.50285 0.709567 0
M  V30 14316 S 1322.58 4.18697 1.31293 0
M  V30 14317 H 1319.4 0.703137 0.105452 0
M  V30 14318 H 1322 1.91361 -0.400148 0
M  V30 14319 H 1320.7 4.10069 -0.164675 0
M  V30 14320 H 1320.23 3.64475 1.4806 0
M  V30 14321 H 1322.25 4.22539 2.60145 0
M  V30 14322 N 1321.42 0.00503138 1.57599 0
M  V30 14323 C 1322.67 -0.679766 1.91068 0
M  V30 14324 C 1323 -1.73144 0.879486 0
M  V30 14325 O 1322.28 -1.94237 -0.101116 0
M  V30 14326 C 1322.56 -1.3183 3.35101 0
M  V30 14327 C 1322.41 -0.277833 4.48941 0
M  V30 14328 C 1323.73 -2.24308 3.78647 0
M  V30 14329 H 1320.85 -0.245646 0.694857 0
M  V30 14330 H 1323.49 0.057357 1.89913 0
M  V30 14331 H 1321.64 -1.94657 3.36216 0
M  V30 14332 H 1323.31 0.351136 4.59962 0
M  V30 14333 H 1321.56 0.399365 4.31958 0
M  V30 14334 H 1322.23 -0.763759 5.46691 0
M  V30 14335 H 1324.7 -1.71494 3.79116 0
M  V30 14336 H 1323.58 -2.6595 4.80169 0
M  V30 14337 H 1323.84 -3.12427 3.12797 0
M  V30 14338 N 1322.9 -1.55308 -0.267798 0
M  V30 14339 C 1323.83 -1.84963 -1.35356 0
M  V30 14340 C 1324.84 -0.73446 -1.45291 0
M  V30 14341 O 1326.03 -1.01237 -1.47015 0
M  V30 14342 C 1323.13 -2.00221 -2.73432 0
M  V30 14343 C 1322.31 -3.30922 -2.86024 0
M  V30 14344 C 1321.37 -3.3618 -4.04808 0
M  V30 14345 O 1320.39 -4.09525 -3.9532 0
M  V30 14346 N 1321.59 -2.63958 -5.17017 0
M  V30 14347 H 1324.36 -2.7868 -1.1026 0
M  V30 14348 H 1321.92 -1.55289 -0.457914 0
M  V30 14349 H 1323.91 -2.01103 -3.51197 0
M  V30 14350 H 1322.48 -1.13346 -2.91327 0
M  V30 14351 H 1321.7 -3.42534 -1.951 0
M  V30 14352 H 1322.99 -4.17109 -2.91371 0
M  V30 14353 H 1322.39 -2.04062 -5.27613 0
M  V30 14354 H 1320.94 -2.70558 -5.92994 0
M  V30 14355 N 1324.38 0.532545 -1.4833 0
M  V30 14356 C 1325.63 1.28597 -1.55908 0
M  V30 14357 C 1325.95 1.93595 -0.233635 0
M  V30 14358 O 1325.22 1.81197 0.744605 0
M  V30 14359 H 1323.8 0.477619 -0.57436 0
M  V30 14360 H 1326.46 0.619922 -1.84778 0
M  V30 14361 H 1325.55 2.0666 -2.33877 0
M  V30 14362 N 1325.86 1.36875 0.78122 0
M  V30 14363 C 1327.27 1.28236 1.35692 0
M  V30 14364 C 1327.62 -0.0742286 1.9606 0
M  V30 14365 O 1326.74 -0.97588 1.93146 0
M  V30 14366 C 1327.34 2.32215 2.46702 0
M  V30 14367 C 1325.9 2.2724 3.00065 0
M  V30 14368 C 1325.04 2.16553 1.73206 0
M  V30 14369 H 1327.99 1.47634 0.582217 0
M  V30 14370 H 1328.02 1.96333 3.25935 0
M  V30 14371 H 1327.53 3.30938 2.02735 0
M  V30 14372 H 1325.63 1.3201 3.48431 0
M  V30 14373 H 1325.74 3.20267 3.56323 0
M  V30 14374 H 1324.11 1.62941 1.95761 0
M  V30 14375 H 1324.89 3.17176 1.31356 0
M  V30 14376 N 1327.33 -1.00632 1.21289 0
M  V30 14377 C 1328.74 -1.55838 1.02817 0
M  V30 14378 C 1329.1 -1.91816 -0.412425 0
M  V30 14379 O 1328.22 -1.73342 -1.29543 0
M  V30 14380 C 1328.82 -2.83168 1.86014 0
M  V30 14381 C 1327.37 -3.34865 1.71879 0
M  V30 14382 C 1326.52 -2.0807 1.83309 0
M  V30 14383 H 1329.47 -0.828939 1.3533 0
M  V30 14384 H 1329.49 -3.54996 1.36961 0
M  V30 14385 H 1329.01 -2.56951 2.90857 0
M  V30 14386 H 1327.11 -3.6602 0.697153 0
M  V30 14387 H 1327.22 -4.06374 2.53766 0
M  V30 14388 H 1325.58 -2.21006 1.26603 0
M  V30 14389 H 1326.37 -1.84267 2.89656 0
M  V30 14390 N 1328.81 -1.02043 -1.20104 0
M  V30 14391 C 1329.77 -0.598682 -2.21243 0
M  V30 14392 C 1330.77 0.333205 -1.5731 0
M  V30 14393 O 1331.96 0.12137 -1.73777 0
M  V30 14394 C 1329.1 0.125183 -3.4067 0
M  V30 14395 H 1330.29 -1.49345 -2.60069 0
M  V30 14396 H 1327.84 -0.810649 -1.33634 0
M  V30 14397 H 1328.58 1.03469 -3.07351 0
M  V30 14398 H 1328.36 -0.544316 -3.88304 0
M  V30 14399 H 1329.85 0.407469 -4.15607 0
M  V30 14400 N 1330.29 1.35952 -0.797165 0
M  V30 14401 C 1331.22 2.27728 -0.146693 0
M  V30 14402 C 1332.2 1.47616 0.68178 0
M  V30 14403 O 1333.39 1.76898 0.651094 0
M  V30 14404 C 1330.51 3.29179 0.797442 0
M  V30 14405 C 1329.56 4.26471 0.0497851 0
M  V30 14406 S 1330.39 5.19982 -1.2798 0
M  V30 14407 C 1331.55 6.24977 -0.339864 0
M  V30 14408 H 1331.78 2.82549 -0.924834 0
M  V30 14409 H 1329.31 1.4261 -0.591759 0
M  V30 14410 H 1331.27 3.88127 1.33669 0
M  V30 14411 H 1329.93 2.73255 1.54889 0
M  V30 14412 H 1329.13 4.98138 0.766487 0
M  V30 14413 H 1328.73 3.71643 -0.419219 0
M  V30 14414 H 1331.02 6.75809 0.478412 0
M  V30 14415 H 1331.96 7.00636 -1.02544 0
M  V30 14416 H 1332.37 5.64468 0.0602491 0
M  V30 14417 N 1331.77 0.549846 1.47697 0
M  V30 14418 C 1332.7 -0.190364 2.32723 0
M  V30 14419 C 1333.68 -0.915933 1.43334 0
M  V30 14420 O 1334.86 -0.897838 1.72199 0
M  V30 14421 C 1331.99 -1.22545 3.24961 0
M  V30 14422 C 1330.95 -0.616805 4.23532 0
M  V30 14423 C 1330.27 -1.75599 5.05044 0
M  V30 14424 C 1331.57 0.424595 5.20571 0
M  V30 14425 H 1333.27 0.519461 2.94859 0
M  V30 14426 H 1330.81 0.251259 1.41791 0
M  V30 14427 H 1332.77 -1.75139 3.83281 0
M  V30 14428 H 1331.49 -1.96512 2.60865 0
M  V30 14429 H 1330.15 -0.112224 3.66428 0
M  V30 14430 H 1329.8 -2.48453 4.37356 0
M  V30 14431 H 1329.5 -1.35456 5.71774 0
M  V30 14432 H 1331.02 -2.28533 5.6622 0
M  V30 14433 H 1332.44 -0.0150025 5.73298 0
M  V30 14434 H 1330.83 0.7445 5.95464 0
M  V30 14435 H 1331.9 1.32318 4.66497 0
M  V30 14436 N 1333.25 -1.54984 0.285932 0
M  V30 14437 C 1334.18 -2.20365 -0.630236 0
M  V30 14438 C 1335.19 -1.19168 -1.10918 0
M  V30 14439 O 1336.38 -1.45839 -1.02923 0
M  V30 14440 C 1333.48 -2.8244 -1.87299 0
M  V30 14441 C 1332.65 -4.09429 -1.53905 0
M  V30 14442 C 1331.71 -4.55449 -2.63538 0
M  V30 14443 O 1330.74 -5.20985 -2.29267 0
M  V30 14444 N 1331.94 -4.26498 -3.93802 0
M  V30 14445 H 1334.71 -2.99617 -0.0706044 0
M  V30 14446 H 1332.27 -1.61543 0.107486 0
M  V30 14447 H 1334.26 -3.10167 -2.59959 0
M  V30 14448 H 1332.83 -2.07117 -2.34139 0
M  V30 14449 H 1332.05 -3.88875 -0.645774 0
M  V30 14450 H 1333.34 -4.92146 -1.29111 0
M  V30 14451 H 1332.73 -3.73964 -4.24461 0
M  V30 14452 H 1331.29 -4.5897 -4.62807 0
M  V30 14453 N 1334.72 -0.0133892 -1.57594 0
M  V30 14454 C 1335.69 0.958601 -2.08191 0
M  V30 14455 C 1336.69 1.26408 -0.993865 0
M  V30 14456 O 1337.88 1.20703 -1.25604 0
M  V30 14457 C 1335.01 2.27971 -2.5346 0
M  V30 14458 H 1336.2 0.520686 -2.95345 0
M  V30 14459 H 1333.76 0.234351 -1.54533 0
M  V30 14460 H 1334.49 2.76424 -1.69588 0
M  V30 14461 H 1334.28 2.07116 -3.32935 0
M  V30 14462 H 1335.77 2.97672 -2.92884 0
M  V30 14463 N 1336.2 1.55448 0.259558 0
M  V30 14464 C 1337.43 1.80465 1.00577 0
M  V30 14465 C 1337.84 0.585001 1.79929 0
M  V30 14466 O 1337.18 -0.455641 1.7796 0
M  V30 14467 C 1337.25 2.98634 2.00146 0
M  V30 14468 C 1336.91 4.35154 1.39607 0
M  V30 14469 C 1337.91 5.13631 0.804923 0
M  V30 14470 C 1335.59 4.81833 1.41923 0
M  V30 14471 C 1337.59 6.36929 0.245007 0
M  V30 14472 C 1335.27 6.05083 0.855458 0
M  V30 14473 C 1336.27 6.82469 0.269359 0
M  V30 14474 O 1335.96 8.03392 -0.285743 0
M  V30 14475 H 1335.69 0.604693 0.302196 0
M  V30 14476 H 1338.24 2.0332 0.291599 0
M  V30 14477 H 1336.47 2.71504 2.75359 0
M  V30 14478 H 1338.16 3.10855 2.61006 0
M  V30 14479 H 1338.93 4.78693 0.779625 0
M  V30 14480 H 1334.81 4.21599 1.86481 0
M  V30 14481 H 1338.35 6.97274 -0.213098 0
M  V30 14482 H 1334.25 6.395 0.878041 0
M  V30 14483 H 1335.02 8.1831 -0.17639 0
M  V30 14484 N 1337.68 -0.524672 1.4861 0
M  V30 14485 C 1338.59 -1.65554 1.6622 0
M  V30 14486 C 1339.61 -1.65254 0.54471 0
M  V30 14487 O 1340.78 -1.84109 0.816454 0
M  V30 14488 C 1337.85 -3.02003 1.7028 0
M  V30 14489 C 1336.91 -3.13116 2.93695 0
M  V30 14490 C 1336.14 -4.43055 2.97553 0
M  V30 14491 O 1336.36 -5.30468 2.09667 0
M  V30 14492 O 1335.3 -4.58646 3.89779 0
M  V30 14493 H 1339.12 -1.53633 2.61974 0
M  V30 14494 H 1336.71 -0.698354 1.32073 0
M  V30 14495 H 1338.59 -3.83143 1.75441 0
M  V30 14496 H 1337.27 -3.14236 0.777002 0
M  V30 14497 H 1336.17 -2.31251 2.94064 0
M  V30 14498 H 1337.51 -3.058 3.85677 0
M  V30 14499 N 1339.16 -1.37287 -0.77395 0
M  V30 14500 C 1340.44 -1.2291 -1.52159 0
M  V30 14501 C 1340.82 0.178249 -2.10346 0
M  V30 14502 O 1340.16 1.18564 -1.95333 0
M  V30 14503 C 1340.37 -2.32337 -2.60424 0
M  V30 14504 C 1341.72 -2.69769 -3.27887 0
M  V30 14505 O 1342.75 -2.31497 -2.70717 0
M  V30 14506 O 1341.6 -3.35699 -4.31241 0
M  V30 14507 H 1338.7 -0.47948 -0.673816 0
M  V30 14508 H 1341.24 -1.49061 -0.811105 0
M  V30 14509 H 1340.02 -3.26591 -2.15532 0
M  V30 14510 H 1339.64 -2.07638 -3.39076 0
M  V30 14511 N 1340.64 0.999871 -1.21821 0
M  V30 14512 C 1342.05 1.5529 -1.03642 0
M  V30 14513 C 1342.4 1.92032 0.402246 0
M  V30 14514 O 1341.52 1.74027 1.28622 0
M  V30 14515 C 1342.12 2.82177 -1.87514 0
M  V30 14516 C 1340.68 3.33949 -1.73653 0
M  V30 14517 C 1339.82 2.07095 -1.84409 0
M  V30 14518 H 1342.78 0.821751 -1.35768 0
M  V30 14519 H 1342.8 3.54264 -1.38842 0
M  V30 14520 H 1342.31 2.55405 -2.92216 0
M  V30 14521 H 1340.41 3.65645 -0.716554 0
M  V30 14522 H 1340.52 4.05022 -2.55918 0
M  V30 14523 H 1338.89 2.20332 -1.27773 0
M  V30 14524 H 1339.67 1.82728 -2.90629 0
M  V30 14525 N 1342.11 1.02678 1.19562 0
M  V30 14526 C 1343.36 0.72059 1.88817 0
M  V30 14527 C 1343.68 -0.752942 1.79877 0
M  V30 14528 O 1342.95 -1.54233 1.20785 0
M  V30 14529 H 1341.53 0.26355 0.698964 0
M  V30 14530 H 1344.2 1.30056 1.4516 0
M  V30 14531 H 1343.29 1.01303 2.95202 0
M  V30 14532 N 1343.59 -1.35528 0.804364 0
M  V30 14533 C 1344.84 -1.98439 0.382934 0
M  V30 14534 C 1345.16 -1.64132 -1.05289 0
M  V30 14535 O 1344.43 -0.922693 -1.7281 0
M  V30 14536 H 1343.01 -0.734028 0.138605 0
M  V30 14537 H 1345.67 -1.65478 1.02971 0
M  V30 14538 H 1344.77 -3.08279 0.486846 0
M  V30 14539 N 1345.07 -0.557671 -1.47404 0
M  V30 14540 C 1346.02 0.189765 -2.30019 0
M  V30 14541 C 1346.99 0.907923 -1.3909 0
M  V30 14542 O 1348.17 0.903528 -1.68051 0
M  V30 14543 C 1345.31 1.21348 -3.23061 0
M  V30 14544 C 1344.43 0.501343 -4.29081 0
M  V30 14545 C 1343.56 1.51039 -5.09275 0
M  V30 14546 C 1342.6 0.783254 -6.07068 0
M  V30 14547 N 1341.74 1.73916 -6.80219 0
M  V30 14548 H 1346.58 -0.520856 -2.93413 0
M  V30 14549 H 1344.11 -0.268686 -1.44625 0
M  V30 14550 H 1346.07 1.81961 -3.75428 0
M  V30 14551 H 1344.7 1.89213 -2.61531 0
M  V30 14552 H 1343.75 -0.219317 -3.79767 0
M  V30 14553 H 1345.07 -0.0682656 -4.98753 0
M  V30 14554 H 1344.22 2.19004 -5.65793 0
M  V30 14555 H 1342.96 2.11392 -4.39505 0
M  V30 14556 H 1341.96 0.0896883 -5.49727 0
M  V30 14557 H 1343.19 0.185464 -6.78847 0
M  V30 14558 H 1341.14 2.33125 -6.13179 0
M  V30 14559 H 1341.05 1.22171 -7.46063 0
M  V30 14560 H 1342.32 2.40993 -7.41311 0
M  V30 14561 N 1346.55 1.54831 -0.294147 0
M  V30 14562 C 1347.5 2.24707 0.600795 0
M  V30 14563 C 1348.49 1.25067 1.14257 0
M  V30 14564 O 1349.7 1.42939 1.094 0
M  V30 14565 H 1346.07 0.721399 0.212338 0
M  V30 14566 H 1348.04 2.98398 -0.0111682 0
M  V30 14567 C 1346.79 2.996 1.76451 0
M  V30 14568 H 1346.12 3.76072 1.35684 0
M  V30 14569 H 1347.56 3.51785 2.36692 0
M  V30 14570 C 1346.01 2.0617 2.6645 0
M  V30 14571 O 1346.54 1.62527 3.67353 0
M  V30 14572 N 1344.75 1.7227 2.34033 0
M  V30 14573 H 1344.3 2.07957 1.52025 0
M  V30 14574 H 1344.26 1.10031 2.94518 0
M  V30 14575 N 1348.03 0.0217466 1.57585 0
M  V30 14576 C 1349.27 -0.659463 1.91778 0
M  V30 14577 C 1349.61 -1.72201 0.897801 0
M  V30 14578 O 1348.88 -1.94333 -0.080509 0
M  V30 14579 C 1349.16 -1.28269 3.36481 0
M  V30 14580 C 1349.02 -0.230201 4.49211 0
M  V30 14581 C 1350.34 -2.20279 3.81005 0
M  V30 14582 H 1347.46 -0.238263 0.697424 0
M  V30 14583 H 1350.1 0.0774967 1.89842 0
M  V30 14584 H 1348.25 -1.9108 3.38262 0
M  V30 14585 H 1349.92 0.399901 4.59563 0
M  V30 14586 H 1348.16 0.445157 4.3151 0
M  V30 14587 H 1348.83 -0.705732 5.4747 0
M  V30 14588 H 1351.31 -1.67463 3.80914 0
M  V30 14589 H 1350.19 -2.60842 4.82962 0
M  V30 14590 H 1350.45 -3.09092 3.16093 0
M  V30 14591 N 1349.51 -1.55583 -0.251311 0
M  V30 14592 C 1350.92 -1.47908 -0.599606 0
M  V30 14593 C 1351.12 -0.711061 -1.88537 0
M  V30 14594 O 1350.18 -0.238639 -2.5137 0
M  V30 14595 C 1351.49 -2.92284 -0.706429 0
M  V30 14596 C 1353.04 -3.02629 -0.799049 0
M  V30 14597 C 1353.51 -4.48303 -0.93747 0
M  V30 14598 N 1355 -4.52222 -1.00245 0
M  V30 14599 C 1355.74 -5.62181 -1.12874 0
M  V30 14600 N 1355.24 -6.81958 -1.22085 0
M  V30 14601 N 1357.03 -5.49968 -1.16155 0
M  V30 14602 H 1349.18 -2.0396 0.592806 0
M  V30 14603 H 1351.44 -0.925797 0.203971 0
M  V30 14604 H 1351.15 -3.51297 0.168243 0
M  V30 14605 H 1351.02 -3.42524 -1.57979 0
M  V30 14606 H 1353.41 -2.43699 -1.66418 0
M  V30 14607 H 1353.49 -2.55607 0.099367 0
M  V30 14608 H 1353.13 -5.07842 -0.0769166 0
M  V30 14609 H 1353.06 -4.93002 -1.85086 0
M  V30 14610 H 1355.56 -3.65951 -0.94279 0
M  V30 14611 H 1355.87 -7.6151 -1.31616 0
M  V30 14612 H 1354.21 -6.84728 -1.1905 0
M  V30 14613 H 1357.4 -4.55327 -1.08604 0
M  V30 14614 H 1357.58 -6.35701 -1.25653 0
M  V30 14615 N 1350.98 0.516783 -1.48886 0
M  V30 14616 C 1352.4 0.84654 -1.35299 0
M  V30 14617 C 1352.6 1.97998 -0.374035 0
M  V30 14618 O 1351.66 2.51707 0.200003 0
M  V30 14619 C 1352.97 1.20162 -2.75648 0
M  V30 14620 C 1354.52 1.31074 -2.84233 0
M  V30 14621 C 1354.99 1.69919 -4.25313 0
M  V30 14622 N 1356.48 1.76998 -4.28049 0
M  V30 14623 C 1357.22 2.08466 -5.34162 0
M  V30 14624 N 1356.71 2.38268 -6.50538 0
M  V30 14625 N 1358.51 2.09584 -5.21566 0
M  V30 14626 H 1350.66 -0.230871 -2.11142 0
M  V30 14627 H 1352.92 -0.0406678 -0.947127 0
M  V30 14628 H 1352.63 0.442278 -3.48908 0
M  V30 14629 H 1352.5 2.14875 -3.10014 0
M  V30 14630 H 1354.89 2.06083 -2.1122 0
M  V30 14631 H 1354.97 0.344506 -2.5347 0
M  V30 14632 H 1354.61 0.954667 -4.98847 0
M  V30 14633 H 1354.54 2.67616 -4.5353 0
M  V30 14634 H 1357.03 1.56191 -3.44112 0
M  V30 14635 H 1357.35 2.61423 -7.2724 0
M  V30 14636 H 1355.69 2.35758 -6.53791 0
M  V30 14637 H 1358.88 1.85768 -4.2966 0
M  V30 14638 H 1359.06 2.33776 -6.04362 0
M  V30 14639 N 1352.46 1.37696 0.766659 0
M  V30 14640 C 1353.69 1.36564 1.56093 0
M  V30 14641 C 1354.11 -0.0455828 1.88045 0
M  V30 14642 O 1353.47 -1.02405 1.49609 0
M  V30 14643 C 1353.52 2.21592 2.84481 0
M  V30 14644 O 1352.62 1.62404 3.79076 0
M  V30 14645 H 1351.96 0.466394 0.472623 0
M  V30 14646 H 1354.49 1.81287 0.948486 0
M  V30 14647 H 1354.5 2.34987 3.33534 0
M  V30 14648 H 1353.18 3.24167 2.60554 0
M  V30 14649 H 1351.75 1.58078 3.37736 0
M  V30 14650 N 1353.94 -0.993397 1.22349 0
M  V30 14651 C 1355.19 -1.72707 1.04189 0
M  V30 14652 C 1355.5 -1.90963 -0.423381 0
M  V30 14653 O 1356.71 -2.61651 -0.724645 0
M  V30 14654 C 1355.16 -3.10739 1.81575 0
M  V30 14655 C 1354.77 -3.00415 3.32347 0
M  V30 14656 C 1356.52 -3.88155 1.71861 0
M  V30 14657 C 1354.42 -4.33598 4.02177 0
M  V30 14658 H 1353.35 -0.647556 0.386248 0
M  V30 14659 H 1356 -1.10902 1.46195 0
M  V30 14660 H 1354.39 -3.73222 1.32367 0
M  V30 14661 H 1355.56 -2.47099 3.88946 0
M  V30 14662 H 1353.87 -2.36482 3.42732 0
M  V30 14663 H 1356.47 -4.8673 2.21354 0
M  V30 14664 H 1356.81 -4.10726 0.678939 0
M  V30 14665 H 1357.35 -3.32347 2.18609 0
M  V30 14666 H 1354.09 -4.16226 5.06395 0
M  V30 14667 H 1353.61 -4.86829 3.50367 0
M  V30 14668 H 1355.29 -5.02348 4.07744 0
M  V30 14669 N 1355.42 -1.03311 -1.19015 0
M  V30 14670 C 1356.35 -0.575655 -2.21853 0
M  V30 14671 C 1357.36 0.350705 -1.58978 0
M  V30 14672 O 1358.55 0.146425 -1.77898 0
M  V30 14673 C 1355.65 0.179949 -3.38422 0
M  V30 14674 C 1354.82 -0.752403 -4.3088 0
M  V30 14675 C 1353.88 -0.0414484 -5.26184 0
M  V30 14676 O 1352.91 -0.669403 -5.6525 0
M  V30 14677 N 1354.11 1.22783 -5.67366 0
M  V30 14678 H 1356.88 -1.46013 -2.61726 0
M  V30 14679 H 1354.44 -0.912655 -1.33724 0
M  V30 14680 H 1356.43 0.66522 -3.99195 0
M  V30 14681 H 1355 0.965879 -2.97304 0
M  V30 14682 H 1354.22 -1.41768 -3.67825 0
M  V30 14683 H 1355.51 -1.38592 -4.89561 0
M  V30 14684 H 1354.91 1.75867 -5.37668 0
M  V30 14685 H 1353.46 1.65752 -6.30372 0
M  V30 14686 N 1356.9 1.35099 -0.81154 0
M  V30 14687 C 1358.14 1.98233 -0.393453 0
M  V30 14688 C 1358.46 1.64688 1.04417 0
M  V30 14689 O 1357.73 0.931845 1.72318 0
M  V30 14690 H 1356.31 0.733283 -0.142496 0
M  V30 14691 H 1358.98 1.6493 -1.03847 0
M  V30 14692 H 1358.07 3.08017 -0.503188 0
M  V30 14693 N 1358.37 0.56548 1.47106 0
M  V30 14694 C 1359.62 0.0445914 2.02751 0
M  V30 14695 C 1359.95 -1.30517 1.43801 0
M  V30 14696 O 1359.23 -1.85123 0.596646 0
M  V30 14697 C 1359.51 -0.0396474 3.60078 0
M  V30 14698 C 1359.36 1.3378 4.29445 0
M  V30 14699 C 1360.68 -0.748954 4.3368 0
M  V30 14700 H 1357.8 0.0176787 0.736788 0
M  V30 14701 H 1360.44 0.729363 1.75443 0
M  V30 14702 H 1358.59 -0.622826 3.83475 0
M  V30 14703 H 1360.27 1.96482 4.17364 0
M  V30 14704 H 1358.51 1.91024 3.89477 0
M  V30 14705 H 1359.18 1.23149 5.38088 0
M  V30 14706 H 1361.66 -0.253707 4.15326 0
M  V30 14707 H 1360.53 -0.776877 5.43374 0
M  V30 14708 H 1360.79 -1.80679 4.03494 0
M  V30 14709 N 1359.85 -1.54672 0.302354 0
M  V30 14710 C 1361.1 -1.99771 -0.305919 0
M  V30 14711 C 1361.42 -1.19225 -1.54306 0
M  V30 14712 O 1360.69 -0.288569 -1.93763 0
M  V30 14713 H 1359.27 -0.737934 -0.116026 0
M  V30 14714 H 1361.93 -1.90452 0.413997 0
M  V30 14715 H 1361.03 -3.06719 -0.577024 0
M  V30 14716 N 1361.33 -0.0301034 -1.57571 0
M  V30 14717 C 1362.28 0.960604 -2.06776 0
M  V30 14718 C 1363.26 1.28488 -0.968483 0
M  V30 14719 O 1364.46 1.27083 -1.23203 0
M  V30 14720 C 1361.59 2.24268 -2.59921 0
M  V30 14721 C 1360.67 1.94673 -3.7678 0
M  V30 14722 N 1361.06 1.3535 -4.87354 0
M  V30 14723 C 1359.36 2.24658 -3.85285 0
M  V30 14724 C 1360.06 1.22909 -5.68567 0
M  V30 14725 N 1359.04 1.72493 -5.15507 0
M  V30 14726 H 1362.84 0.496931 -2.89668 0
M  V30 14727 H 1360.35 0.174886 -1.61456 0
M  V30 14728 H 1362.35 2.96116 -2.93463 0
M  V30 14729 H 1361.01 2.71261 -1.78459 0
M  V30 14730 H 1362.02 1.02839 -5.07587 0
M  V30 14731 H 1358.7 2.74318 -3.14731 0
M  V30 14732 H 1360.09 0.7703 -6.6747 0
M  V30 14733 N 1362.81 1.55714 0.243056 0
M  V30 14734 C 1363.74 1.85615 1.32748 0
M  V30 14735 C 1364.72 0.711577 1.46203 0
M  V30 14736 O 1365.9 0.957732 1.62357 0
M  V30 14737 C 1363.03 2.04425 2.70052 0
M  V30 14738 C 1362.08 3.27071 2.73727 0
M  V30 14739 S 1362.91 4.83615 2.2995 0
M  V30 14740 C 1364.07 5.05434 3.69171 0
M  V30 14741 H 1364.3 2.77305 1.07187 0
M  V30 14742 H 1361.83 1.47871 0.444234 0
M  V30 14743 H 1363.79 2.15946 3.4911 0
M  V30 14744 H 1362.45 1.1357 2.92849 0
M  V30 14745 H 1361.64 3.37211 3.74573 0
M  V30 14746 H 1361.25 3.14296 2.02716 0
M  V30 14747 H 1363.54 4.93013 4.64698 0
M  V30 14748 H 1364.48 6.07401 3.63963 0
M  V30 14749 H 1364.89 4.33262 3.61862 0
M  V30 14750 N 1364.29 -0.50888 1.49158 0
M  V30 14751 C 1365.22 -1.62869 1.5984 0
M  V30 14752 C 1366.2 -1.56312 0.447809 0
M  V30 14753 O 1367.38 -1.76482 0.662292 0
M  V30 14754 C 1364.51 -3.01356 1.54603 0
M  V30 14755 C 1363.55 -3.26202 2.74763 0
M  V30 14756 S 1364.39 -3.10178 4.3652 0
M  V30 14757 C 1365.54 -4.51075 4.33915 0
M  V30 14758 H 1365.78 -1.53562 2.5457 0
M  V30 14759 H 1363.31 -0.693448 1.37952 0
M  V30 14760 H 1365.27 -3.81215 1.52267 0
M  V30 14761 H 1363.93 -3.08085 0.611737 0
M  V30 14762 H 1363.12 -4.27281 2.67296 0
M  V30 14763 H 1362.72 -2.54052 2.7447 0
M  V30 14764 H 1365.02 -5.4301 4.05149 0
M  V30 14765 H 1365.96 -4.63593 5.35245 0
M  V30 14766 H 1366.37 -4.31385 3.64097 0
M  V30 14767 N 1365.76 -1.381 -0.759346 0
M  V30 14768 C 1366.99 -1.37389 -1.55367 0
M  V30 14769 C 1367.41 0.0356097 -1.88066 0
M  V30 14770 O 1366.77 1.0161 -1.5015 0
M  V30 14771 C 1366.82 -2.23098 -2.83302 0
M  V30 14772 O 1365.92 -1.64412 -3.7821 0
M  V30 14773 H 1365.27 -0.468894 -0.470143 0
M  V30 14774 H 1367.8 -1.81787 -0.938858 0
M  V30 14775 H 1367.81 -2.36753 -3.32283 0
M  V30 14776 H 1366.48 -3.25544 -2.58831 0
M  V30 14777 H 1365.06 -1.59867 -3.36893 0
M  V30 14778 N 1367.24 0.986894 -1.22875 0
M  V30 14779 C 1368.47 1.76266 -1.08342 0
M  V30 14780 C 1368.89 1.85226 0.365602 0
M  V30 14781 O 1368.24 1.32675 1.25314 0
M  V30 14782 C 1368.29 3.19282 -1.69533 0
M  V30 14783 O 1368.01 3.10796 -3.08768 0
M  V30 14784 C 1369.52 4.13281 -1.60355 0
M  V30 14785 H 1366.74 0.553374 -0.379497 0
M  V30 14786 H 1369.28 1.24033 -1.62592 0
M  V30 14787 H 1367.43 3.68563 -1.19332 0
M  V30 14788 H 1367.85 4.0078 -3.38343 0
M  V30 14789 H 1369.32 5.11359 -2.07884 0
M  V30 14790 H 1369.8 4.356 -0.561182 0
M  V30 14791 H 1370.41 3.699 -2.09891 0
M  V30 14792 N 1368.72 1.0394 1.18466 0
M  V30 14793 C 1369.65 0.573814 2.20868 0
M  V30 14794 C 1370.63 -0.390956 1.5783 0
M  V30 14795 O 1371.82 -0.305561 1.86007 0
M  V30 14796 C 1368.94 -0.161904 3.38313 0
M  V30 14797 C 1367.99 0.755924 4.19748 0
M  V30 14798 S 1368.82 2.23809 4.86487 0
M  V30 14799 C 1369.98 1.51318 6.07333 0
M  V30 14800 H 1370.21 1.44143 2.60019 0
M  V30 14801 H 1367.74 0.850252 1.2888 0
M  V30 14802 H 1369.7 -0.58022 4.06379 0
M  V30 14803 H 1368.36 -1.00539 2.97575 0
M  V30 14804 H 1367.56 0.187345 5.03652 0
M  V30 14805 H 1367.16 1.11303 3.57054 0
M  V30 14806 H 1369.45 0.805536 6.72694 0
M  V30 14807 H 1370.39 2.32922 6.68695 0
M  V30 14808 H 1370.8 1.00607 5.55462 0
M  V30 14809 N 1370.2 -1.34667 0.818693 0
M  V30 14810 C 1371.44 -1.98708 0.405359 0
M  V30 14811 C 1371.78 -1.64767 -1.02788 0
M  V30 14812 O 1371.05 -0.91714 -1.71519 0
M  V30 14813 C 1371.34 -3.55016 0.602966 0
M  V30 14814 C 1371.19 -3.98713 2.08201 0
M  V30 14815 C 1372.51 -4.40085 0.0362489 0
M  V30 14816 H 1369.63 -0.721831 0.148756 0
M  V30 14817 H 1372.27 -1.59628 1.03047 0
M  V30 14818 H 1370.42 -3.88435 0.0708453 0
M  V30 14819 H 1372.09 -3.75647 2.67745 0
M  V30 14820 H 1370.33 -3.49179 2.57403 0
M  V30 14821 H 1371 -5.0751 2.17111 0
M  V30 14822 H 1373.48 -4.13195 0.490837 0
M  V30 14823 H 1372.36 -5.4852 0.204344 0
M  V30 14824 H 1372.62 -4.29243 -1.05845 0
M  V30 14825 N 1371.68 -0.573274 -1.46804 0
M  V30 14826 C 1372.61 0.153316 -2.32996 0
M  V30 14827 C 1373.59 0.893013 -1.44773 0
M  V30 14828 O 1374.77 0.870329 -1.73606 0
M  V30 14829 C 1371.9 1.1736 -3.2687 0
M  V30 14830 C 1370.86 0.549347 -4.2446 0
M  V30 14831 C 1370.18 1.67542 -5.07773 0
M  V30 14832 C 1371.48 -0.50736 -5.1983 0
M  V30 14833 H 1373.18 -0.566305 -2.93995 0
M  V30 14834 H 1370.72 -0.273785 -1.41373 0
M  V30 14835 H 1372.68 1.6902 -3.86019 0
M  V30 14836 H 1371.4 1.92337 -2.63958 0
M  V30 14837 H 1370.06 0.0539142 -3.6656 0
M  V30 14838 H 1369.71 2.41463 -4.41253 0
M  V30 14839 H 1369.41 1.26343 -5.73856 0
M  V30 14840 H 1370.93 2.19496 -5.69784 0
M  V30 14841 H 1372.34 -0.0762061 -5.73249 0
M  V30 14842 H 1370.74 -0.839139 -5.94204 0
M  V30 14843 H 1371.81 -1.39723 -4.64333 0
M  V30 14844 N 1373.15 1.5451 -0.310553 0
M  V30 14845 C 1374.38 2.05204 0.301013 0
M  V30 14846 C 1374.8 1.1859 1.46007 0
M  V30 14847 O 1374.16 0.192081 1.8028 0
M  V30 14848 C 1374.21 3.53221 0.725767 0
M  V30 14849 O 1373.31 3.69596 1.82955 0
M  V30 14850 H 1372.66 0.661566 0.0568026 0
M  V30 14851 H 1375.19 1.99473 -0.455178 0
M  V30 14852 H 1375.2 3.9525 1.01198 0
M  V30 14853 H 1373.87 4.15721 -0.122046 0
M  V30 14854 H 1372.45 3.39472 1.54315 0
M  V30 14855 N 1374.63 0.0384594 1.57553 0
M  V30 14856 C 1376.05 -0.318006 1.564 0
M  V30 14857 C 1376.25 -1.72287 1.04496 0
M  V30 14858 O 1375.31 -2.42722 0.695861 0
M  V30 14859 C 1376.62 -0.158079 3.00284 0
M  V30 14860 C 1378.17 -0.230143 3.12153 0
M  V30 14861 C 1378.64 -0.0988948 4.57893 0
M  V30 14862 N 1380.13 -0.15558 4.62939 0
M  V30 14863 C 1380.87 -0.077948 5.73347 0
M  V30 14864 N 1380.36 0.0513054 6.92781 0
M  V30 14865 N 1382.16 -0.132612 5.61944 0
M  V30 14866 H 1374.31 0.957014 1.89618 0
M  V30 14867 H 1376.57 0.370396 0.872646 0
M  V30 14868 H 1376.28 0.810032 3.42245 0
M  V30 14869 H 1376.15 -0.924413 3.65697 0
M  V30 14870 H 1378.54 -1.18872 2.70099 0
M  V30 14871 H 1378.62 0.56673 2.49443 0
M  V30 14872 H 1378.26 0.856301 5.00629 0
M  V30 14873 H 1378.19 -0.91475 5.18594 0
M  V30 14874 H 1380.68 -0.255245 3.77037 0
M  V30 14875 H 1381 0.103595 7.72731 0
M  V30 14876 H 1379.34 0.0862166 6.94947 0
M  V30 14877 H 1382.53 -0.232056 4.67524 0
M  V30 14878 H 1382.71 -0.0686506 6.47964 0
M  V30 14879 N 1376.11 -1.55841 -0.234795 0
M  V30 14880 C 1377.06 -1.91326 -1.29086 0
M  V30 14881 C 1378.03 -0.768868 -1.47233 0
M  V30 14882 O 1379.21 -1.0236 -1.61019 0
M  V30 14883 C 1376.35 -2.22388 -2.6389 0
M  V30 14884 C 1375.47 -3.49693 -2.5365 0
M  V30 14885 C 1374.6 -3.70267 -3.80889 0
M  V30 14886 C 1373.64 -4.91132 -3.65317 0
M  V30 14887 N 1372.78 -5.08163 -4.84474 0
M  V30 14888 H 1377.62 -2.81382 -0.981246 0
M  V30 14889 H 1375.15 -1.3928 -0.47324 0
M  V30 14890 H 1377.11 -2.38404 -3.42373 0
M  V30 14891 H 1375.74 -1.35521 -2.92974 0
M  V30 14892 H 1374.79 -3.41943 -1.66672 0
M  V30 14893 H 1376.11 -4.38326 -2.38059 0
M  V30 14894 H 1375.26 -3.86308 -4.67815 0
M  V30 14895 H 1374 -2.7989 -3.9939 0
M  V30 14896 H 1373 -4.75054 -2.76774 0
M  V30 14897 H 1374.23 -5.8298 -3.48298 0
M  V30 14898 H 1372.18 -4.20726 -5.03314 0
M  V30 14899 H 1372.09 -5.90904 -4.71559 0
M  V30 14900 H 1373.36 -5.28627 -5.72865 0
M  V30 14901 N 1377.59 0.500963 -1.49426 0
M  V30 14902 C 1378.52 1.6192 -1.62217 0
M  V30 14903 C 1379.53 1.54774 -0.504868 0
M  V30 14904 O 1380.72 1.60705 -0.776919 0
M  V30 14905 C 1377.82 3.0071 -1.56291 0
M  V30 14906 C 1377 3.3304 -2.83555 0
M  V30 14907 C 1376.06 4.51241 -2.7068 0
M  V30 14908 O 1375.08 4.53023 -3.44615 0
M  V30 14909 N 1376.28 5.51156 -1.82228 0
M  V30 14910 H 1379.05 1.51374 -2.58662 0
M  V30 14911 H 1376.61 0.688837 -1.46515 0
M  V30 14912 H 1378.6 3.77705 -1.45332 0
M  V30 14913 H 1377.17 3.0518 -0.677043 0
M  V30 14914 H 1376.39 2.44942 -3.08865 0
M  V30 14915 H 1377.68 3.51437 -3.67926 0
M  V30 14916 H 1377.08 5.52516 -1.21417 0
M  V30 14917 H 1375.63 6.27253 -1.77192 0
M  V30 14918 N 1379.07 1.38501 0.752011 0
M  V30 14919 C 1380.29 1.38212 1.54636 0
M  V30 14920 C 1380.72 -0.0256356 1.88083 0
M  V30 14921 O 1380.08 -1.00812 1.50687 0
M  V30 14922 C 1380.12 2.24597 2.82114 0
M  V30 14923 O 1379.23 1.66415 3.77332 0
M  V30 14924 H 1378.57 0.47138 0.46765 0
M  V30 14925 H 1381.1 1.82283 0.929205 0
M  V30 14926 H 1381.11 2.38511 3.31023 0
M  V30 14927 H 1379.78 3.26913 2.57101 0
M  V30 14928 H 1378.36 1.61651 3.36041 0
M  V30 14929 N 1380.55 -0.980364 1.23396 0
M  V30 14930 C 1381.79 -1.72421 1.06765 0
M  V30 14931 C 1382.12 -1.90151 -0.394515 0
M  V30 14932 O 1381.4 -1.4538 -1.29209 0
M  V30 14933 C 1381.68 -3.12246 1.79372 0
M  V30 14934 C 1381.54 -3.02087 3.33262 0
M  V30 14935 C 1382.85 -4.11667 1.55624 0
M  V30 14936 H 1379.97 -0.625822 0.389251 0
M  V30 14937 H 1382.62 -1.14132 1.51901 0
M  V30 14938 H 1380.77 -3.62008 1.41004 0
M  V30 14939 H 1382.44 -2.59848 3.81152 0
M  V30 14940 H 1380.68 -2.38592 3.62293 0
M  V30 14941 H 1381.35 -4.01087 3.79254 0
M  V30 14942 H 1383.83 -3.70712 1.88975 0
M  V30 14943 H 1382.7 -5.07593 2.08902 0
M  V30 14944 H 1382.96 -4.39358 0.491601 0
M  V30 14945 N 1382.02 -1.04567 -1.17913 0
M  V30 14946 C 1383.27 -0.752023 -1.88018 0
M  V30 14947 C 1383.6 0.720567 -1.8066 0
M  V30 14948 O 1382.85 1.54207 -1.20493 0
M  V30 14949 C 1383.15 -1.1699 -3.3771 0
M  V30 14950 C 1382.82 -2.64363 -3.65271 0
M  V30 14951 C 1381.48 -3.04622 -3.72503 0
M  V30 14952 C 1383.83 -3.59626 -3.77251 0
M  V30 14953 C 1381.16 -4.39023 -3.89199 0
M  V30 14954 C 1383.51 -4.93752 -3.95465 0
M  V30 14955 C 1382.18 -5.33675 -4.00933 0
M  V30 14956 H 1381.45 -0.275185 -0.688008 0
M  V30 14957 H 1384.09 -1.31161 -1.39532 0
M  V30 14958 H 1382.4 -0.529202 -3.8821 0
M  V30 14959 H 1384.1 -0.919981 -3.90304 0
M  V30 14960 H 1380.69 -2.32182 -3.60263 0
M  V30 14961 H 1384.87 -3.29665 -3.70992 0
M  V30 14962 H 1380.13 -4.69466 -3.91679 0
M  V30 14963 H 1384.3 -5.67467 -4.03676 0
M  V30 14964 H 1381.93 -6.37825 -4.13623 0
M  V30 14965 N 1383.5 1.34231 -0.825823 0
M  V30 14966 C 1384.73 2.02949 -0.427354 0
M  V30 14967 C 1385.15 1.61772 0.959755 0
M  V30 14968 O 1384.51 0.803799 1.62508 0
M  V30 14969 C 1384.56 3.56522 -0.540799 0
M  V30 14970 O 1383.66 4.10065 0.438213 0
M  V30 14971 H 1383 0.640378 -0.175535 0
M  V30 14972 H 1385.53 1.71416 -1.11704 0
M  V30 14973 H 1385.54 4.05857 -0.41763 0
M  V30 14974 H 1384.22 3.85839 -1.55246 0
M  V30 14975 H 1382.79 3.71894 0.273687 0
M  V30 14976 N 1384.98 0.581051 1.46498 0
M  V30 14977 C 1385.94 -0.142937 2.28754 0
M  V30 14978 C 1386.94 -0.820383 1.38298 0
M  V30 14979 O 1388.13 -0.672592 1.60692 0
M  V30 14980 C 1385.26 -1.21176 3.18637 0
M  V30 14981 H 1386.46 0.579918 2.9424 0
M  V30 14982 H 1384.01 0.338951 1.52581 0
M  V30 14983 H 1384.75 -1.96624 2.57894 0
M  V30 14984 H 1384.53 -0.730517 3.85235 0
M  V30 14985 H 1386.02 -1.71958 3.80552 0
M  V30 14986 N 1386.46 -1.54343 0.318742 0
M  V30 14987 C 1387.87 -1.85922 -0.170309 0
M  V30 14988 C 1388.22 -1.24047 -1.52009 0
M  V30 14989 O 1387.34 -0.544705 -2.09432 0
M  V30 14990 C 1387.94 -3.37325 -0.315802 0
M  V30 14991 C 1386.5 -3.68871 -0.749073 0
M  V30 14992 C 1385.65 -2.76985 0.13209 0
M  V30 14993 H 1388.6 -1.4926 0.539185 0
M  V30 14994 H 1388.62 -3.62784 -1.14751 0
M  V30 14995 H 1388.13 -3.8233 0.66674 0
M  V30 14996 H 1386.23 -3.29396 -1.74153 0
M  V30 14997 H 1386.34 -4.75861 -0.556164 0
M  V30 14998 H 1384.71 -2.51672 -0.391564 0
M  V30 14999 H 1385.49 -3.24815 1.11131 0
M  V30 15000 N 1387.94 -0.0468143 -1.5753 0
M  V30 15001 C 1389.16 0.641161 -1.97241 0
M  V30 15002 C 1389.59 1.6384 -0.92401 0
M  V30 15003 O 1388.94 1.80946 0.113229 0
M  V30 15004 C 1388.99 1.30832 -3.36029 0
M  V30 15005 O 1388.1 2.42394 -3.33645 0
M  V30 15006 H 1387.44 0.167035 -0.642647 0
M  V30 15007 H 1389.97 -0.113921 -2.04283 0
M  V30 15008 H 1389.98 1.66102 -3.72658 0
M  V30 15009 H 1388.65 0.57744 -4.11872 0
M  V30 15010 H 1387.23 2.09104 -3.08756 0
M  V30 15011 N 1389.41 1.55964 0.226527 0
M  V30 15012 C 1390.34 1.95028 1.284 0
M  V30 15013 C 1391.33 0.817833 1.49149 0
M  V30 15014 O 1392.51 1.07975 1.61416 0
M  V30 15015 C 1389.64 2.26266 2.63478 0
M  V30 15016 C 1388.59 3.41954 2.57393 0
M  V30 15017 C 1387.92 3.58786 3.96456 0
M  V30 15018 C 1389.22 4.77069 2.12608 0
M  V30 15019 H 1390.91 2.83608 0.959513 0
M  V30 15020 H 1388.46 1.36451 0.460125 0
M  V30 15021 H 1390.41 2.52186 3.3761 0
M  V30 15022 H 1389.14 1.34533 2.97604 0
M  V30 15023 H 1387.8 3.16076 1.85719 0
M  V30 15024 H 1387.44 2.64437 4.27881 0
M  V30 15025 H 1387.14 4.36595 3.93267 0
M  V30 15026 H 1388.67 3.87048 4.72256 0
M  V30 15027 H 1390.08 5.02226 2.76481 0
M  V30 15028 H 1388.48 5.58126 2.2049 0
M  V30 15029 H 1389.55 4.7276 1.07823 0
M  V30 15030 N 1390.89 -0.493031 1.4969 0
M  V30 15031 C 1392.12 -1.27517 1.63567 0
M  V30 15032 C 1392.54 -1.85526 0.310105 0
M  V30 15033 O 1391.9 -1.66246 -0.723314 0
M  V30 15034 C 1391.95 -2.37551 2.71296 0
M  V30 15035 O 1391.05 -3.41617 2.31023 0
M  V30 15036 H 1390.39 -0.376116 0.547205 0
M  V30 15037 H 1392.92 -0.589328 1.95929 0
M  V30 15038 H 1392.93 -2.83196 2.93708 0
M  V30 15039 H 1391.61 -1.94697 3.67513 0
M  V30 15040 H 1390.19 -3.01836 2.18974 0
M  V30 15041 N 1392.37 -1.38898 -0.744656 0
M  V30 15042 C 1393.33 -1.36633 -1.84022 0
M  V30 15043 C 1394.33 -0.265187 -1.58598 0
M  V30 15044 O 1395.52 -0.522569 -1.66177 0
M  V30 15045 C 1392.66 -1.12938 -3.21649 0
M  V30 15046 H 1393.85 -2.34111 -1.87435 0
M  V30 15047 H 1391.4 -1.24322 -0.947302 0
M  V30 15048 H 1392.14 -0.161027 -3.239 0
M  V30 15049 H 1391.92 -1.9267 -3.41498 0
M  V30 15050 H 1393.41 -1.14071 -4.01718 0
M  V30 15051 N 1393.85 0.973806 -1.23914 0
M  V30 15052 C 1395.1 1.71259 -1.07307 0
M  V30 15053 C 1395.42 1.91064 0.389831 0
M  V30 15054 O 1394.69 1.48401 1.27883 0
M  V30 15055 H 1393.27 0.634588 -0.39409 0
M  V30 15056 H 1395.93 1.17184 -1.55737 0
M  V30 15057 H 1395.03 2.69953 -1.56626 0
M  V30 15058 N 1395.33 1.05191 1.17357 0
M  V30 15059 C 1396.29 0.65713 2.19578 0
M  V30 15060 C 1397.29 -0.29138 1.58138 0
M  V30 15061 O 1398.48 -0.075254 1.74037 0
M  V30 15062 C 1395.61 -0.0348162 3.40882 0
M  V30 15063 H 1396.8 1.56188 2.56018 0
M  V30 15064 H 1394.36 0.845795 1.31438 0
M  V30 15065 H 1395.09 -0.952835 3.09986 0
M  V30 15066 H 1394.88 0.647076 3.86724 0
M  V30 15067 H 1396.37 -0.297135 4.16542 0
M  V30 15068 N 1396.8 -1.33791 0.83293 0
M  V30 15069 C 1398.03 -2.0272 0.438111 0
M  V30 15070 C 1398.45 -1.62279 -0.951163 0
M  V30 15071 O 1397.81 -0.812406 -1.62079 0
M  V30 15072 C 1397.86 -3.5623 0.559698 0
M  V30 15073 O 1396.96 -4.10292 -0.41646 0
M  V30 15074 H 1396.31 -0.639438 0.178928 0
M  V30 15075 H 1398.84 -1.70821 1.12612 0
M  V30 15076 H 1398.85 -4.0563 0.439148 0
M  V30 15077 H 1397.52 -3.8501 1.5729 0
M  V30 15078 H 1396.1 -3.72034 -0.25396 0
M  V30 15079 N 1398.28 -0.588812 -1.46187 0
M  V30 15080 C 1399.25 0.130803 -2.28826 0
M  V30 15081 C 1400.25 0.813037 -1.38731 0
M  V30 15082 O 1401.44 0.664061 -1.61046 0
M  V30 15083 C 1398.57 1.19484 -3.19275 0
M  V30 15084 H 1399.76 -0.595514 -2.93928 0
M  V30 15085 H 1397.31 -0.347038 -1.52399 0
M  V30 15086 H 1398.05 1.95254 -2.58933 0
M  V30 15087 H 1397.83 0.710077 -3.85617 0
M  V30 15088 H 1399.32 1.69938 -3.81459 0
M  V30 15089 N 1399.76 1.54172 -0.326923 0
M  V30 15090 C 1400.72 2.2311 0.524855 0
M  V30 15091 C 1401.72 1.22567 1.04087 0
M  V30 15092 O 1402.91 1.47123 0.932759 0
M  V30 15093 C 1400.05 2.93778 1.72937 0
M  V30 15094 H 1401.24 2.99799 -0.0778327 0
M  V30 15095 H 1398.79 1.56105 -0.0780484 0
M  V30 15096 H 1399.53 2.21234 2.3712 0
M  V30 15097 H 1399.31 3.67509 1.36674 0
M  V30 15098 H 1400.8 3.46292 2.33392 0
M  V30 15099 N 1401.24 0.0551678 1.57503 0
M  V30 15100 C 1402.15 -0.932959 2.15251 0
M  V30 15101 C 1403.16 -1.33885 1.11134 0
M  V30 15102 O 1404.34 -1.41495 1.43321 0
M  V30 15103 C 1401.41 -2.18807 2.68932 0
M  V30 15104 C 1400.47 -1.84016 3.87862 0
M  V30 15105 C 1399.7 -3.03543 4.38973 0
M  V30 15106 O 1399.92 -4.17041 3.89144 0
M  V30 15107 O 1398.86 -2.84325 5.30512 0
M  V30 15108 H 1402.68 -0.471816 3.00013 0
M  V30 15109 H 1400.27 -0.16696 1.48464 0
M  V30 15110 H 1402.15 -2.92439 3.0341 0
M  V30 15111 H 1400.82 -2.64051 1.87239 0
M  V30 15112 H 1399.73 -1.07687 3.58266 0
M  V30 15113 H 1401.06 -1.43567 4.70796 0
M  V30 15114 N 1402.72 -1.56081 -0.218252 0
M  V30 15115 C 1404.13 -1.69397 -0.784964 0
M  V30 15116 C 1404.48 -0.65775 -1.84846 0
M  V30 15117 O 1403.6 0.190478 -2.1556 0
M  V30 15118 C 1404.2 -3.07114 -1.4306 0
M  V30 15119 C 1402.76 -3.22273 -1.94466 0
M  V30 15120 C 1401.9 -2.65327 -0.80604 0
M  V30 15121 H 1404.86 -1.58699 0.0064566 0
M  V30 15122 H 1404.88 -3.03156 -2.2995 0
M  V30 15123 H 1404.39 -3.8251 -0.656335 0
M  V30 15124 H 1402.49 -2.51752 -2.74684 0
M  V30 15125 H 1402.6 -4.29526 -2.12237 0
M  V30 15126 H 1400.97 -2.23894 -1.21423 0
M  V30 15127 H 1401.75 -3.43271 -0.0443928 0
M  V30 15128 N 1404.2 0.485086 -1.49949 0
M  V30 15129 C 1405.13 1.59312 -1.7071 0
M  V30 15130 C 1406.11 1.6076 -0.555896 0
M  V30 15131 O 1407.29 1.77249 -0.793504 0
M  V30 15132 C 1404.42 2.97718 -1.78834 0
M  V30 15133 C 1403.38 3.11136 -2.93902 0
M  V30 15134 C 1402.7 4.51051 -2.87154 0
M  V30 15135 C 1404 2.89665 -4.34617 0
M  V30 15136 H 1405.7 1.42192 -2.6348 0
M  V30 15137 H 1403.24 0.68262 -1.26792 0
M  V30 15138 H 1405.19 3.75148 -1.91943 0
M  V30 15139 H 1403.92 3.15963 -0.826744 0
M  V30 15140 H 1402.58 2.36135 -2.80421 0
M  V30 15141 H 1402.23 4.66195 -1.88869 0
M  V30 15142 H 1401.93 4.60967 -3.64394 0
M  V30 15143 H 1403.45 5.3052 -3.02293 0
M  V30 15144 H 1404.86 3.56853 -4.48697 0
M  V30 15145 H 1403.26 3.11039 -5.13201 0
M  V30 15146 H 1404.33 1.85642 -4.47956 0
M  V30 15147 N 1405.67 1.39291 0.737279 0
M  V30 15148 C 1406.95 1.26901 1.48847 0
M  V30 15149 C 1407.33 -0.122417 2.10745 0
M  V30 15150 O 1406.68 -1.13343 1.98408 0
M  V30 15151 C 1406.89 2.3916 2.54172 0
M  V30 15152 C 1408.24 2.78368 3.20619 0
M  V30 15153 O 1409.26 2.38593 2.64484 0
M  V30 15154 O 1408.12 3.47014 4.22189 0
M  V30 15155 H 1405.21 0.497176 0.660867 0
M  V30 15156 H 1407.76 1.51159 0.771299 0
M  V30 15157 H 1406.53 3.3219 2.06797 0
M  V30 15158 H 1406.15 2.16555 3.33451 0
M  V30 15159 N 1407.15 -0.967221 1.24429 0
M  V30 15160 C 1408.57 -1.23594 1.00979 0
M  V30 15161 C 1408.77 -1.99529 -0.281112 0
M  V30 15162 O 1407.82 -2.31977 -0.997139 0
M  V30 15163 C 1409.14 -2.02261 2.22511 0
M  V30 15164 C 1410.68 -2.15352 2.2714 0
M  V30 15165 C 1411.16 -2.97414 3.48294 0
M  V30 15166 N 1412.65 -3.04996 3.48614 0
M  V30 15167 C 1413.39 -3.68851 4.39017 0
M  V30 15168 N 1412.88 -4.34421 5.39676 0
M  V30 15169 N 1414.67 -3.65868 4.26728 0
M  V30 15170 H 1406.83 -0.458881 2.07384 0
M  V30 15171 H 1409.09 -0.265411 0.910088 0
M  V30 15172 H 1408.79 -1.53852 3.16263 0
M  V30 15173 H 1408.67 -3.02993 2.24667 0
M  V30 15174 H 1411.06 -2.62964 1.33919 0
M  V30 15175 H 1411.14 -1.13966 2.2901 0
M  V30 15176 H 1410.78 -2.50495 4.41831 0
M  V30 15177 H 1410.71 -3.98998 3.43668 0
M  V30 15178 H 1413.2 -2.58354 2.75793 0
M  V30 15179 H 1413.51 -4.80965 6.04891 0
M  V30 15180 H 1411.86 -4.33089 5.43562 0
M  V30 15181 H 1415.05 -3.13819 3.47325 0
M  V30 15182 H 1415.22 -4.15349 4.97382 0
M  V30 15183 N 1408.63 -1.05812 -1.16797 0
M  V30 15184 C 1409.85 -0.792518 -1.91661 0
M  V30 15185 C 1410.28 0.646598 -1.76637 0
M  V30 15186 O 1409.64 1.44998 -1.08836 0
M  V30 15187 C 1409.69 -1.18585 -3.40544 0
M  V30 15188 O 1408.79 -0.321716 -4.11143 0
M  V30 15189 H 1408.13 -0.290066 -0.597292 0
M  V30 15190 H 1410.66 -1.41263 -1.48007 0
M  V30 15191 H 1410.67 -1.1553 -3.91301 0
M  V30 15192 H 1409.35 -2.23413 -3.50798 0
M  V30 15193 H 1407.92 -0.413403 -3.70601 0
M  V30 15194 N 1410.11 1.33347 -0.840014 0
M  V30 15195 C 1411.05 2.29191 -0.272048 0
M  V30 15196 C 1412.02 1.54383 0.612787 0
M  V30 15197 O 1413.21 1.82676 0.550812 0
M  V30 15198 C 1410.35 3.40755 0.545901 0
M  V30 15199 C 1409.46 4.30471 -0.363084 0
M  V30 15200 C 1408.6 5.29151 0.466078 0
M  V30 15201 C 1407.64 6.10508 -0.441225 0
M  V30 15202 N 1406.77 7.01228 0.349877 0
M  V30 15203 H 1411.61 2.77166 -1.09467 0
M  V30 15204 H 1409.15 1.36379 -0.551284 0
M  V30 15205 H 1411.11 4.04142 1.03562 0
M  V30 15206 H 1409.74 2.9397 1.33348 0
M  V30 15207 H 1408.79 3.67795 -0.971119 0
M  V30 15208 H 1410.1 4.87406 -1.06002 0
M  V30 15209 H 1409.26 5.98072 1.01957 0
M  V30 15210 H 1408 4.72796 1.19644 0
M  V30 15211 H 1407 5.40504 -1.00672 0
M  V30 15212 H 1408.23 6.68946 -1.16997 0
M  V30 15213 H 1406.17 6.4732 1.0636 0
M  V30 15214 H 1406.09 7.5545 -0.288317 0
M  V30 15215 H 1407.36 7.74453 0.885573 0
M  V30 15216 N 1411.59 0.596556 1.45873 0
M  V30 15217 C 1412.83 0.0874583 2.02311 0
M  V30 15218 C 1413.16 -1.27781 1.46636 0
M  V30 15219 O 1412.42 -1.85393 0.62674 0
M  V30 15220 C 1412.71 -0.0135714 3.57397 0
M  V30 15221 C 1412.38 1.28591 4.32175 0
M  V30 15222 C 1411.04 1.6419 4.52322 0
M  V30 15223 C 1413.39 2.14523 4.75005 0
M  V30 15224 C 1410.72 2.85493 5.12553 0
M  V30 15225 C 1413.07 3.35065 5.36577 0
M  V30 15226 C 1411.74 3.70929 5.54949 0
M  V30 15227 H 1411.01 0.0320033 0.740309 0
M  V30 15228 H 1413.66 0.775967 1.75074 0
M  V30 15229 H 1411.96 -0.785287 3.8385 0
M  V30 15230 H 1413.66 -0.423456 3.98758 0
M  V30 15231 H 1410.25 0.99881 4.16799 0
M  V30 15232 H 1414.43 1.88321 4.59183 0
M  V30 15233 H 1409.69 3.134 5.24967 0
M  V30 15234 H 1413.86 4.01909 5.6872 0
M  V30 15235 H 1411.49 4.65011 6.01389 0
M  V30 15236 N 1413.06 -1.53996 0.335095 0
M  V30 15237 C 1413.97 -2.28436 -0.534244 0
M  V30 15238 C 1414.99 -1.33224 -1.11926 0
M  V30 15239 O 1416.17 -1.66252 -1.13676 0
M  V30 15240 C 1413.23 -3.03634 -1.67354 0
M  V30 15241 C 1412.29 -4.14455 -1.11916 0
M  V30 15242 C 1411.52 -4.86058 -2.20416 0
M  V30 15243 O 1411.75 -4.57263 -3.40979 0
M  V30 15244 O 1410.68 -5.72704 -1.85185 0
M  V30 15245 H 1414.51 -3.03618 0.0706314 0
M  V30 15246 H 1412.09 -1.49062 0.100409 0
M  V30 15247 H 1413.97 -3.50687 -2.33659 0
M  V30 15248 H 1412.65 -2.31317 -2.26438 0
M  V30 15249 H 1411.56 -3.71725 -0.420871 0
M  V30 15250 H 1412.89 -4.8885 -0.573295 0
M  V30 15251 N 1414.54 -0.0635198 -1.57472 0
M  V30 15252 C 1415.45 0.921531 -2.15743 0
M  V30 15253 C 1416.47 1.33294 -1.11842 0
M  V30 15254 O 1417.64 1.40733 -1.4407 0
M  V30 15255 C 1414.71 2.17378 -2.70088 0
M  V30 15256 C 1413.77 1.81956 -3.88832 0
M  V30 15257 C 1413 3.01211 -4.40577 0
M  V30 15258 O 1413.23 4.14971 -3.9135 0
M  V30 15259 O 1412.16 2.81507 -5.32012 0
M  V30 15260 H 1415.99 0.455899 -3.00259 0
M  V30 15261 H 1413.57 0.159085 -1.48551 0
M  V30 15262 H 1415.45 2.90826 -3.04956 0
M  V30 15263 H 1414.13 2.63055 -1.88637 0
M  V30 15264 H 1413.03 1.05786 -3.58832 0
M  V30 15265 H 1414.37 1.41069 -4.71551 0
M  V30 15266 N 1416.02 1.56195 0.209972 0
M  V30 15267 C 1416.97 1.94226 1.27981 0
M  V30 15268 C 1417.96 0.825742 1.47912 0
M  V30 15269 O 1419.17 1.01066 1.48949 0
M  V30 15270 H 1415.54 0.617395 0.429333 0
M  V30 15271 H 1417.51 2.83474 0.931946 0
M  V30 15272 C 1416.26 2.28527 2.62051 0
M  V30 15273 H 1415.59 3.1396 2.47526 0
M  V30 15274 H 1417.03 2.59012 3.35692 0
M  V30 15275 C 1415.48 1.11452 3.17931 0
M  V30 15276 O 1416.01 0.381713 3.99882 0
M  V30 15277 N 1414.22 0.895263 2.76466 0
M  V30 15278 H 1413.77 1.4929 2.09929 0
M  V30 15279 H 1413.73 0.113688 3.14194 0
M  V30 15280 N 1417.5 -0.477127 1.50204 0
M  V30 15281 C 1418.41 -1.60182 1.71403 0
M  V30 15282 C 1419.42 -1.63437 0.597009 0
M  V30 15283 O 1420.6 -1.81418 0.874614 0
M  V30 15284 C 1417.66 -2.96432 1.79802 0
M  V30 15285 C 1416.73 -3.03614 3.03508 0
M  V30 15286 C 1415.96 -4.33365 3.11497 0
M  V30 15287 O 1416.18 -5.23529 2.26438 0
M  V30 15288 O 1415.12 -4.46013 4.04173 0
M  V30 15289 H 1418.94 -1.45221 2.66729 0
M  V30 15290 H 1416.53 -0.655982 1.34228 0
M  V30 15291 H 1418.41 -3.77367 1.87542 0
M  V30 15292 H 1417.08 -3.11605 0.876581 0
M  V30 15293 H 1415.99 -2.21779 3.01272 0
M  V30 15294 H 1417.32 -2.93376 3.95211 0
M  V30 15295 N 1418.98 -1.3968 -0.729882 0
M  V30 15296 C 1420.25 -1.27689 -1.48172 0
M  V30 15297 C 1420.63 0.111239 -2.10807 0
M  V30 15298 O 1419.98 1.12289 -1.99006 0
M  V30 15299 C 1420.19 -2.40505 -2.529 0
M  V30 15300 C 1421.54 -2.80064 -3.19138 0
M  V30 15301 O 1422.56 -2.39992 -2.63215 0
M  V30 15302 O 1421.42 -3.49248 -4.20342 0
M  V30 15303 H 1418.52 -0.500674 -0.658221 0
M  V30 15304 H 1421.06 -1.51566 -0.763272 0
M  V30 15305 H 1419.83 -3.33282 -2.05033 0
M  V30 15306 H 1419.46 -2.1832 -3.32298 0
M  V30 15307 N 1420.45 0.960609 -1.2494 0
M  V30 15308 C 1421.7 1.69884 -1.08731 0
M  V30 15309 C 1422.02 1.92018 0.372602 0
M  V30 15310 O 1423.22 2.6348 0.655018 0
M  V30 15311 C 1421.68 3.05815 -1.8975 0
M  V30 15312 C 1421.29 2.91498 -3.40196 0
M  V30 15313 C 1423.03 3.83462 -1.82092 0
M  V30 15314 C 1420.94 4.22783 -4.13532 0
M  V30 15315 H 1419.87 0.637087 -0.403281 0
M  V30 15316 H 1422.52 1.06987 -1.49084 0
M  V30 15317 H 1420.9 3.69582 -1.42216 0
M  V30 15318 H 1422.07 2.367 -3.9536 0
M  V30 15319 H 1420.39 2.27312 -3.48882 0
M  V30 15320 H 1422.99 4.8069 -2.34181 0
M  V30 15321 H 1423.33 4.08782 -0.787597 0
M  V30 15322 H 1423.86 3.26435 -2.27344 0
M  V30 15323 H 1420.6 4.02653 -5.17253 0
M  V30 15324 H 1420.12 4.77369 -3.63152 0
M  V30 15325 H 1421.8 4.91361 -4.2092 0
M  V30 15326 N 1421.93 1.0643 1.16234 0
M  V30 15327 C 1423.18 0.782998 1.87075 0
M  V30 15328 C 1423.51 -0.688852 1.81572 0
M  V30 15329 O 1422.79 -1.50478 1.23234 0
M  V30 15330 C 1423.07 1.27997 3.36584 0
M  V30 15331 C 1422.92 2.81568 3.5077 0
M  V30 15332 C 1424.24 0.888975 4.31028 0
M  V30 15333 H 1421.36 0.28591 0.679282 0
M  V30 15334 H 1424 1.32046 1.36615 0
M  V30 15335 H 1422.15 0.822756 3.79688 0
M  V30 15336 H 1423.82 3.35508 3.16595 0
M  V30 15337 H 1422.07 3.2023 2.92635 0
M  V30 15338 H 1422.74 3.11406 4.55774 0
M  V30 15339 H 1425.21 1.28279 3.95833 0
M  V30 15340 H 1424.09 1.26416 5.34144 0
M  V30 15341 H 1424.35 -0.205973 4.4162 0
M  V30 15342 N 1423.41 -1.329 0.847073 0
M  V30 15343 C 1424.66 -1.97803 0.447417 0
M  V30 15344 C 1424.99 -1.6691 -0.9927 0
M  V30 15345 O 1424.26 -0.953315 -1.69535 0
M  V30 15346 C 1424.55 -3.53657 0.678135 0
M  V30 15347 C 1424.4 -3.94207 2.16612 0
M  V30 15348 C 1425.72 -4.39909 0.129589 0
M  V30 15349 H 1422.84 -0.718514 0.164034 0
M  V30 15350 H 1425.48 -1.57407 1.0641 0
M  V30 15351 H 1423.63 -3.88198 0.153222 0
M  V30 15352 H 1425.3 -3.69883 2.75653 0
M  V30 15353 H 1423.55 -3.43641 2.64752 0
M  V30 15354 H 1424.22 -5.02791 2.27827 0
M  V30 15355 H 1426.69 -4.12061 0.578371 0
M  V30 15356 H 1425.57 -5.47963 0.320648 0
M  V30 15357 H 1425.83 -4.31391 -0.967167 0
M  V30 15358 N 1424.89 -0.604284 -1.45555 0
M  V30 15359 C 1425.82 0.165286 -2.27601 0
M  V30 15360 C 1426.8 0.876749 -1.36937 0
M  V30 15361 O 1427.98 0.886288 -1.66365 0
M  V30 15362 C 1425.11 1.23897 -3.15226 0
M  V30 15363 C 1424.16 0.631002 -4.21806 0
M  V30 15364 S 1424.99 -0.558612 -5.32578 0
M  V30 15365 C 1426.15 0.515745 -6.23772 0
M  V30 15366 H 1426.38 -0.53081 -2.92523 0
M  V30 15367 H 1423.91 -0.391717 -1.49348 0
M  V30 15368 H 1425.87 1.85358 -3.66268 0
M  V30 15369 H 1424.53 1.90712 -2.49575 0
M  V30 15370 H 1423.72 1.43876 -4.83028 0
M  V30 15371 H 1423.33 0.0915984 -3.73888 0
M  V30 15372 H 1425.62 1.39571 -6.62968 0
M  V30 15373 H 1426.56 -0.0602302 -7.08074 0
M  V30 15374 H 1426.97 0.829588 -5.58371 0
M  V30 15375 N 1426.37 1.53816 -0.343257 0
M  V30 15376 C 1427.28 2.28716 0.522121 0
M  V30 15377 C 1428.29 1.33815 1.11218 0
M  V30 15378 O 1429.47 1.66853 1.12793 0
M  V30 15379 C 1426.53 3.04517 1.65741 0
M  V30 15380 C 1425.59 4.15043 1.09716 0
M  V30 15381 C 1424.83 4.8722 2.17835 0
M  V30 15382 O 1425.05 4.59065 3.38549 0
M  V30 15383 O 1423.98 5.73678 1.82145 0
M  V30 15384 H 1427.81 3.03576 -0.086732 0
M  V30 15385 H 1425.4 1.49007 -0.108313 0
M  V30 15386 H 1427.28 3.51921 2.31796 0
M  V30 15387 H 1425.95 2.32514 2.25208 0
M  V30 15388 H 1424.86 3.71943 0.401152 0
M  V30 15389 H 1426.19 4.89147 0.547362 0
M  V30 15390 N 1427.84 0.0718701 1.57436 0
M  V30 15391 C 1429.07 -0.606253 1.97819 0
M  V30 15392 C 1429.49 -1.63144 0.950233 0
M  V30 15393 O 1428.84 -1.82391 -0.0631051 0
M  V30 15394 C 1428.9 -1.27476 3.38278 0
M  V30 15395 O 1428.62 -0.290603 4.37135 0
M  V30 15396 C 1430.12 -2.0407 3.93536 0
M  V30 15397 H 1427.34 -0.164305 0.650573 0
M  V30 15398 H 1429.88 0.144295 2.0399 0
M  V30 15399 H 1428.04 -1.97639 3.33193 0
M  V30 15400 H 1428.45 -0.77022 5.18814 0
M  V30 15401 H 1429.92 -2.46237 4.94036 0
M  V30 15402 H 1430.4 -2.89728 3.30083 0
M  V30 15403 H 1431.01 -1.38773 4.02022 0
M  V30 15404 N 1429.32 -1.56304 -0.201686 0
M  V30 15405 C 1430.27 -1.94021 -1.24999 0
M  V30 15406 C 1431.24 -0.799926 -1.45569 0
M  V30 15407 O 1432.42 -1.05752 -1.58811 0
M  V30 15408 C 1429.56 -2.27935 -2.59113 0
M  V30 15409 C 1428.68 -3.54995 -2.46176 0
M  V30 15410 C 1427.81 -3.78262 -3.72949 0
M  V30 15411 C 1426.85 -4.9877 -3.54817 0
M  V30 15412 N 1425.99 -5.18325 -4.73586 0
M  V30 15413 H 1430.83 -2.834 -0.92134 0
M  V30 15414 H 1428.37 -1.40252 -0.44359 0
M  V30 15415 H 1430.32 -2.45613 -3.37239 0
M  V30 15416 H 1428.95 -1.41705 -2.90034 0
M  V30 15417 H 1428.01 -3.45401 -1.59381 0
M  V30 15418 H 1429.32 -4.43277 -2.28708 0
M  V30 15419 H 1428.47 -3.96144 -4.59516 0
M  V30 15420 H 1427.21 -2.88299 -3.93364 0
M  V30 15421 H 1426.22 -4.80818 -2.66635 0
M  V30 15422 H 1427.44 -5.90237 -3.35854 0
M  V30 15423 H 1425.39 -4.31308 -4.94277 0
M  V30 15424 H 1425.3 -6.00774 -4.58919 0
M  V30 15425 H 1426.57 -5.40659 -5.61523 0
M  V30 15426 N 1430.8 0.469154 -1.50455 0
M  V30 15427 C 1431.73 1.57493 -1.7239 0
M  V30 15428 C 1432.71 1.60161 -0.572915 0
M  V30 15429 O 1433.9 1.76397 -0.812259 0
M  V30 15430 C 1431.03 2.95804 -1.81981 0
M  V30 15431 C 1429.98 3.08001 -2.97185 0
M  V30 15432 C 1429.31 4.4798 -2.91922 0
M  V30 15433 C 1430.61 2.85039 -4.37665 0
M  V30 15434 H 1432.3 1.39389 -2.64974 0
M  V30 15435 H 1429.85 0.669133 -1.27509 0
M  V30 15436 H 1431.8 3.73091 -1.95911 0
M  V30 15437 H 1430.52 3.15068 -0.86021 0
M  V30 15438 H 1429.18 2.33148 -2.82909 0
M  V30 15439 H 1428.83 4.64165 -1.93803 0
M  V30 15440 H 1428.53 4.57076 -3.69263 0
M  V30 15441 H 1430.05 5.27284 -3.07903 0
M  V30 15442 H 1431.47 3.52074 -4.52456 0
M  V30 15443 H 1429.87 3.05578 -5.16471 0
M  V30 15444 H 1430.94 1.8088 -4.499 0
M  V30 15445 N 1432.28 1.40065 0.722464 0
M  V30 15446 C 1433.23 1.39784 1.83655 0
M  V30 15447 C 1434.2 0.255743 1.64119 0
M  V30 15448 O 1435.38 0.452766 1.8535 0
M  V30 15449 C 1432.52 1.25946 3.21297 0
M  V30 15450 C 1431.63 2.49805 3.52451 0
M  V30 15451 C 1430.77 2.2846 4.79562 0
M  V30 15452 C 1429.81 3.4793 5.03598 0
M  V30 15453 N 1428.94 3.25823 6.21919 0
M  V30 15454 H 1433.78 2.35013 1.83229 0
M  V30 15455 H 1431.32 1.16728 0.895154 0
M  V30 15456 H 1433.28 1.15931 4.00769 0
M  V30 15457 H 1431.91 0.343402 3.20968 0
M  V30 15458 H 1430.96 2.70375 2.67585 0
M  V30 15459 H 1432.27 3.38753 3.66126 0
M  V30 15460 H 1431.43 2.15758 5.67039 0
M  V30 15461 H 1430.17 1.36926 4.68084 0
M  V30 15462 H 1429.17 3.61116 4.14579 0
M  V30 15463 H 1430.4 4.40382 5.16953 0
M  V30 15464 H 1428.34 2.36965 6.11705 0
M  V30 15465 H 1428.26 4.08333 6.36239 0
M  V30 15466 H 1429.53 3.16841 7.12202 0
M  V30 15467 N 1433.76 -0.95397 1.25448 0
M  V30 15468 C 1435.01 -1.69305 1.09631 0
M  V30 15469 C 1435.32 -1.92213 -0.362413 0
M  V30 15470 O 1436.53 -2.63824 -0.641036 0
M  V30 15471 C 1434.98 -3.04805 1.91369 0
M  V30 15472 C 1434.59 -2.8969 3.41737 0
M  V30 15473 C 1436.33 -3.82491 1.84123 0
M  V30 15474 C 1434.24 -4.20584 4.15768 0
M  V30 15475 H 1433.17 -0.63494 0.406654 0
M  V30 15476 H 1435.82 -1.06195 1.49649 0
M  V30 15477 H 1434.2 -3.68822 1.44174 0
M  V30 15478 H 1435.38 -2.346 3.9661 0
M  V30 15479 H 1433.69 -2.25458 3.50082 0
M  V30 15480 H 1436.29 -4.79442 2.36727 0
M  V30 15481 H 1436.63 -4.08358 0.809265 0
M  V30 15482 H 1437.17 -3.25224 2.29072 0
M  V30 15483 H 1433.9 -3.99905 5.19381 0
M  V30 15484 H 1433.42 -4.75436 3.65678 0
M  V30 15485 H 1435.1 -4.89122 4.2352 0
M  V30 15486 N 1435.24 -1.07045 -1.15668 0
M  V30 15487 C 1436.17 -0.709413 -2.22463 0
M  V30 15488 C 1437.15 0.30169 -1.67403 0
M  V30 15489 O 1438.33 0.175131 -1.93409 0
M  V30 15490 C 1435.46 -0.103121 -3.47147 0
M  V30 15491 C 1434.42 -1.04103 -4.15146 0
M  V30 15492 C 1433.74 -0.297656 -5.33871 0
M  V30 15493 C 1435.04 -2.37332 -4.65264 0
M  V30 15494 H 1436.74 -1.60227 -2.52918 0
M  V30 15495 H 1434.28 -0.771846 -1.21567 0
M  V30 15496 H 1436.23 0.161371 -4.21091 0
M  V30 15497 H 1434.96 0.824792 -3.16014 0
M  V30 15498 H 1433.62 -1.2904 -3.43139 0
M  V30 15499 H 1433.27 0.633618 -4.98993 0
M  V30 15500 H 1432.97 -0.922789 -5.80309 0
M  V30 15501 H 1434.49 -0.0408892 -6.10586 0
M  V30 15502 H 1435.9 -2.1674 -5.30751 0
M  V30 15503 H 1434.3 -2.95412 -5.22352 0
M  V30 15504 H 1435.37 -2.99859 -3.81068 0
M  V30 15505 N 1436.71 1.32449 -0.85411 0
M  V30 15506 C 1437.62 2.32658 -0.301221 0
M  V30 15507 C 1438.64 1.64025 0.580673 0
M  V30 15508 O 1439.82 1.95568 0.481172 0
M  V30 15509 C 1436.88 3.43049 0.501803 0
M  V30 15510 C 1435.94 4.27374 -0.406166 0
M  V30 15511 C 1435.17 5.32494 0.358627 0
M  V30 15512 O 1435.4 5.4783 1.58865 0
M  V30 15513 O 1434.33 6.0127 -0.275291 0
M  V30 15514 H 1438.16 2.81838 -1.13143 0
M  V30 15515 H 1435.74 1.36063 -0.617032 0
M  V30 15516 H 1437.62 4.10375 0.957608 0
M  V30 15517 H 1436.3 2.9606 1.30882 0
M  V30 15518 H 1435.21 3.6286 -0.910136 0
M  V30 15519 H 1436.54 4.77887 -1.17835 0
M  V30 15520 N 1438.19 0.611994 1.45232 0
M  V30 15521 C 1439.44 0.106467 2.01419 0
M  V30 15522 C 1439.75 -1.2723 1.48566 0
M  V30 15523 O 1440.96 -1.8708 1.96757 0
M  V30 15524 C 1439.42 0.139639 3.59629 0
M  V30 15525 C 1439.02 1.51853 4.21479 0
M  V30 15526 C 1440.77 -0.310417 4.23364 0
M  V30 15527 C 1438.67 1.50785 5.71855 0
M  V30 15528 H 1437.6 0.0360345 0.753138 0
M  V30 15529 H 1440.26 0.767974 1.66657 0
M  V30 15530 H 1438.64 -0.588606 3.91601 0
M  V30 15531 H 1439.81 2.26884 4.01074 0
M  V30 15532 H 1438.13 1.91105 3.69956 0
M  V30 15533 H 1440.72 -0.337656 5.33633 0
M  V30 15534 H 1441.07 -1.33398 3.94348 0
M  V30 15535 H 1441.6 0.364704 3.96125 0
M  V30 15536 H 1438.34 2.50916 6.05575 0
M  V30 15537 H 1437.86 0.800195 5.94438 0
M  V30 15538 H 1439.54 1.23341 6.35135 0
M  V30 15539 N 1439.67 -1.53632 0.351409 0
M  V30 15540 C 1440.6 -2.28217 -0.49391 0
M  V30 15541 C 1441.58 -1.30085 -1.09599 0
M  V30 15542 O 1442.77 -1.58938 -1.1159 0
M  V30 15543 C 1439.9 -3.06085 -1.64102 0
M  V30 15544 C 1438.85 -4.11786 -1.16689 0
M  V30 15545 C 1438.18 -4.77654 -2.40314 0
M  V30 15546 C 1439.48 -5.21644 -0.261742 0
M  V30 15547 H 1441.17 -2.99125 0.1283 0
M  V30 15548 H 1438.72 -1.43861 0.0631462 0
M  V30 15549 H 1440.67 -3.57003 -2.2389 0
M  V30 15550 H 1439.39 -2.32842 -2.29025 0
M  V30 15551 H 1438.05 -3.61792 -0.591784 0
M  V30 15552 H 1437.7 -4.00997 -3.03661 0
M  V30 15553 H 1437.4 -5.49072 -2.09268 0
M  V30 15554 H 1438.92 -5.3136 -3.00813 0
M  V30 15555 H 1440.34 -5.6815 -0.766689 0
M  V30 15556 H 1438.73 -6.00085 -0.0428132 0
M  V30 15557 H 1439.8 -4.79821 0.699999 0
M  V30 15558 N 1441.15 -0.0802183 -1.57396 0
M  V30 15559 C 1442.08 0.913777 -2.10197 0
M  V30 15560 C 1443.09 1.25588 -1.03593 0
M  V30 15561 O 1444.28 1.21159 -1.31083 0
M  V30 15562 C 1441.38 2.2272 -2.55439 0
M  V30 15563 C 1440.55 2.06268 -3.8571 0
M  V30 15564 C 1439.61 3.20989 -4.16956 0
M  V30 15565 O 1438.64 2.95608 -4.8642 0
M  V30 15566 N 1439.84 4.46331 -3.71172 0
M  V30 15567 H 1442.61 0.462908 -2.96103 0
M  V30 15568 H 1440.17 0.105287 -1.61557 0
M  V30 15569 H 1442.16 2.98389 -2.73397 0
M  V30 15570 H 1440.73 2.59278 -1.74624 0
M  V30 15571 H 1439.95 1.15016 -3.77048 0
M  V30 15572 H 1441.24 1.92535 -4.70965 0
M  V30 15573 H 1440.64 4.69837 -3.15071 0
M  V30 15574 H 1439.19 5.18999 -3.94314 0
M  V30 15575 N 1442.63 1.56409 0.193394 0
M  V30 15576 C 1443.87 1.80724 0.913521 0
M  V30 15577 C 1444.2 0.653718 1.83185 0
M  V30 15578 O 1443.46 -0.360417 1.92353 0
M  V30 15579 C 1443.75 3.11039 1.76039 0
M  V30 15580 C 1443.42 4.39832 0.992892 0
M  V30 15581 C 1442.08 4.7482 0.780991 0
M  V30 15582 C 1444.43 5.19228 0.452985 0
M  V30 15583 C 1441.76 5.86697 0.0177286 0
M  V30 15584 C 1444.11 6.31902 -0.297075 0
M  V30 15585 C 1442.78 6.65472 -0.519977 0
M  V30 15586 H 1442.05 0.661315 0.334281 0
M  V30 15587 H 1444.7 1.90654 0.179786 0
M  V30 15588 H 1443 2.96353 2.56285 0
M  V30 15589 H 1444.7 3.27058 2.32022 0
M  V30 15590 H 1441.29 4.12376 1.16806 0
M  V30 15591 H 1445.47 4.9261 0.604092 0
M  V30 15592 H 1440.73 6.11178 -0.164925 0
M  V30 15593 H 1444.9 6.92639 -0.7228 0
M  V30 15594 H 1442.53 7.52004 -1.11331 0
M  V30 15595 N 1444.1 -0.461169 1.50702 0
M  V30 15596 C 1445.35 -1.20934 1.61425 0
M  V30 15597 C 1445.67 -1.92884 0.32481 0
M  V30 15598 O 1446.87 -2.69712 0.311081 0
M  V30 15599 C 1445.33 -2.19797 2.84987 0
M  V30 15600 C 1444.94 -1.53604 4.20844 0
M  V30 15601 C 1446.68 -2.95194 3.05059 0
M  V30 15602 C 1444.59 -2.50811 5.35582 0
M  V30 15603 H 1443.52 -0.455088 0.601174 0
M  V30 15604 H 1446.17 -0.478771 1.77144 0
M  V30 15605 H 1444.55 -2.96187 2.62848 0
M  V30 15606 H 1445.72 -0.829345 4.53275 0
M  V30 15607 H 1444.04 -0.904504 4.06457 0
M  V30 15608 H 1446.64 -3.67965 3.87951 0
M  V30 15609 H 1446.98 -3.5516 2.1718 0
M  V30 15610 H 1447.51 -2.25915 3.27425 0
M  V30 15611 H 1444.25 -1.9557 6.25646 0
M  V30 15612 H 1443.77 -3.19604 5.07556 0
M  V30 15613 H 1445.45 -3.12437 5.66561 0
M  V30 15614 N 1445.58 -1.40446 -0.715026 0
M  V30 15615 C 1446.51 -1.43511 -1.84193 0
M  V30 15616 C 1447.49 -0.295969 -1.67505 0
M  V30 15617 O 1448.68 -0.504667 -1.87528 0
M  V30 15618 C 1445.81 -1.29751 -3.22152 0
M  V30 15619 C 1444.76 -2.41274 -3.53512 0
M  V30 15620 C 1444.09 -2.12591 -4.90621 0
M  V30 15621 C 1445.39 -3.83614 -3.54454 0
M  V30 15622 H 1447.08 -2.37819 -1.81885 0
M  V30 15623 H 1444.63 -1.14469 -0.873655 0
M  V30 15624 H 1446.58 -1.30511 -4.0068 0
M  V30 15625 H 1445.3 -0.319189 -3.25037 0
M  V30 15626 H 1443.96 -2.39764 -2.77324 0
M  V30 15627 H 1443.61 -1.13148 -4.90109 0
M  V30 15628 H 1443.31 -2.87308 -5.1257 0
M  V30 15629 H 1444.84 -2.15034 -5.71483 0
M  V30 15630 H 1446.25 -3.86945 -4.23021 0
M  V30 15631 H 1444.65 -4.57855 -3.87929 0
M  V30 15632 H 1445.72 -4.13159 -2.53827 0
M  V30 15633 N 1447.06 0.947303 -1.25952 0
M  V30 15634 C 1448.01 2.06642 -1.06779 0
M  V30 15635 C 1449 1.694 0.00348362 0
M  V30 15636 O 1450.21 1.79351 -0.152715 0
M  V30 15637 H 1446.58 0.676499 -0.32841 0
M  V30 15638 H 1448.55 2.19968 -2.01635 0
M  V30 15639 C 1447.3 3.40353 -0.711015 0
M  V30 15640 H 1446.63 3.69483 -1.52718 0
M  V30 15641 H 1448.07 4.19493 -0.616606 0
M  V30 15642 C 1446.52 3.3181 0.58344 0
M  V30 15643 O 1447.05 3.67431 1.6235 0
M  V30 15644 N 1445.26 2.84919 0.571797 0
M  V30 15645 H 1444.81 2.56128 -0.274962 0
M  V30 15646 H 1444.77 2.79586 1.43803 0
M  V30 15647 N 1448.54 1.07657 1.15099 0
M  V30 15648 C 1449.78 0.802796 1.86234 0
M  V30 15649 C 1450.12 -0.669555 1.82293 0
M  V30 15650 O 1449.39 -1.49162 1.24823 0
M  V30 15651 C 1449.68 1.3156 3.35208 0
M  V30 15652 C 1449.53 2.85272 3.47764 0
M  V30 15653 C 1450.85 0.934641 4.30061 0
M  V30 15654 H 1447.97 0.293099 0.676212 0
M  V30 15655 H 1450.61 1.33488 1.35207 0
M  V30 15656 H 1448.76 0.86298 3.78794 0
M  V30 15657 H 1450.43 3.38847 3.13018 0
M  V30 15658 H 1448.67 3.23316 2.89222 0
M  V30 15659 H 1449.34 3.16223 4.52446 0
M  V30 15660 H 1451.82 1.3247 3.9445 0
M  V30 15661 H 1450.7 1.32074 5.32774 0
M  V30 15662 H 1450.96 -0.159122 4.41814 0
M  V30 15663 N 1450.02 -1.31994 0.861122 0
M  V30 15664 C 1451.43 -1.49756 0.551844 0
M  V30 15665 C 1451.63 -1.79473 -0.916056 0
M  V30 15666 O 1450.69 -1.86813 -1.69874 0
M  V30 15667 C 1452 -2.63737 1.44442 0
M  V30 15668 C 1453.55 -2.77621 1.44552 0
M  V30 15669 C 1454.02 -3.94689 2.32346 0
M  V30 15670 N 1455.52 -4.01961 2.30177 0
M  V30 15671 C 1456.25 -4.91794 2.94833 0
M  V30 15672 N 1455.75 -5.86589 3.68626 0
M  V30 15673 N 1457.54 -4.84968 2.84188 0
M  V30 15674 H 1449.69 -1.10972 1.81105 0
M  V30 15675 H 1451.95 -0.54753 0.773896 0
M  V30 15676 H 1451.66 -2.48526 2.48853 0
M  V30 15677 H 1451.53 -3.59671 1.13651 0
M  V30 15678 H 1453.92 -2.92251 0.409034 0
M  V30 15679 H 1454 -1.8238 1.79363 0
M  V30 15680 H 1453.65 -3.80817 3.36067 0
M  V30 15681 H 1453.58 -4.89219 1.94865 0
M  V30 15682 H 1456.07 -3.34132 1.76533 0
M  V30 15683 H 1456.38 -6.51846 4.15111 0
M  V30 15684 H 1454.72 -5.86596 3.72734 0
M  V30 15685 H 1457.92 -4.09883 2.26084 0
M  V30 15686 H 1458.09 -5.54774 3.34857 0
M  V30 15687 N 1451.49 -0.619688 -1.44906 0
M  V30 15688 C 1452.42 0.0791121 -2.33366 0
M  V30 15689 C 1453.41 0.846503 -1.47541 0
M  V30 15690 O 1454.59 0.814657 -1.76287 0
M  V30 15691 C 1451.72 1.06901 -3.30438 0
M  V30 15692 C 1450.67 0.41403 -4.25993 0
M  V30 15693 C 1450 1.51303 -5.12846 0
M  V30 15694 C 1451.3 -0.672483 -5.17953 0
M  V30 15695 H 1452.99 -0.659551 -2.92045 0
M  V30 15696 H 1450.54 -0.318623 -1.40431 0
M  V30 15697 H 1452.49 1.56653 -3.912 0
M  V30 15698 H 1451.22 1.83842 -2.69944 0
M  V30 15699 H 1449.88 -0.0627315 -3.66546 0
M  V30 15700 H 1449.52 2.27303 -4.48712 0
M  V30 15701 H 1449.22 1.08022 -5.77586 0
M  V30 15702 H 1450.75 2.01258 -5.76479 0
M  V30 15703 H 1452.16 -0.258542 -5.72717 0
M  V30 15704 H 1450.56 -1.02776 -5.91234 0
M  V30 15705 H 1451.63 -1.54425 -4.59653 0
M  V30 15706 N 1452.97 1.53444 -0.359552 0
M  V30 15707 C 1454.25 1.93467 0.288106 0
M  V30 15708 C 1454.63 1.29256 1.66901 0
M  V30 15709 O 1453.98 0.449402 2.24037 0
M  V30 15710 C 1454.19 3.47297 0.344359 0
M  V30 15711 C 1455.54 4.20515 0.587585 0
M  V30 15712 O 1456.56 3.53646 0.425818 0
M  V30 15713 O 1455.42 5.39003 0.902119 0
M  V30 15714 H 1452.51 0.809033 0.171451 0
M  V30 15715 H 1455.06 1.64625 -0.411896 0
M  V30 15716 H 1453.83 3.86292 -0.624064 0
M  V30 15717 H 1453.45 3.82353 1.0905 0
M  V30 15718 N 1454.45 0.0885642 1.57351 0
M  V30 15719 C 1455.68 -0.584389 1.98163 0
M  V30 15720 C 1456.09 -1.62664 0.966281 0
M  V30 15721 O 1455.43 -1.83623 -0.053226 0
M  V30 15722 C 1455.49 -1.2959 3.35331 0
M  V30 15723 C 1455.16 -0.405168 4.552 0
M  V30 15724 C 1456.15 0.344053 5.1876 0
M  V30 15725 C 1453.84 -0.325136 5.01247 0
M  V30 15726 C 1455.83 1.16135 6.26731 0
M  V30 15727 C 1453.52 0.495821 6.09085 0
M  V30 15728 C 1454.52 1.23772 6.71691 0
M  V30 15729 O 1454.21 2.04511 7.77451 0
M  V30 15730 H 1453.94 -0.161852 0.656338 0
M  V30 15731 H 1456.49 0.162558 2.04756 0
M  V30 15732 H 1454.72 -2.08928 3.25401 0
M  V30 15733 H 1456.41 -1.86274 3.60634 0
M  V30 15734 H 1457.18 0.291916 4.84121 0
M  V30 15735 H 1453.06 -0.892245 4.52283 0
M  V30 15736 H 1456.6 1.74093 6.75528 0
M  V30 15737 H 1452.5 0.549463 6.43157 0
M  V30 15738 H 1453.27 1.97123 7.94409 0
M  V30 15739 N 1455.93 -1.56509 -0.185096 0
M  V30 15740 C 1457.34 -1.50318 -0.536334 0
M  V30 15741 C 1457.54 -0.790387 -1.85351 0
M  V30 15742 O 1456.6 -0.345039 -2.50131 0
M  V30 15743 C 1457.91 -2.95017 -0.581825 0
M  V30 15744 C 1459.46 -3.05746 -0.669974 0
M  V30 15745 C 1459.94 -4.51876 -0.746485 0
M  V30 15746 N 1461.43 -4.56067 -0.809746 0
M  V30 15747 C 1462.16 -5.66462 -0.889286 0
M  V30 15748 N 1461.66 -6.86523 -0.930509 0
M  V30 15749 N 1463.45 -5.54399 -0.927246 0
M  V30 15750 H 1455.6 -2.01262 0.678778 0
M  V30 15751 H 1457.87 -0.916313 0.243054 0
M  V30 15752 H 1457.57 -3.50268 0.317089 0
M  V30 15753 H 1457.45 -3.48916 -1.43309 0
M  V30 15754 H 1459.83 -2.50538 -1.55932 0
M  V30 15755 H 1459.91 -2.54955 0.207689 0
M  V30 15756 H 1459.56 -5.07711 0.138546 0
M  V30 15757 H 1459.49 -5.00408 -1.6401 0
M  V30 15758 H 1461.98 -3.6962 -0.786729 0
M  V30 15759 H 1462.29 -7.66407 -0.991992 0
M  V30 15760 H 1460.64 -6.89161 -0.899017 0
M  V30 15761 H 1463.83 -4.59524 -0.891947 0
M  V30 15762 H 1464 -6.40458 -0.985773 0
M  V30 15763 N 1457.41 0.45317 -1.50944 0
M  V30 15764 C 1458.66 1.20076 -1.62064 0
M  V30 15765 C 1458.97 1.92709 -0.335034 0
M  V30 15766 O 1460.17 2.69543 -0.32538 0
M  V30 15767 C 1458.63 2.18283 -2.86148 0
M  V30 15768 C 1458.24 1.5137 -4.21653 0
M  V30 15769 C 1459.98 2.93572 -3.0662 0
M  V30 15770 C 1457.89 2.47968 -5.36904 0
M  V30 15771 H 1456.82 0.451894 -0.603579 0
M  V30 15772 H 1459.47 0.46937 -1.77396 0
M  V30 15773 H 1457.85 2.94789 -2.64415 0
M  V30 15774 H 1459.03 0.805295 -4.53709 0
M  V30 15775 H 1457.34 0.882935 -4.06931 0
M  V30 15776 H 1459.94 3.65903 -3.89897 0
M  V30 15777 H 1460.28 3.54003 -2.1906 0
M  V30 15778 H 1460.81 2.24175 -3.28619 0
M  V30 15779 H 1457.55 1.92249 -6.26674 0
M  V30 15780 H 1457.07 3.16907 -5.09244 0
M  V30 15781 H 1458.75 3.09428 -5.6821 0
M  V30 15782 N 1458.88 1.40823 0.707568 0
M  V30 15783 C 1460.11 1.43061 1.50161 0
M  V30 15784 C 1460.53 0.0342144 1.88069 0
M  V30 15785 O 1459.89 -0.959674 1.53818 0
M  V30 15786 C 1459.94 2.33459 2.74826 0
M  V30 15787 O 1459.04 1.78336 3.71847 0
M  V30 15788 H 1458.39 0.48602 0.452417 0
M  V30 15789 H 1460.92 1.85147 0.870742 0
M  V30 15790 H 1460.93 2.48922 3.23267 0
M  V30 15791 H 1459.6 3.34927 2.46571 0
M  V30 15792 H 1458.18 1.7226 3.30728 0
M  V30 15793 N 1460.36 -0.94061 1.26453 0
M  V30 15794 C 1461.59 -1.71874 1.14643 0
M  V30 15795 C 1462 -1.86791 -0.300969 0
M  V30 15796 O 1461.34 -1.37529 -1.21784 0
M  V30 15797 C 1461.41 -3.14408 1.74321 0
M  V30 15798 C 1461.07 -3.22873 3.23422 0
M  V30 15799 C 1462.07 -3.06107 4.20231 0
M  V30 15800 C 1459.75 -3.46245 3.63895 0
M  V30 15801 C 1461.75 -3.12581 5.55492 0
M  V30 15802 C 1459.43 -3.52354 4.99289 0
M  V30 15803 C 1460.43 -3.35539 5.94897 0
M  V30 15804 O 1460.12 -3.41357 7.27826 0
M  V30 15805 H 1459.85 -0.544931 0.400033 0
M  V30 15806 H 1462.4 -1.18767 1.67581 0
M  V30 15807 H 1460.63 -3.6894 1.15846 0
M  V30 15808 H 1462.32 -3.74135 1.57409 0
M  V30 15809 H 1463.09 -2.87906 3.90302 0
M  V30 15810 H 1458.97 -3.58389 2.89962 0
M  V30 15811 H 1462.51 -2.99374 6.30096 0
M  V30 15812 H 1458.41 -3.70077 5.2888 0
M  V30 15813 H 1459.18 -3.57897 7.36106 0
M  V30 15814 N 1461.84 -1.08266 -1.14527 0
M  V30 15815 C 1462.77 -0.732968 -2.21698 0
M  V30 15816 C 1463.75 0.283917 -1.67714 0
M  V30 15817 O 1464.94 0.154607 -1.93584 0
M  V30 15818 C 1462.07 -0.139935 -3.47018 0
M  V30 15819 C 1461.02 -1.08501 -4.14019 0
M  V30 15820 C 1460.35 -0.354263 -5.33525 0
M  V30 15821 C 1461.65 -2.42254 -4.62721 0
M  V30 15822 H 1463.34 -1.629 -2.51205 0
M  V30 15823 H 1460.89 -0.784696 -1.20742 0
M  V30 15824 H 1462.84 0.1167 -4.21238 0
M  V30 15825 H 1461.56 0.791228 -3.16871 0
M  V30 15826 H 1460.22 -1.32672 -3.41751 0
M  V30 15827 H 1459.87 0.580658 -4.99637 0
M  V30 15828 H 1459.57 -0.984287 -5.79297 0
M  V30 15829 H 1461.09 -0.105648 -6.10509 0
M  V30 15830 H 1462.51 -2.22357 -5.28422 0
M  V30 15831 H 1460.91 -3.00935 -5.1919 0
M  V30 15832 H 1461.98 -3.03884 -3.77866 0
M  V30 15833 N 1463.32 1.31536 -0.86811 0
M  V30 15834 C 1464.25 2.31037 -0.33822 0
M  V30 15835 C 1465.23 1.60269 0.569892 0
M  V30 15836 O 1466.42 1.87987 0.487305 0
M  V30 15837 C 1463.55 3.44203 0.462753 0
M  V30 15838 C 1462.5 4.26549 -0.3521 0
M  V30 15839 C 1461.83 5.31605 0.574443 0
M  V30 15840 C 1463.13 4.97665 -1.58516 0
M  V30 15841 H 1464.82 2.75607 -1.16967 0
M  V30 15842 H 1462.37 1.325 -0.56389 0
M  V30 15843 H 1464.32 4.12862 0.843967 0
M  V30 15844 H 1463.04 2.98396 1.32769 0
M  V30 15845 H 1461.7 3.59555 -0.715237 0
M  V30 15846 H 1461.35 4.82048 1.43661 0
M  V30 15847 H 1461.05 5.87591 0.0331436 0
M  V30 15848 H 1462.57 6.03124 0.952541 0
M  V30 15849 H 1463.99 5.58931 -1.27549 0
M  V30 15850 H 1462.38 5.63437 -2.06539 0
M  V30 15851 H 1463.45 4.24756 -2.33902 0
M  V30 15852 N 1464.8 0.627364 1.44575 0
M  V30 15853 C 1466.02 0.135576 2.06956 0
M  V30 15854 C 1466.45 -1.17922 1.46547 0
M  V30 15855 O 1465.81 -1.72255 0.565509 0
M  V30 15856 C 1465.85 0.030347 3.60587 0
M  V30 15857 O 1464.96 -1.01464 3.99724 0
M  V30 15858 H 1464.3 0.083058 0.658785 0
M  V30 15859 H 1466.83 0.862977 1.8551 0
M  V30 15860 H 1466.84 -0.161461 4.0768 0
M  V30 15861 H 1465.51 0.990285 4.03938 0
M  V30 15862 H 1464.09 -0.797701 3.64268 0
M  V30 15863 N 1466.28 -1.53251 0.367684 0
M  V30 15864 C 1467.52 -2.01585 -0.221679 0
M  V30 15865 C 1467.85 -1.25444 -1.48248 0
M  V30 15866 O 1467.13 -0.348726 -1.91348 0
M  V30 15867 C 1467.41 -3.56449 -0.511507 0
M  V30 15868 C 1467.27 -4.4328 0.763075 0
M  V30 15869 C 1468.58 -4.20113 -1.31121 0
M  V30 15870 H 1465.7 -0.732743 -0.0790954 0
M  V30 15871 H 1468.35 -1.83493 0.492991 0
M  V30 15872 H 1466.5 -3.71996 -1.12033 0
M  V30 15873 H 1468.17 -4.39526 1.40052 0
M  V30 15874 H 1466.41 -4.11164 1.38299 0
M  V30 15875 H 1467.08 -5.4959 0.515215 0
M  V30 15876 H 1469.56 -4.08412 -0.796169 0
M  V30 15877 H 1468.43 -5.28494 -1.48274 0
M  V30 15878 H 1468.69 -3.76316 -2.32032 0
M  V30 15879 N 1467.75 -0.0969077 -1.57302 0
M  V30 15880 C 1469 0.566373 -1.94418 0
M  V30 15881 C 1469.33 1.68078 -0.978769 0
M  V30 15882 O 1468.58 1.957 0.0013214 0
M  V30 15883 C 1468.88 1.15972 -3.38061 0
M  V30 15884 C 1468.55 0.16892 -4.50583 0
M  V30 15885 C 1467.21 -0.103587 -4.81088 0
M  V30 15886 C 1469.56 -0.507513 -5.18723 0
M  V30 15887 C 1466.89 -1.05919 -5.7706 0
M  V30 15888 C 1469.24 -1.4516 -6.1572 0
M  V30 15889 C 1467.91 -1.73232 -6.44629 0
M  V30 15890 H 1467.18 0.207251 -0.711427 0
M  V30 15891 H 1469.82 -0.173125 -1.90716 0
M  V30 15892 H 1468.13 1.97551 -3.3835 0
M  V30 15893 H 1469.83 1.68066 -3.64081 0
M  V30 15894 H 1466.42 0.391501 -4.26808 0
M  V30 15895 H 1470.6 -0.310127 -4.9533 0
M  V30 15896 H 1465.86 -1.28366 -5.97773 0
M  V30 15897 H 1470.03 -1.98155 -6.67613 0
M  V30 15898 H 1467.66 -2.47436 -7.18804 0
M  V30 15899 N 1469.23 1.56605 0.176793 0
M  V30 15900 C 1470.18 1.95985 1.21896 0
M  V30 15901 C 1471.15 0.822983 1.44278 0
M  V30 15902 O 1472.33 1.08266 1.57109 0
M  V30 15903 C 1469.47 2.32029 2.55454 0
M  V30 15904 C 1468.59 3.58867 2.40497 0
M  V30 15905 C 1467.72 3.84148 3.66884 0
M  V30 15906 C 1466.76 5.04352 3.46837 0
M  V30 15907 N 1465.9 5.25794 4.6528 0
M  V30 15908 H 1470.74 2.84829 0.876137 0
M  V30 15909 H 1468.27 1.4094 0.421221 0
M  V30 15910 H 1470.23 2.50947 3.33289 0
M  V30 15911 H 1468.86 1.46301 2.87743 0
M  V30 15912 H 1467.91 3.47893 1.53866 0
M  V30 15913 H 1469.23 4.46859 2.21627 0
M  V30 15914 H 1468.38 4.03404 4.53155 0
M  V30 15915 H 1467.12 2.9452 3.88727 0
M  V30 15916 H 1466.12 4.84999 2.58952 0
M  V30 15917 H 1467.35 5.95505 3.26421 0
M  V30 15918 H 1465.3 4.39117 4.87352 0
M  V30 15919 H 1465.21 6.07999 4.49303 0
M  V30 15920 H 1466.48 5.49524 5.5285 0
M  V30 15921 N 1470.71 -0.445159 1.51182 0
M  V30 15922 C 1471.66 -1.53975 1.71931 0
M  V30 15923 C 1472.63 -1.56344 0.560865 0
M  V30 15924 O 1473.81 -1.73475 0.794414 0
M  V30 15925 C 1470.95 -2.91756 1.84316 0
M  V30 15926 C 1470.06 -2.98976 3.11829 0
M  V30 15927 C 1469.2 -4.27831 3.14855 0
M  V30 15928 C 1468.24 -4.2889 4.36715 0
M  V30 15929 N 1467.38 -5.49257 4.37334 0
M  V30 15930 H 1472.22 -1.35586 2.65368 0
M  V30 15931 H 1469.75 -0.658787 1.31523 0
M  V30 15932 H 1471.71 -3.7169 1.89479 0
M  V30 15933 H 1470.34 -3.08721 0.942947 0
M  V30 15934 H 1469.39 -2.11753 3.16014 0
M  V30 15935 H 1470.7 -2.95619 4.01759 0
M  V30 15936 H 1469.86 -5.16134 3.1889 0
M  V30 15937 H 1468.6 -4.33833 2.228 0
M  V30 15938 H 1467.6 -3.38982 4.32864 0
M  V30 15939 H 1468.83 -4.24558 5.30026 0
M  V30 15940 H 1466.77 -5.55995 3.48145 0
M  V30 15941 H 1466.69 -5.47748 5.21064 0
M  V30 15942 H 1467.96 -6.39613 4.45551 0
M  V30 15943 N 1472.19 -1.41197 -0.700089 0
M  V30 15944 C 1473.1 -1.45038 -1.84394 0
M  V30 15945 C 1474.11 -0.34141 -1.70618 0
M  V30 15946 O 1475.29 -0.588428 -1.92612 0
M  V30 15947 C 1472.35 -1.32611 -3.20336 0
M  V30 15948 C 1471.42 -2.53784 -3.46254 0
M  V30 15949 C 1470.65 -2.4194 -4.75711 0
M  V30 15950 O 1470.87 -1.44153 -5.51884 0
M  V30 15951 O 1469.81 -3.31613 -5.02311 0
M  V30 15952 H 1473.63 -2.41531 -1.8411 0
M  V30 15953 H 1471.22 -1.22686 -0.852558 0
M  V30 15954 H 1473.1 -1.27947 -4.01507 0
M  V30 15955 H 1471.77 -0.392309 -3.21314 0
M  V30 15956 H 1470.68 -2.64024 -2.65032 0
M  V30 15957 H 1472.01 -3.45977 -3.50087 0
M  V30 15958 N 1473.67 0.933891 -1.2695 0
M  V30 15959 C 1474.91 1.68091 -1.12924 0
M  V30 15960 C 1475.24 1.91747 0.326088 0
M  V30 15961 O 1474.5 1.50126 1.25541 0
M  V30 15962 C 1474.79 3.05706 -1.85145 0
M  V30 15963 C 1474.46 3.01781 -3.35021 0
M  V30 15964 C 1473.12 3.00417 -3.75903 0
M  V30 15965 C 1475.47 2.93537 -4.3068 0
M  V30 15966 C 1472.8 2.88585 -5.10818 0
M  V30 15967 C 1475.15 2.83246 -5.65645 0
M  V30 15968 C 1473.82 2.80229 -6.05828 0
M  V30 15969 H 1473.09 0.615087 -0.413217 0
M  V30 15970 H 1475.74 1.08957 -1.57482 0
M  V30 15971 H 1474.04 3.68508 -1.33077 0
M  V30 15972 H 1475.74 3.62369 -1.71726 0
M  V30 15973 H 1472.33 3.03626 -3.02505 0
M  V30 15974 H 1476.51 2.93693 -4.00073 0
M  V30 15975 H 1471.77 2.84632 -5.41105 0
M  V30 15976 H 1475.94 2.75832 -6.39445 0
M  V30 15977 H 1473.57 2.70818 -7.10325 0
M  V30 15978 N 1475.14 1.08871 1.13951 0
M  V30 15979 C 1476.39 0.822504 1.85372 0
M  V30 15980 C 1476.72 -0.650183 1.82993 0
M  V30 15981 O 1476 -1.4783 1.26398 0
M  V30 15982 C 1476.28 1.35107 3.33793 0
M  V30 15983 C 1476.13 2.88945 3.44719 0
M  V30 15984 C 1477.45 0.980203 4.29045 0
M  V30 15985 H 1474.57 0.300255 0.673065 0
M  V30 15986 H 1477.21 1.34914 1.33784 0
M  V30 15987 H 1475.36 0.903108 3.77857 0
M  V30 15988 H 1477.04 3.42148 3.09407 0
M  V30 15989 H 1475.28 3.26365 2.85777 0
M  V30 15990 H 1475.95 3.21004 4.49066 0
M  V30 15991 H 1478.43 1.36646 3.93023 0
M  V30 15992 H 1477.3 1.37717 5.31343 0
M  V30 15993 H 1477.56 -0.112253 4.41957 0
M  V30 15994 N 1476.62 -1.31073 0.875073 0
M  V30 15995 C 1477.53 -2.3215 0.338196 0
M  V30 15996 C 1478.55 -1.64928 -0.554504 0
M  V30 15997 O 1479.72 -1.96308 -0.449998 0
M  V30 15998 C 1476.79 -3.43804 -0.447163 0
M  V30 15999 C 1475.85 -4.26674 0.474106 0
M  V30 16000 C 1475.08 -5.32997 -0.273867 0
M  V30 16001 O 1475.31 -5.50288 -1.50129 0
M  V30 16002 O 1474.24 -6.00756 0.370913 0
M  V30 16003 H 1478.07 -2.80002 1.17612 0
M  V30 16004 H 1475.65 -1.35064 0.6386 0
M  V30 16005 H 1477.53 -4.11847 -0.892199 0
M  V30 16006 H 1476.21 -2.98105 -1.26155 0
M  V30 16007 H 1475.11 -3.61366 0.967748 0
M  V30 16008 H 1476.45 -4.75952 1.25423 0
M  V30 16009 N 1478.1 -0.635022 -1.4424 0
M  V30 16010 C 1479.35 -0.141276 -2.02307 0
M  V30 16011 C 1479.68 1.23508 -1.49865 0
M  V30 16012 O 1478.95 1.82065 -0.684291 0
M  V30 16013 C 1479.24 -0.132196 -3.59857 0
M  V30 16014 C 1479.09 -1.54117 -4.22573 0
M  V30 16015 C 1480.41 0.541186 -4.3676 0
M  V30 16016 H 1477.53 -0.0528117 -0.735105 0
M  V30 16017 H 1480.17 -0.812239 -1.71763 0
M  V30 16018 H 1478.32 0.439156 -3.8601 0
M  V30 16019 H 1479.99 -2.16171 -4.07514 0
M  V30 16020 H 1478.24 -2.09389 -3.79919 0
M  V30 16021 H 1478.91 -1.48682 -5.31599 0
M  V30 16022 H 1481.38 0.0552603 -4.16063 0
M  V30 16023 H 1480.26 0.516742 -5.46462 0
M  V30 16024 H 1480.52 1.61222 -4.11655 0
M  V30 16025 N 1479.58 1.53054 -0.375806 0
M  V30 16026 C 1480.83 2.01401 0.210673 0
M  V30 16027 C 1481.15 1.26275 1.47935 0
M  V30 16028 O 1480.41 0.347611 1.92588 0
M  V30 16029 C 1480.71 3.53321 0.538419 0
M  V30 16030 C 1480.37 4.46376 -0.637126 0
M  V30 16031 C 1479.04 4.71534 -0.959653 0
M  V30 16032 C 1481.39 5.01364 -1.42421 0
M  V30 16033 C 1478.72 5.4893 -2.07105 0
M  V30 16034 C 1481.07 5.79975 -2.5261 0
M  V30 16035 C 1479.73 6.03416 -2.85386 0
M  V30 16036 H 1479 0.736979 0.0770907 0
M  V30 16037 H 1481.65 1.84574 -0.510376 0
M  V30 16038 H 1479.95 3.6815 1.34062 0
M  V30 16039 H 1481.65 3.88212 1.00461 0
M  V30 16040 H 1478.24 4.2695 -0.375722 0
M  V30 16041 H 1482.42 4.81865 -1.18828 0
M  V30 16042 H 1477.68 5.65309 -2.32886 0
M  V30 16043 H 1481.85 6.21588 -3.14008 0
M  V30 16044 H 1479.48 6.63172 -3.71627 0
M  V30 16045 N 1481.06 0.105248 1.57248 0
M  V30 16046 C 1482.47 -0.422304 1.81861 0
M  V30 16047 C 1482.82 -1.67508 1.02154 0
M  V30 16048 O 1481.94 -2.14905 0.253961 0
M  V30 16049 C 1482.54 -0.772943 3.29865 0
M  V30 16050 C 1481.1 -1.24519 3.55207 0
M  V30 16051 C 1480.24 -0.246936 2.76198 0
M  V30 16052 H 1483.2 0.330565 1.55219 0
M  V30 16053 H 1483.22 -1.6316 3.43743 0
M  V30 16054 H 1482.73 0.139033 3.87851 0
M  V30 16055 H 1480.83 -2.17453 3.02564 0
M  V30 16056 H 1480.94 -1.20001 4.63828 0
M  V30 16057 H 1479.31 -0.731171 2.43979 0
M  V30 16058 H 1480.09 0.657896 3.36937 0
M  V30 16059 N 1482.53 -1.56697 -0.168486 0
M  V30 16060 C 1483.47 -1.91738 -1.23741 0
M  V30 16061 C 1484.45 -0.780522 -1.42642 0
M  V30 16062 O 1485.63 -1.0341 -1.57602 0
M  V30 16063 C 1482.76 -2.17077 -2.59991 0
M  V30 16064 C 1481.8 -3.39759 -2.5781 0
M  V30 16065 S 1482.64 -4.94035 -2.06614 0
M  V30 16066 C 1483.79 -5.22472 -3.44636 0
M  V30 16067 H 1484.02 -2.82104 -0.938344 0
M  V30 16068 H 1481.56 -1.49822 -0.373177 0
M  V30 16069 H 1483.52 -2.32356 -3.38409 0
M  V30 16070 H 1482.18 -1.27413 -2.87097 0
M  V30 16071 H 1481.37 -3.54698 -3.58058 0
M  V30 16072 H 1480.97 -3.2361 -1.8749 0
M  V30 16073 H 1483.26 -5.14623 -4.40647 0
M  V30 16074 H 1484.21 -6.24075 -3.34569 0
M  V30 16075 H 1484.61 -4.50034 -3.40779 0
M  V30 16076 N 1484.01 0.437135 -1.51416 0
M  V30 16077 C 1484.94 1.54894 -1.68939 0
M  V30 16078 C 1485.96 1.52493 -0.570059 0
M  V30 16079 O 1487.15 1.57266 -0.844381 0
M  V30 16080 C 1484.25 2.9381 -1.68904 0
M  V30 16081 C 1483.42 3.20714 -2.97425 0
M  V30 16082 C 1482.48 4.39355 -2.89575 0
M  V30 16083 O 1481.5 4.37999 -3.63519 0
M  V30 16084 N 1482.71 5.42931 -2.05441 0
M  V30 16085 H 1485.47 1.40267 -2.64849 0
M  V30 16086 H 1483.03 0.626075 -1.49305 0
M  V30 16087 H 1485.02 3.71201 -1.61221 0
M  V30 16088 H 1483.59 3.02034 -0.805871 0
M  V30 16089 H 1482.81 2.31621 -3.18975 0
M  V30 16090 H 1484.1 3.35516 -3.825 0
M  V30 16091 H 1483.5 5.4687 -1.44742 0
M  V30 16092 H 1482.06 6.19173 -2.03636 0
M  V30 16093 N 1485.49 1.41566 0.692592 0
M  V30 16094 C 1486.77 1.31572 1.44735 0
M  V30 16095 C 1487.15 -0.0553081 2.11028 0
M  V30 16096 O 1486.5 -1.06974 2.01913 0
M  V30 16097 C 1486.71 2.47125 2.46435 0
M  V30 16098 C 1488.05 2.88427 3.11601 0
M  V30 16099 O 1489.08 2.46886 2.5676 0
M  V30 16100 O 1487.94 3.6027 4.10935 0
M  V30 16101 H 1485.03 0.517949 0.644715 0
M  V30 16102 H 1487.58 1.53536 0.722818 0
M  V30 16103 H 1486.35 3.38601 1.96124 0
M  V30 16104 H 1485.97 2.27054 3.26393 0
M  V30 16105 N 1486.97 -0.927146 1.27443 0
M  V30 16106 C 1488.19 -1.71426 1.16739 0
M  V30 16107 C 1488.62 -1.86122 -0.272063 0
M  V30 16108 O 1487.98 -1.36165 -1.19703 0
M  V30 16109 C 1488.02 -3.09131 1.85661 0
M  V30 16110 O 1487.13 -3.95897 1.15495 0
M  V30 16111 H 1486.47 -0.525428 0.405983 0
M  V30 16112 H 1489 -1.16022 1.68523 0
M  V30 16113 H 1489.01 -3.59442 1.93042 0
M  V30 16114 H 1487.68 -2.97752 2.90373 0
M  V30 16115 H 1486.26 -3.54337 1.16187 0
M  V30 16116 N 1488.45 -1.09474 -1.13372 0
M  V30 16117 C 1489.69 -0.82945 -1.84295 0
M  V30 16118 C 1490.02 0.646788 -1.83961 0
M  V30 16119 O 1489.29 1.46929 -1.29572 0
M  V30 16120 H 1487.87 -0.303853 -0.682409 0
M  V30 16121 H 1490.53 -1.38298 -1.3733 0
M  V30 16122 H 1489.62 -1.18342 -2.88793 0
M  V30 16123 N 1489.92 1.30607 -0.882012 0
M  V30 16124 C 1490.89 2.26489 -0.351498 0
M  V30 16125 C 1491.89 1.52686 0.504348 0
M  V30 16126 O 1493.08 1.71385 0.311928 0
M  V30 16127 C 1490.21 3.37222 0.499435 0
M  V30 16128 H 1491.4 2.74929 -1.19809 0
M  V30 16129 H 1488.96 1.41746 -0.658616 0
M  V30 16130 H 1489.69 2.94093 1.36673 0
M  V30 16131 H 1489.48 3.91936 -0.11356 0
M  V30 16132 H 1490.97 4.08596 0.862497 0
M  V30 16133 N 1491.4 0.642663 1.43901 0
M  V30 16134 C 1492.68 0.0821715 1.95427 0
M  V30 16135 C 1493.06 -1.3951 1.58431 0
M  V30 16136 O 1492.41 -2.11531 0.864118 0
M  V30 16137 C 1492.62 0.317229 3.47555 0
M  V30 16138 C 1493.97 0.216547 4.24047 0
M  V30 16139 O 1494.99 0.249216 3.55327 0
M  V30 16140 O 1493.85 0.131269 5.46342 0
M  V30 16141 H 1490.94 -0.0156936 0.826851 0
M  V30 16142 H 1493.49 0.715168 1.53894 0
M  V30 16143 H 1492.26 1.34184 3.67574 0
M  V30 16144 H 1491.88 -0.349348 3.96062 0
M  V30 16145 N 1492.88 -1.52852 0.383918 0
M  V30 16146 C 1494.13 -2.01112 -0.199594 0
M  V30 16147 C 1494.45 -1.27237 -1.47769 0
M  V30 16148 O 1493.72 -0.390873 -1.91961 0
M  V30 16149 H 1492.3 -0.743047 -0.0767466 0
M  V30 16150 H 1494.96 -1.8799 0.51437 0
M  V30 16151 H 1494.06 -3.09347 -0.413627 0
M  V30 16152 N 1494.36 -0.113586 -1.5719 0
M  V30 16153 C 1495.59 0.553592 -1.99356 0
M  V30 16154 C 1496 1.60567 -0.993154 0
M  V30 16155 O 1495.36 1.82494 0.0147252 0
M  V30 16156 C 1495.41 1.18462 -3.41539 0
M  V30 16157 O 1495.13 0.174602 -4.37752 0
M  V30 16158 C 1496.63 1.93564 -3.98808 0
M  V30 16159 H 1493.85 0.146998 -0.6547 0
M  V30 16160 H 1496.4 -0.198329 -2.03536 0
M  V30 16161 H 1494.55 1.88736 -3.38316 0
M  V30 16162 H 1494.97 0.632395 -5.20674 0
M  V30 16163 H 1496.44 2.33051 -5.00391 0
M  V30 16164 H 1496.92 2.80874 -3.37648 0
M  V30 16165 H 1497.52 1.28066 -4.0556 0
M  V30 16166 N 1495.84 1.56784 0.160173 0
M  V30 16167 C 1496.8 1.96373 1.18195 0
M  V30 16168 C 1497.8 0.848674 1.3658 0
M  V30 16169 O 1498.99 1.11553 1.33796 0
M  V30 16170 C 1496.12 2.26824 2.54487 0
M  V30 16171 H 1497.32 2.87819 0.842641 0
M  V30 16172 H 1494.87 1.51014 0.403038 0
M  V30 16173 H 1495.6 1.38129 2.93413 0
M  V30 16174 H 1495.39 3.08112 2.42507 0
M  V30 16175 H 1496.88 2.58337 3.28104 0
M  V30 16176 N 1497.32 -0.429099 1.51646 0
M  V30 16177 C 1498.73 -1.00868 1.57107 0
M  V30 16178 C 1499.08 -1.9209 0.399483 0
M  V30 16179 O 1498.2 -2.10948 -0.482709 0
M  V30 16180 C 1498.8 -1.83612 2.84732 0
M  V30 16181 C 1497.36 -2.36605 2.92737 0
M  V30 16182 C 1496.5 -1.1604 2.51853 0
M  V30 16183 H 1499.45 -0.21006 1.57304 0
M  V30 16184 H 1499.48 -2.69149 2.68959 0
M  V30 16185 H 1498.99 -1.17192 3.69983 0
M  V30 16186 H 1497.09 -3.06455 2.11934 0
M  V30 16187 H 1497.2 -2.68838 3.96564 0
M  V30 16188 H 1495.57 -1.50826 2.0524 0
M  V30 16189 H 1496.35 -0.51218 3.39458 0
M  V30 16190 N 1498.79 -1.41931 -0.685074 0
M  V30 16191 C 1499.76 -1.44315 -1.78061 0
M  V30 16192 C 1500.76 -0.332215 -1.57331 0
M  V30 16193 O 1501.95 -0.59258 -1.63811 0
M  V30 16194 C 1499.08 -1.26479 -3.16569 0
M  V30 16195 H 1500.27 -2.4185 -1.77337 0
M  V30 16196 H 1497.82 -1.28228 -0.893721 0
M  V30 16197 H 1498.56 -0.298259 -3.22926 0
M  V30 16198 H 1498.34 -2.06981 -3.33018 0
M  V30 16199 H 1499.83 -1.31006 -3.96519 0
M  V30 16200 N 1500.27 0.920374 -1.27933 0
M  V30 16201 C 1501.52 1.66883 -1.147 0
M  V30 16202 C 1501.85 1.92082 0.305732 0
M  V30 16203 O 1501.1 1.51449 1.23942 0
M  V30 16204 C 1501.4 3.03725 -1.88377 0
M  V30 16205 C 1501.07 2.9821 -3.38203 0
M  V30 16206 C 1499.73 2.96413 -3.79068 0
M  V30 16207 C 1502.08 2.88952 -4.3377 0
M  V30 16208 C 1499.41 2.83151 -5.13851 0
M  V30 16209 C 1501.76 2.77231 -5.68618 0
M  V30 16210 C 1500.42 2.73788 -6.08766 0
M  V30 16211 H 1499.69 0.61067 -0.419718 0
M  V30 16212 H 1502.34 1.0728 -1.58629 0
M  V30 16213 H 1500.65 3.67075 -1.36978 0
M  V30 16214 H 1502.34 3.60527 -1.7556 0
M  V30 16215 H 1498.93 3.004 -3.05709 0
M  V30 16216 H 1503.12 2.89433 -4.03165 0
M  V30 16217 H 1498.37 2.78877 -5.44093 0
M  V30 16218 H 1502.55 2.69034 -6.42335 0
M  V30 16219 H 1500.17 2.63268 -7.13158 0
M  V30 16220 N 1501.75 1.10074 1.1279 0
M  V30 16221 C 1503.03 0.753069 1.80522 0
M  V30 16222 C 1503.41 -0.760982 1.96907 0
M  V30 16223 O 1502.75 -1.68584 1.54245 0
M  V30 16224 C 1502.96 1.49982 3.15129 0
M  V30 16225 C 1504.31 1.66993 3.90382 0
M  V30 16226 O 1505.34 1.46289 3.24774 0
M  V30 16227 O 1504.2 2.01293 5.08078 0
M  V30 16228 H 1501.29 0.271277 0.781241 0
M  V30 16229 H 1503.84 1.20333 1.19658 0
M  V30 16230 H 1502.61 2.53043 2.98471 0
M  V30 16231 H 1502.23 1.04217 3.83699 0
M  V30 16232 N 1503.23 -1.30138 0.888926 0
M  V30 16233 C 1504.45 -2.00679 0.523697 0
M  V30 16234 C 1504.88 -1.66167 -0.881479 0
M  V30 16235 O 1504.24 -0.880418 -1.58488 0
M  V30 16236 C 1504.28 -3.53535 0.710284 0
M  V30 16237 O 1503.39 -4.11689 -0.242066 0
M  V30 16238 H 1502.73 -0.631273 0.205888 0
M  V30 16239 H 1505.26 -1.65891 1.19756 0
M  V30 16240 H 1505.27 -4.03402 0.610794 0
M  V30 16241 H 1503.94 -3.77992 1.73478 0
M  V30 16242 H 1502.52 -3.72777 -0.0959393 0
M  V30 16243 N 1504.71 -0.650285 -1.43559 0
M  V30 16244 C 1505.93 -0.170139 -2.06199 0
M  V30 16245 C 1506.35 1.16304 -1.48724 0
M  V30 16246 O 1505.71 1.71739 -0.617418 0
M  V30 16247 C 1505.76 -0.0698577 -3.61432 0
M  V30 16248 O 1505.48 -1.35033 -4.16771 0
M  V30 16249 C 1506.98 0.436714 -4.41144 0
M  V30 16250 H 1504.2 -0.0885316 -0.665134 0
M  V30 16251 H 1506.74 -0.890104 -1.84112 0
M  V30 16252 H 1504.9 0.60065 -3.82715 0
M  V30 16253 H 1505.31 -1.20762 -5.10409 0
M  V30 16254 H 1506.79 0.455843 -5.50115 0
M  V30 16255 H 1507.26 1.46747 -4.13959 0
M  V30 16256 H 1507.87 -0.201201 -4.24824 0
M  V30 16257 N 1506.18 1.52647 -0.392018 0
M  V30 16258 C 1507.41 2.06032 0.189293 0
M  V30 16259 C 1507.83 1.26351 1.40288 0
M  V30 16260 O 1507.18 0.310877 1.79833 0
M  V30 16261 C 1507.23 3.57187 0.55672 0
M  V30 16262 O 1506.96 4.33851 -0.608657 0
M  V30 16263 C 1508.46 4.26929 1.1936 0
M  V30 16264 H 1505.68 0.670419 0.0279177 0
M  V30 16265 H 1508.22 1.96739 -0.558033 0
M  V30 16266 H 1506.38 3.66545 1.25394 0
M  V30 16267 H 1506.79 5.23606 -0.306039 0
M  V30 16268 H 1508.26 5.33924 1.40104 0
M  V30 16269 H 1508.74 3.82315 2.16175 0
M  V30 16270 H 1509.35 4.21895 0.537069 0
M  V30 16271 N 1507.66 0.121921 1.57128 0
M  V30 16272 C 1508.63 -0.812905 2.143 0
M  V30 16273 C 1509.63 -1.19261 1.07858 0
M  V30 16274 O 1510.82 -1.11764 1.33621 0
M  V30 16275 C 1507.95 -2.09969 2.68562 0
M  V30 16276 H 1509.14 -0.315992 2.98231 0
M  V30 16277 H 1506.69 -0.12734 1.5578 0
M  V30 16278 H 1507.43 -2.64085 1.88228 0
M  V30 16279 H 1507.21 -1.83688 3.46412 0
M  V30 16280 H 1508.7 -2.76788 3.12695 0
M  V30 16281 N 1509.14 -1.56867 -0.151857 0
M  V30 16282 C 1510.09 -1.98842 -1.20685 0
M  V30 16283 C 1511.08 -0.88007 -1.44745 0
M  V30 16284 O 1512.29 -1.06524 -1.45095 0
M  V30 16285 H 1508.66 -0.632904 -0.406123 0
M  V30 16286 H 1510.63 -2.86737 -0.826095 0
M  V30 16287 C 1509.38 -2.38095 -2.53389 0
M  V30 16288 H 1508.71 -3.2293 -2.35703 0
M  V30 16289 H 1510.15 -2.71292 -3.25847 0
M  V30 16290 C 1508.61 -1.23175 -3.13575 0
M  V30 16291 O 1509.14 -0.529864 -3.9819 0
M  V30 16292 N 1507.34 -0.997255 -2.72953 0
M  V30 16293 H 1506.89 -1.56979 -2.04243 0
M  V30 16294 H 1506.85 -0.23022 -3.13556 0
M  V30 16295 N 1510.62 0.421051 -1.51871 0
M  V30 16296 C 1511.55 1.53273 -1.69064 0
M  V30 16297 C 1512.53 1.53435 -0.538182 0
M  V30 16298 O 1513.71 1.72321 -0.76406 0
M  V30 16299 C 1510.84 2.9183 -1.7191 0
M  V30 16300 C 1509.89 3.09628 -2.93314 0
M  V30 16301 S 1510.72 2.842 -4.53862 0
M  V30 16302 C 1511.88 4.25009 -4.59476 0
M  V30 16303 H 1512.11 1.38459 -2.6309 0
M  V30 16304 H 1509.64 0.611839 -1.4176 0
M  V30 16305 H 1511.6 3.71689 -1.74234 0
M  V30 16306 H 1510.26 3.03995 -0.790319 0
M  V30 16307 H 1509.45 4.1097 -2.91753 0
M  V30 16308 H 1509.06 2.37617 -2.88815 0
M  V30 16309 H 1511.35 5.18465 -4.36119 0
M  V30 16310 H 1512.29 4.31598 -5.61363 0
M  V30 16311 H 1512.7 4.09424 -3.88629 0
M  V30 16312 N 1512.1 1.42293 0.677538 0
M  V30 16313 C 1513.04 1.45787 1.81243 0
M  V30 16314 C 1514.04 0.333895 1.66077 0
M  V30 16315 O 1515.24 0.50678 1.72719 0
M  V30 16316 H 1511.62 0.456538 0.597559 0
M  V30 16317 H 1513.59 2.41398 1.75413 0
M  V30 16318 C 1512.34 1.37449 3.19379 0
M  V30 16319 H 1511.66 2.23231 3.31674 0
M  V30 16320 H 1513.1 1.43955 3.98814 0
M  V30 16321 C 1511.56 0.0889433 3.36783 0
M  V30 16322 O 1512.09 -0.859357 3.924 0
M  V30 16323 N 1510.3 0.00698476 2.90599 0
M  V30 16324 H 1509.84 0.779459 2.45524 0
M  V30 16325 H 1509.8 -0.852522 3.02621 0
M  V30 16326 N 1513.57 -0.913576 1.28419 0
M  V30 16327 C 1514.5 -2.03275 1.14897 0
M  V30 16328 C 1515.49 -1.70036 0.0467034 0
M  V30 16329 O 1516.67 -1.92907 0.223725 0
M  V30 16330 C 1513.8 -3.37717 0.810217 0
M  V30 16331 C 1512.75 -3.85119 1.86728 0
M  V30 16332 C 1512.08 -5.16527 1.38215 0
M  V30 16333 C 1513.38 -4.06959 3.27386 0
M  V30 16334 H 1515.07 -2.14847 2.08522 0
M  V30 16335 H 1512.62 -1.03233 1.00394 0
M  V30 16336 H 1514.57 -4.15505 0.702382 0
M  V30 16337 H 1513.3 -3.26199 -0.161732 0
M  V30 16338 H 1511.96 -3.09536 1.96426 0
M  V30 16339 H 1511.6 -5.01413 0.399263 0
M  V30 16340 H 1511.3 -5.49213 2.08898 0
M  V30 16341 H 1512.83 -5.96871 1.28754 0
M  V30 16342 H 1514.24 -4.75272 3.20608 0
M  V30 16343 H 1512.64 -4.50977 3.95904 0
M  V30 16344 H 1513.71 -3.11764 3.71391 0
M  V30 16345 N 1515.05 -1.1067 -1.12204 0
M  V30 16346 C 1516.33 -0.762632 -1.8012 0
M  V30 16347 C 1516.71 0.750529 -1.97308 0
M  V30 16348 O 1516.06 1.67764 -1.55137 0
M  V30 16349 C 1516.27 -1.51651 -3.14329 0
M  V30 16350 C 1517.62 -1.69061 -3.89491 0
M  V30 16351 O 1518.64 -1.48009 -3.23994 0
M  V30 16352 O 1517.5 -2.03984 -5.07004 0
M  V30 16353 H 1514.59 -0.275417 -0.779791 0
M  V30 16354 H 1517.14 -1.20966 -1.19018 0
M  V30 16355 H 1515.91 -2.54622 -2.97125 0
M  V30 16356 H 1515.53 -1.0625 -3.83141 0
M  V30 16357 N 1516.53 1.29665 -0.895815 0
M  V30 16358 C 1517.95 1.4824 -0.591355 0
M  V30 16359 C 1518.15 1.81839 0.86815 0
M  V30 16360 O 1517.2 1.91251 1.64861 0
M  V30 16361 C 1518.52 2.59814 -1.51384 0
M  V30 16362 C 1520.06 2.73691 -1.51862 0
M  V30 16363 C 1520.54 3.8839 -2.42729 0
M  V30 16364 N 1522.03 3.95717 -2.40754 0
M  V30 16365 C 1522.76 4.83804 -3.07769 0
M  V30 16366 N 1522.26 5.7661 -3.84048 0
M  V30 16367 N 1524.05 4.77263 -2.96946 0
M  V30 16368 H 1516.2 1.06131 -1.83984 0
M  V30 16369 H 1518.47 0.526819 -0.788141 0
M  V30 16370 H 1518.17 2.4184 -2.55355 0
M  V30 16371 H 1518.05 3.56532 -1.23147 0
M  V30 16372 H 1520.43 2.91064 -0.486375 0
M  V30 16373 H 1520.52 1.77561 -1.84135 0
M  V30 16374 H 1520.16 3.71773 -3.46045 0
M  V30 16375 H 1520.09 4.8388 -2.07767 0
M  V30 16376 H 1522.58 3.29334 -1.8533 0
M  V30 16377 H 1522.89 6.40611 -4.32247 0
M  V30 16378 H 1521.24 5.76507 -3.88155 0
M  V30 16379 H 1524.43 4.03744 -2.36871 0
M  V30 16380 H 1524.6 5.45701 -3.49448 0
M  V30 16381 N 1518.01 0.657889 1.43212 0
M  V30 16382 C 1519.26 0.170493 2.00978 0
M  V30 16383 C 1519.57 -1.22439 1.52539 0
M  V30 16384 O 1520.78 -1.80725 2.02609 0
M  V30 16385 C 1519.23 0.253982 3.59003 0
M  V30 16386 C 1518.84 1.65185 4.16435 0
M  V30 16387 C 1520.58 -0.17557 4.24137 0
M  V30 16388 C 1518.49 1.68902 5.66768 0
M  V30 16389 H 1517.42 0.0599767 0.751611 0
M  V30 16390 H 1520.07 0.820606 1.64129 0
M  V30 16391 H 1518.45 -0.463723 3.93275 0
M  V30 16392 H 1519.63 2.39529 3.93653 0
M  V30 16393 H 1517.94 2.02779 3.63689 0
M  V30 16394 H 1520.54 -0.167714 5.34437 0
M  V30 16395 H 1520.88 -1.20784 3.98393 0
M  V30 16396 H 1521.42 0.490544 3.94764 0
M  V30 16397 H 1518.16 2.70055 5.97286 0
M  V30 16398 H 1517.68 0.988906 5.91592 0
M  V30 16399 H 1519.35 1.43485 6.30889 0
M  V30 16400 N 1519.49 -1.52437 0.400108 0
M  V30 16401 C 1520.73 -2.01312 -0.178252 0
M  V30 16402 C 1521.06 -1.28797 -1.46411 0
M  V30 16403 O 1520.33 -0.411211 -1.91536 0
M  V30 16404 H 1518.91 -0.743819 -0.0688613 0
M  V30 16405 H 1521.57 -1.87434 0.53428 0
M  V30 16406 H 1520.66 -3.09768 -0.380793 0
M  V30 16407 N 1520.96 -0.130252 -1.57061 0
M  V30 16408 C 1521.87 0.829198 -2.19457 0
M  V30 16409 C 1522.89 1.2843 -1.17395 0
M  V30 16410 O 1524.07 1.34496 -1.49909 0
M  V30 16411 C 1521.13 2.05727 -2.79065 0
M  V30 16412 C 1520.19 1.65301 -3.962 0
M  V30 16413 C 1519.43 2.82253 -4.52956 0
M  V30 16414 O 1519.65 3.97999 -4.08598 0
M  V30 16415 O 1518.58 2.5869 -5.43473 0
M  V30 16416 H 1522.41 0.328139 -3.01922 0
M  V30 16417 H 1519.99 0.0959361 -1.49092 0
M  V30 16418 H 1521.88 2.7763 -3.17017 0
M  V30 16419 H 1520.55 2.54817 -1.99624 0
M  V30 16420 H 1519.46 0.904712 -3.62996 0
M  V30 16421 H 1520.79 1.20942 -4.7711 0
M  V30 16422 N 1522.44 1.56945 0.143535 0
M  V30 16423 C 1523.38 1.95134 1.2023 0
M  V30 16424 C 1524.39 0.847593 1.38995 0
M  V30 16425 O 1525.58 1.12599 1.38505 0
M  V30 16426 C 1522.68 2.21316 2.56656 0
M  V30 16427 C 1521.85 3.52604 2.58822 0
M  V30 16428 C 1520.91 3.67285 3.76813 0
M  V30 16429 O 1519.94 4.39644 3.61527 0
M  V30 16430 N 1521.14 3.04208 4.94406 0
M  V30 16431 H 1523.9 2.86561 0.87766 0
M  V30 16432 H 1521.46 1.58437 0.333065 0
M  V30 16433 H 1523.46 2.28375 3.34106 0
M  V30 16434 H 1522.03 1.36137 2.81399 0
M  V30 16435 H 1521.25 3.56954 1.67264 0
M  V30 16436 H 1522.53 4.38944 2.57304 0
M  V30 16437 H 1521.93 2.45344 5.09728 0
M  V30 16438 H 1520.49 3.16824 5.69619 0
M  V30 16439 N 1523.92 -0.412991 1.52093 0
M  V30 16440 C 1524.88 -1.48555 1.7454 0
M  V30 16441 C 1525.88 -1.48563 0.615283 0
M  V30 16442 O 1527.07 -1.50155 0.883119 0
M  V30 16443 C 1524.21 -2.87984 1.82423 0
M  V30 16444 H 1525.4 -1.29945 2.70285 0
M  V30 16445 H 1522.95 -0.643241 1.4245 0
M  V30 16446 H 1523.69 -3.11969 0.885777 0
M  V30 16447 H 1523.47 -2.89381 2.64577 0
M  V30 16448 H 1524.96 -3.65745 2.01545 0
M  V30 16449 N 1525.4 -1.4265 -0.669982 0
M  V30 16450 C 1526.31 -1.48916 -1.81276 0
M  V30 16451 C 1527.33 -0.377523 -1.69855 0
M  V30 16452 O 1528.5 -0.629151 -1.91321 0
M  V30 16453 C 1525.57 -1.39376 -3.17451 0
M  V30 16454 C 1524.63 -2.61072 -3.40793 0
M  V30 16455 C 1523.86 -2.51976 -4.70472 0
M  V30 16456 O 1524.08 -1.55827 -5.48702 0
M  V30 16457 O 1523.02 -3.42193 -4.95164 0
M  V30 16458 H 1526.84 -2.45382 -1.78945 0
M  V30 16459 H 1524.43 -1.24467 -0.826342 0
M  V30 16460 H 1526.31 -1.36435 -3.98702 0
M  V30 16461 H 1524.99 -0.460376 -3.20409 0
M  V30 16462 H 1523.89 -2.69587 -2.59372 0
M  V30 16463 H 1525.23 -3.53325 -3.42669 0
M  V30 16464 N 1526.88 0.906753 -1.28902 0
M  V30 16465 C 1527.84 1.99158 -1.1344 0
M  V30 16466 C 1528.84 1.60639 -0.0719551 0
M  V30 16467 O 1530.03 1.71267 -0.318317 0
M  V30 16468 C 1527.16 3.32923 -0.733172 0
M  V30 16469 H 1528.36 2.14305 -2.09794 0
M  V30 16470 H 1525.91 1.09034 -1.11988 0
M  V30 16471 H 1526.64 3.23477 0.230826 0
M  V30 16472 H 1526.43 3.62244 -1.50073 0
M  V30 16473 H 1527.92 4.12544 -0.64784 0
M  V30 16474 N 1528.36 1.11264 1.11616 0
M  V30 16475 C 1529.29 0.713116 2.16772 0
M  V30 16476 C 1530.27 -0.289791 1.59997 0
M  V30 16477 O 1531.45 -0.186649 1.87574 0
M  V30 16478 C 1528.58 0.0535784 3.38658 0
M  V30 16479 C 1527.62 1.02134 4.14091 0
M  V30 16480 S 1528.46 2.54294 4.71269 0
M  V30 16481 C 1529.61 1.89636 5.96481 0
M  V30 16482 H 1529.85 1.60387 2.50326 0
M  V30 16483 H 1527.38 0.930494 1.23212 0
M  V30 16484 H 1529.34 -0.320604 4.09246 0
M  V30 16485 H 1528 -0.814107 3.03366 0
M  V30 16486 H 1527.19 0.50727 5.01441 0
M  V30 16487 H 1526.79 1.33785 3.49253 0
M  V30 16488 H 1529.08 1.23171 6.66209 0
M  V30 16489 H 1530.03 2.74977 6.52528 0
M  V30 16490 H 1530.44 1.35729 5.4794 0
M  V30 16491 N 1529.83 -1.29188 0.902679 0
M  V30 16492 C 1531.08 -1.95438 0.530124 0
M  V30 16493 C 1531.41 -1.71142 -0.924149 0
M  V30 16494 O 1530.66 -1.01901 -1.67077 0
M  V30 16495 C 1530.96 -3.48951 0.772542 0
M  V30 16496 C 1530.63 -3.93328 2.20464 0
M  V30 16497 C 1529.29 -4.05155 2.59621 0
M  V30 16498 C 1531.64 -4.16216 3.13709 0
M  V30 16499 C 1528.97 -4.37242 3.91198 0
M  V30 16500 C 1531.32 -4.49779 4.44839 0
M  V30 16501 C 1529.99 -4.59817 4.83865 0
M  V30 16502 H 1529.26 -0.715158 0.193986 0
M  V30 16503 H 1531.9 -1.5373 1.1419 0
M  V30 16504 H 1530.21 -3.91723 0.0778683 0
M  V30 16505 H 1531.91 -3.98311 0.463623 0
M  V30 16506 H 1528.5 -3.84641 1.89075 0
M  V30 16507 H 1532.68 -4.06542 2.8467 0
M  V30 16508 H 1527.94 -4.43217 4.21152 0
M  V30 16509 H 1532.11 -4.66439 5.17115 0
M  V30 16510 H 1529.74 -4.84435 5.85856 0
M  V30 16511 N 1531.31 -0.665475 -1.42861 0
M  V30 16512 C 1532.56 -0.183521 -2.01265 0
M  V30 16513 C 1532.88 1.21103 -1.52837 0
M  V30 16514 O 1532.15 1.81135 -0.746109 0
M  V30 16515 H 1530.73 -0.0648565 -0.744179 0
M  V30 16516 H 1533.39 -0.859893 -1.74905 0
M  V30 16517 H 1532.49 -0.177589 -3.11594 0
M  V30 16518 N 1532.79 1.52222 -0.408187 0
M  V30 16519 C 1534.04 2.02102 0.168154 0
M  V30 16520 C 1534.37 1.2933 1.4487 0
M  V30 16521 O 1533.64 0.399336 1.90356 0
M  V30 16522 C 1533.93 3.57679 0.416821 0
M  V30 16523 C 1533.78 4.41101 -0.880335 0
M  V30 16524 C 1535.1 4.23442 1.19936 0
M  V30 16525 H 1532.22 0.734583 0.0596402 0
M  V30 16526 H 1534.86 1.82121 -0.541467 0
M  V30 16527 H 1533.01 3.74835 1.02131 0
M  V30 16528 H 1534.68 4.35658 -1.51656 0
M  V30 16529 H 1532.92 4.07353 -1.49152 0
M  V30 16530 H 1533.6 5.48031 -0.660748 0
M  V30 16531 H 1536.07 4.10379 0.687605 0
M  V30 16532 H 1534.95 5.32239 1.3421 0
M  V30 16533 H 1535.21 3.82335 2.21973 0
M  V30 16534 N 1534.27 0.138579 1.5699 0
M  V30 16535 C 1535.52 -0.513611 1.95465 0
M  V30 16536 C 1535.84 -1.65952 1.02396 0
M  V30 16537 O 1535.11 -1.9572 0.0839001 0
M  V30 16538 H 1533.69 -0.192729 0.72171 0
M  V30 16539 H 1536.35 0.212107 1.93742 0
M  V30 16540 H 1535.44 -0.895313 2.98983 0
M  V30 16541 N 1535.75 -1.57019 -0.13521 0
M  V30 16542 C 1536.69 -1.99148 -1.16657 0
M  V30 16543 C 1537.66 -0.860947 -1.42045 0
M  V30 16544 O 1538.85 -1.12393 -1.54183 0
M  V30 16545 C 1535.99 -2.3872 -2.49212 0
M  V30 16546 C 1535.1 -3.65117 -2.30898 0
M  V30 16547 C 1534.24 -3.9374 -3.5657 0
M  V30 16548 C 1533.27 -5.1337 -3.33343 0
M  V30 16549 N 1532.41 -5.37945 -4.51176 0
M  V30 16550 H 1537.25 -2.87052 -0.800312 0
M  V30 16551 H 1534.79 -1.42007 -0.383705 0
M  V30 16552 H 1536.75 -2.59695 -3.26518 0
M  V30 16553 H 1535.38 -1.53879 -2.83762 0
M  V30 16554 H 1534.43 -3.5185 -1.44588 0
M  V30 16555 H 1535.74 -4.52578 -2.09701 0
M  V30 16556 H 1534.89 -4.15277 -4.423 0
M  V30 16557 H 1533.63 -3.04723 -3.80782 0
M  V30 16558 H 1532.64 -4.91694 -2.46002 0
M  V30 16559 H 1533.86 -6.0395 -3.10517 0
M  V30 16560 H 1531.81 -4.51884 -4.75539 0
M  V30 16561 H 1531.73 -6.19698 -4.33025 0
M  V30 16562 H 1532.99 -5.63989 -5.38086 0
M  V30 16563 N 1537.22 0.404919 -1.52309 0
M  V30 16564 C 1538.45 1.17309 -1.70429 0
M  V30 16565 C 1538.87 1.84169 -0.415617 0
M  V30 16566 O 1538.22 1.7205 0.608693 0
M  V30 16567 C 1538.28 2.23306 -2.84282 0
M  V30 16568 O 1538 1.59176 -4.0816 0
M  V30 16569 C 1539.5 3.12972 -3.13948 0
M  V30 16570 H 1536.72 0.352348 -0.571045 0
M  V30 16571 H 1539.26 0.475851 -1.98887 0
M  V30 16572 H 1537.42 2.88693 -2.58332 0
M  V30 16573 H 1537.83 2.29481 -4.71634 0
M  V30 16574 H 1539.3 3.83411 -3.97115 0
M  V30 16575 H 1539.78 3.75582 -2.27672 0
M  V30 16576 H 1540.39 2.53251 -3.41678 0
M  V30 16577 N 1538.7 1.43003 0.662408 0
M  V30 16578 C 1539.93 1.47766 1.45533 0
M  V30 16579 C 1540.35 0.0940298 1.87865 0
M  V30 16580 O 1539.71 -0.910252 1.56793 0
M  V30 16581 C 1539.76 2.42084 2.6726 0
M  V30 16582 O 1538.86 1.90076 3.65985 0
M  V30 16583 H 1538.2 0.500167 0.436725 0
M  V30 16584 H 1540.73 1.87823 0.811399 0
M  V30 16585 H 1540.74 2.5908 3.15185 0
M  V30 16586 H 1539.42 3.42601 2.3579 0
M  V30 16587 H 1538 1.82695 3.2508 0
M  V30 16588 N 1540.18 -0.899904 1.29381 0
M  V30 16589 C 1541.41 -1.68911 1.20349 0
M  V30 16590 C 1541.83 -1.86657 -0.232523 0
M  V30 16591 O 1541.19 -1.38674 -1.16787 0
M  V30 16592 C 1541.24 -3.05124 1.92177 0
M  V30 16593 O 1540.34 -3.93358 1.23867 0
M  V30 16594 H 1539.68 -0.516698 0.417036 0
M  V30 16595 H 1542.21 -1.12422 1.70946 0
M  V30 16596 H 1542.22 -3.55267 2.00623 0
M  V30 16597 H 1540.9 -2.91525 2.96624 0
M  V30 16598 H 1539.47 -3.51793 1.23677 0
M  V30 16599 N 1541.66 -1.11854 -1.11024 0
M  V30 16600 C 1542.59 -0.724602 -2.1639 0
M  V30 16601 C 1543.57 0.281302 -1.60148 0
M  V30 16602 O 1544.75 0.176699 -1.8767 0
M  V30 16603 C 1541.88 -0.0715375 -3.38624 0
M  V30 16604 C 1540.93 -1.04328 -4.13543 0
M  V30 16605 S 1541.76 -2.5679 -4.69914 0
M  V30 16606 C 1542.92 -1.92797 -5.95466 0
M  V30 16607 H 1543.15 -1.61713 -2.49472 0
M  V30 16608 H 1540.68 -0.937015 -1.22717 0
M  V30 16609 H 1542.64 0.298896 -4.0941 0
M  V30 16610 H 1541.3 0.798007 -3.03794 0
M  V30 16611 H 1540.49 -0.533855 -5.01165 0
M  V30 16612 H 1540.1 -1.35636 -3.48538 0
M  V30 16613 H 1542.39 -1.26703 -6.65547 0
M  V30 16614 H 1543.33 -2.78434 -6.51061 0
M  V30 16615 H 1543.74 -1.38633 -5.47212 0
M  V30 16616 N 1543.14 1.28707 -0.909517 0
M  V30 16617 C 1544.07 2.29845 -0.411552 0
M  V30 16618 C 1545.05 1.62001 0.518615 0
M  V30 16619 O 1546.23 1.89442 0.427252 0
M  V30 16620 C 1543.36 3.45501 0.353013 0
M  V30 16621 C 1542.32 4.25213 -0.487625 0
M  V30 16622 C 1541.64 5.33164 0.405026 0
M  V30 16623 C 1542.94 4.9237 -1.74268 0
M  V30 16624 H 1544.64 2.71746 -1.25676 0
M  V30 16625 H 1542.18 1.30639 -0.605759 0
M  V30 16626 H 1544.14 4.15338 0.712191 0
M  V30 16627 H 1542.86 3.02469 1.23209 0
M  V30 16628 H 1541.52 3.57098 -0.829265 0
M  V30 16629 H 1541.17 4.86375 1.28252 0
M  V30 16630 H 1540.87 5.87399 -0.153811 0
M  V30 16631 H 1542.39 6.0585 0.760179 0
M  V30 16632 H 1543.8 5.5459 -1.45266 0
M  V30 16633 H 1542.2 5.56581 -2.2436 0
M  V30 16634 H 1543.27 4.171 -2.47297 0
M  V30 16635 N 1544.61 0.673042 1.42506 0
M  V30 16636 C 1545.52 -0.00648572 2.34599 0
M  V30 16637 C 1546.54 -0.790758 1.54994 0
M  V30 16638 O 1547.72 -0.733482 1.87569 0
M  V30 16639 C 1544.78 -0.94734 3.33506 0
M  V30 16640 C 1543.84 -0.157795 4.2901 0
M  V30 16641 C 1543.08 -1.05384 5.23192 0
M  V30 16642 O 1543.3 -2.29334 5.22266 0
M  V30 16643 O 1542.23 -0.515584 5.99688 0
M  V30 16644 H 1546.06 0.752059 2.94241 0
M  V30 16645 H 1543.64 0.433272 1.42979 0
M  V30 16646 H 1545.53 -1.4875 3.94273 0
M  V30 16647 H 1544.2 -1.68577 2.7634 0
M  V30 16648 H 1543.11 0.426426 3.71662 0
M  V30 16649 H 1544.44 0.54148 4.89212 0
M  V30 16650 N 1546.09 -1.52004 0.416254 0
M  V30 16651 C 1547.34 -2.02188 -0.157434 0
M  V30 16652 C 1547.67 -1.30097 -1.44182 0
M  V30 16653 O 1546.95 -0.409426 -1.90142 0
M  V30 16654 C 1547.23 -3.57896 -0.397847 0
M  V30 16655 C 1547.08 -4.40628 0.903715 0
M  V30 16656 C 1548.4 -4.24072 -1.17689 0
M  V30 16657 H 1545.52 -0.734889 -0.0557437 0
M  V30 16658 H 1548.16 -1.81831 0.551118 0
M  V30 16659 H 1546.31 -3.75372 -1.00142 0
M  V30 16660 H 1547.98 -4.34848 1.53964 0
M  V30 16661 H 1546.23 -4.06556 1.5131 0
M  V30 16662 H 1546.9 -5.47673 0.689802 0
M  V30 16663 H 1549.37 -4.10738 -0.665832 0
M  V30 16664 H 1548.25 -5.32944 -1.31386 0
M  V30 16665 H 1548.51 -3.83507 -2.19942 0
M  V30 16666 N 1547.57 -0.146903 -1.56914 0
M  V30 16667 C 1548.85 0.549291 -1.87729 0
M  V30 16668 C 1549.23 1.82971 -1.05284 0
M  V30 16669 O 1548.58 2.28073 -0.139628 0
M  V30 16670 C 1548.79 0.814835 -3.39354 0
M  V30 16671 C 1550.13 1.15565 -4.0857 0
M  V30 16672 O 1551.16 0.904191 -3.44533 0
M  V30 16673 O 1550.02 1.62886 -5.21661 0
M  V30 16674 H 1547.11 0.280196 -0.778087 0
M  V30 16675 H 1549.66 -0.183507 -1.68705 0
M  V30 16676 H 1548.43 -0.0913527 -3.91193 0
M  V30 16677 H 1548.05 1.60182 -3.63906 0
M  V30 16678 N 1549.05 1.57088 0.126881 0
M  V30 16679 C 1550.33 1.7539 0.8659 0
M  V30 16680 C 1550.71 0.720288 1.98432 0
M  V30 16681 O 1550.05 -0.2572 2.27048 0
M  V30 16682 C 1550.26 3.20131 1.38985 0
M  V30 16683 C 1551.61 3.82404 1.84532 0
M  V30 16684 O 1552.64 3.23685 1.48682 0
M  V30 16685 O 1551.49 4.85599 2.50711 0
M  V30 16686 H 1548.59 0.717853 0.41063 0
M  V30 16687 H 1551.13 1.69335 0.111236 0
M  V30 16688 H 1549.91 3.86871 0.587056 0
M  V30 16689 H 1549.53 3.30692 2.20745 0
M  V30 16690 N 1550.53 -0.396836 1.52522 0
M  V30 16691 C 1551.44 -1.50871 1.79653 0
M  V30 16692 C 1552.45 -1.60043 0.682804 0
M  V30 16693 O 1553.63 -1.76527 0.96955 0
M  V30 16694 C 1550.69 -2.86485 1.95263 0
M  V30 16695 C 1549.75 -2.87099 3.19175 0
M  V30 16696 C 1548.99 -4.16244 3.34031 0
M  V30 16697 O 1549.21 -5.1079 2.5387 0
M  V30 16698 O 1548.14 -4.23962 4.27247 0
M  V30 16699 H 1551.97 -1.30878 2.74052 0
M  V30 16700 H 1549.56 -0.583908 1.37517 0
M  V30 16701 H 1551.44 -3.66895 2.07282 0
M  V30 16702 H 1550.11 -3.0652 1.04052 0
M  V30 16703 H 1549.02 -2.05497 3.12605 0
M  V30 16704 H 1550.35 -2.72014 4.10206 0
M  V30 16705 N 1552.01 -1.43353 -0.654814 0
M  V30 16706 C 1553.25 -1.44599 -1.41193 0
M  V30 16707 C 1553.57 -0.0707955 -1.94871 0
M  V30 16708 O 1552.84 0.893637 -1.7433 0
M  V30 16709 H 1551.42 -0.532373 -0.524011 0
M  V30 16710 H 1554.09 -1.78942 -0.772388 0
M  V30 16711 H 1553.18 -2.15761 -2.25508 0
M  V30 16712 N 1553.48 0.89303 -1.29857 0
M  V30 16713 C 1554.73 1.64088 -1.17981 0
M  V30 16714 C 1555.05 1.93156 0.267533 0
M  V30 16715 O 1554.32 1.56233 1.18186 0
M  V30 16716 H 1552.9 0.608241 -0.43365 0
M  V30 16717 H 1555.56 1.07042 -1.62874 0
M  V30 16718 H 1554.66 2.59446 -1.73477 0
M  V30 16719 N 1554.96 1.12442 1.10429 0
M  V30 16720 C 1556.38 0.860481 1.34417 0
M  V30 16721 C 1556.58 -0.509394 1.94955 0
M  V30 16722 O 1555.63 -1.25807 2.18927 0
M  V30 16723 C 1556.95 1.97694 2.26578 0
M  V30 16724 C 1558.49 2.00783 2.40115 0
M  V30 16725 C 1558.97 3.11663 3.35604 0
M  V30 16726 N 1560.46 3.11106 3.43173 0
M  V30 16727 C 1561.2 3.9354 4.1703 0
M  V30 16728 N 1560.69 4.85963 4.93773 0
M  V30 16729 N 1562.48 3.81677 4.12649 0
M  V30 16730 H 1554.64 2.00706 0.695036 0
M  V30 16731 H 1556.9 0.873398 0.368619 0
M  V30 16732 H 1556.6 2.96405 1.89306 0
M  V30 16733 H 1556.48 1.88217 3.26886 0
M  V30 16734 H 1558.87 1.02692 2.76656 0
M  V30 16735 H 1558.95 2.14335 1.39621 0
M  V30 16736 H 1558.59 4.09987 2.99789 0
M  V30 16737 H 1558.52 2.9535 4.35977 0
M  V30 16738 H 1561.01 2.4415 2.88442 0
M  V30 16739 H 1561.32 5.45373 5.47529 0
M  V30 16740 H 1559.67 4.89976 4.92898 0
M  V30 16741 H 1562.86 3.08808 3.51789 0
M  V30 16742 H 1563.03 4.46151 4.6995 0
M  V30 16743 N 1556.44 -1.28223 0.91633 0
M  V30 16744 C 1557.37 -2.25482 0.351128 0
M  V30 16745 C 1558.35 -1.53155 -0.546108 0
M  V30 16746 O 1559.53 -1.82042 -0.489182 0
M  V30 16747 C 1556.66 -3.35021 -0.497832 0
M  V30 16748 C 1555.71 -4.25187 0.334384 0
M  V30 16749 S 1556.54 -5.06348 1.74276 0
M  V30 16750 C 1557.7 -6.19378 0.901172 0
M  V30 16751 H 1557.93 -2.73075 1.17547 0
M  V30 16752 H 1555.46 -1.36703 0.717752 0
M  V30 16753 H 1557.42 -3.98586 -0.98182 0
M  V30 16754 H 1556.08 -2.8609 -1.29658 0
M  V30 16755 H 1555.27 -5.03015 -0.314884 0
M  V30 16756 H 1554.88 -3.66359 0.75212 0
M  V30 16757 H 1557.17 -6.77371 0.131985 0
M  V30 16758 H 1558.11 -6.88558 1.65208 0
M  V30 16759 H 1558.52 -5.62718 0.448206 0
M  V30 16760 N 1557.92 -0.68059 -1.42147 0
M  V30 16761 C 1559.16 -0.205263 -2.01457 0
M  V30 16762 C 1559.49 1.19015 -1.53837 0
M  V30 16763 O 1558.75 1.81423 -0.733763 0
M  V30 16764 C 1559.05 -0.194825 -3.56869 0
M  V30 16765 C 1558.71 -1.5357 -4.23942 0
M  V30 16766 C 1557.37 -1.90282 -4.4198 0
M  V30 16767 C 1559.73 -2.41852 -4.61689 0
M  V30 16768 C 1557.05 -3.14891 -4.95036 0
M  V30 16769 C 1559.41 -3.65779 -5.16129 0
M  V30 16770 C 1558.07 -4.02653 -5.32379 0
M  V30 16771 H 1557.34 -0.0751109 -0.737183 0
M  V30 16772 H 1559.99 -0.87672 -1.70252 0
M  V30 16773 H 1558.29 0.560155 -3.87775 0
M  V30 16774 H 1559.99 0.190248 -4.00548 0
M  V30 16775 H 1556.58 -1.24012 -4.10267 0
M  V30 16776 H 1560.76 -2.14773 -4.47422 0
M  V30 16777 H 1556.02 -3.43474 -5.05802 0
M  V30 16778 H 1560.19 -4.34384 -5.4432 0
M  V30 16779 H 1557.82 -4.99283 -5.73254 0
M  V30 16780 N 1559.4 1.51781 -0.424309 0
M  V30 16781 C 1560.33 2.30313 0.384462 0
M  V30 16782 C 1561.31 1.35166 1.03268 0
M  V30 16783 O 1562.49 1.64081 1.0388 0
M  V30 16784 C 1559.62 3.13566 1.49311 0
M  V30 16785 C 1558.58 4.16884 0.969096 0
M  V30 16786 C 1557.9 4.88576 2.17251 0
M  V30 16787 C 1559.2 5.22298 0.0125613 0
M  V30 16788 H 1560.9 2.98172 -0.270871 0
M  V30 16789 H 1558.44 1.43396 -0.131712 0
M  V30 16790 H 1560.39 3.67279 2.06602 0
M  V30 16791 H 1559.12 2.43504 2.17655 0
M  V30 16792 H 1557.78 3.64203 0.418494 0
M  V30 16793 H 1557.43 4.15029 2.84183 0
M  V30 16794 H 1557.13 5.58432 1.82833 0
M  V30 16795 H 1558.65 5.45107 2.75119 0
M  V30 16796 H 1560.06 5.71161 0.494744 0
M  V30 16797 H 1558.46 5.99606 -0.243544 0
M  V30 16798 H 1559.53 4.75935 -0.92813 0
M  V30 16799 N 1560.87 0.155222 1.56834 0
M  V30 16800 C 1562.29 -0.201116 1.58328 0
M  V30 16801 C 1562.49 -1.64061 1.16988 0
M  V30 16802 O 1561.55 -2.36892 0.873989 0
M  V30 16803 C 1562.86 0.0651005 3.0063 0
M  V30 16804 C 1564.41 0.00203866 3.13 0
M  V30 16805 C 1564.88 0.241032 4.57365 0
M  V30 16806 N 1566.37 0.188245 4.62817 0
M  V30 16807 C 1567.11 0.347562 5.72346 0
M  V30 16808 N 1566.6 0.565052 6.90492 0
M  V30 16809 N 1568.4 0.284589 5.61379 0
M  V30 16810 H 1560.55 1.09503 1.81997 0
M  V30 16811 H 1562.81 0.434106 0.842767 0
M  V30 16812 H 1562.52 1.06167 3.35293 0
M  V30 16813 H 1562.39 -0.650601 3.71547 0
M  V30 16814 H 1564.78 -0.98509 2.78173 0
M  V30 16815 H 1564.86 0.750199 2.44552 0
M  V30 16816 H 1564.5 1.2253 4.92898 0
M  V30 16817 H 1564.43 -0.52755 5.23951 0
M  V30 16818 H 1566.92 0.0251352 3.77892 0
M  V30 16819 H 1567.24 0.676502 7.69833 0
M  V30 16820 H 1565.58 0.601473 6.92392 0
M  V30 16821 H 1568.77 0.115381 4.67958 0
M  V30 16822 H 1568.95 0.412182 6.46688 0
M  V30 16823 N 1562.35 -1.57153 -0.118549 0
M  V30 16824 C 1563.6 -1.8515 -0.82748 0
M  V30 16825 C 1563.93 -0.741026 -1.79506 0
M  V30 16826 O 1563.21 0.253095 -1.92846 0
M  V30 16827 C 1563.49 -3.23734 -1.57698 0
M  V30 16828 C 1563.34 -4.45381 -0.628967 0
M  V30 16829 C 1564.66 -3.59895 -2.53305 0
M  V30 16830 H 1561.78 -0.673459 -0.29937 0
M  V30 16831 H 1564.42 -1.89778 -0.0917198 0
M  V30 16832 H 1562.57 -3.19919 -2.20418 0
M  V30 16833 H 1564.24 -4.61299 -0.0105746 0
M  V30 16834 H 1562.49 -4.33759 0.059462 0
M  V30 16835 H 1563.16 -5.3902 -1.19004 0
M  V30 16836 H 1565.63 -3.64503 -2.0069 0
M  V30 16837 H 1564.51 -4.57839 -3.02778 0
M  V30 16838 H 1564.77 -2.87338 -3.3599 0
M  V30 16839 N 1563.83 0.388742 -1.5273 0
M  V30 16840 C 1564.76 1.48133 -1.80496 0
M  V30 16841 C 1565.74 1.56899 -0.657008 0
M  V30 16842 O 1566.93 1.71844 -0.904621 0
M  V30 16843 C 1564.06 2.85742 -1.97405 0
M  V30 16844 C 1563.01 2.91815 -3.13094 0
M  V30 16845 C 1562.34 4.31876 -3.15258 0
M  V30 16846 C 1563.64 2.61438 -4.52159 0
M  V30 16847 H 1565.33 1.25147 -2.7199 0
M  V30 16848 H 1562.88 0.600603 -1.30877 0
M  V30 16849 H 1564.83 3.62182 -2.15412 0
M  V30 16850 H 1563.55 3.10065 -1.02601 0
M  V30 16851 H 1562.21 2.17824 -2.9487 0
M  V30 16852 H 1561.86 4.53239 -2.18135 0
M  V30 16853 H 1561.56 4.3686 -3.92972 0
M  V30 16854 H 1563.08 5.10221 -3.3542 0
M  V30 16855 H 1564.5 3.27596 -4.70483 0
M  V30 16856 H 1562.89 2.77771 -5.31943 0
M  V30 16857 H 1563.96 1.56778 -4.58856 0
M  V30 16858 N 1565.31 1.43698 0.647203 0
M  V30 16859 C 1566.56 1.44918 1.40292 0
M  V30 16860 C 1566.87 0.0794243 1.95439 0
M  V30 16861 O 1568.08 -0.0309052 2.71482 0
M  V30 16862 C 1566.53 2.55052 2.53923 0
M  V30 16863 C 1566.14 3.98161 2.05357 0
M  V30 16864 C 1567.88 2.65473 3.31246 0
M  V30 16865 C 1565.79 4.99749 3.16235 0
M  V30 16866 H 1564.72 0.539106 0.527144 0
M  V30 16867 H 1567.37 1.69708 0.697951 0
M  V30 16868 H 1565.75 2.23473 3.26919 0
M  V30 16869 H 1566.93 4.3923 1.39333 0
M  V30 16870 H 1565.24 3.91839 1.40896 0
M  V30 16871 H 1567.84 3.38546 4.13873 0
M  V30 16872 H 1568.18 1.70745 3.79673 0
M  V30 16873 H 1568.72 2.96383 2.65334 0
M  V30 16874 H 1565.45 5.96051 2.7277 0
M  V30 16875 H 1564.97 4.63288 3.80952 0
M  V30 16876 H 1566.65 5.22725 3.81271 0
M  V30 16877 N 1566.79 -0.886131 1.30328 0
M  V30 16878 C 1567.74 -1.979 1.13224 0
M  V30 16879 C 1568.72 -1.60829 0.0477368 0
M  V30 16880 O 1569.91 -1.74914 0.270932 0
M  V30 16881 C 1567.04 -3.33241 0.824943 0
M  V30 16882 C 1566.13 -3.76629 1.94965 0
M  V30 16883 N 1566.52 -3.92125 3.19486 0
M  V30 16884 C 1564.82 -4.06015 1.84575 0
M  V30 16885 C 1565.52 -4.2891 3.92951 0
M  V30 16886 N 1564.49 -4.38707 3.20993 0
M  V30 16887 H 1568.3 -2.07969 2.07668 0
M  V30 16888 H 1565.81 -1.07587 1.21651 0
M  V30 16889 H 1567.81 -4.1126 0.683423 0
M  V30 16890 H 1566.47 -3.24509 -0.111438 0
M  V30 16891 H 1567.48 -3.77288 3.54788 0
M  V30 16892 H 1564.15 -4.05763 0.982969 0
M  V30 16893 H 1565.54 -4.48632 5.00179 0
M  V30 16894 N 1568.26 -1.13026 -1.09832 0
M  V30 16895 C 1569.19 -0.826338 -2.18389 0
M  V30 16896 C 1570.18 0.212529 -1.68767 0
M  V30 16897 O 1571.36 0.072363 -1.94065 0
M  V30 16898 C 1568.49 -0.286991 -3.46112 0
M  V30 16899 C 1567.44 -1.25963 -4.09044 0
M  V30 16900 C 1566.77 -0.580231 -5.31542 0
M  V30 16901 C 1568.07 -2.61661 -4.5203 0
M  V30 16902 H 1569.76 -1.73408 -2.4407 0
M  V30 16903 H 1567.31 -0.835201 -1.17305 0
M  V30 16904 H 1569.26 -0.062067 -4.21354 0
M  V30 16905 H 1567.99 0.656121 -3.19942 0
M  V30 16906 H 1566.65 -1.47047 -3.35816 0
M  V30 16907 H 1566.29 0.368222 -5.0165 0
M  V30 16908 H 1565.99 -1.2291 -5.74601 0
M  V30 16909 H 1567.52 -0.36449 -6.09511 0
M  V30 16910 H 1568.93 -2.44569 -5.18516 0
M  V30 16911 H 1567.33 -3.22685 -5.05959 0
M  V30 16912 H 1568.4 -3.19637 -3.64637 0
M  V30 16913 N 1569.74 1.27735 -0.923117 0
M  V30 16914 C 1570.97 1.98682 -0.577317 0
M  V30 16915 C 1571.39 1.68904 0.843608 0
M  V30 16916 O 1570.74 0.947021 1.56006 0
M  V30 16917 C 1570.79 3.52804 -0.788144 0
M  V30 16918 O 1570.51 3.81537 -2.15316 0
M  V30 16919 C 1572.02 4.41006 -0.450437 0
M  V30 16920 H 1569.24 0.634186 -0.2192 0
M  V30 16921 H 1571.78 1.62702 -1.23888 0
M  V30 16922 H 1569.93 3.87012 -0.173441 0
M  V30 16923 H 1570.35 4.76142 -2.19976 0
M  V30 16924 H 1571.82 5.48175 -0.648674 0
M  V30 16925 H 1572.3 4.3489 0.613806 0
M  V30 16926 H 1572.91 4.1231 -1.04308 0
M  V30 16927 N 1571.22 0.688118 1.41784 0
M  V30 16928 C 1572.15 -0.0323076 2.28177 0
M  V30 16929 C 1573.13 -0.795419 1.41816 0
M  V30 16930 O 1574.32 -0.787785 1.71249 0
M  V30 16931 C 1571.44 -1.05308 3.21913 0
M  V30 16932 C 1570.49 -0.384003 4.24768 0
M  V30 16933 S 1571.32 0.86817 5.28416 0
M  V30 16934 C 1572.48 -0.151191 6.25717 0
M  V30 16935 H 1572.71 0.700456 2.88931 0
M  V30 16936 H 1570.24 0.478125 1.46811 0
M  V30 16937 H 1572.2 -1.63689 3.76452 0
M  V30 16938 H 1570.86 -1.75837 2.6027 0
M  V30 16939 H 1570.06 -1.15469 4.90594 0
M  V30 16940 H 1569.66 0.126545 3.73786 0
M  V30 16941 H 1571.95 -1.0068 6.69977 0
M  V30 16942 H 1572.89 0.472955 7.06519 0
M  V30 16943 H 1573.3 -0.502631 5.62258 0
M  V30 16944 N 1572.7 -1.51554 0.432352 0
M  V30 16945 C 1573.65 -2.24474 -0.39944 0
M  V30 16946 C 1574.63 -1.26505 -0.994242 0
M  V30 16947 O 1575.82 -1.51623 -0.913209 0
M  V30 16948 C 1572.95 -3.08659 -1.50282 0
M  V30 16949 C 1572.04 -4.14053 -0.917654 0
M  V30 16950 N 1572.43 -5.05763 -0.061209 0
M  V30 16951 C 1570.73 -4.29949 -1.18576 0
M  V30 16952 C 1571.43 -5.81087 0.266897 0
M  V30 16953 N 1570.41 -5.42484 -0.348218 0
M  V30 16954 H 1574.21 -2.92739 0.260928 0
M  V30 16955 H 1571.72 -1.60555 0.24413 0
M  V30 16956 H 1573.72 -3.59472 -2.11153 0
M  V30 16957 H 1572.38 -2.41936 -2.16557 0
M  V30 16958 H 1573.39 -5.17002 0.304858 0
M  V30 16959 H 1570.07 -3.74453 -1.84638 0
M  V30 16960 H 1571.46 -6.64956 0.963519 0
M  V30 16961 N 1574.18 -0.163538 -1.56749 0
M  V30 16962 C 1575.45 0.529349 -1.88301 0
M  V30 16963 C 1575.83 1.81844 -1.07219 0
M  V30 16964 O 1575.18 2.27912 -0.16381 0
M  V30 16965 C 1575.39 0.778796 -3.402 0
M  V30 16966 C 1576.74 1.11225 -4.09773 0
M  V30 16967 O 1577.76 0.867598 -3.45472 0
M  V30 16968 O 1576.62 1.57344 -5.2336 0
M  V30 16969 H 1573.72 0.271928 -0.781015 0
M  V30 16970 H 1576.26 -0.20139 -1.68501 0
M  V30 16971 H 1575.03 -0.132839 -3.91074 0
M  V30 16972 H 1574.66 1.56313 -3.65584 0
M  V30 16973 N 1575.65 1.57214 0.110213 0
M  V30 16974 C 1576.88 1.8923 0.829187 0
M  V30 16975 C 1577.29 0.753834 1.73534 0
M  V30 16976 O 1576.64 -0.283946 1.81492 0
M  V30 16977 C 1576.7 3.16351 1.7077 0
M  V30 16978 C 1576.36 4.46479 0.974949 0
M  V30 16979 C 1577.36 5.18965 0.311696 0
M  V30 16980 C 1575.04 4.93167 0.953516 0
M  V30 16981 C 1577.04 6.36364 -0.363191 0
M  V30 16982 C 1574.72 6.10482 0.274836 0
M  V30 16983 C 1575.72 6.81929 -0.382355 0
M  V30 16984 O 1575.41 7.97011 -1.05019 0
M  V30 16985 H 1575.14 0.630744 0.243184 0
M  V30 16986 H 1577.7 2.05173 0.09648 0
M  V30 16987 H 1575.93 2.96513 2.48227 0
M  V30 16988 H 1577.62 3.34317 2.30189 0
M  V30 16989 H 1578.38 4.83944 0.319815 0
M  V30 16990 H 1574.26 4.37454 1.45448 0
M  V30 16991 H 1577.8 6.92069 -0.876728 0
M  V30 16992 H 1573.7 6.44958 0.26451 0
M  V30 16993 H 1574.47 8.12903 -0.95555 0
M  V30 16994 N 1577.13 -0.380637 1.52934 0
M  V30 16995 C 1578.1 -1.44819 1.77652 0
M  V30 16996 C 1579.1 -1.47224 0.646657 0
M  V30 16997 O 1580.29 -1.48248 0.91477 0
M  V30 16998 C 1577.42 -2.8405 1.8849 0
M  V30 16999 H 1578.61 -1.24183 2.72981 0
M  V30 17000 H 1576.16 -0.61288 1.43783 0
M  V30 17001 H 1576.9 -3.1002 0.951751 0
M  V30 17002 H 1576.68 -2.83704 2.70655 0
M  V30 17003 H 1578.17 -3.61388 2.09257 0
M  V30 17004 N 1578.61 -1.44039 -0.639573 0
M  V30 17005 C 1580.02 -1.41236 -1.22104 0
M  V30 17006 C 1580.37 -0.123367 -1.95812 0
M  V30 17007 O 1579.5 0.776641 -2.01983 0
M  V30 17008 C 1580.09 -2.55853 -2.22092 0
M  V30 17009 C 1578.65 -2.56271 -2.75685 0
M  V30 17010 C 1577.8 -2.32877 -1.50544 0
M  V30 17011 H 1580.75 -1.52742 -0.430756 0
M  V30 17012 H 1580.77 -2.28123 -3.04533 0
M  V30 17013 H 1580.28 -3.49653 -1.68417 0
M  V30 17014 H 1578.38 -1.66389 -3.33385 0
M  V30 17015 H 1578.5 -3.54486 -3.22299 0
M  V30 17016 H 1576.86 -1.81807 -1.78377 0
M  V30 17017 H 1577.64 -3.2878 -0.987845 0
M  V30 17018 N 1580.09 0.879207 -1.30796 0
M  V30 17019 C 1581.02 2.00158 -1.20246 0
M  V30 17020 C 1582 1.69852 -0.091769 0
M  V30 17021 O 1583.18 1.92246 -0.274792 0
M  V30 17022 C 1580.31 3.3545 -0.899472 0
M  V30 17023 C 1579.27 3.80033 -1.96873 0
M  V30 17024 C 1578.59 5.12681 -1.51861 0
M  V30 17025 C 1579.89 3.98136 -3.38061 0
M  V30 17026 H 1581.59 2.09242 -2.14145 0
M  V30 17027 H 1579.13 1.00535 -1.03096 0
M  V30 17028 H 1581.09 4.13497 -0.812299 0
M  V30 17029 H 1579.81 3.26513 0.075189 0
M  V30 17030 H 1578.47 3.04219 -2.04564 0
M  V30 17031 H 1578.12 5.00178 -0.532063 0
M  V30 17032 H 1577.82 5.43482 -2.23386 0
M  V30 17033 H 1579.34 5.93247 -1.44534 0
M  V30 17034 H 1580.76 4.66604 -3.33096 0
M  V30 17035 H 1579.15 4.40321 -4.07722 0
M  V30 17036 H 1580.22 3.01807 -3.79526 0
M  V30 17037 N 1581.57 1.13606 1.09231 0
M  V30 17038 C 1582.81 0.900386 1.81717 0
M  V30 17039 C 1583.15 -0.571984 1.85586 0
M  V30 17040 O 1582.42 -1.42336 1.32554 0
M  V30 17041 C 1582.7 1.49143 3.27763 0
M  V30 17042 C 1582.56 3.03306 3.32153 0
M  V30 17043 C 1583.88 1.16129 4.24502 0
M  V30 17044 H 1581 0.328531 0.659724 0
M  V30 17045 H 1583.64 1.40467 1.27941 0
M  V30 17046 H 1581.79 1.06256 3.73687 0
M  V30 17047 H 1583.46 3.54963 2.94617 0
M  V30 17048 H 1581.7 3.38192 2.71677 0
M  V30 17049 H 1582.37 3.39761 4.35047 0
M  V30 17050 H 1584.85 1.53193 3.86874 0
M  V30 17051 H 1583.73 1.60129 5.25024 0
M  V30 17052 H 1583.99 0.0752973 4.42036 0
M  V30 17053 N 1583.05 -1.27244 0.929878 0
M  V30 17054 C 1584.27 -1.98912 0.587277 0
M  V30 17055 C 1584.7 -1.68888 -0.828168 0
M  V30 17056 O 1584.05 -0.930394 -1.55606 0
M  V30 17057 C 1584.1 -3.51097 0.822399 0
M  V30 17058 O 1583.21 -4.12251 -0.110968 0
M  V30 17059 H 1582.55 -0.624404 0.225867 0
M  V30 17060 H 1585.08 -1.61997 1.24973 0
M  V30 17061 H 1585.09 -4.01255 0.738824 0
M  V30 17062 H 1583.76 -3.72282 1.85416 0
M  V30 17063 H 1582.34 -3.72893 0.0227053 0
M  V30 17064 N 1584.52 -0.695628 -1.41417 0
M  V30 17065 C 1585.77 -0.226171 -2.0083 0
M  V30 17066 C 1586.09 1.17833 -1.55371 0
M  V30 17067 O 1585.36 1.79512 -0.784362 0
M  V30 17068 H 1583.94 -0.0806271 -0.742636 0
M  V30 17069 H 1586.6 -0.8968 -1.73042 0
M  V30 17070 H 1585.7 -0.243643 -3.11148 0
M  V30 17071 N 1586 1.51322 -0.440383 0
M  V30 17072 C 1586.96 2.26388 0.357911 0
M  V30 17073 C 1587.96 1.2995 0.947083 0
M  V30 17074 O 1589.15 1.53637 0.821057 0
M  V30 17075 C 1586.29 3.05797 1.50669 0
M  V30 17076 H 1587.48 2.98396 -0.300002 0
M  V30 17077 H 1585.03 1.55096 -0.193628 0
M  V30 17078 H 1585.77 2.38213 2.20057 0
M  V30 17079 H 1585.55 3.76634 1.09037 0
M  V30 17080 H 1587.04 3.6265 2.07062 0
M  V30 17081 N 1587.48 0.171848 1.5666 0
M  V30 17082 C 1588.41 -0.753861 2.20996 0
M  V30 17083 C 1589.39 -1.23873 1.16574 0
M  V30 17084 O 1590.58 -1.29179 1.45005 0
M  V30 17085 C 1587.71 -1.98314 2.85112 0
M  V30 17086 C 1586.66 -1.6341 3.95577 0
M  V30 17087 C 1585.99 -2.93807 4.46745 0
M  V30 17088 C 1587.29 -0.861713 5.15142 0
M  V30 17089 H 1588.98 -0.217598 2.98608 0
M  V30 17090 H 1586.53 -0.10322 1.4363 0
M  V30 17091 H 1588.48 -2.63576 3.28794 0
M  V30 17092 H 1587.2 -2.54354 2.04869 0
M  V30 17093 H 1585.86 -1.00516 3.52551 0
M  V30 17094 H 1585.51 -3.47889 3.63293 0
M  V30 17095 H 1585.21 -2.71207 5.21268 0
M  V30 17096 H 1586.73 -3.60098 4.93114 0
M  V30 17097 H 1588.15 -1.41693 5.55514 0
M  V30 17098 H 1586.54 -0.734727 5.95585 0
M  V30 17099 H 1587.61 0.141851 4.84692 0
M  V30 17100 N 1588.96 -1.5727 -0.101874 0
M  V30 17101 C 1589.89 -1.98253 -1.15014 0
M  V30 17102 C 1590.9 -0.884147 -1.36699 0
M  V30 17103 O 1592.09 -1.16232 -1.35471 0
M  V30 17104 C 1589.19 -2.28043 -2.50698 0
M  V30 17105 C 1588.36 -3.59343 -2.49383 0
M  V30 17106 C 1587.42 -3.77147 -3.66943 0
M  V30 17107 O 1586.45 -4.49075 -3.49744 0
M  V30 17108 N 1587.65 -3.1721 -4.86167 0
M  V30 17109 H 1590.42 -2.88787 -0.801375 0
M  V30 17110 H 1587.98 -1.59264 -0.290941 0
M  V30 17111 H 1589.97 -2.37153 -3.27934 0
M  V30 17112 H 1588.54 -1.4355 -2.77691 0
M  V30 17113 H 1587.76 -3.61264 -1.57741 0
M  V30 17114 H 1589.05 -4.45612 -2.45576 0
M  V30 17115 H 1588.45 -2.58772 -5.03044 0
M  V30 17116 H 1587 -3.31816 -5.61018 0
M  V30 17117 N 1590.44 0.372521 -1.53134 0
M  V30 17118 C 1591.37 1.4621 -1.82057 0
M  V30 17119 C 1592.35 1.56194 -0.673612 0
M  V30 17120 O 1593.53 1.70875 -0.922797 0
M  V30 17121 C 1590.66 2.83632 -2.00425 0
M  V30 17122 C 1589.62 2.88478 -3.16171 0
M  V30 17123 C 1588.94 4.28508 -3.19821 0
M  V30 17124 C 1590.24 2.56628 -4.54906 0
M  V30 17125 H 1591.94 1.22256 -2.73302 0
M  V30 17126 H 1589.48 0.586688 -1.31507 0
M  V30 17127 H 1591.43 3.59876 -2.19242 0
M  V30 17128 H 1590.16 3.0896 -1.05884 0
M  V30 17129 H 1588.82 2.14684 -2.97164 0
M  V30 17130 H 1588.47 4.509 -2.2293 0
M  V30 17131 H 1588.17 4.32667 -3.97584 0
M  V30 17132 H 1589.69 5.06635 -3.40813 0
M  V30 17133 H 1591.1 3.22587 -4.73931 0
M  V30 17134 H 1589.5 2.72114 -5.34859 0
M  V30 17135 H 1590.57 1.51902 -4.60493 0
M  V30 17136 N 1591.91 1.44376 0.631925 0
M  V30 17137 C 1592.84 1.54005 1.75512 0
M  V30 17138 C 1593.82 0.393126 1.65495 0
M  V30 17139 O 1595.01 0.613143 1.84267 0
M  V30 17140 C 1592.14 1.48313 3.14039 0
M  V30 17141 C 1591.09 2.61474 3.38844 0
M  V30 17142 C 1590.42 2.40834 4.77392 0
M  V30 17143 C 1591.72 4.03627 3.31485 0
M  V30 17144 H 1593.41 2.48019 1.6771 0
M  V30 17145 H 1590.96 1.19368 0.80543 0
M  V30 17146 H 1592.91 1.5365 3.9239 0
M  V30 17147 H 1591.64 0.508152 3.22623 0
M  V30 17148 H 1590.3 2.55525 2.62874 0
M  V30 17149 H 1589.94 1.4153 4.82678 0
M  V30 17150 H 1589.64 3.16703 4.94947 0
M  V30 17151 H 1591.17 2.47988 5.57974 0
M  V30 17152 H 1592.58 4.1095 3.99741 0
M  V30 17153 H 1590.98 4.79694 3.60574 0
M  V30 17154 H 1592.05 4.27255 2.29307 0
M  V30 17155 N 1593.39 -0.872258 1.31261 0
M  V30 17156 C 1594.64 -1.62511 1.20815 0
M  V30 17157 C 1594.97 -1.93084 -0.234231 0
M  V30 17158 O 1594.22 -1.55945 -1.18236 0
M  V30 17159 C 1594.52 -2.96524 1.9952 0
M  V30 17160 C 1594.19 -2.85453 3.49038 0
M  V30 17161 C 1592.85 -2.8214 3.89808 0
M  V30 17162 C 1595.2 -2.72654 4.44195 0
M  V30 17163 C 1592.53 -2.63885 5.24005 0
M  V30 17164 C 1594.88 -2.55936 5.78515 0
M  V30 17165 C 1593.54 -2.51005 6.18508 0
M  V30 17166 H 1592.81 -0.594672 0.442093 0
M  V30 17167 H 1595.46 -1.01319 1.62501 0
M  V30 17168 H 1593.77 -3.61739 1.50507 0
M  V30 17169 H 1595.46 -3.53763 1.8882 0
M  V30 17170 H 1592.05 -2.88847 3.16647 0
M  V30 17171 H 1596.24 -2.7427 4.1363 0
M  V30 17172 H 1591.49 -2.58491 5.54069 0
M  V30 17173 H 1595.67 -2.45009 6.51877 0
M  V30 17174 H 1593.29 -2.36619 7.22437 0
M  V30 17175 N 1594.87 -1.14184 -1.08627 0
M  V30 17176 C 1595.82 -0.826718 -2.15486 0
M  V30 17177 C 1596.79 0.214769 -1.64706 0
M  V30 17178 O 1597.97 0.0851909 -1.9061 0
M  V30 17179 C 1595.11 -0.307888 -3.43724 0
M  V30 17180 C 1594.22 -1.40941 -4.08362 0
M  V30 17181 C 1593.36 -0.848059 -5.24387 0
M  V30 17182 C 1592.4 -1.92741 -5.80962 0
M  V30 17183 N 1591.54 -1.3834 -6.88336 0
M  V30 17184 H 1596.38 -1.74198 -2.41783 0
M  V30 17185 H 1593.91 -0.869406 -1.18658 0
M  V30 17186 H 1595.87 0.0111149 -4.17199 0
M  V30 17187 H 1594.5 0.570488 -3.17719 0
M  V30 17188 H 1593.55 -1.84485 -3.3267 0
M  V30 17189 H 1594.86 -2.22485 -4.46433 0
M  V30 17190 H 1594.02 -0.480826 -6.04792 0
M  V30 17191 H 1592.76 -0.00163783 -4.877 0
M  V30 17192 H 1591.76 -2.30362 -4.99213 0
M  V30 17193 H 1592.99 -2.77738 -6.19708 0
M  V30 17194 H 1590.93 -0.559124 -6.53613 0
M  V30 17195 H 1590.85 -2.13524 -7.2522 0
M  V30 17196 H 1592.12 -1.044 -7.72477 0
M  V30 17197 N 1596.35 1.26749 -0.936613 0
M  V30 17198 C 1597.3 2.24218 -0.413552 0
M  V30 17199 C 1598.28 1.53347 0.487172 0
M  V30 17200 O 1599.47 1.74025 0.323163 0
M  V30 17201 C 1596.6 3.41765 0.324304 0
M  V30 17202 C 1595.69 4.19927 -0.593449 0
M  V30 17203 N 1596.08 4.75757 -1.71722 0
M  V30 17204 C 1594.38 4.44219 -0.398158 0
M  V30 17205 C 1595.08 5.34781 -2.28876 0
M  V30 17206 N 1594.06 5.20214 -1.5773 0
M  V30 17207 H 1597.86 2.64974 -1.27146 0
M  V30 17208 H 1595.37 1.41782 -0.791938 0
M  V30 17209 H 1597.37 4.10705 0.716034 0
M  V30 17210 H 1596.03 3.02538 1.17903 0
M  V30 17211 H 1597.04 4.73438 -2.09945 0
M  V30 17212 H 1593.72 4.15431 0.415175 0
M  V30 17213 H 1595.11 5.88875 -3.23536 0
M  V30 17214 N 1597.83 0.703118 1.41046 0
M  V30 17215 C 1599.07 0.237287 2.01105 0
M  V30 17216 C 1599.4 -1.16552 1.55711 0
M  V30 17217 O 1598.66 -1.80233 0.762533 0
M  V30 17218 C 1598.96 0.251575 3.56513 0
M  V30 17219 C 1598.62 1.60295 4.21446 0
M  V30 17220 C 1597.28 1.9729 4.38897 0
M  V30 17221 C 1599.64 2.49167 4.57783 0
M  V30 17222 C 1596.96 3.22726 4.89964 0
M  V30 17223 C 1599.32 3.73943 5.10244 0
M  V30 17224 C 1597.98 4.11072 5.25905 0
M  V30 17225 H 1597.25 0.0868294 0.735895 0
M  V30 17226 H 1599.9 0.903695 1.68836 0
M  V30 17227 H 1598.2 -0.498393 3.88617 0
M  V30 17228 H 1599.9 -0.126501 4.008 0
M  V30 17229 H 1596.49 1.30523 4.08242 0
M  V30 17230 H 1600.67 2.21864 4.43948 0
M  V30 17231 H 1595.93 3.51477 5.00274 0
M  V30 17232 H 1600.1 4.42988 5.3734 0
M  V30 17233 H 1597.73 5.0834 5.65239 0
M  V30 17234 N 1599.3 -1.51086 0.448402 0
M  V30 17235 C 1600.53 -2.07081 -0.115038 0
M  V30 17236 C 1600.95 -1.31253 -1.34737 0
M  V30 17237 O 1600.31 -0.353613 -1.77818 0
M  V30 17238 C 1600.36 -3.58321 -0.404803 0
M  V30 17239 O 1599.46 -3.84567 -1.48936 0
M  V30 17240 H 1598.81 -0.663993 0.00299118 0
M  V30 17241 H 1601.34 -1.94564 0.632921 0
M  V30 17242 H 1601.35 -4.02756 -0.652013 0
M  V30 17243 H 1600.02 -4.12934 0.495838 0
M  V30 17244 H 1598.6 -3.51987 -1.23124 0
M  V30 17245 N 1600.78 -0.180154 -1.56567 0
M  V30 17246 C 1601.71 0.77825 -2.15583 0
M  V30 17247 C 1602.73 1.18746 -1.1137 0
M  V30 17248 O 1603.92 1.12578 -1.38523 0
M  V30 17249 C 1601.02 2.06024 -2.69086 0
M  V30 17250 C 1600.19 1.8132 -3.98047 0
M  V30 17251 C 1599.25 2.93823 -4.36526 0
M  V30 17252 O 1598.27 2.64075 -5.04235 0
M  V30 17253 N 1599.48 4.21823 -3.98806 0
M  V30 17254 H 1602.24 0.273661 -2.98448 0
M  V30 17255 H 1599.8 0.00232952 -1.619 0
M  V30 17256 H 1601.79 2.80398 -2.9182 0
M  V30 17257 H 1600.36 2.47648 -1.9076 0
M  V30 17258 H 1599.58 0.908046 -3.83599 0
M  V30 17259 H 1600.87 1.62194 -4.82256 0
M  V30 17260 H 1600.27 4.48849 -3.44313 0
M  V30 17261 H 1598.83 4.92871 -4.26522 0
M  V30 17262 N 1602.26 1.57322 0.0935319 0
M  V30 17263 C 1603.68 1.5319 0.447781 0
M  V30 17264 C 1603.88 0.897107 1.80428 0
M  V30 17265 O 1602.93 0.490285 2.47694 0
M  V30 17266 C 1604.25 2.97908 0.408832 0
M  V30 17267 C 1605.79 3.09132 0.490576 0
M  V30 17268 C 1606.27 4.55459 0.481759 0
M  V30 17269 N 1607.76 4.60013 0.542468 0
M  V30 17270 C 1608.49 5.70683 0.557509 0
M  V30 17271 N 1607.99 6.9078 0.528664 0
M  V30 17272 N 1609.78 5.58862 0.602438 0
M  V30 17273 H 1601.93 1.96962 -0.794965 0
M  V30 17274 H 1604.2 0.900583 -0.296064 0
M  V30 17275 H 1603.9 3.47823 -0.520766 0
M  V30 17276 H 1603.78 3.56678 1.22722 0
M  V30 17277 H 1606.16 2.59203 1.41059 0
M  V30 17278 H 1606.25 2.53311 -0.355982 0
M  V30 17279 H 1605.89 5.0604 -0.43432 0
M  V30 17280 H 1605.82 5.09119 1.34555 0
M  V30 17281 H 1608.31 3.73578 0.569892 0
M  V30 17282 H 1608.62 7.70887 0.543467 0
M  V30 17283 H 1606.97 6.9323 0.495687 0
M  V30 17284 H 1610.16 4.63942 0.622514 0
M  V30 17285 H 1610.33 6.45116 0.610691 0
M  V30 17286 N 1603.74 -0.364395 1.53329 0
M  V30 17287 C 1604.67 -1.46658 1.76137 0
M  V30 17288 C 1605.68 -1.496 0.642166 0
M  V30 17289 O 1606.87 -1.53058 0.918452 0
M  V30 17290 C 1603.97 -2.85417 1.8273 0
M  V30 17291 C 1603.15 -3.06158 3.12388 0
M  V30 17292 C 1602.2 -4.25038 3.10208 0
M  V30 17293 O 1601.23 -4.20156 3.84002 0
M  V30 17294 N 1602.43 -5.32511 2.31111 0
M  V30 17295 H 1605.2 -1.27471 2.7124 0
M  V30 17296 H 1602.76 -0.554127 1.52122 0
M  V30 17297 H 1604.75 -3.63086 1.78748 0
M  V30 17298 H 1603.32 -2.97845 0.949058 0
M  V30 17299 H 1602.54 -2.16139 3.29663 0
M  V30 17300 H 1603.83 -3.16885 3.98072 0
M  V30 17301 H 1603.23 -5.39341 1.70669 0
M  V30 17302 H 1601.78 -6.08752 2.32946 0
M  V30 17303 N 1605.22 -1.44709 -0.62426 0
M  V30 17304 C 1606.13 -1.54608 -1.76447 0
M  V30 17305 C 1607.14 -0.43137 -1.68568 0
M  V30 17306 O 1608.32 -0.6897 -1.89222 0
M  V30 17307 C 1605.38 -1.49404 -3.12857 0
M  V30 17308 C 1604.44 -2.71782 -3.32315 0
M  V30 17309 C 1603.68 -2.66817 -4.62217 0
M  V30 17310 O 1603.9 -1.73205 -5.43467 0
M  V30 17311 O 1602.83 -3.57773 -4.84027 0
M  V30 17312 H 1606.66 -2.50951 -1.71048 0
M  V30 17313 H 1604.25 -1.27033 -0.786326 0
M  V30 17314 H 1606.13 -1.4905 -3.9416 0
M  V30 17315 H 1604.8 -0.562078 -3.18783 0
M  V30 17316 H 1603.71 -2.77702 -2.50664 0
M  V30 17317 H 1605.04 -3.64048 -3.31255 0
M  V30 17318 N 1606.69 0.865285 -1.31722 0
M  V30 17319 C 1607.66 1.95449 -1.19718 0
M  V30 17320 C 1608.66 1.60329 -0.123025 0
M  V30 17321 O 1609.85 1.70168 -0.372643 0
M  V30 17322 C 1606.98 3.30421 -0.838718 0
M  V30 17323 H 1608.17 2.07522 -2.16506 0
M  V30 17324 H 1605.73 1.05416 -1.154 0
M  V30 17325 H 1606.46 3.24048 0.127797 0
M  V30 17326 H 1606.25 3.57286 -1.61522 0
M  V30 17327 H 1607.74 4.10274 -0.77876 0
M  V30 17328 N 1608.17 1.14759 1.0802 0
M  V30 17329 C 1609.11 0.781719 2.14393 0
M  V30 17330 C 1610.08 -0.238743 1.60838 0
M  V30 17331 O 1611.27 -0.126879 1.88073 0
M  V30 17332 C 1608.39 0.161293 3.38316 0
M  V30 17333 C 1607.44 1.15256 4.10632 0
M  V30 17334 S 1608.27 2.69159 4.6294 0
M  V30 17335 C 1609.43 2.08517 5.90145 0
M  V30 17336 H 1609.66 1.6827 2.45097 0
M  V30 17337 H 1607.2 0.969222 1.20189 0
M  V30 17338 H 1609.15 -0.190243 4.10059 0
M  V30 17339 H 1607.81 -0.717181 3.05803 0
M  V30 17340 H 1607.01 0.666543 4.99573 0
M  V30 17341 H 1606.61 1.44829 3.4482 0
M  V30 17342 H 1608.9 1.44304 6.61954 0
M  V30 17343 H 1609.84 2.95598 6.4345 0
M  V30 17344 H 1610.25 1.53092 5.43344 0
M  V30 17345 N 1609.65 -1.26251 0.943322 0
M  V30 17346 C 1610.6 -2.23996 0.425437 0
M  V30 17347 C 1611.58 -1.53604 -0.479033 0
M  V30 17348 O 1612.78 -1.74194 -0.313929 0
M  V30 17349 C 1609.91 -3.41932 -0.306175 0
M  V30 17350 C 1608.99 -4.19607 0.615711 0
M  V30 17351 N 1609.38 -4.7484 1.74243 0
M  V30 17352 C 1607.68 -4.44002 0.421711 0
M  V30 17353 C 1608.38 -5.3356 2.31709 0
M  V30 17354 N 1607.36 -5.1937 1.60487 0
M  V30 17355 H 1611.16 -2.64296 1.28549 0
M  V30 17356 H 1608.67 -1.4136 0.799446 0
M  V30 17357 H 1610.67 -4.11079 -0.694243 0
M  V30 17358 H 1609.33 -3.03159 -1.16297 0
M  V30 17359 H 1610.34 -4.72318 2.12453 0
M  V30 17360 H 1607.02 -4.15645 -0.393138 0
M  V30 17361 H 1608.41 -5.87151 3.26654 0
M  V30 17362 N 1611.13 -0.710588 -1.40671 0
M  V30 17363 C 1612.36 -0.257442 -2.05292 0
M  V30 17364 C 1612.77 1.09891 -1.53523 0
M  V30 17365 O 1612.13 1.68966 -0.689703 0
M  V30 17366 C 1612.18 -0.223091 -3.60811 0
M  V30 17367 O 1611.9 -1.52588 -4.10668 0
M  V30 17368 C 1613.4 0.249217 -4.42599 0
M  V30 17369 H 1610.62 -0.116663 -0.66078 0
M  V30 17370 H 1613.17 -0.967391 -1.80172 0
M  V30 17371 H 1611.32 0.437787 -3.84918 0
M  V30 17372 H 1611.74 -1.42301 -5.04827 0
M  V30 17373 H 1613.21 0.22211 -5.51553 0
M  V30 17374 H 1613.69 1.29057 -4.19811 0
M  V30 17375 H 1614.29 -0.381202 -4.23588 0
M  V30 17376 N 1612.61 1.50847 -0.456408 0
M  V30 17377 C 1613.85 2.02235 0.103618 0
M  V30 17378 C 1614.18 1.33939 1.41034 0
M  V30 17379 O 1613.44 0.449209 1.90475 0
M  V30 17380 C 1613.74 3.55678 0.350374 0
M  V30 17381 C 1613.4 4.42371 -0.872844 0
M  V30 17382 C 1612.06 4.65784 -1.20825 0
M  V30 17383 C 1614.42 4.9311 -1.68797 0
M  V30 17384 C 1611.74 5.3718 -2.35911 0
M  V30 17385 C 1614.1 5.65769 -2.82998 0
M  V30 17386 C 1612.76 5.8744 -3.16971 0
M  V30 17387 H 1612.03 0.740029 0.0379167 0
M  V30 17388 H 1614.68 1.81609 -0.607497 0
M  V30 17389 H 1612.98 3.74739 1.14359 0
M  V30 17390 H 1614.68 3.92991 0.797418 0
M  V30 17391 H 1611.27 4.24358 -0.601511 0
M  V30 17392 H 1615.45 4.74889 -1.44203 0
M  V30 17393 H 1610.71 5.52169 -2.62524 0
M  V30 17394 H 1614.88 6.04069 -3.46516 0
M  V30 17395 H 1612.51 6.42541 -4.06258 0
M  V30 17396 N 1614.09 0.188454 1.56469 0
M  V30 17397 C 1615.03 -0.735074 2.18781 0
M  V30 17398 C 1616 -1.21459 1.133 0
M  V30 17399 O 1617.19 -1.27967 1.41524 0
M  V30 17400 C 1614.33 -1.95181 2.84602 0
M  V30 17401 C 1613.44 -1.51428 4.0459 0
M  V30 17402 C 1612.58 -2.68601 4.58287 0
M  V30 17403 C 1611.61 -2.21422 5.70648 0
M  V30 17404 N 1610.75 -3.31749 6.18779 0
M  V30 17405 H 1615.59 -0.19694 2.97349 0
M  V30 17406 H 1613.13 -0.0854693 1.46851 0
M  V30 17407 H 1615.09 -2.66571 3.2093 0
M  V30 17408 H 1613.72 -2.46337 2.0861 0
M  V30 17409 H 1612.77 -0.6965 3.73969 0
M  V30 17410 H 1614.08 -1.1281 4.85876 0
M  V30 17411 H 1613.23 -3.48123 4.96885 0
M  V30 17412 H 1611.97 -3.1049 3.76095 0
M  V30 17413 H 1610.98 -1.40352 5.31584 0
M  V30 17414 H 1612.2 -1.80572 6.54653 0
M  V30 17415 H 1610.15 -3.73181 5.39511 0
M  V30 17416 H 1610.07 -2.97277 6.95099 0
M  V30 17417 H 1611.33 -4.11504 6.62031 0
M  V30 17418 N 1615.56 -1.5737 -0.0851874 0
M  V30 17419 C 1616.5 -1.99462 -1.12905 0
M  V30 17420 C 1617.51 -0.898597 -1.35754 0
M  V30 17421 O 1618.7 -1.17662 -1.34231 0
M  V30 17422 C 1615.8 -2.30689 -2.48266 0
M  V30 17423 C 1614.97 -3.61967 -2.45557 0
M  V30 17424 C 1614.03 -3.81017 -3.62922 0
M  V30 17425 O 1613.06 -4.52759 -3.44961 0
M  V30 17426 N 1614.26 -3.22348 -4.82775 0
M  V30 17427 H 1617.02 -2.89621 -0.7707 0
M  V30 17428 H 1614.58 -1.59564 -0.274033 0
M  V30 17429 H 1616.58 -2.40618 -3.254 0
M  V30 17430 H 1615.15 -1.46488 -2.76152 0
M  V30 17431 H 1614.37 -3.62916 -1.539 0
M  V30 17432 H 1615.65 -4.48191 -2.40836 0
M  V30 17433 H 1615.05 -2.64093 -5.00271 0
M  V30 17434 H 1613.61 -3.37747 -5.57468 0
M  V30 17435 N 1617.04 0.356258 -1.53521 0
M  V30 17436 C 1618.29 1.09953 -1.70406 0
M  V30 17437 C 1618.62 1.8869 -0.459304 0
M  V30 17438 O 1617.9 1.86751 0.54354 0
M  V30 17439 C 1618.18 2.05114 -2.95973 0
M  V30 17440 C 1618.03 1.29924 -4.30627 0
M  V30 17441 C 1619.35 3.0511 -3.17168 0
M  V30 17442 H 1616.47 0.398343 -0.620074 0
M  V30 17443 H 1619.11 0.379376 -1.86174 0
M  V30 17444 H 1617.26 2.66524 -2.82661 0
M  V30 17445 H 1618.93 0.71226 -4.55768 0
M  V30 17446 H 1617.18 0.601141 -4.29615 0
M  V30 17447 H 1617.85 1.99624 -5.1464 0
M  V30 17448 H 1620.32 2.53809 -3.29728 0
M  V30 17449 H 1619.2 3.68908 -4.06445 0
M  V30 17450 H 1619.46 3.75794 -2.32876 0
M  V30 17451 N 1618.52 1.45038 0.616577 0
M  V30 17452 C 1619.45 1.49023 1.7414 0
M  V30 17453 C 1620.46 0.381965 1.58256 0
M  V30 17454 O 1621.65 0.648527 1.66302 0
M  V30 17455 C 1618.75 1.32233 3.12038 0
M  V30 17456 C 1617.93 2.5657 3.54246 0
M  V30 17457 C 1616.99 2.34468 4.71075 0
M  V30 17458 O 1616.01 3.08035 4.78647 0
M  V30 17459 N 1617.21 1.38454 5.63747 0
M  V30 17460 H 1619.98 2.45997 1.71189 0
M  V30 17461 H 1617.54 1.40663 0.80159 0
M  V30 17462 H 1619.53 1.15271 3.87936 0
M  V30 17463 H 1618.1 0.435685 3.09549 0
M  V30 17464 H 1617.32 2.88709 2.68404 0
M  V30 17465 H 1618.61 3.39239 3.79203 0
M  V30 17466 H 1618.01 0.777236 5.60335 0
M  V30 17467 H 1616.56 1.27467 6.39215 0
M  V30 17468 N 1620 -0.858287 1.32179 0
M  V30 17469 C 1620.93 -1.98219 1.23415 0
M  V30 17470 C 1621.91 -1.69685 0.118779 0
M  V30 17471 O 1623.09 -1.91785 0.305342 0
M  V30 17472 C 1620.22 -3.33977 0.952725 0
M  V30 17473 C 1619.18 -3.76853 2.02894 0
M  V30 17474 C 1618.5 -5.10201 1.59999 0
M  V30 17475 C 1619.8 -3.92707 3.44352 0
M  V30 17476 H 1621.5 -2.05809 2.17446 0
M  V30 17477 H 1619.04 -0.988817 1.04682 0
M  V30 17478 H 1621 -4.12152 0.87798 0
M  V30 17479 H 1619.72 -3.26592 -0.023234 0
M  V30 17480 H 1618.38 -3.00926 2.09378 0
M  V30 17481 H 1618.03 -4.99268 0.61157 0
M  V30 17482 H 1617.73 -5.39859 2.32004 0
M  V30 17483 H 1619.25 -5.90873 1.53954 0
M  V30 17484 H 1620.67 -4.61246 3.40477 0
M  V30 17485 H 1619.06 -4.33779 4.14675 0
M  V30 17486 H 1620.13 -2.95731 3.8428 0
M  V30 17487 N 1621.48 -1.1533 -1.07409 0
M  V30 17488 C 1622.41 -0.872476 -2.16587 0
M  V30 17489 C 1623.39 0.176683 -1.6918 0
M  V30 17490 O 1624.57 0.0311826 -1.94175 0
M  V30 17491 C 1621.7 -0.360342 -3.45426 0
M  V30 17492 C 1620.66 -1.34611 -4.06281 0
M  V30 17493 C 1619.98 -0.692848 -5.30192 0
M  V30 17494 C 1621.28 -2.71191 -4.46378 0
M  V30 17495 H 1622.98 -1.78546 -2.40336 0
M  V30 17496 H 1620.52 -0.859895 -1.15507 0
M  V30 17497 H 1622.47 -0.151429 -4.21128 0
M  V30 17498 H 1621.2 0.588109 -3.21261 0
M  V30 17499 H 1619.86 -1.54137 -3.32622 0
M  V30 17500 H 1619.51 0.261732 -5.02319 0
M  V30 17501 H 1619.21 -1.35071 -5.71865 0
M  V30 17502 H 1620.73 -0.493695 -6.08601 0
M  V30 17503 H 1622.14 -2.55513 -5.13212 0
M  V30 17504 H 1620.54 -3.33345 -4.99 0
M  V30 17505 H 1621.61 -3.273 -3.57775 0
M  V30 17506 N 1622.95 1.25748 -0.950004 0
M  V30 17507 C 1624.2 1.92632 -0.597988 0
M  V30 17508 C 1624.52 1.75268 0.868365 0
M  V30 17509 O 1625.72 2.36684 1.33014 0
M  V30 17510 C 1624.18 3.45179 -1.01879 0
M  V30 17511 C 1623.79 3.71262 -2.50736 0
M  V30 17512 C 1625.53 4.18017 -0.739084 0
M  V30 17513 C 1623.44 5.17292 -2.8664 0
M  V30 17514 H 1622.37 0.72121 -0.219938 0
M  V30 17515 H 1625.02 1.42685 -1.15383 0
M  V30 17516 H 1623.4 3.94061 -0.391395 0
M  V30 17517 H 1624.57 3.33051 -3.18455 0
M  V30 17518 H 1622.89 3.11676 -2.76129 0
M  V30 17519 H 1625.49 5.25576 -0.983555 0
M  V30 17520 H 1625.83 4.15034 0.32439 0
M  V30 17521 H 1626.36 3.75028 -1.32661 0
M  V30 17522 H 1623.1 5.25383 -3.91987 0
M  V30 17523 H 1622.62 5.56567 -2.23591 0
M  V30 17524 H 1624.3 5.85375 -2.75582 0
M  V30 17525 N 1624.43 0.718038 1.40292 0
M  V30 17526 C 1625.66 0.266918 2.05675 0
M  V30 17527 C 1626.08 -1.08364 1.53749 0
M  V30 17528 O 1625.44 -1.6831 0.673912 0
M  V30 17529 C 1625.49 0.259606 3.59664 0
M  V30 17530 O 1624.59 -0.758372 4.05367 0
M  V30 17531 H 1623.93 0.124786 0.652169 0
M  V30 17532 H 1626.46 0.979207 1.79646 0
M  V30 17533 H 1626.47 0.098135 4.07882 0
M  V30 17534 H 1625.15 1.24517 3.96823 0
M  V30 17535 H 1623.72 -0.564425 3.68604 0
M  V30 17536 N 1625.91 -1.50602 0.464402 0
M  V30 17537 C 1626.87 -2.26929 -0.32185 0
M  V30 17538 C 1627.87 -1.3144 -0.926289 0
M  V30 17539 O 1629.06 -1.54924 -0.796511 0
M  V30 17540 C 1626.2 -3.08155 -1.45785 0
M  V30 17541 H 1627.39 -2.97881 0.347436 0
M  V30 17542 H 1624.94 -1.54768 0.218278 0
M  V30 17543 H 1625.68 -2.41684 -2.16239 0
M  V30 17544 H 1625.46 -3.78321 -1.03031 0
M  V30 17545 H 1626.95 -3.65899 -2.01266 0
M  V30 17546 N 1627.39 -0.19675 -1.56367 0
M  V30 17547 C 1628.32 0.75534 -2.16396 0
M  V30 17548 C 1629.33 1.17558 -1.12623 0
M  V30 17549 O 1630.52 1.11102 -1.39709 0
M  V30 17550 C 1627.62 2.03159 -2.71256 0
M  V30 17551 C 1626.8 1.77088 -3.99948 0
M  V30 17552 C 1625.85 2.89176 -4.39618 0
M  V30 17553 O 1624.88 2.58712 -5.07007 0
M  V30 17554 N 1626.08 4.17569 -4.03257 0
M  V30 17555 H 1628.85 0.241991 -2.98721 0
M  V30 17556 H 1626.41 -0.0148423 -1.61893 0
M  V30 17557 H 1628.4 2.77287 -2.94778 0
M  V30 17558 H 1626.97 2.45611 -1.93375 0
M  V30 17559 H 1626.19 0.867309 -3.84541 0
M  V30 17560 H 1627.48 1.5707 -4.83949 0
M  V30 17561 H 1626.88 4.45171 -3.49054 0
M  V30 17562 H 1625.43 4.88319 -4.31726 0
M  V30 17563 N 1628.87 1.57413 0.0768405 0
M  V30 17564 C 1630.14 1.78056 0.809663 0
M  V30 17565 C 1630.52 0.783053 1.9604 0
M  V30 17566 O 1629.87 -0.184836 2.27751 0
M  V30 17567 C 1630.08 3.24391 1.2873 0
M  V30 17568 C 1631.43 3.88082 1.72272 0
M  V30 17569 O 1632.45 3.28251 1.38309 0
M  V30 17570 O 1631.31 4.93329 2.35135 0
M  V30 17571 H 1628.41 0.730553 0.387584 0
M  V30 17572 H 1630.95 1.69603 0.057307 0
M  V30 17573 H 1629.72 3.88543 0.463678 0
M  V30 17574 H 1629.35 3.37548 2.10112 0
M  V30 17575 N 1630.34 -0.348112 1.53707 0
M  V30 17576 C 1631.59 -1.09048 1.70987 0
M  V30 17577 C 1631.92 -1.88444 0.469305 0
M  V30 17578 O 1631.2 -1.87037 -0.533629 0
M  V30 17579 C 1631.48 -2.03542 2.97057 0
M  V30 17580 C 1631.33 -1.27638 4.3131 0
M  V30 17581 C 1632.65 -3.03424 3.18782 0
M  V30 17582 H 1629.77 -0.395049 0.622178 0
M  V30 17583 H 1632.41 -0.369498 1.86373 0
M  V30 17584 H 1630.56 -2.65021 2.8407 0
M  V30 17585 H 1632.24 -0.688079 4.56139 0
M  V30 17586 H 1630.48 -0.578349 4.29927 0
M  V30 17587 H 1631.15 -1.96891 5.15692 0
M  V30 17588 H 1633.63 -2.52056 3.31069 0
M  V30 17589 H 1632.5 -3.66748 4.08396 0
M  V30 17590 H 1632.76 -3.74553 2.34866 0
M  V30 17591 N 1631.82 -1.45363 -0.608876 0
M  V30 17592 C 1632.73 -1.56471 -1.74797 0
M  V30 17593 C 1633.75 -0.449225 -1.68101 0
M  V30 17594 O 1634.92 -0.709731 -1.8848 0
M  V30 17595 C 1631.99 -1.52714 -3.11254 0
M  V30 17596 C 1631.05 -2.75291 -3.29414 0
M  V30 17597 C 1630.28 -2.71704 -4.59361 0
M  V30 17598 O 1630.51 -1.78959 -5.41599 0
M  V30 17599 O 1629.44 -3.62886 -4.80205 0
M  V30 17600 H 1633.27 -2.52751 -1.68377 0
M  V30 17601 H 1630.85 -1.27859 -0.772808 0
M  V30 17602 H 1632.73 -1.53222 -3.92557 0
M  V30 17603 H 1631.41 -0.595858 -3.18169 0
M  V30 17604 H 1630.32 -2.80345 -2.47704 0
M  V30 17605 H 1631.65 -3.67541 -3.27375 0
M  V30 17606 N 1633.3 0.851265 -1.32632 0
M  V30 17607 C 1634.25 1.98152 -1.21813 0
M  V30 17608 C 1635.24 1.68959 -0.122182 0
M  V30 17609 O 1636.45 1.77724 -0.285332 0
M  V30 17610 H 1632.82 0.650275 -0.377686 0
M  V30 17611 H 1634.79 2.04405 -2.17397 0
M  V30 17612 C 1633.54 3.34141 -0.961521 0
M  V30 17613 H 1632.87 3.57136 -1.79704 0
M  V30 17614 H 1634.31 4.13763 -0.926077 0
M  V30 17615 C 1632.77 3.35223 0.335704 0
M  V30 17616 O 1633.3 3.78461 1.34647 0
M  V30 17617 N 1631.5 2.88376 0.358875 0
M  V30 17618 H 1631.05 2.53383 -0.464194 0
M  V30 17619 H 1631.01 2.89482 1.22668 0
M  V30 17620 N 1634.78 1.15898 1.06796 0
M  V30 17621 C 1636.01 0.959978 1.82943 0
M  V30 17622 C 1636.42 -0.495084 1.82608 0
M  V30 17623 O 1635.76 -1.35528 1.24008 0
M  V30 17624 C 1635.82 1.40408 3.30947 0
M  V30 17625 C 1635.49 2.87801 3.54993 0
M  V30 17626 C 1636.48 3.85834 3.48465 0
M  V30 17627 C 1634.17 3.25601 3.82478 0
M  V30 17628 C 1636.16 5.19672 3.6908 0
M  V30 17629 C 1633.85 4.59609 4.02744 0
M  V30 17630 C 1634.85 5.56454 3.96041 0
M  V30 17631 O 1634.53 6.8804 4.1576 0
M  V30 17632 H 1634.27 0.340717 0.583856 0
M  V30 17633 H 1636.82 1.54211 1.35677 0
M  V30 17634 H 1635.05 0.765395 3.7905 0
M  V30 17635 H 1636.74 1.1733 3.88572 0
M  V30 17636 H 1637.51 3.57977 3.27227 0
M  V30 17637 H 1633.38 2.50803 3.86806 0
M  V30 17638 H 1636.93 5.95249 3.63764 0
M  V30 17639 H 1632.83 4.8718 4.23469 0
M  V30 17640 H 1633.59 6.94541 4.33076 0
M  V30 17641 N 1636.26 -1.25243 0.956659 0
M  V30 17642 C 1637.2 -2.25811 0.477292 0
M  V30 17643 C 1638.17 -1.59273 -0.471301 0
M  V30 17644 O 1639.36 -1.86894 -0.384105 0
M  V30 17645 C 1636.5 -3.44286 -0.236891 0
M  V30 17646 C 1635.61 -4.25454 0.749177 0
M  V30 17647 C 1634.75 -5.31199 0.012228 0
M  V30 17648 C 1633.79 -6.04056 0.989094 0
M  V30 17649 N 1632.92 -7.0153 0.282883 0
M  V30 17650 H 1637.76 -2.66185 1.33977 0
M  V30 17651 H 1635.3 -1.30862 0.671832 0
M  V30 17652 H 1637.26 -4.11825 -0.66755 0
M  V30 17653 H 1635.89 -3.04781 -1.06339 0
M  V30 17654 H 1634.94 -3.57558 1.29831 0
M  V30 17655 H 1636.25 -4.75883 1.49454 0
M  V30 17656 H 1635.41 -6.04822 -0.476968 0
M  V30 17657 H 1634.14 -4.81648 -0.76591 0
M  V30 17658 H 1633.15 -5.29245 1.48927 0
M  V30 17659 H 1634.37 -6.55695 1.76749 0
M  V30 17660 H 1632.32 -6.54267 -0.476479 0
M  V30 17661 H 1632.24 -7.49786 0.967304 0
M  V30 17662 H 1633.51 -7.79281 -0.184709 0
M  V30 17663 N 1637.73 -0.725468 -1.3991 0
M  V30 17664 C 1638.98 -0.26965 -2.00999 0
M  V30 17665 C 1639.31 1.13727 -1.57416 0
M  V30 17666 O 1638.59 1.77345 -0.798693 0
M  V30 17667 C 1638.87 -0.360784 -3.58288 0
M  V30 17668 C 1638.72 -1.80679 -4.11916 0
M  V30 17669 C 1640.04 0.262328 -4.39317 0
M  V30 17670 H 1637.16 -0.0994547 -0.730259 0
M  V30 17671 H 1639.8 -0.91983 -1.6625 0
M  V30 17672 H 1637.95 0.192779 -3.88021 0
M  V30 17673 H 1639.63 -2.4165 -3.92942 0
M  V30 17674 H 1637.87 -2.33127 -3.65834 0
M  V30 17675 H 1638.54 -1.82189 -5.21068 0
M  V30 17676 H 1641.02 -0.209452 -4.15573 0
M  V30 17677 H 1639.89 0.168166 -5.48642 0
M  V30 17678 H 1640.15 1.34716 -4.21075 0
M  V30 17679 N 1639.21 1.50354 -0.472382 0
M  V30 17680 C 1640.46 2.01526 0.0838536 0
M  V30 17681 C 1640.77 1.35913 1.40667 0
M  V30 17682 O 1641.98 1.78248 2.04792 0
M  V30 17683 C 1640.44 3.59344 0.199949 0
M  V30 17684 C 1640.04 4.33916 -1.11451 0
M  V30 17685 C 1641.79 4.18553 0.708075 0
M  V30 17686 C 1639.7 5.83521 -0.962138 0
M  V30 17687 H 1638.63 0.753182 0.0351127 0
M  V30 17688 H 1641.28 1.73153 -0.607474 0
M  V30 17689 H 1639.66 3.8431 0.955088 0
M  V30 17690 H 1640.83 4.20673 -1.8807 0
M  V30 17691 H 1639.15 3.86322 -1.55385 0
M  V30 17692 H 1641.74 5.28075 0.839126 0
M  V30 17693 H 1642.09 3.80019 1.69973 0
M  V30 17694 H 1642.62 3.97799 0.0102847 0
M  V30 17695 H 1639.36 6.26529 -1.9272 0
M  V30 17696 H 1638.88 5.99334 -0.236348 0
M  V30 17697 H 1640.56 6.43933 -0.629276 0
M  V30 17698 N 1640.69 0.205039 1.56261 0
M  V30 17699 C 1641.64 -0.711828 2.19549 0
M  V30 17700 C 1642.61 -1.2025 1.14582 0
M  V30 17701 O 1643.79 -1.26459 1.42873 0
M  V30 17702 C 1640.93 -1.92152 2.86656 0
M  V30 17703 C 1640.05 -1.47129 4.06174 0
M  V30 17704 C 1639.18 -2.63726 4.6111 0
M  V30 17705 C 1638.22 -2.15357 5.72964 0
M  V30 17706 N 1637.36 -3.25167 6.22263 0
M  V30 17707 H 1642.2 -0.165392 2.97541 0
M  V30 17708 H 1639.73 -0.0698889 1.46934 0
M  V30 17709 H 1641.69 -2.63152 3.23739 0
M  V30 17710 H 1640.32 -2.4411 2.11211 0
M  V30 17711 H 1639.37 -0.656797 3.74687 0
M  V30 17712 H 1640.69 -1.0765 4.87045 0
M  V30 17713 H 1639.84 -3.42833 5.0055 0
M  V30 17714 H 1638.58 -3.06484 3.79367 0
M  V30 17715 H 1637.58 -1.34706 5.33043 0
M  V30 17716 H 1638.81 -1.73618 6.56532 0
M  V30 17717 H 1636.76 -3.67438 5.43439 0
M  V30 17718 H 1636.67 -2.89888 6.98213 0
M  V30 17719 H 1637.94 -4.0446 6.66358 0
M  V30 17720 N 1642.17 -1.57451 -0.0684915 0
M  V30 17721 C 1643.39 -1.92025 -0.78366 0
M  V30 17722 C 1643.82 -0.801743 -1.70158 0
M  V30 17723 O 1643.18 0.245227 -1.79634 0
M  V30 17724 C 1643.23 -3.25563 -1.55051 0
M  V30 17725 O 1642.33 -3.15029 -2.6614 0
M  V30 17726 H 1641.67 -0.628714 -0.213576 0
M  V30 17727 H 1644.2 -2.04569 -0.0357474 0
M  V30 17728 H 1644.21 -3.59516 -1.92905 0
M  V30 17729 H 1642.89 -4.06547 -0.87704 0
M  V30 17730 H 1641.46 -2.9264 -2.31119 0
M  V30 17731 N 1643.65 0.339955 -1.5389 0
M  V30 17732 C 1644.56 1.441 -1.85128 0
M  V30 17733 C 1645.57 1.57399 -0.741733 0
M  V30 17734 O 1646.75 1.72807 -1.0344 0
M  V30 17735 C 1643.81 2.7904 -2.05761 0
M  V30 17736 C 1642.88 2.75055 -3.29611 0
M  V30 17737 C 1642.11 4.0356 -3.4925 0
M  V30 17738 O 1642.33 5.01015 -2.72653 0
M  V30 17739 O 1641.27 4.07813 -4.42687 0
M  V30 17740 H 1645.09 1.20616 -2.78721 0
M  V30 17741 H 1642.68 0.532468 -1.39589 0
M  V30 17742 H 1644.56 3.5895 -2.20756 0
M  V30 17743 H 1643.23 3.02447 -1.15357 0
M  V30 17744 H 1642.14 1.93753 -3.20016 0
M  V30 17745 H 1643.47 2.56602 -4.20019 0
M  V30 17746 N 1645.13 1.45684 0.601159 0
M  V30 17747 C 1646.06 1.57694 1.72206 0
M  V30 17748 C 1647.04 0.428141 1.64624 0
M  V30 17749 O 1648.22 0.65209 1.82925 0
M  V30 17750 C 1645.35 1.54941 3.10822 0
M  V30 17751 C 1644.31 2.68603 3.33222 0
M  V30 17752 C 1643.63 2.50906 4.72176 0
M  V30 17753 C 1644.93 4.10568 3.22849 0
M  V30 17754 H 1646.63 2.51521 1.62412 0
M  V30 17755 H 1644.17 1.2105 0.779929 0
M  V30 17756 H 1646.12 1.61939 3.89042 0
M  V30 17757 H 1644.85 0.576471 3.21472 0
M  V30 17758 H 1643.51 2.61043 2.57394 0
M  V30 17759 H 1643.16 1.51736 4.79568 0
M  V30 17760 H 1642.86 3.27131 4.88118 0
M  V30 17761 H 1644.38 2.59767 5.52588 0
M  V30 17762 H 1645.79 4.19336 3.90935 0
M  V30 17763 H 1644.19 4.87234 3.50318 0
M  V30 17764 H 1645.26 4.32022 2.20192 0
M  V30 17765 N 1646.6 -0.84422 1.33082 0
M  V30 17766 C 1647.88 -1.58339 1.1484 0
M  V30 17767 C 1648.26 -2.09136 -0.287273 0
M  V30 17768 O 1647.61 -1.8891 -1.2855 0
M  V30 17769 C 1647.82 -2.72141 2.18496 0
M  V30 17770 C 1649.17 -3.41457 2.52373 0
M  V30 17771 O 1650.19 -2.82377 2.17122 0
M  V30 17772 O 1649.05 -4.48096 3.12845 0
M  V30 17773 H 1646.14 -0.697813 0.443831 0
M  V30 17774 H 1648.69 -0.88744 1.44646 0
M  V30 17775 H 1647.46 -2.32206 3.14954 0
M  V30 17776 H 1647.08 -3.49404 1.89744 0
M  V30 17777 N 1648.08 -1.16463 -1.0618 0
M  V30 17778 C 1649.5 -0.909776 -1.31131 0
M  V30 17779 C 1649.7 0.436686 -1.96711 0
M  V30 17780 O 1648.75 1.17595 -2.23445 0
M  V30 17781 C 1650.07 -2.05967 -2.19084 0
M  V30 17782 C 1651.61 -2.09557 -2.32497 0
M  V30 17783 C 1652.09 -3.23904 -3.23806 0
M  V30 17784 N 1653.58 -3.23628 -3.3139 0
M  V30 17785 C 1654.32 -4.08746 -4.02137 0
M  V30 17786 N 1653.81 -5.03954 -4.75397 0
M  V30 17787 N 1655.6 -3.96729 -3.98199 0
M  V30 17788 H 1647.76 -2.03148 -0.620066 0
M  V30 17789 H 1650.02 -0.886477 -0.335949 0
M  V30 17790 H 1649.72 -3.03227 -1.78174 0
M  V30 17791 H 1649.6 -2.00219 -3.19675 0
M  V30 17792 H 1651.99 -1.12889 -2.72654 0
M  V30 17793 H 1652.07 -2.19369 -1.3157 0
M  V30 17794 H 1651.71 -4.20831 -2.84366 0
M  V30 17795 H 1651.64 -3.11327 -4.24715 0
M  V30 17796 H 1654.13 -2.54687 -2.79182 0
M  V30 17797 H 1654.44 -5.65319 -5.2691 0
M  V30 17798 H 1652.79 -5.07932 -4.74373 0
M  V30 17799 H 1655.98 -3.21652 -3.40085 0
M  V30 17800 H 1656.15 -4.63286 -4.53067 0
M  V30 17801 N 1649.56 1.24734 -0.963288 0
M  V30 17802 C 1650.49 2.27892 -0.508667 0
M  V30 17803 C 1651.47 1.64055 0.449438 0
M  V30 17804 O 1652.66 1.91083 0.346519 0
M  V30 17805 C 1649.79 3.46688 0.206157 0
M  V30 17806 C 1648.74 4.22762 -0.667534 0
M  V30 17807 C 1648.07 5.34402 0.178529 0
M  V30 17808 C 1649.37 4.84535 -1.94995 0
M  V30 17809 H 1651.06 2.66171 -1.37088 0
M  V30 17810 H 1648.61 1.27952 -0.660622 0
M  V30 17811 H 1650.56 4.17985 0.535391 0
M  V30 17812 H 1649.28 3.07422 1.10269 0
M  V30 17813 H 1647.94 3.53259 -0.979976 0
M  V30 17814 H 1647.59 4.91377 1.07508 0
M  V30 17815 H 1647.29 5.86218 -0.402808 0
M  V30 17816 H 1648.81 6.08529 0.502533 0
M  V30 17817 H 1650.23 5.4793 -1.68658 0
M  V30 17818 H 1648.62 5.46564 -2.47765 0
M  V30 17819 H 1649.69 4.06236 -2.64765 0
M  V30 17820 N 1651.04 0.732878 1.39523 0
M  V30 17821 C 1652.45 0.408236 1.54291 0
M  V30 17822 C 1652.65 -1.08114 1.7004 0
M  V30 17823 O 1651.71 -1.86726 1.6997 0
M  V30 17824 C 1653.02 1.1894 2.76177 0
M  V30 17825 C 1654.57 1.17742 2.9001 0
M  V30 17826 C 1655.05 1.94111 4.14831 0
M  V30 17827 N 1656.54 1.91266 4.21867 0
M  V30 17828 C 1657.27 2.47167 5.17394 0
M  V30 17829 N 1656.77 3.11696 6.18723 0
M  V30 17830 N 1658.56 2.37212 5.09595 0
M  V30 17831 H 1650.71 1.69839 1.27548 0
M  V30 17832 H 1652.97 0.718844 0.618035 0
M  V30 17833 H 1652.68 2.24321 2.70875 0
M  V30 17834 H 1652.55 0.792439 3.68782 0
M  V30 17835 H 1654.94 0.131752 2.94806 0
M  V30 17836 H 1655.02 1.61374 1.98474 0
M  V30 17837 H 1654.67 2.98677 4.10797 0
M  V30 17838 H 1654.6 1.47886 5.05408 0
M  V30 17839 H 1657.09 1.44254 3.49284 0
M  V30 17840 H 1657.4 3.51823 6.8807 0
M  V30 17841 H 1655.75 3.15785 6.19116 0
M  V30 17842 H 1658.94 1.86444 4.29367 0
M  V30 17843 H 1659.11 2.81076 5.83866 0
M  V30 17844 N 1652.52 -1.50101 0.480349 0
M  V30 17845 C 1653.74 -2.06785 -0.068848 0
M  V30 17846 C 1654.16 -1.34316 -1.32683 0
M  V30 17847 O 1653.52 -0.415196 -1.77714 0
M  V30 17848 C 1653.57 -3.59826 -0.347522 0
M  V30 17849 O 1653.29 -4.29565 0.860569 0
M  V30 17850 C 1654.79 -4.33161 -0.94266 0
M  V30 17851 H 1652.01 -0.670906 0.0112172 0
M  V30 17852 H 1654.55 -1.93151 0.671788 0
M  V30 17853 H 1652.71 -3.73232 -1.0381 0
M  V30 17854 H 1653.12 -5.20931 0.610796 0
M  V30 17855 H 1654.6 -5.41184 -1.08736 0
M  V30 17856 H 1655.07 -3.94268 -1.93518 0
M  V30 17857 H 1655.68 -4.24309 -0.290178 0
M  V30 17858 N 1653.99 -0.213323 -1.5615 0
M  V30 17859 C 1654.93 0.739954 -2.1587 0
M  V30 17860 C 1655.9 1.19683 -1.10067 0
M  V30 17861 O 1657.09 1.28106 -1.38279 0
M  V30 17862 C 1654.22 2.00152 -2.73234 0
M  V30 17863 C 1653.26 1.68529 -3.91791 0
M  V30 17864 S 1654.09 0.817317 -5.29226 0
M  V30 17865 C 1655.25 2.08863 -5.90023 0
M  V30 17866 H 1655.48 0.232328 -2.96391 0
M  V30 17867 H 1653.02 0.00189263 -1.544 0
M  V30 17868 H 1654.97 2.72594 -3.06925 0
M  V30 17869 H 1653.64 2.48027 -1.92722 0
M  V30 17870 H 1652.83 2.62241 -4.30402 0
M  V30 17871 H 1652.43 1.04157 -3.59204 0
M  V30 17872 H 1654.72 3.03943 -6.05495 0
M  V30 17873 H 1655.67 1.74656 -6.86222 0
M  V30 17874 H 1656.07 2.22541 -5.18783 0
M  V30 17875 N 1655.47 1.57485 0.0601405 0
M  V30 17876 C 1656.72 1.88094 0.758192 0
M  V30 17877 C 1657.05 0.807138 1.76632 0
M  V30 17878 O 1656.33 -0.181347 1.93653 0
M  V30 17879 C 1656.61 3.29363 1.45574 0
M  V30 17880 C 1656.46 4.47408 0.463233 0
M  V30 17881 C 1657.78 3.69048 2.39773 0
M  V30 17882 H 1654.9 0.684106 0.274169 0
M  V30 17883 H 1657.54 1.89988 0.0212215 0
M  V30 17884 H 1655.69 3.27879 2.08393 0
M  V30 17885 H 1657.36 4.6102 -0.160641 0
M  V30 17886 H 1655.61 4.3324 -0.220408 0
M  V30 17887 H 1656.28 5.43065 0.989164 0
M  V30 17888 H 1658.75 3.71701 1.87024 0
M  V30 17889 H 1657.63 4.68761 2.85577 0
M  V30 17890 H 1657.89 2.9961 3.25094 0
M  V30 17891 N 1656.95 -0.331789 1.54068 0
M  V30 17892 C 1657.86 -1.43116 1.8589 0
M  V30 17893 C 1658.88 -1.57003 0.75007 0
M  V30 17894 O 1660.05 -1.72256 1.04355 0
M  V30 17895 C 1657.12 -2.77945 2.07238 0
M  V30 17896 C 1656.18 -2.73303 3.31065 0
M  V30 17897 C 1655.41 -4.01702 3.51385 0
M  V30 17898 O 1655.63 -4.99562 2.75306 0
M  V30 17899 O 1654.57 -4.0546 4.44844 0
M  V30 17900 H 1658.39 -1.19137 2.79357 0
M  V30 17901 H 1655.98 -0.525057 1.3987 0
M  V30 17902 H 1657.86 -3.57774 2.22656 0
M  V30 17903 H 1656.54 -3.01831 1.16959 0
M  V30 17904 H 1655.44 -1.92054 3.21039 0
M  V30 17905 H 1656.78 -2.54371 4.21374 0
M  V30 17906 N 1658.43 -1.46001 -0.593424 0
M  V30 17907 C 1659.38 -1.55752 -1.70323 0
M  V30 17908 C 1660.35 -0.402466 -1.6115 0
M  V30 17909 O 1661.53 -0.617804 -1.80521 0
M  V30 17910 C 1658.67 -1.54362 -3.08653 0
M  V30 17911 C 1657.78 -2.80523 -3.28529 0
M  V30 17912 C 1656.92 -2.70709 -4.57045 0
M  V30 17913 C 1655.96 -3.91857 -4.70228 0
M  V30 17914 N 1655.09 -3.80494 -5.90059 0
M  V30 17915 H 1659.93 -2.50555 -1.61326 0
M  V30 17916 H 1657.47 -1.24313 -0.786425 0
M  V30 17917 H 1659.43 -1.51542 -3.88704 0
M  V30 17918 H 1658.06 -0.630986 -3.16573 0
M  V30 17919 H 1657.11 -2.93368 -2.42155 0
M  V30 17920 H 1658.42 -3.70341 -3.3414 0
M  V30 17921 H 1657.58 -2.65935 -5.45311 0
M  V30 17922 H 1656.32 -1.78513 -4.53855 0
M  V30 17923 H 1655.32 -3.96975 -3.80383 0
M  V30 17924 H 1656.55 -4.85136 -4.75205 0
M  V30 17925 H 1654.49 -2.91077 -5.87886 0
M  V30 17926 H 1654.41 -4.63958 -5.96891 0
M  V30 17927 H 1655.68 -3.79676 -6.80783 0
M  V30 17928 N 1659.91 0.83715 -1.33527 0
M  V30 17929 C 1661.13 1.62976 -1.28271 0
M  V30 17930 C 1661.56 1.87554 0.143201 0
M  V30 17931 O 1660.91 1.44088 1.10038 0
M  V30 17932 C 1660.96 2.95607 -2.06516 0
M  V30 17933 O 1660.07 3.87 -1.42494 0
M  V30 17934 H 1659.41 0.496212 -0.441214 0
M  V30 17935 H 1661.94 1.04137 -1.76115 0
M  V30 17936 H 1661.95 3.4529 -2.17344 0
M  V30 17937 H 1660.62 2.77041 -3.10195 0
M  V30 17938 H 1659.2 3.45492 -1.40321 0
M  V30 17939 N 1661.38 1.17024 1.05561 0
M  V30 17940 C 1662.29 0.898107 2.16728 0
M  V30 17941 C 1663.31 -0.132369 1.73496 0
M  V30 17942 O 1664.49 0.0460203 2.01347 0
M  V30 17943 C 1661.55 0.411091 3.44254 0
M  V30 17944 C 1660.61 1.5077 4.01954 0
M  V30 17945 C 1659.85 1.04383 5.23393 0
M  V30 17946 O 1660.07 -0.10351 5.70306 0
M  V30 17947 O 1659 1.8353 5.73237 0
M  V30 17948 H 1662.83 1.82791 2.42531 0
M  V30 17949 H 1660.41 0.950816 1.15238 0
M  V30 17950 H 1662.3 0.146837 4.21144 0
M  V30 17951 H 1660.97 -0.490605 3.19961 0
M  V30 17952 H 1659.88 1.82579 3.26521 0
M  V30 17953 H 1661.21 2.38497 4.30558 0
M  V30 17954 N 1662.86 -1.24221 0.969889 0
M  V30 17955 C 1663.79 -2.27619 0.520745 0
M  V30 17956 C 1664.77 -1.64291 -0.440731 0
M  V30 17957 O 1665.96 -1.91265 -0.336381 0
M  V30 17958 C 1663.09 -3.46792 -0.187768 0
M  V30 17959 C 1662.04 -4.22402 0.689945 0
M  V30 17960 C 1661.37 -5.34489 -0.150186 0
M  V30 17961 C 1662.67 -4.83494 1.97562 0
M  V30 17962 H 1664.36 -2.65441 1.38498 0
M  V30 17963 H 1661.91 -1.276 0.667398 0
M  V30 17964 H 1663.86 -4.18263 -0.513216 0
M  V30 17965 H 1662.59 -3.08002 -1.08637 0
M  V30 17966 H 1661.24 -3.52734 0.998696 0
M  V30 17967 H 1660.89 -4.9194 -1.049 0
M  V30 17968 H 1660.59 -5.85996 0.433891 0
M  V30 17969 H 1662.12 -6.08786 -0.470255 0
M  V30 17970 H 1663.53 -5.47028 1.71561 0
M  V30 17971 H 1661.93 -5.45243 2.5066 0
M  V30 17972 H 1663 -4.04826 2.66915 0
M  V30 17973 N 1664.34 -0.740267 -1.39132 0
M  V30 17974 C 1665.59 -0.299863 -2.01177 0
M  V30 17975 C 1665.94 1.10225 -1.57696 0
M  V30 17976 O 1665.23 1.74177 -0.798308 0
M  V30 17977 C 1665.43 -0.346009 -3.55721 0
M  V30 17978 C 1665.26 -1.75107 -4.14207 0
M  V30 17979 C 1664.03 -2.36453 -4.46563 0
M  V30 17980 C 1666.23 -2.70554 -4.37384 0
M  V30 17981 N 1664.21 -3.69058 -4.9058 0
M  V30 17982 C 1665.58 -3.87903 -4.83664 0
M  V30 17983 C 1667.63 -2.68249 -4.1946 0
M  V30 17984 C 1666.34 -5.03288 -5.13901 0
M  V30 17985 C 1668.36 -3.82781 -4.50814 0
M  V30 17986 C 1667.72 -4.98866 -4.97305 0
M  V30 17987 H 1663.82 -0.156099 -0.766262 0
M  V30 17988 H 1666.41 -0.967366 -1.68968 0
M  V30 17989 H 1664.58 0.291163 -3.87307 0
M  V30 17990 H 1666.31 0.113444 -4.04541 0
M  V30 17991 H 1663.07 -1.88332 -4.34544 0
M  V30 17992 H 1663.49 -4.37152 -5.1694 0
M  V30 17993 H 1668.13 -1.79691 -3.82715 0
M  V30 17994 H 1665.85 -5.92471 -5.49549 0
M  V30 17995 H 1669.44 -3.82301 -4.38563 0
M  V30 17996 H 1668.32 -5.8602 -5.21105 0
M  V30 17997 N 1665.82 1.49844 -0.488302 0
M  V30 17998 C 1667.06 2.02709 0.060788 0
M  V30 17999 C 1667.4 1.36828 1.37811 0
M  V30 18000 O 1666.67 0.499679 1.87972 0
M  V30 18001 C 1666.96 3.59386 0.226637 0
M  V30 18002 C 1666.81 4.35814 -1.11292 0
M  V30 18003 C 1668.13 4.29204 0.973218 0
M  V30 18004 H 1665.25 0.736712 0.0206177 0
M  V30 18005 H 1667.89 1.78995 -0.637245 0
M  V30 18006 H 1666.04 3.79722 0.821182 0
M  V30 18007 H 1667.71 4.27007 -1.74536 0
M  V30 18008 H 1665.95 3.98874 -1.70535 0
M  V30 18009 H 1666.62 5.43758 -0.950319 0
M  V30 18010 H 1669.1 4.13447 0.469106 0
M  V30 18011 H 1667.98 5.38605 1.05809 0
M  V30 18012 H 1668.24 3.93564 2.01394 0
M  V30 18013 N 1667.3 0.221601 1.56034 0
M  V30 18014 C 1668.57 -0.459097 1.90136 0
M  V30 18015 C 1668.95 -1.7774 1.13894 0
M  V30 18016 O 1668.3 -2.27147 0.248285 0
M  V30 18017 C 1668.51 -0.651996 3.42856 0
M  V30 18018 C 1669.86 -0.959402 4.13619 0
M  V30 18019 O 1670.88 -0.73878 3.48454 0
M  V30 18020 O 1669.74 -1.37811 5.28839 0
M  V30 18021 H 1666.84 -0.242753 0.790569 0
M  V30 18022 H 1669.38 0.263789 1.67637 0
M  V30 18023 H 1668.15 0.277892 3.90312 0
M  V30 18024 H 1667.78 -1.42637 3.71134 0
M  V30 18025 N 1668.77 -1.57515 -0.0517878 0
M  V30 18026 C 1669.72 -2.05051 -1.05937 0
M  V30 18027 C 1670.69 -0.935032 -1.37282 0
M  V30 18028 O 1671.88 -1.20408 -1.48009 0
M  V30 18029 C 1669.02 -2.51594 -2.36208 0
M  V30 18030 C 1668.13 -3.76843 -2.11219 0
M  V30 18031 C 1667.26 -4.12088 -3.35197 0
M  V30 18032 C 1666.3 -5.30318 -3.05662 0
M  V30 18033 N 1665.44 -5.61104 -4.22026 0
M  V30 18034 H 1670.28 -2.90891 -0.647027 0
M  V30 18035 H 1667.82 -1.43842 -0.307891 0
M  V30 18036 H 1669.78 -2.76638 -3.12293 0
M  V30 18037 H 1668.41 -1.68704 -2.75207 0
M  V30 18038 H 1667.46 -3.5902 -1.25734 0
M  V30 18039 H 1668.77 -4.63057 -1.85416 0
M  V30 18040 H 1667.92 -4.38139 -4.19666 0
M  V30 18041 H 1666.66 -3.24479 -3.64094 0
M  V30 18042 H 1665.67 -5.04043 -2.19592 0
M  V30 18043 H 1666.89 -6.19561 -2.78067 0
M  V30 18044 H 1664.84 -4.76456 -4.50917 0
M  V30 18045 H 1664.76 -6.4178 -3.99568 0
M  V30 18046 H 1666.02 -5.91719 -5.07434 0
M  V30 18047 N 1670.25 0.323614 -1.54242 0
M  V30 18048 C 1671.2 1.39826 -1.83623 0
M  V30 18049 C 1672.17 1.51393 -0.683331 0
M  V30 18050 O 1673.36 1.66614 -0.929754 0
M  V30 18051 C 1670.5 2.76187 -2.06918 0
M  V30 18052 C 1669.61 2.73251 -3.34601 0
M  V30 18053 C 1668.74 4.01458 -3.47857 0
M  V30 18054 C 1667.78 3.9283 -4.69415 0
M  V30 18055 N 1666.92 5.12767 -4.79598 0
M  V30 18056 H 1671.76 1.1407 -2.75303 0
M  V30 18057 H 1669.3 0.552188 -1.36343 0
M  V30 18058 H 1671.25 3.55458 -2.18416 0
M  V30 18059 H 1669.88 3.00251 -1.18529 0
M  V30 18060 H 1668.94 1.85971 -3.31842 0
M  V30 18061 H 1670.25 2.62759 -4.2398 0
M  V30 18062 H 1669.4 4.89161 -3.58897 0
M  V30 18063 H 1668.14 4.14757 -2.5657 0
M  V30 18064 H 1667.15 3.03512 -4.58433 0
M  V30 18065 H 1668.37 3.81097 -5.62087 0
M  V30 18066 H 1666.32 5.26572 -3.91227 0
M  V30 18067 H 1666.23 5.0461 -5.62943 0
M  V30 18068 H 1667.5 6.02184 -4.94969 0
M  V30 18069 N 1671.73 1.46313 0.585673 0
M  V30 18070 C 1672.98 1.51171 1.34134 0
M  V30 18071 C 1673.3 0.163691 1.94312 0
M  V30 18072 O 1672.57 -0.809444 1.78395 0
M  V30 18073 H 1671.15 0.556768 0.498014 0
M  V30 18074 H 1673.81 1.82423 0.686133 0
M  V30 18075 H 1672.91 2.26274 2.14957 0
M  V30 18076 N 1673.21 -0.830057 1.33969 0
M  V30 18077 C 1674.43 -1.62294 1.29133 0
M  V30 18078 C 1674.86 -1.87627 -0.133253 0
M  V30 18079 O 1674.22 -1.44669 -1.09272 0
M  V30 18080 C 1674.27 -2.94508 2.0808 0
M  V30 18081 O 1673.37 -3.86239 1.44544 0
M  V30 18082 H 1672.71 -0.493865 0.443839 0
M  V30 18083 H 1675.24 -1.03202 1.76665 0
M  V30 18084 H 1675.25 -3.44133 2.19173 0
M  V30 18085 H 1673.93 -2.75392 3.1166 0
M  V30 18086 H 1672.5 -3.44743 1.42151 0
M  V30 18087 N 1674.69 -1.17582 -1.04939 0
M  V30 18088 C 1675.94 -0.96387 -1.77634 0
M  V30 18089 C 1676.26 0.508548 -1.88252 0
M  V30 18090 O 1675.53 1.36913 -1.40113 0
M  V30 18091 H 1674.11 -0.353636 -0.65799 0
M  V30 18092 H 1676.77 -1.48104 -1.26693 0
M  V30 18093 H 1675.86 -1.39438 -2.79219 0
M  V30 18094 N 1676.17 1.23705 -0.976463 0
M  V30 18095 C 1677.11 2.25023 -0.513156 0
M  V30 18096 C 1678.08 1.60003 0.445903 0
M  V30 18097 O 1679.27 1.87481 0.354323 0
M  V30 18098 C 1676.41 3.44619 0.182088 0
M  V30 18099 C 1675.52 4.24209 -0.816769 0
M  V30 18100 C 1674.66 5.31112 -0.0967355 0
M  V30 18101 C 1673.69 6.02406 -1.08507 0
M  V30 18102 N 1672.83 7.00991 -0.394455 0
M  V30 18103 H 1677.67 2.64019 -1.38194 0
M  V30 18104 H 1675.21 1.29777 -0.692566 0
M  V30 18105 H 1677.17 4.12835 0.601948 0
M  V30 18106 H 1675.8 3.06435 1.01477 0
M  V30 18107 H 1674.85 3.55448 -1.35503 0
M  V30 18108 H 1676.16 4.73445 -1.57006 0
M  V30 18109 H 1675.31 6.05504 0.380686 0
M  V30 18110 H 1674.05 4.82806 0.689187 0
M  V30 18111 H 1673.06 5.26809 -1.57328 0
M  V30 18112 H 1674.28 6.528 -1.87159 0
M  V30 18113 H 1672.23 6.54943 0.372331 0
M  V30 18114 H 1672.15 7.48152 -1.08647 0
M  V30 18115 H 1673.41 7.79476 0.0607087 0
M  V30 18116 N 1677.64 0.747635 1.38738 0
M  V30 18117 C 1678.89 0.300552 1.99853 0
M  V30 18118 C 1679.21 -1.11986 1.59638 0
M  V30 18119 O 1678.48 -1.76477 0.850447 0
M  V30 18120 H 1677.06 0.108134 0.739132 0
M  V30 18121 H 1679.72 0.960405 1.69594 0
M  V30 18122 H 1678.82 0.358956 3.10029 0
M  V30 18123 N 1679.12 -1.49583 0.496242 0
M  V30 18124 C 1680.03 -2.32808 -0.289404 0
M  V30 18125 C 1681.05 -1.44324 -0.971933 0
M  V30 18126 O 1682.22 -1.77352 -0.954366 0
M  V30 18127 C 1679.29 -3.19645 -1.34269 0
M  V30 18128 C 1678.35 -4.23975 -0.6741 0
M  V30 18129 C 1677.58 -5.06661 -1.6772 0
M  V30 18130 O 1677.81 -4.90792 -2.90654 0
M  V30 18131 O 1676.74 -5.89091 -1.23514 0
M  V30 18132 H 1680.57 -3.01164 0.391664 0
M  V30 18133 H 1678.15 -1.47162 0.257652 0
M  V30 18134 H 1680.03 -3.73453 -1.9522 0
M  V30 18135 H 1678.71 -2.53989 -2.00677 0
M  V30 18136 H 1677.61 -3.74092 -0.0249732 0
M  V30 18137 H 1678.95 -4.92172 -0.0525442 0
M  V30 18138 N 1680.6 -0.229873 -1.55915 0
M  V30 18139 C 1681.51 0.687953 -2.24286 0
M  V30 18140 C 1682.53 1.20705 -1.25325 0
M  V30 18141 O 1683.7 1.2469 -1.58159 0
M  V30 18142 C 1680.77 1.87563 -2.91584 0
M  V30 18143 C 1679.83 1.39769 -4.0591 0
M  V30 18144 C 1679.06 2.52876 -4.69989 0
M  V30 18145 O 1679.28 3.71208 -4.33083 0
M  V30 18146 O 1678.22 2.23603 -5.58825 0
M  V30 18147 H 1682.04 0.135464 -3.03398 0
M  V30 18148 H 1679.63 0.000925172 -1.494 0
M  V30 18149 H 1681.51 2.56907 -3.34031 0
M  V30 18150 H 1680.19 2.41606 -2.15426 0
M  V30 18151 H 1679.09 0.672029 -3.68014 0
M  V30 18152 H 1680.43 0.903543 -4.83836 0
M  V30 18153 N 1682.08 1.5754 0.0434337 0
M  V30 18154 C 1683.32 1.88887 0.7382 0
M  V30 18155 C 1683.66 0.825827 1.75766 0
M  V30 18156 O 1682.93 -0.160797 1.93834 0
M  V30 18157 C 1683.21 3.30889 1.42072 0
M  V30 18158 C 1683.07 4.47874 0.415754 0
M  V30 18159 C 1684.39 3.71571 2.35846 0
M  V30 18160 H 1681.51 0.686975 0.266897 0
M  V30 18161 H 1684.15 1.9 0.00106957 0
M  V30 18162 H 1682.3 3.30071 2.04903 0
M  V30 18163 H 1683.97 4.60824 -0.209529 0
M  V30 18164 H 1682.21 4.32982 -0.266346 0
M  V30 18165 H 1682.88 5.44084 0.931509 0
M  V30 18166 H 1685.36 3.73663 1.83071 0
M  V30 18167 H 1684.24 4.71763 2.80589 0
M  V30 18168 H 1684.5 3.03041 3.21898 0
M  V30 18169 N 1683.56 -0.31543 1.54411 0
M  V30 18170 C 1684.47 -1.41136 1.87397 0
M  V30 18171 C 1685.48 -1.56199 0.76668 0
M  V30 18172 O 1686.66 -1.71139 1.06176 0
M  V30 18173 C 1683.72 -2.75731 2.10174 0
M  V30 18174 C 1682.78 -2.69776 3.33945 0
M  V30 18175 C 1682.02 -3.97952 3.55626 0
M  V30 18176 O 1682.24 -4.96614 2.80589 0
M  V30 18177 O 1681.17 -4.00719 4.49119 0
M  V30 18178 H 1685 -1.16167 2.80605 0
M  V30 18179 H 1682.58 -0.510193 1.40419 0
M  V30 18180 H 1684.47 -3.55392 2.26439 0
M  V30 18181 H 1683.14 -3.00574 1.20154 0
M  V30 18182 H 1682.05 -1.88638 3.23058 0
M  V30 18183 H 1683.38 -2.49887 4.24049 0
M  V30 18184 N 1685.03 -1.46622 -0.577906 0
M  V30 18185 C 1686 -1.57126 -1.66865 0
M  V30 18186 C 1687 -0.448004 -1.54433 0
M  V30 18187 O 1688.19 -0.712459 -1.58964 0
M  V30 18188 C 1685.32 -1.49612 -3.06315 0
M  V30 18189 H 1686.51 -2.54338 -1.58909 0
M  V30 18190 H 1684.07 -1.34504 -0.796142 0
M  V30 18191 H 1684.8 -0.536976 -3.19823 0
M  V30 18192 H 1684.59 -2.31113 -3.16748 0
M  V30 18193 H 1686.08 -1.60058 -3.85709 0
M  V30 18194 N 1686.51 0.822941 -1.34408 0
M  V30 18195 C 1687.76 1.57604 -1.26513 0
M  V30 18196 C 1688.08 1.94303 0.164769 0
M  V30 18197 O 1687.35 1.62278 1.09738 0
M  V30 18198 H 1685.93 0.584399 -0.465282 0
M  V30 18199 H 1688.59 0.982582 -1.68319 0
M  V30 18200 H 1687.69 2.49886 -1.86986 0
M  V30 18201 N 1687.99 1.18137 1.04314 0
M  V30 18202 C 1688.95 0.908268 2.10436 0
M  V30 18203 C 1689.95 -0.105315 1.60455 0
M  V30 18204 O 1691.14 0.12785 1.7373 0
M  V30 18205 C 1688.28 0.362233 3.3897 0
M  V30 18206 H 1689.47 1.84928 2.36096 0
M  V30 18207 H 1687.02 0.993048 1.20699 0
M  V30 18208 H 1687.76 -0.58551 3.18971 0
M  V30 18209 H 1687.54 1.09285 3.76562 0
M  V30 18210 H 1689.03 0.18977 4.17169 0
M  V30 18211 N 1689.47 -1.23186 0.98301 0
M  V30 18212 C 1690.43 -2.22979 0.530366 0
M  V30 18213 C 1691.43 -1.56211 -0.381421 0
M  V30 18214 O 1692.62 -1.73321 -0.17475 0
M  V30 18215 C 1689.75 -3.40124 -0.229882 0
M  V30 18216 H 1690.95 -2.64539 1.41277 0
M  V30 18217 H 1688.5 -1.36064 0.769172 0
M  V30 18218 H 1689.23 -3.04024 -1.12871 0
M  V30 18219 H 1689.02 -3.89794 0.424653 0
M  V30 18220 H 1690.51 -4.14158 -0.535078 0
M  V30 18221 N 1690.95 -0.754982 -1.38339 0
M  V30 18222 C 1691.89 -0.128193 -2.30444 0
M  V30 18223 C 1692.86 0.70813 -1.50249 0
M  V30 18224 O 1694.05 0.663969 -1.78875 0
M  V30 18225 C 1691.19 0.757921 -3.36674 0
M  V30 18226 C 1690.3 -0.093181 -4.31899 0
M  V30 18227 C 1689.44 0.796067 -5.25201 0
M  V30 18228 C 1688.48 -0.0585854 -6.12072 0
M  V30 18229 N 1687.61 0.7877 -6.97667 0
M  V30 18230 H 1692.45 -0.919204 -2.83469 0
M  V30 18231 H 1689.99 -0.464921 -1.3956 0
M  V30 18232 H 1691.95 1.28632 -3.96875 0
M  V30 18233 H 1690.58 1.5147 -2.85055 0
M  V30 18234 H 1689.63 -0.73922 -3.73148 0
M  V30 18235 H 1690.94 -0.753146 -4.93081 0
M  V30 18236 H 1690.1 1.39158 -5.90525 0
M  V30 18237 H 1688.83 1.48976 -4.64389 0
M  V30 18238 H 1687.84 -0.666754 -5.45742 0
M  V30 18239 H 1689.06 -0.749361 -6.74953 0
M  V30 18240 H 1687.01 1.46632 -6.39402 0
M  V30 18241 H 1686.93 0.184662 -7.55774 0
M  V30 18242 H 1688.2 1.36814 -7.674 0
M  V30 18243 N 1692.42 1.49318 -0.504168 0
M  V30 18244 C 1693.7 1.95332 0.102393 0
M  V30 18245 C 1694.08 1.44576 1.53821 0
M  V30 18246 O 1693.43 0.660894 2.18734 0
M  V30 18247 C 1693.64 3.48998 0.0117694 0
M  V30 18248 C 1694.99 4.24201 0.184101 0
M  V30 18249 O 1696.01 3.56094 0.0868056 0
M  V30 18250 O 1694.87 5.45147 0.384267 0
M  V30 18251 H 1691.96 0.821691 0.0935582 0
M  V30 18252 H 1694.51 1.5995 -0.566932 0
M  V30 18253 H 1693.28 3.78585 -0.989413 0
M  V30 18254 H 1692.91 3.91006 0.7211 0
M  V30 18255 N 1693.9 0.238138 1.5579 0
M  V30 18256 C 1694.85 -0.665098 2.21009 0
M  V30 18257 C 1695.82 -1.17793 1.17107 0
M  V30 18258 O 1697 -1.234 1.45523 0
M  V30 18259 C 1694.14 -1.86028 2.90667 0
M  V30 18260 C 1693.26 -1.3848 4.09203 0
M  V30 18261 C 1692.39 -2.53885 4.666 0
M  V30 18262 C 1691.43 -2.03155 5.77403 0
M  V30 18263 N 1690.57 -3.11895 6.2902 0
M  V30 18264 H 1695.41 -0.102242 2.97825 0
M  V30 18265 H 1692.95 -0.0387064 1.47049 0
M  V30 18266 H 1694.9 -2.56226 3.29248 0
M  V30 18267 H 1693.53 -2.39575 2.16341 0
M  V30 18268 H 1692.59 -0.577172 3.75996 0
M  V30 18269 H 1693.9 -0.972946 4.89219 0
M  V30 18270 H 1693.05 -3.32139 5.07709 0
M  V30 18271 H 1691.79 -2.98368 3.85782 0
M  V30 18272 H 1690.8 -1.23369 5.3578 0
M  V30 18273 H 1692.02 -1.59653 6.60067 0
M  V30 18274 H 1689.97 -3.55828 5.5111 0
M  V30 18275 H 1689.88 -2.75013 7.04204 0
M  V30 18276 H 1691.15 -3.90234 6.74787 0
M  V30 18277 N 1695.38 -1.57561 -0.0350783 0
M  V30 18278 C 1696.33 -2.06163 -1.03756 0
M  V30 18279 C 1697.3 -0.94954 -1.36283 0
M  V30 18280 O 1698.48 -1.21971 -1.46723 0
M  V30 18281 C 1695.62 -2.54086 -2.33526 0
M  V30 18282 C 1694.74 -3.79062 -2.0721 0
M  V30 18283 C 1693.87 -4.1562 -3.30808 0
M  V30 18284 C 1692.91 -5.3353 -3.0002 0
M  V30 18285 N 1692.05 -5.65549 -4.16051 0
M  V30 18286 H 1696.89 -2.91561 -0.616137 0
M  V30 18287 H 1694.42 -1.4416 -0.292617 0
M  V30 18288 H 1696.38 -2.79935 -3.09342 0
M  V30 18289 H 1695.01 -1.71614 -2.73402 0
M  V30 18290 H 1694.06 -3.60333 -1.21919 0
M  V30 18291 H 1695.38 -4.64998 -1.80495 0
M  V30 18292 H 1694.53 -4.42565 -4.14995 0
M  V30 18293 H 1693.27 -3.28323 -3.60632 0
M  V30 18294 H 1692.27 -5.06344 -2.14234 0
M  V30 18295 H 1693.5 -6.22475 -2.7148 0
M  V30 18296 H 1691.44 -4.81211 -4.45838 0
M  V30 18297 H 1691.36 -6.45982 -3.92738 0
M  V30 18298 H 1692.63 -5.97068 -5.01129 0
M  V30 18299 N 1696.86 0.307236 -1.54576 0
M  V30 18300 C 1697.77 1.4014 -1.88143 0
M  V30 18301 C 1698.78 1.5579 -0.774952 0
M  V30 18302 O 1699.96 1.70574 -1.07082 0
M  V30 18303 C 1697.03 2.74613 -2.11633 0
M  V30 18304 C 1696.09 2.68001 -3.35371 0
M  V30 18305 C 1695.32 3.96061 -3.57731 0
M  V30 18306 O 1695.54 4.95119 -2.83219 0
M  V30 18307 O 1694.48 3.98331 -4.51238 0
M  V30 18308 H 1698.3 1.14677 -2.81217 0
M  V30 18309 H 1695.89 0.502739 -1.40687 0
M  V30 18310 H 1697.77 3.54186 -2.2832 0
M  V30 18311 H 1696.44 2.99933 -1.21746 0
M  V30 18312 H 1695.35 1.86922 -3.24054 0
M  V30 18313 H 1696.68 2.47635 -4.25368 0
M  V30 18314 N 1698.34 1.46926 0.570122 0
M  V30 18315 C 1699.75 1.32159 0.894766 0
M  V30 18316 C 1699.95 0.302411 1.99218 0
M  V30 18317 O 1699.01 -0.290615 2.50822 0
M  V30 18318 C 1700.32 2.71136 1.30021 0
M  V30 18319 C 1701.87 2.79323 1.41236 0
M  V30 18320 C 1702.34 4.18911 1.85142 0
M  V30 18321 N 1703.84 4.2139 1.92314 0
M  V30 18322 C 1704.57 5.263 2.27588 0
M  V30 18323 N 1704.07 6.41526 2.61565 0
M  V30 18324 N 1705.86 5.13671 2.28251 0
M  V30 18325 H 1698.01 2.11837 -0.154603 0
M  V30 18326 H 1700.27 0.947978 -0.00649658 0
M  V30 18327 H 1699.98 3.47087 0.567775 0
M  V30 18328 H 1699.85 3.02066 2.25911 0
M  V30 18329 H 1702.24 2.03653 2.13564 0
M  V30 18330 H 1702.32 2.52063 0.43566 0
M  V30 18331 H 1701.97 4.95081 1.13389 0
M  V30 18332 H 1701.9 4.43587 2.83792 0
M  V30 18333 H 1704.39 3.38257 1.68495 0
M  V30 18334 H 1704.7 7.17343 2.8747 0
M  V30 18335 H 1703.04 6.44867 2.59175 0
M  V30 18336 H 1706.24 4.22684 2.01137 0
M  V30 18337 H 1706.41 5.95541 2.55412 0
M  V30 18338 N 1699.82 -0.815801 1.34842 0
M  V30 18339 C 1701.23 -1.38911 1.24742 0
M  V30 18340 C 1701.58 -1.95807 -0.124101 0
M  V30 18341 O 1700.7 -1.906 -1.02472 0
M  V30 18342 C 1701.3 -2.52532 2.25861 0
M  V30 18343 C 1699.86 -3.05751 2.1953 0
M  V30 18344 C 1699 -1.78661 2.12075 0
M  V30 18345 H 1701.95 -0.619601 1.46105 0
M  V30 18346 H 1701.98 -3.30826 1.87974 0
M  V30 18347 H 1701.49 -2.11092 3.25671 0
M  V30 18348 H 1699.59 -3.51678 1.23099 0
M  V30 18349 H 1699.7 -3.64358 3.11095 0
M  V30 18350 H 1698.07 -1.99844 1.57907 0
M  V30 18351 H 1698.85 -1.39385 3.1373 0
M  V30 18352 N 1701.29 -1.18689 -1.03686 0
M  V30 18353 C 1702.52 -1.00961 -1.80595 0
M  V30 18354 C 1702.94 0.44188 -1.83556 0
M  V30 18355 O 1702.29 1.30693 -1.27379 0
M  V30 18356 C 1702.34 -1.56185 -3.26019 0
M  V30 18357 O 1702.07 -2.95652 -3.23298 0
M  V30 18358 C 1703.57 -1.43129 -4.19558 0
M  V30 18359 H 1700.79 -0.356291 -0.568593 0
M  V30 18360 H 1703.33 -1.57324 -1.3065 0
M  V30 18361 H 1701.49 -1.03989 -3.73182 0
M  V30 18362 H 1701.9 -3.21481 -4.14427 0
M  V30 18363 H 1703.37 -1.86561 -5.19518 0
M  V30 18364 H 1703.85 -0.380581 -4.37548 0
M  V30 18365 H 1704.46 -1.94416 -3.78262 0
M  V30 18366 N 1702.77 1.22662 -0.989529 0
M  V30 18367 C 1704.05 1.86816 -0.579566 0
M  V30 18368 C 1704.43 1.88858 0.943188 0
M  V30 18369 O 1703.78 1.37668 1.82372 0
M  V30 18370 C 1703.99 3.27863 -1.19612 0
M  V30 18371 C 1705.33 4.04384 -1.29454 0
M  V30 18372 O 1706.36 3.37116 -1.15026 0
M  V30 18373 O 1705.22 5.24789 -1.52508 0
M  V30 18374 H 1702.31 0.803332 -0.196434 0
M  V30 18375 H 1704.86 1.30467 -1.08519 0
M  V30 18376 H 1703.63 3.20993 -2.23784 0
M  V30 18377 H 1703.25 3.91813 -0.675875 0
M  V30 18378 N 1704.25 0.762308 1.37937 0
M  V30 18379 C 1705.16 0.142724 2.34165 0
M  V30 18380 C 1706.18 -0.690588 1.59709 0
M  V30 18381 O 1707.35 -0.61271 1.91854 0
M  V30 18382 C 1704.42 -0.733325 3.38856 0
M  V30 18383 C 1703.48 0.115359 4.29145 0
M  V30 18384 C 1702.71 -0.718972 5.28835 0
M  V30 18385 O 1702.93 -1.95656 5.35794 0
M  V30 18386 O 1701.87 -0.133162 6.01753 0
M  V30 18387 H 1705.69 0.937662 2.88863 0
M  V30 18388 H 1703.28 0.523325 1.39935 0
M  V30 18389 H 1705.16 -1.23374 4.02935 0
M  V30 18390 H 1703.84 -1.50661 2.86501 0
M  V30 18391 H 1702.74 0.661926 3.68197 0
M  V30 18392 H 1704.08 0.851505 4.84779 0
M  V30 18393 N 1705.73 -1.49049 0.51208 0
M  V30 18394 C 1706.64 -2.33102 -0.264695 0
M  V30 18395 C 1707.65 -1.45347 -0.956571 0
M  V30 18396 O 1708.83 -1.78355 -0.935501 0
M  V30 18397 C 1705.89 -3.21051 -1.30871 0
M  V30 18398 C 1704.96 -4.24666 -0.629094 0
M  V30 18399 C 1704.19 -5.08412 -1.62337 0
M  V30 18400 O 1704.41 -4.93847 -2.85432 0
M  V30 18401 O 1703.35 -5.90368 -1.17259 0
M  V30 18402 H 1707.17 -3.00732 0.423585 0
M  V30 18403 H 1704.76 -1.4688 0.273246 0
M  V30 18404 H 1706.64 -3.75503 -1.91248 0
M  V30 18405 H 1705.31 -2.56103 -1.97972 0
M  V30 18406 H 1704.22 -3.74097 0.0147056 0
M  V30 18407 H 1705.55 -4.922 -0.000339859 0
M  V30 18408 N 1707.21 -0.246397 -1.55662 0
M  V30 18409 C 1708.45 0.377739 -1.98539 0
M  V30 18410 C 1708.77 1.58504 -1.13585 0
M  V30 18411 O 1708.04 1.94677 -0.218528 0
M  V30 18412 H 1706.62 0.142554 -0.733272 0
M  V30 18413 H 1709.29 -0.345069 -1.91821 0
M  V30 18414 H 1708.38 0.687224 -3.0444 0
M  V30 18415 N 1708.68 1.57577 0.026722 0
M  V30 18416 C 1709.93 1.89379 0.717062 0
M  V30 18417 C 1710.26 0.843976 1.75235 0
M  V30 18418 O 1709.51 -0.154755 1.95087 0
M  V30 18419 C 1709.81 3.27927 1.42121 0
M  V30 18420 C 1709.48 4.47872 0.521676 0
M  V30 18421 C 1708.14 4.8042 0.273926 0
M  V30 18422 C 1710.49 5.21105 -0.0992493 0
M  V30 18423 C 1707.82 5.83588 -0.603488 0
M  V30 18424 C 1710.17 6.25206 -0.964379 0
M  V30 18425 C 1708.84 6.56227 -1.22157 0
M  V30 18426 H 1708.11 0.692988 0.262391 0
M  V30 18427 H 1710.75 1.91486 -0.0230629 0
M  V30 18428 H 1709.06 3.2182 2.23471 0
M  V30 18429 H 1710.76 3.49783 1.96094 0
M  V30 18430 H 1707.35 4.22425 0.724931 0
M  V30 18431 H 1711.53 4.96237 0.0791882 0
M  V30 18432 H 1706.79 6.05997 -0.811031 0
M  V30 18433 H 1710.96 6.81094 -1.45201 0
M  V30 18434 H 1708.59 7.35991 -1.90317 0
M  V30 18435 N 1710.16 -0.299034 1.54737 0
M  V30 18436 C 1711.09 -1.37358 1.88826 0
M  V30 18437 C 1712.07 -1.52802 0.747367 0
M  V30 18438 O 1713.26 -1.66277 1.00327 0
M  V30 18439 C 1710.39 -2.73746 2.13729 0
M  V30 18440 C 1709.34 -2.73065 3.29575 0
M  V30 18441 C 1708.67 -4.12761 3.39901 0
M  V30 18442 C 1709.97 -2.34631 4.66632 0
M  V30 18443 H 1711.66 -1.09077 2.78824 0
M  V30 18444 H 1709.21 -0.523276 1.34156 0
M  V30 18445 H 1711.16 -3.49006 2.36162 0
M  V30 18446 H 1709.88 -3.03556 1.20504 0
M  V30 18447 H 1708.54 -2.00261 3.07068 0
M  V30 18448 H 1708.19 -4.39751 2.44189 0
M  V30 18449 H 1707.89 -4.13205 4.17774 0
M  V30 18450 H 1709.42 -4.89797 3.64597 0
M  V30 18451 H 1710.83 -2.99608 4.88782 0
M  V30 18452 H 1709.23 -2.46285 5.47233 0
M  V30 18453 H 1710.3 -1.29759 4.67216 0
M  V30 18454 N 1711.64 -1.47227 -0.562322 0
M  V30 18455 C 1712.59 -1.55739 -1.66521 0
M  V30 18456 C 1713.57 -0.416678 -1.55411 0
M  V30 18457 O 1714.77 -0.666302 -1.6398 0
M  V30 18458 C 1711.89 -1.5699 -3.05302 0
M  V30 18459 C 1710.98 -2.76427 -3.21634 0
M  V30 18460 N 1711.37 -4.01172 -3.0805 0
M  V30 18461 C 1709.67 -2.73081 -3.52623 0
M  V30 18462 C 1710.37 -4.81132 -3.26936 0
M  V30 18463 N 1709.35 -4.13362 -3.53034 0
M  V30 18464 H 1713.15 -2.49965 -1.5458 0
M  V30 18465 H 1710.66 -1.4315 -0.766937 0
M  V30 18466 H 1712.66 -1.61178 -3.84483 0
M  V30 18467 H 1711.32 -0.638563 -3.18359 0
M  V30 18468 H 1712.33 -4.3211 -2.85485 0
M  V30 18469 H 1709.01 -1.89062 -3.72239 0
M  V30 18470 H 1710.4 -5.9002 -3.21444 0
M  V30 18471 N 1713.12 0.808639 -1.35273 0
M  V30 18472 C 1714.53 1.38248 -1.25477 0
M  V30 18473 C 1714.88 1.9587 0.113715 0
M  V30 18474 O 1714 1.91141 1.0146 0
M  V30 18475 C 1714.6 2.5133 -2.27197 0
M  V30 18476 C 1713.16 3.04582 -2.21148 0
M  V30 18477 C 1712.31 1.77534 -2.13019 0
M  V30 18478 H 1715.26 0.611844 -1.46431 0
M  V30 18479 H 1715.28 3.29825 -1.89726 0
M  V30 18480 H 1714.79 2.09362 -3.26786 0
M  V30 18481 H 1712.89 3.5102 -1.24963 0
M  V30 18482 H 1713 3.62703 -3.13023 0
M  V30 18483 H 1711.37 1.99004 -1.58964 0
M  V30 18484 H 1712.15 1.3772 -3.14465 0
M  V30 18485 N 1714.6 1.19237 1.03055 0
M  V30 18486 C 1716.01 0.996569 1.57878 0
M  V30 18487 C 1716.36 -0.450987 1.90946 0
M  V30 18488 O 1715.48 -1.33009 1.70697 0
M  V30 18489 C 1716.08 1.80272 2.86858 0
M  V30 18490 C 1714.64 1.65097 3.3826 0
M  V30 18491 C 1713.78 1.79079 2.11721 0
M  V30 18492 H 1716.74 1.33633 0.856037 0
M  V30 18493 H 1716.76 1.29781 3.57683 0
M  V30 18494 H 1716.27 2.85621 2.62759 0
M  V30 18495 H 1714.37 0.623267 3.6735 0
M  V30 18496 H 1714.48 2.45527 4.11404 0
M  V30 18497 H 1712.85 1.22124 2.23512 0
M  V30 18498 H 1713.63 2.85885 1.90065 0
M  V30 18499 N 1716.07 -1.22136 0.99602 0
M  V30 18500 C 1717.32 -1.9059 0.672303 0
M  V30 18501 C 1717.64 -1.77903 -0.798476 0
M  V30 18502 O 1716.91 -1.1682 -1.57257 0
M  V30 18503 H 1715.49 -0.705445 0.245676 0
M  V30 18504 H 1718.16 -1.48423 1.2632 0
M  V30 18505 H 1717.25 -2.97684 0.937577 0
M  V30 18506 N 1717.55 -0.769612 -1.37531 0
M  V30 18507 C 1718.46 -0.15514 -2.34086 0
M  V30 18508 C 1719.48 0.682108 -1.60073 0
M  V30 18509 O 1720.65 0.602527 -1.92176 0
M  V30 18510 C 1717.72 0.715344 -3.3924 0
M  V30 18511 C 1716.78 -0.138116 -4.29078 0
M  V30 18512 C 1716.01 0.690916 -5.29209 0
M  V30 18513 O 1716.24 1.92812 -5.36824 0
M  V30 18514 O 1715.17 0.101247 -6.01815 0
M  V30 18515 H 1719 -0.952968 -2.88361 0
M  V30 18516 H 1716.58 -0.530738 -1.39655 0
M  V30 18517 H 1718.46 1.21236 -4.03584 0
M  V30 18518 H 1717.14 1.4914 -2.87296 0
M  V30 18519 H 1716.05 -0.681443 -3.67841 0
M  V30 18520 H 1717.38 -0.877202 -4.8432 0
M  V30 18521 N 1719.03 1.48775 -0.519977 0
M  V30 18522 C 1719.98 2.29461 0.248242 0
M  V30 18523 C 1720.95 1.36734 0.943027 0
M  V30 18524 O 1722.13 1.65697 0.946003 0
M  V30 18525 C 1719.27 3.19868 1.29531 0
M  V30 18526 C 1718.39 4.27666 0.610379 0
M  V30 18527 C 1717.52 5.05266 1.63951 0
M  V30 18528 C 1716.56 6.04878 0.937496 0
M  V30 18529 N 1715.7 6.75573 1.91171 0
M  V30 18530 H 1720.54 2.94643 -0.446016 0
M  V30 18531 H 1718.07 1.45262 -0.231792 0
M  V30 18532 H 1720.03 3.70675 1.91456 0
M  V30 18533 H 1718.66 2.5663 1.95808 0
M  V30 18534 H 1717.71 3.80202 -0.122598 0
M  V30 18535 H 1719.03 4.98765 0.0586864 0
M  V30 18536 H 1718.18 5.60037 2.33332 0
M  V30 18537 H 1716.92 4.33983 2.22509 0
M  V30 18538 H 1715.92 5.49321 0.229562 0
M  V30 18539 H 1717.15 6.78155 0.358166 0
M  V30 18540 H 1715.09 6.07048 2.48655 0
M  V30 18541 H 1715.01 7.42712 1.41118 0
M  V30 18542 H 1716.28 7.34938 2.59781 0
M  V30 18543 N 1720.51 0.254649 1.55529 0
M  V30 18544 C 1721.73 -0.374795 2.03985 0
M  V30 18545 C 1722.16 -1.50188 1.13249 0
M  V30 18546 O 1721.52 -1.80855 0.126963 0
M  V30 18547 C 1721.56 -0.852635 3.50375 0
M  V30 18548 O 1720.67 -1.9616 3.6276 0
M  V30 18549 H 1720.01 -0.0806157 0.659088 0
M  V30 18550 H 1722.54 0.38297 2.00984 0
M  V30 18551 H 1722.55 -1.15381 3.91345 0
M  V30 18552 H 1721.22 -0.0279044 4.15891 0
M  V30 18553 H 1719.8 -1.66453 3.33688 0
M  V30 18554 N 1721.99 -1.57589 -0.0183649 0
M  V30 18555 C 1723.21 -1.94421 -0.722172 0
M  V30 18556 C 1723.64 -0.855471 -1.67521 0
M  V30 18557 O 1722.99 0.187954 -1.80323 0
M  V30 18558 C 1723.04 -3.30331 -1.44615 0
M  V30 18559 O 1722.15 -3.23337 -2.55982 0
M  V30 18560 H 1721.49 -0.63519 -0.193466 0
M  V30 18561 H 1724.02 -2.04579 0.0293527 0
M  V30 18562 H 1724.03 -3.65471 -1.8137 0
M  V30 18563 H 1722.7 -4.09132 -0.747256 0
M  V30 18564 H 1721.28 -2.99845 -2.21692 0
M  V30 18565 N 1723.46 0.290824 -1.54893 0
M  V30 18566 C 1724.37 1.38137 -1.89619 0
M  V30 18567 C 1725.39 1.54959 -0.791432 0
M  V30 18568 O 1726.57 1.69428 -1.08885 0
M  V30 18569 C 1723.63 2.72353 -2.14534 0
M  V30 18570 C 1722.69 2.64429 -3.38195 0
M  V30 18571 C 1721.93 3.92244 -3.61912 0
M  V30 18572 O 1722.15 4.92088 -2.88454 0
M  V30 18573 O 1721.08 3.93523 -4.55438 0
M  V30 18574 H 1724.91 1.11688 -2.82417 0
M  V30 18575 H 1722.49 0.487789 -1.41213 0
M  V30 18576 H 1724.38 3.51745 -2.32064 0
M  V30 18577 H 1723.05 2.98624 -1.24921 0
M  V30 18578 H 1721.96 1.83474 -3.26018 0
M  V30 18579 H 1723.29 2.43109 -4.2797 0
M  V30 18580 N 1724.94 1.47523 0.554506 0
M  V30 18581 C 1725.89 1.60623 1.68235 0
M  V30 18582 C 1726.88 0.473445 1.6265 0
M  V30 18583 O 1728.09 0.651337 1.67802 0
M  V30 18584 H 1724.47 0.505539 0.556718 0
M  V30 18585 H 1726.44 2.55395 1.54323 0
M  V30 18586 C 1725.19 1.64022 3.06581 0
M  V30 18587 H 1724.51 2.50537 3.11562 0
M  V30 18588 H 1725.95 1.77237 3.85179 0
M  V30 18589 C 1724.41 0.374048 3.34817 0
M  V30 18590 O 1724.94 -0.523704 3.98272 0
M  V30 18591 N 1723.14 0.253244 2.89494 0
M  V30 18592 H 1722.69 0.984738 2.38035 0
M  V30 18593 H 1722.65 -0.592982 3.08757 0
M  V30 18594 N 1726.42 -0.801453 1.357 0
M  V30 18595 C 1727.65 -1.58771 1.32194 0
M  V30 18596 C 1728.06 -1.88927 -0.101529 0
M  V30 18597 O 1727.4 -1.49649 -1.0654 0
M  V30 18598 C 1727.46 -2.94186 2.06627 0
M  V30 18599 C 1727.13 -2.86819 3.55786 0
M  V30 18600 C 1728.12 -2.59898 4.50276 0
M  V30 18601 C 1725.81 -3.05775 3.98506 0
M  V30 18602 C 1727.8 -2.52017 5.85462 0
M  V30 18603 C 1725.49 -2.97516 5.33786 0
M  V30 18604 C 1726.49 -2.70673 6.27076 0
M  V30 18605 O 1726.18 -2.62387 7.59874 0
M  V30 18606 H 1725.91 -0.499518 0.455475 0
M  V30 18607 H 1728.46 -1.00358 1.79213 0
M  V30 18608 H 1726.69 -3.54602 1.54253 0
M  V30 18609 H 1728.38 -3.55368 1.96133 0
M  V30 18610 H 1729.15 -2.44968 4.18588 0
M  V30 18611 H 1725.03 -3.25678 3.26274 0
M  V30 18612 H 1728.57 -2.30985 6.58249 0
M  V30 18613 H 1724.47 -3.12006 5.65086 0
M  V30 18614 H 1725.24 -2.77957 7.69859 0
M  V30 18615 N 1727.9 -1.19782 -1.02421 0
M  V30 18616 C 1728.83 -0.897544 -2.10895 0
M  V30 18617 C 1729.84 0.111644 -1.62417 0
M  V30 18618 O 1731.03 -0.118381 -1.78107 0
M  V30 18619 C 1728.13 -0.322714 -3.3736 0
M  V30 18620 C 1727.31 -1.38159 -4.15007 0
M  V30 18621 C 1726.36 -0.819462 -5.1978 0
M  V30 18622 O 1725.39 -1.4983 -5.49126 0
M  V30 18623 N 1726.59 0.374925 -5.79288 0
M  V30 18624 H 1729.36 -1.83127 -2.37243 0
M  V30 18625 H 1726.92 -1.10045 -1.1875 0
M  V30 18626 H 1728.91 0.0673046 -4.04644 0
M  V30 18627 H 1727.48 0.5154 -3.08322 0
M  V30 18628 H 1726.7 -1.94627 -3.42803 0
M  V30 18629 H 1727.99 -2.09496 -4.63669 0
M  V30 18630 H 1727.39 0.943856 -5.5777 0
M  V30 18631 H 1725.94 0.706668 -6.47958 0
M  V30 18632 N 1729.38 1.21606 -1.00248 0
M  V30 18633 C 1730.63 1.89922 -0.679152 0
M  V30 18634 C 1730.94 1.78793 0.793246 0
M  V30 18635 O 1732.15 2.42113 1.22856 0
M  V30 18636 C 1730.6 3.40548 -1.16427 0
M  V30 18637 C 1730.21 3.60293 -2.66257 0
M  V30 18638 C 1731.95 4.14506 -0.915714 0
M  V30 18639 C 1729.86 5.04669 -3.08323 0
M  V30 18640 H 1728.79 0.711232 -0.250329 0
M  V30 18641 H 1731.44 1.37663 -1.21331 0
M  V30 18642 H 1729.82 3.92046 -0.558177 0
M  V30 18643 H 1731 3.19245 -3.32294 0
M  V30 18644 H 1729.31 2.99683 -2.891 0
M  V30 18645 H 1731.91 5.20932 -1.20558 0
M  V30 18646 H 1732.25 4.16037 0.148068 0
M  V30 18647 H 1732.79 3.69064 -1.48448 0
M  V30 18648 H 1729.52 5.08284 -4.13917 0
M  V30 18649 H 1729.04 5.46583 -2.46996 0
M  V30 18650 H 1730.72 5.7316 -3.00162 0
M  V30 18651 N 1730.86 0.776895 1.37121 0
M  V30 18652 C 1732.1 0.344063 1.9986 0
M  V30 18653 C 1732.43 -1.07806 1.61529 0
M  V30 18654 O 1731.71 -1.74258 0.863963 0
M  V30 18655 C 1731.99 0.493512 3.56702 0
M  V30 18656 C 1731.85 1.95842 4.04927 0
M  V30 18657 C 1733.16 -0.099097 4.39988 0
M  V30 18658 H 1730.28 0.126489 0.726064 0
M  V30 18659 H 1732.93 0.980899 1.62722 0
M  V30 18660 H 1731.08 -0.0486344 3.8847 0
M  V30 18661 H 1732.75 2.56067 3.83702 0
M  V30 18662 H 1730.99 2.46544 3.56929 0
M  V30 18663 H 1731.66 2.01402 5.13947 0
M  V30 18664 H 1734.14 0.363545 4.14509 0
M  V30 18665 H 1733.01 0.0355748 5.48888 0
M  V30 18666 H 1733.27 -1.18995 4.25785 0
M  V30 18667 N 1732.33 -1.48497 0.527859 0
M  V30 18668 C 1733.28 -2.2959 -0.23607 0
M  V30 18669 C 1734.25 -1.37232 -0.935762 0
M  V30 18670 O 1735.44 -1.66196 -0.937202 0
M  V30 18671 C 1732.58 -3.20551 -1.27832 0
M  V30 18672 C 1731.69 -4.27984 -0.58769 0
M  V30 18673 C 1730.82 -5.06128 -1.61269 0
M  V30 18674 C 1729.86 -6.05367 -0.905404 0
M  V30 18675 N 1729 -6.76577 -1.87585 0
M  V30 18676 H 1733.84 -2.94403 0.461635 0
M  V30 18677 H 1731.38 -1.45137 0.239493 0
M  V30 18678 H 1733.33 -3.71686 -1.89488 0
M  V30 18679 H 1731.96 -2.57665 -1.94444 0
M  V30 18680 H 1731.02 -3.80132 0.142759 0
M  V30 18681 H 1732.33 -4.9879 -0.0322348 0
M  V30 18682 H 1731.48 -5.61266 -2.30359 0
M  V30 18683 H 1730.22 -4.35157 -2.20204 0
M  V30 18684 H 1729.23 -5.49435 -0.200426 0
M  V30 18685 H 1730.45 -6.78335 -0.322197 0
M  V30 18686 H 1728.4 -6.08358 -2.45432 0
M  V30 18687 H 1728.31 -7.4345 -1.37178 0
M  V30 18688 H 1729.58 -7.36305 -2.5588 0
M  V30 18689 N 1733.81 -0.262893 -1.55392 0
M  V30 18690 C 1735.06 0.35666 -1.98928 0
M  V30 18691 C 1735.38 1.5729 -1.1526 0
M  V30 18692 O 1734.65 1.94435 -0.239164 0
M  V30 18693 H 1733.23 0.134768 -0.734742 0
M  V30 18694 H 1735.89 -0.365394 -1.91444 0
M  V30 18695 H 1734.99 0.654895 -3.05152 0
M  V30 18696 N 1735.29 1.57597 0.0100073 0
M  V30 18697 C 1736.54 1.89308 0.696075 0
M  V30 18698 C 1736.85 0.863884 1.75489 0
M  V30 18699 O 1738.06 1.07087 2.49489 0
M  V30 18700 C 1736.51 3.36017 1.2892 0
M  V30 18701 C 1736.12 4.47211 0.265731 0
M  V30 18702 C 1737.87 3.76852 1.95404 0
M  V30 18703 C 1735.77 5.84991 0.868277 0
M  V30 18704 H 1734.7 0.706368 0.263744 0
M  V30 18705 H 1737.35 1.83435 -0.0488972 0
M  V30 18706 H 1735.74 3.36696 2.08451 0
M  V30 18707 H 1736.91 4.58033 -0.504256 0
M  V30 18708 H 1735.22 4.15332 -0.298096 0
M  V30 18709 H 1737.82 4.77121 2.41371 0
M  V30 18710 H 1738.16 3.09841 2.78036 0
M  V30 18711 H 1738.7 3.7843 1.22621 0
M  V30 18712 H 1735.44 6.5545 0.0809513 0
M  V30 18713 H 1734.96 5.77853 1.60766 0
M  V30 18714 H 1736.64 6.32331 1.36993 0
M  V30 18715 N 1736.77 -0.282606 1.55045 0
M  V30 18716 C 1737.7 -1.35347 1.90272 0
M  V30 18717 C 1738.68 -1.52001 0.763532 0
M  V30 18718 O 1739.86 -1.65204 1.02085 0
M  V30 18719 C 1736.99 -2.71464 2.16621 0
M  V30 18720 C 1735.95 -2.69554 3.32453 0
M  V30 18721 C 1735.27 -4.09132 3.4426 0
M  V30 18722 C 1736.57 -2.29669 4.69094 0
M  V30 18723 H 1738.27 -1.06113 2.79965 0
M  V30 18724 H 1735.81 -0.509018 1.34703 0
M  V30 18725 H 1737.77 -3.46482 2.39851 0
M  V30 18726 H 1736.49 -3.02261 1.23717 0
M  V30 18727 H 1735.15 -1.96993 3.09175 0
M  V30 18728 H 1734.8 -4.37136 2.4884 0
M  V30 18729 H 1734.5 -4.08751 4.22133 0
M  V30 18730 H 1736.02 -4.85903 3.69771 0
M  V30 18731 H 1737.44 -2.94407 4.91932 0
M  V30 18732 H 1735.83 -2.40467 5.49814 0
M  V30 18733 H 1736.9 -1.24796 4.68566 0
M  V30 18734 N 1738.25 -1.47815 -0.546675 0
M  V30 18735 C 1739.16 -1.63744 -1.68003 0
M  V30 18736 C 1740.17 -0.520118 -1.66044 0
M  V30 18737 O 1741.35 -0.789033 -1.853 0
M  V30 18738 C 1738.41 -1.65778 -3.04497 0
M  V30 18739 C 1737.47 -2.89015 -3.17441 0
M  V30 18740 C 1736.71 -2.90943 -4.47424 0
M  V30 18741 O 1736.93 -2.01769 -5.33522 0
M  V30 18742 O 1735.86 -3.82927 -4.64382 0
M  V30 18743 H 1739.69 -2.59665 -1.57505 0
M  V30 18744 H 1737.27 -1.31022 -0.717883 0
M  V30 18745 H 1739.16 -1.69734 -3.85705 0
M  V30 18746 H 1737.83 -0.730268 -3.15355 0
M  V30 18747 H 1736.74 -2.90599 -2.35591 0
M  V30 18748 H 1738.07 -3.81095 -3.11492 0
M  V30 18749 N 1739.72 0.794246 -1.36123 0
M  V30 18750 C 1741.14 1.0916 -1.16431 0
M  V30 18751 C 1741.34 2.01495 0.0148797 0
M  V30 18752 O 1740.4 2.43123 0.681729 0
M  V30 18753 C 1741.71 1.71071 -2.47295 0
M  V30 18754 C 1743.26 1.83435 -2.53615 0
M  V30 18755 C 1743.73 2.48761 -3.84554 0
M  V30 18756 N 1745.22 2.56235 -3.85873 0
M  V30 18757 C 1745.96 3.07579 -4.83924 0
M  V30 18758 N 1745.45 3.59267 -5.92367 0
M  V30 18759 N 1747.25 3.06246 -4.71349 0
M  V30 18760 H 1739.4 0.180705 -2.1163 0
M  V30 18761 H 1741.66 0.142774 -0.937187 0
M  V30 18762 H 1741.37 1.10693 -3.33826 0
M  V30 18763 H 1741.24 2.70634 -2.62749 0
M  V30 18764 H 1743.63 2.42953 -1.67505 0
M  V30 18765 H 1743.71 0.82692 -2.42065 0
M  V30 18766 H 1743.35 1.8989 -4.71067 0
M  V30 18767 H 1743.28 3.50066 -3.93397 0
M  V30 18768 H 1745.77 2.19629 -3.07525 0
M  V30 18769 H 1746.09 3.96781 -6.63163 0
M  V30 18770 H 1744.43 3.57432 -5.96043 0
M  V30 18771 H 1747.62 2.65151 -3.85762 0
M  V30 18772 H 1747.8 3.45953 -5.47924 0
M  V30 18773 N 1741.2 1.20323 1.01785 0
M  V30 18774 C 1742.13 0.974819 2.12178 0
M  V30 18775 C 1743.11 -0.0957637 1.6983 0
M  V30 18776 O 1744.3 0.0614963 1.94103 0
M  V30 18777 C 1741.43 0.524739 3.43313 0
M  V30 18778 C 1740.38 1.53842 3.99395 0
M  V30 18779 C 1739.71 0.945021 5.26283 0
M  V30 18780 C 1741.01 2.92179 4.3293 0
M  V30 18781 H 1742.7 1.8981 2.31544 0
M  V30 18782 H 1740.25 0.914025 1.11273 0
M  V30 18783 H 1742.2 0.352182 4.19926 0
M  V30 18784 H 1740.92 -0.434161 3.23701 0
M  V30 18785 H 1739.58 1.69832 3.24889 0
M  V30 18786 H 1739.23 -0.0217709 5.02995 0
M  V30 18787 H 1738.93 1.62201 5.64769 0
M  V30 18788 H 1740.46 0.783504 6.05552 0
M  V30 18789 H 1741.87 2.79708 5.00436 0
M  V30 18790 H 1740.27 3.56773 4.82528 0
M  V30 18791 H 1741.34 3.43997 3.41752 0
M  V30 18792 N 1742.68 -1.21073 1.00892 0
M  V30 18793 C 1743.63 -2.25613 0.565829 0
M  V30 18794 C 1744.62 -1.64812 -0.391588 0
M  V30 18795 O 1745.83 -1.78078 -0.262352 0
M  V30 18796 H 1742.2 -0.733755 0.164643 0
M  V30 18797 H 1744.17 -2.60321 1.45862 0
M  V30 18798 C 1742.92 -3.47589 -0.087861 0
M  V30 18799 H 1742.25 -3.94647 0.639828 0
M  V30 18800 H 1743.69 -4.22459 -0.361115 0
M  V30 18801 C 1742.14 -3.09609 -1.32829 0
M  V30 18802 O 1742.67 -3.20449 -2.4223 0
M  V30 18803 N 1740.88 -2.64234 -1.2095 0
M  V30 18804 H 1740.43 -2.55613 -0.319301 0
M  V30 18805 H 1740.39 -2.39191 -2.04046 0
M  V30 18806 N 1744.16 -0.784156 -1.36707 0
M  V30 18807 C 1745.11 -0.177044 -2.3012 0
M  V30 18808 C 1746.08 0.6761 -1.51717 0
M  V30 18809 O 1747.26 0.625878 -1.80243 0
M  V30 18810 C 1744.4 0.686337 -3.38206 0
M  V30 18811 C 1743.51 -0.184772 -4.31605 0
M  V30 18812 C 1742.65 0.684485 -5.26772 0
M  V30 18813 C 1741.69 -0.188402 -6.1181 0
M  V30 18814 N 1740.82 0.639537 -6.99181 0
M  V30 18815 H 1745.66 -0.979125 -2.81455 0
M  V30 18816 H 1743.2 -0.494419 -1.38542 0
M  V30 18817 H 1745.16 1.20185 -3.99514 0
M  V30 18818 H 1743.79 1.4539 -2.88204 0
M  V30 18819 H 1742.84 -0.818204 -3.71496 0
M  V30 18820 H 1744.15 -0.857567 -4.91373 0
M  V30 18821 H 1743.31 1.26601 -5.93344 0
M  V30 18822 H 1742.05 1.39092 -4.67445 0
M  V30 18823 H 1741.05 -0.782364 -5.44205 0
M  V30 18824 H 1742.28 -0.89236 -6.73212 0
M  V30 18825 H 1740.22 1.33036 -6.42369 0
M  V30 18826 H 1740.14 0.0243097 -7.55996 0
M  V30 18827 H 1741.41 1.20505 -7.70129 0
M  V30 18828 N 1745.64 1.48215 -0.535727 0
M  V30 18829 C 1746.57 2.26582 0.271278 0
M  V30 18830 C 1747.55 1.32699 0.939673 0
M  V30 18831 O 1748.73 1.62049 0.96293 0
M  V30 18832 C 1745.86 3.09103 1.38467 0
M  V30 18833 C 1744.9 4.18404 0.827081 0
M  V30 18834 S 1745.74 5.34604 -0.309565 0
M  V30 18835 C 1746.89 6.20687 0.806162 0
M  V30 18836 H 1747.13 2.94681 -0.393775 0
M  V30 18837 H 1744.66 1.51013 -0.321622 0
M  V30 18838 H 1746.62 3.57223 2.02242 0
M  V30 18839 H 1745.28 2.40407 2.02147 0
M  V30 18840 H 1744.47 4.7579 1.66251 0
M  V30 18841 H 1744.07 3.73053 0.265911 0
M  V30 18842 H 1746.37 6.55735 1.70345 0
M  V30 18843 H 1747.31 7.07585 0.27014 0
M  V30 18844 H 1747.72 5.53893 1.08916 0
M  V30 18845 N 1747.11 0.27113 1.5525 0
M  V30 18846 C 1748.35 -0.34803 2.01415 0
M  V30 18847 C 1748.72 -1.53347 1.15536 0
M  V30 18848 O 1749.92 -2.222 1.51264 0
M  V30 18849 C 1748.19 -0.72441 3.49982 0
M  V30 18850 S 1749.75 -1.33067 4.18137 0
M  V30 18851 H 1746.57 -0.108431 0.702683 0
M  V30 18852 H 1749.17 0.392033 1.91529 0
M  V30 18853 H 1747.87 0.14729 4.10136 0
M  V30 18854 H 1747.4 -1.49604 3.63844 0
M  V30 18855 H 1749.42 -2.61934 4.21432 0
M  V30 18856 N 1748.59 -1.576 -0.00164943 0
M  V30 18857 C 1749.84 -1.9012 -0.685486 0
M  V30 18858 C 1750.16 -0.872245 -1.74404 0
M  V30 18859 O 1749.43 0.090572 -1.95691 0
M  V30 18860 H 1748.01 -0.701699 -0.256177 0
M  V30 18861 H 1750.67 -1.94861 0.0388866 0
M  V30 18862 H 1749.77 -2.89831 -1.15778 0
M  V30 18863 N 1750.07 0.274379 -1.55193 0
M  V30 18864 C 1751.32 1.00766 -1.75995 0
M  V30 18865 C 1751.65 1.8599 -0.558679 0
M  V30 18866 O 1750.92 1.8937 0.443784 0
M  V30 18867 C 1751.21 1.89137 -3.0643 0
M  V30 18868 C 1751.06 1.06914 -4.36909 0
M  V30 18869 C 1752.38 2.87869 -3.32896 0
M  V30 18870 H 1749.5 0.364915 -0.640317 0
M  V30 18871 H 1752.14 0.280156 -1.87923 0
M  V30 18872 H 1750.29 2.51166 -2.96391 0
M  V30 18873 H 1751.96 0.469666 -4.58903 0
M  V30 18874 H 1750.21 0.372566 -4.32197 0
M  V30 18875 H 1750.88 1.72063 -5.24498 0
M  V30 18876 H 1753.35 2.35974 -3.42718 0
M  V30 18877 H 1752.23 3.46845 -4.25429 0
M  V30 18878 H 1752.49 3.62921 -2.52469 0
M  V30 18879 N 1751.55 1.48103 0.538828 0
M  V30 18880 C 1752.8 1.55362 1.29256 0
M  V30 18881 C 1753.12 0.225427 1.93693 0
M  V30 18882 O 1752.39 -0.75228 1.8088 0
M  V30 18883 H 1750.97 0.57233 0.480049 0
M  V30 18884 H 1753.63 1.84514 0.627749 0
M  V30 18885 H 1752.73 2.32998 2.07649 0
M  V30 18886 N 1753.03 -0.787016 1.36542 0
M  V30 18887 C 1753.94 -1.93103 1.33223 0
M  V30 18888 C 1754.95 -1.72419 0.234047 0
M  V30 18889 O 1756.13 -1.95915 0.466828 0
M  V30 18890 C 1753.19 -3.28002 1.12319 0
M  V30 18891 C 1752.25 -3.61447 2.31635 0
M  V30 18892 C 1751.49 -4.89909 2.11719 0
M  V30 18893 O 1751.71 -5.59818 1.0936 0
M  V30 18894 O 1750.64 -5.22065 2.99552 0
M  V30 18895 H 1754.47 -1.98853 2.29545 0
M  V30 18896 H 1752.06 -0.92761 1.17114 0
M  V30 18897 H 1753.94 -4.08722 1.02589 0
M  V30 18898 H 1752.61 -3.23138 0.19061 0
M  V30 18899 H 1751.52 -2.81024 2.46934 0
M  V30 18900 H 1752.85 -3.71037 3.23407 0
M  V30 18901 N 1754.5 -1.20861 -1.01145 0
M  V30 18902 C 1755.44 -0.919862 -2.09931 0
M  V30 18903 C 1756.45 0.0944116 -1.62526 0
M  V30 18904 O 1757.64 -0.137265 -1.77971 0
M  V30 18905 C 1754.74 -0.358478 -3.36999 0
M  V30 18906 C 1753.91 -1.42553 -4.13518 0
M  V30 18907 C 1752.97 -0.874546 -5.18882 0
M  V30 18908 O 1752 -1.55646 -5.47506 0
M  V30 18909 N 1753.2 0.313462 -5.79653 0
M  V30 18910 H 1755.96 -1.85633 -2.35288 0
M  V30 18911 H 1753.52 -1.11299 -1.17577 0
M  V30 18912 H 1755.52 0.0243829 -4.04693 0
M  V30 18913 H 1754.09 0.482669 -3.08851 0
M  V30 18914 H 1753.31 -1.98251 -3.4072 0
M  V30 18915 H 1754.59 -2.14402 -4.61421 0
M  V30 18916 H 1753.99 0.884644 -5.5874 0
M  V30 18917 H 1752.55 0.637904 -6.48671 0
M  V30 18918 N 1755.98 1.20536 -1.01532 0
M  V30 18919 C 1756.92 2.21979 -0.529198 0
M  V30 18920 C 1757.89 1.5701 0.422676 0
M  V30 18921 O 1759.08 1.85354 0.342975 0
M  V30 18922 C 1756.2 3.37918 0.230033 0
M  V30 18923 C 1755.25 4.21185 -0.671202 0
M  V30 18924 S 1756.08 4.90898 -2.13962 0
M  V30 18925 C 1757.24 6.10259 -1.39051 0
M  V30 18926 H 1757.47 2.62871 -1.38875 0
M  V30 18927 H 1755.01 1.30567 -0.824113 0
M  V30 18928 H 1756.96 4.05127 0.661978 0
M  V30 18929 H 1755.62 2.95489 1.06514 0
M  V30 18930 H 1754.82 5.03927 -0.085834 0
M  V30 18931 H 1754.42 3.59224 -1.04087 0
M  V30 18932 H 1756.71 6.74181 -0.669841 0
M  V30 18933 H 1757.65 6.73252 -2.19402 0
M  V30 18934 H 1758.06 5.57377 -0.893953 0
M  V30 18935 N 1757.46 0.791395 1.36289 0
M  V30 18936 C 1758.88 0.473308 1.5242 0
M  V30 18937 C 1759.08 -1.00805 1.74473 0
M  V30 18938 O 1758.13 -1.79349 1.77737 0
M  V30 18939 C 1759.45 1.30547 2.70884 0
M  V30 18940 C 1760.99 1.29936 2.84755 0
M  V30 18941 C 1761.47 2.1153 4.06225 0
M  V30 18942 N 1762.96 2.08987 4.13375 0
M  V30 18943 C 1763.69 2.68889 5.06445 0
M  V30 18944 N 1763.19 3.37657 6.04946 0
M  V30 18945 N 1764.98 2.58612 4.99075 0
M  V30 18946 H 1757.13 1.75096 1.20229 0
M  V30 18947 H 1759.4 0.74441 0.586991 0
M  V30 18948 H 1759.1 2.35607 2.61117 0
M  V30 18949 H 1758.98 0.948139 3.65089 0
M  V30 18950 H 1761.36 0.256671 2.93982 0
M  V30 18951 H 1761.45 1.69647 1.91451 0
M  V30 18952 H 1761.09 3.15832 3.9776 0
M  V30 18953 H 1761.02 1.69189 4.98681 0
M  V30 18954 H 1763.51 1.58938 3.42851 0
M  V30 18955 H 1763.82 3.8069 6.72529 0
M  V30 18956 H 1762.17 3.4176 6.05165 0
M  V30 18957 H 1765.36 2.04487 4.21073 0
M  V30 18958 H 1765.53 3.05587 5.7142 0
M  V30 18959 N 1758.94 -1.47929 0.54358 0
M  V30 18960 C 1759.89 -2.29827 -0.211706 0
M  V30 18961 C 1760.86 -1.38217 -0.921154 0
M  V30 18962 O 1762.04 -1.67181 -0.919522 0
M  V30 18963 C 1759.18 -3.21889 -1.24425 0
M  V30 18964 C 1758.29 -4.28583 -0.542264 0
M  V30 18965 C 1757.43 -5.0781 -1.55892 0
M  V30 18966 C 1756.47 -6.06293 -0.841146 0
M  V30 18967 N 1755.61 -6.78528 -1.80399 0
M  V30 18968 H 1760.45 -2.93896 0.492835 0
M  V30 18969 H 1757.98 -1.44875 0.254873 0
M  V30 18970 H 1759.94 -3.73674 -1.85535 0
M  V30 18971 H 1758.57 -2.59713 -1.917 0
M  V30 18972 H 1757.62 -3.79959 0.183069 0
M  V30 18973 H 1758.93 -4.98796 0.0206703 0
M  V30 18974 H 1758.09 -5.63678 -2.24393 0
M  V30 18975 H 1756.83 -4.37468 -2.15576 0
M  V30 18976 H 1755.83 -5.49616 -0.14214 0
M  V30 18977 H 1757.06 -6.78639 -0.250232 0
M  V30 18978 H 1755 -6.10927 -2.38965 0
M  V30 18979 H 1754.92 -7.44863 -1.29285 0
M  V30 18980 H 1756.19 -7.38978 -2.48056 0
M  V30 18981 N 1760.42 -0.27936 -1.55104 0
M  V30 18982 C 1761.36 0.606268 -2.22695 0
M  V30 18983 C 1762.33 1.14646 -1.20189 0
M  V30 18984 O 1763.52 1.19498 -1.48744 0
M  V30 18985 C 1760.66 1.78256 -2.95497 0
M  V30 18986 C 1759.77 1.27582 -4.12731 0
M  V30 18987 C 1758.91 2.41425 -4.73167 0
M  V30 18988 C 1757.95 1.87775 -5.82586 0
M  V30 18989 N 1757.08 2.95108 -6.37068 0
M  V30 18990 H 1761.92 0.0232427 -2.97991 0
M  V30 18991 H 1759.46 -0.000294714 -1.471 0
M  V30 18992 H 1761.42 2.47406 -3.35925 0
M  V30 18993 H 1760.05 2.33755 -2.22617 0
M  V30 18994 H 1759.1 0.477281 -3.77394 0
M  V30 18995 H 1760.41 0.842897 -4.91627 0
M  V30 18996 H 1759.57 3.18561 -5.16337 0
M  V30 18997 H 1758.31 2.88035 -3.93557 0
M  V30 18998 H 1757.31 1.0912 -5.38862 0
M  V30 18999 H 1758.54 1.42096 -6.64067 0
M  V30 19000 H 1756.48 3.41091 -5.60351 0
M  V30 19001 H 1756.4 2.56246 -7.11248 0
M  V30 19002 H 1757.67 3.72206 -6.84896 0
M  V30 19003 N 1761.9 1.57599 -0.0067085 0
M  V30 19004 C 1762.83 2.05706 1.01084 0
M  V30 19005 C 1763.84 0.976216 1.30284 0
M  V30 19006 O 1765.03 1.25288 1.27142 0
M  V30 19007 C 1762.13 2.44771 2.34393 0
M  V30 19008 C 1761.3 3.75668 2.24036 0
M  V30 19009 C 1760.36 4.01528 3.4009 0
M  V30 19010 O 1759.39 4.72101 3.17977 0
M  V30 19011 N 1760.59 3.49947 4.6316 0
M  V30 19012 H 1763.35 2.93622 0.600532 0
M  V30 19013 H 1760.92 1.6089 0.180536 0
M  V30 19014 H 1762.91 2.5918 3.10818 0
M  V30 19015 H 1761.48 1.62339 2.67142 0
M  V30 19016 H 1760.7 3.71272 1.3248 0
M  V30 19017 H 1761.99 4.6147 2.14295 0
M  V30 19018 H 1761.38 2.92811 4.84023 0
M  V30 19019 H 1759.94 3.69675 5.36828 0
M  V30 19020 N 1763.37 -0.266145 1.55336 0
M  V30 19021 C 1764.31 -1.35159 1.85107 0
M  V30 19022 C 1765.32 -1.45213 0.736006 0
M  V30 19023 O 1766.51 -1.46907 1.01393 0
M  V30 19024 C 1763.61 -2.73218 2.00512 0
M  V30 19025 C 1762.78 -2.85671 3.31226 0
M  V30 19026 C 1761.84 -4.0445 3.36611 0
M  V30 19027 O 1760.87 -3.94884 4.09945 0
M  V30 19028 N 1762.07 -5.16735 2.64508 0
M  V30 19029 H 1764.83 -1.09963 2.78798 0
M  V30 19030 H 1762.39 -0.456261 1.55338 0
M  V30 19031 H 1764.39 -3.50983 2.01477 0
M  V30 19032 H 1762.96 -2.91206 1.13655 0
M  V30 19033 H 1762.18 -1.94736 3.42741 0
M  V30 19034 H 1763.46 -2.90927 4.17419 0
M  V30 19035 H 1762.86 -5.27395 2.04624 0
M  V30 19036 H 1761.42 -5.92706 2.71189 0
M  V30 19037 N 1764.85 -1.48386 -0.530967 0
M  V30 19038 C 1766.27 -1.34485 -0.859412 0
M  V30 19039 C 1766.47 -0.355124 -1.98346 0
M  V30 19040 O 1765.52 0.224012 -2.51504 0
M  V30 19041 C 1766.84 -2.74488 -1.22787 0
M  V30 19042 C 1768.38 -2.82969 -1.33781 0
M  V30 19043 C 1768.86 -4.23673 -1.7397 0
M  V30 19044 N 1770.35 -4.26341 -1.81074 0
M  V30 19045 C 1771.09 -5.32149 -2.13554 0
M  V30 19046 N 1770.58 -6.48235 -2.44464 0
M  V30 19047 N 1772.37 -5.19542 -2.14551 0
M  V30 19048 H 1764.53 -2.11352 0.210713 0
M  V30 19049 H 1766.79 -0.947472 0.0316283 0
M  V30 19050 H 1766.49 -3.4847 -0.475552 0
M  V30 19051 H 1766.37 -3.0795 -2.17823 0
M  V30 19052 H 1768.76 -2.09244 -2.08089 0
M  V30 19053 H 1768.84 -2.53129 -0.368677 0
M  V30 19054 H 1768.48 -4.97914 -1.00222 0
M  V30 19055 H 1768.41 -4.50956 -2.71931 0
M  V30 19056 H 1770.9 -3.42606 -1.59467 0
M  V30 19057 H 1771.21 -7.24712 -2.6835 0
M  V30 19058 H 1769.56 -6.51512 -2.41986 0
M  V30 19059 H 1772.75 -4.27868 -1.89859 0
M  V30 19060 H 1772.92 -6.02103 -2.39532 0
M  V30 19061 N 1766.33 0.779763 -1.36958 0
M  V30 19062 C 1767.26 1.90687 -1.34762 0
M  V30 19063 C 1768.24 1.68704 -0.217508 0
M  V30 19064 O 1769.43 1.89678 -0.416639 0
M  V30 19065 C 1766.56 3.27854 -1.14582 0
M  V30 19066 C 1765.51 3.64383 -2.2452 0
M  V30 19067 C 1764.84 5.00004 -1.89473 0
M  V30 19068 C 1766.14 3.71963 -3.66662 0
M  V30 19069 H 1767.83 1.92781 -2.29076 0
M  V30 19070 H 1765.38 0.926102 -1.10269 0
M  V30 19071 H 1767.33 4.06332 -1.11678 0
M  V30 19072 H 1766.05 3.26172 -0.167218 0
M  V30 19073 H 1764.71 2.88207 -2.26566 0
M  V30 19074 H 1764.36 4.94853 -0.901617 0
M  V30 19075 H 1764.06 5.25414 -2.63085 0
M  V30 19076 H 1765.58 5.80892 -1.88141 0
M  V30 19077 H 1767 4.40611 -3.6679 0
M  V30 19078 H 1765.39 4.08864 -4.39261 0
M  V30 19079 H 1766.46 2.72824 -4.00868 0
M  V30 19080 N 1767.81 1.21396 1.00503 0
M  V30 19081 C 1768.74 0.997268 2.11132 0
M  V30 19082 C 1769.72 -0.0777455 1.69922 0
M  V30 19083 O 1770.9 0.08208 1.94026 0
M  V30 19084 C 1768.03 0.561122 3.42737 0
M  V30 19085 C 1766.99 1.58069 3.97741 0
M  V30 19086 C 1766.31 1.00079 5.25251 0
M  V30 19087 C 1767.61 2.96754 4.29807 0
M  V30 19088 H 1769.31 1.92255 2.29518 0
M  V30 19089 H 1766.85 0.925776 1.10297 0
M  V30 19090 H 1768.81 0.396701 4.19529 0
M  V30 19091 H 1767.53 -0.399804 3.24144 0
M  V30 19092 H 1766.19 1.73268 3.23069 0
M  V30 19093 H 1765.84 0.0315797 5.0299 0
M  V30 19094 H 1765.54 1.68182 5.63017 0
M  V30 19095 H 1767.06 0.847687 6.04687 0
M  V30 19096 H 1768.48 2.85 4.97441 0
M  V30 19097 H 1766.87 3.61871 4.78717 0
M  V30 19098 H 1767.94 3.47602 3.38084 0
M  V30 19099 N 1769.29 -1.19996 1.0217 0
M  V30 19100 C 1770.23 -2.22963 0.596318 0
M  V30 19101 C 1771.2 -1.61548 -0.386212 0
M  V30 19102 O 1772.39 -1.88667 -0.284497 0
M  V30 19103 C 1769.53 -3.45058 -0.054059 0
M  V30 19104 C 1768.64 -4.20885 0.973648 0
M  V30 19105 C 1767.78 -5.30387 0.293788 0
M  V30 19106 C 1766.81 -5.97964 1.3079 0
M  V30 19107 N 1765.95 -6.99044 0.654351 0
M  V30 19108 H 1770.79 -2.58709 1.47898 0
M  V30 19109 H 1768.33 -1.27117 0.740254 0
M  V30 19110 H 1770.29 -4.14784 -0.448313 0
M  V30 19111 H 1768.92 -3.0999 -0.900342 0
M  V30 19112 H 1767.97 -3.50174 1.48602 0
M  V30 19113 H 1769.28 -4.67292 1.7447 0
M  V30 19114 H 1768.43 -6.065 -0.155695 0
M  V30 19115 H 1767.17 -4.85031 -0.509521 0
M  V30 19116 H 1766.18 -5.20607 1.76772 0
M  V30 19117 H 1767.4 -6.45404 2.11258 0
M  V30 19118 H 1765.35 -6.55873 -0.128996 0
M  V30 19119 H 1765.27 -7.43605 1.36339 0
M  V30 19120 H 1766.53 -7.79165 0.228631 0
M  V30 19121 N 1770.76 -0.798611 -1.35867 0
M  V30 19122 C 1771.71 -0.191425 -2.31811 0
M  V30 19123 C 1772.71 0.65438 -1.56251 0
M  V30 19124 O 1773.91 0.548435 -1.71441 0
M  V30 19125 H 1770.29 -0.0431343 -0.750762 0
M  V30 19126 H 1772.26 -1.01589 -2.80575 0
M  V30 19127 C 1771.01 0.651912 -3.41534 0
M  V30 19128 H 1770.33 0.0104309 -3.99799 0
M  V30 19129 H 1771.77 1.04328 -4.10964 0
M  V30 19130 C 1770.23 1.81407 -2.83889 0
M  V30 19131 O 1770.76 2.91115 -2.76794 0
M  V30 19132 N 1768.96 1.62308 -2.41049 0
M  V30 19133 H 1768.51 0.730709 -2.47019 0
M  V30 19134 H 1768.47 2.40226 -2.02827 0
M  V30 19135 N 1772.24 1.47639 -0.551417 0
M  V30 19136 C 1773.17 2.26857 0.247231 0
M  V30 19137 C 1774.15 1.33688 0.925546 0
M  V30 19138 O 1775.34 1.63061 0.945688 0
M  V30 19139 C 1772.46 3.10554 1.35181 0
M  V30 19140 C 1771.51 4.19257 0.782657 0
M  V30 19141 S 1772.34 5.34246 -0.366249 0
M  V30 19142 C 1773.5 6.21507 0.740284 0
M  V30 19143 H 1773.73 2.94246 -0.425008 0
M  V30 19144 H 1771.26 1.50663 -0.33762 0
M  V30 19145 H 1773.22 3.59348 1.98442 0
M  V30 19146 H 1771.88 2.42537 1.99586 0
M  V30 19147 H 1771.08 4.77527 1.61196 0
M  V30 19148 H 1770.68 3.73315 0.226329 0
M  V30 19149 H 1772.97 6.57505 1.6338 0
M  V30 19150 H 1773.91 7.07831 0.195076 0
M  V30 19151 H 1774.32 5.55017 1.03035 0
M  V30 19152 N 1773.72 0.287581 1.54954 0
M  V30 19153 C 1775 -0.378041 1.91912 0
M  V30 19154 C 1775.38 -1.72749 1.2133 0
M  V30 19155 O 1774.73 -2.2589 0.344403 0
M  V30 19156 C 1774.94 -0.505993 3.45312 0
M  V30 19157 C 1776.28 -0.783109 4.17316 0
M  V30 19158 O 1777.31 -0.590324 3.51274 0
M  V30 19159 O 1776.17 -1.15257 5.34208 0
M  V30 19160 H 1773.26 -0.209004 0.800154 0
M  V30 19161 H 1775.81 0.334653 1.66368 0
M  V30 19162 H 1774.58 0.443187 3.88782 0
M  V30 19163 H 1774.2 -1.26767 3.7685 0
M  V30 19164 N 1775.2 -1.57593 0.0150662 0
M  V30 19165 C 1776.16 -2.08293 -0.956385 0
M  V30 19166 C 1777.16 -0.99521 -1.26302 0
M  V30 19167 O 1778.35 -1.25732 -1.2057 0
M  V30 19168 C 1775.48 -2.53702 -2.27701 0
M  V30 19169 H 1776.68 -2.95401 -0.517543 0
M  V30 19170 H 1774.23 -1.54558 -0.232706 0
M  V30 19171 H 1774.96 -1.69882 -2.76244 0
M  V30 19172 H 1774.75 -3.33155 -2.06761 0
M  V30 19173 H 1776.24 -2.93201 -2.9736 0
M  V30 19174 N 1776.68 0.257904 -1.55475 0
M  V30 19175 C 1777.63 1.32176 -1.85778 0
M  V30 19176 C 1778.61 1.44002 -0.717789 0
M  V30 19177 O 1779.8 1.47429 -0.979476 0
M  V30 19178 C 1776.93 2.67928 -2.14638 0
M  V30 19179 C 1776.02 2.60151 -3.34936 0
M  V30 19180 N 1776.41 2.22 -4.54477 0
M  V30 19181 C 1774.71 2.91186 -3.37827 0
M  V30 19182 C 1775.41 2.24586 -5.36597 0
M  V30 19183 N 1774.38 2.63656 -4.7538 0
M  V30 19184 H 1778.19 1.01711 -2.75739 0
M  V30 19185 H 1775.7 0.466539 -1.55554 0
M  V30 19186 H 1777.7 3.4469 -2.34508 0
M  V30 19187 H 1776.36 2.99269 -1.25969 0
M  V30 19188 H 1777.37 1.93726 -4.80303 0
M  V30 19189 H 1774.04 3.27139 -2.59397 0
M  V30 19190 H 1775.43 1.97522 -6.42211 0
M  V30 19191 N 1778.15 1.48666 0.52309 0
M  V30 19192 C 1779.1 1.63701 1.62698 0
M  V30 19193 C 1780.07 0.478895 1.59047 0
M  V30 19194 O 1781.26 0.703229 1.77368 0
M  V30 19195 C 1778.4 1.68912 3.00936 0
M  V30 19196 C 1777.51 2.95878 3.1477 0
M  V30 19197 C 1776.64 2.92206 4.43609 0
M  V30 19198 C 1775.68 4.13846 4.50996 0
M  V30 19199 N 1774.82 4.08213 5.71233 0
M  V30 19200 H 1779.66 2.57967 1.49188 0
M  V30 19201 H 1777.2 1.27924 0.726217 0
M  V30 19202 H 1779.16 1.69915 3.81031 0
M  V30 19203 H 1777.79 0.781309 3.13202 0
M  V30 19204 H 1776.84 3.04588 2.27883 0
M  V30 19205 H 1778.15 3.85861 3.1609 0
M  V30 19206 H 1777.3 2.91649 5.32002 0
M  V30 19207 H 1776.04 1.99964 4.44821 0
M  V30 19208 H 1775.05 4.14671 3.61009 0
M  V30 19209 H 1776.27 5.07256 4.51517 0
M  V30 19210 H 1774.22 3.18794 5.73329 0
M  V30 19211 H 1774.14 4.91908 5.74075 0
M  V30 19212 H 1775.4 4.11725 6.61893 0
M  V30 19213 N 1779.63 -0.772489 1.37369 0
M  V30 19214 C 1780.88 -1.53329 1.32733 0
M  V30 19215 C 1781.21 -1.93999 -0.0882815 0
M  V30 19216 O 1780.49 -1.64014 -1.04545 0
M  V30 19217 C 1780.77 -2.79885 2.26575 0
M  V30 19218 C 1780.62 -2.45474 3.76912 0
M  V30 19219 C 1781.94 -3.81812 2.18878 0
M  V30 19220 H 1779.06 -0.55625 0.483482 0
M  V30 19221 H 1781.7 -0.886251 1.68064 0
M  V30 19222 H 1779.85 -3.35097 1.96576 0
M  V30 19223 H 1781.52 -1.96182 4.17505 0
M  V30 19224 H 1779.77 -1.78181 3.95517 0
M  V30 19225 H 1780.44 -3.35937 4.38007 0
M  V30 19226 H 1782.91 -3.36091 2.4532 0
M  V30 19227 H 1781.79 -4.68087 2.86681 0
M  V30 19228 H 1782.05 -4.26021 1.18146 0
M  V30 19229 N 1781.11 -1.21927 -0.998575 0
M  V30 19230 C 1782.04 -0.927553 -2.08499 0
M  V30 19231 C 1783.02 0.127378 -1.621 0
M  V30 19232 O 1784.21 -0.00298127 -1.885 0
M  V30 19233 C 1781.33 -0.393968 -3.36401 0
M  V30 19234 C 1780.38 -1.4327 -4.01716 0
M  V30 19235 S 1781.21 -3.0041 -4.43299 0
M  V30 19236 C 1782.37 -2.48675 -5.74379 0
M  V30 19237 H 1782.6 -1.84755 -2.32923 0
M  V30 19238 H 1780.13 -1.04972 -1.13227 0
M  V30 19239 H 1782.09 -0.0926895 -4.10395 0
M  V30 19240 H 1780.75 0.504816 -3.10017 0
M  V30 19241 H 1779.95 -1.0091 -4.93795 0
M  V30 19242 H 1779.55 -1.68239 -3.34024 0
M  V30 19243 H 1781.84 -1.89562 -6.5044 0
M  V30 19244 H 1782.78 -3.39221 -6.21558 0
M  V30 19245 H 1783.19 -1.90158 -5.31507 0
M  V30 19246 N 1782.59 1.19452 -1.02805 0
M  V30 19247 C 1783.52 2.24875 -0.628752 0
M  V30 19248 C 1784.5 1.66207 0.361844 0
M  V30 19249 O 1785.68 1.92652 0.244743 0
M  V30 19250 C 1782.81 3.47293 0.0220954 0
M  V30 19251 C 1781.77 4.1863 -0.890693 0
M  V30 19252 C 1781.09 5.34597 -0.104997 0
M  V30 19253 C 1782.39 4.73518 -2.20405 0
M  V30 19254 H 1784.09 2.5853 -1.51005 0
M  V30 19255 H 1781.63 1.24271 -0.727518 0
M  V30 19256 H 1783.59 4.20235 0.313073 0
M  V30 19257 H 1782.31 3.12835 0.938182 0
M  V30 19258 H 1780.97 3.47568 -1.16585 0
M  V30 19259 H 1780.62 4.96385 0.813098 0
M  V30 19260 H 1780.32 5.83258 -0.712983 0
M  V30 19261 H 1781.84 6.10337 0.179259 0
M  V30 19262 H 1783.26 5.3822 -1.97465 0
M  V30 19263 H 1781.65 5.32663 -2.76388 0
M  V30 19264 H 1782.72 3.9163 -2.85926 0
M  V30 19265 N 1784.07 0.805805 1.35442 0
M  V30 19266 C 1785.34 0.309105 1.93142 0
M  V30 19267 C 1785.72 -1.20119 1.73593 0
M  V30 19268 O 1785.07 -2.00034 1.10448 0
M  V30 19269 C 1785.28 0.719653 3.415 0
M  V30 19270 C 1786.63 0.708697 4.18644 0
M  V30 19271 O 1787.65 0.661148 3.5001 0
M  V30 19272 O 1786.51 0.76636 5.411 0
M  V30 19273 H 1783.61 0.0806647 0.823057 0
M  V30 19274 H 1786.15 0.88945 1.44523 0
M  V30 19275 H 1784.92 1.7606 3.49455 0
M  V30 19276 H 1784.55 0.114073 3.97436 0
M  V30 19277 N 1785.54 -1.47344 0.559239 0
M  V30 19278 C 1786.47 -2.32839 -0.175542 0
M  V30 19279 C 1787.46 -1.43914 -0.906787 0
M  V30 19280 O 1788.64 -1.72767 -0.886855 0
M  V30 19281 C 1785.77 -3.25735 -1.20474 0
M  V30 19282 C 1784.72 -4.23916 -0.589825 0
M  V30 19283 C 1784.05 -5.06151 -1.7238 0
M  V30 19284 C 1785.35 -5.2029 0.457733 0
M  V30 19285 H 1787.04 -2.94522 0.538225 0
M  V30 19286 H 1784.59 -1.41628 0.260282 0
M  V30 19287 H 1786.54 -3.84388 -1.72695 0
M  V30 19288 H 1785.27 -2.62111 -1.94847 0
M  V30 19289 H 1783.93 -3.66492 -0.0888897 0
M  V30 19290 H 1783.57 -4.38929 -2.45663 0
M  V30 19291 H 1783.27 -5.72625 -1.31813 0
M  V30 19292 H 1784.8 -5.67663 -2.24923 0
M  V30 19293 H 1786.21 -5.73296 0.0215019 0
M  V30 19294 H 1784.61 -5.94978 0.7824 0
M  V30 19295 H 1785.68 -4.65645 1.35286 0
M  V30 19296 N 1787.02 -0.295795 -1.54799 0
M  V30 19297 C 1787.95 0.575863 -2.26288 0
M  V30 19298 C 1788.93 1.14217 -1.26049 0
M  V30 19299 O 1790.12 1.17248 -1.54812 0
M  V30 19300 C 1787.25 1.7503 -2.9997 0
M  V30 19301 C 1786.2 1.31459 -4.07311 0
M  V30 19302 C 1785.53 2.57377 -4.6868 0
M  V30 19303 C 1786.83 0.449629 -5.20361 0
M  V30 19304 H 1788.52 -0.0203797 -2.99393 0
M  V30 19305 H 1786.07 -0.0112418 -1.43996 0
M  V30 19306 H 1788.02 2.36615 -3.487 0
M  V30 19307 H 1786.75 2.3727 -2.24434 0
M  V30 19308 H 1785.4 0.721829 -3.59423 0
M  V30 19309 H 1785.05 3.1792 -3.89789 0
M  V30 19310 H 1784.75 2.28927 -5.41171 0
M  V30 19311 H 1786.28 3.19774 -5.2017 0
M  V30 19312 H 1787.69 0.971014 -5.65017 0
M  V30 19313 H 1786.09 0.259121 -5.9954 0
M  V30 19314 H 1787.16 -0.526564 -4.82032 0
M  V30 19315 N 1788.5 1.57583 -0.0234236 0
M  V30 19316 C 1789.43 2.06766 0.988961 0
M  V30 19317 C 1790.45 0.98998 1.29241 0
M  V30 19318 O 1791.64 1.2663 1.25806 0
M  V30 19319 C 1788.74 2.47244 2.31784 0
M  V30 19320 C 1787.91 3.78023 2.20039 0
M  V30 19321 C 1786.97 4.05113 3.35812 0
M  V30 19322 O 1785.99 4.75447 3.12952 0
M  V30 19323 N 1787.2 3.5484 4.59422 0
M  V30 19324 H 1789.96 2.94242 0.569355 0
M  V30 19325 H 1787.52 1.61073 0.163461 0
M  V30 19326 H 1789.51 2.62463 3.08051 0
M  V30 19327 H 1788.08 1.65163 2.65405 0
M  V30 19328 H 1787.3 3.72656 1.28534 0
M  V30 19329 H 1788.59 4.63717 2.09389 0
M  V30 19330 H 1787.99 2.97928 4.8089 0
M  V30 19331 H 1786.55 3.75348 5.32877 0
M  V30 19332 N 1789.98 -0.249655 1.5561 0
M  V30 19333 C 1791.23 -0.975982 1.76515 0
M  V30 19334 C 1791.54 -1.86589 0.586843 0
M  V30 19335 O 1792.75 -2.62876 0.678844 0
M  V30 19336 C 1791.2 -1.7854 3.12492 0
M  V30 19337 C 1790.81 -0.943014 4.37963 0
M  V30 19338 C 1792.56 -2.50462 3.42737 0
M  V30 19339 C 1790.46 -1.74816 5.64972 0
M  V30 19340 H 1789.39 -0.368139 0.65802 0
M  V30 19341 H 1792.04 -0.230745 1.82043 0
M  V30 19342 H 1790.43 -2.57248 3.01064 0
M  V30 19343 H 1791.6 -0.198453 4.60372 0
M  V30 19344 H 1789.91 -0.337249 4.15032 0
M  V30 19345 H 1792.51 -3.1115 4.34845 0
M  V30 19346 H 1792.85 -3.21938 2.63935 0
M  V30 19347 H 1793.39 -1.78767 3.55369 0
M  V30 19348 H 1790.13 -1.07719 6.46589 0
M  V30 19349 H 1789.65 -2.46807 5.46668 0
M  V30 19350 H 1791.33 -2.31599 6.04128 0
M  V30 19351 N 1791.46 -1.48941 -0.515198 0
M  V30 19352 C 1792.87 -1.51076 -1.09695 0
M  V30 19353 C 1793.22 -0.288875 -1.94062 0
M  V30 19354 O 1792.34 0.602665 -2.07839 0
M  V30 19355 C 1792.94 -2.73755 -1.99609 0
M  V30 19356 C 1791.5 -2.78714 -2.52974 0
M  V30 19357 C 1790.65 -2.44798 -1.30266 0
M  V30 19358 H 1793.6 -1.55843 -0.299757 0
M  V30 19359 H 1793.62 -2.53112 -2.84103 0
M  V30 19360 H 1793.13 -3.62668 -1.38178 0
M  V30 19361 H 1791.23 -1.94045 -3.18084 0
M  V30 19362 H 1791.34 -3.80525 -2.91097 0
M  V30 19363 H 1789.71 -1.9627 -1.62327 0
M  V30 19364 H 1790.49 -3.35969 -0.705648 0
M  V30 19365 N 1792.94 0.765193 -1.37777 0
M  V30 19366 C 1794.17 1.5521 -1.36358 0
M  V30 19367 C 1794.57 1.8913 0.0514021 0
M  V30 19368 O 1793.92 1.52422 1.02535 0
M  V30 19369 C 1793.98 2.88605 -2.14354 0
M  V30 19370 C 1793.64 2.77286 -3.63265 0
M  V30 19371 C 1794.64 2.47869 -4.57009 0
M  V30 19372 C 1792.32 2.95102 -4.06473 0
M  V30 19373 C 1794.32 2.36406 -5.91938 0
M  V30 19374 C 1792.01 2.83259 -5.41486 0
M  V30 19375 C 1793 2.53952 -6.34032 0
M  V30 19376 O 1792.69 2.42148 -7.66564 0
M  V30 19377 H 1792.42 0.487266 -0.468559 0
M  V30 19378 H 1794.98 0.955716 -1.81811 0
M  V30 19379 H 1793.21 3.50388 -1.636 0
M  V30 19380 H 1794.9 3.50043 -2.05486 0
M  V30 19381 H 1795.66 2.33784 -4.24936 0
M  V30 19382 H 1791.54 3.16913 -3.34794 0
M  V30 19383 H 1795.09 2.13452 -6.64142 0
M  V30 19384 H 1790.98 2.96914 -5.7316 0
M  V30 19385 H 1791.75 2.57448 -7.76957 0
M  V30 19386 N 1794.41 1.22455 0.992094 0
M  V30 19387 C 1795.69 0.958091 1.70529 0
M  V30 19388 C 1796.07 -0.526595 2.04426 0
M  V30 19389 O 1795.42 -1.49483 1.72821 0
M  V30 19390 C 1795.63 1.85646 2.95528 0
M  V30 19391 C 1796.98 2.11301 3.68289 0
M  V30 19392 O 1798 1.831 3.05537 0
M  V30 19393 O 1796.86 2.59068 4.81192 0
M  V30 19394 H 1793.95 0.360375 0.744351 0
M  V30 19395 H 1796.5 1.33444 1.04837 0
M  V30 19396 H 1795.27 2.86067 2.66986 0
M  V30 19397 H 1794.89 1.48174 3.68958 0
M  V30 19398 N 1795.89 -1.18905 1.03437 0
M  V30 19399 C 1796.84 -2.22318 0.619933 0
M  V30 19400 C 1797.81 -1.61948 -0.369056 0
M  V30 19401 O 1798.99 -1.88958 -0.26447 0
M  V30 19402 C 1796.13 -3.45096 -0.0174579 0
M  V30 19403 C 1795.25 -4.19829 1.01823 0
M  V30 19404 C 1794.38 -5.30046 0.350026 0
M  V30 19405 C 1793.42 -5.96543 1.37125 0
M  V30 19406 N 1792.56 -6.98311 0.728458 0
M  V30 19407 H 1797.4 -2.57125 1.50634 0
M  V30 19408 H 1794.93 -1.26324 0.753695 0
M  V30 19409 H 1796.89 -4.15236 -0.404294 0
M  V30 19410 H 1795.52 -3.10927 -0.867412 0
M  V30 19411 H 1794.57 -3.48578 1.52308 0
M  V30 19412 H 1795.89 -4.65415 1.79416 0
M  V30 19413 H 1795.04 -6.06631 -0.0913585 0
M  V30 19414 H 1793.78 -4.85544 -0.458049 0
M  V30 19415 H 1792.78 -5.18703 1.82284 0
M  V30 19416 H 1794.01 -6.43127 2.18091 0
M  V30 19417 H 1791.96 -6.55973 -0.0594251 0
M  V30 19418 H 1791.87 -7.42117 1.44218 0
M  V30 19419 H 1793.14 -7.78878 0.311259 0
M  V30 19420 N 1797.37 -0.812977 -1.35013 0
M  V30 19421 C 1798.62 -0.395562 -1.98191 0
M  V30 19422 C 1798.94 1.04242 -1.64799 0
M  V30 19423 O 1798.21 1.72219 -0.933678 0
M  V30 19424 H 1796.79 -0.143276 -0.733131 0
M  V30 19425 H 1799.45 -1.04023 -1.64819 0
M  V30 19426 H 1798.55 -0.506466 -3.07963 0
M  V30 19427 N 1798.85 1.47045 -0.567045 0
M  V30 19428 C 1800.12 1.9559 0.0194544 0
M  V30 19429 C 1800.5 1.5097 1.47551 0
M  V30 19430 O 1799.85 0.753072 2.15734 0
M  V30 19431 C 1800.06 3.48734 -0.136263 0
M  V30 19432 C 1801.41 4.246 0.00401745 0
M  V30 19433 O 1802.43 3.56142 -0.0643042 0
M  V30 19434 O 1801.29 5.46287 0.152706 0
M  V30 19435 H 1798.39 0.82492 0.0586233 0
M  V30 19436 H 1800.93 1.57401 -0.634262 0
M  V30 19437 H 1799.71 3.74048 -1.14909 0
M  V30 19438 H 1799.33 3.93713 0.554612 0
M  V30 19439 N 1800.33 0.304 1.5464 0
M  V30 19440 C 1801.29 -0.557917 2.22306 0
M  V30 19441 C 1802.29 -1.05895 1.21008 0
M  V30 19442 O 1803.48 -0.954497 1.45722 0
M  V30 19443 C 1800.61 -1.77279 2.91178 0
M  V30 19444 H 1801.8 0.0333187 2.99881 0
M  V30 19445 H 1799.36 0.0548659 1.56204 0
M  V30 19446 H 1800.09 -2.40378 2.17689 0
M  V30 19447 H 1799.88 -1.42115 3.65439 0
M  V30 19448 H 1801.37 -2.38507 3.42789 0
M  V30 19449 N 1801.8 -1.57568 0.0317802 0
M  V30 19450 C 1802.75 -2.10379 -0.949183 0
M  V30 19451 C 1803.72 -1.00649 -1.32133 0
M  V30 19452 O 1804.91 -1.28084 -1.41418 0
M  V30 19453 C 1802.05 -2.63762 -2.22539 0
M  V30 19454 C 1801.16 -3.87509 -1.90946 0
M  V30 19455 C 1800.29 -4.29276 -3.12882 0
M  V30 19456 C 1799.33 -5.45775 -2.77121 0
M  V30 19457 N 1798.47 -5.82686 -3.9169 0
M  V30 19458 H 1803.31 -2.93912 -0.491922 0
M  V30 19459 H 1800.85 -1.45272 -0.23121 0
M  V30 19460 H 1802.8 -2.92803 -2.9719 0
M  V30 19461 H 1801.43 -1.83055 -2.65877 0
M  V30 19462 H 1800.49 -3.6518 -1.06526 0
M  V30 19463 H 1801.8 -4.72235 -1.6061 0
M  V30 19464 H 1800.95 -4.59768 -3.95851 0
M  V30 19465 H 1799.69 -3.43323 -3.46382 0
M  V30 19466 H 1798.7 -5.14974 -1.92565 0
M  V30 19467 H 1799.92 -6.3343 -2.44834 0
M  V30 19468 H 1797.87 -4.99688 -4.25027 0
M  V30 19469 H 1797.78 -6.62058 -3.64986 0
M  V30 19470 H 1799.05 -6.17785 -4.75355 0
M  V30 19471 N 1803.28 0.241399 -1.5574 0
M  V30 19472 C 1804.22 1.32551 -1.85757 0
M  V30 19473 C 1805.19 1.46127 -0.713133 0
M  V30 19474 O 1806.38 1.62255 -0.959459 0
M  V30 19475 C 1803.5 2.69835 -2.04712 0
M  V30 19476 C 1802.55 2.73379 -3.27363 0
M  V30 19477 S 1803.38 2.29435 -4.83859 0
M  V30 19478 C 1804.54 3.68633 -5.05827 0
M  V30 19479 H 1804.77 1.06892 -2.77419 0
M  V30 19480 H 1802.31 0.44266 -1.47918 0
M  V30 19481 H 1804.26 3.4888 -2.16317 0
M  V30 19482 H 1802.92 2.92728 -1.13882 0
M  V30 19483 H 1802.12 3.74214 -3.37609 0
M  V30 19484 H 1801.72 2.02382 -3.14512 0
M  V30 19485 H 1804.01 4.64173 -4.93507 0
M  V30 19486 H 1804.95 3.63317 -6.07788 0
M  V30 19487 H 1805.36 3.61401 -4.33647 0
M  V30 19488 N 1804.76 1.49212 0.507292 0
M  V30 19489 C 1805.69 1.60013 1.62699 0
M  V30 19490 C 1806.67 0.449472 1.56264 0
M  V30 19491 O 1807.86 0.66417 1.76412 0
M  V30 19492 C 1804.98 1.54923 3.01192 0
M  V30 19493 C 1804.03 2.7511 3.2591 0
M  V30 19494 S 1804.86 4.3685 3.09714 0
M  V30 19495 C 1806.02 4.34395 4.50613 0
M  V30 19496 H 1806.25 2.54733 1.53291 0
M  V30 19497 H 1803.78 1.38025 0.69198 0
M  V30 19498 H 1805.74 1.52673 3.81053 0
M  V30 19499 H 1804.4 0.615015 3.0802 0
M  V30 19500 H 1803.6 2.6775 4.26996 0
M  V30 19501 H 1803.2 2.7474 2.5376 0
M  V30 19502 H 1805.49 4.05727 5.42579 0
M  V30 19503 H 1806.43 5.35738 4.63023 0
M  V30 19504 H 1806.84 3.64556 4.30998 0
M  V30 19505 N 1806.24 -0.757876 1.38181 0
M  V30 19506 C 1807.15 -1.90234 1.37289 0
M  V30 19507 C 1808.16 -1.71883 0.270567 0
M  V30 19508 O 1809.34 -1.94881 0.508279 0
M  V30 19509 C 1806.41 -3.25546 1.19251 0
M  V30 19510 C 1805.47 -3.56452 2.39249 0
M  V30 19511 C 1804.7 -4.85308 2.22063 0
M  V30 19512 O 1804.92 -5.57373 1.2121 0
M  V30 19513 O 1803.86 -5.15594 3.10558 0
M  V30 19514 H 1807.68 -1.9394 2.33711 0
M  V30 19515 H 1805.27 -0.902559 1.19056 0
M  V30 19516 H 1807.15 -4.06454 1.11235 0
M  V30 19517 H 1805.82 -3.22661 0.259109 0
M  V30 19518 H 1804.73 -2.75723 2.52839 0
M  V30 19519 H 1806.06 -3.64094 3.31205 0
M  V30 19520 N 1807.72 -1.22979 -0.985586 0
M  V30 19521 C 1808.97 -1.05286 -1.7204 0
M  V30 19522 C 1809.28 0.411213 -1.91229 0
M  V30 19523 O 1810.48 0.70797 -2.62107 0
M  V30 19524 C 1808.94 -1.8355 -3.09576 0
M  V30 19525 C 1808.55 -3.34254 -2.98293 0
M  V30 19526 C 1810.29 -1.74329 -3.87052 0
M  V30 19527 C 1808.2 -4.0493 -4.31029 0
M  V30 19528 H 1807.13 -0.390364 -0.645083 0
M  V30 19529 H 1809.78 -1.46898 -1.09969 0
M  V30 19530 H 1808.16 -1.34741 -3.72372 0
M  V30 19531 H 1809.34 -3.90511 -2.44618 0
M  V30 19532 H 1807.65 -3.44231 -2.34294 0
M  V30 19533 H 1810.25 -2.24449 -4.85311 0
M  V30 19534 H 1810.59 -0.705078 -4.10286 0
M  V30 19535 H 1811.12 -2.20721 -3.30949 0
M  V30 19536 H 1807.86 -5.09035 -4.12993 0
M  V30 19537 H 1807.38 -3.5346 -4.84588 0
M  V30 19538 H 1809.06 -4.10935 -4.99742 0
M  V30 19539 N 1809.19 1.18355 -1.04066 0
M  V30 19540 C 1810.12 2.24196 -0.652568 0
M  V30 19541 C 1811.11 1.66581 0.344195 0
M  V30 19542 O 1812.29 1.929 0.224296 0
M  V30 19543 C 1809.42 3.47297 -0.0147409 0
M  V30 19544 C 1808.37 4.17661 -0.935044 0
M  V30 19545 C 1807.7 5.34455 -0.161692 0
M  V30 19546 C 1809 4.71153 -2.25415 0
M  V30 19547 H 1810.69 2.56914 -1.53738 0
M  V30 19548 H 1808.24 1.23492 -0.740658 0
M  V30 19549 H 1810.19 4.20544 0.268484 0
M  V30 19550 H 1808.92 3.13812 0.904949 0
M  V30 19551 H 1807.58 3.46312 -1.20265 0
M  V30 19552 H 1807.22 4.97219 0.760404 0
M  V30 19553 H 1806.92 5.82469 -0.774805 0
M  V30 19554 H 1808.45 6.10493 0.114515 0
M  V30 19555 H 1809.86 5.36095 -2.03163 0
M  V30 19556 H 1808.26 5.29701 -2.82022 0
M  V30 19557 H 1809.33 3.88576 -2.90064 0
M  V30 19558 N 1810.67 0.820125 1.3458 0
M  V30 19559 C 1812.09 0.505533 1.51382 0
M  V30 19560 C 1812.29 -0.970812 1.76571 0
M  V30 19561 O 1811.34 -1.75538 1.81501 0
M  V30 19562 C 1812.66 1.36264 2.68054 0
M  V30 19563 C 1814.21 1.35947 2.81935 0
M  V30 19564 C 1814.68 2.201 4.01647 0
M  V30 19565 N 1816.17 2.17708 4.08849 0
M  V30 19566 C 1816.91 2.79571 5.00627 0
M  V30 19567 N 1816.4 3.50413 5.97647 0
M  V30 19568 N 1818.2 2.6914 4.93477 0
M  V30 19569 H 1810.35 1.77607 1.16488 0
M  V30 19570 H 1812.61 0.756693 0.571068 0
M  V30 19571 H 1812.32 2.41093 2.56061 0
M  V30 19572 H 1812.19 1.02537 3.62996 0
M  V30 19573 H 1814.58 0.318971 2.93371 0
M  V30 19574 H 1814.66 1.7367 1.8781 0
M  V30 19575 H 1814.3 3.24198 3.90971 0
M  V30 19576 H 1814.23 1.79729 4.9498 0
M  V30 19577 H 1816.72 1.66175 3.39403 0
M  V30 19578 H 1817.04 3.9487 6.64303 0
M  V30 19579 H 1815.38 3.54519 5.9778 0
M  V30 19580 H 1818.57 2.13372 4.16641 0
M  V30 19581 H 1818.74 3.17639 5.64809 0
M  V30 19582 N 1812.15 -1.46743 0.574835 0
M  V30 19583 C 1813.38 -2.06505 0.0627081 0
M  V30 19584 C 1813.79 -1.42535 -1.2442 0
M  V30 19585 O 1813.13 -0.522043 -1.76126 0
M  V30 19586 C 1813.19 -3.59021 -0.185574 0
M  V30 19587 C 1812.86 -4.45136 1.03455 0
M  V30 19588 C 1813.85 -4.82163 1.94461 0
M  V30 19589 C 1811.54 -4.8639 1.25418 0
M  V30 19590 C 1813.53 -5.59262 3.05786 0
M  V30 19591 C 1811.22 -5.63251 2.37049 0
M  V30 19592 C 1812.22 -5.99599 3.27062 0
M  V30 19593 O 1811.91 -6.74908 4.36755 0
M  V30 19594 H 1811.64 -0.674082 0.0508932 0
M  V30 19595 H 1814.19 -1.89476 0.792968 0
M  V30 19596 H 1812.42 -3.74327 -0.970354 0
M  V30 19597 H 1814.11 -4.00739 -0.645242 0
M  V30 19598 H 1814.88 -4.50876 1.78705 0
M  V30 19599 H 1810.76 -4.57553 0.56266 0
M  V30 19600 H 1814.3 -5.87552 3.7607 0
M  V30 19601 H 1810.2 -5.93951 2.5277 0
M  V30 19602 H 1810.97 -6.93323 4.35024 0
M  V30 19603 N 1813.63 -0.312197 -1.54477 0
M  V30 19604 C 1814.86 0.296061 -2.04771 0
M  V30 19605 C 1815.27 1.46662 -1.18894 0
M  V30 19606 O 1814.63 1.81205 -0.217043 0
M  V30 19607 C 1814.68 0.74151 -3.53813 0
M  V30 19608 O 1814.4 -0.382471 -4.36427 0
M  V30 19609 C 1815.9 1.41376 -4.20152 0
M  V30 19610 H 1813.12 0.062705 -0.668064 0
M  V30 19611 H 1815.67 -0.455083 -1.99372 0
M  V30 19612 H 1813.82 1.44265 -3.59536 0
M  V30 19613 H 1814.23 -0.0336382 -5.24489 0
M  V30 19614 H 1815.71 1.67649 -5.25926 0
M  V30 19615 H 1816.19 2.35743 -3.7057 0
M  V30 19616 H 1816.79 0.755498 -4.18536 0
M  V30 19617 N 1815.11 1.57549 -0.040136 0
M  V30 19618 C 1816.06 2.07384 0.947418 0
M  V30 19619 C 1817.04 0.976645 1.27869 0
M  V30 19620 O 1818.23 1.2401 1.26296 0
M  V30 19621 C 1815.36 2.61343 2.22609 0
M  V30 19622 C 1814.45 3.78012 1.9227 0
M  V30 19623 N 1814.84 4.88206 1.32244 0
M  V30 19624 C 1813.14 3.86708 2.22201 0
M  V30 19625 C 1813.84 5.69338 1.19286 0
M  V30 19626 N 1812.81 5.16595 1.69207 0
M  V30 19627 H 1816.62 2.89979 0.478476 0
M  V30 19628 H 1814.13 1.61564 0.164602 0
M  V30 19629 H 1816.13 2.95343 2.94242 0
M  V30 19630 H 1814.79 1.80182 2.70119 0
M  V30 19631 H 1815.8 5.08232 0.996048 0
M  V30 19632 H 1812.47 3.16472 2.72308 0
M  V30 19633 H 1813.86 6.67947 0.727784 0
M  V30 19634 N 1816.58 -0.233136 1.55866 0
M  V30 19635 C 1817.52 -1.31202 1.87932 0
M  V30 19636 C 1818.53 -1.43619 0.766642 0
M  V30 19637 O 1819.72 -1.44723 1.04487 0
M  V30 19638 C 1816.82 -2.68904 2.06262 0
M  V30 19639 C 1815.99 -2.78581 3.37211 0
M  V30 19640 C 1815.05 -3.97219 3.45114 0
M  V30 19641 O 1814.08 -3.861 4.18229 0
M  V30 19642 N 1815.28 -5.11009 2.7541 0
M  V30 19643 H 1818.04 -1.04025 2.81067 0
M  V30 19644 H 1815.6 -0.423209 1.56271 0
M  V30 19645 H 1817.6 -3.46631 2.08876 0
M  V30 19646 H 1816.17 -2.8873 1.19807 0
M  V30 19647 H 1815.39 -1.87422 3.46795 0
M  V30 19648 H 1816.67 -2.82008 4.23496 0
M  V30 19649 H 1816.07 -5.22936 2.15764 0
M  V30 19650 H 1814.63 -5.8682 2.837 0
M  V30 19651 N 1818.06 -1.49479 -0.499372 0
M  V30 19652 C 1819.31 -1.59048 -1.25339 0
M  V30 19653 C 1819.64 -0.277917 -1.92504 0
M  V30 19654 O 1818.89 0.734282 -1.81402 0
M  V30 19655 C 1819.19 -2.70007 -2.3416 0
M  V30 19656 C 1818.86 -4.11451 -1.84443 0
M  V30 19657 C 1817.52 -4.49942 -1.70603 0
M  V30 19658 C 1819.87 -4.99967 -1.47248 0
M  V30 19659 C 1817.2 -5.74722 -1.17949 0
M  V30 19660 C 1819.55 -6.25266 -0.960465 0
M  V30 19661 C 1818.22 -6.62586 -0.808473 0
M  V30 19662 H 1817.49 -0.581998 -0.458649 0
M  V30 19663 H 1820.13 -1.83315 -0.553867 0
M  V30 19664 H 1818.44 -2.39717 -3.09908 0
M  V30 19665 H 1820.14 -2.74619 -2.92208 0
M  V30 19666 H 1816.73 -3.81069 -1.96174 0
M  V30 19667 H 1820.91 -4.70884 -1.56787 0
M  V30 19668 H 1816.17 -6.02335 -1.04895 0
M  V30 19669 H 1820.34 -6.93232 -0.66348 0
M  V30 19670 H 1817.97 -7.59156 -0.398296 0
M  V30 19671 N 1819.54 0.750537 -1.38581 0
M  V30 19672 C 1820.47 1.87785 -1.38777 0
M  V30 19673 C 1821.45 1.68204 -0.253244 0
M  V30 19674 O 1822.64 1.88752 -0.456779 0
M  V30 19675 C 1819.77 3.2535 -1.21511 0
M  V30 19676 C 1818.72 3.59538 -2.32199 0
M  V30 19677 C 1818.05 4.95873 -2.00036 0
M  V30 19678 C 1819.35 3.64102 -3.74469 0
M  V30 19679 H 1821.04 1.87879 -2.33113 0
M  V30 19680 H 1818.59 0.902504 -1.12209 0
M  V30 19681 H 1820.54 4.03872 -1.20272 0
M  V30 19682 H 1819.26 3.25744 -0.236366 0
M  V30 19683 H 1817.92 2.83336 -2.32629 0
M  V30 19684 H 1817.57 4.9283 -1.00638 0
M  V30 19685 H 1817.27 5.19716 -2.7417 0
M  V30 19686 H 1818.8 5.7677 -2.00421 0
M  V30 19687 H 1820.21 4.32731 -3.76054 0
M  V30 19688 H 1818.61 3.99455 -4.47834 0
M  V30 19689 H 1819.68 2.64259 -4.06565 0
M  V30 19690 N 1821.02 1.235 0.979051 0
M  V30 19691 C 1821.95 0.975198 2.07419 0
M  V30 19692 C 1822.96 -0.0512875 1.62719 0
M  V30 19693 O 1824.15 0.184403 1.77545 0
M  V30 19694 C 1821.25 0.447701 3.3593 0
M  V30 19695 C 1820.43 1.53467 4.09593 0
M  V30 19696 C 1819.49 1.01181 5.16381 0
M  V30 19697 O 1818.51 1.70108 5.43187 0
M  V30 19698 N 1819.71 -0.159667 5.8028 0
M  V30 19699 H 1822.48 1.91806 2.30283 0
M  V30 19700 H 1820.04 1.14377 1.14584 0
M  V30 19701 H 1822.03 0.0829228 4.04615 0
M  V30 19702 H 1820.6 -0.400613 3.10022 0
M  V30 19703 H 1819.82 2.07215 3.35344 0
M  V30 19704 H 1821.11 2.2656 4.55574 0
M  V30 19705 H 1820.51 -0.736193 5.60889 0
M  V30 19706 H 1819.06 -0.465696 6.50134 0
M  V30 19707 N 1822.5 -1.17802 1.04693 0
M  V30 19708 C 1823.44 -2.21648 0.643478 0
M  V30 19709 C 1824.41 -1.6233 -0.351858 0
M  V30 19710 O 1825.6 -1.89228 -0.244414 0
M  V30 19711 C 1822.74 -3.45095 0.019145 0
M  V30 19712 C 1821.85 -4.18725 1.06271 0
M  V30 19713 C 1820.99 -5.29644 0.406224 0
M  V30 19714 C 1820.03 -5.95055 1.43444 0
M  V30 19715 N 1819.16 -6.97499 0.802482 0
M  V30 19716 H 1824 -2.55513 1.53352 0
M  V30 19717 H 1821.54 -1.25518 0.767051 0
M  V30 19718 H 1823.5 -4.15642 -0.36023 0
M  V30 19719 H 1822.13 -3.1183 -0.834386 0
M  V30 19720 H 1821.18 -3.46943 1.55996 0
M  V30 19721 H 1822.49 -4.63486 1.84342 0
M  V30 19722 H 1821.65 -6.06694 -0.027012 0
M  V30 19723 H 1820.39 -4.86003 -0.406525 0
M  V30 19724 H 1819.39 -5.1674 1.87775 0
M  V30 19725 H 1820.62 -6.40778 2.249 0
M  V30 19726 H 1818.56 -6.55999 0.010153 0
M  V30 19727 H 1818.48 -7.40545 1.52081 0
M  V30 19728 H 1819.75 -7.78504 0.393852 0
M  V30 19729 N 1823.98 -0.827251 -1.34143 0
M  V30 19730 C 1825.22 -0.417385 -1.98152 0
M  V30 19731 C 1825.55 1.0206 -1.65572 0
M  V30 19732 O 1824.81 1.72636 -0.921706 0
M  V30 19733 C 1825.1 -0.571534 -3.52801 0
M  V30 19734 C 1824.77 -1.97588 -4.05302 0
M  V30 19735 C 1823.43 -2.36004 -4.19352 0
M  V30 19736 C 1825.78 -2.89371 -4.33491 0
M  V30 19737 C 1823.11 -3.65529 -4.58918 0
M  V30 19738 C 1825.46 -4.18364 -4.74504 0
M  V30 19739 C 1824.13 -4.56751 -4.86759 0
M  V30 19740 H 1823.4 -0.152732 -0.725089 0
M  V30 19741 H 1826.05 -1.05203 -1.60014 0
M  V30 19742 H 1824.35 0.146483 -3.91526 0
M  V30 19743 H 1826.05 -0.234868 -4.00312 0
M  V30 19744 H 1822.64 -1.66748 -3.94833 0
M  V30 19745 H 1826.82 -2.60933 -4.2217 0
M  V30 19746 H 1822.08 -3.95091 -4.66597 0
M  V30 19747 H 1826.25 -4.89568 -4.95274 0
M  V30 19748 H 1823.88 -5.57166 -5.17175 0
M  V30 19749 N 1825.45 1.46436 -0.582609 0
M  V30 19750 C 1826.69 2.04277 -0.0708316 0
M  V30 19751 C 1827.06 1.4443 1.26507 0
M  V30 19752 O 1828.26 1.93472 1.86607 0
M  V30 19753 C 1826.53 3.574 -0.00593413 0
M  V30 19754 S 1828.09 4.36504 0.448283 0
M  V30 19755 H 1824.91 0.710014 -0.0374242 0
M  V30 19756 H 1827.51 1.79479 -0.775084 0
M  V30 19757 H 1826.21 3.98475 -0.982149 0
M  V30 19758 H 1825.74 3.86735 0.721092 0
M  V30 19759 H 1827.76 4.66059 1.70304 0
M  V30 19760 N 1826.93 0.320385 1.54309 0
M  V30 19761 C 1827.89 -0.534308 2.22885 0
M  V30 19762 C 1828.89 -1.04605 1.22124 0
M  V30 19763 O 1830.08 -0.938988 1.46726 0
M  V30 19764 C 1827.22 -1.74181 2.93042 0
M  V30 19765 H 1828.41 0.0651232 2.99829 0
M  V30 19766 H 1825.96 0.0714303 1.56137 0
M  V30 19767 H 1826.7 -2.38056 2.20227 0
M  V30 19768 H 1826.48 -1.38231 3.66926 0
M  V30 19769 H 1827.97 -2.34857 3.45299 0
M  V30 19770 N 1828.41 -1.57525 0.0484906 0
M  V30 19771 C 1829.66 -1.92204 -0.624654 0
M  V30 19772 C 1829.98 -0.927289 -1.71541 0
M  V30 19773 O 1829.25 0.0282687 -1.9588 0
M  V30 19774 H 1827.83 -0.709494 -0.233724 0
M  V30 19775 H 1830.49 -1.94639 0.100861 0
M  V30 19776 H 1829.59 -2.93368 -1.06498 0
M  V30 19777 N 1829.89 0.224867 -1.55988 0
M  V30 19778 C 1830.84 1.29829 -1.92995 0
M  V30 19779 C 1831.83 1.48693 -0.81159 0
M  V30 19780 O 1833.04 1.49906 -0.996397 0
M  V30 19781 H 1829.41 0.435205 -0.61327 0
M  V30 19782 H 1831.38 0.958953 -2.82571 0
M  V30 19783 C 1830.13 2.6422 -2.26016 0
M  V30 19784 H 1829.45 2.50511 -3.11584 0
M  V30 19785 H 1830.89 3.38148 -2.55797 0
M  V30 19786 C 1829.35 3.1898 -1.08413 0
M  V30 19787 O 1829.88 4.00228 -0.343538 0
M  V30 19788 N 1828.09 2.77308 -0.868842 0
M  V30 19789 H 1827.64 2.11344 -1.4728 0
M  V30 19790 H 1827.59 3.14289 -0.0837012 0
M  V30 19791 N 1831.37 1.49742 0.491438 0
M  V30 19792 C 1832.78 1.52802 1.07278 0
M  V30 19793 C 1833.13 0.319712 1.93578 0
M  V30 19794 O 1832.25 -0.569524 2.08771 0
M  V30 19795 C 1832.85 2.76896 1.95228 0
M  V30 19796 C 1831.41 2.82703 2.48508 0
M  V30 19797 C 1830.55 2.4684 1.26355 0
M  V30 19798 H 1833.5 1.56301 0.274925 0
M  V30 19799 H 1833.53 2.57599 2.80041 0
M  V30 19800 H 1833.04 3.64821 1.32391 0
M  V30 19801 H 1831.14 1.99081 3.14956 0
M  V30 19802 H 1831.25 3.85108 2.85006 0
M  V30 19803 H 1829.62 1.98828 1.59184 0
M  V30 19804 H 1830.4 3.3705 0.652109 0
M  V30 19805 N 1832.84 -0.743177 1.38977 0
M  V30 19806 C 1834.09 -1.49959 1.35486 0
M  V30 19807 C 1834.41 -1.94933 -0.0512044 0
M  V30 19808 O 1833.68 -1.684 -1.0009 0
M  V30 19809 H 1832.26 -0.556277 0.498562 0
M  V30 19810 H 1834.93 -0.882776 1.73762 0
M  V30 19811 H 1834.02 -2.38559 2.01237 0
M  V30 19812 N 1834.32 -1.24018 -0.972487 0
M  V30 19813 C 1835.27 -1.02594 -2.08752 0
M  V30 19814 C 1836.26 0.0376128 -1.69358 0
M  V30 19815 O 1837.47 -0.116549 -1.79622 0
M  V30 19816 H 1833.85 -0.314713 -0.682979 0
M  V30 19817 H 1835.82 -1.97163 -2.23985 0
M  V30 19818 C 1834.57 -0.642298 -3.41716 0
M  V30 19819 H 1833.89 -1.45243 -3.72484 0
M  V30 19820 H 1835.33 -0.531964 -4.2065 0
M  V30 19821 C 1833.79 0.650173 -3.30567 0
M  V30 19822 O 1834.32 1.6972 -3.64085 0
M  V30 19823 N 1832.52 0.629085 -2.83709 0
M  V30 19824 H 1832.07 -0.223302 -2.5663 0
M  V30 19825 H 1832.03 1.49407 -2.76631 0
M  V30 19826 N 1835.8 1.17245 -1.05316 0
M  V30 19827 C 1836.73 2.20844 -0.613228 0
M  V30 19828 C 1837.75 1.5955 0.323671 0
M  V30 19829 O 1838.93 1.78121 0.116209 0
M  V30 19830 C 1836.03 3.38679 0.122482 0
M  V30 19831 C 1835.21 4.29541 -0.825429 0
M  V30 19832 C 1834.27 5.26038 -0.130752 0
M  V30 19833 O 1833.29 5.64032 -0.765248 0
M  V30 19834 N 1834.49 5.69369 1.13136 0
M  V30 19835 H 1837.26 2.5921 -1.50434 0
M  V30 19836 H 1834.82 1.32156 -0.935221 0
M  V30 19837 H 1836.81 4.00267 0.597368 0
M  V30 19838 H 1835.38 2.989 0.915278 0
M  V30 19839 H 1834.6 3.65366 -1.47991 0
M  V30 19840 H 1835.89 4.87138 -1.46882 0
M  V30 19841 H 1835.29 5.40576 1.66716 0
M  V30 19842 H 1833.85 6.33095 1.55029 0
M  V30 19843 N 1837.28 0.834353 1.33702 0
M  V30 19844 C 1838.24 0.269618 2.27609 0
M  V30 19845 C 1839.24 -0.559065 1.50768 0
M  V30 19846 O 1840.43 -0.373511 1.70149 0
M  V30 19847 C 1837.56 -0.620682 3.35202 0
M  V30 19848 H 1838.76 1.09819 2.79069 0
M  V30 19849 H 1836.31 0.607087 1.44028 0
M  V30 19850 H 1837.04 -1.47187 2.88975 0
M  V30 19851 H 1836.83 -0.0278102 3.9209 0
M  V30 19852 H 1838.32 -1.00924 4.05221 0
M  V30 19853 N 1838.76 -1.46125 0.590367 0
M  V30 19854 C 1839.69 -2.33159 -0.126114 0
M  V30 19855 C 1840.67 -1.45806 -0.876057 0
M  V30 19856 O 1841.85 -1.7461 -0.850009 0
M  V30 19857 C 1838.98 -3.28217 -1.13537 0
M  V30 19858 C 1837.94 -4.25072 -0.499773 0
M  V30 19859 C 1837.26 -5.09694 -1.61605 0
M  V30 19860 C 1838.56 -5.19202 0.567992 0
M  V30 19861 H 1840.26 -2.93315 0.600577 0
M  V30 19862 H 1837.8 -1.41044 0.290265 0
M  V30 19863 H 1839.76 -3.87965 -1.64503 0
M  V30 19864 H 1838.48 -2.66185 -1.89244 0
M  V30 19865 H 1837.14 -3.66598 -0.0111313 0
M  V30 19866 H 1836.79 -4.44041 -2.36297 0
M  V30 19867 H 1836.49 -5.75292 -1.19637 0
M  V30 19868 H 1838.01 -5.72307 -2.12832 0
M  V30 19869 H 1839.42 -5.73121 0.143102 0
M  V30 19870 H 1837.82 -5.93184 0.908428 0
M  V30 19871 H 1838.89 -4.62671 1.45133 0
M  V30 19872 N 1840.23 -0.328564 -1.54137 0
M  V30 19873 C 1841.16 0.527734 -2.27458 0
M  V30 19874 C 1842.15 1.11518 -1.28444 0
M  V30 19875 O 1843.33 1.13938 -1.57264 0
M  V30 19876 C 1840.46 1.68628 -3.03615 0
M  V30 19877 C 1839.41 1.22789 -4.10008 0
M  V30 19878 C 1838.74 2.47378 -4.74034 0
M  V30 19879 C 1840.04 0.339152 -5.21198 0
M  V30 19880 H 1841.73 -0.0838808 -2.99282 0
M  V30 19881 H 1839.28 -0.0417829 -1.43939 0
M  V30 19882 H 1841.23 2.29165 -3.5364 0
M  V30 19883 H 1839.96 2.32456 -2.29416 0
M  V30 19884 H 1838.62 0.645427 -3.60874 0
M  V30 19885 H 1838.26 3.09581 -3.96445 0
M  V30 19886 H 1837.96 2.17396 -5.45905 0
M  V30 19887 H 1839.49 3.08668 -5.26836 0
M  V30 19888 H 1840.9 0.850947 -5.6695 0
M  V30 19889 H 1839.3 0.131892 -5.99955 0
M  V30 19890 H 1840.37 -0.628692 -4.80807 0
M  V30 19891 N 1841.71 1.57497 -0.0568439 0
M  V30 19892 C 1842.66 2.08377 0.925369 0
M  V30 19893 C 1843.65 0.990152 1.26826 0
M  V30 19894 O 1844.84 1.25342 1.24973 0
M  V30 19895 C 1841.97 2.6369 2.19824 0
M  V30 19896 C 1841.05 3.8003 1.88249 0
M  V30 19897 N 1841.44 4.89581 1.27059 0
M  V30 19898 C 1839.74 3.89043 2.18087 0
M  V30 19899 C 1840.44 5.70571 1.13241 0
M  V30 19900 N 1839.42 5.1836 1.63718 0
M  V30 19901 H 1843.22 2.9047 0.447693 0
M  V30 19902 H 1840.74 1.61729 0.147457 0
M  V30 19903 H 1842.73 2.98447 2.91093 0
M  V30 19904 H 1841.39 1.83037 2.68193 0
M  V30 19905 H 1842.4 5.09259 0.942087 0
M  V30 19906 H 1839.08 3.19342 2.68937 0
M  V30 19907 H 1840.47 6.68681 0.656898 0
M  V30 19908 N 1843.19 -0.216591 1.56105 0
M  V30 19909 C 1844.14 -1.26844 1.92819 0
M  V30 19910 C 1845.11 -1.46326 0.785999 0
M  V30 19911 O 1846.29 -1.59813 1.04232 0
M  V30 19912 C 1843.43 -2.61276 2.25452 0
M  V30 19913 C 1842.55 -2.49552 3.5263 0
M  V30 19914 C 1841.68 -3.76541 3.74686 0
M  V30 19915 C 1840.72 -3.5956 4.95362 0
M  V30 19916 N 1839.86 -4.7851 5.13782 0
M  V30 19917 H 1844.7 -0.948341 2.82508 0
M  V30 19918 H 1842.23 -0.456953 1.39823 0
M  V30 19919 H 1844.19 -3.39567 2.42384 0
M  V30 19920 H 1842.82 -2.91373 1.38931 0
M  V30 19921 H 1841.87 -1.6267 3.43864 0
M  V30 19922 H 1843.19 -2.32927 4.41074 0
M  V30 19923 H 1842.34 -4.63275 3.91741 0
M  V30 19924 H 1841.08 -3.96097 2.84532 0
M  V30 19925 H 1840.08 -2.71211 4.78252 0
M  V30 19926 H 1841.31 -3.41471 5.87005 0
M  V30 19927 H 1839.25 -4.9837 4.26572 0
M  V30 19928 H 1839.17 -4.64631 5.96368 0
M  V30 19929 H 1840.44 -5.66656 5.35277 0
M  V30 19930 N 1844.67 -1.5 -0.48349 0
M  V30 19931 C 1845.62 -1.64347 -1.58032 0
M  V30 19932 C 1846.6 -0.498472 -1.52984 0
M  V30 19933 O 1847.79 -0.752287 -1.60217 0
M  V30 19934 C 1844.92 -1.72952 -2.96551 0
M  V30 19935 C 1844.01 -2.93088 -3.06529 0
M  V30 19936 N 1844.4 -4.16937 -2.86352 0
M  V30 19937 C 1842.7 -2.91389 -3.37652 0
M  V30 19938 C 1843.4 -4.97786 -3.00972 0
M  V30 19939 N 1842.38 -4.31494 -3.30626 0
M  V30 19940 H 1846.18 -2.57807 -1.41112 0
M  V30 19941 H 1843.69 -1.47014 -0.689978 0
M  V30 19942 H 1845.69 -1.81332 -3.75399 0
M  V30 19943 H 1844.35 -0.80642 -3.14527 0
M  V30 19944 H 1845.36 -4.46635 -2.62178 0
M  V30 19945 H 1842.04 -2.08528 -3.61694 0
M  V30 19946 H 1843.43 -6.06229 -2.89716 0
M  V30 19947 N 1846.15 0.735796 -1.39369 0
M  V30 19948 C 1847.08 1.86303 -1.4076 0
M  V30 19949 C 1848.06 1.67926 -0.27107 0
M  V30 19950 O 1849.24 1.88257 -0.476773 0
M  V30 19951 C 1846.37 3.24043 -1.24955 0
M  V30 19952 C 1845.33 3.57055 -2.35999 0
M  V30 19953 C 1844.65 4.93723 -2.05284 0
M  V30 19954 C 1845.95 3.60109 -3.7831 0
M  V30 19955 H 1847.65 1.85396 -2.35093 0
M  V30 19956 H 1845.19 0.890552 -1.1316 0
M  V30 19957 H 1847.15 4.02574 -1.24549 0
M  V30 19958 H 1845.87 3.25475 -0.270902 0
M  V30 19959 H 1844.53 2.80853 -2.35621 0
M  V30 19960 H 1844.18 4.91734 -1.05859 0
M  V30 19961 H 1843.88 5.16779 -2.79667 0
M  V30 19962 H 1845.4 5.74612 -2.06527 0
M  V30 19963 H 1846.81 4.28718 -3.80622 0
M  V30 19964 H 1845.21 3.94683 -4.52046 0
M  V30 19965 H 1846.28 2.59932 -4.09345 0
M  V30 19966 N 1847.63 1.24532 0.965897 0
M  V30 19967 C 1848.58 1.00627 2.04593 0
M  V30 19968 C 1849.56 -0.0529299 1.60813 0
M  V30 19969 O 1850.75 0.16102 1.76266 0
M  V30 19970 C 1847.88 0.614939 3.37748 0
M  V30 19971 C 1846.97 1.71031 3.88084 0
M  V30 19972 N 1847.36 2.94339 4.11337 0
M  V30 19973 C 1845.66 1.58823 4.16763 0
M  V30 19974 C 1846.36 3.65361 4.52644 0
M  V30 19975 N 1845.33 2.92931 4.57922 0
M  V30 19976 H 1849.13 1.94256 2.20549 0
M  V30 19977 H 1846.65 1.14685 1.14983 0
M  V30 19978 H 1848.65 0.424907 4.14729 0
M  V30 19979 H 1847.31 -0.314149 3.23177 0
M  V30 19980 H 1848.32 3.305 3.98736 0
M  V30 19981 H 1844.99 0.727304 4.11116 0
M  V30 19982 H 1846.38 4.71145 4.79032 0
M  V30 19983 N 1849.1 -1.16685 1.05936 0
M  V30 19984 C 1850.03 -2.23129 0.688153 0
M  V30 19985 C 1851.01 -1.67108 -0.31765 0
M  V30 19986 O 1852.2 -1.93233 -0.193578 0
M  V30 19987 C 1849.33 -3.47229 0.069991 0
M  V30 19988 C 1848.28 -4.16121 1.00137 0
M  V30 19989 C 1847.61 -5.34131 0.246699 0
M  V30 19990 C 1848.91 -4.67508 2.32882 0
M  V30 19991 H 1850.6 -2.54436 1.57806 0
M  V30 19992 H 1848.15 -1.22298 0.76021 0
M  V30 19993 H 1850.1 -4.20918 -0.201545 0
M  V30 19994 H 1848.83 -3.15212 -0.854909 0
M  V30 19995 H 1847.49 -3.44355 1.25759 0
M  V30 19996 H 1847.13 -4.98366 -0.681204 0
M  V30 19997 H 1846.83 -5.81163 0.867373 0
M  V30 19998 H 1848.36 -6.10598 -0.0173762 0
M  V30 19999 H 1849.77 -5.32795 2.11666 0
M  V30 20000 H 1848.17 -5.25147 2.90414 0
M  V30 20001 H 1849.24 -3.83912 2.96209 0
M  V30 20002 N 1850.58 -0.841432 -1.33258 0
M  V30 20003 C 1851.83 -0.438378 -1.97698 0
M  V30 20004 C 1852.16 1.00298 -1.66645 0
M  V30 20005 O 1851.41 1.71648 -0.939965 0
M  V30 20006 C 1851.71 -0.608921 -3.52175 0
M  V30 20007 C 1851.38 -2.01876 -4.03184 0
M  V30 20008 C 1850.04 -2.40438 -4.16825 0
M  V30 20009 C 1852.39 -2.93952 -4.30397 0
M  V30 20010 C 1849.72 -3.70376 -4.55015 0
M  V30 20011 C 1852.07 -4.23373 -4.7004 0
M  V30 20012 C 1850.73 -4.61888 -4.81888 0
M  V30 20013 H 1850 -0.160414 -0.723428 0
M  V30 20014 H 1852.65 -1.06895 -1.58889 0
M  V30 20015 H 1850.96 0.104948 -3.91659 0
M  V30 20016 H 1852.65 -0.277313 -4.0004 0
M  V30 20017 H 1849.24 -1.70927 -3.93042 0
M  V30 20018 H 1853.43 -2.65396 -4.19379 0
M  V30 20019 H 1848.68 -4.00018 -4.62381 0
M  V30 20020 H 1852.86 -4.94793 -4.90054 0
M  V30 20021 H 1850.48 -5.6262 -5.11237 0
M  V30 20022 N 1852.06 1.4581 -0.598108 0
M  V30 20023 C 1852.99 2.33223 0.113747 0
M  V30 20024 C 1853.97 1.46268 0.868312 0
M  V30 20025 O 1855.16 1.75058 0.840737 0
M  V30 20026 C 1852.29 3.28815 1.11795 0
M  V30 20027 C 1851.24 4.25331 0.477223 0
M  V30 20028 C 1850.57 5.10544 1.589 0
M  V30 20029 C 1851.87 5.18894 -0.595518 0
M  V30 20030 H 1853.56 2.92992 -0.616123 0
M  V30 20031 H 1851.11 1.40888 -0.297741 0
M  V30 20032 H 1853.06 3.88832 1.62443 0
M  V30 20033 H 1851.78 2.67185 1.87829 0
M  V30 20034 H 1850.44 3.66599 -0.00831044 0
M  V30 20035 H 1850.09 4.45288 2.33939 0
M  V30 20036 H 1849.79 5.75918 1.16584 0
M  V30 20037 H 1851.31 5.73427 2.09794 0
M  V30 20038 H 1852.73 5.73037 -0.173494 0
M  V30 20039 H 1851.12 5.92694 -0.939873 0
M  V30 20040 H 1852.19 4.61895 -1.47584 0
M  V30 20041 N 1853.54 0.336733 1.53961 0
M  V30 20042 C 1854.77 -0.263446 2.05216 0
M  V30 20043 C 1855.18 -1.44752 1.21212 0
M  V30 20044 O 1854.54 -1.80837 0.245844 0
M  V30 20045 C 1854.59 -0.685127 3.54948 0
M  V30 20046 O 1854.31 0.451854 4.35764 0
M  V30 20047 C 1855.81 -1.34674 4.22348 0
M  V30 20048 H 1853.03 -0.0520687 0.668977 0
M  V30 20049 H 1855.57 0.486744 1.98623 0
M  V30 20050 H 1853.73 -1.38527 3.61786 0
M  V30 20051 H 1854.14 0.117076 5.24369 0
M  V30 20052 H 1855.62 -1.59261 5.28526 0
M  V30 20053 H 1856.09 -2.29818 3.74273 0
M  V30 20054 H 1856.7 -0.688817 4.19685 0
M  V30 20055 N 1855.02 -1.57465 0.0651956 0
M  V30 20056 C 1856.43 -1.80728 -0.468449 0
M  V30 20057 C 1856.78 -0.978581 -1.70054 0
M  V30 20058 O 1855.9 -0.199186 -2.15481 0
M  V30 20059 C 1856.5 -3.27791 -0.856641 0
M  V30 20060 C 1855.06 -3.51923 -1.33519 0
M  V30 20061 C 1854.2 -2.7548 -0.317147 0
M  V30 20062 H 1857.15 -1.5601 0.290955 0
M  V30 20063 H 1857.18 -3.39479 -1.71855 0
M  V30 20064 H 1856.69 -3.88079 0.0402823 0
M  V30 20065 H 1854.79 -2.96932 -2.25083 0
M  V30 20066 H 1854.9 -4.60624 -1.31767 0
M  V30 20067 H 1853.27 -2.4204 -0.793026 0
M  V30 20068 H 1854.05 -3.38502 0.571935 0
M  V30 20069 N 1856.49 0.20831 -1.56217 0
M  V30 20070 C 1857.74 0.928886 -1.79488 0
M  V30 20071 C 1858.06 1.84337 -0.636 0
M  V30 20072 O 1857.33 1.92813 0.346416 0
M  V30 20073 H 1855.91 0.345985 -0.662045 0
M  V30 20074 H 1858.57 0.216988 -1.93688 0
M  V30 20075 H 1857.67 1.52786 -2.72145 0
M  V30 20076 N 1857.97 1.50255 0.475528 0
M  V30 20077 C 1858.9 1.71721 1.58222 0
M  V30 20078 C 1859.88 0.56612 1.60403 0
M  V30 20079 O 1861.07 0.804774 1.7674 0
M  V30 20080 C 1858.2 1.80726 2.96573 0
M  V30 20081 C 1857.15 2.95877 3.09258 0
M  V30 20082 C 1856.48 2.9002 4.49213 0
M  V30 20083 C 1857.78 4.36452 2.86891 0
M  V30 20084 H 1859.47 2.6438 1.40511 0
M  V30 20085 H 1857.02 1.27224 0.674533 0
M  V30 20086 H 1858.97 1.94328 3.73918 0
M  V30 20087 H 1857.69 0.846846 3.1543 0
M  V30 20088 H 1856.35 2.81918 2.34345 0
M  V30 20089 H 1856 1.91834 4.64982 0
M  V30 20090 H 1855.7 3.67322 4.58637 0
M  V30 20091 H 1857.23 3.05665 5.28584 0
M  V30 20092 H 1858.64 4.5096 3.53989 0
M  V30 20093 H 1857.04 5.15171 3.07765 0
M  V30 20094 H 1858.11 4.49129 1.82786 0
M  V30 20095 N 1859.45 -0.728395 1.39758 0
M  V30 20096 C 1860.38 -1.85554 1.41747 0
M  V30 20097 C 1861.36 -1.6778 0.279972 0
M  V30 20098 O 1862.55 -1.88001 0.48675 0
M  V30 20099 C 1859.68 -3.23375 1.26671 0
M  V30 20100 C 1858.63 -3.55799 2.37889 0
M  V30 20101 C 1857.96 -4.92628 2.07899 0
M  V30 20102 C 1859.26 -3.58098 3.80215 0
M  V30 20103 H 1860.95 -1.84146 2.36073 0
M  V30 20104 H 1858.5 -0.884539 1.13631 0
M  V30 20105 H 1860.45 -4.01907 1.26682 0
M  V30 20106 H 1859.17 -3.25326 0.288159 0
M  V30 20107 H 1857.83 -2.796 2.37107 0
M  V30 20108 H 1857.48 -4.91166 1.08466 0
M  V30 20109 H 1857.18 -5.15288 2.82404 0
M  V30 20110 H 1858.7 -5.73509 2.09571 0
M  V30 20111 H 1860.12 -4.26694 3.82891 0
M  V30 20112 H 1858.51 -3.9228 4.54133 0
M  V30 20113 H 1859.58 -2.57758 4.10718 0
M  V30 20114 N 1860.93 -1.25042 -0.959279 0
M  V30 20115 C 1861.84 -1.06749 -2.08906 0
M  V30 20116 C 1862.85 -0.00591805 -1.73999 0
M  V30 20117 O 1864.03 -0.205876 -2.00345 0
M  V30 20118 C 1861.09 -0.683353 -3.39899 0
M  V30 20119 C 1860.16 -1.82235 -3.88702 0
M  V30 20120 C 1859.39 -1.45644 -5.13443 0
M  V30 20121 O 1859.61 -0.350012 -5.69325 0
M  V30 20122 O 1858.55 -2.28502 -5.5684 0
M  V30 20123 H 1862.37 -2.01485 -2.27238 0
M  V30 20124 H 1859.96 -1.03938 -1.07318 0
M  V30 20125 H 1861.84 -0.481036 -4.18645 0
M  V30 20126 H 1860.51 0.234796 -3.22847 0
M  V30 20127 H 1859.42 -2.07948 -3.10979 0
M  V30 20128 H 1860.75 -2.71957 -4.10244 0
M  V30 20129 N 1862.41 1.16121 -1.06553 0
M  V30 20130 C 1863.37 2.18796 -0.682711 0
M  V30 20131 C 1864.37 1.58467 0.272905 0
M  V30 20132 O 1865.56 1.74113 0.0549379 0
M  V30 20133 C 1862.69 3.409 -0.00496866 0
M  V30 20134 H 1863.88 2.54178 -1.59165 0
M  V30 20135 H 1861.44 1.30442 -0.861077 0
M  V30 20136 H 1862.17 3.11077 0.916593 0
M  V30 20137 H 1861.96 3.85942 -0.692165 0
M  V30 20138 H 1863.45 4.1686 0.248503 0
M  V30 20139 N 1863.88 0.848487 1.3281 0
M  V30 20140 C 1864.79 0.291355 2.32784 0
M  V30 20141 C 1865.81 -0.587621 1.63777 0
M  V30 20142 O 1866.99 -0.489458 1.95362 0
M  V30 20143 C 1864.05 -0.51634 3.42834 0
M  V30 20144 C 1863.11 0.388046 4.27543 0
M  V30 20145 C 1862.35 -0.381197 5.32337 0
M  V30 20146 O 1862.57 -1.61186 5.47152 0
M  V30 20147 O 1861.5 0.2498 6.01381 0
M  V30 20148 H 1865.33 1.11947 2.82315 0
M  V30 20149 H 1862.91 0.611259 1.36323 0
M  V30 20150 H 1864.8 -0.974995 4.09966 0
M  V30 20151 H 1863.47 -1.32136 2.95503 0
M  V30 20152 H 1862.38 0.894745 3.63243 0
M  V30 20153 H 1863.71 1.15808 4.78382 0
M  V30 20154 N 1865.36 -1.4549 0.605832 0
M  V30 20155 C 1866.59 -2.06625 0.106651 0
M  V30 20156 C 1867.01 -1.45077 -1.20822 0
M  V30 20157 O 1866.36 -0.564316 -1.73556 0
M  V30 20158 C 1866.41 -3.61476 -0.0413179 0
M  V30 20159 O 1866.13 -4.20726 1.22153 0
M  V30 20160 C 1867.64 -4.39592 -0.572162 0
M  V30 20161 H 1864.86 -0.667542 0.0680365 0
M  V30 20162 H 1867.4 -1.86763 0.833067 0
M  V30 20163 H 1865.55 -3.80687 -0.718053 0
M  V30 20164 H 1865.97 -5.13881 1.05009 0
M  V30 20165 H 1867.44 -5.48453 -0.624791 0
M  V30 20166 H 1867.92 -4.09251 -1.59407 0
M  V30 20167 H 1868.53 -4.25242 0.0704697 0
M  V30 20168 N 1866.84 -0.344893 -1.5378 0
M  V30 20169 C 1867.77 0.55434 -2.21365 0
M  V30 20170 C 1868.75 1.09924 -1.19814 0
M  V30 20171 O 1869.94 1.15926 -1.48639 0
M  V30 20172 C 1867.06 1.76275 -2.89214 0
M  V30 20173 C 1866.11 1.34719 -4.04664 0
M  V30 20174 S 1866.94 0.365855 -5.34249 0
M  V30 20175 C 1868.1 1.58107 -6.05601 0
M  V30 20176 H 1868.33 -0.0197004 -2.97293 0
M  V30 20177 H 1865.86 -0.128969 -1.5386 0
M  V30 20178 H 1867.82 2.45601 -3.28923 0
M  V30 20179 H 1866.48 2.30801 -2.13049 0
M  V30 20180 H 1865.68 2.24821 -4.51078 0
M  V30 20181 H 1865.28 0.733393 -3.66739 0
M  V30 20182 H 1867.57 2.51534 -6.29076 0
M  V30 20183 H 1868.51 1.15869 -6.98556 0
M  V30 20184 H 1868.92 1.77773 -5.35777 0
M  V30 20185 N 1868.32 1.57428 -0.0735454 0
M  V30 20186 C 1869.25 2.09808 0.922679 0
M  V30 20187 C 1870.26 1.0306 1.26026 0
M  V30 20188 O 1871.45 1.30568 1.21714 0
M  V30 20189 C 1868.55 2.54492 2.23801 0
M  V30 20190 C 1867.73 3.84832 2.07901 0
M  V30 20191 C 1866.78 4.15592 3.22754 0
M  V30 20192 O 1865.81 4.85163 2.97667 0
M  V30 20193 N 1867.01 3.69277 4.47901 0
M  V30 20194 H 1869.78 2.95905 0.475456 0
M  V30 20195 H 1867.34 1.61511 0.112135 0
M  V30 20196 H 1869.33 2.7213 2.99545 0
M  V30 20197 H 1867.9 1.73523 2.60016 0
M  V30 20198 H 1867.12 3.76557 1.16614 0
M  V30 20199 H 1868.41 4.70144 1.9453 0
M  V30 20200 H 1867.81 3.13076 4.71168 0
M  V30 20201 H 1866.36 3.92111 5.20665 0
M  V30 20202 N 1869.8 -0.200022 1.56326 0
M  V30 20203 C 1870.75 -1.2519 1.90556 0
M  V30 20204 C 1871.73 -1.41239 0.77074 0
M  V30 20205 O 1872.92 -1.43692 1.03352 0
M  V30 20206 C 1870.05 -2.59777 2.24434 0
M  V30 20207 C 1869.14 -2.47541 3.4436 0
M  V30 20208 N 1869.53 -2.04979 4.62404 0
M  V30 20209 C 1867.83 -2.78447 3.48401 0
M  V30 20210 C 1868.53 -2.04515 5.44562 0
M  V30 20211 N 1867.5 -2.45831 4.84838 0
M  V30 20212 H 1871.31 -0.914073 2.79324 0
M  V30 20213 H 1868.82 -0.408485 1.57179 0
M  V30 20214 H 1870.82 -3.35749 2.4714 0
M  V30 20215 H 1869.48 -2.94387 1.3699 0
M  V30 20216 H 1870.49 -1.75766 4.87162 0
M  V30 20217 H 1867.16 -3.17286 2.71359 0
M  V30 20218 H 1868.55 -1.73551 6.49099 0
M  V30 20219 N 1871.27 -1.50505 -0.467553 0
M  V30 20220 C 1872.52 -1.60911 -1.21617 0
M  V30 20221 C 1872.84 -0.31663 -1.9302 0
M  V30 20222 O 1874.04 -0.299645 -2.69841 0
M  V30 20223 C 1872.5 -2.84052 -2.21003 0
M  V30 20224 C 1872.11 -4.20189 -1.55386 0
M  V30 20225 C 1873.85 -3.03805 -2.96484 0
M  V30 20226 C 1871.76 -5.34514 -2.5308 0
M  V30 20227 H 1870.69 -0.59924 -0.457633 0
M  V30 20228 H 1873.34 -1.7694 -0.486276 0
M  V30 20229 H 1871.72 -2.6159 -2.97299 0
M  V30 20230 H 1872.89 -4.5292 -0.848552 0
M  V30 20231 H 1871.21 -4.0607 -0.921725 0
M  V30 20232 H 1873.81 -3.86387 -3.69606 0
M  V30 20233 H 1874.15 -2.15672 -3.56078 0
M  V30 20234 H 1874.68 -3.26465 -2.27301 0
M  V30 20235 H 1871.42 -6.24811 -1.9822 0
M  V30 20236 H 1870.94 -5.06197 -3.21752 0
M  V30 20237 H 1872.62 -5.65232 -3.14836 0
M  V30 20238 N 1872.75 0.720973 -1.40142 0
M  V30 20239 C 1874 1.48078 -1.38128 0
M  V30 20240 C 1874.33 1.94491 0.0181891 0
M  V30 20241 O 1873.58 1.68119 1.00172 0
M  V30 20242 C 1873.88 2.72513 -2.31239 0
M  V30 20243 C 1873.55 2.44893 -3.78601 0
M  V30 20244 C 1872.21 2.3707 -4.1875 0
M  V30 20245 C 1874.56 2.21598 -4.71745 0
M  V30 20246 C 1871.89 2.04013 -5.50087 0
M  V30 20247 C 1874.24 1.90055 -6.03375 0
M  V30 20248 C 1872.91 1.8071 -6.42573 0
M  V30 20249 H 1872.18 0.541854 -0.505446 0
M  V30 20250 H 1874.82 0.826311 -1.72755 0
M  V30 20251 H 1873.13 3.4277 -1.89778 0
M  V30 20252 H 1874.82 3.30586 -2.26967 0
M  V30 20253 H 1871.41 2.51866 -3.46788 0
M  V30 20254 H 1875.6 2.26601 -4.41549 0
M  V30 20255 H 1870.85 1.95311 -5.79365 0
M  V30 20256 H 1875.03 1.71042 -6.75069 0
M  V30 20257 H 1872.66 1.54862 -7.44259 0
M  V30 20258 N 1874.23 1.25549 0.952634 0
M  V30 20259 C 1875.16 1.08592 2.06712 0
M  V30 20260 C 1876.14 -0.00560571 1.70099 0
M  V30 20261 O 1877.33 0.164299 1.93504 0
M  V30 20262 C 1874.46 0.705984 3.40049 0
M  V30 20263 C 1873.41 1.74797 3.90679 0
M  V30 20264 C 1872.74 1.22266 5.20533 0
M  V30 20265 C 1874.04 3.14717 4.16834 0
M  V30 20266 H 1875.73 2.01816 2.21157 0
M  V30 20267 H 1873.28 0.971723 1.06271 0
M  V30 20268 H 1875.23 0.57428 4.17469 0
M  V30 20269 H 1873.95 -0.261964 3.25548 0
M  V30 20270 H 1872.61 1.86815 3.1543 0
M  V30 20271 H 1872.26 0.244887 5.02404 0
M  V30 20272 H 1871.96 1.9191 5.55377 0
M  V30 20273 H 1873.48 1.10339 6.00548 0
M  V30 20274 H 1874.9 3.05842 4.84906 0
M  V30 20275 H 1873.3 3.81849 4.62938 0
M  V30 20276 H 1874.37 3.61629 3.23037 0
M  V30 20277 N 1875.71 -1.15554 1.07168 0
M  V30 20278 C 1876.66 -2.22296 0.684626 0
M  V30 20279 C 1877.65 -1.66656 -0.303675 0
M  V30 20280 O 1878.86 -1.79218 -0.167588 0
M  V30 20281 H 1875.23 -0.723996 0.203306 0
M  V30 20282 H 1877.2 -2.52223 1.59456 0
M  V30 20283 C 1875.95 -3.47566 0.0965118 0
M  V30 20284 H 1875.27 -3.90701 0.848122 0
M  V30 20285 H 1876.71 -4.2378 -0.136671 0
M  V30 20286 C 1875.17 -3.16215 -1.16231 0
M  V30 20287 O 1875.7 -3.32838 -2.24903 0
M  V30 20288 N 1873.91 -2.70273 -1.06774 0
M  V30 20289 H 1873.46 -2.56947 -0.183357 0
M  V30 20290 H 1873.41 -2.49671 -1.9108 0
M  V30 20291 N 1877.19 -0.855519 -1.32358 0
M  V30 20292 C 1878.14 -0.289571 -2.3079 0
M  V30 20293 C 1879.13 0.58752 -1.58885 0
M  V30 20294 O 1880.34 0.475228 -1.73613 0
M  V30 20295 H 1876.71 -0.0749379 -0.748257 0
M  V30 20296 H 1878.68 -1.13398 -2.76014 0
M  V30 20297 C 1877.43 0.50647 -3.43992 0
M  V30 20298 H 1876.75 -0.159147 -3.99483 0
M  V30 20299 H 1878.19 0.868035 -4.15019 0
M  V30 20300 C 1876.65 1.69203 -2.91328 0
M  V30 20301 O 1877.18 2.79113 -2.88892 0
M  V30 20302 N 1875.39 1.51938 -2.47716 0
M  V30 20303 H 1874.94 0.625282 -2.49896 0
M  V30 20304 H 1874.89 2.31407 -2.12834 0
M  V30 20305 N 1878.67 1.45167 -0.61354 0
M  V30 20306 C 1879.9 2.06266 -0.117437 0
M  V30 20307 C 1880.3 1.45784 1.20597 0
M  V30 20308 O 1879.65 0.568556 1.7468 0
M  V30 20309 C 1879.71 3.59387 0.0903205 0
M  V30 20310 C 1879.37 4.42237 -1.1522 0
M  V30 20311 C 1880.37 4.76837 -2.07177 0
M  V30 20312 C 1878.05 4.82894 -1.3827 0
M  V30 20313 C 1880.05 5.50958 -3.20506 0
M  V30 20314 C 1877.74 5.56768 -2.51899 0
M  V30 20315 C 1878.73 5.90717 -3.42845 0
M  V30 20316 O 1878.42 6.63091 -4.54495 0
M  V30 20317 H 1878.15 0.672495 -0.0687474 0
M  V30 20318 H 1880.71 1.87307 -0.842926 0
M  V30 20319 H 1878.94 3.76769 0.870766 0
M  V30 20320 H 1880.63 4.02308 0.538766 0
M  V30 20321 H 1881.39 4.4598 -1.90597 0
M  V30 20322 H 1877.27 4.55901 -0.683774 0
M  V30 20323 H 1880.82 5.77375 -3.91515 0
M  V30 20324 H 1876.71 5.8704 -2.68429 0
M  V30 20325 H 1877.48 6.81545 -4.53253 0
M  V30 20326 N 1880.14 0.353044 1.53595 0
M  V30 20327 C 1881.08 -0.533833 2.22897 0
M  V30 20328 C 1882.09 -1.05633 1.23877 0
M  V30 20329 O 1883.28 -0.964851 1.50176 0
M  V30 20330 C 1880.38 -1.74842 2.90316 0
M  V30 20331 C 1879.55 -1.35959 4.15733 0
M  V30 20332 C 1878.61 -2.43488 4.66476 0
M  V30 20333 O 1877.64 -2.06399 5.3046 0
M  V30 20334 N 1878.84 -3.74887 4.43216 0
M  V30 20335 H 1881.6 0.0597255 2.9964 0
M  V30 20336 H 1879.16 0.177618 1.60923 0
M  V30 20337 H 1881.16 -2.46228 3.21176 0
M  V30 20338 H 1879.73 -2.24913 2.17101 0
M  V30 20339 H 1878.95 -0.476094 3.91314 0
M  V30 20340 H 1880.23 -1.07592 4.97294 0
M  V30 20341 H 1879.63 -4.07801 3.92064 0
M  V30 20342 H 1878.19 -4.42415 4.78657 0
M  V30 20343 N 1881.62 -1.57387 0.0818932 0
M  V30 20344 C 1882.55 -2.16318 -0.879124 0
M  V30 20345 C 1883.53 -1.09293 -1.30342 0
M  V30 20346 O 1884.72 -1.37373 -1.37267 0
M  V30 20347 C 1881.85 -2.73293 -2.14308 0
M  V30 20348 C 1880.8 -3.85575 -1.85785 0
M  V30 20349 C 1880.13 -4.29195 -3.18897 0
M  V30 20350 C 1881.43 -5.09365 -1.15517 0
M  V30 20351 H 1883.12 -2.96873 -0.388166 0
M  V30 20352 H 1880.67 -1.42803 -0.185265 0
M  V30 20353 H 1882.62 -3.13168 -2.81964 0
M  V30 20354 H 1881.34 -1.89974 -2.65664 0
M  V30 20355 H 1880 -3.46219 -1.20532 0
M  V30 20356 H 1879.65 -3.42784 -3.68114 0
M  V30 20357 H 1879.35 -5.04889 -3.006 0
M  V30 20358 H 1880.88 -4.71694 -3.87734 0
M  V30 20359 H 1882.29 -5.46493 -1.73259 0
M  V30 20360 H 1880.69 -5.90403 -1.07444 0
M  V30 20361 H 1881.76 -4.8471 -0.135822 0
M  V30 20362 N 1883.1 0.191729 -1.56429 0
M  V30 20363 C 1884.34 0.918325 -1.82609 0
M  V30 20364 C 1884.7 1.80304 -0.659876 0
M  V30 20365 O 1885.9 2.56568 -0.801645 0
M  V30 20366 C 1884.18 1.7102 -3.13826 0
M  V30 20367 S 1885.73 2.48835 -3.61423 0
M  V30 20368 H 1882.55 0.307952 -0.640848 0
M  V30 20369 H 1885.15 0.18147 -1.94656 0
M  V30 20370 H 1883.86 1.05092 -3.96716 0
M  V30 20371 H 1883.39 2.48881 -3.04667 0
M  V30 20372 H 1885.4 3.73099 -3.27127 0
M  V30 20373 N 1884.58 1.50751 0.459565 0
M  V30 20374 C 1885.8 1.66367 1.23842 0
M  V30 20375 C 1886.23 0.351355 1.84789 0
M  V30 20376 O 1885.59 -0.686103 1.67816 0
M  V30 20377 C 1885.63 2.76521 2.31449 0
M  V30 20378 O 1884.74 2.38576 3.36386 0
M  V30 20379 H 1884.08 0.555447 0.363833 0
M  V30 20380 H 1886.61 1.97193 0.545538 0
M  V30 20381 H 1886.62 2.99943 2.76583 0
M  V30 20382 H 1885.29 3.71759 1.86462 0
M  V30 20383 H 1883.87 2.25643 2.96883 0
M  V30 20384 N 1886.06 -0.713531 1.40522 0
M  V30 20385 C 1886.97 -1.8577 1.43272 0
M  V30 20386 C 1887.98 -1.70936 0.325113 0
M  V30 20387 O 1889.16 -1.93165 0.570022 0
M  V30 20388 C 1886.22 -3.21587 1.29548 0
M  V30 20389 C 1885.28 -3.4866 2.50469 0
M  V30 20390 C 1884.52 -4.77998 2.3739 0
M  V30 20391 O 1884.74 -5.53234 1.38881 0
M  V30 20392 O 1883.67 -5.05453 3.26804 0
M  V30 20393 H 1887.5 -1.86406 2.39763 0
M  V30 20394 H 1885.08 -0.864226 1.21867 0
M  V30 20395 H 1886.97 -4.02709 1.2411 0
M  V30 20396 H 1885.64 -3.21674 0.36163 0
M  V30 20397 H 1884.55 -2.67539 2.61483 0
M  V30 20398 H 1885.88 -3.53372 3.42621 0
M  V30 20399 N 1887.53 -1.26053 -0.945962 0
M  V30 20400 C 1888.78 -1.10706 -1.68603 0
M  V30 20401 C 1889.1 0.350167 -1.9244 0
M  V30 20402 O 1890.3 0.624224 -2.64227 0
M  V30 20403 C 1888.76 -1.93306 -3.0358 0
M  V30 20404 C 1888.37 -3.43574 -2.87508 0
M  V30 20405 C 1890.11 -1.86555 -3.8131 0
M  V30 20406 C 1888.02 -4.18438 -4.17928 0
M  V30 20407 H 1886.95 -0.410689 -0.632337 0
M  V30 20408 H 1889.6 -1.50322 -1.0524 0
M  V30 20409 H 1887.98 -1.4652 -3.67897 0
M  V30 20410 H 1889.15 -3.98096 -2.3207 0
M  V30 20411 H 1887.47 -3.51511 -2.23224 0
M  V30 20412 H 1890.07 -2.39775 -4.77925 0
M  V30 20413 H 1890.41 -0.83525 -4.07835 0
M  V30 20414 H 1890.94 -2.31138 -3.23759 0
M  V30 20415 H 1887.68 -5.21917 -3.96589 0
M  V30 20416 H 1887.2 -3.68698 -4.73098 0
M  V30 20417 H 1888.88 -4.26626 -4.86415 0
M  V30 20418 N 1889.01 1.14984 -1.07779 0
M  V30 20419 C 1890.24 1.90288 -0.824935 0
M  V30 20420 C 1890.66 1.77709 0.616524 0
M  V30 20421 O 1890.02 1.11281 1.4313 0
M  V30 20422 C 1890.07 3.38482 -1.24348 0
M  V30 20423 O 1889.17 4.10538 -0.391454 0
M  V30 20424 H 1888.51 0.592283 -0.300162 0
M  V30 20425 H 1891.04 1.45588 -1.43755 0
M  V30 20426 H 1891.05 3.89284 -1.22155 0
M  V30 20427 H 1889.73 3.46956 -2.29335 0
M  V30 20428 H 1888.3 3.69846 -0.476247 0
M  V30 20429 N 1890.49 0.862526 1.31902 0
M  V30 20430 C 1891.4 0.316029 2.32462 0
M  V30 20431 C 1892.42 -0.570217 1.64391 0
M  V30 20432 O 1893.59 -0.46871 1.9587 0
M  V30 20433 C 1890.66 -0.479949 3.43362 0
M  V30 20434 C 1889.72 0.43337 4.27107 0
M  V30 20435 C 1888.95 -0.324714 5.32711 0
M  V30 20436 O 1889.17 -1.55373 5.48831 0
M  V30 20437 O 1888.11 0.313571 6.01083 0
M  V30 20438 H 1891.93 1.14935 2.81111 0
M  V30 20439 H 1889.52 0.625683 1.35667 0
M  V30 20440 H 1891.4 -0.931458 4.10977 0
M  V30 20441 H 1890.08 -1.28994 2.96888 0
M  V30 20442 H 1888.98 0.933222 3.62273 0
M  V30 20443 H 1890.32 1.20876 4.77127 0
M  V30 20444 N 1891.97 -1.4484 0.62123 0
M  V30 20445 C 1893.38 -1.85568 0.205284 0
M  V30 20446 C 1893.73 -1.51963 -1.24104 0
M  V30 20447 O 1892.86 -0.952887 -1.94291 0
M  V30 20448 C 1893.45 -3.3682 0.365788 0
M  V30 20449 C 1892.01 -3.764 0.00442911 0
M  V30 20450 C 1891.16 -2.68736 0.683839 0
M  V30 20451 H 1894.11 -1.35447 0.827036 0
M  V30 20452 H 1894.13 -3.78411 -0.398123 0
M  V30 20453 H 1893.64 -3.61247 1.41853 0
M  V30 20454 H 1891.74 -3.57588 -1.04696 0
M  V30 20455 H 1891.85 -4.77363 0.407588 0
M  V30 20456 H 1890.22 -2.54417 0.120114 0
M  V30 20457 H 1891 -2.95997 1.73898 0
M  V30 20458 N 1893.45 -0.361184 -1.53405 0
M  V30 20459 C 1894.69 0.230222 -2.01489 0
M  V30 20460 C 1895.03 1.48779 -1.24814 0
M  V30 20461 O 1894.3 1.91494 -0.340612 0
M  V30 20462 C 1894.58 0.526613 -3.56229 0
M  V30 20463 C 1894.44 -0.744277 -4.436 0
M  V30 20464 C 1895.76 1.32901 -4.19554 0
M  V30 20465 H 1892.87 0.0822009 -0.732402 0
M  V30 20466 H 1895.52 -0.485208 -1.837 0
M  V30 20467 H 1893.67 1.13609 -3.71517 0
M  V30 20468 H 1895.34 -1.38188 -4.40116 0
M  V30 20469 H 1893.58 -1.36555 -4.11747 0
M  V30 20470 H 1894.25 -0.491913 -5.49804 0
M  V30 20471 H 1896.73 0.813474 -4.08071 0
M  V30 20472 H 1895.6 1.50513 -5.27861 0
M  V30 20473 H 1895.87 2.33625 -3.75329 0
M  V30 20474 N 1894.92 1.57341 -0.0902386 0
M  V30 20475 C 1895.85 2.16782 0.86764 0
M  V30 20476 C 1896.84 1.09982 1.29761 0
M  V30 20477 O 1898.02 1.38099 1.36537 0
M  V30 20478 C 1895.15 2.74426 2.12856 0
M  V30 20479 C 1894.1 3.86555 1.83738 0
M  V30 20480 C 1893.43 4.3088 3.16617 0
M  V30 20481 C 1894.73 5.09971 1.12814 0
M  V30 20482 H 1896.42 2.97075 0.372417 0
M  V30 20483 H 1893.97 1.42899 0.177689 0
M  V30 20484 H 1895.92 3.14659 2.80299 0
M  V30 20485 H 1894.65 1.9138 2.64653 0
M  V30 20486 H 1893.31 3.46853 1.18694 0
M  V30 20487 H 1892.95 3.44732 3.66291 0
M  V30 20488 H 1892.65 5.06477 2.97918 0
M  V30 20489 H 1894.18 4.73743 3.85227 0
M  V30 20490 H 1895.59 5.47404 1.70358 0
M  V30 20491 H 1893.99 5.90965 1.04311 0
M  V30 20492 H 1895.06 4.84775 0.110114 0
M  V30 20493 N 1896.4 -0.183431 1.56529 0
M  V30 20494 C 1897.33 -1.25157 1.92011 0
M  V30 20495 C 1898.35 -1.41107 0.811945 0
M  V30 20496 O 1899.54 -1.41326 1.09038 0
M  V30 20497 C 1896.64 -2.62206 2.14712 0
M  V30 20498 C 1895.81 -2.67712 3.45903 0
M  V30 20499 C 1894.87 -3.86038 3.57576 0
M  V30 20500 O 1893.89 -3.72599 4.30301 0
M  V30 20501 N 1895.1 -5.01988 2.91528 0
M  V30 20502 H 1897.86 -0.950304 2.84235 0
M  V30 20503 H 1895.42 -0.373278 1.57538 0
M  V30 20504 H 1897.41 -3.3981 2.19798 0
M  V30 20505 H 1895.98 -2.84772 1.28932 0
M  V30 20506 H 1895.2 -1.76294 3.52582 0
M  V30 20507 H 1896.49 -2.68392 4.32254 0
M  V30 20508 H 1895.89 -5.15807 2.32292 0
M  V30 20509 H 1894.45 -5.77497 3.02225 0
M  V30 20510 N 1897.88 -1.50992 -0.451564 0
M  V30 20511 C 1898.83 -1.67662 -1.5451 0
M  V30 20512 C 1899.81 -0.53081 -1.51892 0
M  V30 20513 O 1901.01 -0.786103 -1.58586 0
M  V30 20514 C 1898.14 -1.79204 -2.92815 0
M  V30 20515 C 1897.22 -2.99524 -3.00244 0
M  V30 20516 N 1897.61 -4.22917 -2.77443 0
M  V30 20517 C 1895.91 -2.98485 -3.31395 0
M  V30 20518 C 1896.61 -5.04058 -2.90346 0
M  V30 20519 N 1895.59 -4.3841 -3.21399 0
M  V30 20520 H 1899.39 -2.60742 -1.35612 0
M  V30 20521 H 1896.9 -1.48444 -0.658639 0
M  V30 20522 H 1898.9 -1.89254 -3.71468 0
M  V30 20523 H 1897.56 -0.872954 -3.12745 0
M  V30 20524 H 1898.57 -4.52096 -2.52645 0
M  V30 20525 H 1895.25 -2.16153 -3.57189 0
M  V30 20526 H 1896.64 -6.12238 -2.76792 0
M  V30 20527 N 1899.36 0.706069 -1.40899 0
M  V30 20528 C 1900.61 1.46604 -1.39691 0
M  V30 20529 C 1900.93 1.945 -0.00244032 0
M  V30 20530 O 1900.19 1.69172 0.983828 0
M  V30 20531 C 1900.49 2.70045 -2.34116 0
M  V30 20532 C 1900.15 2.40863 -3.81177 0
M  V30 20533 C 1898.82 2.32615 -4.21241 0
M  V30 20534 C 1901.17 2.16582 -4.74069 0
M  V30 20535 C 1898.5 1.98167 -5.5222 0
M  V30 20536 C 1900.85 1.83645 -6.05357 0
M  V30 20537 C 1899.51 1.73885 -6.44454 0
M  V30 20538 H 1898.78 0.536463 -0.511164 0
M  V30 20539 H 1901.43 0.807941 -1.73622 0
M  V30 20540 H 1899.73 3.40738 -1.93403 0
M  V30 20541 H 1901.43 3.2816 -2.3046 0
M  V30 20542 H 1898.02 2.48173 -3.49439 0
M  V30 20543 H 1902.2 2.21905 -4.43928 0
M  V30 20544 H 1897.46 1.89155 -5.81404 0
M  V30 20545 H 1901.63 1.63873 -6.76845 0
M  V30 20546 H 1899.26 1.46959 -7.4586 0
M  V30 20547 N 1900.84 1.26553 0.939264 0
M  V30 20548 C 1902.08 1.12376 1.68818 0
M  V30 20549 C 1902.42 -0.331784 1.91345 0
M  V30 20550 O 1901.69 -1.24359 1.4955 0
M  V30 20551 C 1901.97 1.89541 3.0618 0
M  V30 20552 C 1901.83 3.43014 2.90966 0
M  V30 20553 C 1903.15 1.69074 4.06327 0
M  V30 20554 H 1900.26 0.409616 0.612686 0
M  V30 20555 H 1902.91 1.55571 1.09076 0
M  V30 20556 H 1901.06 1.5283 3.57177 0
M  V30 20557 H 1902.73 3.89489 2.47176 0
M  V30 20558 H 1900.97 3.69942 2.26551 0
M  V30 20559 H 1901.64 3.92236 3.88401 0
M  V30 20560 H 1904.12 2.01061 3.64299 0
M  V30 20561 H 1902.99 2.25478 5.00451 0
M  V30 20562 H 1903.26 0.635787 4.37504 0
M  V30 20563 N 1902.31 -1.14411 1.08387 0
M  V30 20564 C 1903.26 -2.1752 0.683292 0
M  V30 20565 C 1904.25 -1.58136 -0.296971 0
M  V30 20566 O 1905.44 -1.76664 -0.109021 0
M  V30 20567 C 1902.57 -3.43171 0.0939403 0
M  V30 20568 C 1901.66 -4.09587 1.09998 0
M  V30 20569 N 1902.05 -4.51329 2.28333 0
M  V30 20570 C 1900.34 -4.36074 0.935695 0
M  V30 20571 C 1901.05 -5.0296 2.92244 0
M  V30 20572 N 1900.02 -4.97157 2.19854 0
M  V30 20573 H 1903.82 -2.47535 1.58441 0
M  V30 20574 H 1901.34 -1.31093 0.958564 0
M  V30 20575 H 1903.33 -4.16366 -0.210997 0
M  V30 20576 H 1901.99 -3.14635 -0.802165 0
M  V30 20577 H 1903.01 -4.44376 2.6599 0
M  V30 20578 H 1899.68 -4.17396 0.0933758 0
M  V30 20579 H 1901.07 -5.45135 3.92782 0
M  V30 20580 N 1903.79 -0.869509 -1.31443 0
M  V30 20581 C 1904.72 -0.340679 -2.31001 0
M  V30 20582 C 1905.7 0.568186 -1.6033 0
M  V30 20583 O 1906.89 0.485305 -1.88038 0
M  V30 20584 C 1904.02 0.45909 -3.44252 0
M  V30 20585 C 1902.97 -0.356639 -4.26512 0
M  V30 20586 C 1902.3 0.568786 -5.31666 0
M  V30 20587 C 1903.6 -1.59045 -4.97496 0
M  V30 20588 H 1905.29 -1.1726 -2.75482 0
M  V30 20589 H 1902.84 -0.5653 -1.3244 0
M  V30 20590 H 1904.79 0.839573 -4.12952 0
M  V30 20591 H 1903.52 1.32451 -2.98537 0
M  V30 20592 H 1902.17 -0.719063 -3.59479 0
M  V30 20593 H 1901.82 1.43148 -4.82201 0
M  V30 20594 H 1901.52 0.0268906 -5.87594 0
M  V30 20595 H 1903.05 0.946122 -6.03225 0
M  V30 20596 H 1904.46 -1.28144 -5.58795 0
M  V30 20597 H 1902.86 -2.07139 -5.63217 0
M  V30 20598 H 1903.93 -2.34354 -4.24507 0
M  V30 20599 N 1905.27 1.44508 -0.628902 0
M  V30 20600 C 1906.2 2.33412 0.0642512 0
M  V30 20601 C 1907.18 1.48077 0.837091 0
M  V30 20602 O 1908.37 1.76802 0.803415 0
M  V30 20603 C 1905.5 3.31112 1.04795 0
M  V30 20604 C 1904.45 4.26248 0.386897 0
M  V30 20605 C 1903.78 5.13799 1.48035 0
M  V30 20606 C 1905.08 5.17514 -0.705449 0
M  V30 20607 H 1906.77 2.91619 -0.678133 0
M  V30 20608 H 1904.32 1.40225 -0.327558 0
M  V30 20609 H 1906.27 3.9219 1.54159 0
M  V30 20610 H 1904.99 2.71109 1.8212 0
M  V30 20611 H 1903.65 3.66499 -0.0860697 0
M  V30 20612 H 1903.3 4.5015 2.24441 0
M  V30 20613 H 1903 5.78262 1.04342 0
M  V30 20614 H 1904.52 5.77748 1.97583 0
M  V30 20615 H 1905.94 5.7254 -0.295004 0
M  V30 20616 H 1904.34 5.90567 -1.06538 0
M  V30 20617 H 1905.41 4.5866 -1.57349 0
M  V30 20618 N 1906.75 0.369315 1.53212 0
M  V30 20619 C 1907.71 -0.463128 2.24472 0
M  V30 20620 C 1908.71 -1.00667 1.2539 0
M  V30 20621 O 1909.9 -0.891832 1.4964 0
M  V30 20622 C 1907.03 -1.6477 2.98435 0
M  V30 20623 H 1908.23 0.160479 2.9947 0
M  V30 20624 H 1905.78 0.121068 1.5583 0
M  V30 20625 H 1906.52 -2.30929 2.27689 0
M  V30 20626 H 1906.3 -1.26487 3.71138 0
M  V30 20627 H 1907.79 -2.23753 3.52596 0
M  V30 20628 N 1908.23 -1.57291 0.0985816 0
M  V30 20629 C 1909.46 -1.98819 -0.57259 0
M  V30 20630 C 1909.87 -0.977787 -1.61508 0
M  V30 20631 O 1909.23 0.0321385 -1.82472 0
M  V30 20632 C 1909.28 -3.40393 -1.21716 0
M  V30 20633 O 1909 -4.37565 -0.216366 0
M  V30 20634 C 1910.5 -3.96943 -1.97361 0
M  V30 20635 H 1907.72 -0.653268 -0.153239 0
M  V30 20636 H 1910.26 -2.03716 0.178898 0
M  V30 20637 H 1908.42 -3.36499 -1.91956 0
M  V30 20638 H 1908.83 -5.20046 -0.68205 0
M  V30 20639 H 1910.31 -4.98144 -2.37816 0
M  V30 20640 H 1910.78 -3.34953 -2.84083 0
M  V30 20641 H 1911.39 -4.0432 -1.3193 0
M  V30 20642 N 1909.71 0.175127 -1.56624 0
M  V30 20643 C 1910.66 1.22142 -1.92523 0
M  V30 20644 C 1911.64 1.39995 -0.793112 0
M  V30 20645 O 1912.83 1.4203 -1.05625 0
M  V30 20646 C 1909.96 2.56174 -2.28538 0
M  V30 20647 C 1909.05 2.42031 -3.48255 0
M  V30 20648 N 1909.44 1.97597 -4.65606 0
M  V30 20649 C 1907.74 2.72869 -3.52787 0
M  V30 20650 C 1908.44 1.95826 -5.47747 0
M  V30 20651 N 1907.41 2.38086 -4.88688 0
M  V30 20652 H 1911.21 0.869519 -2.80743 0
M  V30 20653 H 1908.73 0.383427 -1.57809 0
M  V30 20654 H 1910.73 3.31775 -2.5245 0
M  V30 20655 H 1909.39 2.92171 -1.41656 0
M  V30 20656 H 1910.4 1.67994 -4.89896 0
M  V30 20657 H 1907.07 3.12929 -2.76373 0
M  V30 20658 H 1908.46 1.63202 -6.51778 0
M  V30 20659 N 1911.18 1.5123 0.44355 0
M  V30 20660 C 1912.43 1.63267 1.19114 0
M  V30 20661 C 1912.75 0.348151 1.91867 0
M  V30 20662 O 1912.02 -0.635724 1.85298 0
M  V30 20663 H 1910.6 0.601701 0.442679 0
M  V30 20664 H 1913.26 1.88132 0.509134 0
M  V30 20665 H 1912.36 2.45732 1.92411 0
M  V30 20666 N 1912.66 -0.698586 1.41271 0
M  V30 20667 C 1914.08 -1.0088 1.23674 0
M  V30 20668 C 1914.28 -2.01118 0.123961 0
M  V30 20669 O 1913.33 -2.47242 -0.512628 0
M  V30 20670 C 1914.65 -1.53629 2.58493 0
M  V30 20671 C 1916.19 -1.65528 2.65649 0
M  V30 20672 C 1916.67 -2.21679 4.00777 0
M  V30 20673 N 1918.16 -2.29044 4.02608 0
M  V30 20674 C 1918.9 -2.73512 5.03963 0
M  V30 20675 N 1918.39 -3.17607 6.15709 0
M  V30 20676 N 1920.18 -2.73049 4.91326 0
M  V30 20677 H 1912.34 -0.0344888 2.12372 0
M  V30 20678 H 1914.6 -0.0778742 0.944796 0
M  V30 20679 H 1914.3 -0.874339 3.40658 0
M  V30 20680 H 1914.18 -2.51891 2.80768 0
M  V30 20681 H 1916.57 -2.30836 1.83844 0
M  V30 20682 H 1916.65 -0.658201 2.47187 0
M  V30 20683 H 1916.29 -1.56988 4.83029 0
M  V30 20684 H 1916.22 -3.22134 4.16578 0
M  V30 20685 H 1918.71 -1.97922 3.21924 0
M  V30 20686 H 1919.02 -3.50155 6.88921 0
M  V30 20687 H 1917.37 -3.15523 6.1925 0
M  V30 20688 H 1920.56 -2.37947 4.03112 0
M  V30 20689 H 1920.73 -3.07386 5.70454 0
M  V30 20690 N 1914.14 -1.27049 -0.93254 0
M  V30 20691 C 1915.09 -1.06016 -2.01853 0
M  V30 20692 C 1916.07 0.0102746 -1.60897 0
M  V30 20693 O 1917.27 -0.207698 -1.75777 0
M  V30 20694 C 1914.39 -0.704271 -3.35998 0
M  V30 20695 C 1913.48 -1.8126 -3.83413 0
M  V30 20696 N 1913.87 -3.05142 -4.03388 0
M  V30 20697 C 1912.17 -1.69817 -4.12405 0
M  V30 20698 C 1912.87 -3.77233 -4.42798 0
M  V30 20699 N 1911.85 -3.04969 -4.49994 0
M  V30 20700 H 1915.65 -2.00035 -2.15321 0
M  V30 20701 H 1913.16 -1.17693 -1.11902 0
M  V30 20702 H 1915.16 -0.534716 -4.13457 0
M  V30 20703 H 1913.82 0.228354 -3.23896 0
M  V30 20704 H 1914.83 -3.40955 -3.89833 0
M  V30 20705 H 1911.51 -0.836049 -4.09043 0
M  V30 20706 H 1912.9 -4.8368 -4.66372 0
M  V30 20707 N 1915.62 1.13835 -1.08993 0
M  V30 20708 C 1916.86 1.85284 -0.824476 0
M  V30 20709 C 1917.2 1.83062 0.648235 0
M  V30 20710 O 1916.47 1.26555 1.47696 0
M  V30 20711 C 1916.75 3.33649 -1.35463 0
M  V30 20712 C 1916.61 3.44411 -2.89312 0
M  V30 20713 C 1917.93 4.28941 -0.984768 0
M  V30 20714 H 1915.05 0.672745 -0.300971 0
M  V30 20715 H 1917.69 1.3364 -1.35057 0
M  V30 20716 H 1915.84 3.77761 -0.907128 0
M  V30 20717 H 1917.51 3.09043 -3.42477 0
M  V30 20718 H 1915.75 2.85429 -3.26669 0
M  V30 20719 H 1916.42 4.48724 -3.21481 0
M  V30 20720 H 1918.9 3.92877 -1.37064 0
M  V30 20721 H 1917.78 5.31196 -1.38283 0
M  V30 20722 H 1918.04 4.41969 0.10755 0
M  V30 20723 N 1917.1 0.876467 1.3098 0
M  V30 20724 C 1918.03 0.294228 2.27304 0
M  V30 20725 C 1919.04 -0.546404 1.53357 0
M  V30 20726 O 1920.23 -0.367339 1.74679 0
M  V30 20727 C 1917.33 -0.600972 3.33529 0
M  V30 20728 C 1916.5 0.208678 4.36902 0
M  V30 20729 C 1915.56 -0.615677 5.22586 0
M  V30 20730 O 1914.59 -0.0413981 5.69185 0
M  V30 20731 N 1915.79 -1.92644 5.47603 0
M  V30 20732 H 1918.55 1.12201 2.77905 0
M  V30 20733 H 1916.12 0.738597 1.44071 0
M  V30 20734 H 1918.11 -1.15831 3.8777 0
M  V30 20735 H 1916.68 -1.32943 2.82922 0
M  V30 20736 H 1915.9 0.947462 3.82644 0
M  V30 20737 H 1917.19 0.763998 5.03031 0
M  V30 20738 H 1916.58 -2.41605 5.11511 0
M  V30 20739 H 1915.14 -2.43141 6.04752 0
M  V30 20740 N 1918.57 -1.44173 0.636557 0
M  V30 20741 C 1919.8 -2.06053 0.150237 0
M  V30 20742 C 1920.21 -1.47684 -1.18263 0
M  V30 20743 O 1919.55 -0.596274 -1.73753 0
M  V30 20744 C 1919.62 -3.59485 -0.0331338 0
M  V30 20745 C 1919.28 -4.40348 1.22241 0
M  V30 20746 C 1920.28 -4.73481 2.14736 0
M  V30 20747 C 1917.96 -4.80633 1.45934 0
M  V30 20748 C 1919.96 -5.45789 3.29231 0
M  V30 20749 C 1917.64 -5.5269 2.60725 0
M  V30 20750 C 1918.64 -5.85188 3.52199 0
M  V30 20751 O 1918.33 -6.55776 4.64987 0
M  V30 20752 H 1918.06 -0.671316 0.0794375 0
M  V30 20753 H 1920.62 -1.85942 0.872618 0
M  V30 20754 H 1918.85 -3.78106 -0.810716 0
M  V30 20755 H 1920.53 -4.03115 -0.474694 0
M  V30 20756 H 1921.3 -4.42891 1.97668 0
M  V30 20757 H 1917.18 -4.54755 0.756218 0
M  V30 20758 H 1920.72 -5.71073 4.00651 0
M  V30 20759 H 1916.62 -5.82695 2.77734 0
M  V30 20760 H 1917.39 -6.74248 4.64038 0
M  V30 20761 N 1920.05 -0.377435 -1.53014 0
M  V30 20762 C 1920.98 0.455103 -2.29022 0
M  V30 20763 C 1921.96 1.07375 -1.31926 0
M  V30 20764 O 1923.15 1.08877 -1.60809 0
M  V30 20765 C 1920.28 1.58883 -3.08826 0
M  V30 20766 C 1919.23 1.09683 -4.13707 0
M  V30 20767 C 1918.56 2.32172 -4.81664 0
M  V30 20768 C 1919.86 0.173165 -5.22013 0
M  V30 20769 H 1921.55 -0.179053 -2.98864 0
M  V30 20770 H 1919.1 -0.0875549 -1.43734 0
M  V30 20771 H 1921.05 2.17798 -3.60752 0
M  V30 20772 H 1919.77 2.2504 -2.36695 0
M  V30 20773 H 1918.43 0.530291 -3.62744 0
M  V30 20774 H 1918.08 2.96811 -4.06094 0
M  V30 20775 H 1917.78 1.99919 -5.52545 0
M  V30 20776 H 1919.31 2.91751 -5.3639 0
M  V30 20777 H 1920.72 0.670145 -5.6937 0
M  V30 20778 H 1919.12 -0.0590463 -6.00071 0
M  V30 20779 H 1920.19 -0.781339 -4.78564 0
M  V30 20780 N 1921.53 1.57237 -0.106922 0
M  V30 20781 C 1922.81 1.8627 0.596889 0
M  V30 20782 C 1923.19 1.00593 1.85591 0
M  V30 20783 O 1922.54 0.0815394 2.28354 0
M  V30 20784 C 1922.75 3.37171 0.900934 0
M  V30 20785 C 1924.09 4.05497 1.25926 0
M  V30 20786 O 1925.12 3.4212 0.99158 0
M  V30 20787 O 1923.98 5.17347 1.76109 0
M  V30 20788 H 1921.07 0.770704 0.299907 0
M  V30 20789 H 1923.62 1.69117 -0.140513 0
M  V30 20790 H 1922.39 3.91299 0.00823337 0
M  V30 20791 H 1922.01 3.59712 1.69391 0
M  V30 20792 N 1923.01 -0.166818 1.56715 0
M  V30 20793 C 1924.26 -0.882715 1.82248 0
M  V30 20794 C 1924.58 -1.82049 0.684716 0
M  V30 20795 O 1923.84 -1.92937 -0.327717 0
M  V30 20796 C 1924.14 -1.70734 3.13982 0
M  V30 20797 C 1923.8 -0.918095 4.41454 0
M  V30 20798 C 1922.47 -0.700286 4.76077 0
M  V30 20799 C 1924.82 -0.364791 5.19922 0
M  V30 20800 C 1922.15 0.081855 5.86643 0
M  V30 20801 C 1924.5 0.404286 6.31307 0
M  V30 20802 C 1923.16 0.632854 6.64493 0
M  V30 20803 H 1922.43 -0.323008 0.666893 0
M  V30 20804 H 1925.08 -0.147401 1.90932 0
M  V30 20805 H 1923.38 -2.51218 3.0066 0
M  V30 20806 H 1925.08 -2.26437 3.30949 0
M  V30 20807 H 1921.67 -1.0979 4.14299 0
M  V30 20808 H 1925.85 -0.520394 4.93564 0
M  V30 20809 H 1921.11 0.268637 6.1081 0
M  V30 20810 H 1925.28 0.840259 6.91312 0
M  V30 20811 H 1922.91 1.24079 7.50006 0
M  V30 20812 N 1924.49 -1.51463 -0.435524 0
M  V30 20813 C 1925.42 -1.75856 -1.53613 0
M  V30 20814 C 1926.4 -0.608449 -1.58846 0
M  V30 20815 O 1927.58 -0.85135 -1.74544 0
M  V30 20816 C 1924.71 -1.88525 -2.91677 0
M  V30 20817 C 1923.67 -3.03972 -3.01305 0
M  V30 20818 C 1922.99 -3.01828 -4.41366 0
M  V30 20819 C 1924.29 -4.43905 -2.75219 0
M  V30 20820 H 1925.99 -2.68013 -1.33452 0
M  V30 20821 H 1923.53 -1.28968 -0.640564 0
M  V30 20822 H 1925.49 -2.04173 -3.68634 0
M  V30 20823 H 1924.21 -0.930179 -3.13074 0
M  V30 20824 H 1922.87 -2.88033 -2.26788 0
M  V30 20825 H 1922.52 -2.04095 -4.59733 0
M  V30 20826 H 1922.22 -3.79353 -4.48737 0
M  V30 20827 H 1923.74 -3.19572 -5.20294 0
M  V30 20828 H 1925.15 -4.60187 -3.41908 0
M  V30 20829 H 1923.55 -5.2315 -2.93998 0
M  V30 20830 H 1924.62 -4.53818 -1.70814 0
M  V30 20831 N 1925.96 0.691085 -1.4164 0
M  V30 20832 C 1926.91 1.79718 -1.40305 0
M  V30 20833 C 1927.9 1.58502 -0.276751 0
M  V30 20834 O 1929.09 1.69258 -0.517761 0
M  V30 20835 C 1926.22 3.18059 -1.29203 0
M  V30 20836 C 1925.31 3.44954 -2.46714 0
M  V30 20837 N 1925.7 3.42522 -3.72172 0
M  V30 20838 C 1923.99 3.75521 -2.40624 0
M  V30 20839 C 1924.7 3.68447 -4.50135 0
M  V30 20840 N 1923.67 3.88412 -3.80312 0
M  V30 20841 H 1927.47 1.76207 -2.3522 0
M  V30 20842 H 1924.99 0.891261 -1.35758 0
M  V30 20843 H 1926.98 3.97299 -1.26329 0
M  V30 20844 H 1925.64 3.22778 -0.352775 0
M  V30 20845 H 1926.66 3.22799 -4.04996 0
M  V30 20846 H 1923.33 3.87584 -1.55193 0
M  V30 20847 H 1924.72 3.72665 -5.5908 0
M  V30 20848 N 1927.44 1.27542 0.925789 0
M  V30 20849 C 1928.67 1.1681 1.70772 0
M  V30 20850 C 1929.09 -0.274824 1.86789 0
M  V30 20851 O 1928.44 -1.18694 1.38629 0
M  V30 20852 C 1928.49 1.84904 3.10633 0
M  V30 20853 O 1928.21 3.23559 2.95366 0
M  V30 20854 C 1929.72 1.80322 4.04968 0
M  V30 20855 H 1926.94 0.406036 0.534206 0
M  V30 20856 H 1929.48 1.68448 1.15955 0
M  V30 20857 H 1927.63 1.37166 3.62304 0
M  V30 20858 H 1928.05 3.57488 3.838 0
M  V30 20859 H 1929.52 2.32577 5.00611 0
M  V30 20860 H 1930 0.772975 4.32344 0
M  V30 20861 H 1930.61 2.27683 3.59222 0
M  V30 20862 N 1928.92 -1.13255 1.09595 0
M  V30 20863 C 1930.17 -1.84844 0.83429 0
M  V30 20864 C 1930.5 -1.83403 -0.638518 0
M  V30 20865 O 1929.77 -1.27337 -1.47022 0
M  V30 20866 C 1930.06 -3.32926 1.3723 0
M  V30 20867 C 1929.91 -3.42872 2.91134 0
M  V30 20868 C 1931.23 -4.28413 1.0075 0
M  V30 20869 H 1928.35 -0.671139 0.304534 0
M  V30 20870 H 1930.99 -1.32922 1.35764 0
M  V30 20871 H 1929.14 -3.77275 0.927149 0
M  V30 20872 H 1930.81 -3.07222 3.44111 0
M  V30 20873 H 1929.06 -2.83693 3.28178 0
M  V30 20874 H 1929.73 -4.47013 3.23857 0
M  V30 20875 H 1932.2 -3.92145 1.39146 0
M  V30 20876 H 1931.08 -5.30455 1.41098 0
M  V30 20877 H 1931.34 -4.4202 -0.0841095 0
M  V30 20878 N 1930.4 -0.883401 -1.30514 0
M  V30 20879 C 1931.65 -0.497118 -1.95478 0
M  V30 20880 C 1931.96 0.958235 -1.7052 0
M  V30 20881 O 1933.17 1.45129 -2.29455 0
M  V30 20882 C 1931.62 -0.838108 -3.50005 0
M  V30 20883 C 1931.23 -2.31113 -3.83785 0
M  V30 20884 C 1932.97 -0.520947 -4.21291 0
M  V30 20885 C 1930.88 -2.59383 -5.31483 0
M  V30 20886 H 1929.81 -0.182178 -0.731661 0
M  V30 20887 H 1932.46 -1.07816 -1.48486 0
M  V30 20888 H 1930.84 -0.186171 -3.95562 0
M  V30 20889 H 1932.02 -3.00725 -3.49144 0
M  V30 20890 H 1930.33 -2.59566 -3.25598 0
M  V30 20891 H 1932.93 -0.709216 -5.29976 0
M  V30 20892 H 1933.27 0.539542 -4.12789 0
M  V30 20893 H 1933.81 -1.13001 -3.81413 0
M  V30 20894 H 1930.55 -3.64166 -5.45035 0
M  V30 20895 H 1930.07 -1.94378 -5.6743 0
M  V30 20896 H 1931.74 -2.44803 -5.989 0
M  V30 20897 N 1931.88 1.43833 -0.644194 0
M  V30 20898 C 1932.82 2.30739 0.0528797 0
M  V30 20899 C 1933.79 1.44234 0.823751 0
M  V30 20900 O 1934.98 1.73118 0.802171 0
M  V30 20901 C 1932.12 3.29695 1.01956 0
M  V30 20902 C 1931.23 4.31301 0.245734 0
M  V30 20903 C 1930.37 5.17343 1.2054 0
M  V30 20904 C 1929.41 6.10647 0.421486 0
M  V30 20905 N 1928.54 6.89344 1.33228 0
M  V30 20906 H 1933.38 2.89803 -0.694123 0
M  V30 20907 H 1930.92 1.42775 -0.354069 0
M  V30 20908 H 1932.88 3.85568 1.59353 0
M  V30 20909 H 1931.51 2.72302 1.73354 0
M  V30 20910 H 1930.56 3.77795 -0.44438 0
M  V30 20911 H 1931.87 4.97468 -0.364231 0
M  V30 20912 H 1931.03 5.77797 1.85029 0
M  V30 20913 H 1929.76 4.51279 1.84928 0
M  V30 20914 H 1928.77 5.4929 -0.236816 0
M  V30 20915 H 1929.99 6.7875 -0.217862 0
M  V30 20916 H 1927.94 6.25937 1.96312 0
M  V30 20917 H 1927.86 7.52 0.776653 0
M  V30 20918 H 1929.13 7.54311 1.9656 0
M  V30 20919 N 1933.35 0.385544 1.52811 0
M  V30 20920 C 1934.32 -0.439294 2.24951 0
M  V30 20921 C 1935.32 -0.993315 1.26451 0
M  V30 20922 O 1936.51 -0.875911 1.50577 0
M  V30 20923 C 1933.64 -1.61595 3.00166 0
M  V30 20924 H 1934.83 0.192232 2.99283 0
M  V30 20925 H 1932.39 0.137589 1.55693 0
M  V30 20926 H 1933.12 -2.28501 2.30125 0
M  V30 20927 H 1932.91 -1.22544 3.72459 0
M  V30 20928 H 1934.4 -2.20001 3.5495 0
M  V30 20929 N 1934.83 -1.57178 0.115259 0
M  V30 20930 C 1935.74 -2.18656 -0.850101 0
M  V30 20931 C 1936.76 -1.16164 -1.29545 0
M  V30 20932 O 1937.93 -1.48619 -1.35921 0
M  V30 20933 C 1935 -2.77089 -2.0838 0
M  V30 20934 C 1934.06 -3.94604 -1.69074 0
M  V30 20935 C 1933.29 -4.50242 -2.86563 0
M  V30 20936 O 1933.52 -4.04782 -4.0188 0
M  V30 20937 O 1932.45 -5.4098 -2.63864 0
M  V30 20938 H 1936.28 -3.01595 -0.356934 0
M  V30 20939 H 1933.86 -1.48993 -0.110158 0
M  V30 20940 H 1935.74 -3.14353 -2.80642 0
M  V30 20941 H 1934.42 -1.97184 -2.56711 0
M  V30 20942 H 1933.33 -3.62116 -0.939308 0
M  V30 20943 H 1934.66 -4.75934 -1.25489 0
M  V30 20944 N 1936.31 0.158505 -1.56801 0
M  V30 20945 C 1937.56 0.871313 -1.82353 0
M  V30 20946 C 1937.88 1.8222 -0.694324 0
M  V30 20947 O 1937.15 1.93817 0.284899 0
M  V30 20948 H 1935.73 0.324747 -0.672717 0
M  V30 20949 H 1938.39 0.155257 -1.94281 0
M  V30 20950 H 1937.49 1.44051 -2.76868 0
M  V30 20951 N 1937.79 1.51692 0.427485 0
M  V30 20952 C 1938.74 1.73716 1.51958 0
M  V30 20953 C 1939.71 0.579073 1.55679 0
M  V30 20954 O 1940.89 0.814605 1.72536 0
M  V30 20955 C 1938.03 1.87709 2.89585 0
M  V30 20956 C 1937.14 3.15297 2.95317 0
M  V30 20957 C 1936.28 3.19827 4.24128 0
M  V30 20958 C 1935.32 4.4169 4.23764 0
M  V30 20959 N 1934.46 4.43715 5.44116 0
M  V30 20960 H 1939.3 2.66933 1.3248 0
M  V30 20961 H 1936.83 1.32283 0.643393 0
M  V30 20962 H 1938.79 1.93804 3.69454 0
M  V30 20963 H 1937.42 0.978912 3.07599 0
M  V30 20964 H 1936.47 3.18464 2.08051 0
M  V30 20965 H 1937.78 4.05182 2.90911 0
M  V30 20966 H 1936.94 3.24892 5.12377 0
M  V30 20967 H 1935.68 2.27848 4.31204 0
M  V30 20968 H 1934.68 4.36791 3.33907 0
M  V30 20969 H 1935.91 5.34944 4.18343 0
M  V30 20970 H 1933.85 3.5461 5.51894 0
M  V30 20971 H 1933.77 5.27421 5.4163 0
M  V30 20972 H 1935.04 4.52986 6.34369 0
M  V30 20973 N 1939.27 -0.683564 1.42004 0
M  V30 20974 C 1940.5 -1.46996 1.45175 0
M  V30 20975 C 1940.91 -1.89108 0.0589536 0
M  V30 20976 O 1940.25 -1.5814 -0.934737 0
M  V30 20977 C 1940.31 -2.75616 2.30816 0
M  V30 20978 C 1939.97 -2.55634 3.78814 0
M  V30 20979 C 1940.97 -2.20802 4.70683 0
M  V30 20980 C 1938.66 -2.70901 4.22987 0
M  V30 20981 C 1940.65 -2.01492 6.04715 0
M  V30 20982 C 1938.34 -2.51207 5.5708 0
M  V30 20983 C 1939.34 -2.16555 6.4776 0
M  V30 20984 O 1939.02 -1.97043 7.79378 0
M  V30 20985 H 1938.76 -0.459119 0.496171 0
M  V30 20986 H 1941.31 -0.848089 1.87074 0
M  V30 20987 H 1939.54 -3.40254 1.83751 0
M  V30 20988 H 1941.23 -3.37467 2.25545 0
M  V30 20989 H 1941.99 -2.08611 4.37843 0
M  V30 20990 H 1937.87 -2.96855 3.52702 0
M  V30 20991 H 1941.42 -1.74367 6.75457 0
M  V30 20992 H 1937.31 -2.62992 5.89496 0
M  V30 20993 H 1938.08 -2.11711 7.90646 0
M  V30 20994 N 1940.75 -1.28031 -0.919012 0
M  V30 20995 C 1941.99 -1.15048 -1.67008 0
M  V30 20996 C 1942.32 0.301301 -1.91848 0
M  V30 20997 O 1941.6 1.21964 -1.51509 0
M  V30 20998 C 1941.88 -1.94388 -3.03126 0
M  V30 20999 C 1941.74 -3.476 -2.85473 0
M  V30 21000 C 1943.05 -1.75517 -4.03586 0
M  V30 21001 H 1940.17 -0.419311 -0.606091 0
M  V30 21002 H 1942.82 -1.57287 -1.06587 0
M  V30 21003 H 1940.97 -1.58493 -3.547 0
M  V30 21004 H 1942.64 -3.93372 -2.40949 0
M  V30 21005 H 1940.88 -3.73499 -2.20637 0
M  V30 21006 H 1941.55 -3.98365 -3.82111 0
M  V30 21007 H 1944.03 -2.06832 -3.61054 0
M  V30 21008 H 1942.9 -2.33411 -4.968 0
M  V30 21009 H 1943.16 -0.705309 -4.36438 0
M  V30 21010 N 1942.22 1.12672 -1.10194 0
M  V30 21011 C 1943.17 2.18326 -0.748496 0
M  V30 21012 C 1944.14 1.63824 0.274007 0
M  V30 21013 O 1945.33 1.90179 0.153852 0
M  V30 21014 C 1942.47 3.4461 -0.183772 0
M  V30 21015 C 1941.58 4.13178 -1.26127 0
M  V30 21016 C 1940.71 5.27103 -0.658462 0
M  V30 21017 C 1939.75 5.87533 -1.71672 0
M  V30 21018 N 1938.89 6.92876 -1.13435 0
M  V30 21019 H 1943.73 2.47906 -1.65369 0
M  V30 21020 H 1941.27 1.21715 -0.826064 0
M  V30 21021 H 1943.22 4.16887 0.161511 0
M  V30 21022 H 1941.85 3.15456 0.684657 0
M  V30 21023 H 1940.91 3.39105 -1.72372 0
M  V30 21024 H 1942.22 4.54163 -2.06246 0
M  V30 21025 H 1941.37 6.06132 -0.26248 0
M  V30 21026 H 1940.11 4.87389 0.174183 0
M  V30 21027 H 1939.12 5.07193 -2.12215 0
M  V30 21028 H 1940.34 6.29318 -2.55217 0
M  V30 21029 H 1938.29 6.55204 -0.323127 0
M  V30 21030 H 1938.2 7.32446 -1.8724 0
M  V30 21031 H 1939.47 7.75739 -0.764838 0
M  V30 21032 N 1943.7 0.89031 1.30043 0
M  V30 21033 C 1944.65 0.35935 2.27985 0
M  V30 21034 C 1945.62 -0.5534 1.5661 0
M  V30 21035 O 1946.8 -0.480669 1.84646 0
M  V30 21036 C 1943.94 -0.41541 3.42591 0
M  V30 21037 C 1943.06 0.527163 4.28771 0
M  V30 21038 C 1942.19 -0.26372 5.30545 0
M  V30 21039 C 1941.23 0.673982 6.08378 0
M  V30 21040 N 1940.37 -0.081909 7.02052 0
M  V30 21041 H 1945.21 1.19969 2.72785 0
M  V30 21042 H 1942.74 0.602948 1.34175 0
M  V30 21043 H 1944.7 -0.880572 4.07801 0
M  V30 21044 H 1943.33 -1.22028 2.98846 0
M  V30 21045 H 1942.38 1.11083 3.6382 0
M  V30 21046 H 1943.7 1.24532 4.83004 0
M  V30 21047 H 1942.85 -0.7905 6.01528 0
M  V30 21048 H 1941.59 -1.01507 4.7702 0
M  V30 21049 H 1940.59 1.21234 5.36267 0
M  V30 21050 H 1941.82 1.42451 6.63991 0
M  V30 21051 H 1939.77 -0.815696 6.50909 0
M  V30 21052 H 1939.68 0.576521 7.53799 0
M  V30 21053 H 1940.95 -0.589258 7.7727 0
M  V30 21054 N 1945.18 -1.43489 0.651812 0
M  V30 21055 C 1946.42 -2.03707 0.168214 0
M  V30 21056 C 1946.78 -1.50302 -1.19471 0
M  V30 21057 O 1947.98 -2.02154 -1.77164 0
M  V30 21058 C 1946.26 -3.56964 0.176447 0
M  V30 21059 S 1947.81 -4.38146 -0.239511 0
M  V30 21060 H 1944.63 -0.70742 0.0712573 0
M  V30 21061 H 1947.23 -1.75577 0.859833 0
M  V30 21062 H 1945.94 -3.93335 1.17115 0
M  V30 21063 H 1945.47 -3.89735 -0.535755 0
M  V30 21064 H 1947.48 -4.73654 -1.47874 0
M  V30 21065 N 1946.66 -0.393643 -1.52605 0
M  V30 21066 C 1947.59 0.474548 -2.24234 0
M  V30 21067 C 1948.6 1.02311 -1.26634 0
M  V30 21068 O 1949.79 0.924695 -1.52681 0
M  V30 21069 C 1946.89 1.67083 -2.9485 0
M  V30 21070 C 1946.06 1.24889 -4.19192 0
M  V30 21071 C 1945.12 2.31034 -4.72768 0
M  V30 21072 O 1944.15 1.92263 -5.35746 0
M  V30 21073 N 1945.35 3.63004 -4.52999 0
M  V30 21074 H 1948.12 -0.139149 -2.99377 0
M  V30 21075 H 1945.68 -0.220221 -1.60395 0
M  V30 21076 H 1947.67 2.37626 -3.27591 0
M  V30 21077 H 1946.24 2.19078 -2.22988 0
M  V30 21078 H 1945.46 0.372176 -3.92439 0
M  V30 21079 H 1946.75 0.94369 -4.99972 0
M  V30 21080 H 1946.15 3.97263 -4.02739 0
M  V30 21081 H 1944.7 4.29568 -4.90219 0
M  V30 21082 N 1948.14 1.57115 -0.123593 0
M  V30 21083 C 1949.41 1.86893 0.577099 0
M  V30 21084 C 1949.79 1.02556 1.84514 0
M  V30 21085 O 1949.14 0.105755 2.28255 0
M  V30 21086 C 1949.35 3.38107 0.865122 0
M  V30 21087 C 1950.7 4.0681 1.21618 0
M  V30 21088 O 1951.72 3.43153 0.955237 0
M  V30 21089 O 1950.58 5.19186 1.70612 0
M  V30 21090 H 1947.68 0.773842 0.291716 0
M  V30 21091 H 1950.22 1.68959 -0.158443 0
M  V30 21092 H 1948.99 3.91286 -0.0332696 0
M  V30 21093 H 1948.62 3.61488 1.65566 0
M  V30 21094 N 1949.61 -0.150187 1.56883 0
M  V30 21095 C 1950.55 -1.21495 1.93169 0
M  V30 21096 C 1951.52 -1.41721 0.797116 0
M  V30 21097 O 1952.71 -1.56385 1.05243 0
M  V30 21098 C 1949.84 -2.5744 2.20096 0
M  V30 21099 C 1948.88 -2.53828 3.42744 0
M  V30 21100 S 1949.71 -2.00835 4.96413 0
M  V30 21101 C 1950.87 -3.38515 5.26458 0
M  V30 21102 H 1951.1 -0.905357 2.83179 0
M  V30 21103 H 1948.64 -0.355666 1.50248 0
M  V30 21104 H 1950.59 -3.35675 2.3629 0
M  V30 21105 H 1949.26 -2.85591 1.30755 0
M  V30 21106 H 1948.45 -3.53894 3.58852 0
M  V30 21107 H 1948.05 -1.837 3.25776 0
M  V30 21108 H 1950.34 -4.34611 5.19731 0
M  V30 21109 H 1951.29 -3.27263 6.27937 0
M  V30 21110 H 1951.69 -3.35503 4.5398 0
M  V30 21111 N 1951.09 -1.51916 -0.419434 0
M  V30 21112 C 1952.34 -1.64698 -1.16436 0
M  V30 21113 C 1952.65 -0.377878 -1.91915 0
M  V30 21114 O 1953.86 -0.385341 -2.68752 0
M  V30 21115 C 1952.32 -2.90939 -2.11854 0
M  V30 21116 C 1951.92 -4.2492 -1.4194 0
M  V30 21117 C 1953.67 -3.13083 -2.86669 0
M  V30 21118 C 1951.58 -5.42294 -2.35946 0
M  V30 21119 H 1950.51 -0.613496 -0.438337 0
M  V30 21120 H 1953.16 -1.78397 -0.429738 0
M  V30 21121 H 1951.54 -2.70916 -2.88826 0
M  V30 21122 H 1952.71 -4.5539 -0.70403 0
M  V30 21123 H 1951.03 -4.08797 -0.792071 0
M  V30 21124 H 1953.62 -3.97951 -3.57127 0
M  V30 21125 H 1953.97 -2.26891 -3.49036 0
M  V30 21126 H 1954.5 -3.33531 -2.168 0
M  V30 21127 H 1951.24 -6.30801 -1.78242 0
M  V30 21128 H 1950.76 -5.16177 -3.05485 0
M  V30 21129 H 1952.44 -5.74962 -2.96695 0
M  V30 21130 N 1952.57 0.676023 -1.42365 0
M  V30 21131 C 1953.5 1.80071 -1.40178 0
M  V30 21132 C 1954.48 1.60406 -0.266221 0
M  V30 21133 O 1955.67 1.82895 -0.456245 0
M  V30 21134 C 1952.79 3.17052 -1.19147 0
M  V30 21135 C 1951.84 3.55468 -2.35679 0
M  V30 21136 S 1952.67 3.58037 -3.98208 0
M  V30 21137 C 1953.83 4.97712 -3.79517 0
M  V30 21138 H 1954.06 1.81652 -2.35351 0
M  V30 21139 H 1951.59 0.846573 -1.29122 0
M  V30 21140 H 1953.55 3.9612 -1.07699 0
M  V30 21141 H 1952.21 3.13058 -0.255607 0
M  V30 21142 H 1951.41 4.55031 -2.16709 0
M  V30 21143 H 1951.01 2.83757 -2.43635 0
M  V30 21144 H 1953.3 5.85758 -3.40432 0
M  V30 21145 H 1954.24 5.2173 -4.78752 0
M  V30 21146 H 1954.65 4.70172 -3.12407 0
M  V30 21147 N 1954.05 1.28517 0.912209 0
M  V30 21148 C 1955.28 1.18615 1.69523 0
M  V30 21149 C 1955.69 -0.254997 1.8707 0
M  V30 21150 O 1955.05 -1.17217 1.3988 0
M  V30 21151 C 1955.1 1.88188 3.08655 0
M  V30 21152 O 1954.82 3.26673 2.91918 0
M  V30 21153 C 1956.32 1.84607 4.03032 0
M  V30 21154 H 1953.54 0.411679 0.529869 0
M  V30 21155 H 1956.09 1.69668 1.14162 0
M  V30 21156 H 1954.24 1.41001 3.60829 0
M  V30 21157 H 1954.65 3.61538 3.79987 0
M  V30 21158 H 1956.13 2.37874 4.98116 0
M  V30 21159 H 1956.61 0.818787 4.315 0
M  V30 21160 H 1957.21 2.3148 3.56787 0
M  V30 21161 N 1955.53 -1.12086 1.1079 0
M  V30 21162 C 1956.44 -2.21514 0.772578 0
M  V30 21163 C 1957.45 -1.72454 -0.231462 0
M  V30 21164 O 1958.63 -2.01281 -0.0693074 0
M  V30 21165 C 1955.69 -3.46043 0.213364 0
M  V30 21166 C 1954.75 -4.09925 1.27515 0
M  V30 21167 C 1953.99 -5.28509 0.742524 0
M  V30 21168 O 1954.21 -5.68779 -0.429786 0
M  V30 21169 O 1953.14 -5.82802 1.50417 0
M  V30 21170 H 1956.97 -2.52596 1.68608 0
M  V30 21171 H 1954.56 -1.20492 0.883294 0
M  V30 21172 H 1956.44 -4.21294 -0.0944683 0
M  V30 21173 H 1955.11 -3.16628 -0.672947 0
M  V30 21174 H 1954.02 -3.36436 1.63589 0
M  V30 21175 H 1955.35 -4.43504 2.13461 0
M  V30 21176 N 1957 -0.897194 -1.29569 0
M  V30 21177 C 1957.93 -0.389601 -2.30227 0
M  V30 21178 C 1958.92 0.53405 -1.61499 0
M  V30 21179 O 1960.1 0.44531 -1.89025 0
M  V30 21180 C 1957.23 0.385966 -3.45149 0
M  V30 21181 C 1956.18 -0.447028 -4.25659 0
M  V30 21182 C 1955.51 0.455883 -5.32753 0
M  V30 21183 C 1956.81 -1.69562 -4.9401 0
M  V30 21184 H 1958.5 -1.23077 -2.72933 0
M  V30 21185 H 1956.05 -0.593265 -1.31211 0
M  V30 21186 H 1958 0.751791 -4.1464 0
M  V30 21187 H 1956.73 1.26089 -3.01279 0
M  V30 21188 H 1955.39 -0.795152 -3.57873 0
M  V30 21189 H 1955.03 1.32887 -4.85129 0
M  V30 21190 H 1954.73 -0.0977528 -5.87519 0
M  V30 21191 H 1956.26 0.817956 -6.05097 0
M  V30 21192 H 1957.67 -1.39968 -5.55951 0
M  V30 21193 H 1956.07 -2.19039 -5.58697 0
M  V30 21194 H 1957.14 -2.43305 -4.19441 0
M  V30 21195 N 1958.48 1.43142 -0.659413 0
M  V30 21196 C 1959.71 2.06087 -0.183265 0
M  V30 21197 C 1960.13 1.49462 1.15354 0
M  V30 21198 O 1959.48 0.628341 1.71342 0
M  V30 21199 C 1959.53 3.61381 -0.0928701 0
M  V30 21200 O 1959.25 4.15902 -1.37684 0
M  V30 21201 C 1960.76 4.41413 0.408616 0
M  V30 21202 H 1957.98 0.664557 -0.092765 0
M  V30 21203 H 1960.52 1.83542 -0.901809 0
M  V30 21204 H 1958.67 3.8309 0.576268 0
M  V30 21205 H 1959.09 5.09629 -1.24009 0
M  V30 21206 H 1960.56 5.50394 0.420806 0
M  V30 21207 H 1961.04 4.14885 1.44108 0
M  V30 21208 H 1961.65 4.24687 -0.228247 0
M  V30 21209 N 1959.96 0.40173 1.52394 0
M  V30 21210 C 1960.91 -0.442142 2.28359 0
M  V30 21211 C 1961.9 -1.05228 1.32753 0
M  V30 21212 O 1963.11 -0.991332 1.50242 0
M  V30 21213 H 1959.48 -0.161356 0.734485 0
M  V30 21214 H 1961.45 0.219869 2.97589 0
M  V30 21215 C 1960.2 -1.55062 3.11209 0
M  V30 21216 H 1959.53 -1.09046 3.84642 0
M  V30 21217 H 1960.97 -2.11505 3.6748 0
M  V30 21218 C 1959.43 -2.51376 2.24303 0
M  V30 21219 O 1959.96 -3.55084 1.87825 0
M  V30 21220 N 1958.16 -2.2141 1.88218 0
M  V30 21221 H 1957.71 -1.37106 2.18082 0
M  V30 21222 H 1957.67 -2.861 1.30362 0
M  V30 21223 N 1961.44 -1.57047 0.131923 0
M  V30 21224 C 1962.4 -2.14813 -0.799243 0
M  V30 21225 C 1963.4 -1.08616 -1.18572 0
M  V30 21226 O 1964.59 -1.3433 -1.10911 0
M  V30 21227 C 1961.72 -2.69894 -2.08255 0
M  V30 21228 H 1962.92 -2.98426 -0.296996 0
M  V30 21229 H 1960.47 -1.55858 -0.117418 0
M  V30 21230 H 1961.2 -1.89905 -2.62881 0
M  V30 21231 H 1960.99 -3.47574 -1.81479 0
M  V30 21232 H 1962.48 -3.14451 -2.74792 0
M  V30 21233 N 1962.92 0.141865 -1.5696 0
M  V30 21234 C 1964.16 0.851923 -1.83267 0
M  V30 21235 C 1964.49 1.81473 -0.713611 0
M  V30 21236 O 1963.76 1.94109 0.264326 0
M  V30 21237 H 1962.34 0.317594 -0.676124 0
M  V30 21238 H 1965 0.134643 -1.94434 0
M  V30 21239 H 1964.09 1.41106 -2.7838 0
M  V30 21240 N 1964.39 1.52136 0.411372 0
M  V30 21241 C 1965.67 1.56646 1.17138 0
M  V30 21242 C 1966.05 0.346143 2.08243 0
M  V30 21243 O 1965.4 -0.66715 2.18544 0
M  V30 21244 C 1965.61 2.89399 1.95063 0
M  V30 21245 C 1966.96 3.42316 2.51207 0
M  V30 21246 O 1967.98 2.91123 2.05245 0
M  V30 21247 O 1966.84 4.31703 3.35104 0
M  V30 21248 H 1963.93 0.63088 0.534715 0
M  V30 21249 H 1966.48 1.64463 0.418334 0
M  V30 21250 H 1965.25 3.69666 1.28308 0
M  V30 21251 H 1964.88 2.84864 2.77377 0
M  V30 21252 N 1965.87 -0.668464 1.42721 0
M  V30 21253 C 1967.15 -1.42481 1.3401 0
M  V30 21254 C 1967.53 -2.11091 -0.0194821 0
M  V30 21255 O 1966.88 -2.037 -1.03531 0
M  V30 21256 C 1967.09 -2.42205 2.51272 0
M  V30 21257 C 1968.44 -3.0666 2.93675 0
M  V30 21258 O 1969.46 -2.52532 2.51209 0
M  V30 21259 O 1968.32 -4.04761 3.67193 0
M  V30 21260 H 1965.41 -0.635831 0.528818 0
M  V30 21261 H 1967.96 -0.696654 1.54741 0
M  V30 21262 H 1966.73 -1.90349 3.41881 0
M  V30 21263 H 1966.35 -3.22492 2.32561 0
M  V30 21264 N 1967.35 -1.28999 -0.905381 0
M  V30 21265 C 1968.6 -1.16813 -1.65779 0
M  V30 21266 C 1968.93 0.280936 -1.92157 0
M  V30 21267 O 1968.21 1.2035 -1.52794 0
M  V30 21268 C 1968.49 -1.97593 -3.01047 0
M  V30 21269 C 1968.34 -3.50608 -2.8177 0
M  V30 21270 C 1969.66 -1.79788 -4.01702 0
M  V30 21271 H 1966.78 -0.425716 -0.60161 0
M  V30 21272 H 1969.42 -1.58409 -1.04913 0
M  V30 21273 H 1967.57 -1.62246 -3.52999 0
M  V30 21274 H 1969.24 -3.95905 -2.36763 0
M  V30 21275 H 1967.49 -3.75818 -2.16663 0
M  V30 21276 H 1968.16 -4.02396 -3.77865 0
M  V30 21277 H 1970.63 -2.10649 -3.5884 0
M  V30 21278 H 1969.51 -2.38667 -4.94297 0
M  V30 21279 H 1969.77 -0.75156 -4.35665 0
M  V30 21280 N 1968.83 1.11497 -1.11383 0
M  V30 21281 C 1970.08 1.83494 -0.863592 0
M  V30 21282 C 1970.41 1.84395 0.609259 0
M  V30 21283 O 1969.68 1.2966 1.44978 0
M  V30 21284 C 1969.97 3.30701 -1.42509 0
M  V30 21285 C 1969.82 3.38197 -2.96552 0
M  V30 21286 C 1971.14 4.26756 -1.07553 0
M  V30 21287 H 1968.26 0.666209 -0.315173 0
M  V30 21288 H 1970.9 1.30745 -1.37861 0
M  V30 21289 H 1969.05 3.75752 -0.987053 0
M  V30 21290 H 1970.72 3.01709 -3.48955 0
M  V30 21291 H 1968.96 2.78436 -3.3265 0
M  V30 21292 H 1969.64 4.41804 -3.30927 0
M  V30 21293 H 1972.11 3.89882 -1.45367 0
M  V30 21294 H 1970.99 5.28143 -1.49519 0
M  V30 21295 H 1971.25 4.42098 0.0137773 0
M  V30 21296 N 1970.31 0.904053 1.29092 0
M  V30 21297 C 1971.55 0.532992 1.95671 0
M  V30 21298 C 1971.89 -0.919194 1.71069 0
M  V30 21299 O 1971.16 -1.6523 1.02612 0
M  V30 21300 C 1971.44 0.831252 3.50374 0
M  V30 21301 C 1971.3 2.33546 3.84417 0
M  V30 21302 C 1972.62 0.320724 4.3893 0
M  V30 21303 H 1969.74 0.195117 0.710703 0
M  V30 21304 H 1972.38 1.13153 1.52632 0
M  V30 21305 H 1970.53 0.321853 3.87165 0
M  V30 21306 H 1972.2 2.91473 3.57549 0
M  V30 21307 H 1970.44 2.79442 3.31805 0
M  V30 21308 H 1971.11 2.49471 4.9241 0
M  V30 21309 H 1973.59 0.756974 4.09157 0
M  V30 21310 H 1972.47 0.55858 5.4605 0
M  V30 21311 H 1972.73 -0.778699 4.35188 0
M  V30 21312 N 1971.79 -1.4279 0.666995 0
M  V30 21313 C 1973.03 -2.01644 0.18603 0
M  V30 21314 C 1973.36 -1.52694 -1.20477 0
M  V30 21315 O 1972.62 -0.716418 -1.82115 0
M  V30 21316 C 1972.91 -3.57038 0.160763 0
M  V30 21317 C 1972.58 -4.25389 1.49517 0
M  V30 21318 C 1971.24 -4.43775 1.86056 0
M  V30 21319 C 1973.59 -4.63976 2.37436 0
M  V30 21320 C 1970.92 -4.98018 3.10152 0
M  V30 21321 C 1973.27 -5.19596 3.60837 0
M  V30 21322 C 1971.94 -5.36197 3.97554 0
M  V30 21323 H 1971.21 -0.737867 0.0680731 0
M  V30 21324 H 1973.86 -1.71081 0.860435 0
M  V30 21325 H 1972.16 -3.87223 -0.597132 0
M  V30 21326 H 1973.86 -4.00349 -0.228461 0
M  V30 21327 H 1970.45 -4.11432 1.20091 0
M  V30 21328 H 1974.63 -4.49451 2.10494 0
M  V30 21329 H 1969.89 -5.09057 3.38632 0
M  V30 21330 H 1974.06 -5.4844 4.2917 0
M  V30 21331 H 1971.69 -5.77992 4.9379 0
M  V30 21332 N 1973.26 -0.409806 -1.52179 0
M  V30 21333 C 1974.49 0.164995 -2.0594 0
M  V30 21334 C 1974.9 1.39354 -1.27973 0
M  V30 21335 O 1974.24 1.80802 -0.324989 0
M  V30 21336 C 1974.31 0.579659 -3.54796 0
M  V30 21337 C 1973.97 -0.538248 -4.53819 0
M  V30 21338 C 1974.97 -1.40203 -5.00639 0
M  V30 21339 C 1972.65 -0.711133 -4.97241 0
M  V30 21340 C 1974.65 -2.42363 -5.89524 0
M  V30 21341 C 1972.33 -1.73605 -5.85922 0
M  V30 21342 C 1973.33 -2.5907 -6.31959 0
M  V30 21343 O 1973.02 -3.59806 -7.18884 0
M  V30 21344 H 1972.75 0.0236196 -0.675587 0
M  V30 21345 H 1975.31 -0.579572 -1.97054 0
M  V30 21346 H 1973.54 1.37652 -3.61371 0
M  V30 21347 H 1975.22 1.08246 -3.912 0
M  V30 21348 H 1975.99 -1.27987 -4.67808 0
M  V30 21349 H 1971.87 -0.0555613 -4.60967 0
M  V30 21350 H 1975.41 -3.09106 -6.25379 0
M  V30 21351 H 1971.31 -1.85851 -6.18166 0
M  V30 21352 H 1972.08 -3.56058 -7.36997 0
M  V30 21353 N 1974.74 1.56975 -0.14025 0
M  V30 21354 C 1975.69 2.17699 0.819153 0
M  V30 21355 C 1976.68 1.13208 1.26017 0
M  V30 21356 O 1977.89 1.31472 1.22944 0
M  V30 21357 H 1974.26 0.696983 0.282345 0
M  V30 21358 H 1976.24 2.97058 0.28273 0
M  V30 21359 C 1974.98 2.80769 2.05096 0
M  V30 21360 H 1974.31 3.60882 1.72058 0
M  V30 21361 H 1975.75 3.26768 2.70183 0
M  V30 21362 C 1974.21 1.7893 2.85457 0
M  V30 21363 O 1974.74 1.25562 3.81572 0
M  V30 21364 N 1972.94 1.48386 2.4986 0
M  V30 21365 H 1972.49 1.91976 1.71765 0
M  V30 21366 H 1972.45 0.804935 3.03921 0
M  V30 21367 N 1976.22 -0.133539 1.57033 0
M  V30 21368 C 1977.5 -0.873327 1.75021 0
M  V30 21369 C 1977.88 -1.98735 0.71187 0
M  V30 21370 O 1977.22 -2.26937 -0.266823 0
M  V30 21371 C 1977.43 -1.40341 3.19539 0
M  V30 21372 C 1978.78 -1.86151 3.81619 0
M  V30 21373 O 1979.81 -1.50053 3.23052 0
M  V30 21374 O 1978.67 -2.52767 4.84532 0
M  V30 21375 H 1975.76 -0.413669 0.716105 0
M  V30 21376 H 1978.31 -0.118413 1.69286 0
M  V30 21377 H 1977.08 -0.60345 3.86619 0
M  V30 21378 H 1976.7 -2.22145 3.29754 0
M  V30 21379 N 1977.7 -1.52352 -0.403298 0
M  V30 21380 C 1978.64 -1.76112 -1.49175 0
M  V30 21381 C 1979.61 -0.603767 -1.54738 0
M  V30 21382 O 1980.8 -0.841951 -1.71219 0
M  V30 21383 C 1977.94 -1.92292 -2.86562 0
M  V30 21384 C 1977.05 -3.19955 -2.90263 0
M  V30 21385 C 1976.19 -3.26534 -4.18986 0
M  V30 21386 C 1975.23 -4.48376 -4.16684 0
M  V30 21387 N 1974.36 -4.52315 -5.36988 0
M  V30 21388 H 1979.2 -2.69006 -1.28217 0
M  V30 21389 H 1976.74 -1.3329 -0.622266 0
M  V30 21390 H 1978.7 -1.99657 -3.66324 0
M  V30 21391 H 1977.33 -1.02772 -3.06003 0
M  V30 21392 H 1976.38 -3.21733 -2.02958 0
M  V30 21393 H 1977.69 -4.09759 -2.84428 0
M  V30 21394 H 1976.85 -3.33003 -5.07143 0
M  V30 21395 H 1975.59 -2.34679 -4.27524 0
M  V30 21396 H 1974.59 -4.42048 -3.26916 0
M  V30 21397 H 1975.82 -5.41532 -4.0978 0
M  V30 21398 H 1973.76 -3.63346 -5.46183 0
M  V30 21399 H 1973.68 -5.35971 -5.3317 0
M  V30 21400 H 1974.95 -4.6302 -6.27082 0
M  V30 21401 N 1979.18 0.660885 -1.43074 0
M  V30 21402 C 1980.14 1.75586 -1.47317 0
M  V30 21403 C 1981.14 1.56744 -0.358871 0
M  V30 21404 O 1982.33 1.62782 -0.620299 0
M  V30 21405 C 1979.46 3.14377 -1.31833 0
M  V30 21406 H 1980.65 1.73207 -2.44825 0
M  V30 21407 H 1978.21 0.871828 -1.29726 0
M  V30 21408 H 1978.94 3.22373 -0.353027 0
M  V30 21409 H 1978.73 3.29457 -2.12604 0
M  V30 21410 H 1980.22 3.94238 -1.37718 0
M  V30 21411 N 1980.65 1.29477 0.898527 0
M  V30 21412 C 1981.88 1.20529 1.68783 0
M  V30 21413 C 1982.3 -0.230536 1.86682 0
M  V30 21414 O 1981.66 -1.1664 1.38798 0
M  V30 21415 C 1981.71 1.92501 3.04919 0
M  V30 21416 O 1980.81 1.24286 3.93226 0
M  V30 21417 H 1980.16 0.417586 0.516254 0
M  V30 21418 H 1982.69 1.71066 1.1224 0
M  V30 21419 H 1982.7 2.01001 3.55053 0
M  V30 21420 H 1981.37 2.96934 2.9121 0
M  V30 21421 H 1979.95 1.24052 3.51661 0
M  V30 21422 N 1982.13 -1.10905 1.11972 0
M  V30 21423 C 1983.06 -2.19168 0.805461 0
M  V30 21424 C 1984.04 -1.68557 -0.228623 0
M  V30 21425 O 1985.23 -1.93987 -0.0908778 0
M  V30 21426 C 1982.36 -3.4637 0.253951 0
M  V30 21427 C 1981.31 -4.10228 1.22054 0
M  V30 21428 C 1980.64 -5.32072 0.529483 0
M  V30 21429 C 1981.94 -4.54506 2.57336 0
M  V30 21430 H 1983.63 -2.45713 1.71071 0
M  V30 21431 H 1981.18 -1.18096 0.823969 0
M  V30 21432 H 1983.13 -4.21394 0.0218576 0
M  V30 21433 H 1981.86 -3.19301 -0.68662 0
M  V30 21434 H 1980.51 -3.37204 1.43836 0
M  V30 21435 H 1980.16 -5.01276 -0.416074 0
M  V30 21436 H 1979.86 -5.75748 1.17422 0
M  V30 21437 H 1981.39 -6.09831 0.306313 0
M  V30 21438 H 1982.8 -5.20826 2.3961 0
M  V30 21439 H 1981.2 -5.09015 3.17842 0
M  V30 21440 H 1982.27 -3.67671 3.16143 0
M  V30 21441 N 1983.61 -0.910886 -1.2861 0
M  V30 21442 C 1984.57 -0.401862 -2.2565 0
M  V30 21443 C 1985.57 0.470212 -1.53771 0
M  V30 21444 O 1986.76 0.273674 -1.72037 0
M  V30 21445 C 1983.9 0.424193 -3.38251 0
M  V30 21446 H 1985.09 -1.25903 -2.72192 0
M  V30 21447 H 1982.64 -0.690027 -1.40244 0
M  V30 21448 H 1983.38 1.30088 -2.97065 0
M  V30 21449 H 1983.16 -0.200837 -3.91585 0
M  V30 21450 H 1984.65 0.771267 -4.10416 0
M  V30 21451 N 1985.09 1.42434 -0.674558 0
M  V30 21452 C 1986.04 2.27984 0.0266764 0
M  V30 21453 C 1987.02 1.41072 0.773796 0
M  V30 21454 O 1988.21 1.64524 0.652748 0
M  V30 21455 C 1985.34 3.29092 0.977398 0
M  V30 21456 C 1984.43 4.23489 0.227634 0
M  V30 21457 N 1984.82 4.99945 -0.767357 0
M  V30 21458 C 1983.12 4.43558 0.466111 0
M  V30 21459 C 1983.82 5.68884 -1.21432 0
M  V30 21460 N 1982.8 5.40868 -0.544315 0
M  V30 21461 H 1986.6 2.84522 -0.736512 0
M  V30 21462 H 1984.11 1.54394 -0.503605 0
M  V30 21463 H 1986.11 3.89183 1.49474 0
M  V30 21464 H 1984.77 2.74116 1.74042 0
M  V30 21465 H 1985.78 5.05042 -1.14688 0
M  V30 21466 H 1982.46 3.99622 1.20865 0
M  V30 21467 H 1983.85 6.40221 -2.03881 0
M  V30 21468 N 1986.57 0.417871 1.51959 0
M  V30 21469 C 1987.5 -0.394222 2.30148 0
M  V30 21470 C 1988.48 -1.0384 1.34727 0
M  V30 21471 O 1989.66 -1.04575 1.63639 0
M  V30 21472 C 1986.79 -1.50639 3.1293 0
M  V30 21473 C 1985.75 -0.986759 4.1647 0
M  V30 21474 C 1985.07 -2.1932 4.8765 0
M  V30 21475 C 1986.37 -0.0347019 5.22288 0
M  V30 21476 H 1988.07 0.258228 2.98284 0
M  V30 21477 H 1985.61 0.125633 1.43451 0
M  V30 21478 H 1987.57 -2.08157 3.664 0
M  V30 21479 H 1986.29 -2.18685 2.42579 0
M  V30 21480 H 1984.95 -0.43393 3.64023 0
M  V30 21481 H 1984.6 -2.8594 4.1382 0
M  V30 21482 H 1984.3 -1.85199 5.57652 0
M  V30 21483 H 1985.82 -2.77427 5.43936 0
M  V30 21484 H 1987.23 -0.518951 5.70946 0
M  V30 21485 H 1985.63 0.218124 5.99703 0
M  V30 21486 H 1986.7 0.907947 4.76324 0
M  V30 21487 N 1988.04 -1.56898 0.148573 0
M  V30 21488 C 1988.97 -2.19852 -0.786585 0
M  V30 21489 C 1989.96 -1.14723 -1.2559 0
M  V30 21490 O 1991.14 -1.43071 -1.31317 0
M  V30 21491 C 1988.27 -2.82137 -2.02524 0
M  V30 21492 C 1987.22 -3.93108 -1.69264 0
M  V30 21493 C 1986.55 -4.42335 -3.00407 0
M  V30 21494 C 1987.85 -5.13807 -0.938092 0
M  V30 21495 H 1989.54 -2.98252 -0.261903 0
M  V30 21496 H 1987.09 -1.43461 -0.124531 0
M  V30 21497 H 1989.04 -3.24845 -2.68428 0
M  V30 21498 H 1987.77 -2.01071 -2.57368 0
M  V30 21499 H 1986.43 -3.5102 -1.05739 0
M  V30 21500 H 1986.07 -3.58089 -3.53244 0
M  V30 21501 H 1985.77 -5.17185 -2.78915 0
M  V30 21502 H 1987.3 -4.87714 -3.67378 0
M  V30 21503 H 1988.71 -5.53349 -1.49924 0
M  V30 21504 H 1987.11 -5.94429 -0.823062 0
M  V30 21505 H 1988.18 -4.8485 0.0698825 0
M  V30 21506 N 1989.52 0.125209 -1.57102 0
M  V30 21507 C 1990.8 0.864033 -1.75482 0
M  V30 21508 C 1991.18 1.98355 -0.722399 0
M  V30 21509 O 1990.53 2.27075 0.254784 0
M  V30 21510 C 1990.74 1.38644 -3.20279 0
M  V30 21511 C 1992.09 1.84125 -3.82601 0
M  V30 21512 O 1993.11 1.48338 -3.23843 0
M  V30 21513 O 1991.97 2.50194 -4.85866 0
M  V30 21514 H 1989.06 0.409865 -0.718289 0
M  V30 21515 H 1991.61 0.109434 -1.69347 0
M  V30 21516 H 1990.38 0.582938 -3.86933 0
M  V30 21517 H 1990 2.20393 -3.30927 0
M  V30 21518 N 1991 1.52564 0.395213 0
M  V30 21519 C 1991.93 1.71641 1.50382 0
M  V30 21520 C 1992.91 0.564147 1.525 0
M  V30 21521 O 1994.1 0.793198 1.70999 0
M  V30 21522 C 1991.22 1.76838 2.8887 0
M  V30 21523 C 1990.27 2.98527 3.04605 0
M  V30 21524 S 1991.1 4.5862 2.76456 0
M  V30 21525 C 1992.26 4.66624 4.17149 0
M  V30 21526 H 1992.49 2.65402 1.33973 0
M  V30 21527 H 1990.02 1.42778 0.587689 0
M  V30 21528 H 1991.98 1.80518 3.68678 0
M  V30 21529 H 1990.64 0.841802 3.02609 0
M  V30 21530 H 1989.84 2.98686 4.05959 0
M  V30 21531 H 1989.44 2.92806 2.32681 0
M  V30 21532 H 1991.73 4.44856 5.10988 0
M  V30 21533 H 1992.67 5.68608 4.22008 0
M  V30 21534 H 1993.08 3.95522 4.02768 0
M  V30 21535 N 1992.48 -0.653289 1.43422 0
M  V30 21536 C 1993.41 -1.77818 1.43025 0
M  V30 21537 C 1994.39 -1.59962 0.291706 0
M  V30 21538 O 1995.57 -1.82146 0.485285 0
M  V30 21539 C 1992.7 -3.15116 1.24175 0
M  V30 21540 C 1991.75 -3.51674 2.41305 0
M  V30 21541 S 1992.58 -3.51656 4.03854 0
M  V30 21542 C 1993.74 -4.91612 3.87387 0
M  V30 21543 H 1993.97 -1.77884 2.38211 0
M  V30 21544 H 1991.5 -0.825924 1.30453 0
M  V30 21545 H 1993.46 -3.94357 1.13987 0
M  V30 21546 H 1992.12 -3.12612 0.30538 0
M  V30 21547 H 1991.31 -4.51526 2.2392 0
M  V30 21548 H 1990.92 -2.79845 2.48118 0
M  V30 21549 H 1993.21 -5.80268 3.49708 0
M  V30 21550 H 1994.15 -5.14047 4.86992 0
M  V30 21551 H 1994.56 -4.65143 3.19847 0
M  V30 21552 N 1993.96 -1.29952 -0.891648 0
M  V30 21553 C 1994.9 -1.15767 -1.99667 0
M  V30 21554 C 1995.87 -0.0488826 -1.66028 0
M  V30 21555 O 1997.06 -0.217864 -1.89552 0
M  V30 21556 C 1994.2 -0.848553 -3.34505 0
M  V30 21557 C 1993.31 -2.03857 -3.80876 0
M  V30 21558 C 1992.45 -1.66812 -5.04328 0
M  V30 21559 C 1991.49 -2.82348 -5.4309 0
M  V30 21560 N 1990.62 -2.45645 -6.57726 0
M  V30 21561 H 1995.46 -2.10304 -2.11131 0
M  V30 21562 H 1993 -1.04641 -1.03386 0
M  V30 21563 H 1994.96 -0.649983 -4.12106 0
M  V30 21564 H 1993.59 0.059928 -3.22744 0
M  V30 21565 H 1992.64 -2.34859 -2.99241 0
M  V30 21566 H 1993.95 -2.90402 -4.05547 0
M  V30 21567 H 1993.11 -1.43291 -5.89536 0
M  V30 21568 H 1991.84 -0.774269 -4.81515 0
M  V30 21569 H 1990.85 -3.06542 -4.56412 0
M  V30 21570 H 1992.07 -3.72409 -5.6788 0
M  V30 21571 H 1990.02 -1.58757 -6.365 0
M  V30 21572 H 1989.94 -3.25722 -6.82232 0
M  V30 21573 H 1991.21 -2.25463 -7.46181 0
M  V30 21574 N 1995.44 1.1031 -1.12559 0
M  V30 21575 C 1996.4 2.14869 -0.79773 0
M  V30 21576 C 1997.4 1.59691 0.188521 0
M  V30 21577 O 1998.59 1.7416 -0.037433 0
M  V30 21578 C 1995.72 3.40394 -0.185665 0
M  V30 21579 H 1996.91 2.45384 -1.72415 0
M  V30 21580 H 1994.47 1.25694 -0.929011 0
M  V30 21581 H 1995.2 3.15499 0.750409 0
M  V30 21582 H 1994.99 3.81731 -0.895771 0
M  V30 21583 H 1996.48 4.17591 0.0271848 0
M  V30 21584 N 1996.91 0.917694 1.28125 0
M  V30 21585 C 1997.88 0.413823 2.25433 0
M  V30 21586 C 1998.88 -0.46205 1.54019 0
M  V30 21587 O 2000.07 -0.264546 1.7218 0
M  V30 21588 C 1997.2 -0.406249 3.38471 0
M  V30 21589 H 1998.39 1.27345 2.7152 0
M  V30 21590 H 1995.94 0.697455 1.39876 0
M  V30 21591 H 1996.68 -1.28511 2.97751 0
M  V30 21592 H 1996.46 0.221601 3.91473 0
M  V30 21593 H 1997.95 -0.749491 4.10819 0
M  V30 21594 N 1998.39 -1.42074 0.682102 0
M  V30 21595 C 1999.81 -1.55662 0.352347 0
M  V30 21596 C 2000.01 -1.66032 -1.14174 0
M  V30 21597 O 1999.06 -1.63128 -1.92732 0
M  V30 21598 C 2000.38 -2.80285 1.08907 0
M  V30 21599 C 2001.92 -2.94066 1.0721 0
M  V30 21600 C 2002.4 -4.2156 1.7903 0
M  V30 21601 N 2003.89 -4.28488 1.75933 0
M  V30 21602 C 2004.63 -5.25968 2.28354 0
M  V30 21603 N 2004.12 -6.29557 2.89188 0
M  V30 21604 N 2005.91 -5.17815 2.18686 0
M  V30 21605 H 1998.07 -1.33588 1.65131 0
M  V30 21606 H 2000.33 -0.643549 0.696096 0
M  V30 21607 H 2000.03 -2.78786 2.14409 0
M  V30 21608 H 1999.91 -3.71399 0.658975 0
M  V30 21609 H 2002.3 -2.95089 0.0253867 0
M  V30 21610 H 2002.38 -2.04163 1.54114 0
M  V30 21611 H 2002.02 -4.21298 2.83673 0
M  V30 21612 H 2001.95 -5.10411 1.2957 0
M  V30 21613 H 2004.44 -3.54257 1.31568 0
M  V30 21614 H 2004.75 -7.00306 3.26789 0
M  V30 21615 H 2003.1 -6.30098 2.9326 0
M  V30 21616 H 2006.29 -4.3581 1.70843 0
M  V30 21617 H 2006.46 -5.9362 2.59845 0
M  V30 21618 N 1999.87 -0.425924 -1.51735 0
M  V30 21619 C 2001.15 0.203721 -1.94536 0
M  V30 21620 C 2001.53 1.61124 -1.3639 0
M  V30 21621 O 2000.87 2.21871 -0.54638 0
M  V30 21622 C 2001.08 0.193041 -3.48466 0
M  V30 21623 C 2002.43 0.404204 -4.22672 0
M  V30 21624 O 2003.46 0.271662 -3.55163 0
M  V30 21625 O 2002.32 0.666926 -5.42415 0
M  V30 21626 H 1999.41 0.136115 -0.815722 0
M  V30 21627 H 2001.96 -0.48308 -1.62679 0
M  V30 21628 H 2000.73 -0.791421 -3.83213 0
M  V30 21629 H 2000.35 0.923235 -3.86733 0
M  V30 21630 N 2001.35 1.56817 -0.156891 0
M  V30 21631 C 2002.6 1.96051 0.490764 0
M  V30 21632 C 2002.92 1.04326 1.64746 0
M  V30 21633 O 2002.19 0.106736 1.95609 0
M  V30 21634 H 2000.77 0.72391 0.184293 0
M  V30 21635 H 2003.43 1.93482 -0.234704 0
M  V30 21636 H 2002.52 3.00007 0.86036 0
M  V30 21637 N 2002.83 -0.116876 1.57166 0
M  V30 21638 C 2004.07 -0.825509 1.85238 0
M  V30 21639 C 2004.4 -1.79427 0.742936 0
M  V30 21640 O 2003.68 -1.92873 -0.251043 0
M  V30 21641 C 2003.96 -1.57353 3.23901 0
M  V30 21642 C 2003.82 -0.624227 4.45447 0
M  V30 21643 C 2005.13 -2.52922 3.60164 0
M  V30 21644 H 2002.25 -0.298653 0.673777 0
M  V30 21645 H 2004.9 -0.0897002 1.89788 0
M  V30 21646 H 2003.05 -2.20078 3.20153 0
M  V30 21647 H 2004.72 -0.00566556 4.613 0
M  V30 21648 H 2002.96 0.0640779 4.33753 0
M  V30 21649 H 2003.63 -1.1843 5.39146 0
M  V30 21650 H 2006.11 -2.00302 3.64717 0
M  V30 21651 H 2004.98 -3.02291 4.58161 0
M  V30 21652 H 2005.24 -3.35684 2.87695 0
M  V30 21653 N 2004.3 -1.52772 -0.387116 0
M  V30 21654 C 2005.21 -1.8061 -1.49724 0
M  V30 21655 C 2006.23 -0.692981 -1.59605 0
M  V30 21656 O 2007.41 -0.98077 -1.75906 0
M  V30 21657 C 2004.47 -1.97083 -2.85236 0
M  V30 21658 C 2003.53 -3.20997 -2.8506 0
M  V30 21659 C 2002.76 -3.36675 -4.14108 0
M  V30 21660 O 2002.99 -2.57118 -5.09163 0
M  V30 21661 O 2001.92 -4.29938 -4.21233 0
M  V30 21662 H 2005.75 -2.7488 -1.2913 0
M  V30 21663 H 2003.33 -1.37886 -0.57514 0
M  V30 21664 H 2005.21 -2.09614 -3.65568 0
M  V30 21665 H 2003.89 -1.06002 -3.05852 0
M  V30 21666 H 2002.8 -3.13907 -2.03503 0
M  V30 21667 H 2004.13 -4.1193 -2.69396 0
M  V30 21668 N 2005.78 0.645673 -1.43767 0
M  V30 21669 C 2007.06 1.40331 -1.3626 0
M  V30 21670 C 2007.44 2.11095 -0.0141031 0
M  V30 21671 O 2006.79 2.05321 1.00277 0
M  V30 21672 C 2007 2.38177 -2.55094 0
M  V30 21673 C 2008.34 3.01949 -2.98516 0
M  V30 21674 O 2009.37 2.48504 -2.55195 0
M  V30 21675 O 2008.23 3.98868 -3.73586 0
M  V30 21676 H 2005.32 0.627337 -0.538866 0
M  V30 21677 H 2007.87 0.671948 -1.5583 0
M  V30 21678 H 2006.64 1.84886 -3.44866 0
M  V30 21679 H 2006.26 3.18752 -2.37662 0
M  V30 21680 N 2007.26 1.30423 0.884744 0
M  V30 21681 C 2008.21 1.13434 1.97779 0
M  V30 21682 C 2009.19 0.0494483 1.60824 0
M  V30 21683 O 2010.39 0.272793 1.74885 0
M  V30 21684 C 2007.51 0.828489 3.33153 0
M  V30 21685 C 2006.6 1.95365 3.76422 0
M  V30 21686 N 2006.99 3.19903 3.91785 0
M  V30 21687 C 2005.29 1.85007 4.05818 0
M  V30 21688 C 2005.99 3.93408 4.28492 0
M  V30 21689 N 2004.97 3.2146 4.38366 0
M  V30 21690 H 2008.77 2.07889 2.07748 0
M  V30 21691 H 2006.28 1.21765 1.07457 0
M  V30 21692 H 2008.28 0.687799 4.11187 0
M  V30 21693 H 2006.94 -0.107985 3.2452 0
M  V30 21694 H 2007.95 3.55189 3.7691 0
M  V30 21695 H 2004.63 0.987286 4.05659 0
M  V30 21696 H 2006.02 5.00656 4.48099 0
M  V30 21697 N 2008.74 -1.09711 1.13142 0
M  V30 21698 C 2009.96 -1.86136 0.914785 0
M  V30 21699 C 2010.39 -1.80448 -0.531035 0
M  V30 21700 O 2009.75 -1.17983 -1.37658 0
M  V30 21701 C 2009.79 -3.32164 1.40356 0
M  V30 21702 O 2008.9 -4.08203 0.586881 0
M  V30 21703 H 2008.24 -0.577287 0.328079 0
M  V30 21704 H 2010.77 -1.38563 1.50537 0
M  V30 21705 H 2010.78 -3.83013 1.40589 0
M  V30 21706 H 2009.45 -3.35619 2.45628 0
M  V30 21707 H 2008.03 -3.67153 0.652163 0
M  V30 21708 N 2010.22 -0.924476 -1.27637 0
M  V30 21709 C 2011.63 -0.608255 -1.76514 0
M  V30 21710 C 2011.98 0.87656 -1.7553 0
M  V30 21711 O 2011.1 1.68587 -1.35674 0
M  V30 21712 C 2011.7 -1.09738 -3.20536 0
M  V30 21713 C 2010.26 -0.831881 -3.67092 0
M  V30 21714 C 2009.4 -1.25795 -2.47125 0
M  V30 21715 H 2012.36 -1.1046 -1.13949 0
M  V30 21716 H 2012.38 -0.443602 -3.77905 0
M  V30 21717 H 2011.89 -2.17806 -3.21219 0
M  V30 21718 H 2009.99 0.235141 -3.71857 0
M  V30 21719 H 2010.1 -1.44716 -4.56721 0
M  V30 21720 H 2008.47 -0.676541 -2.4555 0
M  V30 21721 H 2009.25 -2.34721 -2.50521 0
M  V30 21722 N 2011.69 1.41711 -0.689627 0
M  V30 21723 C 2012.62 2.33474 -0.0348045 0
M  V30 21724 C 2013.61 1.51494 0.773533 0
M  V30 21725 O 2014.79 1.8005 0.727705 0
M  V30 21726 C 2011.92 3.35259 0.906573 0
M  V30 21727 C 2010.87 4.27505 0.205762 0
M  V30 21728 C 2010.2 5.19616 1.26109 0
M  V30 21729 C 2011.5 5.14056 -0.92431 0
M  V30 21730 H 2013.19 2.88481 -0.801208 0
M  V30 21731 H 2010.74 1.3871 -0.386738 0
M  V30 21732 H 2012.69 3.98375 1.37386 0
M  V30 21733 H 2011.42 2.78589 1.70457 0
M  V30 21734 H 2010.08 3.65804 -0.241437 0
M  V30 21735 H 2009.72 4.59264 2.05147 0
M  V30 21736 H 2009.42 5.82167 0.797221 0
M  V30 21737 H 2010.95 5.85609 1.72901 0
M  V30 21738 H 2012.36 5.70774 -0.537573 0
M  V30 21739 H 2010.76 5.85517 -1.3149 0
M  V30 21740 H 2011.83 4.51574 -1.7666 0
M  V30 21741 N 2013.17 0.433965 1.51507 0
M  V30 21742 C 2014.11 -0.424335 2.2422 0
M  V30 21743 C 2015.08 -1.02751 1.26019 0
M  V30 21744 O 2016.27 -1.07062 1.55145 0
M  V30 21745 C 2013.39 -1.59113 2.98999 0
M  V30 21746 C 2012.44 -1.10896 4.1183 0
M  V30 21747 S 2013.27 -0.0537502 5.35473 0
M  V30 21748 C 2014.43 -1.22529 6.13789 0
M  V30 21749 H 2014.66 0.192998 2.96673 0
M  V30 21750 H 2012.2 0.218455 1.52847 0
M  V30 21751 H 2014.15 -2.26006 3.42683 0
M  V30 21752 H 2012.81 -2.17987 2.26143 0
M  V30 21753 H 2012.01 -1.9814 4.63419 0
M  V30 21754 H 2011.61 -0.518327 3.70391 0
M  V30 21755 H 2013.9 -2.14429 6.42671 0
M  V30 21756 H 2014.84 -0.749446 7.04123 0
M  V30 21757 H 2015.25 -1.46233 5.4523 0
M  V30 21758 N 2014.65 -1.56732 0.165206 0
M  V30 21759 C 2015.88 -2.00777 -0.487041 0
M  V30 21760 C 2016.29 -1.04447 -1.57758 0
M  V30 21761 O 2015.63 -0.0363979 -1.83664 0
M  V30 21762 C 2015.69 -3.41252 -1.1308 0
M  V30 21763 C 2015.36 -4.56635 -0.182666 0
M  V30 21764 C 2016.35 -5.16465 0.596665 0
M  V30 21765 C 2014.04 -5.02236 -0.0802703 0
M  V30 21766 C 2016.03 -6.2032 1.46565 0
M  V30 21767 C 2013.72 -6.05942 0.792308 0
M  V30 21768 C 2014.72 -6.64855 1.56386 0
M  V30 21769 O 2014.41 -7.66551 2.42187 0
M  V30 21770 H 2014.14 -0.663451 -0.129647 0
M  V30 21771 H 2016.69 -2.03719 0.262233 0
M  V30 21772 H 2014.92 -3.35204 -1.92808 0
M  V30 21773 H 2016.61 -3.6929 -1.68463 0
M  V30 21774 H 2017.38 -4.82121 0.527694 0
M  V30 21775 H 2013.26 -4.56097 -0.670586 0
M  V30 21776 H 2016.8 -6.66232 2.06834 0
M  V30 21777 H 2012.7 -6.39712 0.862504 0
M  V30 21778 H 2013.47 -7.83849 2.35635 0
M  V30 21779 N 2016.13 0.10854 -1.57226 0
M  V30 21780 C 2017.08 1.13867 -1.97531 0
M  V30 21781 C 2018.06 1.36505 -0.851775 0
M  V30 21782 O 2019.25 1.37422 -1.11554 0
M  V30 21783 C 2016.38 2.4625 -2.39198 0
M  V30 21784 C 2015.47 2.27043 -3.58207 0
M  V30 21785 N 2015.86 1.77671 -4.73568 0
M  V30 21786 C 2014.16 2.5766 -3.64043 0
M  V30 21787 C 2014.86 1.72418 -5.5556 0
M  V30 21788 N 2013.84 2.17145 -4.98346 0
M  V30 21789 H 2017.64 0.749664 -2.84178 0
M  V30 21790 H 2015.15 0.31615 -1.59293 0
M  V30 21791 H 2017.15 3.20769 -2.66295 0
M  V30 21792 H 2015.81 2.859 -1.5392 0
M  V30 21793 H 2016.82 1.47065 -4.96581 0
M  V30 21794 H 2013.5 3.00925 -2.89397 0
M  V30 21795 H 2014.89 1.35411 -6.58113 0
M  V30 21796 N 2017.61 1.52975 0.379009 0
M  V30 21797 C 2018.86 1.67728 1.12028 0
M  V30 21798 C 2019.17 0.428628 1.90846 0
M  V30 21799 O 2020.37 0.456461 2.67635 0
M  V30 21800 C 2018.83 2.96454 2.04066 0
M  V30 21801 C 2018.44 4.28534 1.30624 0
M  V30 21802 C 2020.18 3.20574 2.78267 0
M  V30 21803 C 2018.09 5.4836 2.21485 0
M  V30 21804 H 2017.02 0.624902 0.421917 0
M  V30 21805 H 2019.67 1.79474 0.382288 0
M  V30 21806 H 2018.05 2.78478 2.81542 0
M  V30 21807 H 2019.23 4.57097 0.583043 0
M  V30 21808 H 2017.54 4.10754 0.683407 0
M  V30 21809 H 2020.14 4.07279 3.4645 0
M  V30 21810 H 2020.48 2.36066 3.42898 0
M  V30 21811 H 2021.01 3.39162 2.0788 0
M  V30 21812 H 2017.75 6.35305 1.61455 0
M  V30 21813 H 2017.27 5.24095 2.91692 0
M  V30 21814 H 2018.95 5.82626 2.81346 0
M  V30 21815 N 2019.08 -0.63804 1.44107 0
M  V30 21816 C 2020.31 -1.43004 1.50215 0
M  V30 21817 C 2020.73 -1.87678 0.125903 0
M  V30 21818 O 2020.09 -1.58316 -0.883508 0
M  V30 21819 C 2020.14 -2.63112 2.46585 0
M  V30 21820 O 2019.24 -3.62706 1.9626 0
M  V30 21821 H 2018.59 -0.428173 0.507508 0
M  V30 21822 H 2021.12 -0.779402 1.89173 0
M  V30 21823 H 2021.13 -3.10742 2.64393 0
M  V30 21824 H 2019.8 -2.29941 3.46554 0
M  V30 21825 H 2018.38 -3.21932 1.88186 0
M  V30 21826 N 2020.56 -1.3089 -0.877815 0
M  V30 21827 C 2021.49 -1.20459 -2.0003 0
M  V30 21828 C 2022.47 -0.0935765 -1.69842 0
M  V30 21829 O 2023.66 -0.276838 -1.92217 0
M  V30 21830 C 2020.79 -0.903041 -3.35354 0
M  V30 21831 C 2019.74 -1.97277 -3.79823 0
M  V30 21832 C 2019.07 -1.52407 -5.12519 0
M  V30 21833 C 2020.37 -3.38484 -3.97776 0
M  V30 21834 H 2022.06 -2.14367 -2.09014 0
M  V30 21835 H 2019.61 -1.03203 -1.00425 0
M  V30 21836 H 2021.56 -0.816699 -4.1341 0
M  V30 21837 H 2020.29 0.0717143 -3.26521 0
M  V30 21838 H 2018.94 -2.04887 -3.04001 0
M  V30 21839 H 2018.59 -0.537386 -5.00121 0
M  V30 21840 H 2018.29 -2.23964 -5.43244 0
M  V30 21841 H 2019.82 -1.45165 -5.93093 0
M  V30 21842 H 2021.23 -3.33593 -4.6625 0
M  V30 21843 H 2019.63 -4.0819 -4.39887 0
M  V30 21844 H 2020.7 -3.79847 -3.01403 0
M  V30 21845 N 2022.04 1.0911 -1.13723 0
M  V30 21846 C 2023.29 1.81621 -0.902319 0
M  V30 21847 C 2023.62 1.85646 0.570009 0
M  V30 21848 O 2022.89 1.32706 1.42195 0
M  V30 21849 C 2023.18 3.27604 -1.49492 0
M  V30 21850 C 2023.03 3.3183 -3.03659 0
M  V30 21851 C 2024.35 4.24378 -1.16581 0
M  V30 21852 H 2021.47 0.659374 -0.329233 0
M  V30 21853 H 2024.11 1.27792 -1.40603 0
M  V30 21854 H 2022.26 3.73574 -1.06653 0
M  V30 21855 H 2023.93 2.94239 -3.55276 0
M  V30 21856 H 2022.18 2.71317 -3.38481 0
M  V30 21857 H 2022.85 4.34686 -3.40224 0
M  V30 21858 H 2025.32 3.8671 -1.53604 0
M  V30 21859 H 2024.2 5.24853 -1.60688 0
M  V30 21860 H 2024.46 4.42028 -0.0800013 0
M  V30 21861 N 2023.52 0.931232 1.27145 0
M  V30 21862 C 2024.8 0.491789 1.89317 0
M  V30 21863 C 2025.18 -1.03026 1.84252 0
M  V30 21864 O 2024.52 -1.88596 1.29011 0
M  V30 21865 C 2024.73 1.04187 3.33086 0
M  V30 21866 C 2026.08 1.1045 4.09983 0
M  V30 21867 O 2027.11 0.991747 3.42115 0
M  V30 21868 O 2025.96 1.27861 5.31332 0
M  V30 21869 H 2023.06 0.158746 0.811621 0
M  V30 21870 H 2025.6 1.02315 1.35387 0
M  V30 21871 H 2024.38 2.08566 3.31083 0
M  V30 21872 H 2024 0.492365 3.9454 0
M  V30 21873 N 2025 -1.41343 0.697132 0
M  V30 21874 C 2025.93 -2.33452 0.0471857 0
M  V30 21875 C 2026.91 -1.51902 -0.765488 0
M  V30 21876 O 2028.09 -1.80434 -0.718146 0
M  V30 21877 C 2025.22 -3.35735 -0.888781 0
M  V30 21878 C 2024.18 -4.27608 -0.183088 0
M  V30 21879 C 2023.5 -5.20277 -1.23352 0
M  V30 21880 C 2024.8 -5.13559 0.951558 0
M  V30 21881 H 2026.5 -2.88052 0.816496 0
M  V30 21882 H 2024.04 -1.38502 0.394089 0
M  V30 21883 H 2026 -3.99098 -1.35272 0
M  V30 21884 H 2024.72 -2.79489 -1.68977 0
M  V30 21885 H 2023.38 -3.65671 0.260833 0
M  V30 21886 H 2023.03 -4.60346 -2.02708 0
M  V30 21887 H 2022.73 -5.82581 -0.766336 0
M  V30 21888 H 2024.25 -5.86517 -1.69793 0
M  V30 21889 H 2025.67 -5.70481 0.567835 0
M  V30 21890 H 2024.06 -5.84812 1.34593 0
M  V30 21891 H 2025.13 -4.50631 1.79053 0
M  V30 21892 N 2026.48 -0.441993 -1.51275 0
M  V30 21893 C 2027.41 0.357557 -2.30746 0
M  V30 21894 C 2028.39 1.01683 -1.36362 0
M  V30 21895 O 2029.57 1.01958 -1.65282 0
M  V30 21896 C 2026.7 1.45642 -3.15287 0
M  V30 21897 C 2025.66 0.920377 -4.17987 0
M  V30 21898 C 2024.98 2.11534 -4.91078 0
M  V30 21899 C 2026.28 -0.0483941 -5.22278 0
M  V30 21900 H 2027.98 -0.30565 -2.97836 0
M  V30 21901 H 2025.52 -0.148438 -1.43233 0
M  V30 21902 H 2027.47 2.02301 -3.69665 0
M  V30 21903 H 2026.2 2.14798 -2.46027 0
M  V30 21904 H 2024.86 0.375962 -3.64667 0
M  V30 21905 H 2024.51 2.7932 -4.18317 0
M  V30 21906 H 2024.21 1.76303 -5.60527 0
M  V30 21907 H 2025.73 2.68738 -5.48281 0
M  V30 21908 H 2027.14 0.428053 -5.717 0
M  V30 21909 H 2025.54 -0.313504 -5.99281 0
M  V30 21910 H 2026.61 -0.983611 -4.74819 0
M  V30 21911 N 2027.95 1.56642 -0.173515 0
M  V30 21912 C 2028.92 2.16857 0.742008 0
M  V30 21913 C 2029.92 1.11721 1.1565 0
M  V30 21914 O 2031.11 1.37223 1.0731 0
M  V30 21915 C 2028.24 2.7532 2.01026 0
M  V30 21916 H 2029.43 2.99108 0.217769 0
M  V30 21917 H 2026.98 1.56115 0.0760536 0
M  V30 21918 H 2027.72 1.96808 2.57754 0
M  V30 21919 H 2027.5 3.52264 1.722 0
M  V30 21920 H 2028.99 3.21626 2.66358 0
M  V30 21921 N 2029.43 -0.1002 1.57281 0
M  V30 21922 C 2030.39 -1.10612 2.00743 0
M  V30 21923 C 2031.39 -1.33241 0.900199 0
M  V30 21924 O 2032.58 -1.2944 1.1658 0
M  V30 21925 C 2029.72 -2.45642 2.36375 0
M  V30 21926 H 2030.91 -0.732144 2.90826 0
M  V30 21927 H 2028.46 -0.345091 1.52443 0
M  V30 21928 H 2029.2 -2.87925 1.4923 0
M  V30 21929 H 2028.98 -2.30567 3.17146 0
M  V30 21930 H 2030.47 -3.18002 2.70674 0
M  V30 21931 N 2030.91 -1.53174 -0.370891 0
M  V30 21932 C 2032.15 -1.70797 -1.12284 0
M  V30 21933 C 2032.51 -0.44749 -1.86712 0
M  V30 21934 O 2033.71 -0.500342 -2.64102 0
M  V30 21935 C 2031.99 -2.92004 -2.06078 0
M  V30 21936 S 2033.54 -3.30307 -2.88864 0
M  V30 21937 H 2030.36 -0.601048 -0.379819 0
M  V30 21938 H 2032.96 -1.91263 -0.404795 0
M  V30 21939 H 2031.67 -3.81946 -1.50152 0
M  V30 21940 H 2031.2 -2.73925 -2.82363 0
M  V30 21941 H 2033.21 -2.81906 -4.08342 0
M  V30 21942 N 2032.39 0.630389 -1.44443 0
M  V30 21943 C 2033.35 1.72422 -1.51008 0
M  V30 21944 C 2034.35 1.55948 -0.392038 0
M  V30 21945 O 2035.54 1.61429 -0.654688 0
M  V30 21946 C 2032.67 3.1151 -1.38472 0
M  V30 21947 H 2033.87 1.67975 -2.48444 0
M  V30 21948 H 2031.42 0.844115 -1.31546 0
M  V30 21949 H 2032.15 3.21551 -0.421327 0
M  V30 21950 H 2031.94 3.24874 -2.19544 0
M  V30 21951 H 2033.43 3.91228 -1.46049 0
M  V30 21952 N 2033.87 1.31354 0.870861 0
M  V30 21953 C 2034.78 1.20887 2.01056 0
M  V30 21954 C 2035.79 0.125768 1.73545 0
M  V30 21955 O 2036.97 0.3434 1.98451 0
M  V30 21956 C 2034.03 0.915879 3.34384 0
M  V30 21957 C 2033.09 2.08579 3.75225 0
M  V30 21958 C 2032.33 1.80668 5.0219 0
M  V30 21959 O 2032.55 0.741377 5.65561 0
M  V30 21960 O 2031.48 2.66319 5.39776 0
M  V30 21961 H 2035.31 2.16661 2.12819 0
M  V30 21962 H 2032.89 1.11084 0.999031 0
M  V30 21963 H 2034.78 0.768289 4.14337 0
M  V30 21964 H 2033.45 -0.0118355 3.23698 0
M  V30 21965 H 2032.36 2.28877 2.95916 0
M  V30 21966 H 2033.69 2.99572 3.90535 0
M  V30 21967 N 2035.34 -1.08505 1.143 0
M  V30 21968 C 2036.59 -1.80514 0.908791 0
M  V30 21969 C 2036.91 -1.86599 -0.566196 0
M  V30 21970 O 2036.18 -1.35837 -1.41156 0
M  V30 21971 H 2034.76 -0.668553 0.333235 0
M  V30 21972 H 2037.42 -1.31188 1.44138 0
M  V30 21973 H 2036.52 -2.83375 1.30786 0
M  V30 21974 N 2036.82 -0.937962 -1.26649 0
M  V30 21975 C 2037.77 -0.443717 -2.26495 0
M  V30 21976 C 2038.74 0.494894 -1.58556 0
M  V30 21977 O 2039.92 0.411807 -1.86303 0
M  V30 21978 C 2037.06 0.287974 -3.43896 0
M  V30 21979 C 2036.18 -0.685936 -4.2652 0
M  V30 21980 C 2035.31 0.0666303 -5.31158 0
M  V30 21981 C 2034.35 -0.899313 -6.05457 0
M  V30 21982 N 2033.49 -0.17871 -7.01873 0
M  V30 21983 H 2038.33 -1.3001 -2.68144 0
M  V30 21984 H 2035.86 -0.652331 -1.31845 0
M  V30 21985 H 2037.82 0.728613 -4.10788 0
M  V30 21986 H 2036.45 1.10852 -3.03169 0
M  V30 21987 H 2035.5 -1.24509 -3.59446 0
M  V30 21988 H 2036.82 -1.42373 -4.7805 0
M  V30 21989 H 2035.97 0.566702 -6.04047 0
M  V30 21990 H 2034.71 0.837326 -4.80458 0
M  V30 21991 H 2033.71 -1.41054 -5.31398 0
M  V30 21992 H 2034.94 -1.66996 -6.58247 0
M  V30 21993 H 2032.89 0.573553 -6.53488 0
M  V30 21994 H 2032.8 -0.855891 -7.51139 0
M  V30 21995 H 2034.07 0.300374 -7.78921 0
M  V30 21996 N 2038.3 1.40971 -0.704618 0
M  V30 21997 C 2039.25 2.32576 -0.0337552 0
M  V30 21998 C 2040.24 1.51452 0.758852 0
M  V30 21999 O 2041.45 1.67327 0.663455 0
M  V30 22000 H 2037.82 0.751959 0.00788634 0
M  V30 22001 H 2039.79 2.86819 -0.823248 0
M  V30 22002 C 2038.54 3.36326 0.882061 0
M  V30 22003 H 2037.87 3.98807 0.281575 0
M  V30 22004 H 2039.31 4.02942 1.31962 0
M  V30 22005 C 2037.76 2.70931 2.00245 0
M  V30 22006 O 2038.29 2.56412 3.09218 0
M  V30 22007 N 2036.5 2.29485 1.78284 0
M  V30 22008 H 2036.05 2.41494 0.89657 0
M  V30 22009 H 2036.01 1.86067 2.5343 0
M  V30 22010 N 2039.78 0.45001 1.51039 0
M  V30 22011 C 2041.02 -0.112357 2.02489 0
M  V30 22012 C 2041.36 -1.41249 1.33276 0
M  V30 22013 O 2040.63 -1.89183 0.451679 0
M  V30 22014 C 2040.92 -0.318025 3.58693 0
M  V30 22015 C 2040.77 1.00164 4.38506 0
M  V30 22016 C 2042.09 -1.08213 4.26589 0
M  V30 22017 H 2039.21 -0.0393599 0.735948 0
M  V30 22018 H 2041.85 0.591485 1.80559 0
M  V30 22019 H 2040 -0.917553 3.77509 0
M  V30 22020 H 2041.67 1.63613 4.3131 0
M  V30 22021 H 2039.91 1.60329 4.03085 0
M  V30 22022 H 2040.58 0.811628 5.46001 0
M  V30 22023 H 2043.06 -0.574174 4.12119 0
M  V30 22024 H 2041.94 -1.19481 5.35738 0
M  V30 22025 H 2042.2 -2.11345 3.88311 0
M  V30 22026 N 2041.26 -1.56548 0.18182 0
M  V30 22027 C 2042.49 -2.01282 -0.465719 0
M  V30 22028 C 2042.89 -1.06114 -1.56641 0
M  V30 22029 O 2042.24 -0.0558759 -1.83615 0
M  V30 22030 C 2042.3 -3.42432 -1.09454 0
M  V30 22031 C 2041.96 -4.56803 -0.134223 0
M  V30 22032 C 2042.96 -5.15803 0.651409 0
M  V30 22033 C 2040.65 -5.02293 -0.026997 0
M  V30 22034 C 2042.64 -6.18731 1.53137 0
M  V30 22035 C 2040.33 -6.05068 0.856532 0
M  V30 22036 C 2041.32 -6.63159 1.63429 0
M  V30 22037 O 2041.01 -7.63939 2.50303 0
M  V30 22038 H 2040.74 -0.664789 -0.122603 0
M  V30 22039 H 2043.3 -2.0343 0.283825 0
M  V30 22040 H 2041.53 -3.3723 -1.89242 0
M  V30 22041 H 2043.22 -3.71056 -1.64536 0
M  V30 22042 H 2043.98 -4.81534 0.5788 0
M  V30 22043 H 2039.86 -4.56782 -0.622173 0
M  V30 22044 H 2043.41 -6.64001 2.13888 0
M  V30 22045 H 2039.3 -6.38761 0.930305 0
M  V30 22046 H 2040.07 -7.81305 2.43935 0
M  V30 22047 N 2042.73 0.0918577 -1.57332 0
M  V30 22048 C 2043.96 0.808218 -1.90461 0
M  V30 22049 C 2044.38 1.72122 -0.775843 0
M  V30 22050 O 2043.73 1.80752 0.251995 0
M  V30 22051 C 2043.79 1.61885 -3.23227 0
M  V30 22052 O 2043.51 0.742563 -4.31761 0
M  V30 22053 C 2045.01 2.43798 -3.7024 0
M  V30 22054 H 2042.23 0.230915 -0.630015 0
M  V30 22055 H 2044.77 0.0681235 -2.04387 0
M  V30 22056 H 2042.93 2.31142 -3.1089 0
M  V30 22057 H 2043.34 1.30433 -5.08023 0
M  V30 22058 H 2044.81 2.96164 -4.65823 0
M  V30 22059 H 2045.29 3.2241 -2.98242 0
M  V30 22060 H 2045.9 1.79734 -3.85455 0
M  V30 22061 N 2044.21 1.53368 0.362763 0
M  V30 22062 C 2045.12 1.82969 1.46832 0
M  V30 22063 C 2046.14 0.718285 1.58482 0
M  V30 22064 O 2047.31 1.00863 1.74323 0
M  V30 22065 C 2044.38 2.01596 2.82064 0
M  V30 22066 C 2043.44 3.25491 2.79918 0
M  V30 22067 C 2042.67 3.4322 4.087 0
M  V30 22068 O 2042.9 2.65185 5.05008 0
M  V30 22069 O 2041.83 4.36585 4.1434 0
M  V30 22070 H 2045.66 2.769 1.24741 0
M  V30 22071 H 2043.24 1.38783 0.553131 0
M  V30 22072 H 2045.12 2.15403 3.62187 0
M  V30 22073 H 2043.8 1.10854 3.04127 0
M  V30 22074 H 2042.71 3.17105 1.98483 0
M  V30 22075 H 2044.04 4.16164 2.62809 0
M  V30 22076 N 2045.69 -0.62272 1.44776 0
M  V30 22077 C 2046.94 -1.37812 1.47278 0
M  V30 22078 C 2047.25 -1.95276 0.112585 0
M  V30 22079 O 2048.46 -2.71496 0.0151784 0
M  V30 22080 C 2046.91 -2.49557 2.59325 0
M  V30 22081 C 2046.52 -1.9857 4.01589 0
M  V30 22082 C 2048.27 -3.26693 2.71057 0
M  V30 22083 C 2046.17 -3.07707 5.05045 0
M  V30 22084 H 2045.1 -0.517918 0.547976 0
M  V30 22085 H 2047.75 -0.669045 1.70868 0
M  V30 22086 H 2046.14 -3.23078 2.2899 0
M  V30 22087 H 2047.31 -1.31858 4.41532 0
M  V30 22088 H 2045.63 -1.34224 3.94174 0
M  V30 22089 H 2048.22 -4.08067 3.45521 0
M  V30 22090 H 2048.57 -3.76721 1.77164 0
M  V30 22091 H 2049.1 -2.60265 3.00844 0
M  V30 22092 H 2045.84 -2.62614 6.00595 0
M  V30 22093 H 2045.36 -3.73034 4.69687 0
M  V30 22094 H 2047.04 -3.72343 5.29121 0
M  V30 22095 N 2047.17 -1.31814 -0.863883 0
M  V30 22096 C 2048.12 -1.19976 -1.97166 0
M  V30 22097 C 2049.09 -0.0840886 -1.65887 0
M  V30 22098 O 2050.27 -0.258021 -1.89047 0
M  V30 22099 C 2047.41 -0.919316 -3.3263 0
M  V30 22100 C 2046.52 -2.1189 -3.76466 0
M  V30 22101 C 2045.66 -1.77472 -5.00677 0
M  V30 22102 C 2044.7 -2.93804 -5.36978 0
M  V30 22103 N 2043.83 -2.59541 -6.52367 0
M  V30 22104 H 2048.67 -2.14735 -2.06623 0
M  V30 22105 H 2046.21 -1.06811 -1.01143 0
M  V30 22106 H 2048.17 -0.737251 -4.10634 0
M  V30 22107 H 2046.8 -0.0085443 -3.22799 0
M  V30 22108 H 2045.85 -2.41154 -2.94192 0
M  V30 22109 H 2047.16 -2.98939 -3.99295 0
M  V30 22110 H 2046.32 -1.55764 -5.86364 0
M  V30 22111 H 2045.06 -0.876231 -4.79764 0
M  V30 22112 H 2044.06 -3.16154 -4.49807 0
M  V30 22113 H 2045.29 -3.84371 -5.59853 0
M  V30 22114 H 2043.23 -1.72222 -6.32989 0
M  V30 22115 H 2043.15 -3.4012 -6.7517 0
M  V30 22116 H 2044.42 -2.4124 -7.41231 0
M  V30 22117 N 2048.65 1.07897 -1.14873 0
M  V30 22118 C 2049.89 1.81986 -0.930623 0
M  V30 22119 C 2050.25 1.84454 0.532995 0
M  V30 22120 O 2051.45 2.54357 0.869239 0
M  V30 22121 C 2049.72 3.23403 -1.52135 0
M  V30 22122 S 2051.28 4.14306 -1.44555 0
M  V30 22123 H 2048.1 0.627103 -0.335056 0
M  V30 22124 H 2050.7 1.29657 -1.4632 0
M  V30 22125 H 2049.41 3.19192 -2.57962 0
M  V30 22126 H 2048.94 3.80807 -0.987396 0
M  V30 22127 H 2050.95 4.94293 -0.434626 0
M  V30 22128 N 2050.12 0.944665 1.2615 0
M  V30 22129 C 2051.35 0.610956 1.97674 0
M  V30 22130 C 2051.77 -0.814818 1.70312 0
M  V30 22131 O 2051.12 -1.54376 0.973364 0
M  V30 22132 C 2051.18 0.847912 3.51415 0
M  V30 22133 O 2050.9 2.21761 3.77827 0
M  V30 22134 C 2052.4 0.525225 4.40178 0
M  V30 22135 H 2049.62 0.229933 0.630374 0
M  V30 22136 H 2052.16 1.26632 1.60576 0
M  V30 22137 H 2050.32 0.239105 3.86661 0
M  V30 22138 H 2050.73 2.28026 4.72339 0
M  V30 22139 H 2052.2 0.741624 5.46995 0
M  V30 22140 H 2052.68 -0.539903 4.35869 0
M  V30 22141 H 2053.29 1.11291 4.10481 0
M  V30 22142 N 2051.6 -1.40596 0.712085 0
M  V30 22143 C 2052.83 -2.05787 0.258197 0
M  V30 22144 C 2053.25 -1.53289 -1.09015 0
M  V30 22145 O 2052.61 -0.666771 -1.68594 0
M  V30 22146 C 2052.66 -3.59771 0.244357 0
M  V30 22147 O 2051.76 -4.05042 -0.77555 0
M  V30 22148 H 2051.1 -0.652692 0.12202 0
M  V30 22149 H 2053.63 -1.80059 0.971583 0
M  V30 22150 H 2053.64 -4.0792 0.0808437 0
M  V30 22151 H 2052.32 -3.97347 1.22834 0
M  V30 22152 H 2050.9 -3.68361 -0.580045 0
M  V30 22153 N 2053.08 -0.458013 -1.50798 0
M  V30 22154 C 2054.01 0.333063 -2.31112 0
M  V30 22155 C 2054.99 1.00231 -1.37433 0
M  V30 22156 O 2056.18 1.00199 -1.66354 0
M  V30 22157 C 2053.31 1.4229 -3.16814 0
M  V30 22158 C 2052.26 0.875993 -4.1894 0
M  V30 22159 C 2051.59 2.06313 -4.93294 0
M  V30 22160 C 2052.89 -0.103786 -5.22197 0
M  V30 22161 H 2054.58 -0.337222 -2.97495 0
M  V30 22162 H 2052.13 -0.163622 -1.43067 0
M  V30 22163 H 2054.08 1.98369 -3.7179 0
M  V30 22164 H 2052.8 2.12177 -2.48291 0
M  V30 22165 H 2051.46 0.337263 -3.65045 0
M  V30 22166 H 2051.11 2.74868 -4.21256 0
M  V30 22167 H 2050.81 1.70348 -5.62366 0
M  V30 22168 H 2052.33 2.62908 -5.511 0
M  V30 22169 H 2053.75 0.367392 -5.72122 0
M  V30 22170 H 2052.15 -0.377048 -5.98914 0
M  V30 22171 H 2053.22 -1.03392 -4.73749 0
M  V30 22172 N 2054.56 1.56449 -0.190119 0
M  V30 22173 C 2055.49 2.21861 0.728019 0
M  V30 22174 C 2056.47 1.18012 1.22504 0
M  V30 22175 O 2057.66 1.46503 1.27478 0
M  V30 22176 C 2054.79 2.87407 1.94973 0
M  V30 22177 C 2053.74 3.97457 1.58782 0
M  V30 22178 C 2053.07 4.50144 2.88573 0
M  V30 22179 C 2054.37 5.16113 0.801535 0
M  V30 22180 H 2056.06 2.98842 0.182734 0
M  V30 22181 H 2053.61 1.4374 0.0864508 0
M  V30 22182 H 2055.56 3.31848 2.59721 0
M  V30 22183 H 2054.28 2.07824 2.51946 0
M  V30 22184 H 2052.94 3.537 0.96395 0
M  V30 22185 H 2052.59 3.67328 3.43626 0
M  V30 22186 H 2052.29 5.24398 2.65105 0
M  V30 22187 H 2053.81 4.97283 3.54318 0
M  V30 22188 H 2055.23 5.5713 1.35201 0
M  V30 22189 H 2053.62 5.96402 0.66517 0
M  V30 22190 H 2054.69 4.84494 -0.198407 0
M  V30 22191 N 2056.04 -0.0835127 1.57379 0
M  V30 22192 C 2057.45 -0.636708 1.75508 0
M  V30 22193 C 2057.8 -1.7852 0.813942 0
M  V30 22194 O 2056.92 -2.16399 -0.00480143 0
M  V30 22195 C 2057.52 -1.16179 3.18258 0
M  V30 22196 C 2056.08 -1.66095 3.37771 0
M  V30 22197 C 2055.23 -0.575388 2.71265 0
M  V30 22198 H 2058.18 0.142613 1.58058 0
M  V30 22199 H 2058.2 -2.03087 3.2177 0
M  V30 22200 H 2057.71 -0.325679 3.86731 0
M  V30 22201 H 2055.81 -2.52068 2.74395 0
M  V30 22202 H 2055.92 -1.74596 4.46154 0
M  V30 22203 H 2054.29 -1.01763 2.33487 0
M  V30 22204 H 2055.07 0.250335 3.42386 0
M  V30 22205 N 2057.52 -1.53558 -0.354624 0
M  V30 22206 C 2058.45 -1.83751 -1.44076 0
M  V30 22207 C 2059.43 -0.691795 -1.55397 0
M  V30 22208 O 2060.61 -0.942676 -1.69786 0
M  V30 22209 C 2057.74 -2.03721 -2.81274 0
M  V30 22210 C 2056.7 -3.19517 -2.84769 0
M  V30 22211 C 2056.02 -3.248 -4.24746 0
M  V30 22212 C 2057.32 -4.5787 -2.51301 0
M  V30 22213 H 2059.02 -2.7471 -1.19058 0
M  V30 22214 H 2056.56 -1.32182 -0.5713 0
M  V30 22215 H 2058.51 -2.23427 -3.57293 0
M  V30 22216 H 2057.24 -1.09482 -3.07703 0
M  V30 22217 H 2055.9 -2.99649 -2.11201 0
M  V30 22218 H 2055.55 -2.28177 -4.48268 0
M  V30 22219 H 2055.25 -4.02606 -4.27998 0
M  V30 22220 H 2056.77 -3.46702 -5.02623 0
M  V30 22221 H 2058.18 -4.77663 -3.17034 0
M  V30 22222 H 2056.58 -5.37998 -2.65853 0
M  V30 22223 H 2057.65 -4.62234 -1.46518 0
M  V30 22224 N 2058.99 0.615033 -1.45104 0
M  V30 22225 C 2059.9 1.75459 -1.55728 0
M  V30 22226 C 2060.92 1.6829 -0.442095 0
M  V30 22227 O 2062.1 1.88779 -0.701735 0
M  V30 22228 C 2059.16 3.11899 -1.51394 0
M  V30 22229 C 2058.22 3.30578 -2.73892 0
M  V30 22230 C 2057.45 4.60509 -2.69754 0
M  V30 22231 O 2057.68 5.42353 -1.76662 0
M  V30 22232 O 2056.61 4.81739 -3.60848 0
M  V30 22233 H 2060.44 1.69447 -2.52035 0
M  V30 22234 H 2058.02 0.778221 -1.27531 0
M  V30 22235 H 2059.9 3.93203 -1.51557 0
M  V30 22236 H 2058.58 3.18418 -0.582365 0
M  V30 22237 H 2057.49 2.48891 -2.79292 0
M  V30 22238 H 2058.82 3.2893 -3.6615 0
M  V30 22239 N 2060.47 1.3227 0.85688 0
M  V30 22240 C 2061.75 1.13324 1.59427 0
M  V30 22241 C 2062.13 -0.307216 2.08853 0
M  V30 22242 O 2061.48 -1.30347 1.87675 0
M  V30 22243 C 2061.69 2.15889 2.74213 0
M  V30 22244 C 2063.03 2.49103 3.4385 0
M  V30 22245 O 2064.06 2.14417 2.84436 0
M  V30 22246 O 2062.92 3.08555 4.51061 0
M  V30 22247 H 2060.01 0.437152 0.702016 0
M  V30 22248 H 2062.56 1.43793 0.901202 0
M  V30 22249 H 2061.33 3.12724 2.35201 0
M  V30 22250 H 2060.95 1.86401 3.51198 0
M  V30 22251 N 2061.95 -1.07287 1.15444 0
M  V30 22252 C 2063.2 -1.80162 0.931099 0
M  V30 22253 C 2063.53 -1.8653 -0.540402 0
M  V30 22254 O 2062.8 -1.34951 -1.40066 0
M  V30 22255 C 2063.09 -3.25184 1.54685 0
M  V30 22256 C 2062.94 -3.26957 3.089 0
M  V30 22257 C 2064.26 -4.2247 1.23318 0
M  V30 22258 H 2061.38 -0.654053 0.339682 0
M  V30 22259 H 2064.02 -1.25539 1.42619 0
M  V30 22260 H 2062.17 -3.7183 1.12583 0
M  V30 22261 H 2063.84 -2.88549 3.59912 0
M  V30 22262 H 2062.08 -2.65898 3.42755 0
M  V30 22263 H 2062.76 -4.29218 3.47097 0
M  V30 22264 H 2065.23 -3.84218 1.59737 0
M  V30 22265 H 2064.11 -5.2223 1.69018 0
M  V30 22266 H 2064.37 -4.41844 0.150314 0
M  V30 22267 N 2063.43 -0.951342 -1.25647 0
M  V30 22268 C 2064.67 -0.605246 -1.93558 0
M  V30 22269 C 2065.01 0.85507 -1.74362 0
M  V30 22270 O 2064.28 1.61308 -1.08674 0
M  V30 22271 C 2064.56 -0.960718 -3.47048 0
M  V30 22272 C 2064.42 -2.47652 -3.75484 0
M  V30 22273 C 2065.74 -0.483409 -4.37437 0
M  V30 22274 H 2062.86 -0.22136 -0.702971 0
M  V30 22275 H 2065.5 -1.1874 -1.48327 0
M  V30 22276 H 2063.65 -0.465324 -3.85703 0
M  V30 22277 H 2065.32 -3.04543 -3.46484 0
M  V30 22278 H 2063.56 -2.91564 -3.21205 0
M  V30 22279 H 2064.23 -2.67575 -4.82812 0
M  V30 22280 H 2066.71 -0.908309 -4.06065 0
M  V30 22281 H 2065.59 -0.760858 -5.43601 0
M  V30 22282 H 2065.85 0.616645 -4.37778 0
M  V30 22283 N 2064.91 1.40216 -0.719531 0
M  V30 22284 C 2066.13 2.05647 -0.269106 0
M  V30 22285 C 2066.56 1.53865 1.082 0
M  V30 22286 O 2065.91 0.675703 1.68238 0
M  V30 22287 C 2065.96 3.59636 -0.263433 0
M  V30 22288 O 2065.07 4.05448 0.754058 0
M  V30 22289 H 2064.41 0.652036 -0.12548 0
M  V30 22290 H 2066.94 1.79542 -0.981119 0
M  V30 22291 H 2066.95 4.07871 -0.102475 0
M  V30 22292 H 2065.62 3.9669 -1.24939 0
M  V30 22293 H 2064.2 3.68664 0.560502 0
M  V30 22294 N 2066.38 0.466004 1.50553 0
M  V30 22295 C 2067.63 -0.0908736 2.02596 0
M  V30 22296 C 2067.96 -1.39827 1.34767 0
M  V30 22297 O 2067.24 -1.88693 0.471719 0
M  V30 22298 C 2067.52 -0.279963 3.5901 0
M  V30 22299 C 2067.37 1.0481 4.37419 0
M  V30 22300 C 2068.69 -1.03683 4.27712 0
M  V30 22301 H 2065.81 -0.031552 0.736324 0
M  V30 22302 H 2068.45 0.610602 1.79921 0
M  V30 22303 H 2066.6 -0.877461 3.78461 0
M  V30 22304 H 2068.28 1.68178 4.29551 0
M  V30 22305 H 2066.52 1.64595 4.01361 0
M  V30 22306 H 2067.19 0.869493 5.45109 0
M  V30 22307 H 2069.67 -0.53043 4.12705 0
M  V30 22308 H 2068.54 -1.13792 5.36975 0
M  V30 22309 H 2068.8 -2.07215 3.90531 0
M  V30 22310 N 2067.86 -1.56346 0.198413 0
M  V30 22311 C 2069.11 -1.97966 -0.440131 0
M  V30 22312 C 2069.44 -1.08533 -1.61041 0
M  V30 22313 O 2068.72 -0.138034 -1.9401 0
M  V30 22314 C 2069 -3.48747 -0.897069 0
M  V30 22315 C 2068.85 -4.48957 0.275249 0
M  V30 22316 C 2070.17 -4.03314 -1.76141 0
M  V30 22317 H 2067.29 -0.719752 -0.15851 0
M  V30 22318 H 2069.93 -1.87774 0.290003 0
M  V30 22319 H 2068.08 -3.57564 -1.51921 0
M  V30 22320 H 2069.75 -4.52175 0.912988 0
M  V30 22321 H 2068 -4.23791 0.926484 0
M  V30 22322 H 2068.67 -5.51931 -0.0870366 0
M  V30 22323 H 2071.14 -3.97297 -1.23669 0
M  V30 22324 H 2070.02 -5.09178 -2.05009 0
M  V30 22325 H 2070.28 -3.48776 -2.71676 0
M  V30 22326 N 2069.34 0.0751653 -1.57421 0
M  V30 22327 C 2070.57 0.787972 -1.91308 0
M  V30 22328 C 2070.98 1.7129 -0.794055 0
M  V30 22329 O 2070.34 1.81009 0.23281 0
M  V30 22330 C 2070.39 1.58447 -3.24926 0
M  V30 22331 O 2070.11 0.696727 -4.32524 0
M  V30 22332 C 2071.61 2.39857 -3.72805 0
M  V30 22333 H 2068.83 0.22422 -0.632429 0
M  V30 22334 H 2071.38 0.0464417 -2.04447 0
M  V30 22335 H 2069.53 2.27831 -3.13324 0
M  V30 22336 H 2069.95 1.25038 -5.09378 0
M  V30 22337 H 2071.42 2.91207 -4.68938 0
M  V30 22338 H 2071.9 3.19229 -3.01645 0
M  V30 22339 H 2072.5 1.75636 -3.8734 0
M  V30 22340 N 2070.82 1.53744 0.346476 0
M  V30 22341 C 2071.77 1.77908 1.42593 0
M  V30 22342 C 2072.75 0.634184 1.47875 0
M  V30 22343 O 2073.94 0.893482 1.52794 0
M  V30 22344 C 2071.07 1.9895 2.79775 0
M  V30 22345 C 2070.16 3.19496 2.78897 0
M  V30 22346 N 2070.55 4.41025 2.47651 0
M  V30 22347 C 2068.85 3.20605 3.10046 0
M  V30 22348 C 2069.55 5.22862 2.54932 0
M  V30 22349 N 2068.53 4.59509 2.90434 0
M  V30 22350 H 2072.33 2.69465 1.17328 0
M  V30 22351 H 2069.84 1.52629 0.554814 0
M  V30 22352 H 2071.84 2.14394 3.57549 0
M  V30 22353 H 2070.5 1.08632 3.05989 0
M  V30 22354 H 2071.51 4.68426 2.20901 0
M  V30 22355 H 2068.19 2.40246 3.4145 0
M  V30 22356 H 2069.58 6.29851 2.33959 0
M  V30 22357 N 2072.3 -0.607329 1.45428 0
M  V30 22358 C 2073.21 -1.7463 1.56657 0
M  V30 22359 C 2074.22 -1.68053 0.451014 0
M  V30 22360 O 2075.4 -1.88405 0.711736 0
M  V30 22361 C 2072.46 -3.11092 1.53045 0
M  V30 22362 C 2071.52 -3.29121 2.75641 0
M  V30 22363 C 2070.76 -4.59072 2.72193 0
M  V30 22364 O 2070.98 -5.41408 1.79536 0
M  V30 22365 O 2069.91 -4.79819 3.63397 0
M  V30 22366 H 2073.74 -1.68108 2.5293 0
M  V30 22367 H 2071.33 -0.771447 1.27942 0
M  V30 22368 H 2073.21 -3.92394 1.5364 0
M  V30 22369 H 2071.88 -3.18105 0.599244 0
M  V30 22370 H 2070.79 -2.47406 2.80608 0
M  V30 22371 H 2072.12 -3.26984 3.67889 0
M  V30 22372 N 2073.77 -1.32722 -0.849853 0
M  V30 22373 C 2075.05 -1.14168 -1.58824 0
M  V30 22374 C 2075.43 0.296136 -2.09013 0
M  V30 22375 O 2074.78 1.2935 -1.88364 0
M  V30 22376 C 2074.99 -2.1734 -2.73065 0
M  V30 22377 C 2076.34 -2.50923 -3.42524 0
M  V30 22378 O 2077.36 -2.15923 -2.83295 0
M  V30 22379 O 2076.22 -3.10942 -4.49419 0
M  V30 22380 H 2073.31 -0.440869 -0.699688 0
M  V30 22381 H 2075.86 -1.44269 -0.893563 0
M  V30 22382 H 2074.63 -3.13967 -2.33539 0
M  V30 22383 H 2074.26 -1.88261 -3.50205 0
M  V30 22384 N 2075.25 1.06673 -1.16011 0
M  V30 22385 C 2076.49 1.80988 -0.949872 0
M  V30 22386 C 2076.86 1.85009 0.513401 0
M  V30 22387 O 2078.06 2.55265 0.842212 0
M  V30 22388 C 2076.33 3.21772 -1.55556 0
M  V30 22389 S 2077.89 4.12749 -1.48941 0
M  V30 22390 H 2074.71 0.623514 -0.341689 0
M  V30 22391 H 2077.31 1.28097 -1.47687 0
M  V30 22392 H 2076.01 3.16438 -2.61333 0
M  V30 22393 H 2075.54 3.79738 -1.02773 0
M  V30 22394 H 2077.56 4.93804 -0.487028 0
M  V30 22395 N 2076.73 0.957992 1.25141 0
M  V30 22396 C 2077.98 0.610242 1.92247 0
M  V30 22397 C 2078.29 -0.857187 1.75817 0
M  V30 22398 O 2079.5 -1.31504 2.37527 0
M  V30 22399 C 2077.95 1.04075 3.44524 0
M  V30 22400 C 2077.56 2.53095 3.69658 0
M  V30 22401 C 2079.31 0.765685 4.17537 0
M  V30 22402 C 2077.21 2.89928 5.15457 0
M  V30 22403 H 2076.14 0.224526 0.719794 0
M  V30 22404 H 2078.79 1.1629 1.41947 0
M  V30 22405 H 2077.18 0.416478 3.93804 0
M  V30 22406 H 2078.35 3.20569 3.31017 0
M  V30 22407 H 2076.67 2.78108 3.09911 0
M  V30 22408 H 2079.26 1.017 5.24939 0
M  V30 22409 H 2079.61 -0.297957 4.15232 0
M  V30 22410 H 2080.14 1.35046 3.74176 0
M  V30 22411 H 2076.88 3.95324 5.22876 0
M  V30 22412 H 2076.4 2.2713 5.55132 0
M  V30 22413 H 2078.08 2.79304 5.83608 0
M  V30 22414 N 2078.21 -1.39832 0.726957 0
M  V30 22415 C 2079.44 -2.04978 0.281383 0
M  V30 22416 C 2079.85 -1.54795 -1.08092 0
M  V30 22417 O 2079.21 -0.709375 -1.68149 0
M  V30 22418 C 2079.26 -3.60526 0.265184 0
M  V30 22419 O 2078.98 -4.0886 1.5737 0
M  V30 22420 C 2080.48 -4.4286 -0.197547 0
M  V30 22421 H 2077.7 -0.659374 0.124366 0
M  V30 22422 H 2080.25 -1.7903 0.988352 0
M  V30 22423 H 2078.4 -3.85403 -0.392835 0
M  V30 22424 H 2078.81 -5.03132 1.48183 0
M  V30 22425 H 2080.29 -5.51775 -0.157727 0
M  V30 22426 H 2080.77 -4.21288 -1.24149 0
M  V30 22427 H 2081.37 -4.23114 0.430611 0
M  V30 22428 N 2079.69 -0.473982 -1.50304 0
M  V30 22429 C 2080.6 0.323933 -2.32353 0
M  V30 22430 C 2081.61 0.993251 -1.42865 0
M  V30 22431 O 2082.79 0.980589 -1.75916 0
M  V30 22432 C 2079.85 1.38999 -3.17616 0
M  V30 22433 C 2078.91 0.736965 -4.22927 0
M  V30 22434 C 2078.15 1.75223 -5.04116 0
M  V30 22435 O 2078.37 2.97908 -4.86423 0
M  V30 22436 O 2077.3 1.32246 -5.87192 0
M  V30 22437 H 2081.13 -0.346913 -3.01712 0
M  V30 22438 H 2078.72 -0.235777 -1.47528 0
M  V30 22439 H 2080.6 2.00742 -3.70514 0
M  V30 22440 H 2079.27 2.04425 -2.50982 0
M  V30 22441 H 2078.18 0.0805047 -3.74013 0
M  V30 22442 H 2079.51 0.125602 -4.9204 0
M  V30 22443 N 2081.16 1.56239 -0.206702 0
M  V30 22444 C 2082.41 1.98197 0.429627 0
M  V30 22445 C 2082.74 1.09386 1.60463 0
M  V30 22446 O 2082.02 0.148321 1.93934 0
M  V30 22447 C 2082.3 3.49218 0.878562 0
M  V30 22448 C 2082.15 4.48805 -0.299054 0
M  V30 22449 C 2083.47 4.04243 1.74 0
M  V30 22450 H 2080.59 0.720583 0.154691 0
M  V30 22451 H 2083.23 1.87617 -0.299957 0
M  V30 22452 H 2081.38 3.58365 1.50023 0
M  V30 22453 H 2083.06 4.51684 -0.936956 0
M  V30 22454 H 2081.3 4.23294 -0.948945 0
M  V30 22455 H 2081.97 5.5197 0.0577652 0
M  V30 22456 H 2084.45 3.97948 1.2156 0
M  V30 22457 H 2083.32 5.10259 2.02305 0
M  V30 22458 H 2083.58 3.50212 2.69823 0
M  V30 22459 N 2082.64 -0.0668159 1.57458 0
M  V30 22460 C 2083.59 -1.07888 2.04031 0
M  V30 22461 C 2084.56 -1.38168 0.921889 0
M  V30 22462 O 2085.74 -1.49151 1.1899 0
M  V30 22463 C 2082.88 -2.38598 2.49329 0
M  V30 22464 C 2082 -2.14805 3.7481 0
M  V30 22465 C 2081.13 -3.39114 4.0887 0
M  V30 22466 C 2080.17 -3.10708 5.27377 0
M  V30 22467 N 2079.31 -4.27361 5.57052 0
M  V30 22468 H 2084.15 -0.674755 2.9026 0
M  V30 22469 H 2081.69 -0.321602 1.43541 0
M  V30 22470 H 2083.64 -3.14919 2.73646 0
M  V30 22471 H 2082.27 -2.76804 1.6607 0
M  V30 22472 H 2081.33 -1.29154 3.57804 0
M  V30 22473 H 2082.64 -1.89826 4.61267 0
M  V30 22474 H 2081.79 -4.23827 4.34114 0
M  V30 22475 H 2080.53 -3.67174 3.2099 0
M  V30 22476 H 2079.54 -2.24392 5.01925 0
M  V30 22477 H 2080.76 -2.83966 6.16879 0
M  V30 22478 H 2078.71 -4.55443 4.72131 0
M  V30 22479 H 2078.62 -4.05673 6.37938 0
M  V30 22480 H 2079.89 -5.13057 5.8685 0
M  V30 22481 N 2084.12 -1.53926 -0.338317 0
M  V30 22482 C 2085.05 -1.77104 -1.43908 0
M  V30 22483 C 2086.03 -0.620357 -1.50301 0
M  V30 22484 O 2087.22 -0.856117 -1.67937 0
M  V30 22485 C 2084.34 -1.87438 -2.82108 0
M  V30 22486 C 2083.39 -3.09626 -2.93315 0
M  V30 22487 S 2084.22 -4.68565 -2.59244 0
M  V30 22488 C 2085.38 -4.81784 -3.99543 0
M  V30 22489 H 2085.61 -2.70192 -1.24031 0
M  V30 22490 H 2083.14 -1.44861 -0.534293 0
M  V30 22491 H 2085.1 -1.94077 -3.61724 0
M  V30 22492 H 2083.76 -0.953534 -2.99277 0
M  V30 22493 H 2082.96 -3.13547 -3.94594 0
M  V30 22494 H 2082.56 -3.0124 -2.21653 0
M  V30 22495 H 2084.85 -4.63515 -4.94126 0
M  V30 22496 H 2085.79 -5.83879 -4.00613 0
M  V30 22497 H 2086.2 -4.10198 -3.87811 0
M  V30 22498 N 2085.6 0.599608 -1.45748 0
M  V30 22499 C 2086.56 1.6918 -1.54631 0
M  V30 22500 C 2087.56 1.55081 -0.425029 0
M  V30 22501 O 2088.75 1.60004 -0.688782 0
M  V30 22502 C 2085.88 3.08502 -1.45049 0
M  V30 22503 H 2087.08 1.62667 -2.51951 0
M  V30 22504 H 2084.63 0.816022 -1.33307 0
M  V30 22505 H 2085.37 3.20585 -0.489439 0
M  V30 22506 H 2085.15 3.20144 -2.26386 0
M  V30 22507 H 2086.64 3.88042 -1.54315 0
M  V30 22508 N 2087.08 1.33171 0.842803 0
M  V30 22509 C 2088.31 1.2725 1.62761 0
M  V30 22510 C 2088.72 -0.159577 1.88526 0
M  V30 22511 O 2088.06 -1.11091 1.46302 0
M  V30 22512 C 2088.12 1.97482 3.00401 0
M  V30 22513 C 2087.78 3.46798 2.97624 0
M  V30 22514 C 2088.78 4.42071 2.73622 0
M  V30 22515 C 2086.47 3.88915 3.17885 0
M  V30 22516 C 2088.46 5.77436 2.69901 0
M  V30 22517 C 2086.15 5.24385 3.1379 0
M  V30 22518 C 2087.15 6.18457 2.89828 0
M  V30 22519 O 2086.83 7.51446 2.85629 0
M  V30 22520 H 2086.57 0.439899 0.513288 0
M  V30 22521 H 2089.12 1.76042 1.05822 0
M  V30 22522 H 2087.35 1.43276 3.59178 0
M  V30 22523 H 2089.04 1.85113 3.61231 0
M  V30 22524 H 2089.8 4.10857 2.57724 0
M  V30 22525 H 2085.68 3.16105 3.35557 0
M  V30 22526 H 2089.23 6.50835 2.51118 0
M  V30 22527 H 2085.12 5.55225 3.29235 0
M  V30 22528 H 2085.89 7.60947 3.01499 0
M  V30 22529 N 2088.56 -1.06056 1.16576 0
M  V30 22530 C 2089.8 -1.79164 0.950155 0
M  V30 22531 C 2090.13 -1.87092 -0.520588 0
M  V30 22532 O 2089.41 -1.36429 -1.38627 0
M  V30 22533 C 2089.69 -3.23525 1.58125 0
M  V30 22534 C 2089.55 -3.23663 3.1235 0
M  V30 22535 C 2090.86 -4.21138 1.27792 0
M  V30 22536 H 2087.98 -0.650413 0.3466 0
M  V30 22537 H 2090.63 -1.24019 1.43942 0
M  V30 22538 H 2088.78 -3.70615 1.16521 0
M  V30 22539 H 2090.45 -2.84716 3.62953 0
M  V30 22540 H 2088.69 -2.62248 3.45555 0
M  V30 22541 H 2089.36 -4.25512 3.51629 0
M  V30 22542 H 2091.84 -3.82502 1.63803 0
M  V30 22543 H 2090.71 -5.20408 1.74547 0
M  V30 22544 H 2090.97 -4.4166 0.197169 0
M  V30 22545 N 2090.03 -0.964615 -1.24631 0
M  V30 22546 C 2090.98 -0.484126 -2.27506 0
M  V30 22547 C 2091.98 0.45075 -1.63293 0
M  V30 22548 O 2093.18 0.32638 -1.77016 0
M  V30 22549 H 2089.56 -0.138083 -0.739214 0
M  V30 22550 H 2091.53 -1.36382 -2.6541 0
M  V30 22551 C 2090.28 0.213113 -3.47046 0
M  V30 22552 H 2089.6 -0.497138 -3.96697 0
M  V30 22553 H 2091.04 0.513181 -4.20883 0
M  V30 22554 C 2089.5 1.43904 -3.0462 0
M  V30 22555 O 2090.03 2.53625 -3.11508 0
M  V30 22556 N 2088.23 1.30398 -2.59701 0
M  V30 22557 H 2087.78 0.411244 -2.54296 0
M  V30 22558 H 2087.74 2.12537 -2.3168 0
M  V30 22559 N 2091.51 1.39445 -0.734362 0
M  V30 22560 C 2092.76 2.00526 -0.282025 0
M  V30 22561 C 2093.09 1.58268 1.13055 0
M  V30 22562 O 2092.34 0.802491 1.7849 0
M  V30 22563 C 2092.64 3.55865 -0.330927 0
M  V30 22564 C 2092.31 4.1777 -1.69643 0
M  V30 22565 C 2090.97 4.34393 -2.07017 0
M  V30 22566 C 2093.32 4.52119 -2.59302 0
M  V30 22567 C 2090.65 4.82653 -3.3356 0
M  V30 22568 C 2093 5.01788 -3.85217 0
M  V30 22569 C 2091.66 5.16618 -4.22684 0
M  V30 22570 H 2090.93 0.733778 -0.1032 0
M  V30 22571 H 2093.58 1.66781 -0.94108 0
M  V30 22572 H 2091.89 3.89631 0.411703 0
M  V30 22573 H 2093.58 4.00983 0.0371893 0
M  V30 22574 H 2090.17 4.05233 -1.39584 0
M  V30 22575 H 2094.36 4.38896 -2.31698 0
M  V30 22576 H 2089.61 4.9232 -3.62534 0
M  V30 22577 H 2093.79 5.27339 -4.54848 0
M  V30 22578 H 2091.41 5.53775 -5.20805 0
M  V30 22579 N 2092.99 0.481946 1.5005 0
M  V30 22580 C 2094.24 -0.0693805 2.02681 0
M  V30 22581 C 2094.57 -1.3839 1.36242 0
M  V30 22582 O 2093.84 -1.88182 0.491706 0
M  V30 22583 C 2094.13 -0.24187 3.59287 0
M  V30 22584 C 2093.98 1.09443 4.36282 0
M  V30 22585 C 2095.3 -0.991404 4.28788 0
M  V30 22586 H 2092.42 -0.0237405 0.736618 0
M  V30 22587 H 2095.06 0.629651 1.79263 0
M  V30 22588 H 2093.21 -0.837271 3.79371 0
M  V30 22589 H 2094.88 1.72725 4.27743 0
M  V30 22590 H 2093.12 1.68843 3.99593 0
M  V30 22591 H 2093.8 0.92726 5.44156 0
M  V30 22592 H 2096.27 -0.486628 4.13245 0
M  V30 22593 H 2095.15 -1.08091 5.38152 0
M  V30 22594 H 2095.41 -2.03061 3.92707 0
M  V30 22595 N 2094.47 -1.56127 0.214985 0
M  V30 22596 C 2095.42 -2.21359 -0.714353 0
M  V30 22597 C 2096.41 -1.19092 -1.20472 0
M  V30 22598 O 2097.62 -1.37188 -1.16531 0
M  V30 22599 H 2093.99 -0.70966 -0.248769 0
M  V30 22600 H 2095.96 -2.98068 -0.140678 0
M  V30 22601 C 2094.71 -2.90234 -1.91466 0
M  V30 22602 H 2094.03 -3.68681 -1.54644 0
M  V30 22603 H 2095.47 -3.39286 -2.54285 0
M  V30 22604 C 2093.93 -1.92345 -2.76595 0
M  V30 22605 O 2094.46 -1.43625 -3.75146 0
M  V30 22606 N 2092.67 -1.60138 -2.42496 0
M  V30 22607 H 2092.22 -1.99952 -1.6241 0
M  V30 22608 H 2092.17 -0.949023 -2.99735 0
M  V30 22609 N 2095.95 0.0584645 -1.57492 0
M  V30 22610 C 2096.9 1.07525 -2.01053 0
M  V30 22611 C 2097.88 1.33726 -0.894772 0
M  V30 22612 O 2099.07 1.33803 -1.15869 0
M  V30 22613 C 2096.2 2.38516 -2.46911 0
M  V30 22614 C 2095.29 2.15532 -3.65249 0
M  V30 22615 N 2095.68 1.62515 -4.78981 0
M  V30 22616 C 2093.98 2.45948 -3.72056 0
M  V30 22617 C 2094.68 1.54656 -5.60764 0
M  V30 22618 N 2093.65 2.01181 -5.05002 0
M  V30 22619 H 2097.45 0.658876 -2.86419 0
M  V30 22620 H 2094.97 0.265312 -1.60218 0
M  V30 22621 H 2096.97 3.12135 -2.76365 0
M  V30 22622 H 2095.63 2.80858 -1.62938 0
M  V30 22623 H 2096.64 1.31192 -5.01008 0
M  V30 22624 H 2093.31 2.91566 -2.98824 0
M  V30 22625 H 2094.7 1.14405 -6.62088 0
M  V30 22626 N 2097.42 1.54103 0.330149 0
M  V30 22627 C 2098.66 1.73714 1.07716 0
M  V30 22628 C 2099.03 0.496836 1.8546 0
M  V30 22629 O 2100.23 0.570188 2.62683 0
M  V30 22630 C 2098.5 2.97366 1.98264 0
M  V30 22631 S 2100.06 3.3785 2.80005 0
M  V30 22632 H 2096.88 0.610907 0.363749 0
M  V30 22633 H 2099.48 1.92269 0.353943 0
M  V30 22634 H 2098.18 3.85792 1.39973 0
M  V30 22635 H 2097.71 2.81315 2.75001 0
M  V30 22636 H 2099.73 2.92633 4.00725 0
M  V30 22637 N 2098.9 -0.59187 1.46064 0
M  V30 22638 C 2100.13 -1.37466 1.54229 0
M  V30 22639 C 2100.54 -1.8835 0.1791 0
M  V30 22640 O 2099.88 -1.63765 -0.832274 0
M  V30 22641 C 2099.95 -2.60379 2.47877 0
M  V30 22642 C 2099.61 -2.31026 3.94305 0
M  V30 22643 C 2100.61 -1.90422 4.83772 0
M  V30 22644 C 2098.29 -2.43453 4.39359 0
M  V30 22645 C 2100.29 -1.62626 6.16305 0
M  V30 22646 C 2097.97 -2.15271 5.71928 0
M  V30 22647 C 2098.97 -1.74921 6.60221 0
M  V30 22648 O 2098.66 -1.47079 7.90331 0
M  V30 22649 H 2098.39 -0.426635 0.524365 0
M  V30 22650 H 2100.94 -0.7274 1.92089 0
M  V30 22651 H 2099.17 -3.27879 2.05018 0
M  V30 22652 H 2100.86 -3.2244 2.4655 0
M  V30 22653 H 2101.63 -1.80343 4.50224 0
M  V30 22654 H 2097.51 -2.73823 3.70866 0
M  V30 22655 H 2101.05 -1.31058 6.85179 0
M  V30 22656 H 2096.95 -2.2497 6.05028 0
M  V30 22657 H 2097.72 -1.61 8.02509 0
M  V30 22658 N 2100.38 -1.33616 -0.835729 0
M  V30 22659 C 2101.63 -1.25436 -1.59354 0
M  V30 22660 C 2101.96 0.178683 -1.93376 0
M  V30 22661 O 2101.23 1.12082 -1.58959 0
M  V30 22662 C 2101.52 -2.13273 -2.9015 0
M  V30 22663 C 2101.37 -3.65051 -2.62789 0
M  V30 22664 C 2102.69 -2.00828 -3.91607 0
M  V30 22665 H 2099.81 -0.457008 -0.578198 0
M  V30 22666 H 2102.45 -1.63747 -0.963686 0
M  V30 22667 H 2100.6 -1.8073 -3.43902 0
M  V30 22668 H 2102.27 -4.07899 -2.15444 0
M  V30 22669 H 2100.52 -3.86775 -1.96437 0
M  V30 22670 H 2101.19 -4.2186 -3.56003 0
M  V30 22671 H 2103.66 -2.29375 -3.47169 0
M  V30 22672 H 2102.54 -2.64533 -4.8095 0
M  V30 22673 H 2102.8 -0.98144 -4.31069 0
M  V30 22674 N 2101.86 1.05436 -1.17136 0
M  V30 22675 C 2103.14 1.75275 -0.868216 0
M  V30 22676 C 2103.52 2.01415 0.632074 0
M  V30 22677 O 2102.86 1.64823 1.58258 0
M  V30 22678 C 2103.07 3.04772 -1.70044 0
M  V30 22679 C 2104.42 3.78768 -1.91885 0
M  V30 22680 O 2105.45 3.14636 -1.66982 0
M  V30 22681 O 2104.3 4.94 -2.33723 0
M  V30 22682 H 2101.4 0.762066 -0.321223 0
M  V30 22683 H 2103.94 1.11627 -1.27818 0
M  V30 22684 H 2102.72 2.81485 -2.71812 0
M  V30 22685 H 2102.34 3.76157 -1.28808 0
M  V30 22686 N 2103.34 0.971211 1.24118 0
M  V30 22687 C 2104.56 0.652748 1.96333 0
M  V30 22688 C 2104.98 -0.778509 1.72002 0
M  V30 22689 O 2104.34 -1.52276 1.00589 0
M  V30 22690 C 2104.39 0.922262 3.49538 0
M  V30 22691 O 2104.11 2.29726 3.73039 0
M  V30 22692 C 2105.61 0.618475 4.38964 0
M  V30 22693 H 2102.83 0.243252 0.625355 0
M  V30 22694 H 2105.37 1.3001 1.57853 0
M  V30 22695 H 2103.53 0.321067 3.86067 0
M  V30 22696 H 2103.94 2.37994 4.67396 0
M  V30 22697 H 2105.42 0.857482 5.45299 0
M  V30 22698 H 2105.89 -0.447327 4.36916 0
M  V30 22699 H 2106.5 1.19973 4.08028 0
M  V30 22700 N 2104.81 -1.39054 0.741747 0
M  V30 22701 C 2105.72 -2.34352 0.107946 0
M  V30 22702 C 2106.74 -1.58666 -0.71422 0
M  V30 22703 O 2107.92 -1.90923 -0.641124 0
M  V30 22704 C 2104.98 -3.3773 -0.783547 0
M  V30 22705 C 2104.04 -4.29269 0.0516392 0
M  V30 22706 C 2103.28 -5.27709 -0.797398 0
M  V30 22707 O 2103.5 -5.3283 -2.03588 0
M  V30 22708 O 2102.43 -6.01489 -0.222478 0
M  V30 22709 H 2106.26 -2.90223 0.894677 0
M  V30 22710 H 2103.84 -1.40696 0.502494 0
M  V30 22711 H 2105.73 -4.01059 -1.29342 0
M  V30 22712 H 2104.4 -2.84233 -1.54898 0
M  V30 22713 H 2103.31 -3.6914 0.607193 0
M  V30 22714 H 2104.64 -4.85989 0.779446 0
M  V30 22715 N 2106.29 -0.489897 -1.49792 0
M  V30 22716 C 2107.54 0.0586308 -2.02715 0
M  V30 22717 C 2107.87 1.37665 -1.36974 0
M  V30 22718 O 2107.15 1.87919 -0.501679 0
M  V30 22719 C 2107.43 0.222812 -3.5941 0
M  V30 22720 C 2107.28 -1.11755 -4.35696 0
M  V30 22721 C 2108.6 0.96865 -4.29308 0
M  V30 22722 H 2105.72 0.0198337 -0.736733 0
M  V30 22723 H 2108.36 -0.639149 -1.78927 0
M  V30 22724 H 2106.51 0.81714 -3.79809 0
M  V30 22725 H 2108.18 -1.74991 -4.26821 0
M  V30 22726 H 2106.43 -1.70959 -3.98692 0
M  V30 22727 H 2107.1 -0.956105 -5.43657 0
M  V30 22728 H 2109.57 0.464706 -4.13497 0
M  V30 22729 H 2108.45 1.05235 -5.38718 0
M  V30 22730 H 2108.71 2.00975 -3.93778 0
M  V30 22731 N 2107.77 1.56011 -0.223262 0
M  V30 22732 C 2108.68 2.23993 0.697454 0
M  V30 22733 C 2109.7 1.24812 1.21235 0
M  V30 22734 O 2110.87 1.57629 1.2536 0
M  V30 22735 C 2107.94 2.90786 1.88797 0
M  V30 22736 C 2107 4.05314 1.41489 0
M  V30 22737 C 2106.23 4.68913 2.54866 0
M  V30 22738 O 2106.45 4.31505 3.73041 0
M  V30 22739 O 2105.39 5.57872 2.2597 0
M  V30 22740 H 2109.21 3.03338 0.148324 0
M  V30 22741 H 2106.8 1.49398 0.00725836 0
M  V30 22742 H 2108.68 3.32939 2.5832 0
M  V30 22743 H 2107.36 2.144 2.42517 0
M  V30 22744 H 2106.26 3.67726 0.687623 0
M  V30 22745 H 2107.6 4.83448 0.924045 0
M  V30 22746 N 2109.25 -0.0501116 1.5752 0
M  V30 22747 C 2110.18 -1.08964 2.00504 0
M  V30 22748 C 2111.16 -1.36365 0.885632 0
M  V30 22749 O 2112.34 -1.49375 1.14975 0
M  V30 22750 C 2109.47 -2.42922 2.36023 0
M  V30 22751 C 2108.52 -2.31517 3.58193 0
M  V30 22752 S 2109.35 -1.68858 5.0818 0
M  V30 22753 C 2110.51 -3.04349 5.46921 0
M  V30 22754 H 2110.74 -0.723433 2.88364 0
M  V30 22755 H 2108.27 -0.259394 1.52205 0
M  V30 22756 H 2110.23 -3.19968 2.57159 0
M  V30 22757 H 2108.89 -2.76697 1.48653 0
M  V30 22758 H 2108.08 -3.30356 3.80632 0
M  V30 22759 H 2107.69 -1.6261 3.36799 0
M  V30 22760 H 2109.98 -4.00678 5.46318 0
M  V30 22761 H 2110.92 -2.86666 6.47478 0
M  V30 22762 H 2111.33 -3.05953 4.74398 0
M  V30 22763 N 2110.73 -1.54276 -0.321972 0
M  V30 22764 C 2111.67 -1.83772 -1.3963 0
M  V30 22765 C 2112.64 -0.684941 -1.5132 0
M  V30 22766 O 2113.83 -0.931526 -1.66515 0
M  V30 22767 C 2110.97 -2.07212 -2.75966 0
M  V30 22768 C 2110.08 -3.34892 -2.72895 0
M  V30 22769 C 2109.22 -3.48284 -4.01088 0
M  V30 22770 C 2108.26 -4.69833 -3.9233 0
M  V30 22771 N 2107.39 -4.80144 -5.12256 0
M  V30 22772 H 2112.23 -2.75425 -1.13777 0
M  V30 22773 H 2109.77 -1.36401 -0.550737 0
M  V30 22774 H 2111.73 -2.18794 -3.55225 0
M  V30 22775 H 2110.36 -1.18848 -3.00125 0
M  V30 22776 H 2109.41 -3.32039 -1.85618 0
M  V30 22777 H 2110.72 -4.2426 -2.62307 0
M  V30 22778 H 2109.88 -3.59417 -4.88778 0
M  V30 22779 H 2108.61 -2.57011 -4.14483 0
M  V30 22780 H 2107.62 -4.58755 -3.03024 0
M  V30 22781 H 2108.84 -5.62492 -3.80498 0
M  V30 22782 H 2106.79 -3.91787 -5.26155 0
M  V30 22783 H 2106.71 -5.6348 -5.0401 0
M  V30 22784 H 2107.98 -4.9561 -6.01657 0
M  V30 22785 N 2112.2 0.584116 -1.46376 0
M  V30 22786 C 2113.11 1.72116 -1.59415 0
M  V30 22787 C 2114.13 1.67314 -0.477692 0
M  V30 22788 O 2115.31 1.87248 -0.74162 0
M  V30 22789 C 2112.37 3.08617 -1.57975 0
M  V30 22790 C 2111.43 3.24694 -2.80842 0
M  V30 22791 C 2110.67 4.54683 -2.79462 0
M  V30 22792 O 2110.89 5.38484 -1.88126 0
M  V30 22793 O 2109.82 4.73977 -3.70985 0
M  V30 22794 H 2113.65 1.64062 -2.55572 0
M  V30 22795 H 2111.23 0.750995 -1.29153 0
M  V30 22796 H 2113.12 3.899 -1.59863 0
M  V30 22797 H 2111.79 3.17111 -0.649775 0
M  V30 22798 H 2110.7 2.4291 -2.84509 0
M  V30 22799 H 2112.03 3.2109 -3.73044 0
M  V30 22800 N 2113.68 1.34058 0.828631 0
M  V30 22801 C 2114.93 1.25437 1.57951 0
M  V30 22802 C 2115.25 -0.175484 1.94811 0
M  V30 22803 O 2116.45 -0.383797 2.68774 0
M  V30 22804 C 2114.91 2.19853 2.84943 0
M  V30 22805 C 2114.52 3.68064 2.55407 0
M  V30 22806 C 2116.26 2.20128 3.62966 0
M  V30 22807 C 2114.17 4.54366 3.78557 0
M  V30 22808 H 2113.1 0.465952 0.592794 0
M  V30 22809 H 2115.75 1.59187 0.912783 0
M  V30 22810 H 2114.13 1.79047 3.53211 0
M  V30 22811 H 2115.3 4.17373 1.95286 0
M  V30 22812 H 2113.62 3.70181 1.9067 0
M  V30 22813 H 2116.22 2.81831 4.54396 0
M  V30 22814 H 2116.56 1.19905 3.98658 0
M  V30 22815 H 2117.09 2.59349 3.01634 0
M  V30 22816 H 2113.83 5.55503 3.47989 0
M  V30 22817 H 2113.35 4.09795 4.37982 0
M  V30 22818 H 2115.03 4.68687 4.46029 0
M  V30 22819 N 2115.16 -1.04814 1.17694 0
M  V30 22820 C 2116.39 -1.81287 0.990891 0
M  V30 22821 C 2116.8 -1.83422 -0.464018 0
M  V30 22822 O 2116.14 -1.2629 -1.33403 0
M  V30 22823 C 2116.2 -3.28516 1.46005 0
M  V30 22824 C 2115.87 -3.50056 2.93785 0
M  V30 22825 C 2116.87 -3.41866 3.91693 0
M  V30 22826 C 2114.55 -3.76896 3.32046 0
M  V30 22827 C 2116.54 -3.60206 5.25861 0
M  V30 22828 C 2114.23 -3.94884 4.66379 0
M  V30 22829 C 2115.23 -3.86539 5.63095 0
M  V30 22830 O 2114.92 -4.04021 6.94998 0
M  V30 22831 H 2114.65 -0.577989 0.350578 0
M  V30 22832 H 2117.2 -1.3304 1.56491 0
M  V30 22833 H 2115.43 -3.77696 0.829622 0
M  V30 22834 H 2117.12 -3.86525 1.23908 0
M  V30 22835 H 2117.89 -3.21104 3.6348 0
M  V30 22836 H 2113.77 -3.82493 2.57332 0
M  V30 22837 H 2117.31 -3.53609 6.01337 0
M  V30 22838 H 2113.21 -4.15139 4.94297 0
M  V30 22839 H 2113.98 -4.21225 7.01792 0
M  V30 22840 N 2116.64 -0.977779 -1.23601 0
M  V30 22841 C 2117.87 -0.663151 -1.95984 0
M  V30 22842 C 2118.28 0.769376 -1.72412 0
M  V30 22843 O 2117.64 1.51741 -1.01395 0
M  V30 22844 C 2117.69 -0.940786 -3.49044 0
M  V30 22845 O 2117.41 -2.31701 -3.71815 0
M  V30 22846 C 2118.91 -0.641745 -4.3863 0
M  V30 22847 H 2116.13 -0.246565 -0.624057 0
M  V30 22848 H 2118.68 -1.30845 -1.57162 0
M  V30 22849 H 2116.83 -0.341537 -3.85892 0
M  V30 22850 H 2117.25 -2.40469 -4.66128 0
M  V30 22851 H 2118.72 -0.886389 -5.44837 0
M  V30 22852 H 2119.2 0.42415 -4.37147 0
M  V30 22853 H 2119.8 -1.22135 -4.07386 0
M  V30 22854 N 2118.12 1.38658 -0.749111 0
M  V30 22855 C 2119.34 2.0503 -0.312666 0
M  V30 22856 C 2119.77 1.56125 1.04912 0
M  V30 22857 O 2119.13 0.711236 1.66767 0
M  V30 22858 C 2119.17 3.58997 -0.339658 0
M  V30 22859 O 2118.28 4.06956 0.667887 0
M  V30 22860 H 2117.62 0.649228 -0.139282 0
M  V30 22861 H 2120.15 1.7742 -1.01898 0
M  V30 22862 H 2120.16 4.07562 -0.188968 0
M  V30 22863 H 2118.83 3.93951 -1.33325 0
M  V30 22864 H 2117.41 3.69769 0.482177 0
M  V30 22865 N 2119.6 0.497834 1.49531 0
M  V30 22866 C 2120.54 -0.296019 2.30709 0
M  V30 22867 C 2121.54 -0.965727 1.39176 0
M  V30 22868 O 2122.74 -0.893777 1.56242 0
M  V30 22869 H 2119.12 -0.114319 0.74326 0
M  V30 22870 H 2121.09 0.408679 2.95588 0
M  V30 22871 C 2119.84 -1.34956 3.20441 0
M  V30 22872 H 2119.16 -0.843631 3.90798 0
M  V30 22873 H 2120.6 -1.87706 3.80187 0
M  V30 22874 C 2119.06 -2.36602 2.39836 0
M  V30 22875 O 2119.59 -3.4242 2.10027 0
M  V30 22876 N 2117.8 -2.08992 2.01918 0
M  V30 22877 H 2117.34 -1.2296 2.2636 0
M  V30 22878 H 2117.3 -2.7723 1.48293 0
M  V30 22879 N 2121.07 -1.5589 0.231532 0
M  V30 22880 C 2122.02 -2.1737 -0.68805 0
M  V30 22881 C 2123.01 -1.12497 -1.15036 0
M  V30 22882 O 2124.2 -1.38455 -1.10269 0
M  V30 22883 C 2121.33 -2.86487 -1.89156 0
M  V30 22884 C 2120.41 -3.98598 -1.44847 0
M  V30 22885 N 2120.81 -5.00669 -0.718604 0
M  V30 22886 C 2119.1 -4.1087 -1.73498 0
M  V30 22887 C 2119.8 -5.79622 -0.491271 0
M  V30 22888 N 2118.78 -5.33344 -1.05094 0
M  V30 22889 H 2122.58 -2.93646 -0.122095 0
M  V30 22890 H 2120.1 -1.62366 0.0332002 0
M  V30 22891 H 2122.09 -3.2895 -2.5612 0
M  V30 22892 H 2120.75 -2.1171 -2.46189 0
M  V30 22893 H 2121.76 -5.16575 -0.370268 0
M  V30 22894 H 2118.44 -3.47253 -2.31779 0
M  V30 22895 H 2119.83 -6.71839 0.0903336 0
M  V30 22896 N 2122.55 0.0417572 -1.57545 0
M  V30 22897 C 2123.8 0.734075 -1.87868 0
M  V30 22898 C 2124.11 1.77194 -0.828352 0
M  V30 22899 O 2125.32 2.51595 -1.02039 0
M  V30 22900 C 2123.78 1.35664 -3.33352 0
M  V30 22901 C 2123.38 0.355779 -4.46585 0
M  V30 22902 C 2125.13 2.02957 -3.72839 0
M  V30 22903 C 2123.03 0.985962 -5.83123 0
M  V30 22904 H 2121.96 0.277922 -0.70091 0
M  V30 22905 H 2124.62 -0.0119297 -1.83496 0
M  V30 22906 H 2123 2.15192 -3.32428 0
M  V30 22907 H 2124.17 -0.411871 -4.58956 0
M  V30 22908 H 2122.49 -0.214356 -4.15848 0
M  V30 22909 H 2125.08 2.50935 -4.72161 0
M  V30 22910 H 2125.43 2.84222 -3.04176 0
M  V30 22911 H 2125.96 1.3022 -3.75882 0
M  V30 22912 H 2122.7 0.212992 -6.55154 0
M  V30 22913 H 2122.22 1.72375 -5.74497 0
M  V30 22914 H 2123.9 1.49705 -6.29442 0
M  V30 22915 N 2124.03 1.54445 0.313786 0
M  V30 22916 C 2125.28 1.74307 1.04827 0
M  V30 22917 C 2125.63 0.515701 1.8536 0
M  V30 22918 O 2124.92 -0.491911 1.85178 0
M  V30 22919 C 2125.12 2.96492 1.99568 0
M  V30 22920 C 2124.95 4.30994 1.28352 0
M  V30 22921 C 2123.72 4.94981 1.01597 0
M  V30 22922 C 2125.91 5.0959 0.694453 0
M  V30 22923 N 2123.9 6.13294 0.272742 0
M  V30 22924 C 2125.27 6.19944 0.0833406 0
M  V30 22925 C 2127.32 4.94293 0.598234 0
M  V30 22926 C 2126.03 7.16669 -0.614665 0
M  V30 22927 C 2128.05 5.91337 -0.0860904 0
M  V30 22928 C 2127.41 7.01051 -0.686106 0
M  V30 22929 H 2123.51 0.690557 0.366954 0
M  V30 22930 H 2126.1 1.91912 0.328328 0
M  V30 22931 H 2124.27 2.80335 2.68825 0
M  V30 22932 H 2126 3.04937 2.66074 0
M  V30 22933 H 2122.75 4.55098 1.31083 0
M  V30 22934 H 2123.18 6.76947 -0.0850125 0
M  V30 22935 H 2127.82 4.0961 1.04784 0
M  V30 22936 H 2125.54 8.00903 -1.07607 0
M  V30 22937 H 2129.12 5.81579 -0.16031 0
M  V30 22938 H 2128 7.74852 -1.20722 0
M  V30 22939 N 2125.51 -0.576345 1.46683 0
M  V30 22940 C 2126.74 -1.3602 1.55905 0
M  V30 22941 C 2127.15 -1.87712 0.202401 0
M  V30 22942 O 2126.51 -1.63966 -0.801346 0
M  V30 22943 C 2126.56 -2.54335 2.56897 0
M  V30 22944 O 2126.28 -2.04783 3.87293 0
M  V30 22945 C 2127.78 -3.46804 2.7612 0
M  V30 22946 H 2125 -0.415305 0.527032 0
M  V30 22947 H 2127.54 -0.700047 1.92145 0
M  V30 22948 H 2125.7 -3.16326 2.23644 0
M  V30 22949 H 2126.11 -2.81882 4.42315 0
M  V30 22950 H 2127.59 -4.26286 3.50691 0
M  V30 22951 H 2128.06 -3.99143 1.83253 0
M  V30 22952 H 2128.67 -2.90643 3.10495 0
M  V30 22953 N 2126.99 -1.34495 -0.82151 0
M  V30 22954 C 2127.92 -1.28835 -1.94741 0
M  V30 22955 C 2128.9 -0.165528 -1.69293 0
M  V30 22956 O 2130.08 -0.358115 -1.9087 0
M  V30 22957 C 2127.21 -1.04446 -3.31222 0
M  V30 22958 C 2126.17 -2.13209 -3.71114 0
M  V30 22959 C 2125.49 -1.74007 -5.05594 0
M  V30 22960 C 2126.79 -3.55051 -3.83062 0
M  V30 22961 H 2128.49 -2.23039 -1.99734 0
M  V30 22962 H 2126.03 -1.07369 -0.959573 0
M  V30 22963 H 2127.98 -0.991306 -4.09574 0
M  V30 22964 H 2126.71 -0.0668391 -3.26532 0
M  V30 22965 H 2125.37 -2.17597 -2.95038 0
M  V30 22966 H 2125.02 -0.749021 -4.97392 0
M  V30 22967 H 2124.72 -2.46803 -5.33256 0
M  V30 22968 H 2126.24 -1.7019 -5.86402 0
M  V30 22969 H 2127.65 -3.53068 -4.51681 0
M  V30 22970 H 2126.05 -4.2648 -4.22179 0
M  V30 22971 H 2127.12 -3.92289 -2.85021 0
M  V30 22972 N 2128.46 1.04188 -1.18248 0
M  V30 22973 C 2129.71 1.77367 -0.977091 0
M  V30 22974 C 2130.04 1.88138 0.493397 0
M  V30 22975 O 2129.29 1.38508 1.38253 0
M  V30 22976 C 2129.59 3.20799 -1.57553 0
M  V30 22977 C 2129.26 3.30065 -3.07193 0
M  V30 22978 C 2127.92 3.32301 -3.48037 0
M  V30 22979 C 2130.27 3.30263 -4.03207 0
M  V30 22980 C 2127.6 3.32376 -4.8347 0
M  V30 22981 C 2129.95 3.31877 -5.38554 0
M  V30 22982 C 2128.62 3.32405 -5.78846 0
M  V30 22983 H 2127.89 0.649033 -0.357543 0
M  V30 22984 H 2130.53 1.2238 -1.47294 0
M  V30 22985 H 2128.84 3.7878 -1.00165 0
M  V30 22986 H 2130.54 3.76063 -1.39204 0
M  V30 22987 H 2127.13 3.29044 -2.74641 0
M  V30 22988 H 2131.31 3.27728 -3.72704 0
M  V30 22989 H 2126.57 3.311 -5.13987 0
M  V30 22990 H 2130.74 3.3098 -6.1272 0
M  V30 22991 H 2128.37 3.32216 -6.83766 0
M  V30 22992 N 2129.94 0.98432 1.23081 0
M  V30 22993 C 2130.85 0.536158 2.28391 0
M  V30 22994 C 2131.87 -0.410933 1.69078 0
M  V30 22995 O 2133.04 -0.279885 1.99446 0
M  V30 22996 C 2130.11 -0.150493 3.46373 0
M  V30 22997 C 2129.17 0.83849 4.21032 0
M  V30 22998 C 2128.4 0.184512 5.33381 0
M  V30 22999 O 2128.63 -1.02355 5.61141 0
M  V30 23000 O 2127.56 0.885058 5.95357 0
M  V30 23001 H 2131.39 1.41206 2.68877 0
M  V30 23002 H 2128.97 0.752144 1.29086 0
M  V30 23003 H 2130.85 -0.535499 4.17984 0
M  V30 23004 H 2129.53 -1.00109 3.07831 0
M  V30 23005 H 2128.44 1.27427 3.51729 0
M  V30 23006 H 2129.77 1.65802 4.63433 0
M  V30 23007 N 2131.42 -1.38259 0.756453 0
M  V30 23008 C 2132.37 -2.3229 0.120051 0
M  V30 23009 C 2133.36 -1.54164 -0.702119 0
M  V30 23010 O 2134.57 -1.69674 -0.600895 0
M  V30 23011 H 2130.94 -0.751733 0.0200275 0
M  V30 23012 H 2132.91 -2.83566 0.929131 0
M  V30 23013 C 2131.66 -3.39368 -0.756628 0
M  V30 23014 H 2130.99 -3.99577 -0.133366 0
M  V30 23015 H 2132.43 -4.07562 -1.16916 0
M  V30 23016 C 2130.89 -2.78176 -1.90051 0
M  V30 23017 O 2131.42 -2.67711 -2.99489 0
M  V30 23018 N 2129.62 -2.35944 -1.69644 0
M  V30 23019 H 2129.17 -2.44655 -0.806323 0
M  V30 23020 H 2129.13 -1.95344 -2.46349 0
M  V30 23021 N 2132.9 -0.505757 -1.49264 0
M  V30 23022 C 2134.15 0.0370719 -2.02466 0
M  V30 23023 C 2134.47 1.36554 -1.38504 0
M  V30 23024 O 2133.73 1.88895 -0.51159 0
M  V30 23025 C 2134.03 0.233245 -3.56638 0
M  V30 23026 C 2133.69 -1.01781 -4.39262 0
M  V30 23027 C 2132.36 -1.36074 -4.6156 0
M  V30 23028 C 2134.71 -1.84918 -4.87293 0
M  V30 23029 C 2132.04 -2.53445 -5.29134 0
M  V30 23030 C 2134.39 -3.01446 -5.56159 0
M  V30 23031 C 2133.05 -3.36113 -5.76701 0
M  V30 23032 H 2132.32 0.0135656 -0.740876 0
M  V30 23033 H 2134.97 -0.666878 -1.79513 0
M  V30 23034 H 2133.27 1.01976 -3.78296 0
M  V30 23035 H 2134.97 0.66778 -3.95401 0
M  V30 23036 H 2131.56 -0.740706 -4.22151 0
M  V30 23037 H 2135.74 -1.59738 -4.69891 0
M  V30 23038 H 2131 -2.80536 -5.4324 0
M  V30 23039 H 2135.17 -3.66189 -5.9235 0
M  V30 23040 H 2132.8 -4.27163 -6.28837 0
M  V30 23041 N 2134.38 1.55765 -0.239796 0
M  V30 23042 C 2135.6 2.03167 0.391261 0
M  V30 23043 C 2136.02 1.11923 1.52049 0
M  V30 23044 O 2135.38 0.132278 1.8202 0
M  V30 23045 C 2135.43 3.49969 0.90575 0
M  V30 23046 O 2135.15 4.37736 -0.178468 0
M  V30 23047 C 2136.65 4.131 1.60821 0
M  V30 23048 H 2133.87 0.664411 0.0938007 0
M  V30 23049 H 2136.41 2.01278 -0.361584 0
M  V30 23050 H 2134.57 3.52415 1.6088 0
M  V30 23051 H 2134.98 5.24075 0.211064 0
M  V30 23052 H 2136.46 5.17533 1.92 0
M  V30 23053 H 2136.93 3.59169 2.52773 0
M  V30 23054 H 2137.54 4.14556 0.949915 0
M  V30 23055 N 2135.85 -0.0334016 1.57565 0
M  V30 23056 C 2136.78 -1.03494 2.09312 0
M  V30 23057 C 2137.77 -1.37985 0.9947 0
M  V30 23058 O 2138.95 -1.46944 1.26969 0
M  V30 23059 C 2136.08 -2.33717 2.56892 0
M  V30 23060 C 2135.03 -2.1348 3.70959 0
M  V30 23061 C 2134.36 -3.49425 4.0473 0
M  V30 23062 C 2135.66 -1.52451 4.99556 0
M  V30 23063 H 2137.35 -0.60419 2.9324 0
M  V30 23064 H 2134.9 -0.289182 1.41066 0
M  V30 23065 H 2136.85 -3.04107 2.91714 0
M  V30 23066 H 2135.58 -2.78843 1.70041 0
M  V30 23067 H 2134.24 -1.45523 3.3648 0
M  V30 23068 H 2133.88 -3.92192 3.14952 0
M  V30 23069 H 2133.58 -3.36711 4.81559 0
M  V30 23070 H 2135.11 -4.21184 4.42082 0
M  V30 23071 H 2136.52 -2.12753 5.32362 0
M  V30 23072 H 2134.92 -1.50324 5.80967 0
M  V30 23073 H 2135.99 -0.48986 4.82419 0
M  V30 23074 N 2137.33 -1.54609 -0.305591 0
M  V30 23075 C 2138.61 -1.64344 -1.06068 0
M  V30 23076 C 2138.99 -0.488774 -2.05364 0
M  V30 23077 O 2138.34 0.515015 -2.2262 0
M  V30 23078 C 2138.55 -3.02149 -1.74663 0
M  V30 23079 C 2139.9 -3.58808 -2.27029 0
M  V30 23080 O 2140.92 -3.04571 -1.84703 0
M  V30 23081 O 2139.78 -4.53762 -3.04568 0
M  V30 23082 H 2136.87 -0.666216 -0.489984 0
M  V30 23083 H 2139.42 -1.66954 -0.304046 0
M  V30 23084 H 2138.19 -3.77626 -1.02538 0
M  V30 23085 H 2137.81 -3.03296 -2.57094 0
M  V30 23086 N 2138.81 0.568558 -1.46987 0
M  V30 23087 C 2139.74 1.69177 -1.53149 0
M  V30 23088 C 2140.72 1.57989 -0.384472 0
M  V30 23089 O 2141.91 1.79007 -0.590656 0
M  V30 23090 C 2139.03 3.0734 -1.42336 0
M  V30 23091 C 2138.08 3.37007 -2.61398 0
M  V30 23092 S 2138.91 3.27512 -4.2367 0
M  V30 23093 C 2140.07 4.6819 -4.15391 0
M  V30 23094 H 2140.3 1.63693 -2.48177 0
M  V30 23095 H 2137.83 0.748461 -1.35046 0
M  V30 23096 H 2139.79 3.8704 -1.36786 0
M  V30 23097 H 2138.45 3.103 -0.487122 0
M  V30 23098 H 2137.65 4.37703 -2.49865 0
M  V30 23099 H 2137.25 2.64903 -2.64012 0
M  V30 23100 H 2139.54 5.58892 -3.82944 0
M  V30 23101 H 2140.48 4.8478 -5.16134 0
M  V30 23102 H 2140.89 4.45704 -3.46423 0
M  V30 23103 N 2140.29 1.34929 0.814366 0
M  V30 23104 C 2141.25 1.27093 1.90736 0
M  V30 23105 C 2142.25 0.184145 1.59742 0
M  V30 23106 O 2143.44 0.437337 1.68621 0
M  V30 23107 C 2140.57 0.964254 3.26979 0
M  V30 23108 H 2141.77 2.24271 1.99105 0
M  V30 23109 H 2139.32 1.19341 1.00933 0
M  V30 23110 H 2140.05 -0.0039895 3.243 0
M  V30 23111 H 2139.84 1.75045 3.50859 0
M  V30 23112 H 2141.33 0.934826 4.07002 0
M  V30 23113 N 2141.77 -1.0356 1.18799 0
M  V30 23114 C 2143.18 -1.29071 0.938761 0
M  V30 23115 C 2143.38 -1.97635 -0.39276 0
M  V30 23116 O 2142.44 -2.26009 -1.12588 0
M  V30 23117 C 2143.75 -2.14442 2.10797 0
M  V30 23118 C 2145.3 -2.27772 2.14684 0
M  V30 23119 C 2145.77 -3.16511 3.31036 0
M  V30 23120 N 2147.27 -3.24099 3.30929 0
M  V30 23121 C 2148 -3.92932 4.17603 0
M  V30 23122 N 2147.5 -4.64053 5.14419 0
M  V30 23123 N 2149.29 -3.89263 4.05501 0
M  V30 23124 H 2141.44 -0.57466 2.04478 0
M  V30 23125 H 2143.7 -0.316119 0.893741 0
M  V30 23126 H 2143.41 -1.71376 3.07121 0
M  V30 23127 H 2143.28 -3.15136 2.0729 0
M  V30 23128 H 2145.67 -2.70072 1.18934 0
M  V30 23129 H 2145.75 -1.26651 2.22246 0
M  V30 23130 H 2145.4 -2.74921 4.27061 0
M  V30 23131 H 2145.33 -4.17675 3.20711 0
M  V30 23132 H 2147.82 -2.7344 2.60843 0
M  V30 23133 H 2148.13 -5.14187 5.76916 0
M  V30 23134 H 2146.47 -4.62941 5.18373 0
M  V30 23135 H 2149.67 -3.32836 3.29147 0
M  V30 23136 H 2149.84 -4.42635 4.73263 0
M  V30 23137 N 2143.25 -0.990834 -1.22557 0
M  V30 23138 C 2144.49 -0.666519 -1.91534 0
M  V30 23139 C 2144.82 0.799165 -1.76994 0
M  V30 23140 O 2144.1 1.57769 -1.13751 0
M  V30 23141 C 2144.38 -1.07064 -3.43816 0
M  V30 23142 C 2144.24 -2.59473 -3.67415 0
M  V30 23143 C 2145.55 -0.622332 -4.35678 0
M  V30 23144 H 2142.67 -0.243613 -0.695573 0
M  V30 23145 H 2145.32 -1.23399 -1.44474 0
M  V30 23146 H 2143.47 -0.587797 -3.84028 0
M  V30 23147 H 2145.14 -3.15412 -3.3662 0
M  V30 23148 H 2143.38 -3.01635 -3.11767 0
M  V30 23149 H 2144.05 -2.828 -4.74055 0
M  V30 23150 H 2146.53 -1.03704 -4.0297 0
M  V30 23151 H 2145.4 -0.933416 -5.40905 0
M  V30 23152 H 2145.66 0.477057 -4.39519 0
M  V30 23153 N 2144.72 1.37856 -0.763775 0
M  V30 23154 C 2145.96 2.01726 -0.329558 0
M  V30 23155 C 2146.33 1.5932 1.0715 0
M  V30 23156 O 2147.53 2.15594 1.60539 0
M  V30 23157 C 2145.8 3.54433 -0.459551 0
M  V30 23158 S 2147.36 4.38664 -0.10942 0
M  V30 23159 H 2144.18 0.699521 -0.127247 0
M  V30 23160 H 2146.78 1.68189 -0.996636 0
M  V30 23161 H 2145.48 3.82784 -1.48001 0
M  V30 23162 H 2145.01 3.9276 0.224357 0
M  V30 23163 H 2147.03 4.83907 1.09767 0
M  V30 23164 N 2146.2 0.513665 1.48994 0
M  V30 23165 C 2147.43 -0.0248975 2.07385 0
M  V30 23166 C 2147.85 -1.28903 1.36987 0
M  V30 23167 O 2147.21 -1.76113 0.430588 0
M  V30 23168 C 2147.26 -0.248634 3.59742 0
M  V30 23169 O 2146.36 -1.32076 3.90679 0
M  V30 23170 H 2145.7 0.0318565 0.663235 0
M  V30 23171 H 2148.23 0.716913 1.91629 0
M  V30 23172 H 2148.24 -0.476291 4.0521 0
M  V30 23173 H 2146.92 0.674899 4.10388 0
M  V30 23174 H 2145.49 -1.07705 3.57007 0
M  V30 23175 N 2147.68 -1.55636 0.248053 0
M  V30 23176 C 2148.63 -2.21428 -0.651012 0
M  V30 23177 C 2149.6 -1.17855 -1.17045 0
M  V30 23178 O 2150.78 -1.46306 -1.22471 0
M  V30 23179 C 2147.92 -2.91846 -1.84174 0
M  V30 23180 C 2147.03 -4.10077 -1.35872 0
M  V30 23181 C 2146.17 -4.68207 -2.50909 0
M  V30 23182 C 2145.21 -5.78685 -1.99475 0
M  V30 23183 N 2144.35 -6.30993 -3.07883 0
M  V30 23184 H 2149.19 -2.97884 -0.0832758 0
M  V30 23185 H 2146.72 -1.47071 -0.0293424 0
M  V30 23186 H 2148.68 -3.30873 -2.54124 0
M  V30 23187 H 2147.31 -2.17862 -2.38193 0
M  V30 23188 H 2146.36 -3.76356 -0.553219 0
M  V30 23189 H 2147.67 -4.89829 -0.941776 0
M  V30 23190 H 2146.83 -5.09814 -3.28899 0
M  V30 23191 H 2145.57 -3.87674 -2.95905 0
M  V30 23192 H 2144.57 -5.36555 -1.19955 0
M  V30 23193 H 2145.8 -6.6107 -1.55447 0
M  V30 23194 H 2143.74 -5.53365 -3.52312 0
M  V30 23195 H 2143.66 -7.05941 -2.70523 0
M  V30 23196 H 2144.93 -6.77258 -3.8593 0
M  V30 23197 N 2149.16 0.0250451 -1.5758 0
M  V30 23198 C 2150.57 0.380756 -1.54992 0
M  V30 23199 C 2150.77 1.76357 -0.974703 0
M  V30 23200 O 2149.83 2.45328 -0.597511 0
M  V30 23201 C 2151.14 0.278925 -2.99404 0
M  V30 23202 C 2152.69 0.355712 -3.10972 0
M  V30 23203 C 2153.17 0.283285 -4.57123 0
M  V30 23204 N 2154.66 0.341957 -4.61936 0
M  V30 23205 C 2155.39 0.308868 -5.72568 0
M  V30 23206 N 2154.89 0.227836 -6.92425 0
M  V30 23207 N 2156.68 0.358894 -5.60953 0
M  V30 23208 H 2148.83 -0.879846 -1.9332 0
M  V30 23209 H 2151.09 -0.334939 -0.88686 0
M  V30 23210 H 2150.8 -0.671495 -3.4523 0
M  V30 23211 H 2150.67 1.07099 -3.61676 0
M  V30 23212 H 2153.06 1.29657 -2.65091 0
M  V30 23213 H 2153.14 -0.465777 -2.51524 0
M  V30 23214 H 2152.79 -0.653918 -5.03673 0
M  V30 23215 H 2152.72 1.12293 -5.14488 0
M  V30 23216 H 2155.21 0.406934 -3.75703 0
M  V30 23217 H 2155.52 0.207798 -7.72521 0
M  V30 23218 H 2153.87 0.193826 -6.9473 0
M  V30 23219 H 2157.06 0.420219 -4.6621 0
M  V30 23220 H 2157.23 0.329639 -6.47161 0
M  V30 23221 N 2150.64 1.54769 0.297388 0
M  V30 23222 C 2151.55 1.89032 1.38939 0
M  V30 23223 C 2152.56 0.784856 1.55293 0
M  V30 23224 O 2153.74 1.08166 1.69888 0
M  V30 23225 C 2150.8 2.13378 2.7326 0
M  V30 23226 C 2149.86 3.37071 2.6586 0
M  V30 23227 C 2149.1 3.60246 3.93775 0
M  V30 23228 O 2149.32 2.86366 4.93306 0
M  V30 23229 O 2148.25 4.53765 3.9545 0
M  V30 23230 H 2152.08 2.81941 1.12884 0
M  V30 23231 H 2149.66 1.41004 0.493771 0
M  V30 23232 H 2151.55 2.30571 3.52725 0
M  V30 23233 H 2150.22 1.23654 2.99151 0
M  V30 23234 H 2149.13 3.25238 1.84855 0
M  V30 23235 H 2150.46 4.26936 2.44921 0
M  V30 23236 N 2152.11 -0.560755 1.47286 0
M  V30 23237 C 2153.06 -1.66812 1.59507 0
M  V30 23238 C 2154.03 -1.60214 0.438263 0
M  V30 23239 O 2155.22 -1.791 0.657862 0
M  V30 23240 C 2152.36 -3.05138 1.61199 0
M  V30 23241 C 2151.47 -3.22198 2.87771 0
M  V30 23242 C 2150.6 -4.50902 2.80822 0
M  V30 23243 C 2149.64 -4.61382 4.02235 0
M  V30 23244 N 2148.78 -5.81436 3.93543 0
M  V30 23245 H 2153.62 -1.55705 2.54087 0
M  V30 23246 H 2151.16 -0.758538 1.26034 0
M  V30 23247 H 2153.11 -3.85232 1.60163 0
M  V30 23248 H 2151.74 -3.15089 0.701347 0
M  V30 23249 H 2150.8 -2.3556 2.9869 0
M  V30 23250 H 2152.11 -3.25807 3.77692 0
M  V30 23251 H 2151.26 -5.39251 2.78016 0
M  V30 23252 H 2150 -4.49766 1.88578 0
M  V30 23253 H 2149.01 -3.71445 4.0535 0
M  V30 23254 H 2150.23 -4.6428 4.95601 0
M  V30 23255 H 2148.18 -5.81257 3.041 0
M  V30 23256 H 2148.09 -5.86408 4.77139 0
M  V30 23257 H 2149.36 -6.72157 3.94747 0
M  V30 23258 N 2153.59 -1.35359 -0.807199 0
M  V30 23259 C 2155.01 -1.15384 -1.10266 0
M  V30 23260 C 2155.21 0.0341061 -2.01471 0
M  V30 23261 O 2154.26 0.704898 -2.42461 0
M  V30 23262 C 2155.58 -2.45652 -1.73423 0
M  V30 23263 C 2157.12 -2.51853 -1.85847 0
M  V30 23264 C 2157.6 -3.82163 -2.5242 0
M  V30 23265 N 2159.09 -3.83411 -2.59905 0
M  V30 23266 C 2159.83 -4.80967 -3.12183 0
M  V30 23267 N 2159.32 -5.88912 -3.64903 0
M  V30 23268 N 2161.11 -4.68405 -3.1073 0
M  V30 23269 H 2153.27 -2.11448 -0.200891 0
M  V30 23270 H 2155.53 -0.935782 -0.151711 0
M  V30 23271 H 2155.23 -3.32755 -1.13874 0
M  V30 23272 H 2155.11 -2.60154 -2.73129 0
M  V30 23273 H 2157.5 -1.6518 -2.4454 0
M  V30 23274 H 2157.58 -2.41265 -0.84998 0
M  V30 23275 H 2157.22 -4.69234 -1.94376 0
M  V30 23276 H 2157.15 -3.90039 -3.53804 0
M  V30 23277 H 2159.64 -3.05415 -2.22553 0
M  V30 23278 H 2159.95 -6.59346 -4.03091 0
M  V30 23279 H 2158.3 -5.92605 -3.63104 0
M  V30 23280 H 2161.49 -3.83215 -2.6882 0
M  V30 23281 H 2161.66 -5.44598 -3.51166 0
M  V30 23282 N 2155.07 1.02928 -1.19346 0
M  V30 23283 C 2156.32 1.76582 -0.997324 0
M  V30 23284 C 2156.65 1.88407 0.470801 0
M  V30 23285 O 2155.92 1.40057 1.34961 0
M  V30 23286 C 2156.21 3.19219 -1.66647 0
M  V30 23287 C 2156.06 3.15268 -3.20822 0
M  V30 23288 C 2157.38 4.17602 -1.38912 0
M  V30 23289 H 2154.5 0.640995 -0.363722 0
M  V30 23290 H 2157.14 1.20159 -1.4718 0
M  V30 23291 H 2155.29 3.67395 -1.26306 0
M  V30 23292 H 2156.96 2.74993 -3.70374 0
M  V30 23293 H 2155.2 2.52994 -3.52387 0
M  V30 23294 H 2155.88 4.1604 -3.62788 0
M  V30 23295 H 2158.35 3.78025 -1.73887 0
M  V30 23296 H 2157.23 5.15597 -1.88283 0
M  V30 23297 H 2157.49 4.40982 -0.314198 0
M  V30 23298 N 2156.55 0.997319 1.2203 0
M  V30 23299 C 2157.51 0.556352 2.22345 0
M  V30 23300 C 2158.51 -0.363165 1.56645 0
M  V30 23301 O 2159.7 -0.154511 1.73513 0
M  V30 23302 C 2156.83 -0.190172 3.40369 0
M  V30 23303 H 2158.03 1.44355 2.62872 0
M  V30 23304 H 2155.58 0.784999 1.35157 0
M  V30 23305 H 2156.31 -1.09315 3.05321 0
M  V30 23306 H 2156.1 0.470115 3.89272 0
M  V30 23307 H 2157.59 -0.486708 4.14754 0
M  V30 23308 N 2158.03 -1.37449 0.771075 0
M  V30 23309 C 2159.3 -1.93866 0.259851 0
M  V30 23310 C 2159.68 -1.7048 -1.24498 0
M  V30 23311 O 2159.03 -1.05322 -2.0278 0
M  V30 23312 C 2159.24 -3.4322 0.63251 0
M  V30 23313 C 2160.59 -4.20312 0.601925 0
M  V30 23314 O 2161.61 -3.5158 0.571859 0
M  V30 23315 O 2160.47 -5.42875 0.628405 0
M  V30 23316 H 2157.57 -0.824843 0.0596922 0
M  V30 23317 H 2160.11 -1.4674 0.852382 0
M  V30 23318 H 2158.88 -3.53822 1.6711 0
M  V30 23319 H 2158.51 -3.97598 0.0128904 0
M  V30 23320 N 2159.5 -0.52156 -1.4872 0
M  V30 23321 C 2160.92 -0.0789475 -1.86533 0
M  V30 23322 C 2161.27 1.34125 -1.43196 0
M  V30 23323 O 2160.39 2.00307 -0.818913 0
M  V30 23324 C 2160.99 -0.136494 -3.38525 0
M  V30 23325 C 2159.55 0.250879 -3.75563 0
M  V30 23326 C 2158.69 -0.499991 -2.72755 0
M  V30 23327 H 2161.64 -0.733264 -1.40744 0
M  V30 23328 H 2161.66 0.653868 -3.7484 0
M  V30 23329 H 2161.18 -1.17024 -3.70036 0
M  V30 23330 H 2159.28 1.28709 -3.49664 0
M  V30 23331 H 2159.39 -0.0828724 -4.79028 0
M  V30 23332 H 2157.75 0.0527232 -2.54645 0
M  V30 23333 H 2158.54 -1.53421 -3.0711 0
M  V30 23334 N 2160.98 1.55502 -0.256304 0
M  V30 23335 C 2162.21 2.0357 0.36969 0
M  V30 23336 C 2162.63 1.13529 1.50853 0
M  V30 23337 O 2161.98 0.151576 1.81869 0
M  V30 23338 C 2162.03 3.5091 0.868581 0
M  V30 23339 O 2161.75 4.37522 -0.224886 0
M  V30 23340 C 2163.26 4.14782 1.56431 0
M  V30 23341 H 2160.48 0.665369 0.0867485 0
M  V30 23342 H 2163.02 2.00883 -0.382912 0
M  V30 23343 H 2161.17 3.54102 1.57133 0
M  V30 23344 H 2161.59 5.2427 0.155467 0
M  V30 23345 H 2163.06 5.1954 1.865 0
M  V30 23346 H 2163.54 3.6183 2.48949 0
M  V30 23347 H 2164.15 4.1554 0.905893 0
M  V30 23348 N 2162.46 -0.0166879 1.57591 0
M  V30 23349 C 2163.39 -1.01268 2.10398 0
M  V30 23350 C 2164.37 -1.36922 1.00928 0
M  V30 23351 O 2165.56 -1.45589 1.2852 0
M  V30 23352 C 2162.69 -2.30979 2.59357 0
M  V30 23353 C 2161.64 -2.09533 3.73202 0
M  V30 23354 C 2160.97 -3.45113 4.08413 0
M  V30 23355 C 2162.27 -1.47144 5.01145 0
M  V30 23356 H 2163.96 -0.573053 2.93865 0
M  V30 23357 H 2161.51 -0.274203 1.41365 0
M  V30 23358 H 2163.46 -3.00996 2.94923 0
M  V30 23359 H 2162.18 -2.77024 1.72989 0
M  V30 23360 H 2160.84 -1.41946 3.38004 0
M  V30 23361 H 2160.49 -3.88829 3.19094 0
M  V30 23362 H 2160.19 -3.31585 4.85104 0
M  V30 23363 H 2161.71 -4.16472 4.46524 0
M  V30 23364 H 2163.13 -2.07094 5.34588 0
M  V30 23365 H 2161.53 -1.44154 5.82529 0
M  V30 23366 H 2162.6 -0.438665 4.82912 0
M  V30 23367 N 2163.94 -1.54924 -0.289176 0
M  V30 23368 C 2164.85 -1.89766 -1.37935 0
M  V30 23369 C 2165.86 -0.793081 -1.54875 0
M  V30 23370 O 2167.04 -1.09065 -1.69312 0
M  V30 23371 C 2164.11 -2.14824 -2.72124 0
M  V30 23372 C 2163.17 -3.38476 -2.64069 0
M  V30 23373 C 2162.4 -3.62329 -3.91859 0
M  V30 23374 O 2162.62 -2.88978 -4.9178 0
M  V30 23375 O 2161.56 -4.55856 -3.93038 0
M  V30 23376 H 2165.38 -2.82536 -1.11387 0
M  V30 23377 H 2162.97 -1.41264 -0.486286 0
M  V30 23378 H 2164.85 -2.32438 -3.51498 0
M  V30 23379 H 2163.52 -1.25238 -2.98491 0
M  V30 23380 H 2162.43 -3.26213 -1.83127 0
M  V30 23381 H 2163.76 -4.28229 -2.42654 0
M  V30 23382 N 2165.42 0.552936 -1.47582 0
M  V30 23383 C 2166.36 1.65963 -1.60389 0
M  V30 23384 C 2167.33 1.59979 -0.446754 0
M  V30 23385 O 2168.52 1.78749 -0.667351 0
M  V30 23386 C 2165.66 3.04278 -1.62815 0
M  V30 23387 C 2164.77 3.20668 -2.89476 0
M  V30 23388 C 2163.91 4.49406 -2.8321 0
M  V30 23389 C 2162.95 4.59243 -4.04676 0
M  V30 23390 N 2162.08 5.79341 -3.96621 0
M  V30 23391 H 2166.92 1.54355 -2.54909 0
M  V30 23392 H 2164.46 0.751844 -1.26435 0
M  V30 23393 H 2166.42 3.84377 -1.62204 0
M  V30 23394 H 2165.05 3.14712 -0.718048 0
M  V30 23395 H 2164.1 2.33973 -2.99935 0
M  V30 23396 H 2165.41 3.238 -3.79414 0
M  V30 23397 H 2164.57 5.3777 -2.80872 0
M  V30 23398 H 2163.3 4.4876 -1.90961 0
M  V30 23399 H 2162.31 3.69291 -4.07314 0
M  V30 23400 H 2163.53 4.61645 -4.98057 0
M  V30 23401 H 2161.48 5.79636 -3.07178 0
M  V30 23402 H 2161.4 5.8387 -4.80242 0
M  V30 23403 H 2162.67 6.70054 -3.98306 0
M  V30 23404 N 2166.89 1.35785 0.800009 0
M  V30 23405 C 2168.12 1.32363 1.5863 0
M  V30 23406 C 2168.53 -0.099518 1.88938 0
M  V30 23407 O 2167.88 -1.06381 1.49763 0
M  V30 23408 C 2167.94 2.0694 2.93966 0
M  V30 23409 C 2167.6 3.56091 2.86441 0
M  V30 23410 C 2168.6 4.50553 2.59419 0
M  V30 23411 C 2166.28 3.98831 3.05351 0
M  V30 23412 C 2168.28 5.8573 2.51394 0
M  V30 23413 C 2165.96 5.34102 2.96948 0
M  V30 23414 C 2166.96 6.27364 2.70006 0
M  V30 23415 O 2166.65 7.60153 2.61578 0
M  V30 23416 H 2166.38 0.456006 0.499033 0
M  V30 23417 H 2168.94 1.7932 1.00168 0
M  V30 23418 H 2167.17 1.5463 3.54438 0
M  V30 23419 H 2168.86 1.96511 3.55159 0
M  V30 23420 H 2169.62 4.18848 2.44522 0
M  V30 23421 H 2165.5 3.2662 3.25331 0
M  V30 23422 H 2169.04 6.58494 2.30285 0
M  V30 23423 H 2164.94 5.65418 3.11405 0
M  V30 23424 H 2165.71 7.70154 2.77137 0
M  V30 23425 N 2168.37 -1.02294 1.19891 0
M  V30 23426 C 2169.62 -1.76051 1.00667 0
M  V30 23427 C 2169.95 -1.88654 -0.460802 0
M  V30 23428 O 2169.23 -1.4077 -1.34216 0
M  V30 23429 C 2169.51 -3.18331 1.68338 0
M  V30 23430 C 2169.36 -3.13562 3.22489 0
M  V30 23431 C 2170.68 -4.16859 1.41125 0
M  V30 23432 H 2167.8 -0.639057 0.367117 0
M  V30 23433 H 2170.44 -1.19377 1.47815 0
M  V30 23434 H 2168.59 -3.6672 1.28252 0
M  V30 23435 H 2170.26 -2.73025 3.71827 0
M  V30 23436 H 2168.51 -2.51121 3.53724 0
M  V30 23437 H 2169.18 -4.1411 3.64989 0
M  V30 23438 H 2171.65 -3.77097 1.75889 0
M  V30 23439 H 2170.53 -5.14592 1.91015 0
M  V30 23440 H 2170.79 -4.40809 0.33758 0
M  V30 23441 N 2169.85 -1.00378 -1.21499 0
M  V30 23442 C 2170.78 -0.583318 -2.26097 0
M  V30 23443 C 2171.76 0.395257 -1.65444 0
M  V30 23444 O 2172.95 0.283508 -1.92119 0
M  V30 23445 C 2170.08 0.0920619 -3.47178 0
M  V30 23446 C 2169.03 -0.806168 -4.20339 0
M  V30 23447 C 2168.36 0.0027323 -5.347 0
M  V30 23448 C 2169.66 -2.1082 -4.77862 0
M  V30 23449 H 2171.35 -1.45765 -2.6152 0
M  V30 23450 H 2168.9 -0.702333 -1.25711 0
M  V30 23451 H 2170.85 0.397677 -4.19519 0
M  V30 23452 H 2169.57 1.00102 -3.10881 0
M  V30 23453 H 2168.23 -1.09559 -3.49846 0
M  V30 23454 H 2167.88 0.912942 -4.94646 0
M  V30 23455 H 2167.58 -0.595326 -5.84576 0
M  V30 23456 H 2169.1 0.302191 -6.09852 0
M  V30 23457 H 2170.52 -1.86581 -5.42089 0
M  V30 23458 H 2168.92 -2.656 -5.38123 0
M  V30 23459 H 2169.99 -2.77978 -3.97311 0
M  V30 23460 N 2171.33 1.37038 -0.778354 0
M  V30 23461 C 2172.55 2.0432 -0.356086 0
M  V30 23462 C 2172.98 1.58315 1.01577 0
M  V30 23463 O 2172.34 0.74645 1.65221 0
M  V30 23464 C 2172.38 3.58196 -0.41573 0
M  V30 23465 O 2171.49 4.08281 0.581416 0
M  V30 23466 H 2170.83 0.646127 -0.153022 0
M  V30 23467 H 2173.36 1.75219 -1.05639 0
M  V30 23468 H 2173.37 4.0707 -0.275375 0
M  V30 23469 H 2172.04 3.91034 -1.41652 0
M  V30 23470 H 2170.62 3.70709 0.403635 0
M  V30 23471 N 2172.81 0.529439 1.48441 0
M  V30 23472 C 2174.05 -0.00486384 2.02799 0
M  V30 23473 C 2174.39 -1.33985 1.40576 0
M  V30 23474 O 2173.66 -1.86523 0.551326 0
M  V30 23475 C 2173.94 -0.127443 3.59874 0
M  V30 23476 C 2173.8 1.23268 4.3258 0
M  V30 23477 C 2175.12 -0.854486 4.31725 0
M  V30 23478 H 2172.24 -0.00029358 0.737 0
M  V30 23479 H 2174.88 0.686364 1.7717 0
M  V30 23480 H 2173.03 -0.716153 3.81842 0
M  V30 23481 H 2174.7 1.86245 4.22031 0
M  V30 23482 H 2172.94 1.8147 3.94019 0
M  V30 23483 H 2173.61 1.09991 5.40931 0
M  V30 23484 H 2176.09 -0.354911 4.14584 0
M  V30 23485 H 2174.97 -0.909151 5.41318 0
M  V30 23486 H 2175.23 -1.90464 3.98968 0
M  V30 23487 N 2174.29 -1.55364 0.264547 0
M  V30 23488 C 2175.53 -1.99655 -0.355771 0
M  V30 23489 C 2175.86 -1.15266 -1.56293 0
M  V30 23490 O 2175.14 -0.220196 -1.9325 0
M  V30 23491 C 2175.42 -3.52238 -0.748347 0
M  V30 23492 C 2175.28 -4.47386 0.465419 0
M  V30 23493 C 2176.59 -4.10422 -1.58877 0
M  V30 23494 H 2173.71 -0.725828 -0.12784 0
M  V30 23495 H 2176.36 -1.86375 0.369383 0
M  V30 23496 H 2174.51 -3.63686 -1.36619 0
M  V30 23497 H 2176.18 -4.47896 1.10395 0
M  V30 23498 H 2174.42 -4.1948 1.10539 0
M  V30 23499 H 2175.09 -5.51804 0.147135 0
M  V30 23500 H 2177.57 -4.02185 -1.06707 0
M  V30 23501 H 2176.44 -5.17415 -1.83228 0
M  V30 23502 H 2176.7 -3.59985 -2.56639 0
M  V30 23503 N 2175.76 0.00833021 -1.57598 0
M  V30 23504 C 2176.69 1.0015 -2.10932 0
M  V30 23505 C 2177.67 1.36385 -1.01653 0
M  V30 23506 O 2178.86 1.44906 -1.2929 0
M  V30 23507 C 2175.99 2.296 -2.60578 0
M  V30 23508 C 2174.94 2.07551 -3.74308 0
M  V30 23509 C 2174.27 3.42942 -4.10238 0
M  V30 23510 C 2175.57 1.44484 -5.01918 0
M  V30 23511 H 2177.26 0.557461 -2.94164 0
M  V30 23512 H 2174.81 0.266703 -1.41509 0
M  V30 23513 H 2176.76 2.99428 -2.96515 0
M  V30 23514 H 2175.49 2.76103 -1.74456 0
M  V30 23515 H 2174.15 1.40152 -3.38752 0
M  V30 23516 H 2173.79 3.87132 -3.21151 0
M  V30 23517 H 2173.49 3.29007 -4.86855 0
M  V30 23518 H 2175.02 4.14098 -4.48726 0
M  V30 23519 H 2176.43 2.04256 -5.35679 0
M  V30 23520 H 2174.83 1.41063 -5.83285 0
M  V30 23521 H 2175.9 0.413049 -4.83138 0
M  V30 23522 N 2177.24 1.55075 0.280956 0
M  V30 23523 C 2178.52 1.6601 1.0344 0
M  V30 23524 C 2178.9 0.521384 2.0456 0
M  V30 23525 O 2178.25 -0.479533 2.23412 0
M  V30 23526 C 2178.46 3.04889 1.69834 0
M  V30 23527 C 2179.8 3.62374 2.21292 0
M  V30 23528 O 2180.83 3.07471 1.79834 0
M  V30 23529 O 2179.69 4.5855 2.97311 0
M  V30 23530 H 2176.78 0.673927 0.479324 0
M  V30 23531 H 2179.33 1.67417 0.277446 0
M  V30 23532 H 2178.1 3.7921 0.96517 0
M  V30 23533 H 2177.72 3.07347 2.52237 0
M  V30 23534 N 2178.72 -0.545102 1.47873 0
M  V30 23535 C 2179.95 -1.32682 1.58755 0
M  V30 23536 C 2180.36 -1.8724 0.242172 0
M  V30 23537 O 2179.72 -1.65628 -0.766386 0
M  V30 23538 C 2179.77 -2.48828 2.62234 0
M  V30 23539 O 2179.49 -1.96522 3.91549 0
M  V30 23540 C 2180.99 -3.40869 2.83414 0
M  V30 23541 H 2178.21 -0.404033 0.535722 0
M  V30 23542 H 2180.76 -0.659132 1.93586 0
M  V30 23543 H 2178.91 -3.11511 2.30303 0
M  V30 23544 H 2179.33 -2.72436 4.48195 0
M  V30 23545 H 2180.8 -4.18751 3.59655 0
M  V30 23546 H 2181.28 -3.95166 1.91679 0
M  V30 23547 H 2181.88 -2.83991 3.1659 0
M  V30 23548 N 2180.2 -1.36208 -0.792797 0
M  V30 23549 C 2181.45 -1.2958 -1.5457 0
M  V30 23550 C 2181.76 0.123772 -1.95208 0
M  V30 23551 O 2182.97 0.312401 -2.69697 0
M  V30 23552 C 2181.42 -2.27331 -2.79014 0
M  V30 23553 C 2181.03 -3.74707 -2.45558 0
M  V30 23554 C 2182.77 -2.29674 -3.57002 0
M  V30 23555 C 2180.68 -4.64243 -3.66377 0
M  V30 23556 H 2179.61 -0.481506 -0.580231 0
M  V30 23557 H 2182.26 -1.61551 -0.870256 0
M  V30 23558 H 2180.64 -1.88349 -3.4834 0
M  V30 23559 H 2181.82 -4.22404 -1.84151 0
M  V30 23560 H 2180.13 -3.75106 -1.80788 0
M  V30 23561 H 2182.73 -2.93779 -4.46764 0
M  V30 23562 H 2183.07 -1.30432 -3.95339 0
M  V30 23563 H 2183.61 -2.67255 -2.94652 0
M  V30 23564 H 2180.34 -5.64534 -3.33138 0
M  V30 23565 H 2179.86 -4.21264 -4.26963 0
M  V30 23566 H 2181.54 -4.80348 -4.33446 0
M  V30 23567 N 2181.68 1.01656 -1.20431 0
M  V30 23568 C 2182.62 2.12315 -0.950014 0
M  V30 23569 C 2183.62 1.69113 0.0986435 0
M  V30 23570 O 2184.82 1.79926 -0.0517176 0
M  V30 23571 H 2181.2 0.69388 -0.289886 0
M  V30 23572 H 2183.17 2.30948 -1.8896 0
M  V30 23573 C 2181.92 3.43809 -0.518689 0
M  V30 23574 H 2181.24 3.77478 -1.3172 0
M  V30 23575 H 2182.68 4.22294 -0.37997 0
M  V30 23576 C 2181.14 3.28008 0.768922 0
M  V30 23577 O 2181.67 3.5773 1.82735 0
M  V30 23578 N 2179.88 2.81257 0.730955 0
M  V30 23579 H 2179.42 2.57269 -0.13064 0
M  V30 23580 H 2179.38 2.71065 1.59282 0
M  V30 23581 N 2183.15 1.01021 1.20965 0
M  V30 23582 C 2184.12 0.579903 2.21743 0
M  V30 23583 C 2185.12 -0.34653 1.57022 0
M  V30 23584 O 2186.31 -0.136099 1.73668 0
M  V30 23585 C 2183.44 -0.154061 3.40552 0
M  V30 23586 H 2184.63 1.47135 2.61326 0
M  V30 23587 H 2182.18 0.79929 1.34317 0
M  V30 23588 H 2182.92 -1.06071 3.06463 0
M  V30 23589 H 2182.7 0.511376 3.88751 0
M  V30 23590 H 2184.19 -0.44269 4.15247 0
M  V30 23591 N 2184.63 -1.36623 0.78561 0
M  V30 23592 C 2185.88 -1.99342 0.356255 0
M  V30 23593 C 2186.21 -1.62355 -1.07103 0
M  V30 23594 O 2185.46 -0.868184 -1.75388 0
M  V30 23595 C 2185.76 -3.54391 0.462776 0
M  V30 23596 C 2185.43 -4.11186 1.85031 0
M  V30 23597 C 2184.09 -4.2641 2.22997 0
M  V30 23598 C 2186.44 -4.42184 2.75904 0
M  V30 23599 C 2183.77 -4.69941 3.51244 0
M  V30 23600 C 2186.12 -4.87145 4.03575 0
M  V30 23601 C 2184.78 -5.00575 4.41567 0
M  V30 23602 H 2184.05 -0.729443 0.130363 0
M  V30 23603 H 2186.7 -1.63173 1.00233 0
M  V30 23604 H 2185.01 -3.9089 -0.266811 0
M  V30 23605 H 2186.7 -4.00845 0.111658 0
M  V30 23606 H 2183.29 -3.99774 1.54528 0
M  V30 23607 H 2187.48 -4.29994 2.47827 0
M  V30 23608 H 2182.73 -4.78526 3.80556 0
M  V30 23609 H 2186.91 -5.10094 4.74106 0
M  V30 23610 H 2184.53 -5.34064 5.40999 0
M  V30 23611 N 2186.11 -0.537304 -1.48158 0
M  V30 23612 C 2187.36 -0.00588246 -2.02499 0
M  V30 23613 C 2187.68 1.33585 -1.41369 0
M  V30 23614 O 2186.94 1.87767 -0.551542 0
M  V30 23615 C 2187.24 0.157545 -3.57053 0
M  V30 23616 C 2186.9 -1.11076 -4.37005 0
M  V30 23617 C 2185.57 -1.45834 -4.58569 0
M  V30 23618 C 2187.92 -1.95212 -4.83261 0
M  V30 23619 C 2185.25 -2.64612 -5.23639 0
M  V30 23620 C 2187.6 -3.13176 -5.4964 0
M  V30 23621 C 2186.26 -3.4827 -5.69442 0
M  V30 23622 H 2185.53 -0.00215255 -0.740997 0
M  V30 23623 H 2188.18 -0.704805 -1.78058 0
M  V30 23624 H 2186.48 0.93929 -3.80374 0
M  V30 23625 H 2188.18 0.583759 -3.96728 0
M  V30 23626 H 2184.77 -0.830084 -4.20485 0
M  V30 23627 H 2188.96 -1.6967 -4.66397 0
M  V30 23628 H 2184.21 -2.91996 -5.37167 0
M  V30 23629 H 2188.39 -3.78671 -5.8445 0
M  V30 23630 H 2186.01 -4.40406 -6.19634 0
M  V30 23631 N 2187.59 1.55221 -0.272782 0
M  V30 23632 C 2188.81 2.04409 0.350963 0
M  V30 23633 C 2189.24 1.14994 1.48856 0
M  V30 23634 O 2188.6 0.148061 1.80694 0
M  V30 23635 C 2188.64 3.51346 0.811686 0
M  V30 23636 O 2187.75 3.65025 1.91914 0
M  V30 23637 H 2187.09 0.659984 0.0729184 0
M  V30 23638 H 2189.62 2.00523 -0.4064 0
M  V30 23639 H 2189.63 3.92665 1.10806 0
M  V30 23640 H 2188.3 4.15895 -0.0206338 0
M  V30 23641 H 2186.88 3.35608 1.62547 0
M  V30 23642 N 2189.07 2.77022e-05 1.576 0
M  V30 23643 C 2190.29 -0.699433 1.9525 0
M  V30 23644 C 2190.72 -1.66511 0.874964 0
M  V30 23645 O 2190.07 -1.8053 -0.166897 0
M  V30 23646 C 2190.12 -1.4075 3.31996 0
M  V30 23647 O 2189.23 -2.52192 3.26302 0
M  V30 23648 H 2188.57 -0.18604 0.637405 0
M  V30 23649 H 2191.1 0.053226 2.04531 0
M  V30 23650 H 2191.11 -1.77092 3.67563 0
M  V30 23651 H 2189.78 -0.699458 4.09976 0
M  V30 23652 H 2188.36 -2.18177 3.02412 0
M  V30 23653 N 2190.54 -1.55222 -0.272728 0
M  V30 23654 C 2191.96 -1.66547 -0.843751 0
M  V30 23655 C 2192.31 -0.592674 -1.87034 0
M  V30 23656 O 2191.43 0.26578 -2.14762 0
M  V30 23657 C 2192.03 -3.01921 -1.53718 0
M  V30 23658 C 2190.59 -3.15272 -2.05623 0
M  V30 23659 C 2189.73 -2.62344 -0.898377 0
M  V30 23660 H 2192.68 -1.58624 -0.0490719 0
M  V30 23661 H 2192.7 -2.94925 -2.40415 0
M  V30 23662 H 2192.22 -3.79979 -0.789763 0
M  V30 23663 H 2190.32 -2.41988 -2.83324 0
M  V30 23664 H 2190.43 -4.21837 -2.27135 0
M  V30 23665 H 2188.79 -2.19509 -1.29182 0
M  V30 23666 H 2189.58 -3.42906 -0.164467 0
M  V30 23667 N 2192.02 0.537252 -1.4816 0
M  V30 23668 C 2193.27 1.29346 -1.55807 0
M  V30 23669 C 2193.6 1.93149 -0.228836 0
M  V30 23670 O 2192.85 1.79475 0.78021 0
M  V30 23671 C 2193.15 2.40956 -2.6396 0
M  V30 23672 C 2192.82 1.94854 -4.06624 0
M  V30 23673 C 2191.48 1.81998 -4.45455 0
M  V30 23674 C 2193.83 1.59924 -4.96058 0
M  V30 23675 C 2191.16 1.32537 -5.71534 0
M  V30 23676 C 2193.51 1.11928 -6.22619 0
M  V30 23677 C 2192.18 0.976835 -6.60314 0
M  V30 23678 H 2191.45 0.473312 -0.570137 0
M  V30 23679 H 2194.09 0.60034 -1.81847 0
M  V30 23680 H 2192.4 3.15908 -2.31752 0
M  V30 23681 H 2194.09 2.99102 -2.67094 0
M  V30 23682 H 2190.68 2.05809 -3.75953 0
M  V30 23683 H 2194.87 1.6872 -4.66741 0
M  V30 23684 H 2190.12 1.2019 -5.9947 0
M  V30 23685 H 2194.3 0.839689 -6.91319 0
M  V30 23686 H 2191.93 0.591368 -7.57896 0
M  V30 23687 N 2193.5 1.36626 0.785562 0
M  V30 23688 C 2194.73 1.344 1.57961 0
M  V30 23689 C 2195.15 -0.071493 1.87964 0
M  V30 23690 O 2194.51 -1.04457 1.48184 0
M  V30 23691 C 2194.56 2.17651 2.87507 0
M  V30 23692 O 2193.66 1.57165 3.81278 0
M  V30 23693 H 2193 0.459836 0.479006 0
M  V30 23694 H 2195.53 1.79962 0.973379 0
M  V30 23695 H 2195.54 2.30368 3.36741 0
M  V30 23696 H 2194.22 3.20546 2.64997 0
M  V30 23697 H 2192.79 1.53409 3.39883 0
M  V30 23698 N 2194.98 -1.01016 1.20969 0
M  V30 23699 C 2195.89 -2.13142 0.980194 0
M  V30 23700 C 2196.9 -1.73875 -0.0660359 0
M  V30 23701 O 2198.08 -2.01025 0.122857 0
M  V30 23702 C 2195.15 -3.42434 0.54222 0
M  V30 23703 C 2194.21 -3.95905 1.66006 0
M  V30 23704 C 2193.44 -5.19026 1.24289 0
M  V30 23705 O 2193.66 -5.70285 0.114296 0
M  V30 23706 O 2192.6 -5.65812 2.05281 0
M  V30 23707 H 2196.42 -2.35376 1.91917 0
M  V30 23708 H 2194.01 -1.11524 0.994118 0
M  V30 23709 H 2195.89 -4.20276 0.307514 0
M  V30 23710 H 2194.56 -3.216 -0.368093 0
M  V30 23711 H 2193.47 -3.19312 1.94912 0
M  V30 23712 H 2194.8 -4.21139 2.54761 0
M  V30 23713 N 2196.46 -1.01661 -1.20428 0
M  V30 23714 C 2197.4 -0.580183 -2.25248 0
M  V30 23715 C 2198.4 0.381086 -1.65058 0
M  V30 23716 O 2199.6 0.251007 -1.78241 0
M  V30 23717 H 2195.98 -0.169312 -0.732692 0
M  V30 23718 H 2197.95 -1.47516 -2.59387 0
M  V30 23719 C 2196.7 0.0657269 -3.47638 0
M  V30 23720 H 2196.02 -0.664944 -3.94232 0
M  V30 23721 H 2197.46 0.334208 -4.22681 0
M  V30 23722 C 2195.92 1.30855 -3.10449 0
M  V30 23723 O 2196.45 2.40185 -3.21985 0
M  V30 23724 N 2194.66 1.19265 -2.64998 0
M  V30 23725 H 2194.2 0.303019 -2.55812 0
M  V30 23726 H 2194.16 2.02519 -2.40486 0
M  V30 23727 N 2197.93 1.36205 -0.792844 0
M  V30 23728 C 2199.16 2.03931 -0.377737 0
M  V30 23729 C 2199.58 1.59384 0.998919 0
M  V30 23730 O 2198.94 0.763932 1.64419 0
M  V30 23731 C 2198.99 3.57734 -0.453698 0
M  V30 23732 O 2198.09 4.08875 0.538079 0
M  V30 23733 H 2197.44 0.644468 -0.159867 0
M  V30 23734 H 2199.97 1.74089 -1.07491 0
M  V30 23735 H 2199.98 4.06755 -0.318535 0
M  V30 23736 H 2198.65 3.8951 -1.45791 0
M  V30 23737 H 2197.23 3.71116 0.364294 0
M  V30 23738 N 2199.41 0.545154 1.47871 0
M  V30 23739 C 2200.64 0.0211204 2.06889 0
M  V30 23740 C 2201.06 -1.26718 1.39957 0
M  V30 23741 O 2200.41 -1.75741 0.492067 0
M  V30 23742 C 2200.46 -0.190754 3.60996 0
M  V30 23743 O 2200.18 1.04652 4.25417 0
M  V30 23744 C 2201.69 -0.753445 4.3685 0
M  V30 23745 H 2198.91 0.0403753 0.669784 0
M  V30 23746 H 2201.45 0.755128 1.90048 0
M  V30 23747 H 2199.6 -0.874854 3.77392 0
M  V30 23748 H 2200.02 0.836702 5.17783 0
M  V30 23749 H 2201.49 -0.851043 5.454 0
M  V30 23750 H 2201.97 -1.76193 4.02309 0
M  V30 23751 H 2202.58 -0.105429 4.25169 0
M  V30 23752 N 2200.89 -1.55074 0.28101 0
M  V30 23753 C 2202.12 -2.04592 -0.340118 0
M  V30 23754 C 2202.54 -1.15782 -1.48244 0
M  V30 23755 O 2201.9 -0.157642 -1.80613 0
M  V30 23756 C 2201.95 -3.51772 -0.793042 0
M  V30 23757 O 2201.05 -3.66037 -1.89975 0
M  V30 23758 H 2200.39 -0.660361 -0.0694173 0
M  V30 23759 H 2202.92 -2.00305 0.417028 0
M  V30 23760 H 2202.93 -3.93247 -1.08722 0
M  V30 23761 H 2201.61 -4.15878 0.0426894 0
M  V30 23762 H 2200.18 -3.36465 -1.60765 0
M  V30 23763 N 2202.37 -0.00838561 -1.57598 0
M  V30 23764 C 2203.3 0.979076 -2.11982 0
M  V30 23765 C 2204.28 1.35299 -1.03093 0
M  V30 23766 O 2205.47 1.43526 -1.3082 0
M  V30 23767 C 2202.6 2.26824 -2.62999 0
M  V30 23768 C 2201.55 2.03569 -3.76488 0
M  V30 23769 C 2200.88 3.38571 -4.13852 0
M  V30 23770 C 2202.18 1.39152 -5.03422 0
M  V30 23771 H 2203.87 0.52623 -2.94739 0
M  V30 23772 H 2201.42 0.251679 -1.41784 0
M  V30 23773 H 2203.37 2.96266 -2.99674 0
M  V30 23774 H 2202.09 2.74237 -1.77374 0
M  V30 23775 H 2200.75 1.36551 -3.4022 0
M  V30 23776 H 2200.4 3.83704 -3.25239 0
M  V30 23777 H 2200.1 3.23825 -4.90317 0
M  V30 23778 H 2201.62 4.09315 -4.53093 0
M  V30 23779 H 2203.04 1.98563 -5.37815 0
M  V30 23780 H 2201.43 1.34868 -5.84748 0
M  V30 23781 H 2202.5 0.361783 -4.83548 0
M  V30 23782 N 2203.85 1.55365 0.264492 0
M  V30 23783 C 2204.78 1.85251 1.34962 0
M  V30 23784 C 2205.79 0.737551 1.45135 0
M  V30 23785 O 2206.98 1.0155 1.46799 0
M  V30 23786 C 2204.08 2.00802 2.73005 0
M  V30 23787 C 2203.25 3.3153 2.85319 0
M  V30 23788 C 2202.31 3.37041 4.04091 0
M  V30 23789 O 2201.34 4.10365 3.94448 0
M  V30 23790 N 2202.54 2.65058 5.16454 0
M  V30 23791 H 2205.31 2.78915 1.09667 0
M  V30 23792 H 2202.87 1.55386 0.454608 0
M  V30 23793 H 2204.86 2.0185 3.50769 0
M  V30 23794 H 2203.43 1.13965 2.91085 0
M  V30 23795 H 2202.65 3.42948 1.94371 0
M  V30 23796 H 2203.94 4.17729 2.90483 0
M  V30 23797 H 2203.34 2.05185 5.27177 0
M  V30 23798 H 2201.89 2.71819 5.92417 0
M  V30 23799 N 2205.33 -0.529387 1.48443 0
M  V30 23800 C 2206.55 -1.30991 1.60153 0
M  V30 23801 C 2206.97 -1.86973 0.262017 0
M  V30 23802 O 2206.33 -1.66432 -0.748776 0
M  V30 23803 C 2206.38 -2.46033 2.64858 0
M  V30 23804 O 2206.1 -1.92358 3.93612 0
M  V30 23805 C 2207.6 -3.37844 2.87013 0
M  V30 23806 H 2204.82 -0.398328 0.539978 0
M  V30 23807 H 2207.36 -0.638563 1.94275 0
M  V30 23808 H 2205.52 -3.09051 2.33594 0
M  V30 23809 H 2205.93 -2.67667 4.51059 0
M  V30 23810 H 2207.41 -4.14913 3.64076 0
M  V30 23811 H 2207.88 -3.93111 1.95859 0
M  V30 23812 H 2208.49 -2.80617 3.19584 0
M  V30 23813 N 2206.8 -1.37041 -0.778305 0
M  V30 23814 C 2207.75 -1.28792 -1.8814 0
M  V30 23815 C 2208.74 -0.177091 -1.59922 0
M  V30 23816 O 2209.93 -0.410903 -1.72164 0
M  V30 23817 C 2207.06 -1.09061 -3.25516 0
M  V30 23818 C 2206.14 -2.2466 -3.59706 0
M  V30 23819 N 2206.54 -3.50025 -3.65125 0
M  V30 23820 C 2204.83 -2.1667 -3.89833 0
M  V30 23821 C 2205.53 -4.26214 -3.95875 0
M  V30 23822 N 2204.51 -3.55278 -4.11434 0
M  V30 23823 H 2208.31 -2.2374 -1.90571 0
M  V30 23824 H 2205.83 -1.29919 -0.974412 0
M  V30 23825 H 2207.82 -1.01237 -4.04421 0
M  V30 23826 H 2206.48 -0.150237 -3.24352 0
M  V30 23827 H 2207.49 -3.84017 -3.47493 0
M  V30 23828 H 2204.17 -1.30652 -3.9653 0
M  V30 23829 H 2205.56 -5.34681 -4.06898 0
M  V30 23830 N 2208.28 1.00373 -1.21503 0
M  V30 23831 C 2209.21 2.09341 -0.933211 0
M  V30 23832 C 2210.23 1.62583 0.084061 0
M  V30 23833 O 2211.42 1.7788 -0.148594 0
M  V30 23834 C 2208.52 3.36764 -0.379928 0
M  V30 23835 C 2207.69 4.12602 -1.45184 0
M  V30 23836 C 2206.75 5.18314 -0.907567 0
M  V30 23837 O 2205.77 5.46504 -1.59129 0
M  V30 23838 N 2206.98 5.79841 0.276547 0
M  V30 23839 H 2209.74 2.34101 -1.87128 0
M  V30 23840 H 2207.3 1.16866 -1.12045 0
M  V30 23841 H 2209.29 4.047 -0.00138601 0
M  V30 23842 H 2207.86 3.09152 0.462994 0
M  V30 23843 H 2207.08 3.39451 -2.00417 0
M  V30 23844 H 2208.37 4.60046 -2.17336 0
M  V30 23845 H 2207.77 5.59292 0.849049 0
M  V30 23846 H 2206.33 6.49064 0.596588 0
M  V30 23847 N 2209.76 1.02298 1.19887 0
M  V30 23848 C 2210.99 0.735433 1.93388 0
M  V30 23849 C 2211.4 -0.704856 1.75149 0
M  V30 23850 O 2210.76 -1.47873 1.06957 0
M  V30 23851 C 2210.81 1.06968 3.45312 0
M  V30 23852 O 2210.53 2.45341 3.62959 0
M  V30 23853 C 2212.03 0.804098 4.35946 0
M  V30 23854 H 2209.25 0.269557 0.614475 0
M  V30 23855 H 2211.8 1.36588 1.52197 0
M  V30 23856 H 2209.95 0.484523 3.84358 0
M  V30 23857 H 2210.37 2.57603 4.56882 0
M  V30 23858 H 2211.84 1.08799 5.41172 0
M  V30 23859 H 2212.32 -0.261613 4.3842 0
M  V30 23860 H 2212.92 1.37171 4.02572 0
M  V30 23861 N 2211.24 -1.35782 0.800057 0
M  V30 23862 C 2212.49 -1.98204 0.373905 0
M  V30 23863 C 2212.8 -1.64194 -1.06299 0
M  V30 23864 O 2214.01 -2.19931 -1.59194 0
M  V30 23865 C 2212.46 -3.54561 0.617594 0
M  V30 23866 C 2212.07 -3.97486 2.06661 0
M  V30 23867 C 2213.81 -4.23725 0.256476 0
M  V30 23868 C 2211.72 -5.46663 2.25639 0
M  V30 23869 H 2210.65 -0.741621 0.136068 0
M  V30 23870 H 2213.3 -1.54937 0.983193 0
M  V30 23871 H 2211.68 -3.95952 -0.0615552 0
M  V30 23872 H 2212.86 -3.67266 2.78303 0
M  V30 23873 H 2211.17 -3.41193 2.38697 0
M  V30 23874 H 2213.77 -5.33373 0.376412 0
M  V30 23875 H 2214.11 -4.08607 -0.796621 0
M  V30 23876 H 2214.65 -3.87733 0.889282 0
M  V30 23877 H 2211.38 -5.66741 3.2937 0
M  V30 23878 H 2210.9 -5.78475 1.58514 0
M  V30 23879 H 2212.58 -6.13036 2.06872 0
M  V30 23880 N 2212.72 -0.552988 -1.4758 0
M  V30 23881 C 2213.96 -0.0274004 -2.02781 0
M  V30 23882 C 2214.29 1.31732 -1.4269 0
M  V30 23883 O 2213.57 1.85622 -0.58093 0
M  V30 23884 C 2213.85 0.0701738 -3.60032 0
M  V30 23885 C 2213.71 -1.30134 -4.30564 0
M  V30 23886 C 2215.02 0.785694 -4.3303 0
M  V30 23887 H 2212.14 -0.0114315 -0.736911 0
M  V30 23888 H 2214.79 -0.714463 -1.76055 0
M  V30 23889 H 2212.94 0.655315 -3.82933 0
M  V30 23890 H 2214.61 -1.92936 -4.19015 0
M  V30 23891 H 2212.85 -1.87715 -3.91082 0
M  V30 23892 H 2213.52 -1.18583 -5.39112 0
M  V30 23893 H 2216 0.288909 -4.15096 0
M  V30 23894 H 2214.87 0.822917 -5.42696 0
M  V30 23895 H 2215.13 1.84093 -4.01948 0
M  V30 23896 N 2214.19 1.54923 -0.28923 0
M  V30 23897 C 2215.44 2.00196 0.323963 0
M  V30 23898 C 2215.77 1.17738 1.54439 0
M  V30 23899 O 2215.05 0.250912 1.92875 0
M  V30 23900 C 2215.33 3.53384 0.692214 0
M  V30 23901 C 2215.18 4.46589 -0.536535 0
M  V30 23902 C 2216.5 4.12898 1.52327 0
M  V30 23903 H 2213.62 0.72777 0.116277 0
M  V30 23904 H 2216.26 1.85764 -0.398987 0
M  V30 23905 H 2214.41 3.65813 1.30816 0
M  V30 23906 H 2216.09 4.46083 -1.17507 0
M  V30 23907 H 2214.33 4.17668 -1.17199 0
M  V30 23908 H 2215 5.515 -0.234903 0
M  V30 23909 H 2217.48 4.03832 1.00295 0
M  V30 23910 H 2216.35 5.20265 1.74973 0
M  V30 23911 H 2216.61 3.64022 2.50879 0
M  V30 23912 N 2215.67 0.0167433 1.57591 0
M  V30 23913 C 2216.6 -0.997717 2.06345 0
M  V30 23914 C 2217.62 -1.2966 0.984492 0
M  V30 23915 O 2218.81 -1.26342 1.26095 0
M  V30 23916 C 2215.91 -2.3283 2.46259 0
M  V30 23917 C 2215.08 -2.21639 3.77087 0
M  V30 23918 C 2214.14 -3.37527 4.03686 0
M  V30 23919 O 2213.16 -3.14965 4.74116 0
M  V30 23920 N 2214.37 -4.60922 3.52889 0
M  V30 23921 H 2217.13 -0.581823 2.93998 0
M  V30 23922 H 2214.69 -0.170288 1.61002 0
M  V30 23923 H 2216.68 -3.09161 2.61154 0
M  V30 23924 H 2215.25 -2.66103 1.64037 0
M  V30 23925 H 2214.47 -1.30113 3.72108 0
M  V30 23926 H 2215.76 -2.11352 4.62826 0
M  V30 23927 H 2215.16 -4.82149 2.95887 0
M  V30 23928 H 2213.72 -5.34463 3.73085 0
M  V30 23929 N 2217.15 -1.55503 -0.256249 0
M  V30 23930 C 2218.08 -1.92542 -1.32098 0
M  V30 23931 C 2219.06 -0.789221 -1.50683 0
M  V30 23932 O 2220.25 -1.04874 -1.63447 0
M  V30 23933 C 2217.38 -2.21197 -2.67748 0
M  V30 23934 C 2216.33 -3.3698 -2.63872 0
M  V30 23935 C 2215.66 -3.51154 -4.0323 0
M  V30 23936 C 2216.96 -4.72925 -2.21674 0
M  V30 23937 H 2218.65 -2.81726 -1.01346 0
M  V30 23938 H 2216.2 -1.35548 -0.486081 0
M  V30 23939 H 2218.15 -2.45697 -3.42361 0
M  V30 23940 H 2216.87 -1.2883 -3.00117 0
M  V30 23941 H 2215.53 -3.12474 -1.91717 0
M  V30 23942 H 2215.18 -2.56224 -4.32849 0
M  V30 23943 H 2214.88 -4.2901 -4.01527 0
M  V30 23944 H 2216.4 -3.77965 -4.79557 0
M  V30 23945 H 2217.82 -4.96859 -2.86015 0
M  V30 23946 H 2216.22 -5.53816 -2.311 0
M  V30 23947 H 2217.29 -4.70617 -1.16825 0
M  V30 23948 N 2218.63 0.521507 -1.48721 0
M  V30 23949 C 2219.56 1.63428 -1.66774 0
M  V30 23950 C 2220.54 1.62068 -0.516528 0
M  V30 23951 O 2221.72 1.79131 -0.750045 0
M  V30 23952 C 2218.85 3.0199 -1.71521 0
M  V30 23953 C 2217.81 3.18211 -2.86227 0
M  V30 23954 C 2217.13 4.57919 -2.76069 0
M  V30 23955 C 2218.43 3.00177 -4.27424 0
M  V30 23956 H 2220.13 1.48574 -2.59935 0
M  V30 23957 H 2217.67 0.713336 -1.2509 0
M  V30 23958 H 2219.63 3.79717 -1.82738 0
M  V30 23959 H 2218.35 3.17885 -0.749449 0
M  V30 23960 H 2217.01 2.42903 -2.74579 0
M  V30 23961 H 2216.66 4.70662 -1.77445 0
M  V30 23962 H 2216.36 4.69716 -3.53045 0
M  V30 23963 H 2217.88 5.37734 -2.89266 0
M  V30 23964 H 2219.3 3.67689 -4.39861 0
M  V30 23965 H 2217.69 3.23461 -5.05463 0
M  V30 23966 H 2218.76 1.96511 -4.43296 0
M  V30 23967 N 2220.11 1.37452 0.771027 0
M  V30 23968 C 2221.04 1.29149 1.89349 0
M  V30 23969 C 2222.05 0.207152 1.61477 0
M  V30 23970 O 2223.24 0.463354 1.72381 0
M  V30 23971 C 2220.34 0.974252 3.24594 0
M  V30 23972 C 2219.51 2.1642 3.80107 0
M  V30 23973 C 2218.57 1.81712 4.93829 0
M  V30 23974 O 2217.6 2.54015 5.09377 0
M  V30 23975 N 2218.8 0.761674 5.75481 0
M  V30 23976 H 2221.57 2.25867 1.96987 0
M  V30 23977 H 2219.13 1.31086 0.950168 0
M  V30 23978 H 2221.12 0.722898 3.98191 0
M  V30 23979 H 2219.69 0.0956076 3.12454 0
M  V30 23980 H 2218.91 2.57726 2.9828 0
M  V30 23981 H 2220.2 2.95875 4.13927 0
M  V30 23982 H 2219.59 0.161708 5.65469 0
M  V30 23983 H 2218.15 0.570178 6.49301 0
M  V30 23984 N 2221.58 -0.997276 1.22033 0
M  V30 23985 C 2222.81 -1.77713 1.06924 0
M  V30 23986 C 2223.23 -1.843 -0.376193 0
M  V30 23987 O 2222.59 -1.29226 -1.27163 0
M  V30 23988 C 2222.64 -3.19073 1.68002 0
M  V30 23989 O 2221.74 -4.0176 0.930723 0
M  V30 23990 H 2221.09 -0.547405 0.375824 0
M  V30 23991 H 2223.62 -1.25306 1.61739 0
M  V30 23992 H 2223.63 -3.6972 1.72544 0
M  V30 23993 H 2222.3 -3.13594 2.73188 0
M  V30 23994 H 2220.88 -3.60305 0.96098 0
M  V30 23995 N 2223.06 -1.02932 -1.19343 0
M  V30 23996 C 2224.29 -0.745678 -1.92995 0
M  V30 23997 C 2224.71 0.695558 -1.7552 0
M  V30 23998 O 2224.06 1.47304 -1.0774 0
M  V30 23999 C 2224.11 -1.08798 -3.44739 0
M  V30 24000 O 2223.83 -2.47262 -3.61653 0
M  V30 24001 C 2225.34 -0.827206 -4.35514 0
M  V30 24002 H 2222.56 -0.272812 -0.613037 0
M  V30 24003 H 2225.1 -1.37393 -1.51471 0
M  V30 24004 H 2223.25 -0.504899 -3.84096 0
M  V30 24005 H 2223.67 -2.60023 -4.55509 0
M  V30 24006 H 2225.14 -1.11668 -5.40587 0
M  V30 24007 H 2225.62 0.238359 -4.38553 0
M  V30 24008 H 2226.23 -1.39304 -4.01839 0
M  V30 24009 N 2224.54 1.35356 -0.807246 0
M  V30 24010 C 2225.77 2.02988 -0.400413 0
M  V30 24011 C 2226.18 1.60834 0.988831 0
M  V30 24012 O 2225.54 0.806204 1.63727 0
M  V30 24013 C 2225.59 3.58367 -0.47493 0
M  V30 24014 O 2225.31 3.98989 -1.8094 0
M  V30 24015 C 2226.81 4.43258 -0.0609891 0
M  V30 24016 H 2224.03 0.651001 -0.162598 0
M  V30 24017 H 2226.58 1.72963 -1.09105 0
M  V30 24018 H 2224.73 3.87038 0.167466 0
M  V30 24019 H 2225.15 4.93637 -1.77265 0
M  V30 24020 H 2226.62 5.51756 -0.164242 0
M  V30 24021 H 2227.1 4.2781 0.993756 0
M  V30 24022 H 2227.7 4.19884 -0.676566 0
M  V30 24023 N 2226.02 0.560807 1.47284 0
M  V30 24024 C 2227.43 0.220837 1.58065 0
M  V30 24025 C 2227.63 -1.27668 1.55894 0
M  V30 24026 O 2226.69 -2.05708 1.46426 0
M  V30 24027 C 2228 0.850676 2.88416 0
M  V30 24028 C 2229.55 0.822237 3.02007 0
M  V30 24029 C 2230.03 1.43121 4.35064 0
M  V30 24030 N 2231.52 1.39456 4.41708 0
M  V30 24031 C 2232.25 1.83534 5.43234 0
M  V30 24032 N 2231.75 2.35485 6.51551 0
M  V30 24033 N 2233.54 1.74583 5.34301 0
M  V30 24034 H 2225.69 1.53371 1.46939 0
M  V30 24035 H 2227.96 0.639795 0.699547 0
M  V30 24036 H 2227.66 1.90326 2.95752 0
M  V30 24037 H 2227.54 0.345839 3.75611 0
M  V30 24038 H 2229.92 -0.221663 2.94266 0
M  V30 24039 H 2230 1.36487 2.16345 0
M  V30 24040 H 2229.65 2.4742 4.43561 0
M  V30 24041 H 2229.58 0.86399 5.19464 0
M  V30 24042 H 2232.07 1.01459 3.64026 0
M  V30 24043 H 2232.38 2.67034 7.25198 0
M  V30 24044 H 2230.73 2.39498 6.5243 0
M  V30 24045 H 2233.92 1.33771 4.48579 0
M  V30 24046 H 2234.09 2.09253 6.13284 0
M  V30 24047 N 2227.5 -1.54768 0.297442 0
M  V30 24048 C 2228.43 -2.26349 -0.573454 0
M  V30 24049 C 2229.41 -1.26171 -1.14083 0
M  V30 24050 O 2230.59 -1.54936 -1.17083 0
M  V30 24051 C 2227.72 -3.00156 -1.74711 0
M  V30 24052 C 2226.68 -4.07451 -1.31025 0
M  V30 24053 C 2226 -4.68954 -2.56878 0
M  V30 24054 C 2227.3 -5.20409 -0.444092 0
M  V30 24055 H 2229 -2.99391 0.0235657 0
M  V30 24056 H 2226.54 -1.43994 0.0127742 0
M  V30 24057 H 2228.5 -3.48951 -2.36243 0
M  V30 24058 H 2227.22 -2.24686 -2.37031 0
M  V30 24059 H 2225.88 -3.595 -0.718003 0
M  V30 24060 H 2225.53 -3.90128 -3.17505 0
M  V30 24061 H 2225.23 -5.41415 -2.28351 0
M  V30 24062 H 2226.75 -5.2051 -3.1922 0
M  V30 24063 H 2228.16 -5.6512 -0.965 0
M  V30 24064 H 2226.56 -5.99568 -0.252741 0
M  V30 24065 H 2227.63 -4.81976 0.531693 0
M  V30 24066 N 2228.97 -0.0251005 -1.5758 0
M  V30 24067 C 2229.9 0.956538 -2.13008 0
M  V30 24068 C 2230.89 1.34198 -1.04523 0
M  V30 24069 O 2232.07 1.42131 -1.32335 0
M  V30 24070 C 2229.2 2.24022 -2.6539 0
M  V30 24071 C 2228.15 1.99565 -3.78626 0
M  V30 24072 C 2227.48 3.34163 -4.1742 0
M  V30 24073 C 2228.78 1.33805 -5.0487 0
M  V30 24074 H 2230.47 0.494939 -2.95281 0
M  V30 24075 H 2228.02 0.236627 -1.42043 0
M  V30 24076 H 2229.97 2.93071 -3.02799 0
M  V30 24077 H 2228.7 2.7234 -1.80273 0
M  V30 24078 H 2227.36 1.32935 -3.41649 0
M  V30 24079 H 2227 3.80232 -3.29291 0
M  V30 24080 H 2226.7 3.18606 -4.93724 0
M  V30 24081 H 2228.23 4.04486 -4.57409 0
M  V30 24082 H 2229.64 1.92848 -5.39891 0
M  V30 24083 H 2228.04 1.28659 -5.86146 0
M  V30 24084 H 2229.11 0.310476 -4.83905 0
M  V30 24085 N 2230.45 1.55637 0.247999 0
M  V30 24086 C 2231.36 1.93356 1.32855 0
M  V30 24087 C 2232.38 0.833865 1.52718 0
M  V30 24088 O 2233.55 1.13516 1.66361 0
M  V30 24089 C 2230.62 2.21963 2.66333 0
M  V30 24090 C 2229.68 3.45358 2.55002 0
M  V30 24091 C 2228.91 3.72591 3.82115 0
M  V30 24092 O 2229.14 3.01915 4.83946 0
M  V30 24093 O 2228.07 4.66117 3.80813 0
M  V30 24094 H 2231.9 2.8539 1.03857 0
M  V30 24095 H 2229.48 1.42504 0.448661 0
M  V30 24096 H 2231.36 2.41676 3.45211 0
M  V30 24097 H 2230.04 1.33108 2.95066 0
M  V30 24098 H 2228.95 3.30954 1.74414 0
M  V30 24099 H 2230.28 4.34512 2.31215 0
M  V30 24100 N 2231.93 -0.513613 1.48996 0
M  V30 24101 C 2233.17 -1.27882 1.59454 0
M  V30 24102 C 2233.54 -1.90099 0.269513 0
M  V30 24103 O 2234.74 -2.67642 0.249186 0
M  V30 24104 C 2233.01 -2.32683 2.71281 0
M  V30 24105 S 2234.57 -3.18711 3.0161 0
M  V30 24106 H 2231.38 -0.434779 0.562573 0
M  V30 24107 H 2233.99 -0.583268 1.86596 0
M  V30 24108 H 2232.69 -1.85484 3.66093 0
M  V30 24109 H 2232.22 -3.06924 2.46091 0
M  V30 24110 H 2234.24 -4.33095 2.42163 0
M  V30 24111 N 2233.41 -1.37859 -0.763727 0
M  V30 24112 C 2234.82 -1.29954 -1.34048 0
M  V30 24113 C 2235.17 0.0492554 -1.96138 0
M  V30 24114 O 2234.3 0.951205 -1.94373 0
M  V30 24115 C 2234.89 -2.35338 -2.43725 0
M  V30 24116 C 2233.45 -2.31043 -2.97147 0
M  V30 24117 C 2232.6 -2.18741 -1.70434 0
M  V30 24118 H 2235.55 -1.48364 -0.56337 0
M  V30 24119 H 2235.57 -2.00467 -3.23409 0
M  V30 24120 H 2235.08 -3.33493 -1.98505 0
M  V30 24121 H 2233.18 -1.36436 -3.46722 0
M  V30 24122 H 2233.3 -3.24778 -3.52215 0
M  V30 24123 H 2231.66 -1.65421 -1.9367 0
M  V30 24124 H 2232.44 -3.18823 -1.27306 0
M  V30 24125 N 2234.89 0.990791 -1.22561 0
M  V30 24126 C 2236.13 1.73409 -1.06306 0
M  V30 24127 C 2236.49 1.88251 0.397409 0
M  V30 24128 O 2235.78 1.41613 1.29059 0
M  V30 24129 C 2235.98 3.13828 -1.71017 0
M  V30 24130 C 2235.8 3.1268 -3.23205 0
M  V30 24131 C 2234.57 3.18454 -3.9232 0
M  V30 24132 C 2236.77 2.96666 -4.20112 0
M  V30 24133 N 2234.75 3.07082 -5.31577 0
M  V30 24134 C 2236.13 2.93344 -5.46213 0
M  V30 24135 C 2238.18 2.81073 -4.10978 0
M  V30 24136 C 2236.88 2.76027 -6.6423 0
M  V30 24137 C 2238.91 2.65117 -5.28647 0
M  V30 24138 C 2238.27 2.62484 -6.53668 0
M  V30 24139 H 2234.37 0.644108 -0.443452 0
M  V30 24140 H 2236.95 1.17651 -1.55133 0
M  V30 24141 H 2235.13 3.67825 -1.24737 0
M  V30 24142 H 2236.86 3.76732 -1.47835 0
M  V30 24143 H 2233.61 3.26221 -3.43332 0
M  V30 24144 H 2234.04 3.047 -6.04555 0
M  V30 24145 H 2238.68 2.81904 -3.15103 0
M  V30 24146 H 2236.4 2.73941 -7.60251 0
M  V30 24147 H 2239.98 2.5403 -5.23412 0
M  V30 24148 H 2238.86 2.50288 -7.43186 0
M  V30 24149 N 2236.37 1.03564 1.18795 0
M  V30 24150 C 2237.3 0.643058 2.24471 0
M  V30 24151 C 2238.28 -0.351253 1.66434 0
M  V30 24152 O 2239.46 -0.232471 1.92804 0
M  V30 24153 C 2236.59 1.85533e-05 3.473 0
M  V30 24154 C 2235.55 0.91733 4.18054 0
M  V30 24155 C 2234.87 0.139035 5.34519 0
M  V30 24156 C 2236.17 2.23415 4.72105 0
M  V30 24157 H 2237.87 1.52648 2.57564 0
M  V30 24158 H 2235.41 0.735416 1.23805 0
M  V30 24159 H 2237.36 -0.286309 4.20426 0
M  V30 24160 H 2236.09 -0.918243 3.13426 0
M  V30 24161 H 2234.75 1.18796 3.46818 0
M  V30 24162 H 2234.4 -0.781475 4.96892 0
M  V30 24163 H 2234.1 0.750107 5.82793 0
M  V30 24164 H 2235.62 -0.140393 6.10439 0
M  V30 24165 H 2237.03 2.00888 5.36951 0
M  V30 24166 H 2235.43 2.79774 5.30892 0
M  V30 24167 H 2236.5 2.88414 3.89802 0
M  V30 24168 N 2237.84 -1.34926 0.814413 0
M  V30 24169 C 2238.78 -2.28429 0.187874 0
M  V30 24170 C 2239.79 -1.50641 -0.617348 0
M  V30 24171 O 2240.98 -1.72776 -0.448424 0
M  V30 24172 C 2238.08 -3.30362 -0.755904 0
M  V30 24173 C 2237.25 -4.374 0.00464374 0
M  V30 24174 C 2236.31 -5.19145 -0.858785 0
M  V30 24175 O 2235.34 -5.68372 -0.306868 0
M  V30 24176 N 2236.54 -5.3802 -2.17979 0
M  V30 24177 H 2239.3 -2.82836 0.991154 0
M  V30 24178 H 2236.86 -1.47359 0.670587 0
M  V30 24179 H 2238.86 -3.81944 -1.33793 0
M  V30 24180 H 2237.43 -2.76413 -1.45996 0
M  V30 24181 H 2236.65 -3.86648 0.767933 0
M  V30 24182 H 2237.93 -5.06048 0.528511 0
M  V30 24183 H 2237.33 -4.99684 -2.65203 0
M  V30 24184 H 2235.89 -5.92752 -2.71087 0
M  V30 24185 N 2239.32 -0.56861 -1.46985 0
M  V30 24186 C 2240.25 0.210297 -2.28233 0
M  V30 24187 C 2241.27 0.868743 -1.37683 0
M  V30 24188 O 2242.46 0.740676 -1.62408 0
M  V30 24189 C 2239.56 1.31625 -3.12295 0
M  V30 24190 C 2238.73 0.752425 -4.3088 0
M  V30 24191 C 2237.79 1.7443 -4.96448 0
M  V30 24192 O 2236.81 1.28591 -5.54485 0
M  V30 24193 N 2238.02 3.07804 -4.92176 0
M  V30 24194 H 2240.78 -0.4867 -2.95722 0
M  V30 24195 H 2238.34 -0.405436 -1.56741 0
M  V30 24196 H 2240.33 1.97877 -3.53025 0
M  V30 24197 H 2238.9 1.91631 -2.46974 0
M  V30 24198 H 2238.12 -0.087182 -3.94104 0
M  V30 24199 H 2239.41 0.35527 -5.07558 0
M  V30 24200 H 2238.81 3.47681 -4.46245 0
M  V30 24201 H 2237.37 3.69583 -5.36891 0
M  V30 24202 N 2240.8 1.54608 -0.305646 0
M  V30 24203 C 2241.73 2.2115 0.602122 0
M  V30 24204 C 2242.74 1.20571 1.09392 0
M  V30 24205 O 2243.93 1.47138 1.01057 0
M  V30 24206 C 2241.03 2.84802 1.83687 0
M  V30 24207 C 2240.21 4.11356 1.48678 0
M  V30 24208 C 2239.27 4.58768 2.57717 0
M  V30 24209 O 2238.29 5.23862 2.22614 0
M  V30 24210 N 2239.49 4.31478 3.88339 0
M  V30 24211 H 2242.26 2.99682 0.0324439 0
M  V30 24212 H 2239.82 1.61393 -0.128049 0
M  V30 24213 H 2241.81 3.13452 2.55988 0
M  V30 24214 H 2240.38 2.10082 2.31483 0
M  V30 24215 H 2239.6 3.89665 0.5962 0
M  V30 24216 H 2240.89 4.9375 1.22833 0
M  V30 24217 H 2240.29 3.79339 4.19665 0
M  V30 24218 H 2238.84 4.64826 4.56924 0
M  V30 24219 N 2242.28 0.033457 1.57564 0
M  V30 24220 C 2243.23 -0.956201 2.0698 0
M  V30 24221 C 2244.21 -1.28282 0.971216 0
M  V30 24222 O 2245.4 -1.2682 1.23473 0
M  V30 24223 C 2242.53 -2.23714 2.60397 0
M  V30 24224 C 2241.62 -1.9387 3.77194 0
M  V30 24225 N 2242.01 -1.34313 4.87641 0
M  V30 24226 C 2240.31 -2.23838 3.85762 0
M  V30 24227 C 2241.01 -1.21699 5.68827 0
M  V30 24228 N 2239.98 -1.71395 5.15873 0
M  V30 24229 H 2243.79 -0.490764 2.89774 0
M  V30 24230 H 2241.3 -0.171449 1.61492 0
M  V30 24231 H 2243.3 -2.95491 2.94093 0
M  V30 24232 H 2241.96 -2.70881 1.79036 0
M  V30 24233 H 2242.97 -1.01758 5.07805 0
M  V30 24234 H 2239.65 -2.73648 3.15315 0
M  V30 24235 H 2241.04 -0.756092 6.67632 0
M  V30 24236 N 2243.76 -1.55766 -0.239741 0
M  V30 24237 C 2244.7 -1.90915 -1.29693 0
M  V30 24238 C 2245.67 -0.76419 -1.47477 0
M  V30 24239 O 2246.86 -1.01848 -1.61343 0
M  V30 24240 C 2244 -2.21549 -2.64594 0
M  V30 24241 C 2243.11 -3.48886 -2.54759 0
M  V30 24242 C 2242.25 -3.69055 -3.82062 0
M  V30 24243 C 2241.28 -4.89969 -3.66874 0
M  V30 24244 N 2240.42 -5.06622 -4.86085 0
M  V30 24245 H 2245.26 -2.81069 -0.990175 0
M  V30 24246 H 2242.8 -1.39129 -0.477659 0
M  V30 24247 H 2244.76 -2.37316 -3.43128 0
M  V30 24248 H 2243.39 -1.3459 -2.93403 0
M  V30 24249 H 2242.44 -3.41412 -1.67757 0
M  V30 24250 H 2243.75 -4.37568 -2.3945 0
M  V30 24251 H 2242.9 -3.84821 -4.69039 0
M  V30 24252 H 2241.64 -2.78621 -4.00277 0
M  V30 24253 H 2240.65 -4.74173 -2.7828 0
M  V30 24254 H 2241.87 -5.81871 -3.50147 0
M  V30 24255 H 2239.82 -4.19126 -5.04647 0
M  V30 24256 H 2239.74 -5.89404 -4.73433 0
M  V30 24257 H 2241 -5.26806 -5.7454 0
M  V30 24258 N 2245.23 0.505704 -1.49266 0
M  V30 24259 C 2246.48 1.25764 -1.58202 0
M  V30 24260 C 2246.8 1.93142 -0.268516 0
M  V30 24261 O 2246.07 1.82511 0.711801 0
M  V30 24262 H 2244.65 0.467181 -0.582881 0
M  V30 24263 H 2247.31 0.586492 -1.85866 0
M  V30 24264 H 2246.41 2.02407 -2.37566 0
M  V30 24265 N 2246.71 1.38262 0.756405 0
M  V30 24266 C 2247.94 1.3772 1.55074 0
M  V30 24267 C 2248.36 -0.0316069 1.88073 0
M  V30 24268 O 2247.72 -1.0129 1.50366 0
M  V30 24269 C 2247.77 2.237 2.82826 0
M  V30 24270 O 2246.87 1.65217 3.77859 0
M  V30 24271 H 2246.21 0.469893 0.469144 0
M  V30 24272 H 2248.74 1.81987 0.934987 0
M  V30 24273 H 2248.75 2.37459 3.31779 0
M  V30 24274 H 2247.43 3.26095 2.58138 0
M  V30 24275 H 2246.01 1.60584 3.36552 0
M  V30 24276 N 2248.19 -0.984277 1.23084 0
M  V30 24277 C 2249.44 -1.72759 1.06217 0
M  V30 24278 C 2249.77 -1.90024 -0.40055 0
M  V30 24279 O 2249.04 -1.44969 -1.2967 0
M  V30 24280 C 2249.33 -3.12814 1.7838 0
M  V30 24281 C 2249.18 -3.03143 3.32301 0
M  V30 24282 C 2250.5 -4.12159 1.54316 0
M  V30 24283 H 2247.62 -0.627054 0.387262 0
M  V30 24284 H 2250.26 -1.14614 1.51538 0
M  V30 24285 H 2248.41 -3.62454 1.39854 0
M  V30 24286 H 2250.08 -2.61057 3.80325 0
M  V30 24287 H 2248.33 -2.39741 3.61534 0
M  V30 24288 H 2249 -4.02289 3.77979 0
M  V30 24289 H 2251.47 -3.7131 1.87797 0
M  V30 24290 H 2250.35 -5.08254 2.0729 0
M  V30 24291 H 2250.61 -4.39512 0.477649 0
M  V30 24292 N 2249.67 -1.04192 -1.18244 0
M  V30 24293 C 2250.58 -0.644516 -2.25573 0
M  V30 24294 C 2251.59 0.329796 -1.70846 0
M  V30 24295 O 2252.77 0.184408 -2.00554 0
M  V30 24296 C 2249.84 -0.0149379 -3.46697 0
M  V30 24297 C 2248.9 -1.03841 -4.16552 0
M  V30 24298 C 2248.13 -0.438785 -5.31893 0
M  V30 24299 O 2248.35 0.754653 -5.65386 0
M  V30 24300 O 2247.29 -1.1681 -5.90457 0
M  V30 24301 H 2251.11 -1.53873 -2.61833 0
M  V30 24302 H 2248.7 -0.812876 -1.2535 0
M  V30 24303 H 2250.58 0.335464 -4.20063 0
M  V30 24304 H 2249.25 0.853083 -3.12257 0
M  V30 24305 H 2248.16 -1.44063 -3.45249 0
M  V30 24306 H 2249.49 -1.87724 -4.54995 0
M  V30 24307 N 2251.15 1.34492 -0.821557 0
M  V30 24308 C 2252.11 2.27856 -0.247887 0
M  V30 24309 C 2253.11 1.50228 0.573426 0
M  V30 24310 O 2254.3 1.69784 0.38973 0
M  V30 24311 C 2251.43 3.34594 0.652639 0
M  V30 24312 H 2252.62 2.80105 -1.07151 0
M  V30 24313 H 2250.18 1.44601 -0.593316 0
M  V30 24314 H 2250.91 2.87557 1.49938 0
M  V30 24315 H 2250.7 3.92046 0.0652231 0
M  V30 24316 H 2252.19 4.0424 1.04786 0
M  V30 24317 N 2252.62 0.576397 1.46681 0
M  V30 24318 C 2253.86 0.0621715 2.04305 0
M  V30 24319 C 2254.23 -1.27118 1.43893 0
M  V30 24320 O 2255.43 -1.87426 1.92679 0
M  V30 24321 C 2253.7 -0.00921639 3.57399 0
M  V30 24322 S 2255.26 -0.466783 4.3631 0
M  V30 24323 H 2252.08 0.0344141 0.710167 0
M  V30 24324 H 2254.68 0.767469 1.79806 0
M  V30 24325 H 2253.38 0.965249 3.98887 0
M  V30 24326 H 2252.91 -0.73748 3.86426 0
M  V30 24327 H 2254.93 -1.72278 4.65333 0
M  V30 24328 N 2254.1 -1.54444 0.313841 0
M  V30 24329 C 2255.35 -1.99568 -0.292484 0
M  V30 24330 C 2255.66 -1.20585 -1.54009 0
M  V30 24331 O 2256.87 -1.56039 -2.2218 0
M  V30 24332 C 2255.33 -3.5533 -0.571689 0
M  V30 24333 C 2254.93 -4.43137 0.658307 0
M  V30 24334 C 2256.68 -4.08948 -1.1385 0
M  V30 24335 C 2254.59 -5.90354 0.351543 0
M  V30 24336 H 2253.52 -0.745474 -0.113066 0
M  V30 24337 H 2256.17 -1.78521 0.42455 0
M  V30 24338 H 2254.55 -3.72327 -1.34865 0
M  V30 24339 H 2255.72 -4.37916 1.43411 0
M  V30 24340 H 2254.04 -4.00358 1.14465 0
M  V30 24341 H 2256.63 -5.16519 -1.38247 0
M  V30 24342 H 2256.98 -3.60334 -2.08483 0
M  V30 24343 H 2257.51 -3.95545 -0.422945 0
M  V30 24344 H 2254.25 -6.43143 1.26678 0
M  V30 24345 H 2253.77 -5.98552 -0.386737 0
M  V30 24346 H 2255.45 -6.46986 -0.0421997 0
M  V30 24347 N 2255.58 -0.0418125 -1.57545 0
M  V30 24348 C 2257 0.314677 -1.56467 0
M  V30 24349 C 2257.2 1.72064 -1.04862 0
M  V30 24350 O 2256.25 2.42573 -0.701025 0
M  V30 24351 C 2257.57 0.151687 -3.00317 0
M  V30 24352 C 2259.11 0.223498 -3.12201 0
M  V30 24353 C 2259.59 0.089149 -4.57913 0
M  V30 24354 N 2261.08 0.145727 -4.62971 0
M  V30 24355 C 2261.81 0.0657451 -5.73362 0
M  V30 24356 N 2261.31 -0.06605 -6.92769 0
M  V30 24357 N 2263.1 0.120652 -5.6197 0
M  V30 24358 H 2255.25 -0.961048 -1.89414 0
M  V30 24359 H 2257.52 -0.372252 -0.871856 0
M  V30 24360 H 2257.22 -0.817315 -3.42071 0
M  V30 24361 H 2257.1 0.916628 -3.65893 0
M  V30 24362 H 2259.48 1.18297 -2.70351 0
M  V30 24363 H 2259.57 -0.572037 -2.49322 0
M  V30 24364 H 2259.21 -0.866955 -5.00446 0
M  V30 24365 H 2259.14 0.903711 -5.18788 0
M  V30 24366 H 2261.63 0.24722 -3.7709 0
M  V30 24367 H 2261.94 -0.120041 -7.72707 0
M  V30 24368 H 2260.29 -0.101007 -6.94927 0
M  V30 24369 H 2263.48 0.222105 -4.67573 0
M  V30 24370 H 2263.65 0.0548596 -6.47977 0
M  V30 24371 N 2257.06 1.55891 0.231477 0
M  V30 24372 C 2258.29 1.82515 0.974473 0
M  V30 24373 C 2258.7 0.619622 1.78343 0
M  V30 24374 O 2258.06 -0.411817 1.77793 0
M  V30 24375 C 2258.11 3.07542 1.90001 0
M  V30 24376 O 2257.83 4.23442 1.12377 0
M  V30 24377 C 2259.33 3.4708 2.75773 0
M  V30 24378 H 2256.55 0.606971 0.286054 0
M  V30 24379 H 2259.1 2.0297 0.249703 0
M  V30 24380 H 2257.25 2.89091 2.57886 0
M  V30 24381 H 2257.66 4.94403 1.75117 0
M  V30 24382 H 2259.14 4.37625 3.36435 0
M  V30 24383 H 2259.62 2.68373 3.47667 0
M  V30 24384 H 2260.22 3.67935 2.13317 0
M  V30 24385 N 2258.54 -0.497781 1.49532 0
M  V30 24386 C 2259.47 -1.60754 1.69353 0
M  V30 24387 C 2260.45 -1.61226 0.542246 0
M  V30 24388 O 2261.63 -1.77915 0.778448 0
M  V30 24389 C 2258.76 -2.99223 1.76303 0
M  V30 24390 C 2257.72 -3.13617 2.91253 0
M  V30 24391 C 2257.04 -4.53469 2.8332 0
M  V30 24392 C 2258.34 -2.93339 4.32145 0
M  V30 24393 H 2260.04 -1.4442 2.62265 0
M  V30 24394 H 2257.58 -0.693345 1.26209 0
M  V30 24395 H 2259.54 -3.76762 1.88756 0
M  V30 24396 H 2258.26 -3.16652 0.799927 0
M  V30 24397 H 2256.92 -2.38504 2.78409 0
M  V30 24398 H 2256.57 -4.67779 1.8491 0
M  V30 24399 H 2256.27 -4.6404 3.60473 0
M  V30 24400 H 2257.79 -5.33064 2.97784 0
M  V30 24401 H 2259.2 -3.60645 4.45655 0
M  V30 24402 H 2257.6 -3.15378 5.10545 0
M  V30 24403 H 2258.67 -1.89433 4.46367 0
M  V30 24404 N 2260.01 -1.38661 -0.749062 0
M  V30 24405 C 2260.98 -1.36048 -1.84455 0
M  V30 24406 C 2261.98 -0.26015 -1.58682 0
M  V30 24407 O 2263.17 -0.517291 -1.66342 0
M  V30 24408 C 2260.3 -1.11916 -3.22006 0
M  V30 24409 H 2261.49 -2.33515 -1.88178 0
M  V30 24410 H 2259.05 -1.2402 -0.951244 0
M  V30 24411 H 2259.78 -0.150743 -3.23949 0
M  V30 24412 H 2259.57 -1.91585 -3.42108 0
M  V30 24413 H 2261.06 -1.12795 -4.02078 0
M  V30 24414 N 2261.49 0.977736 -1.23605 0
M  V30 24415 C 2262.43 2.06894 -0.962808 0
M  V30 24416 C 2263.4 1.62293 0.0998458 0
M  V30 24417 O 2264.59 1.88468 -0.0349752 0
M  V30 24418 C 2261.72 3.35684 -0.451009 0
M  V30 24419 C 2260.76 3.99227 -1.50068 0
M  V30 24420 S 2261.59 4.38136 -3.07891 0
M  V30 24421 C 2262.75 5.70076 -2.58388 0
M  V30 24422 H 2262.98 2.29753 -1.88681 0
M  V30 24423 H 2260.52 1.11429 -1.06878 0
M  V30 24424 H 2262.47 4.10179 -0.162333 0
M  V30 24425 H 2261.14 3.10829 0.452124 0
M  V30 24426 H 2260.33 4.92011 -1.09277 0
M  V30 24427 H 2259.93 3.3112 -1.73884 0
M  V30 24428 H 2262.22 6.47129 -2.00574 0
M  V30 24429 H 2263.17 6.15711 -3.49722 0
M  V30 24430 H 2263.57 5.28203 -1.99152 0
M  V30 24431 N 2262.97 1.04818 1.1769 0
M  V30 24432 C 2264.22 0.757143 1.88136 0
M  V30 24433 C 2264.55 -0.713809 1.80606 0
M  V30 24434 O 2263.83 -1.52162 1.21149 0
M  V30 24435 C 2264.11 1.23346 3.38316 0
M  V30 24436 C 2263.96 2.76707 3.54617 0
M  V30 24437 C 2265.28 0.829491 4.32212 0
M  V30 24438 H 2262.4 0.276522 0.683158 0
M  V30 24439 H 2265.04 1.30151 1.38422 0
M  V30 24440 H 2263.19 0.770352 3.80786 0
M  V30 24441 H 2264.86 3.31113 3.21188 0
M  V30 24442 H 2263.11 3.16167 2.9702 0
M  V30 24443 H 2263.78 3.05096 4.60022 0
M  V30 24444 H 2266.25 1.22812 3.97563 0
M  V30 24445 H 2265.13 1.19043 5.35836 0
M  V30 24446 H 2265.39 -0.266814 4.41294 0
M  V30 24447 N 2264.45 -1.34055 0.828678 0
M  V30 24448 C 2265.41 -2.27721 0.259967 0
M  V30 24449 C 2266.41 -1.5053 -0.565451 0
M  V30 24450 O 2267.6 -1.69989 -0.38072 0
M  V30 24451 C 2264.73 -3.34936 -0.634885 0
M  V30 24452 H 2265.93 -2.79532 1.08635 0
M  V30 24453 H 2263.48 -1.44284 0.600977 0
M  V30 24454 H 2264.22 -2.88348 -1.48411 0
M  V30 24455 H 2264 -3.92075 -0.044431 0
M  V30 24456 H 2265.49 -4.0479 -1.02641 0
M  V30 24457 N 2265.93 -0.584167 -1.46374 0
M  V30 24458 C 2266.87 0.148246 -2.30323 0
M  V30 24459 C 2267.84 0.882688 -1.40705 0
M  V30 24460 O 2269.03 0.873069 -1.69653 0
M  V30 24461 C 2266.17 1.15501 -3.25198 0
M  V30 24462 C 2265.28 0.423867 -4.29916 0
M  V30 24463 C 2264.42 1.41829 -5.11916 0
M  V30 24464 C 2263.46 0.673629 -6.08382 0
M  V30 24465 N 2262.59 1.61618 -6.83245 0
M  V30 24466 H 2267.43 -0.573695 -2.92426 0
M  V30 24467 H 2264.97 -0.294728 -1.44117 0
M  V30 24468 H 2266.93 1.7516 -3.78649 0
M  V30 24469 H 2265.56 1.84465 -2.64901 0
M  V30 24470 H 2264.61 -0.287781 -3.7931 0
M  V30 24471 H 2265.92 -0.158215 -4.98549 0
M  V30 24472 H 2265.08 2.08763 -5.69652 0
M  V30 24473 H 2263.82 2.0343 -4.43247 0
M  V30 24474 H 2262.82 -0.00948147 -5.49799 0
M  V30 24475 H 2264.05 0.0629888 -6.79071 0
M  V30 24476 H 2261.99 2.22027 -6.17284 0
M  V30 24477 H 2261.91 1.08694 -7.48145 0
M  V30 24478 H 2263.18 2.27583 -7.45538 0
M  V30 24479 N 2267.41 1.54275 -0.322027 0
M  V30 24480 C 2268.65 2.00145 0.280454 0
M  V30 24481 C 2268.97 1.2118 1.52775 0
M  V30 24482 O 2268.24 0.313221 1.9338 0
M  V30 24483 H 2266.82 0.739352 0.106619 0
M  V30 24484 H 2269.49 1.8991 -0.438217 0
M  V30 24485 H 2268.58 3.07429 0.537917 0
M  V30 24486 N 2268.88 0.0501669 1.5752 0
M  V30 24487 C 2270.3 -0.306374 1.56632 0
M  V30 24488 C 2270.5 -1.71506 1.05774 0
M  V30 24489 O 2269.56 -2.42198 0.71388 0
M  V30 24490 C 2270.87 -0.135758 3.00393 0
M  V30 24491 C 2272.42 -0.206939 3.12315 0
M  V30 24492 C 2272.89 -0.0648635 4.57954 0
M  V30 24493 N 2274.38 -0.121172 4.63041 0
M  V30 24494 C 2275.12 -0.0353374 5.73389 0
M  V30 24495 N 2274.61 0.102788 6.92724 0
M  V30 24496 N 2276.41 -0.0908472 5.62027 0
M  V30 24497 H 2268.56 0.971079 1.88902 0
M  V30 24498 H 2270.82 0.37687 0.869869 0
M  V30 24499 H 2270.53 0.835444 3.41633 0
M  V30 24500 H 2270.4 -0.897211 3.66374 0
M  V30 24501 H 2272.79 -1.16861 2.70975 0
M  V30 24502 H 2272.87 0.585251 2.49015 0
M  V30 24503 H 2272.51 0.893482 4.99979 0
M  V30 24504 H 2272.44 -0.876185 5.1926 0
M  V30 24505 H 2274.93 -0.227218 3.77216 0
M  V30 24506 H 2275.25 0.161018 7.72632 0
M  V30 24507 H 2273.59 0.137859 6.94863 0
M  V30 24508 H 2276.78 -0.197306 4.67684 0
M  V30 24509 H 2276.96 -0.020495 6.47997 0
M  V30 24510 N 2270.36 -1.56011 -0.223207 0
M  V30 24511 C 2271.32 -1.91452 -1.26011 0
M  V30 24512 C 2272.32 -0.792961 -1.39888 0
M  V30 24513 O 2273.51 -1.06073 -1.38182 0
M  V30 24514 C 2270.65 -2.16388 -2.63418 0
M  V30 24515 H 2271.84 -2.8419 -0.95791 0
M  V30 24516 H 2269.39 -1.49268 -0.46355 0
M  V30 24517 H 2270.13 -1.26196 -2.98739 0
M  V30 24518 H 2269.91 -2.98092 -2.54723 0
M  V30 24519 H 2271.4 -2.44909 -3.38245 0
M  V30 24520 N 2271.84 0.489844 -1.49794 0
M  V30 24521 C 2273.09 1.23992 -1.59088 0
M  V30 24522 C 2273.4 1.93469 -0.287941 0
M  V30 24523 O 2274.61 2.70256 -0.259554 0
M  V30 24524 C 2273.06 2.25195 -2.8074 0
M  V30 24525 C 2272.67 1.61607 -4.17836 0
M  V30 24526 C 2274.42 3.00962 -2.9937 0
M  V30 24527 C 2272.32 2.60987 -5.30698 0
M  V30 24528 H 2271.25 0.466478 -0.59238 0
M  V30 24529 H 2273.9 0.512489 -1.76198 0
M  V30 24530 H 2272.29 3.0115 -2.57148 0
M  V30 24531 H 2273.46 0.915695 -4.5161 0
M  V30 24532 H 2271.77 0.981905 -4.04657 0
M  V30 24533 H 2274.37 3.75302 -3.80858 0
M  V30 24534 H 2274.71 3.5924 -2.10362 0
M  V30 24535 H 2275.25 2.32122 -3.23054 0
M  V30 24536 H 2271.99 2.07474 -6.218 0
M  V30 24537 H 2271.51 3.29231 -5.01365 0
M  V30 24538 H 2273.19 3.23193 -5.60496 0
M  V30 24539 N 2273.32 1.39056 0.741698 0
M  V30 24540 C 2274.25 1.39969 1.86898 0
M  V30 24541 C 2275.23 0.263949 1.6804 0
M  V30 24542 O 2276.41 0.468788 1.88457 0
M  V30 24543 C 2273.54 1.2358 3.24569 0
M  V30 24544 C 2272.5 2.34484 3.58052 0
M  V30 24545 C 2271.82 2.03189 4.94589 0
M  V30 24546 C 2273.12 3.7678 3.6171 0
M  V30 24547 H 2274.82 2.34305 1.86391 0
M  V30 24548 H 2272.36 1.12781 0.895341 0
M  V30 24549 H 2274.32 1.22841 4.03098 0
M  V30 24550 H 2273.04 0.257103 3.25586 0
M  V30 24551 H 2271.7 2.34428 2.81849 0
M  V30 24552 H 2271.35 1.03774 4.92179 0
M  V30 24553 H 2271.05 2.77474 5.17959 0
M  V30 24554 H 2272.57 2.04089 5.75482 0
M  V30 24555 H 2273.99 3.78802 4.30328 0
M  V30 24556 H 2272.38 4.50369 3.96595 0
M  V30 24557 H 2273.45 4.08239 2.61665 0
M  V30 24558 N 2274.8 -0.971167 1.24121 0
M  V30 24559 C 2275.73 -2.08302 1.05511 0
M  V30 24560 C 2276.71 -1.70072 -0.0308565 0
M  V30 24561 O 2277.89 -1.93726 0.135556 0
M  V30 24562 C 2275.02 -3.41059 0.655425 0
M  V30 24563 C 2273.98 -3.93231 1.68978 0
M  V30 24564 C 2273.3 -5.22291 1.14525 0
M  V30 24565 C 2274.6 -4.2146 3.08494 0
M  V30 24566 H 2276.3 -2.24129 1.98511 0
M  V30 24567 H 2273.84 -1.07702 0.95584 0
M  V30 24568 H 2275.79 -4.18275 0.512243 0
M  V30 24569 H 2274.52 -3.25123 -0.310263 0
M  V30 24570 H 2273.18 -3.18168 1.82111 0
M  V30 24571 H 2272.83 -5.02712 0.170277 0
M  V30 24572 H 2272.53 -5.58165 1.83645 0
M  V30 24573 H 2274.05 -6.0212 1.01412 0
M  V30 24574 H 2275.46 -4.89393 2.98609 0
M  V30 24575 H 2273.86 -4.68555 3.74935 0
M  V30 24576 H 2274.93 -3.2837 3.56793 0
M  V30 24577 N 2276.27 -1.05441 -1.17133 0
M  V30 24578 C 2277.69 -0.791706 -1.69083 0
M  V30 24579 C 2278.04 0.685806 -1.83824 0
M  V30 24580 O 2277.16 1.53276 -1.5276 0
M  V30 24581 C 2277.76 -1.43055 -3.07117 0
M  V30 24582 C 2276.32 -1.21583 -3.56222 0
M  V30 24583 C 2275.46 -1.51251 -2.32419 0
M  V30 24584 H 2278.41 -1.21902 -1.01615 0
M  V30 24585 H 2278.43 -0.841185 -3.71085 0
M  V30 24586 H 2277.95 -2.50589 -2.96356 0
M  V30 24587 H 2276.05 -0.159853 -3.72257 0
M  V30 24588 H 2276.16 -1.92254 -4.38834 0
M  V30 24589 H 2274.52 -0.932695 -2.37008 0
M  V30 24590 H 2275.31 -2.59924 -2.24264 0
M  V30 24591 N 2277.75 1.33613 -0.835776 0
M  V30 24592 C 2278.69 2.27214 -0.211855 0
M  V30 24593 C 2279.66 1.49508 0.639222 0
M  V30 24594 O 2280.85 1.78691 0.600161 0
M  V30 24595 C 2277.97 3.31328 0.702835 0
M  V30 24596 C 2277.02 4.26439 -0.0723799 0
M  V30 24597 S 2277.85 5.16103 -1.4282 0
M  V30 24598 C 2279.01 6.23747 -0.518723 0
M  V30 24599 H 2279.24 2.79785 -1.00538 0
M  V30 24600 H 2276.78 1.40857 -0.63236 0
M  V30 24601 H 2278.73 3.91796 1.22498 0
M  V30 24602 H 2277.39 2.77579 1.46999 0
M  V30 24603 H 2276.59 5.00128 0.623502 0
M  V30 24604 H 2276.19 3.7029 -0.525489 0
M  V30 24605 H 2278.48 6.76902 0.284659 0
M  V30 24606 H 2279.42 6.97411 -1.22569 0
M  V30 24607 H 2279.83 5.64409 -0.101444 0
M  V30 24608 N 2279.23 0.591922 1.46062 0
M  V30 24609 C 2280.51 0.0137463 1.95595 0
M  V30 24610 C 2280.89 -1.44967 1.53453 0
M  V30 24611 O 2280.24 -2.14425 0.78958 0
M  V30 24612 C 2280.45 0.195435 3.48452 0
M  V30 24613 C 2281.79 0.0680511 4.24545 0
M  V30 24614 O 2282.82 0.124744 3.55982 0
M  V30 24615 O 2281.68 -0.0599619 5.46467 0
M  V30 24616 H 2278.77 -0.0446133 0.825796 0
M  V30 24617 H 2281.32 0.660886 1.56302 0
M  V30 24618 H 2280.09 1.21242 3.72043 0
M  V30 24619 H 2279.71 -0.487706 3.94598 0
M  V30 24620 N 2280.71 -1.54102 0.330204 0
M  V30 24621 C 2281.64 -2.27514 -0.525313 0
M  V30 24622 C 2282.62 -1.28562 -1.11381 0
M  V30 24623 O 2283.8 -1.57385 -1.1377 0
M  V30 24624 C 2280.93 -3.03794 -1.68305 0
M  V30 24625 C 2279.89 -4.10139 -1.22353 0
M  V30 24626 C 2279.21 -4.74297 -2.46873 0
M  V30 24627 C 2280.51 -5.21234 -0.333605 0
M  V30 24628 H 2282.21 -2.99273 0.0870656 0
M  V30 24629 H 2279.75 -1.43935 0.0433146 0
M  V30 24630 H 2281.71 -3.53884 -2.28788 0
M  V30 24631 H 2280.43 -2.29663 -2.32212 0
M  V30 24632 H 2279.09 -3.60942 -0.641586 0
M  V30 24633 H 2278.74 -3.96775 -3.09159 0
M  V30 24634 H 2278.44 -5.46136 -2.16815 0
M  V30 24635 H 2279.96 -5.27164 -3.08107 0
M  V30 24636 H 2281.38 -5.6704 -0.844913 0
M  V30 24637 H 2279.77 -5.99969 -0.125507 0
M  V30 24638 H 2280.84 -4.8074 0.633808 0
M  V30 24639 N 2282.19 -0.0585199 -1.57491 0
M  V30 24640 C 2283.46 0.653886 -1.84347 0
M  V30 24641 C 2283.84 1.88597 -0.948388 0
M  V30 24642 O 2283.19 2.28497 -0.0112805 0
M  V30 24643 C 2283.4 1.00419 -3.34241 0
M  V30 24644 C 2284.75 1.38335 -4.01433 0
M  V30 24645 O 2285.77 1.09631 -3.38909 0
M  V30 24646 O 2284.63 1.91934 -5.11687 0
M  V30 24647 H 2281.73 0.323465 -0.761117 0
M  V30 24648 H 2284.27 -0.0884423 -1.69469 0
M  V30 24649 H 2283.04 0.128556 -3.91089 0
M  V30 24650 H 2282.67 1.80372 -3.54333 0
M  V30 24651 N 2283.66 1.56128 0.21493 0
M  V30 24652 C 2284.63 1.92118 1.24994 0
M  V30 24653 C 2285.63 0.800369 1.39466 0
M  V30 24654 O 2286.82 1.06804 1.37617 0
M  V30 24655 C 2283.95 2.17781 2.62267 0
M  V30 24656 H 2285.14 2.84694 0.942825 0
M  V30 24657 H 2282.7 1.49512 0.455627 0
M  V30 24658 H 2283.43 1.27778 2.98066 0
M  V30 24659 H 2283.22 2.99439 2.53138 0
M  V30 24660 H 2284.71 2.46699 3.36941 0
M  V30 24661 N 2285.14 -0.481893 1.50052 0
M  V30 24662 C 2286.09 -1.57857 1.64515 0
M  V30 24663 C 2287.08 -1.52931 0.5001 0
M  V30 24664 O 2288.27 -1.60137 0.753992 0
M  V30 24665 C 2285.4 -2.96367 1.73268 0
M  V30 24666 C 2284.48 -3.06217 2.93414 0
M  V30 24667 N 2284.87 -2.85908 4.17241 0
M  V30 24668 C 2283.17 -3.37341 2.91748 0
M  V30 24669 C 2283.87 -3.00442 4.98106 0
M  V30 24670 N 2282.85 -3.30167 4.31846 0
M  V30 24671 H 2286.65 -1.40838 2.57957 0
M  V30 24672 H 2284.17 -0.688413 1.47087 0
M  V30 24673 H 2286.16 -3.75206 1.81731 0
M  V30 24674 H 2284.82 -3.14441 0.809767 0
M  V30 24675 H 2285.83 -2.61703 4.46914 0
M  V30 24676 H 2282.51 -3.61471 2.08913 0
M  V30 24677 H 2283.9 -2.89071 6.06537 0
M  V30 24678 N 2286.62 -1.39448 -0.734313 0
M  V30 24679 C 2287.87 -1.3602 -1.48935 0
M  V30 24680 C 2288.18 0.0408662 -1.95557 0
M  V30 24681 O 2289.39 0.197733 -2.70779 0
M  V30 24682 C 2287.84 -2.3896 -2.69121 0
M  V30 24683 C 2287.45 -3.84784 -2.29445 0
M  V30 24684 C 2289.2 -2.44609 -3.46939 0
M  V30 24685 C 2287.1 -4.79365 -3.46358 0
M  V30 24686 H 2286.03 -0.505682 -0.559287 0
M  V30 24687 H 2288.68 -1.65097 -0.800954 0
M  V30 24688 H 2287.07 -2.02954 -3.40038 0
M  V30 24689 H 2288.24 -4.29834 -1.6607 0
M  V30 24690 H 2286.56 -3.82436 -1.64716 0
M  V30 24691 H 2289.15 -3.12464 -4.33902 0
M  V30 24692 H 2289.5 -1.47082 -3.89451 0
M  V30 24693 H 2290.03 -2.79512 -2.83051 0
M  V30 24694 H 2286.77 -5.78156 -3.08895 0
M  V30 24695 H 2286.29 -4.38993 -4.08711 0
M  V30 24696 H 2287.97 -4.98299 -4.12683 0
M  V30 24697 N 2288.1 0.964571 -1.24635 0
M  V30 24698 C 2289.32 1.74816 -1.11599 0
M  V30 24699 C 2289.75 1.85232 0.327197 0
M  V30 24700 O 2289.11 1.32552 1.23692 0
M  V30 24701 C 2289.15 3.14507 -1.76402 0
M  V30 24702 O 2288.26 3.99151 -1.03692 0
M  V30 24703 H 2287.6 0.537248 -0.390205 0
M  V30 24704 H 2290.13 1.20974 -1.65004 0
M  V30 24705 H 2290.14 3.65015 -1.82286 0
M  V30 24706 H 2288.81 3.06241 -2.81406 0
M  V30 24707 H 2287.39 3.5763 -1.05617 0
M  V30 24708 N 2289.58 1.0606 1.16572 0
M  V30 24709 C 2290.8 0.796596 1.91492 0
M  V30 24710 C 2291.23 -0.642837 1.76774 0
M  V30 24711 O 2290.58 -1.44766 1.09144 0
M  V30 24712 C 2290.63 1.19309 3.40291 0
M  V30 24713 O 2289.74 0.330466 4.11074 0
M  V30 24714 H 2289.08 0.291337 0.596673 0
M  V30 24715 H 2291.61 1.41578 1.47706 0
M  V30 24716 H 2291.62 1.16363 3.91055 0
M  V30 24717 H 2290.29 2.24159 3.50322 0
M  V30 24718 H 2288.87 0.42129 3.70513 0
M  V30 24719 N 2291.06 -1.33168 0.84285 0
M  V30 24720 C 2291.99 -2.27099 0.223902 0
M  V30 24721 C 2292.97 -1.49845 -0.631285 0
M  V30 24722 O 2294.15 -1.79006 -0.590677 0
M  V30 24723 C 2291.28 -3.31696 -0.685254 0
M  V30 24724 C 2290.32 -4.26394 0.0949939 0
M  V30 24725 S 2291.16 -5.15339 1.45555 0
M  V30 24726 C 2292.31 -6.23463 0.551794 0
M  V30 24727 H 2292.55 -2.79247 1.0202 0
M  V30 24728 H 2290.08 -1.40519 0.639821 0
M  V30 24729 H 2292.04 -3.92441 -1.20419 0
M  V30 24730 H 2290.7 -2.78354 -1.45525 0
M  V30 24731 H 2289.89 -5.00452 -0.596971 0
M  V30 24732 H 2289.49 -3.70006 0.545119 0
M  V30 24733 H 2291.78 -6.77043 -0.248758 0
M  V30 24734 H 2292.73 -6.96751 1.26266 0
M  V30 24735 H 2293.14 -5.64347 0.131374 0
M  V30 24736 N 2292.53 -0.599659 -1.45746 0
M  V30 24737 C 2293.46 0.111265 -2.33235 0
M  V30 24738 C 2294.44 0.866755 -1.4636 0
M  V30 24739 O 2295.63 0.838873 -1.75147 0
M  V30 24740 C 2292.76 1.11445 -3.28934 0
M  V30 24741 C 2291.71 0.472697 -4.25382 0
M  V30 24742 C 2291.04 1.58356 -5.10713 0
M  V30 24743 C 2292.34 -0.60104 -5.1883 0
M  V30 24744 H 2294.03 -0.619241 -2.92926 0
M  V30 24745 H 2291.58 -0.29924 -1.40857 0
M  V30 24746 H 2293.53 1.62029 -3.89004 0
M  V30 24747 H 2292.26 1.87545 -2.67384 0
M  V30 24748 H 2290.92 -0.0122117 -3.66598 0
M  V30 24749 H 2290.56 2.33465 -4.45537 0
M  V30 24750 H 2290.26 1.15971 -5.76042 0
M  V30 24751 H 2291.79 2.09183 -5.7365 0
M  V30 24752 H 2293.2 -0.179592 -5.73019 0
M  V30 24753 H 2291.6 -0.94618 -5.92594 0
M  V30 24754 H 2292.67 -1.48076 -4.61738 0
M  V30 24755 N 2294.01 1.53925 -0.338371 0
M  V30 24756 C 2295.24 2.05714 0.263951 0
M  V30 24757 C 2295.66 1.21204 1.43845 0
M  V30 24758 O 2295.02 0.224567 1.79904 0
M  V30 24759 C 2295.07 3.54472 0.661938 0
M  V30 24760 O 2294.17 3.72836 1.76259 0
M  V30 24761 H 2293.51 0.662483 0.0448606 0
M  V30 24762 H 2296.04 1.98619 -0.491083 0
M  V30 24763 H 2296.05 3.97012 0.940524 0
M  V30 24764 H 2294.73 4.15433 -0.19701 0
M  V30 24765 H 2293.3 3.422 1.48167 0
M  V30 24766 N 2295.49 0.0668712 1.57458 0
M  V30 24767 C 2296.71 -0.615992 1.98041 0
M  V30 24768 C 2297.14 -1.6265 0.944799 0
M  V30 24769 O 2296.5 -1.81076 -0.0901776 0
M  V30 24770 C 2296.55 -1.26543 3.37667 0
M  V30 24771 O 2295.65 -2.38125 3.36705 0
M  V30 24772 H 2294.99 -0.158838 0.644722 0
M  V30 24773 H 2297.52 0.139927 2.04121 0
M  V30 24774 H 2297.53 -1.61343 3.74743 0
M  V30 24775 H 2296.21 -0.524944 4.12574 0
M  V30 24776 H 2294.78 -2.05155 3.11394 0
M  V30 24777 N 2296.97 -1.56239 -0.206647 0
M  V30 24778 C 2298.22 -1.79587 -0.926976 0
M  V30 24779 C 2298.54 -0.637962 -1.84269 0
M  V30 24780 O 2297.81 0.344364 -1.9285 0
M  V30 24781 H 2296.39 -0.662413 -0.34528 0
M  V30 24782 H 2299.05 -1.93711 -0.214926 0
M  V30 24783 H 2298.14 -2.72307 -1.52496 0
M  V30 24784 N 2298.45 0.473929 -1.50305 0
M  V30 24785 C 2299.41 1.55466 -1.68413 0
M  V30 24786 C 2300.41 1.50921 -0.554932 0
M  V30 24787 O 2301.6 1.53591 -0.821909 0
M  V30 24788 C 2298.73 2.95099 -1.70673 0
M  V30 24789 H 2299.92 1.40729 -2.64831 0
M  V30 24790 H 2297.48 0.700107 -1.39743 0
M  V30 24791 H 2298.21 3.15284 -0.759375 0
M  V30 24792 H 2298 2.99806 -2.52704 0
M  V30 24793 H 2299.49 3.73568 -1.86646 0
M  V30 24794 N 2299.92 1.39835 0.726907 0
M  V30 24795 C 2301.15 1.40978 1.52118 0
M  V30 24796 C 2301.57 0.00829336 1.88098 0
M  V30 24797 O 2300.93 -0.98078 1.52481 0
M  V30 24798 C 2300.98 2.29649 2.78017 0
M  V30 24799 O 2300.08 1.73194 3.74269 0
M  V30 24800 H 2299.42 0.479739 0.459071 0
M  V30 24801 H 2301.95 1.83929 0.896175 0
M  V30 24802 H 2301.96 2.44443 3.26667 0
M  V30 24803 H 2300.64 3.31497 2.51163 0
M  V30 24804 H 2299.22 1.67686 3.3307 0
M  V30 24805 N 2301.4 -0.957948 1.25144 0
M  V30 24806 C 2302.64 -1.71701 1.10896 0
M  V30 24807 C 2303.01 -1.8888 -0.344747 0
M  V30 24808 O 2304.21 -2.61811 -0.608968 0
M  V30 24809 C 2302.48 -3.0646 1.83895 0
M  V30 24810 S 2304.04 -3.97663 1.85498 0
M  V30 24811 H 2300.85 -0.590219 0.396438 0
M  V30 24812 H 2303.46 -1.1428 1.5862 0
M  V30 24813 H 2302.16 -2.91625 2.88762 0
M  V30 24814 H 2301.69 -3.68943 1.36545 0
M  V30 24815 H 2303.71 -4.87414 0.929639 0
M  V30 24816 N 2302.88 -1.06677 -1.16008 0
M  V30 24817 C 2303.84 -0.685039 -2.18723 0
M  V30 24818 C 2304.84 0.271218 -1.58496 0
M  V30 24819 O 2306.03 0.053085 -1.74119 0
M  V30 24820 C 2303.16 -0.0085964 -3.40899 0
M  V30 24821 H 2304.36 -1.59435 -2.54009 0
M  V30 24822 H 2301.91 -0.862464 -1.3035 0
M  V30 24823 H 2302.65 0.913282 -3.11175 0
M  V30 24824 H 2302.43 -0.696271 -3.85868 0
M  V30 24825 H 2303.92 0.244066 -4.16886 0
M  V30 24826 N 2304.36 1.32719 -0.8499 0
M  V30 24827 C 2305.32 2.27279 -0.296162 0
M  V30 24828 C 2306.32 1.51411 0.541432 0
M  V30 24829 O 2307.51 1.70573 0.353628 0
M  V30 24830 C 2304.64 3.35903 0.58152 0
M  V30 24831 H 2305.84 2.77769 -1.13069 0
M  V30 24832 H 2303.39 1.4331 -0.623855 0
M  V30 24833 H 2304.12 2.90673 1.43804 0
M  V30 24834 H 2303.91 3.92096 -0.0179503 0
M  V30 24835 H 2305.4 4.06371 0.961879 0
M  V30 24836 N 2305.84 0.60738 1.45426 0
M  V30 24837 C 2306.8 -0.101653 2.28974 0
M  V30 24838 C 2307.8 -0.795304 1.39755 0
M  V30 24839 O 2308.99 -0.643499 1.61879 0
M  V30 24840 C 2306.12 -1.15409 3.2077 0
M  V30 24841 H 2307.31 0.632896 2.93146 0
M  V30 24842 H 2304.87 0.366417 1.51944 0
M  V30 24843 H 2305.6 -1.91941 2.61399 0
M  V30 24844 H 2305.39 -0.660912 3.8649 0
M  V30 24845 H 2306.88 -1.65066 3.83592 0
M  V30 24846 N 2307.31 -1.53743 0.34653 0
M  V30 24847 C 2308.28 -2.2376 -0.4964 0
M  V30 24848 C 2309.28 -1.23882 -1.02517 0
M  V30 24849 O 2310.47 -1.48299 -0.913948 0
M  V30 24850 C 2307.6 -2.95956 -1.69182 0
M  V30 24851 H 2308.79 -2.99676 0.116004 0
M  V30 24852 H 2306.35 -1.55993 0.0979213 0
M  V30 24853 H 2307.08 -2.24236 -2.34284 0
M  V30 24854 H 2306.87 -3.69219 -1.31983 0
M  V30 24855 H 2308.36 -3.49236 -2.28963 0
M  V30 24856 N 2308.79 -0.0752207 -1.5742 0
M  V30 24857 C 2309.72 0.920446 -2.09906 0
M  V30 24858 C 2310.74 1.25916 -1.03194 0
M  V30 24859 O 2311.93 1.21575 -1.30697 0
M  V30 24860 C 2309.03 2.2353 -2.5473 0
M  V30 24861 C 2308.2 2.07491 -3.85053 0
M  V30 24862 C 2307.26 3.22311 -4.15935 0
M  V30 24863 O 2306.28 2.97151 -4.85479 0
M  V30 24864 N 2307.49 4.47507 -3.69753 0
M  V30 24865 H 2310.25 0.472307 -2.95955 0
M  V30 24866 H 2307.81 0.110416 -1.61523 0
M  V30 24867 H 2309.8 2.99255 -2.72449 0
M  V30 24868 H 2308.37 2.59831 -1.738 0
M  V30 24869 H 2307.59 1.16213 -3.76681 0
M  V30 24870 H 2308.88 1.94029 -4.70351 0
M  V30 24871 H 2308.28 4.70835 -3.13578 0
M  V30 24872 H 2306.84 5.20248 -3.92665 0
M  V30 24873 N 2310.27 1.56347 0.198358 0
M  V30 24874 C 2311.69 1.49858 0.549059 0
M  V30 24875 C 2311.89 0.774644 1.86015 0
M  V30 24876 O 2310.94 0.32382 2.50415 0
M  V30 24877 C 2312.26 2.94514 0.606816 0
M  V30 24878 C 2313.8 3.05167 0.695872 0
M  V30 24879 C 2314.28 4.51227 0.784769 0
M  V30 24880 N 2315.77 4.55364 0.848383 0
M  V30 24881 C 2316.5 5.65688 0.937279 0
M  V30 24882 N 2316 6.85709 0.98868 0
M  V30 24883 N 2317.79 5.53593 0.974215 0
M  V30 24884 H 2309.94 2.0183 -0.661691 0
M  V30 24885 H 2312.21 0.91834 -0.235277 0
M  V30 24886 H 2311.91 3.50524 -0.287381 0
M  V30 24887 H 2311.79 3.47689 1.46262 0
M  V30 24888 H 2314.17 2.49207 1.5805 0
M  V30 24889 H 2314.26 2.55122 -0.186066 0
M  V30 24890 H 2313.9 5.0781 -0.0954964 0
M  V30 24891 H 2313.83 4.99 1.68246 0
M  V30 24892 H 2316.32 3.6894 0.818038 0
M  V30 24893 H 2316.63 7.65538 1.05693 0
M  V30 24894 H 2314.98 6.88374 0.957413 0
M  V30 24895 H 2318.17 4.58751 0.930873 0
M  V30 24896 H 2318.34 6.39599 1.04004 0
M  V30 24897 N 2311.75 -0.465951 1.50554 0
M  V30 24898 C 2312.7 -1.58403 1.70327 0
M  V30 24899 C 2313.69 -1.59552 0.569167 0
M  V30 24900 O 2314.9 -1.6364 0.749805 0
M  V30 24901 H 2311.27 -0.525724 0.537697 0
M  V30 24902 H 2313.24 -1.3889 2.64106 0
M  V30 24903 C 2311.99 -2.96303 1.81933 0
M  V30 24904 H 2311.31 -2.9614 2.68592 0
M  V30 24905 H 2312.75 -3.73978 1.99791 0
M  V30 24906 C 2311.21 -3.32006 0.572153 0
M  V30 24907 O 2311.74 -4.00678 -0.286346 0
M  V30 24908 N 2309.95 -2.8748 0.424656 0
M  V30 24909 H 2309.5 -2.31769 1.12431 0
M  V30 24910 H 2309.45 -3.11733 -0.408642 0
M  V30 24911 N 2313.23 -1.40218 -0.719481 0
M  V30 24912 C 2314.19 -1.3993 -1.81527 0
M  V30 24913 C 2315.19 -0.29375 -1.58094 0
M  V30 24914 O 2316.38 -0.552458 -1.65208 0
M  V30 24915 C 2313.51 -1.18721 -3.19559 0
M  V30 24916 H 2314.7 -2.37454 -1.83182 0
M  V30 24917 H 2312.26 -1.2601 -0.924724 0
M  V30 24918 H 2312.99 -0.219423 -3.23557 0
M  V30 24919 H 2312.78 -1.98799 -3.37967 0
M  V30 24920 H 2314.27 -1.21298 -3.99595 0
M  V30 24921 N 2314.7 0.951297 -1.25651 0
M  V30 24922 C 2315.93 1.73622 -1.13446 0
M  V30 24923 C 2316.35 1.85569 0.307532 0
M  V30 24924 O 2315.71 1.33856 1.22279 0
M  V30 24925 C 2315.76 3.12618 -1.79728 0
M  V30 24926 O 2314.86 3.98029 -1.07919 0
M  V30 24927 H 2314.21 0.533079 -0.395882 0
M  V30 24928 H 2316.74 1.19217 -1.66278 0
M  V30 24929 H 2316.75 3.63061 -1.86147 0
M  V30 24930 H 2315.42 3.03239 -2.84638 0
M  V30 24931 H 2314 3.5649 -1.09404 0
M  V30 24932 N 2316.18 1.07291 1.1544 0
M  V30 24933 C 2317.41 0.816861 1.90636 0
M  V30 24934 C 2317.83 -0.624052 1.77446 0
M  V30 24935 O 2317.19 -1.436 1.10674 0
M  V30 24936 C 2317.24 1.22912 3.39006 0
M  V30 24937 O 2316.34 0.374047 4.107 0
M  V30 24938 H 2315.68 0.297649 0.59355 0
M  V30 24939 H 2318.21 1.43136 1.46196 0
M  V30 24940 H 2318.22 1.20504 3.89798 0
M  V30 24941 H 2316.9 2.27862 3.47925 0
M  V30 24942 H 2315.48 0.460564 3.70045 0
M  V30 24943 N 2317.66 -1.32267 0.856927 0
M  V30 24944 C 2318.89 -2.01071 0.474785 0
M  V30 24945 C 2319.3 -1.64555 -0.933717 0
M  V30 24946 O 2318.64 -0.864017 -1.62112 0
M  V30 24947 C 2318.7 -3.5547 0.536808 0
M  V30 24948 C 2318.37 -4.1542 1.90461 0
M  V30 24949 C 2319.36 -4.33481 2.87037 0
M  V30 24950 C 2317.05 -4.51443 2.20237 0
M  V30 24951 C 2319.04 -4.86737 4.11541 0
M  V30 24952 C 2316.73 -5.04404 3.44993 0
M  V30 24953 C 2317.73 -5.21999 4.40461 0
M  V30 24954 O 2317.42 -5.73827 5.63008 0
M  V30 24955 H 2317.15 -0.650253 0.184789 0
M  V30 24956 H 2319.7 -1.69769 1.15618 0
M  V30 24957 H 2317.93 -3.86175 -0.201452 0
M  V30 24958 H 2319.62 -4.05544 0.169946 0
M  V30 24959 H 2320.39 -4.05981 2.65338 0
M  V30 24960 H 2316.27 -4.37031 1.46713 0
M  V30 24961 H 2319.81 -5.00386 4.86065 0
M  V30 24962 H 2315.71 -5.31335 3.66542 0
M  V30 24963 H 2316.48 -5.92216 5.64997 0
M  V30 24964 N 2319.14 -0.615084 -1.45102 0
M  V30 24965 C 2320.09 0.0993573 -2.30586 0
M  V30 24966 C 2321.06 0.852644 -1.42545 0
M  V30 24967 O 2322.24 0.836887 -1.71467 0
M  V30 24968 C 2319.38 1.08577 -3.27574 0
M  V30 24969 C 2318.49 0.33258 -4.30718 0
M  V30 24970 C 2317.63 1.30938 -5.14809 0
M  V30 24971 C 2316.67 0.544431 -6.09674 0
M  V30 24972 N 2315.8 1.47089 -6.8652 0
M  V30 24973 H 2320.64 -0.635594 -2.91143 0
M  V30 24974 H 2318.18 -0.325231 -1.4346 0
M  V30 24975 H 2320.14 1.67089 -3.82279 0
M  V30 24976 H 2318.77 1.78805 -2.68754 0
M  V30 24977 H 2317.82 -0.368173 -3.78614 0
M  V30 24978 H 2319.13 -0.263929 -4.98101 0
M  V30 24979 H 2318.29 1.96633 -5.73952 0
M  V30 24980 H 2317.03 1.93982 -4.47462 0
M  V30 24981 H 2316.03 -0.1261 -5.49655 0
M  V30 24982 H 2317.26 -0.0810663 -6.79052 0
M  V30 24983 H 2315.2 2.08884 -6.21855 0
M  V30 24984 H 2315.12 0.928005 -7.50283 0
M  V30 24985 H 2316.39 2.11718 -7.50197 0
M  V30 24986 N 2320.62 1.53557 -0.354678 0
M  V30 24987 C 2321.58 2.2402 0.484526 0
M  V30 24988 C 2322.58 1.24424 1.01859 0
M  V30 24989 O 2323.77 1.48782 0.906071 0
M  V30 24990 C 2320.9 2.9685 1.6761 0
M  V30 24991 H 2322.1 2.9961 -0.131895 0
M  V30 24992 H 2319.65 1.55939 -0.106193 0
M  V30 24993 H 2320.38 2.25475 2.33091 0
M  V30 24994 H 2320.17 3.69914 1.30023 0
M  V30 24995 H 2321.66 3.50445 2.27108 0
M  V30 24996 N 2322.1 0.083568 1.57378 0
M  V30 24997 C 2323.32 -0.591536 1.98264 0
M  V30 24998 C 2323.74 -1.62433 0.962331 0
M  V30 24999 O 2323.1 -1.82433 -0.0495489 0
M  V30 25000 C 2323.15 -1.24959 3.39216 0
M  V30 25001 O 2322.87 -0.258109 4.37339 0
M  V30 25002 C 2324.37 -2.0114 3.95041 0
M  V30 25003 H 2321.59 -0.159466 0.651776 0
M  V30 25004 H 2324.13 0.159451 2.03877 0
M  V30 25005 H 2322.29 -1.95158 3.34652 0
M  V30 25006 H 2322.7 -0.731643 5.19372 0
M  V30 25007 H 2324.18 -2.42558 4.95852 0
M  V30 25008 H 2324.65 -2.87267 3.32227 0
M  V30 25009 H 2325.26 -1.35782 4.03043 0
M  V30 25010 N 2323.57 -1.5645 -0.190064 0
M  V30 25011 C 2324.8 -1.85034 -0.92574 0
M  V30 25012 C 2325.22 -0.666689 -1.76637 0
M  V30 25013 O 2324.57 0.364534 -1.78822 0
M  V30 25014 C 2324.62 -3.12471 -1.8178 0
M  V30 25015 O 2324.35 -4.26272 -1.01111 0
M  V30 25016 C 2325.85 -3.54269 -2.66474 0
M  V30 25017 H 2323.07 -0.614342 -0.269861 0
M  V30 25018 H 2325.61 -2.0356 -0.195802 0
M  V30 25019 H 2323.77 -2.95827 -2.50131 0
M  V30 25020 H 2324.18 -4.98872 -1.61947 0
M  V30 25021 H 2325.65 -4.46391 -3.24714 0
M  V30 25022 H 2326.13 -2.77497 -3.40429 0
M  V30 25023 H 2326.74 -3.73461 -2.03487 0
M  V30 25024 N 2325.05 0.45796 -1.50799 0
M  V30 25025 C 2326.47 0.792795 -1.38517 0
M  V30 25026 C 2326.67 1.96378 -0.451443 0
M  V30 25027 O 2325.72 2.52298 0.101076 0
M  V30 25028 C 2327.04 1.09253 -2.80151 0
M  V30 25029 C 2328.58 1.1982 -2.89158 0
M  V30 25030 C 2329.06 1.53098 -4.31654 0
M  V30 25031 N 2330.55 1.60064 -4.34665 0
M  V30 25032 C 2331.29 1.87345 -5.41931 0
M  V30 25033 N 2330.78 2.12556 -6.59387 0
M  V30 25034 N 2332.57 1.88956 -5.29388 0
M  V30 25035 H 2324.73 -0.313548 -2.10073 0
M  V30 25036 H 2326.99 -0.0778028 -0.944802 0
M  V30 25037 H 2326.69 0.305022 -3.50375 0
M  V30 25038 H 2326.57 2.02544 -3.18207 0
M  V30 25039 H 2328.96 1.97636 -2.19144 0
M  V30 25040 H 2329.04 0.244776 -2.54626 0
M  V30 25041 H 2328.68 0.758178 -5.02209 0
M  V30 25042 H 2328.61 2.49613 -4.63682 0
M  V30 25043 H 2331.1 1.42567 -3.49976 0
M  V30 25044 H 2331.41 2.32684 -7.36938 0
M  V30 25045 H 2329.76 2.09921 -6.62539 0
M  V30 25046 H 2332.95 1.68765 -4.36619 0
M  V30 25047 H 2333.12 2.0988 -6.1307 0
M  V30 25048 N 2326.53 1.40598 0.712035 0
M  V30 25049 C 2327.49 1.40891 1.80783 0
M  V30 25050 C 2328.49 0.30213 1.57936 0
M  V30 25051 O 2329.68 0.561211 1.64912 0
M  V30 25052 C 2326.81 1.20414 3.18925 0
M  V30 25053 H 2328.01 2.38422 1.8192 0
M  V30 25054 H 2325.56 1.26499 0.918028 0
M  V30 25055 H 2326.3 0.236579 3.23436 0
M  V30 25056 H 2326.08 2.00588 3.36908 0
M  V30 25057 H 2327.57 1.23415 3.98947 0
M  V30 25058 N 2328.01 -0.94462 1.26153 0
M  V30 25059 C 2329.25 -1.69042 1.11495 0
M  V30 25060 C 2329.58 -1.91464 -0.342333 0
M  V30 25061 O 2328.84 -1.49056 -1.2681 0
M  V30 25062 C 2329.14 -3.07265 1.82547 0
M  V30 25063 C 2328.8 -3.0461 3.32451 0
M  V30 25064 C 2327.46 -3.03593 3.73342 0
M  V30 25065 C 2329.82 -2.97178 4.28176 0
M  V30 25066 C 2327.14 -2.92906 5.08353 0
M  V30 25067 C 2329.5 -2.88031 5.63223 0
M  V30 25068 C 2328.16 -2.85356 6.03431 0
M  V30 25069 H 2327.43 -0.618568 0.407988 0
M  V30 25070 H 2330.08 -1.10288 1.56553 0
M  V30 25071 H 2328.38 -3.69623 1.29948 0
M  V30 25072 H 2330.08 -3.63812 1.68648 0
M  V30 25073 H 2326.67 -3.06179 2.9992 0
M  V30 25074 H 2330.85 -2.97074 3.97568 0
M  V30 25075 H 2326.11 -2.89209 5.38672 0
M  V30 25076 H 2330.28 -2.81243 6.37083 0
M  V30 25077 H 2327.91 -2.7683 7.08004 0
M  V30 25078 N 2329.49 -1.07901 -1.1487 0
M  V30 25079 C 2330.9 -0.827392 -1.67365 0
M  V30 25080 C 2331.25 0.64666 -1.85237 0
M  V30 25081 O 2330.37 1.50001 -1.55976 0
M  V30 25082 C 2330.97 -1.49537 -3.04013 0
M  V30 25083 C 2329.53 -1.29112 -3.53563 0
M  V30 25084 C 2328.67 -1.56147 -2.29158 0
M  V30 25085 H 2331.62 -1.2403 -0.990061 0
M  V30 25086 H 2331.65 -0.919708 -3.69218 0
M  V30 25087 H 2331.16 -2.56819 -2.90974 0
M  V30 25088 H 2329.26 -0.238778 -3.71834 0
M  V30 25089 H 2329.37 -2.01519 -4.34657 0
M  V30 25090 H 2327.74 -0.982758 -2.34976 0
M  V30 25091 H 2328.52 -2.64623 -2.187 0
M  V30 25092 N 2330.96 1.31811 -0.863929 0
M  V30 25093 C 2332.38 1.49638 -0.55503 0
M  V30 25094 C 2332.58 1.79668 0.912234 0
M  V30 25095 O 2331.64 1.87174 1.69476 0
M  V30 25096 C 2332.95 2.63429 -1.45003 0
M  V30 25097 C 2334.5 2.77313 -1.45143 0
M  V30 25098 C 2334.97 3.94193 -2.33186 0
M  V30 25099 N 2336.46 4.0147 -2.31032 0
M  V30 25100 C 2337.2 4.91165 -2.95879 0
M  V30 25101 N 2336.69 5.85803 -3.69873 0
M  V30 25102 N 2338.49 4.84362 -2.85219 0
M  V30 25103 H 2330.64 1.10586 -1.81341 0
M  V30 25104 H 2332.9 0.545881 -0.77506 0
M  V30 25105 H 2332.61 2.47996 -2.49381 0
M  V30 25106 H 2332.48 3.59429 -1.14416 0
M  V30 25107 H 2334.87 2.92164 -0.415253 0
M  V30 25108 H 2334.95 1.81998 -1.79751 0
M  V30 25109 H 2334.59 3.80101 -3.36877 0
M  V30 25110 H 2334.52 4.88803 -1.95906 0
M  V30 25111 H 2337.01 3.33756 -1.77244 0
M  V30 25112 H 2337.33 6.50961 -4.16497 0
M  V30 25113 H 2335.67 5.85801 -3.73981 0
M  V30 25114 H 2338.86 4.09401 -2.26955 0
M  V30 25115 H 2339.04 5.5406 -3.36037 0
M  V30 25116 N 2332.44 0.62277 1.44773 0
M  V30 25117 C 2333.69 0.124119 2.0242 0
M  V30 25118 C 2334.02 -1.24774 1.48812 0
M  V30 25119 O 2333.3 -1.82639 0.668831 0
M  V30 25120 C 2333.58 0.101682 3.59956 0
M  V30 25121 C 2333.43 1.50529 4.23865 0
M  V30 25122 C 2334.75 -0.578196 4.36285 0
M  V30 25123 H 2331.87 0.0465775 0.735527 0
M  V30 25124 H 2334.51 0.797647 1.72446 0
M  V30 25125 H 2332.66 -0.471866 3.85624 0
M  V30 25126 H 2334.33 2.12708 4.09332 0
M  V30 25127 H 2332.58 2.06161 3.81681 0
M  V30 25128 H 2333.25 1.44169 5.32841 0
M  V30 25129 H 2335.72 -0.0905326 4.16002 0
M  V30 25130 H 2334.6 -0.563053 5.46005 0
M  V30 25131 H 2334.86 -1.64706 4.10274 0
M  V30 25132 N 2333.92 -1.53367 0.362817 0
M  V30 25133 C 2335.15 -2.05634 -0.228577 0
M  V30 25134 C 2335.56 -1.23651 -1.42674 0
M  V30 25135 O 2334.92 -0.276502 -1.80393 0
M  V30 25136 C 2334.97 -3.5606 -0.624783 0
M  V30 25137 O 2334.69 -4.34934 0.525752 0
M  V30 25138 C 2336.19 -4.24573 -1.27486 0
M  V30 25139 H 2333.41 -0.669764 -0.0407066 0
M  V30 25140 H 2335.96 -1.97768 0.520386 0
M  V30 25141 H 2334.11 -3.64085 -1.32366 0
M  V30 25142 H 2334.53 -5.24095 0.206061 0
M  V30 25143 H 2336 -5.31153 -1.50267 0
M  V30 25144 H 2336.48 -3.7812 -2.23432 0
M  V30 25145 H 2337.08 -4.20794 -0.617484 0
M  V30 25146 N 2335.4 -0.091913 -1.57332 0
M  V30 25147 C 2336.81 0.437707 -1.81497 0
M  V30 25148 C 2337.16 1.68368 -1.0073 0
M  V30 25149 O 2336.29 2.15112 -0.235732 0
M  V30 25150 C 2336.88 0.800881 -3.29198 0
M  V30 25151 C 2335.44 1.27526 -3.54138 0
M  V30 25152 C 2334.59 0.270344 -2.75979 0
M  V30 25153 H 2337.54 -0.317393 -1.55494 0
M  V30 25154 H 2337.56 1.66068 -3.42347 0
M  V30 25155 H 2337.07 -0.106146 -3.87955 0
M  V30 25156 H 2335.17 2.20011 -3.00709 0
M  V30 25157 H 2335.28 1.23929 -4.62794 0
M  V30 25158 H 2333.65 0.75183 -2.43351 0
M  V30 25159 H 2334.43 -0.629307 -3.37483 0
M  V30 25160 N 2336.88 1.56548 0.181765 0
M  V30 25161 C 2338.1 1.85523 0.915914 0
M  V30 25162 C 2338.52 0.676047 1.76281 0
M  V30 25163 O 2337.88 -0.355045 1.79013 0
M  V30 25164 C 2337.93 3.13431 1.80121 0
M  V30 25165 O 2337.65 4.26803 0.988487 0
M  V30 25166 C 2339.15 3.55678 2.64591 0
M  V30 25167 H 2336.37 0.615765 0.266599 0
M  V30 25168 H 2338.91 2.03661 0.185004 0
M  V30 25169 H 2337.07 2.97149 2.48558 0
M  V30 25170 H 2337.48 4.99724 1.59299 0
M  V30 25171 H 2338.96 4.48107 3.22342 0
M  V30 25172 H 2339.43 2.79298 3.38953 0
M  V30 25173 H 2340.04 3.74535 2.01503 0
M  V30 25174 N 2338.35 -0.449957 1.5104 0
M  V30 25175 C 2339.32 -1.52767 1.70865 0
M  V30 25176 C 2340.32 -1.50019 0.578872 0
M  V30 25177 O 2341.51 -1.52264 0.84624 0
M  V30 25178 C 2338.64 -2.92347 1.75346 0
M  V30 25179 H 2339.83 -1.36498 2.67036 0
M  V30 25180 H 2337.39 -0.677787 1.40839 0
M  V30 25181 H 2338.12 -3.14036 0.809438 0
M  V30 25182 H 2337.91 -2.95747 2.57441 0
M  V30 25183 H 2339.4 -3.70551 1.92566 0
M  V30 25184 N 2339.83 -1.40974 -0.704569 0
M  V30 25185 C 2340.78 -1.42302 -1.83992 0
M  V30 25186 C 2341.77 -0.302141 -1.66684 0
M  V30 25187 O 2342.98 -0.473727 -1.73654 0
M  V30 25188 H 2339.36 -0.445051 -0.606163 0
M  V30 25189 H 2341.33 -2.38006 -1.79988 0
M  V30 25190 C 2340.08 -1.31329 -3.21944 0
M  V30 25191 H 2339.4 -2.16861 -3.35874 0
M  V30 25192 H 2340.84 -1.36318 -4.01489 0
M  V30 25193 C 2339.3 -0.0246569 -3.36891 0
M  V30 25194 O 2339.83 0.934085 -3.90689 0
M  V30 25195 N 2338.03 0.0484732 -2.9056 0
M  V30 25196 H 2337.58 -0.732462 -2.46967 0
M  V30 25197 H 2337.54 0.910118 -3.00939 0
M  V30 25198 N 2341.31 0.937917 -1.26653 0
M  V30 25199 C 2342.24 2.041 -1.04287 0
M  V30 25200 C 2343.26 1.628 -0.00223876 0
M  V30 25201 O 2344.44 1.76843 -0.242676 0
M  V30 25202 C 2341.54 3.34276 -0.557905 0
M  V30 25203 C 2340.72 4.04326 -1.66851 0
M  V30 25204 C 2339.78 5.12775 -1.18104 0
M  V30 25205 O 2338.8 5.373 -1.87874 0
M  V30 25206 N 2340 5.80492 -0.0312026 0
M  V30 25207 H 2342.77 2.23853 -1.99274 0
M  V30 25208 H 2340.33 1.10762 -1.18082 0
M  V30 25209 H 2342.32 4.04124 -0.215907 0
M  V30 25210 H 2340.89 3.11172 0.298468 0
M  V30 25211 H 2340.11 3.2835 -2.18129 0
M  V30 25212 H 2341.4 4.47879 -2.41416 0
M  V30 25213 H 2340.8 5.63006 0.551387 0
M  V30 25214 H 2339.36 6.51314 0.251694 0
M  V30 25215 N 2342.79 1.08509 1.14296 0
M  V30 25216 C 2344.03 0.826471 1.85852 0
M  V30 25217 C 2344.39 -0.640846 1.81414 0
M  V30 25218 O 2343.68 -1.46516 1.23465 0
M  V30 25219 C 2343.88 1.28385 3.33545 0
M  V30 25220 C 2343.71 2.79409 3.52364 0
M  V30 25221 C 2342.48 3.4717 3.67153 0
M  V30 25222 C 2344.67 3.77579 3.49197 0
M  V30 25223 N 2342.66 4.86716 3.7414 0
M  V30 25224 C 2344.03 5.03027 3.62441 0
M  V30 25225 C 2346.08 3.70569 3.3254 0
M  V30 25226 C 2344.78 6.22296 3.6075 0
M  V30 25227 C 2346.81 4.89314 3.32153 0
M  V30 25228 C 2346.17 6.13601 3.45939 0
M  V30 25229 H 2342.27 0.355155 0.696699 0
M  V30 25230 H 2344.86 1.38365 1.36979 0
M  V30 25231 H 2343.03 0.754233 3.81006 0
M  V30 25232 H 2344.76 0.971538 3.92865 0
M  V30 25233 H 2341.51 2.97587 3.68428 0
M  V30 25234 H 2341.94 5.59377 3.81349 0
M  V30 25235 H 2346.58 2.75413 3.20792 0
M  V30 25236 H 2344.3 7.17761 3.71274 0
M  V30 25237 H 2347.88 4.85578 3.20476 0
M  V30 25238 H 2346.76 7.03945 3.45587 0
M  V30 25239 N 2344.27 -1.31351 0.870907 0
M  V30 25240 C 2345.54 -1.91405 0.40294 0
M  V30 25241 C 2345.92 -1.79246 -1.11509 0
M  V30 25242 O 2345.27 -1.20073 -1.94409 0
M  V30 25243 C 2345.48 -3.37583 0.88536 0
M  V30 25244 C 2346.83 -4.14689 0.912044 0
M  V30 25245 O 2347.85 -3.46369 0.831076 0
M  V30 25246 O 2346.71 -5.36718 1.02936 0
M  V30 25247 H 2343.81 -0.818143 0.120713 0
M  V30 25248 H 2346.35 -1.40013 0.958881 0
M  V30 25249 H 2345.12 -3.40451 1.92895 0
M  V30 25250 H 2344.75 -3.96407 0.307783 0
M  V30 25251 N 2345.74 -0.630439 -1.44441 0
M  V30 25252 C 2346.97 -0.141501 -2.06115 0
M  V30 25253 C 2347.38 1.18888 -1.47181 0
M  V30 25254 O 2346.73 1.74005 -0.588903 0
M  V30 25255 C 2346.79 0.0483724 -3.59467 0
M  V30 25256 C 2346.45 -1.20373 -4.40862 0
M  V30 25257 C 2347.45 -2.12727 -4.74387 0
M  V30 25258 C 2345.13 -1.43896 -4.81248 0
M  V30 25259 C 2347.13 -3.26914 -5.4718 0
M  V30 25260 C 2344.81 -2.58379 -5.5379 0
M  V30 25261 C 2345.81 -3.49715 -5.86676 0
M  V30 25262 O 2345.5 -4.62203 -6.57741 0
M  V30 25263 H 2345.23 -0.076591 -0.671647 0
M  V30 25264 H 2347.79 -0.864728 -1.86311 0
M  V30 25265 H 2346.02 0.826737 -3.77759 0
M  V30 25266 H 2347.71 0.491778 -4.0291 0
M  V30 25267 H 2348.47 -1.95789 -4.43725 0
M  V30 25268 H 2344.35 -0.736933 -4.55072 0
M  V30 25269 H 2347.89 -3.98227 -5.72766 0
M  V30 25270 H 2343.79 -2.75262 -5.83868 0
M  V30 25271 H 2344.56 -4.61176 -6.76209 0
M  V30 25272 N 2347.22 1.53172 -0.370945 0
M  V30 25273 C 2348.17 2.25901 0.472995 0
M  V30 25274 C 2349.14 1.26783 1.07309 0
M  V30 25275 O 2350.32 1.55576 1.10457 0
M  V30 25276 C 2347.46 3.05558 1.604 0
M  V30 25277 C 2346.58 4.19577 1.02855 0
M  V30 25278 C 2345.71 4.86665 2.1291 0
M  V30 25279 C 2344.75 5.92706 1.52859 0
M  V30 25280 N 2343.89 6.53464 2.56768 0
M  V30 25281 H 2348.73 2.97603 -0.153701 0
M  V30 25282 H 2346.27 1.46839 -0.0876204 0
M  V30 25283 H 2348.22 3.5002 2.27028 0
M  V30 25284 H 2346.85 2.36101 2.20127 0
M  V30 25285 H 2345.91 3.79562 0.252398 0
M  V30 25286 H 2347.22 4.95763 0.549555 0
M  V30 25287 H 2346.37 5.34338 2.87347 0
M  V30 25288 H 2345.11 4.09962 2.64163 0
M  V30 25289 H 2344.12 5.4439 0.769383 0
M  V30 25290 H 2345.34 6.71332 1.02423 0
M  V30 25291 H 2343.29 5.79611 3.07224 0
M  V30 25292 H 2343.2 7.25206 2.1357 0
M  V30 25293 H 2344.47 7.05784 3.30891 0
M  V30 25294 N 2348.7 0.100255 1.57281 0
M  V30 25295 C 2349.65 -0.87429 2.15543 0
M  V30 25296 C 2350.64 -1.28857 1.09964 0
M  V30 25297 O 2351.85 -1.2625 1.283 0
M  V30 25298 H 2348.22 -0.299991 0.689572 0
M  V30 25299 H 2350.19 -0.358238 2.96242 0
M  V30 25300 C 2348.94 -2.12175 2.75458 0
M  V30 25301 H 2348.27 -1.81186 3.56387 0
M  V30 25302 H 2349.71 -2.78412 3.19786 0
M  V30 25303 C 2348.17 -2.89918 1.71607 0
M  V30 25304 O 2348.7 -3.84644 1.15811 0
M  V30 25305 N 2346.9 -2.53555 1.41979 0
M  V30 25306 H 2346.45 -1.76595 1.87542 0
M  V30 25307 H 2346.41 -3.05871 0.727328 0
M  V30 25308 N 2350.18 -1.56643 -0.17346 0
M  V30 25309 C 2351.43 -1.81065 -0.888726 0
M  V30 25310 C 2351.74 -0.677152 -1.83505 0
M  V30 25311 O 2352.95 -0.806252 -2.59252 0
M  V30 25312 C 2351.4 -3.20829 -1.63086 0
M  V30 25313 C 2351.01 -4.42041 -0.728279 0
M  V30 25314 C 2352.76 -3.54545 -2.33448 0
M  V30 25315 C 2350.66 -5.72826 -1.47052 0
M  V30 25316 H 2349.59 -0.675192 -0.335606 0
M  V30 25317 H 2352.24 -1.82952 -0.14168 0
M  V30 25318 H 2350.63 -3.13252 -2.42258 0
M  V30 25319 H 2351.8 -4.60792 0.0263259 0
M  V30 25320 H 2350.11 -4.16183 -0.134419 0
M  V30 25321 H 2352.71 -4.49503 -2.8957 0
M  V30 25322 H 2353.05 -2.79323 -3.08682 0
M  V30 25323 H 2353.59 -3.63666 -1.61221 0
M  V30 25324 H 2350.33 -6.51073 -0.760544 0
M  V30 25325 H 2349.85 -5.58055 -2.1985 0
M  V30 25326 H 2351.53 -6.14705 -2.01858 0
M  V30 25327 N 2351.66 0.44194 -1.51277 0
M  V30 25328 C 2352.91 1.18868 -1.62952 0
M  V30 25329 C 2353.22 1.92455 -0.349346 0
M  V30 25330 O 2354.43 2.69294 -0.345403 0
M  V30 25331 C 2352.88 2.1615 -2.87762 0
M  V30 25332 C 2352.49 1.48232 -4.22766 0
M  V30 25333 C 2354.23 2.91285 -3.08793 0
M  V30 25334 C 2352.14 2.43971 -5.38732 0
M  V30 25335 H 2351.07 0.447396 -0.606921 0
M  V30 25336 H 2353.72 0.456174 -1.77739 0
M  V30 25337 H 2352.1 2.92816 -2.66598 0
M  V30 25338 H 2353.28 0.771555 -4.54295 0
M  V30 25339 H 2351.59 0.85267 -4.07576 0
M  V30 25340 H 2354.19 3.62995 -3.92605 0
M  V30 25341 H 2354.53 3.52366 -2.21685 0
M  V30 25342 H 2355.07 2.21727 -3.30276 0
M  V30 25343 H 2351.8 1.87586 -6.28086 0
M  V30 25344 H 2351.32 3.13114 -5.11585 0
M  V30 25345 H 2353 3.05197 -5.70494 0
M  V30 25346 N 2353.14 1.41345 0.697083 0
M  V30 25347 C 2354.05 1.4543 1.84085 0
M  V30 25348 C 2355.06 0.34504 1.70545 0
M  V30 25349 O 2356.24 0.592526 1.92487 0
M  V30 25350 C 2353.3 1.33292 3.20053 0
M  V30 25351 C 2352.36 2.5452 3.45713 0
M  V30 25352 C 2351.6 2.42952 4.75195 0
M  V30 25353 O 2351.82 1.45328 5.51576 0
M  V30 25354 O 2350.75 3.32681 5.01604 0
M  V30 25355 H 2354.58 2.41922 1.83595 0
M  V30 25356 H 2352.16 1.22867 0.849945 0
M  V30 25357 H 2354.05 1.28801 4.01233 0
M  V30 25358 H 2352.72 0.399146 3.2123 0
M  V30 25359 H 2351.63 2.64588 2.64469 0
M  V30 25360 H 2352.96 3.46721 3.4935 0
M  V30 25361 N 2354.61 -0.931187 1.27148 0
M  V30 25362 C 2355.56 -2.03132 1.09572 0
M  V30 25363 C 2356.53 -1.661 -0.00219513 0
M  V30 25364 O 2357.72 -1.90132 0.159472 0
M  V30 25365 C 2354.86 -3.36956 0.74529 0
M  V30 25366 C 2353.97 -3.86964 1.92048 0
M  V30 25367 C 2353.1 -5.09219 1.51225 0
M  V30 25368 C 2352.14 -5.51515 2.65514 0
M  V30 25369 N 2351.28 -6.64968 2.25303 0
M  V30 25370 H 2356.12 -2.17498 2.03712 0
M  V30 25371 H 2353.66 -1.06555 1.01413 0
M  V30 25372 H 2355.61 -4.13909 0.522951 0
M  V30 25373 H 2354.24 -3.22407 -0.159145 0
M  V30 25374 H 2353.3 -3.06322 2.25546 0
M  V30 25375 H 2354.61 -4.14285 2.77794 0
M  V30 25376 H 2353.76 -5.93663 1.25095 0
M  V30 25377 H 2352.5 -4.83668 0.625834 0
M  V30 25378 H 2351.51 -4.65623 2.92362 0
M  V30 25379 H 2352.73 -5.79064 3.54771 0
M  V30 25380 H 2350.68 -6.41081 1.39109 0
M  V30 25381 H 2350.59 -6.91926 3.04589 0
M  V30 25382 H 2351.86 -7.52762 2.02411 0
M  V30 25383 N 2356.09 -1.09114 -1.13719 0
M  V30 25384 C 2357.02 -0.749423 -2.21147 0
M  V30 25385 C 2358 0.271446 -1.6792 0
M  V30 25386 O 2359.19 0.140217 -1.93693 0
M  V30 25387 C 2356.32 -0.16572 -3.46904 0
M  V30 25388 C 2355.27 -1.11574 -4.13201 0
M  V30 25389 C 2354.6 -0.393903 -5.33247 0
M  V30 25390 C 2355.9 -2.45686 -4.60908 0
M  V30 25391 H 2357.59 -1.64763 -2.49987 0
M  V30 25392 H 2355.14 -0.793647 -1.20155 0
M  V30 25393 H 2357.09 0.0853919 -4.21313 0
M  V30 25394 H 2355.81 0.767658 -3.1745 0
M  V30 25395 H 2354.47 -1.35208 -3.40756 0
M  V30 25396 H 2354.12 0.543511 -5.00055 0
M  V30 25397 H 2353.82 -1.02731 -5.7855 0
M  V30 25398 H 2355.35 -0.151015 -6.10413 0
M  V30 25399 H 2356.76 -2.26278 -5.26755 0
M  V30 25400 H 2355.16 -3.04785 -5.16939 0
M  V30 25401 H 2356.23 -3.06684 -3.75597 0
M  V30 25402 N 2357.57 1.30887 -0.877861 0
M  V30 25403 C 2358.5 2.27272 -0.296647 0
M  V30 25404 C 2359.51 1.53415 0.544772 0
M  V30 25405 O 2360.7 1.74718 0.36548 0
M  V30 25406 C 2357.8 3.33593 0.597423 0
M  V30 25407 C 2356.98 4.36879 -0.213328 0
M  V30 25408 C 2356.04 5.22651 0.610116 0
M  V30 25409 O 2355.06 5.69189 0.0353409 0
M  V30 25410 N 2356.26 5.47807 1.92061 0
M  V30 25411 H 2359.03 2.77785 -1.12497 0
M  V30 25412 H 2356.59 1.43992 -0.74013 0
M  V30 25413 H 2358.58 3.87893 1.15418 0
M  V30 25414 H 2357.15 2.83063 1.32642 0
M  V30 25415 H 2356.37 3.82543 -0.951533 0
M  V30 25416 H 2357.66 5.0295 -0.769351 0
M  V30 25417 H 2357.06 5.11768 2.41061 0
M  V30 25418 H 2355.61 6.05011 2.42498 0
M  V30 25419 N 2359.05 0.638091 1.44105 0
M  V30 25420 C 2360.32 0.0759664 1.95452 0
M  V30 25421 C 2360.7 -1.40012 1.57987 0
M  V30 25422 O 2360.05 -2.11804 0.857398 0
M  V30 25423 C 2360.26 0.306193 3.47654 0
M  V30 25424 C 2361.61 0.203083 4.24114 0
M  V30 25425 O 2362.63 0.237933 3.55404 0
M  V30 25426 O 2361.49 0.113923 5.46381 0
M  V30 25427 H 2358.59 -0.0183187 0.826797 0
M  V30 25428 H 2361.13 0.710278 1.54121 0
M  V30 25429 H 2359.91 1.33016 3.67998 0
M  V30 25430 H 2359.53 -0.361921 3.95949 0
M  V30 25431 N 2360.53 -1.52973 0.379063 0
M  V30 25432 C 2361.77 -2.00629 -0.207577 0
M  V30 25433 C 2362.09 -1.27008 -1.48756 0
M  V30 25434 O 2363.29 -1.65322 -2.15362 0
M  V30 25435 C 2361.75 -3.57435 -0.420467 0
M  V30 25436 C 2361.36 -4.39946 0.845664 0
M  V30 25437 C 2363.1 -4.13409 -0.964029 0
M  V30 25438 C 2361.01 -5.88332 0.601616 0
M  V30 25439 H 2359.94 -0.749599 -0.0813459 0
M  V30 25440 H 2362.59 -1.7656 0.499884 0
M  V30 25441 H 2360.97 -3.77712 -1.18952 0
M  V30 25442 H 2362.15 -4.31439 1.61855 0
M  V30 25443 H 2360.46 -3.95143 1.31343 0
M  V30 25444 H 2363.06 -5.21918 -1.16216 0
M  V30 25445 H 2363.4 -3.68852 -1.93012 0
M  V30 25446 H 2363.93 -3.96983 -0.2548 0
M  V30 25447 H 2360.67 -6.37191 1.53842 0
M  V30 25448 H 2360.19 -5.99654 -0.132523 0
M  V30 25449 H 2361.87 -6.46583 0.232247 0
M  V30 25450 N 2362 -0.108595 -1.57225 0
M  V30 25451 C 2363.25 0.551669 -1.94009 0
M  V30 25452 C 2363.57 1.68492 -0.993471 0
M  V30 25453 O 2364.77 2.40724 -1.25555 0
M  V30 25454 C 2363.23 1.03273 -3.44765 0
M  V30 25455 C 2362.84 -0.071498 -4.47943 0
M  V30 25456 C 2364.58 1.66496 -3.90486 0
M  V30 25457 C 2362.49 0.425676 -5.89866 0
M  V30 25458 H 2361.42 0.20985 -0.724209 0
M  V30 25459 H 2364.07 -0.186773 -1.82547 0
M  V30 25460 H 2362.45 1.82527 -3.51425 0
M  V30 25461 H 2363.62 -0.847445 -4.5294 0
M  V30 25462 H 2361.94 -0.609741 -4.11912 0
M  V30 25463 H 2364.54 2.04789 -4.93929 0
M  V30 25464 H 2364.88 2.53936 -3.29882 0
M  V30 25465 H 2365.41 0.938006 -3.86583 0
M  V30 25466 H 2362.15 -0.412431 -6.54201 0
M  V30 25467 H 2361.67 1.16833 -5.88311 0
M  V30 25468 H 2363.35 0.890285 -6.40845 0
M  V30 25469 N 2363.48 1.56732 0.16515 0
M  V30 25470 C 2364.71 1.86484 0.896185 0
M  V30 25471 C 2365.12 0.694706 1.75554 0
M  V30 25472 O 2364.48 -0.336038 1.7938 0
M  V30 25473 C 2364.53 3.15323 1.76786 0
M  V30 25474 O 2364.25 4.27827 0.943163 0
M  V30 25475 C 2365.75 3.58464 2.60804 0
M  V30 25476 H 2362.97 0.618558 0.260053 0
M  V30 25477 H 2365.52 2.03846 0.163392 0
M  V30 25478 H 2363.67 2.99769 2.45392 0
M  V30 25479 H 2364.09 5.01386 1.5399 0
M  V30 25480 H 2365.56 4.515 3.17571 0
M  V30 25481 H 2366.04 2.82877 3.35972 0
M  V30 25482 H 2366.64 3.76651 1.97519 0
M  V30 25483 N 2364.96 -0.433911 1.51509 0
M  V30 25484 C 2365.92 -1.50946 1.72476 0
M  V30 25485 C 2366.92 -1.49397 0.594751 0
M  V30 25486 O 2368.11 -1.51358 0.862342 0
M  V30 25487 C 2365.24 -2.90471 1.78437 0
M  V30 25488 H 2366.44 -1.33658 2.68469 0
M  V30 25489 H 2363.99 -0.662811 1.4155 0
M  V30 25490 H 2364.73 -3.1316 0.8427 0
M  V30 25491 H 2364.51 -2.93 2.60563 0
M  V30 25492 H 2366 -3.68488 1.96485 0
M  V30 25493 N 2366.44 -1.41713 -0.689577 0
M  V30 25494 C 2367.37 -1.4681 -1.81574 0
M  V30 25495 C 2368.35 -0.326134 -1.66944 0
M  V30 25496 O 2369.53 -0.53841 -1.86587 0
M  V30 25497 C 2366.66 -1.35541 -3.19759 0
M  V30 25498 C 2365.62 -2.47611 -3.49103 0
M  V30 25499 C 2364.94 -2.21405 -4.86707 0
M  V30 25500 C 2366.24 -3.89945 -3.47477 0
M  V30 25501 H 2367.94 -2.41061 -1.77566 0
M  V30 25502 H 2365.48 -1.16027 -0.852866 0
M  V30 25503 H 2367.44 -1.37717 -3.98261 0
M  V30 25504 H 2366.16 -0.377765 -3.24408 0
M  V30 25505 H 2364.82 -2.44727 -2.72955 0
M  V30 25506 H 2364.47 -1.21969 -4.87988 0
M  V30 25507 H 2364.17 -2.96506 -5.07304 0
M  V30 25508 H 2365.69 -2.25307 -5.67511 0
M  V30 25509 H 2367.11 -3.94512 -4.15973 0
M  V30 25510 H 2365.5 -4.64778 -3.79607 0
M  V30 25511 H 2366.57 -4.1767 -2.46333 0
M  V30 25512 N 2367.92 0.924431 -1.2764 0
M  V30 25513 C 2368.83 2.05883 -1.12469 0
M  V30 25514 C 2369.84 1.73916 -0.0538995 0
M  V30 25515 O 2371.02 1.99701 -0.261047 0
M  V30 25516 C 2368.08 3.37885 -0.776827 0
M  V30 25517 C 2367.14 3.83528 -1.92885 0
M  V30 25518 C 2366.38 5.09231 -1.59748 0
M  V30 25519 O 2366.6 5.68143 -0.506882 0
M  V30 25520 O 2365.53 5.50327 -2.43771 0
M  V30 25521 H 2369.36 2.21596 -2.07675 0
M  V30 25522 H 2366.95 1.04411 -1.06858 0
M  V30 25523 H 2368.83 4.1716 -0.596303 0
M  V30 25524 H 2367.5 3.23372 0.145675 0
M  V30 25525 H 2366.41 3.05127 -2.16445 0
M  V30 25526 H 2367.74 4.02588 -2.83167 0
M  V30 25527 N 2369.39 1.09715 1.13139 0
M  V30 25528 C 2370.3 0.751406 2.22241 0
M  V30 25529 C 2371.32 -0.247907 1.72225 0
M  V30 25530 O 2372.5 -0.0885109 2.01205 0
M  V30 25531 C 2369.56 0.180334 3.46231 0
M  V30 25532 C 2368.62 1.23597 4.11123 0
M  V30 25533 C 2367.86 0.692059 5.29194 0
M  V30 25534 O 2368.08 -0.48404 5.68343 0
M  V30 25535 O 2367.01 1.44849 5.84211 0
M  V30 25536 H 2370.84 1.6619 2.54194 0
M  V30 25537 H 2368.42 0.871757 1.21329 0
M  V30 25538 H 2370.31 -0.134665 4.21185 0
M  V30 25539 H 2368.98 -0.70313 3.15971 0
M  V30 25540 H 2367.89 1.60371 3.37982 0
M  V30 25541 H 2369.22 2.09219 4.4552 0
M  V30 25542 N 2370.87 -1.30419 0.88479 0
M  V30 25543 C 2372.29 -1.48736 0.578766 0
M  V30 25544 C 2372.49 -1.81096 -0.883535 0
M  V30 25545 O 2371.54 -1.89847 -1.66477 0
M  V30 25546 C 2372.86 -2.61088 1.49175 0
M  V30 25547 C 2374.41 -2.74969 1.49536 0
M  V30 25548 C 2374.88 -3.90434 2.39428 0
M  V30 25549 N 2376.37 -3.97744 2.3739 0
M  V30 25550 C 2377.11 -4.86396 3.03656 0
M  V30 25551 N 2376.6 -5.79845 3.79146 0
M  V30 25552 N 2378.4 -4.79763 2.92889 0
M  V30 25553 H 2370.55 -1.07687 1.83077 0
M  V30 25554 H 2372.81 -0.533482 0.783646 0
M  V30 25555 H 2372.52 -2.43997 2.53295 0
M  V30 25556 H 2372.39 -3.57563 1.20119 0
M  V30 25557 H 2374.78 -2.91466 0.461681 0
M  V30 25558 H 2374.86 -1.79116 1.82623 0
M  V30 25559 H 2374.5 -3.74693 3.42881 0
M  V30 25560 H 2374.43 -4.85625 2.03658 0
M  V30 25561 H 2376.92 -3.30894 1.82531 0
M  V30 25562 H 2377.24 -6.44252 4.268 0
M  V30 25563 H 2375.58 -5.79777 3.83254 0
M  V30 25564 H 2378.77 -4.05738 2.3344 0
M  V30 25565 H 2378.94 -5.48644 3.44809 0
M  V30 25566 N 2372.35 -0.645724 -1.43764 0
M  V30 25567 C 2373.28 0.0370066 -2.33471 0
M  V30 25568 C 2374.26 0.819753 -1.49044 0
M  V30 25569 O 2375.45 0.782727 -1.77727 0
M  V30 25570 C 2372.58 1.00924 -3.32313 0
M  V30 25571 C 2371.53 0.337126 -4.2667 0
M  V30 25572 C 2370.86 1.42028 -5.15492 0
M  V30 25573 C 2372.16 -0.765797 -5.16655 0
M  V30 25574 H 2373.85 -0.71212 -2.90808 0
M  V30 25575 H 2371.4 -0.343901 -1.39833 0
M  V30 25576 H 2373.35 1.49571 -3.93962 0
M  V30 25577 H 2372.07 1.78943 -2.73216 0
M  V30 25578 H 2370.73 -0.128836 -3.66374 0
M  V30 25579 H 2370.38 2.19172 -4.52739 0
M  V30 25580 H 2370.08 0.975864 -5.7944 0
M  V30 25581 H 2371.6 1.90827 -5.80015 0
M  V30 25582 H 2373.02 -0.361802 -5.72157 0
M  V30 25583 H 2371.42 -1.13423 -5.89284 0
M  V30 25584 H 2372.49 -1.62691 -4.56793 0
M  V30 25585 N 2373.83 1.5277 -0.38717 0
M  V30 25586 C 2374.78 2.2639 0.449009 0
M  V30 25587 C 2375.75 1.27914 1.05958 0
M  V30 25588 O 2376.93 1.56739 1.08801 0
M  V30 25589 C 2374.07 3.07242 1.5715 0
M  V30 25590 C 2373.18 4.20644 0.983992 0
M  V30 25591 C 2372.32 4.88896 2.07736 0
M  V30 25592 C 2371.36 5.94294 1.46564 0
M  V30 25593 N 2370.49 6.5615 2.49822 0
M  V30 25594 H 2375.33 2.97424 -0.185257 0
M  V30 25595 H 2372.87 1.46738 -0.10319 0
M  V30 25596 H 2374.83 3.52409 2.23303 0
M  V30 25597 H 2373.46 2.38423 2.17611 0
M  V30 25598 H 2372.51 3.79808 0.212126 0
M  V30 25599 H 2373.82 4.96318 0.496942 0
M  V30 25600 H 2372.98 5.37355 2.81663 0
M  V30 25601 H 2371.72 4.12741 2.598 0
M  V30 25602 H 2370.72 5.45175 0.7116 0
M  V30 25603 H 2371.95 6.7238 0.95297 0
M  V30 25604 H 2369.89 5.82837 3.0106 0
M  V30 25605 H 2369.81 7.2743 2.05866 0
M  V30 25606 H 2371.08 7.09254 3.23386 0
M  V30 25607 N 2375.31 0.116931 1.57166 0
M  V30 25608 C 2376.72 -0.408777 1.8217 0
M  V30 25609 C 2377.07 -1.66744 1.03396 0
M  V30 25610 O 2376.19 -2.1471 0.269924 0
M  V30 25611 C 2376.79 -0.748408 3.3043 0
M  V30 25612 C 2375.35 -1.21876 3.56122 0
M  V30 25613 C 2374.49 -0.226403 2.76374 0
M  V30 25614 H 2377.45 0.342091 1.54969 0
M  V30 25615 H 2377.47 -1.60601 3.44946 0
M  V30 25616 H 2376.98 0.167853 3.87737 0
M  V30 25617 H 2375.08 -2.15199 3.04171 0
M  V30 25618 H 2375.19 -1.16551 4.64707 0
M  V30 25619 H 2373.56 -0.71302 2.44516 0
M  V30 25620 H 2374.34 0.682918 3.36439 0
M  V30 25621 N 2376.78 -1.56818 -0.156836 0
M  V30 25622 C 2377.71 -2.00553 -1.19586 0
M  V30 25623 C 2378.7 -0.883452 -1.45359 0
M  V30 25624 O 2379.88 -1.15057 -1.56447 0
M  V30 25625 C 2377.01 -2.37777 -2.53139 0
M  V30 25626 C 2375.96 -3.53079 -2.41907 0
M  V30 25627 C 2375.29 -3.76088 -3.80082 0
M  V30 25628 C 2376.59 -4.86065 -1.91149 0
M  V30 25629 H 2378.28 -2.87601 -0.832243 0
M  V30 25630 H 2375.83 -1.38365 -0.398894 0
M  V30 25631 H 2377.78 -2.66972 -3.26042 0
M  V30 25632 H 2376.51 -1.47655 -2.91317 0
M  V30 25633 H 2375.17 -3.24034 -1.71457 0
M  V30 25634 H 2374.81 -2.83233 -4.15678 0
M  V30 25635 H 2374.51 -4.53677 -3.73431 0
M  V30 25636 H 2376.04 -4.07698 -4.54549 0
M  V30 25637 H 2377.45 -5.14042 -2.53837 0
M  V30 25638 H 2375.85 -5.67392 -1.95412 0
M  V30 25639 H 2376.92 -4.77094 -0.866589 0
M  V30 25640 N 2378.26 0.425871 -1.51737 0
M  V30 25641 C 2379.51 1.17607 -1.65217 0
M  V30 25642 C 2379.84 1.90588 -0.372812 0
M  V30 25643 O 2379.12 1.84079 0.628106 0
M  V30 25644 C 2379.4 2.18393 -2.86315 0
M  V30 25645 C 2379.25 1.49419 -4.24257 0
M  V30 25646 C 2380.57 3.19251 -3.0293 0
M  V30 25647 H 2377.69 0.426195 -0.601271 0
M  V30 25648 H 2380.33 0.46385 -1.84251 0
M  V30 25649 H 2378.48 2.79132 -2.70218 0
M  V30 25650 H 2380.15 0.919283 -4.52047 0
M  V30 25651 H 2378.4 0.796357 -4.26428 0
M  V30 25652 H 2379.07 2.22876 -5.05005 0
M  V30 25653 H 2381.54 2.68575 -3.17815 0
M  V30 25654 H 2380.42 3.87053 -3.89206 0
M  V30 25655 H 2380.68 3.86019 -2.15504 0
M  V30 25656 N 2379.74 1.42077 0.682052 0
M  V30 25657 C 2380.67 1.4093 1.80753 0
M  V30 25658 C 2381.69 0.309426 1.59832 0
M  V30 25659 O 2382.87 0.572044 1.69085 0
M  V30 25660 C 2379.97 1.17871 3.17741 0
M  V30 25661 C 2379.15 2.40155 3.65574 0
M  V30 25662 C 2378.21 2.1275 4.81273 0
M  V30 25663 O 2377.23 2.85895 4.92191 0
M  V30 25664 N 2378.43 1.12612 5.69472 0
M  V30 25665 H 2381.2 2.37938 1.82224 0
M  V30 25666 H 2378.76 1.36863 0.864879 0
M  V30 25667 H 2380.75 0.974669 3.92788 0
M  V30 25668 H 2379.32 0.294123 3.11213 0
M  V30 25669 H 2378.54 2.76174 2.81286 0
M  V30 25670 H 2379.83 3.216 3.94273 0
M  V30 25671 H 2379.23 0.520998 5.63296 0
M  V30 25672 H 2377.79 0.981955 6.44361 0
M  V30 25673 N 2381.22 -0.917649 1.28129 0
M  V30 25674 C 2382.18 -2.00113 1.11747 0
M  V30 25675 C 2383.18 -1.60694 0.0583334 0
M  V30 25676 O 2384.37 -1.71531 0.303785 0
M  V30 25677 C 2381.5 -3.33532 0.704921 0
M  V30 25678 H 2382.7 -2.16076 2.0797 0
M  V30 25679 H 2380.25 -1.09979 1.1106 0
M  V30 25680 H 2380.99 -3.2327 -0.258242 0
M  V30 25681 H 2380.77 -3.63503 1.46997 0
M  V30 25682 H 2382.26 -4.13079 0.612841 0
M  V30 25683 N 2382.7 -1.10314 -1.12555 0
M  V30 25684 C 2383.61 -0.763181 -2.21839 0
M  V30 25685 C 2384.62 0.23877 -1.72354 0
M  V30 25686 O 2385.8 0.0778393 -2.0125 0
M  V30 25687 C 2382.86 -0.198693 -3.4613 0
M  V30 25688 C 2381.93 -1.25776 -4.10462 0
M  V30 25689 C 2381.16 -0.720113 -5.28819 0
M  V30 25690 O 2381.38 0.453893 -5.68591 0
M  V30 25691 O 2380.32 -1.47945 -5.83435 0
M  V30 25692 H 2384.14 -1.67536 -2.53309 0
M  V30 25693 H 2381.73 -0.878179 -1.20865 0
M  V30 25694 H 2383.61 0.112326 -4.2125 0
M  V30 25695 H 2382.28 0.686363 -3.1634 0
M  V30 25696 H 2381.19 -1.62162 -3.37127 0
M  V30 25697 H 2382.52 -2.11579 -4.44404 0
M  V30 25698 N 2384.18 1.29948 -0.891694 0
M  V30 25699 C 2385.11 2.3039 -0.379838 0
M  V30 25700 C 2386.09 1.61271 0.540891 0
M  V30 25701 O 2387.27 1.88835 0.453319 0
M  V30 25702 C 2384.4 3.44982 0.400593 0
M  V30 25703 C 2383.36 4.25845 -0.42898 0
M  V30 25704 C 2382.68 5.32555 0.478463 0
M  V30 25705 C 2383.98 4.94724 -1.67467 0
M  V30 25706 H 2385.68 2.73452 -1.21919 0
M  V30 25707 H 2383.22 1.31461 -0.587698 0
M  V30 25708 H 2385.17 4.14317 0.769361 0
M  V30 25709 H 2383.9 3.00742 1.27365 0
M  V30 25710 H 2382.56 3.58207 -0.779974 0
M  V30 25711 H 2382.21 4.84561 1.34943 0
M  V30 25712 H 2381.91 5.87555 -0.0728465 0
M  V30 25713 H 2383.43 6.04744 0.843599 0
M  V30 25714 H 2384.84 5.5654 -1.3761 0
M  V30 25715 H 2383.24 5.5962 -2.16668 0
M  V30 25716 H 2384.31 4.20468 -2.41525 0
M  V30 25717 N 2385.65 0.653339 1.4342 0
M  V30 25718 C 2386.88 0.172883 2.06678 0
M  V30 25719 C 2387.3 -1.1526 1.4865 0
M  V30 25720 O 2386.66 -1.71207 0.596487 0
M  V30 25721 C 2386.71 0.0953818 3.60474 0
M  V30 25722 O 2385.81 -0.942372 4.01489 0
M  V30 25723 H 2385.15 0.0949271 0.657179 0
M  V30 25724 H 2387.68 0.896297 1.83923 0
M  V30 25725 H 2387.69 -0.0879011 4.07905 0
M  V30 25726 H 2386.37 1.06298 4.02086 0
M  V30 25727 H 2384.95 -0.731867 3.65648 0
M  V30 25728 N 2387.13 -1.52563 0.395266 0
M  V30 25729 C 2388.38 -2.01952 -0.185282 0
M  V30 25730 C 2388.71 -1.28097 -1.45961 0
M  V30 25731 O 2387.99 -0.383183 -1.90688 0
M  V30 25732 C 2388.27 -3.57313 -0.447131 0
M  V30 25733 C 2388.12 -4.41832 0.842906 0
M  V30 25734 C 2389.44 -4.2241 -1.23522 0
M  V30 25735 H 2386.56 -0.734051 -0.0658659 0
M  V30 25736 H 2389.2 -1.82574 0.526007 0
M  V30 25737 H 2387.35 -3.73956 -1.05305 0
M  V30 25738 H 2389.02 -4.36928 1.47957 0
M  V30 25739 H 2387.27 -4.08603 1.45693 0
M  V30 25740 H 2387.94 -5.48572 0.614262 0
M  V30 25741 H 2390.41 -4.09782 -0.722373 0
M  V30 25742 H 2389.29 -5.31083 -1.38718 0
M  V30 25743 H 2389.55 -3.8044 -2.25207 0
M  V30 25744 N 2388.61 -0.125265 -1.57101 0
M  V30 25745 C 2389.54 0.819136 -2.18661 0
M  V30 25746 C 2390.52 1.27279 -1.12846 0
M  V30 25747 O 2391.71 1.33427 -1.41106 0
M  V30 25748 C 2388.84 2.0669 -2.79099 0
M  V30 25749 C 2387.79 1.75081 -3.90552 0
M  V30 25750 C 2387.12 3.0694 -4.37826 0
M  V30 25751 C 2388.42 1.01426 -5.12357 0
M  V30 25752 H 2390.11 0.30615 -2.97831 0
M  V30 25753 H 2387.66 0.145814 -1.4326 0
M  V30 25754 H 2389.61 2.73221 -3.20825 0
M  V30 25755 H 2388.33 2.60324 -1.97228 0
M  V30 25756 H 2386.99 1.10938 -3.49411 0
M  V30 25757 H 2386.64 3.58521 -3.52805 0
M  V30 25758 H 2386.34 2.86562 -5.12987 0
M  V30 25759 H 2387.86 3.74578 -4.82207 0
M  V30 25760 H 2389.28 1.58122 -5.51063 0
M  V30 25761 H 2387.67 0.911214 -5.93142 0
M  V30 25762 H 2388.74 0.00210157 -4.849 0
M  V30 25763 N 2390.09 1.56899 0.148518 0
M  V30 25764 C 2391.33 1.83537 0.862662 0
M  V30 25765 C 2391.67 0.706635 1.80888 0
M  V30 25766 O 2390.94 -0.289851 1.92328 0
M  V30 25767 C 2391.22 3.20665 1.63847 0
M  V30 25768 C 2391.08 4.44099 0.713847 0
M  V30 25769 C 2392.4 3.54996 2.60127 0
M  V30 25770 H 2389.52 0.667623 0.312167 0
M  V30 25771 H 2392.16 1.89569 0.12792 0
M  V30 25772 H 2390.31 3.15654 2.26483 0
M  V30 25773 H 2391.98 4.61195 0.0986049 0
M  V30 25774 H 2390.22 4.33794 0.0233256 0
M  V30 25775 H 2390.89 5.3665 1.29268 0
M  V30 25776 H 2393.37 3.60607 2.0761 0
M  V30 25777 H 2392.25 4.51977 3.1146 0
M  V30 25778 H 2392.51 2.80874 3.41412 0
M  V30 25779 N 2391.57 -0.417818 1.51961 0
M  V30 25780 C 2392.84 -1.17801 1.56148 0
M  V30 25781 C 2393.22 -2.08388 0.337312 0
M  V30 25782 O 2392.57 -2.18259 -0.676408 0
M  V30 25783 C 2392.78 -1.96288 2.88569 0
M  V30 25784 C 2394.13 -2.52656 3.41248 0
M  V30 25785 O 2395.15 -2.06478 2.90251 0
M  V30 25786 O 2394.01 -3.36931 4.30279 0
M  V30 25787 H 2391.11 -0.537384 0.628607 0
M  V30 25788 H 2393.65 -0.425302 1.64284 0
M  V30 25789 H 2392.42 -1.29874 3.69119 0
M  V30 25790 H 2392.05 -2.78582 2.83686 0
M  V30 25791 N 2393.04 -1.42436 -0.674508 0
M  V30 25792 C 2394.29 -1.43133 -1.43669 0
M  V30 25793 C 2394.62 -0.0476362 -1.94142 0
M  V30 25794 O 2393.9 0.928158 -1.70925 0
M  V30 25795 C 2394.18 -2.45598 -2.63351 0
M  V30 25796 C 2394.03 -3.9316 -2.18507 0
M  V30 25797 C 2395.35 -2.45049 -3.65567 0
M  V30 25798 H 2392.47 -0.521207 -0.521068 0
M  V30 25799 H 2395.11 -1.73852 -0.766521 0
M  V30 25800 H 2393.26 -2.19534 -3.20526 0
M  V30 25801 H 2394.94 -4.30205 -1.66497 0
M  V30 25802 H 2393.18 -4.07012 -1.50079 0
M  V30 25803 H 2393.85 -4.60433 -3.04475 0
M  V30 25804 H 2396.33 -2.68228 -3.18108 0
M  V30 25805 H 2395.2 -3.18721 -4.46887 0
M  V30 25806 H 2395.46 -1.47656 -4.16713 0
M  V30 25807 N 2394.52 0.910841 -1.28614 0
M  V30 25808 C 2395.45 2.0303 -1.15329 0
M  V30 25809 C 2396.43 1.70026 -0.0503222 0
M  V30 25810 O 2397.62 1.92859 -0.22783 0
M  V30 25811 C 2394.75 3.37544 -0.817403 0
M  V30 25812 C 2393.7 3.84721 -1.87547 0
M  V30 25813 C 2393.03 5.16232 -1.39314 0
M  V30 25814 C 2394.33 4.06261 -3.28251 0
M  V30 25815 H 2396.02 2.14402 -2.08979 0
M  V30 25816 H 2393.57 1.03019 -1.00614 0
M  V30 25817 H 2395.52 4.15355 -0.711224 0
M  V30 25818 H 2394.24 3.26233 0.154789 0
M  V30 25819 H 2392.9 3.09117 -1.97084 0
M  V30 25820 H 2392.55 5.01327 -0.409934 0
M  V30 25821 H 2392.25 5.48768 -2.10066 0
M  V30 25822 H 2393.78 5.96595 -1.30024 0
M  V30 25823 H 2395.19 4.74588 -3.21619 0
M  V30 25824 H 2393.59 4.50133 -3.96863 0
M  V30 25825 H 2394.66 3.10973 -3.72054 0
M  V30 25826 N 2396 1.10909 1.11969 0
M  V30 25827 C 2396.95 0.731576 2.15944 0
M  V30 25828 C 2397.93 -0.261671 1.58758 0
M  V30 25829 O 2399.13 -0.0696412 1.76863 0
M  V30 25830 C 2396.26 0.17036 3.42877 0
M  V30 25831 C 2395.34 1.19094 4.07035 0
M  V30 25832 N 2395.73 2.3833 4.4613 0
M  V30 25833 C 2394.03 1.0326 4.33882 0
M  V30 25834 C 2394.73 3.03375 4.96325 0
M  V30 25835 N 2393.71 2.30874 4.92136 0
M  V30 25836 H 2397.51 1.63916 2.43944 0
M  V30 25837 H 2395.02 0.987528 1.28925 0
M  V30 25838 H 2397.02 -0.118198 4.16732 0
M  V30 25839 H 2395.68 -0.73188 3.16344 0
M  V30 25840 H 2396.69 2.75823 4.3834 0
M  V30 25841 H 2393.37 0.186329 4.17084 0
M  V30 25842 H 2394.76 4.04828 5.3625 0
M  V30 25843 N 2397.48 -1.29474 0.898573 0
M  V30 25844 C 2398.72 -1.96262 0.534099 0
M  V30 25845 C 2399.08 -1.69552 -0.909385 0
M  V30 25846 O 2398.37 -0.997377 -1.63594 0
M  V30 25847 C 2398.57 -3.49194 0.761459 0
M  V30 25848 C 2398.4 -3.90771 2.22549 0
M  V30 25849 C 2397.17 -4.15696 2.87271 0
M  V30 25850 C 2399.36 -4.02576 3.20058 0
M  V30 25851 N 2397.35 -4.43833 4.24129 0
M  V30 25852 C 2398.72 -4.34751 4.42031 0
M  V30 25853 C 2400.77 -3.85047 3.15663 0
M  V30 25854 C 2399.47 -4.51225 5.60168 0
M  V30 25855 C 2401.5 -4.0273 4.33085 0
M  V30 25856 C 2400.86 -4.35263 5.53828 0
M  V30 25857 H 2396.96 -0.742621 0.245027 0
M  V30 25858 H 2399.55 -1.56435 1.15915 0
M  V30 25859 H 2397.72 -3.88046 0.1658 0
M  V30 25860 H 2399.45 -4.03073 0.362533 0
M  V30 25861 H 2396.2 -4.09413 2.38071 0
M  V30 25862 H 2396.63 -4.62012 4.94848 0
M  V30 25863 H 2401.27 -3.58958 2.23402 0
M  V30 25864 H 2398.99 -4.7615 6.52922 0
M  V30 25865 H 2402.57 -3.9062 4.31169 0
M  V30 25866 H 2401.45 -4.48661 6.43174 0
M  V30 25867 N 2398.96 -0.660936 -1.43071 0
M  V30 25868 C 2400.37 -0.25638 -1.84931 0
M  V30 25869 C 2400.72 1.19866 -1.55328 0
M  V30 25870 O 2399.84 1.91589 -1.0061 0
M  V30 25871 C 2400.44 -0.458534 -3.35683 0
M  V30 25872 C 2399 -0.108227 -3.76244 0
M  V30 25873 C 2398.14 -0.757688 -2.66748 0
M  V30 25874 H 2401.1 -0.864074 -1.33114 0
M  V30 25875 H 2401.12 0.293617 -3.79365 0
M  V30 25876 H 2400.63 -1.51761 -3.57198 0
M  V30 25877 H 2398.73 0.94795 -3.6034 0
M  V30 25878 H 2398.84 -0.539076 -4.76058 0
M  V30 25879 H 2397.21 -0.190229 -2.53989 0
M  V30 25880 H 2397.99 -1.81995 -2.91089 0
M  V30 25881 N 2400.43 1.52351 -0.403352 0
M  V30 25882 C 2401.34 2.30589 0.431969 0
M  V30 25883 C 2402.36 1.38077 1.05881 0
M  V30 25884 O 2403.54 1.7115 1.06158 0
M  V30 25885 C 2400.6 3.10787 1.53664 0
M  V30 25886 C 2399.66 4.19029 0.933451 0
M  V30 25887 C 2398.9 4.95393 1.98548 0
M  V30 25888 O 2399.12 4.71996 3.20274 0
M  V30 25889 O 2398.05 5.80384 1.59493 0
M  V30 25890 H 2401.88 3.03002 -0.205792 0
M  V30 25891 H 2399.46 1.48467 -0.166702 0
M  V30 25892 H 2401.35 3.60746 2.17808 0
M  V30 25893 H 2400.02 2.41173 2.15911 0
M  V30 25894 H 2398.93 3.73231 0.254888 0
M  V30 25895 H 2400.26 4.90918 0.354993 0
M  V30 25896 N 2401.91 0.133594 1.57033 0
M  V30 25897 C 2402.84 -0.807528 2.19092 0
M  V30 25898 C 2403.82 -1.26679 1.13519 0
M  V30 25899 O 2405.01 -1.32677 1.41812 0
M  V30 25900 C 2402.14 -2.05207 2.80191 0
M  V30 25901 C 2401.09 -1.73008 3.91475 0
M  V30 25902 C 2400.42 -3.04614 4.39448 0
M  V30 25903 C 2401.72 -0.987077 5.12888 0
M  V30 25904 H 2403.41 -0.290351 2.97989 0
M  V30 25905 H 2400.96 -0.138214 1.43335 0
M  V30 25906 H 2402.91 -2.71515 3.22269 0
M  V30 25907 H 2401.64 -2.59275 1.98606 0
M  V30 25908 H 2400.29 -1.09083 3.49995 0
M  V30 25909 H 2399.94 -3.56645 3.54702 0
M  V30 25910 H 2399.64 -2.83838 5.145 0
M  V30 25911 H 2401.17 -3.72016 4.84187 0
M  V30 25912 H 2402.58 -1.55198 5.51894 0
M  V30 25913 H 2400.98 -0.879746 5.93616 0
M  V30 25914 H 2402.05 0.0236139 4.84894 0
M  V30 25915 N 2403.39 -1.56975 -0.140195 0
M  V30 25916 C 2404.32 -2.0181 -1.17452 0
M  V30 25917 C 2405.3 -0.898819 -1.44413 0
M  V30 25918 O 2406.49 -1.1671 -1.55218 0
M  V30 25919 C 2403.62 -2.40449 -2.50603 0
M  V30 25920 C 2402.57 -3.55625 -2.38149 0
M  V30 25921 C 2401.9 -3.80098 -3.76072 0
M  V30 25922 C 2403.2 -4.88065 -1.85983 0
M  V30 25923 H 2404.89 -2.88467 -0.801692 0
M  V30 25924 H 2402.44 -1.3878 -0.384196 0
M  V30 25925 H 2404.39 -2.70416 -3.23193 0
M  V30 25926 H 2403.11 -1.50737 -2.89734 0
M  V30 25927 H 2401.77 -3.25834 -1.6801 0
M  V30 25928 H 2401.42 -2.87625 -4.12651 0
M  V30 25929 H 2401.12 -4.57613 -3.68598 0
M  V30 25930 H 2402.64 -4.12496 -4.50199 0
M  V30 25931 H 2404.06 -5.16706 -2.48371 0
M  V30 25932 H 2402.46 -5.69433 -1.89383 0
M  V30 25933 H 2403.53 -4.77986 -0.815938 0
M  V30 25934 N 2404.87 0.409753 -1.5218 0
M  V30 25935 C 2406.12 1.15676 -1.66208 0
M  V30 25936 C 2406.44 1.90515 -0.391707 0
M  V30 25937 O 2405.7 1.85441 0.625297 0
M  V30 25938 C 2406 2.17718 -2.83432 0
M  V30 25939 C 2405.66 1.59691 -4.21675 0
M  V30 25940 C 2404.33 1.43591 -4.59277 0
M  V30 25941 C 2406.68 1.17308 -5.07827 0
M  V30 25942 C 2404.01 0.836226 -5.8071 0
M  V30 25943 C 2406.36 0.58758 -6.29865 0
M  V30 25944 C 2405.02 0.413701 -6.66217 0
M  V30 25945 H 2404.29 0.42329 -0.6082 0
M  V30 25946 H 2406.94 0.444064 -1.8628 0
M  V30 25947 H 2405.24 2.95131 -2.57692 0
M  V30 25948 H 2406.94 2.75389 -2.91482 0
M  V30 25949 H 2403.53 1.73206 -3.92043 0
M  V30 25950 H 2407.71 1.28556 -4.79361 0
M  V30 25951 H 2402.97 0.689519 -6.07499 0
M  V30 25952 H 2407.14 0.250772 -6.95948 0
M  V30 25953 H 2404.77 -0.0530807 -7.60181 0
M  V30 25954 N 2406.35 1.42792 0.666944 0
M  V30 25955 C 2407.28 1.4968 1.79216 0
M  V30 25956 C 2408.26 0.352652 1.66404 0
M  V30 25957 O 2409.44 0.568026 1.85707 0
M  V30 25958 C 2406.57 1.40611 3.17562 0
M  V30 25959 C 2405.53 2.53133 3.45119 0
M  V30 25960 C 2404.85 2.2912 4.83123 0
M  V30 25961 C 2406.15 3.95424 3.41229 0
M  V30 25962 H 2407.85 2.43856 1.73709 0
M  V30 25963 H 2405.39 1.17369 0.834299 0
M  V30 25964 H 2407.35 1.44036 3.9602 0
M  V30 25965 H 2406.07 0.429327 3.23766 0
M  V30 25966 H 2404.73 2.49039 2.69027 0
M  V30 25967 H 2404.38 1.29717 4.85986 0
M  V30 25968 H 2404.08 3.0454 5.02523 0
M  V30 25969 H 2405.6 2.34307 5.63855 0
M  V30 25970 H 2407.01 4.0108 4.09644 0
M  V30 25971 H 2405.41 4.70758 3.72165 0
M  V30 25972 H 2406.48 4.21536 2.39657 0
M  V30 25973 N 2407.82 -0.904008 1.29095 0
M  V30 25974 C 2408.73 -2.04068 1.15731 0
M  V30 25975 C 2409.75 -1.73809 0.0815613 0
M  V30 25976 O 2410.93 -1.9926 0.292784 0
M  V30 25977 C 2407.99 -3.36606 0.830483 0
M  V30 25978 C 2407.05 -3.80411 1.98962 0
M  V30 25979 C 2406.29 -5.06625 1.67829 0
M  V30 25980 O 2406.51 -5.67265 0.597205 0
M  V30 25981 O 2405.44 -5.46379 2.52495 0
M  V30 25982 H 2409.27 -2.18264 2.11174 0
M  V30 25983 H 2406.85 -1.02698 1.08506 0
M  V30 25984 H 2408.74 -4.16158 0.662594 0
M  V30 25985 H 2407.41 -3.23563 -0.0942109 0
M  V30 25986 H 2406.32 -3.01645 2.21272 0
M  V30 25987 H 2407.65 -3.98032 2.89536 0
M  V30 25988 N 2409.3 -1.11501 -1.11379 0
M  V30 25989 C 2410.55 -0.862556 -1.82769 0
M  V30 25990 C 2410.87 0.613501 -1.85098 0
M  V30 25991 O 2410.14 1.44568 -1.32201 0
M  V30 25992 H 2408.72 -0.316112 -0.676817 0
M  V30 25993 H 2411.38 -1.40753 -1.34813 0
M  V30 25994 H 2410.48 -1.23532 -2.86612 0
M  V30 25995 N 2410.78 1.28995 -0.905426 0
M  V30 25996 C 2412.01 1.99996 -0.54921 0
M  V30 25997 C 2412.43 1.67276 0.860247 0
M  V30 25998 O 2411.79 0.90053 1.57354 0
M  V30 25999 C 2411.84 3.52602 -0.755247 0
M  V30 26000 O 2410.94 4.11964 0.18962 0
M  V30 26001 H 2410.28 0.6286 -0.21391 0
M  V30 26002 H 2412.81 1.64352 -1.21858 0
M  V30 26003 H 2412.82 4.02592 -0.662116 0
M  V30 26004 H 2411.5 3.75752 -1.78278 0
M  V30 26005 H 2410.07 3.72869 0.0484602 0
M  V30 26006 N 2412.26 0.668514 1.42719 0
M  V30 26007 C 2413.17 -0.013934 2.34596 0
M  V30 26008 C 2414.19 -0.795675 1.54742 0
M  V30 26009 O 2415.36 -0.739433 1.87335 0
M  V30 26010 C 2412.43 -0.957924 3.33204 0
M  V30 26011 C 2411.49 -0.171415 4.28958 0
M  V30 26012 C 2410.72 -1.07044 5.22855 0
M  V30 26013 O 2410.94 -2.30991 5.21535 0
M  V30 26014 O 2409.88 -0.534621 5.99521 0
M  V30 26015 H 2413.7 0.742713 2.94478 0
M  V30 26016 H 2411.29 0.428731 1.43116 0
M  V30 26017 H 2413.17 -1.50001 3.93799 0
M  V30 26018 H 2411.85 -1.69453 2.75803 0
M  V30 26019 H 2410.75 0.414624 3.71795 0
M  V30 26020 H 2412.09 0.525946 4.89382 0
M  V30 26021 N 2413.74 -1.52135 0.411426 0
M  V30 26022 C 2414.7 -2.25664 -0.401049 0
M  V30 26023 C 2415.7 -1.28119 -0.97171 0
M  V30 26024 O 2416.89 -1.52042 -0.850227 0
M  V30 26025 C 2414.02 -3.02866 -1.56477 0
M  V30 26026 H 2415.22 -2.98914 0.243003 0
M  V30 26027 H 2412.77 -1.55437 0.163995 0
M  V30 26028 H 2413.5 -2.33971 -2.24562 0
M  V30 26029 H 2413.29 -3.74485 -1.16204 0
M  V30 26030 H 2414.78 -3.58633 -2.13945 0
M  V30 26031 N 2415.22 -0.14192 -1.5696 0
M  V30 26032 C 2416.45 0.516793 -2.00032 0
M  V30 26033 C 2416.85 1.59291 -1.02094 0
M  V30 26034 O 2416.2 1.83698 -0.00912886 0
M  V30 26035 C 2416.26 1.18134 -3.39536 0
M  V30 26036 C 2415.92 0.250433 -4.56313 0
M  V30 26037 C 2416.92 -0.51993 -5.17294 0
M  V30 26038 C 2414.6 0.154819 -5.02061 0
M  V30 26039 C 2416.6 -1.37341 -6.22428 0
M  V30 26040 C 2414.29 -0.702268 -6.07051 0
M  V30 26041 C 2415.28 -1.46499 -6.67103 0
M  V30 26042 O 2414.97 -2.30781 -7.70062 0
M  V30 26043 H 2414.7 0.139482 -0.661454 0
M  V30 26044 H 2417.26 -0.231962 -2.04086 0
M  V30 26045 H 2415.49 1.97763 -3.32305 0
M  V30 26046 H 2417.18 1.73926 -3.66748 0
M  V30 26047 H 2417.94 -0.456065 -4.82851 0
M  V30 26048 H 2413.82 0.73822 -4.55051 0
M  V30 26049 H 2417.37 -1.96921 -6.69229 0
M  V30 26050 H 2413.26 -0.767443 -6.40922 0
M  V30 26051 H 2414.03 -2.23973 -7.8726 0
M  V30 26052 N 2416.69 1.57047 0.131868 0
M  V30 26053 C 2417.63 1.96022 1.18776 0
M  V30 26054 C 2418.64 0.857899 1.38362 0
M  V30 26055 O 2419.83 1.13625 1.37664 0
M  V30 26056 C 2416.93 2.23217 2.55005 0
M  V30 26057 C 2416.1 3.54518 2.56195 0
M  V30 26058 C 2415.16 3.70075 3.74073 0
M  V30 26059 O 2414.19 4.42318 3.5825 0
M  V30 26060 N 2415.39 3.07874 4.92132 0
M  V30 26061 H 2418.15 2.87205 0.85634 0
M  V30 26062 H 2415.71 1.5868 0.321282 0
M  V30 26063 H 2417.71 2.30852 3.324 0
M  V30 26064 H 2416.28 1.38225 2.80379 0
M  V30 26065 H 2415.5 3.58188 1.64607 0
M  V30 26066 H 2416.78 4.40844 2.54035 0
M  V30 26067 H 2416.18 2.49125 5.07891 0
M  V30 26068 H 2414.74 3.21049 5.67249 0
M  V30 26069 N 2418.17 -0.401677 1.52395 0
M  V30 26070 C 2419.59 -0.740839 1.41364 0
M  V30 26071 C 2419.79 -1.94567 0.524017 0
M  V30 26072 O 2418.84 -2.52499 -0.00736765 0
M  V30 26073 C 2420.16 -0.987797 2.84012 0
M  V30 26074 C 2421.7 -1.09005 2.93406 0
M  V30 26075 C 2422.18 -1.36972 4.37038 0
M  V30 26076 N 2423.67 -1.43821 4.40306 0
M  V30 26077 C 2424.41 -1.67102 5.48511 0
M  V30 26078 N 2423.9 -1.87937 6.66822 0
M  V30 26079 N 2425.69 -1.69178 5.36037 0
M  V30 26080 H 2417.85 0.391299 2.08764 0
M  V30 26081 H 2420.11 0.112815 0.941263 0
M  V30 26082 H 2419.81 -0.174773 3.51265 0
M  V30 26083 H 2419.69 -1.90594 3.25505 0
M  V30 26084 H 2422.08 -1.89366 2.26328 0
M  V30 26085 H 2422.16 -0.150105 2.55359 0
M  V30 26086 H 2421.8 -0.571264 5.04677 0
M  V30 26087 H 2421.73 -2.32231 4.72627 0
M  V30 26088 H 2424.22 -1.2948 3.55026 0
M  V30 26089 H 2424.53 -2.05172 7.45067 0
M  V30 26090 H 2422.88 -1.85187 6.69874 0
M  V30 26091 H 2426.07 -1.52443 4.42582 0
M  V30 26092 H 2426.24 -1.86982 6.20437 0
M  V30 26093 N 2419.65 -1.43144 -0.659362 0
M  V30 26094 C 2420.89 -1.45934 -1.43118 0
M  V30 26095 C 2421.25 -0.0789635 -1.91838 0
M  V30 26096 O 2422.45 0.0184437 -2.68794 0
M  V30 26097 C 2420.73 -2.46774 -2.58529 0
M  V30 26098 S 2422.28 -2.6839 -3.47149 0
M  V30 26099 H 2419.1 -0.516504 -0.488615 0
M  V30 26100 H 2421.7 -1.79864 -0.766096 0
M  V30 26101 H 2420.41 -3.45813 -2.21001 0
M  V30 26102 H 2419.94 -2.1432 -3.29894 0
M  V30 26103 H 2421.95 -1.97853 -4.55048 0
M  V30 26104 N 2421.13 0.897149 -1.29572 0
M  V30 26105 C 2422.04 2.03451 -1.16811 0
M  V30 26106 C 2423.05 1.73763 -0.0907777 0
M  V30 26107 O 2424.23 1.99102 -0.303347 0
M  V30 26108 C 2421.29 3.36161 -0.848323 0
M  V30 26109 C 2420.36 3.79351 -2.00976 0
M  V30 26110 C 2419.59 5.05728 -1.70514 0
M  V30 26111 O 2419.81 5.6694 -0.62728 0
M  V30 26112 O 2418.75 5.45032 -2.55389 0
M  V30 26113 H 2422.57 2.17141 -2.12329 0
M  V30 26114 H 2420.16 1.02121 -1.09049 0
M  V30 26115 H 2422.04 4.15801 -0.684654 0
M  V30 26116 H 2420.71 3.23608 0.0770503 0
M  V30 26117 H 2419.62 3.00467 -2.22869 0
M  V30 26118 H 2420.95 3.96491 -2.91643 0
M  V30 26119 N 2422.61 1.1209 1.10786 0
M  V30 26120 C 2423.83 0.896981 1.87 0
M  V30 26121 C 2424.26 -0.548229 1.79933 0
M  V30 26122 O 2423.61 -1.38777 1.16665 0
M  V30 26123 C 2423.66 1.3718 3.33488 0
M  V30 26124 O 2422.77 0.547903 4.08744 0
M  V30 26125 H 2422.11 0.322555 0.580391 0
M  V30 26126 H 2424.64 1.49208 1.39993 0
M  V30 26127 H 2424.65 1.36928 3.84337 0
M  V30 26128 H 2423.32 2.42414 3.37947 0
M  V30 26129 H 2421.9 0.617098 3.67758 0
M  V30 26130 N 2424.08 -1.28513 0.912254 0
M  V30 26131 C 2425.33 -1.94653 0.543557 0
M  V30 26132 C 2425.65 -1.72175 -0.91547 0
M  V30 26133 O 2424.92 -1.06061 -1.64706 0
M  V30 26134 H 2423.5 -0.720273 0.19803 0
M  V30 26135 H 2426.16 -1.56525 1.16129 0
M  V30 26136 H 2425.26 -3.0328 0.736738 0
M  V30 26137 N 2425.56 -0.676073 -1.42362 0
M  V30 26138 C 2426.81 -0.198473 -2.01123 0
M  V30 26139 C 2427.13 1.19963 -1.53733 0
M  V30 26140 O 2426.4 1.80576 -0.759549 0
M  V30 26141 H 2424.98 -0.0703852 -0.743677 0
M  V30 26142 H 2427.64 -0.872867 -1.74261 0
M  V30 26143 H 2426.74 -0.200741 -3.11454 0
M  V30 26144 N 2427.04 1.51915 -0.419488 0
M  V30 26145 C 2428.29 2.01922 0.152904 0
M  V30 26146 C 2428.62 1.3046 1.44258 0
M  V30 26147 O 2427.87 0.402627 1.91513 0
M  V30 26148 C 2428.17 3.54718 0.437004 0
M  V30 26149 C 2427.84 4.44368 -0.76471 0
M  V30 26150 C 2426.5 4.68592 -1.09431 0
M  V30 26151 C 2428.85 4.97079 -1.56722 0
M  V30 26152 C 2426.18 5.42773 -2.22742 0
M  V30 26153 C 2428.53 5.72502 -2.69117 0
M  V30 26154 C 2427.19 5.94995 -3.02552 0
M  V30 26155 H 2426.46 0.738885 0.0559514 0
M  V30 26156 H 2429.11 1.83036 -0.56303 0
M  V30 26157 H 2427.42 3.71839 1.23463 0
M  V30 26158 H 2429.11 3.9093 0.893014 0
M  V30 26159 H 2425.7 4.25699 -0.49785 0
M  V30 26160 H 2429.89 4.78264 -1.3258 0
M  V30 26161 H 2425.14 5.58407 -2.48981 0
M  V30 26162 H 2429.32 6.1234 -3.31682 0
M  V30 26163 H 2426.94 6.52257 -3.90468 0
M  V30 26164 N 2428.52 0.150242 1.56882 0
M  V30 26165 C 2429.45 -0.784245 2.19936 0
M  V30 26166 C 2430.43 -1.25467 1.14856 0
M  V30 26167 O 2431.61 -1.31165 1.43211 0
M  V30 26168 C 2428.74 -2.02224 2.82352 0
M  V30 26169 C 2427.7 -1.68846 3.93287 0
M  V30 26170 C 2427.02 -2.99936 4.42654 0
M  V30 26171 C 2428.32 -0.932623 5.13906 0
M  V30 26172 H 2430.02 -0.258729 2.9828 0
M  V30 26173 H 2427.56 -0.123004 1.43474 0
M  V30 26174 H 2429.52 -2.68082 3.25131 0
M  V30 26175 H 2428.24 -2.57154 2.01345 0
M  V30 26176 H 2426.9 -1.05365 3.51132 0
M  V30 26177 H 2426.55 -3.52863 3.58464 0
M  V30 26178 H 2426.25 -2.78365 5.17481 0
M  V30 26179 H 2427.77 -3.66859 4.88105 0
M  V30 26180 H 2429.19 -1.49336 5.53509 0
M  V30 26181 H 2427.58 -0.816735 5.94516 0
M  V30 26182 H 2428.65 0.0750421 4.84842 0
M  V30 26183 N 2430 -1.57115 -0.123538 0
M  V30 26184 C 2431.22 -1.89165 -0.850365 0
M  V30 26185 C 2431.65 -0.741718 -1.72859 0
M  V30 26186 O 2431 0.307926 -1.78666 0
M  V30 26187 C 2431.05 -3.19939 -1.66347 0
M  V30 26188 O 2430.16 -3.05525 -2.76999 0
M  V30 26189 H 2429.5 -0.620856 -0.235443 0
M  V30 26190 H 2432.03 -2.04318 -0.107299 0
M  V30 26191 H 2432.04 -3.52547 -2.05365 0
M  V30 26192 H 2430.71 -4.0323 -1.01874 0
M  V30 26193 H 2429.29 -2.84375 -2.41216 0
M  V30 26194 N 2431.47 0.393589 -1.52606 0
M  V30 26195 C 2432.42 1.48051 -1.77058 0
M  V30 26196 C 2433.39 1.5435 -0.613608 0
M  V30 26197 O 2434.58 1.70679 -0.852836 0
M  V30 26198 C 2431.72 2.85332 -1.94113 0
M  V30 26199 C 2430.83 2.8822 -3.21797 0
M  V30 26200 C 2429.96 4.16898 -3.29195 0
M  V30 26201 C 2429 4.1382 -4.5102 0
M  V30 26202 N 2428.14 5.34097 -4.55725 0
M  V30 26203 H 2432.98 1.26501 -2.69817 0
M  V30 26204 H 2430.52 0.613766 -1.33684 0
M  V30 26205 H 2432.48 3.65045 -2.01985 0
M  V30 26206 H 2431.11 3.05342 -1.04719 0
M  V30 26207 H 2430.16 2.00905 -3.23019 0
M  V30 26208 H 2431.47 2.81813 -4.11562 0
M  V30 26209 H 2430.62 5.05013 -3.36225 0
M  V30 26210 H 2429.36 4.26021 -2.37396 0
M  V30 26211 H 2428.37 3.24094 -4.4412 0
M  V30 26212 H 2429.59 4.06324 -5.4413 0
M  V30 26213 H 2427.54 5.43858 -3.66816 0
M  V30 26214 H 2427.46 5.29747 -5.39355 0
M  V30 26215 H 2428.72 6.24121 -4.67004 0
M  V30 26216 N 2432.95 1.43492 0.651762 0
M  V30 26217 C 2433.88 1.51572 1.77618 0
M  V30 26218 C 2434.86 0.370282 1.66021 0
M  V30 26219 O 2436.05 0.587691 1.85094 0
M  V30 26220 C 2433.18 1.43971 3.16053 0
M  V30 26221 C 2432.13 2.5678 3.42415 0
M  V30 26222 C 2431.46 2.34232 4.80666 0
M  V30 26223 C 2432.76 3.99021 3.37016 0
M  V30 26224 H 2434.45 2.45684 1.71113 0
M  V30 26225 H 2432 1.18247 0.821804 0
M  V30 26226 H 2433.95 1.48228 3.9447 0
M  V30 26227 H 2432.68 0.463643 3.23292 0
M  V30 26228 H 2431.33 2.51878 2.6637 0
M  V30 26229 H 2430.98 1.34865 4.84583 0
M  V30 26230 H 2430.68 3.09852 4.99265 0
M  V30 26231 H 2432.21 2.40275 5.61338 0
M  V30 26232 H 2433.62 4.05402 4.05367 0
M  V30 26233 H 2432.02 4.74679 3.67151 0
M  V30 26234 H 2433.09 4.24054 2.35173 0
M  V30 26235 N 2434.43 -0.890264 1.30046 0
M  V30 26236 C 2435.68 -1.6363 1.17932 0
M  V30 26237 C 2435.99 -1.93781 -0.266169 0
M  V30 26238 O 2437.2 -2.66691 -0.508757 0
M  V30 26239 C 2435.65 -2.94889 2.06322 0
M  V30 26240 C 2435.26 -2.72298 3.55749 0
M  V30 26241 C 2437.01 -3.72839 2.02956 0
M  V30 26242 C 2434.91 -3.99341 4.36212 0
M  V30 26243 H 2433.84 -0.613884 0.437792 0
M  V30 26244 H 2436.49 -0.986047 1.54756 0
M  V30 26245 H 2434.88 -3.61179 1.62376 0
M  V30 26246 H 2436.05 -2.14543 4.07809 0
M  V30 26247 H 2434.37 -2.07731 3.60883 0
M  V30 26248 H 2436.96 -4.67048 2.60327 0
M  V30 26249 H 2437.31 -4.03818 1.01177 0
M  V30 26250 H 2437.84 -3.13404 2.44996 0
M  V30 26251 H 2434.58 -3.73523 5.38666 0
M  V30 26252 H 2434.1 -4.56621 3.88918 0
M  V30 26253 H 2435.78 -4.67407 4.4737 0
M  V30 26254 N 2435.91 -1.12676 -1.1019 0
M  V30 26255 C 2436.84 -0.754739 -2.16417 0
M  V30 26256 C 2437.85 0.219832 -1.61309 0
M  V30 26257 O 2439.04 0.000795465 -1.785 0
M  V30 26258 C 2436.14 -0.0967576 -3.38762 0
M  V30 26259 C 2435.32 -1.10144 -4.23305 0
M  V30 26260 C 2434.37 -0.470605 -5.24091 0
M  V30 26261 O 2433.4 -1.12834 -5.57904 0
M  V30 26262 N 2434.6 0.760847 -5.75492 0
M  V30 26263 H 2437.37 -1.66879 -2.4894 0
M  V30 26264 H 2434.93 -1.01871 -1.25833 0
M  V30 26265 H 2436.92 0.337313 -4.03292 0
M  V30 26266 H 2435.49 0.720099 -3.04193 0
M  V30 26267 H 2434.71 -1.71305 -3.55033 0
M  V30 26268 H 2436 -1.78072 -4.76621 0
M  V30 26269 H 2435.4 1.31414 -5.50224 0
M  V30 26270 H 2433.95 1.1377 -6.41794 0
M  V30 26271 N 2437.39 1.28028 -0.919057 0
M  V30 26272 C 2438.34 2.24767 -0.382613 0
M  V30 26273 C 2439.32 1.52662 0.508259 0
M  V30 26274 O 2440.51 1.73563 0.347115 0
M  V30 26275 C 2437.64 3.41285 0.371372 0
M  V30 26276 C 2436.73 4.20705 -0.535522 0
M  V30 26277 N 2437.12 4.78079 -1.6515 0
M  V30 26278 C 2435.42 4.44726 -0.336902 0
M  V30 26279 C 2436.12 5.37884 -2.21484 0
M  V30 26280 N 2435.09 5.22338 -1.50546 0
M  V30 26281 H 2438.9 2.66701 -1.23482 0
M  V30 26282 H 2436.41 1.4286 -0.772324 0
M  V30 26283 H 2438.41 4.09679 0.772566 0
M  V30 26284 H 2437.07 3.00884 1.22061 0
M  V30 26285 H 2438.08 4.76286 -2.03401 0
M  V30 26286 H 2434.75 4.14819 0.472387 0
M  V30 26287 H 2436.14 5.93278 -3.1539 0
M  V30 26288 N 2438.86 0.683613 1.42002 0
M  V30 26289 C 2440.09 0.218218 2.05746 0
M  V30 26290 C 2440.51 -1.12801 1.51398 0
M  V30 26291 O 2439.86 -1.70251 0.657333 0
M  V30 26292 C 2439.92 0.154194 3.61171 0
M  V30 26293 O 2439.64 1.44723 4.13505 0
M  V30 26294 C 2441.14 -0.333635 4.42043 0
M  V30 26295 H 2438.36 0.104031 0.662886 0
M  V30 26296 H 2440.9 0.932832 1.81985 0
M  V30 26297 H 2439.06 -0.511163 3.84013 0
M  V30 26298 H 2439.47 1.32641 5.07451 0
M  V30 26299 H 2440.94 -0.327326 5.51029 0
M  V30 26300 H 2441.42 -1.37045 4.17271 0
M  V30 26301 H 2442.03 0.300297 4.24239 0
M  V30 26302 N 2440.34 -1.5169 0.427538 0
M  V30 26303 C 2441.29 -2.27501 -0.388827 0
M  V30 26304 C 2442.26 -1.30679 -1.0253 0
M  V30 26305 O 2443.45 -1.59568 -1.04607 0
M  V30 26306 C 2440.59 -3.11301 -1.48949 0
M  V30 26307 C 2439.7 -4.23105 -0.87212 0
M  V30 26308 C 2438.83 -4.94232 -1.94701 0
M  V30 26309 C 2437.87 -5.97971 -1.30755 0
M  V30 26310 N 2437.01 -6.62543 -2.32338 0
M  V30 26311 H 2441.85 -2.96828 0.264049 0
M  V30 26312 H 2439.39 -1.46412 0.142058 0
M  V30 26313 H 2441.34 -3.58205 -2.13881 0
M  V30 26314 H 2439.97 -2.44108 -2.11213 0
M  V30 26315 H 2439.03 -3.80237 -0.111352 0
M  V30 26316 H 2440.34 -4.97461 -0.365177 0
M  V30 26317 H 2439.49 -5.44634 -2.67317 0
M  V30 26318 H 2438.23 -4.19484 -2.48766 0
M  V30 26319 H 2437.24 -5.46871 -0.566806 0
M  V30 26320 H 2438.46 -6.74671 -0.774365 0
M  V30 26321 H 2436.41 -5.90614 -2.85501 0
M  V30 26322 H 2436.32 -7.32633 -1.86507 0
M  V30 26323 H 2437.59 -7.17579 -3.04468 0
M  V30 26324 N 2441.82 -0.15856 -1.568 0
M  V30 26325 C 2443.1 0.535324 -1.88132 0
M  V30 26326 C 2443.48 1.82184 -1.06641 0
M  V30 26327 O 2442.83 2.27963 -0.156573 0
M  V30 26328 C 2443.04 0.789593 -3.39951 0
M  V30 26329 C 2444.38 1.12526 -4.09418 0
M  V30 26330 O 2445.41 0.878562 -3.45195 0
M  V30 26331 O 2444.27 1.59005 -5.22857 0
M  V30 26332 H 2441.36 0.274406 -0.780148 0
M  V30 26333 H 2443.91 -0.196039 -1.68564 0
M  V30 26334 H 2442.68 -0.120422 -3.91115 0
M  V30 26335 H 2442.3 1.57473 -3.65086 0
M  V30 26336 N 2443.3 1.57178 0.115204 0
M  V30 26337 C 2444.23 2.03653 1.14227 0
M  V30 26338 C 2445.21 0.921681 1.42965 0
M  V30 26339 O 2446.4 1.19164 1.53341 0
M  V30 26340 C 2443.53 2.44405 2.46746 0
M  V30 26341 C 2442.48 3.59369 2.32461 0
M  V30 26342 C 2441.81 3.86033 3.69977 0
M  V30 26343 C 2443.11 4.90962 1.78194 0
M  V30 26344 H 2444.8 2.89706 0.755698 0
M  V30 26345 H 2442.35 1.39374 0.362068 0
M  V30 26346 H 2444.3 2.75523 3.1885 0
M  V30 26347 H 2443.02 1.55327 2.873 0
M  V30 26348 H 2441.68 3.28466 1.62805 0
M  V30 26349 H 2441.33 2.94154 4.08023 0
M  V30 26350 H 2441.03 4.63419 3.61271 0
M  V30 26351 H 2442.55 4.19606 4.4358 0
M  V30 26352 H 2443.97 5.20592 2.40119 0
M  V30 26353 H 2442.36 5.72374 1.803 0
M  V30 26354 H 2443.43 4.79223 0.739792 0
M  V30 26355 N 2444.78 -0.38549 1.52813 0
M  V30 26356 C 2445.71 -1.49286 1.72595 0
M  V30 26357 C 2446.69 -1.52137 0.573846 0
M  V30 26358 O 2447.87 -1.7049 0.80407 0
M  V30 26359 C 2445 -2.87738 1.78674 0
M  V30 26360 C 2444.05 -3.02698 3.0046 0
M  V30 26361 S 2444.88 -2.7353 4.60371 0
M  V30 26362 C 2446.03 -4.14169 4.6927 0
M  V30 26363 H 2446.27 -1.32281 2.6625 0
M  V30 26364 H 2443.8 -0.578586 1.43149 0
M  V30 26365 H 2445.76 -3.67521 1.82862 0
M  V30 26366 H 2444.42 -3.02067 0.861054 0
M  V30 26367 H 2443.61 -4.04049 3.01265 0
M  V30 26368 H 2443.21 -2.30812 2.94282 0
M  V30 26369 H 2445.51 -5.08145 4.48101 0
M  V30 26370 H 2446.45 -4.18378 5.71284 0
M  V30 26371 H 2446.86 -4.00242 3.98079 0
M  V30 26372 N 2446.26 -1.43835 -0.644143 0
M  V30 26373 C 2447.17 -1.52162 -1.78561 0
M  V30 26374 C 2448.18 -0.408099 -1.69147 0
M  V30 26375 O 2449.36 -0.663558 -1.90155 0
M  V30 26376 C 2446.42 -1.45079 -3.14886 0
M  V30 26377 C 2445.48 -2.67176 -3.36029 0
M  V30 26378 C 2444.72 -2.60421 -4.6585 0
M  V30 26379 O 2444.94 -1.65699 -5.45802 0
M  V30 26380 O 2443.87 -3.51068 -4.88912 0
M  V30 26381 H 2447.7 -2.4857 -1.7449 0
M  V30 26382 H 2445.28 -1.25937 -0.803758 0
M  V30 26383 H 2447.17 -1.43604 -3.96176 0
M  V30 26384 H 2445.84 -0.518094 -3.19527 0
M  V30 26385 H 2444.75 -2.74221 -2.54467 0
M  V30 26386 H 2446.08 -3.59448 -3.36241 0
M  V30 26387 N 2447.73 0.883355 -1.30517 0
M  V30 26388 C 2448.96 1.67365 -1.2249 0
M  V30 26389 C 2449.38 1.86938 0.208734 0
M  V30 26390 O 2448.74 1.4015 1.15012 0
M  V30 26391 C 2448.79 3.02652 -1.96047 0
M  V30 26392 O 2447.89 3.91749 -1.28866 0
M  V30 26393 H 2447.23 0.511345 -0.423582 0
M  V30 26394 H 2449.76 1.10236 -1.72364 0
M  V30 26395 H 2449.77 3.52683 -2.05131 0
M  V30 26396 H 2448.45 2.87724 -3.00312 0
M  V30 26397 H 2447.03 3.5019 -1.28147 0
M  V30 26398 N 2449.21 1.13259 1.09591 0
M  V30 26399 C 2450.12 0.82173 2.19738 0
M  V30 26400 C 2451.14 -0.19299 1.72926 0
M  V30 26401 O 2452.31 -0.0244541 2.01385 0
M  V30 26402 C 2449.38 0.290394 3.45482 0
M  V30 26403 C 2448.44 1.36614 4.06983 0
M  V30 26404 C 2447.67 0.860067 5.26724 0
M  V30 26405 O 2447.9 -0.302981 5.69595 0
M  V30 26406 O 2446.83 1.63362 5.79307 0
M  V30 26407 H 2450.66 1.74193 2.48778 0
M  V30 26408 H 2448.24 0.909915 1.18494 0
M  V30 26409 H 2450.12 -0.00059995 4.214 0
M  V30 26410 H 2448.8 -0.60225 3.18048 0
M  V30 26411 H 2447.7 1.71043 3.32709 0
M  V30 26412 H 2449.04 2.23287 4.38639 0
M  V30 26413 N 2450.69 -1.27539 0.925834 0
M  V30 26414 C 2451.6 -2.30644 0.429034 0
M  V30 26415 C 2452.62 -1.66977 -0.489358 0
M  V30 26416 O 2453.79 -1.97923 -0.372618 0
M  V30 26417 C 2450.86 -3.45294 -0.311906 0
M  V30 26418 C 2449.92 -4.24485 0.641173 0
M  V30 26419 C 2449.15 -5.33661 -0.0645016 0
M  V30 26420 O 2449.37 -5.55756 -1.28419 0
M  V30 26421 O 2448.31 -5.98838 0.606371 0
M  V30 26422 H 2452.13 -2.75171 1.28509 0
M  V30 26423 H 2449.72 -1.32454 0.691109 0
M  V30 26424 H 2451.6 -4.15031 -0.729899 0
M  V30 26425 H 2450.28 -3.02826 -1.1436 0
M  V30 26426 H 2449.18 -3.5729 1.10881 0
M  V30 26427 H 2450.52 -4.70663 1.44003 0
M  V30 26428 N 2452.17 -0.691135 -1.41637 0
M  V30 26429 C 2453.11 -0.023011 -2.30789 0
M  V30 26430 C 2454.08 0.775885 -1.46865 0
M  V30 26431 O 2455.27 0.744819 -1.75662 0
M  V30 26432 C 2452.41 0.910607 -3.32869 0
M  V30 26433 C 2451.52 0.103798 -4.31875 0
M  V30 26434 C 2450.66 1.03465 -5.21026 0
M  V30 26435 C 2449.7 0.22049 -6.11703 0
M  V30 26436 N 2448.83 1.10491 -6.93351 0
M  V30 26437 H 2453.67 -0.789029 -2.87364 0
M  V30 26438 H 2451.21 -0.400819 -1.41534 0
M  V30 26439 H 2453.17 1.4659 -3.90599 0
M  V30 26440 H 2451.8 1.64307 -2.77854 0
M  V30 26441 H 2450.85 -0.568351 -3.7613 0
M  V30 26442 H 2452.16 -0.527591 -4.96002 0
M  V30 26443 H 2451.32 1.65932 -5.83568 0
M  V30 26444 H 2450.06 1.69991 -4.57115 0
M  V30 26445 H 2449.06 -0.417283 -5.48214 0
M  V30 26446 H 2450.29 -0.440903 -6.77667 0
M  V30 26447 H 2448.23 1.75627 -6.32053 0
M  V30 26448 H 2448.15 0.528992 -7.54147 0
M  V30 26449 H 2449.42 1.71654 -7.60365 0
M  V30 26450 N 2453.65 1.51461 -0.435577 0
M  V30 26451 C 2454.58 2.30592 0.367336 0
M  V30 26452 C 2455.56 1.3593 1.0226 0
M  V30 26453 O 2456.74 1.64848 1.02658 0
M  V30 26454 C 2453.87 3.14667 1.46977 0
M  V30 26455 C 2452.83 4.17593 0.938088 0
M  V30 26456 C 2452.15 4.90177 2.13614 0
M  V30 26457 C 2453.45 5.22293 -0.0262539 0
M  V30 26458 H 2455.15 2.97963 -0.293022 0
M  V30 26459 H 2452.69 1.43295 -0.142365 0
M  V30 26460 H 2454.64 3.68804 2.03867 0
M  V30 26461 H 2453.37 2.45114 2.15839 0
M  V30 26462 H 2452.03 3.64504 0.391417 0
M  V30 26463 H 2451.68 4.17129 2.81091 0
M  V30 26464 H 2451.38 5.59775 1.78678 0
M  V30 26465 H 2452.9 5.47137 2.7106 0
M  V30 26466 H 2454.31 5.71513 0.452284 0
M  V30 26467 H 2452.71 5.99408 -0.288097 0
M  V30 26468 H 2453.78 4.75232 -0.963474 0
M  V30 26469 N 2455.12 0.166873 1.56714 0
M  V30 26470 C 2456.36 -0.481728 1.98642 0
M  V30 26471 C 2456.73 -1.60719 1.05041 0
M  V30 26472 O 2457.93 -2.31803 1.36091 0
M  V30 26473 C 2456.2 -0.956457 3.44364 0
M  V30 26474 S 2457.76 -1.60687 4.0832 0
M  V30 26475 H 2454.58 -0.155104 0.693876 0
M  V30 26476 H 2457.18 0.263285 1.93719 0
M  V30 26477 H 2455.88 -0.126863 4.10204 0
M  V30 26478 H 2455.41 -1.73562 3.53044 0
M  V30 26479 H 2457.43 -2.89486 4.03004 0
M  V30 26480 N 2456.6 -1.57237 -0.106866 0
M  V30 26481 C 2457.85 -1.84671 -0.811131 0
M  V30 26482 C 2458.16 -0.754374 -1.80468 0
M  V30 26483 O 2459.37 -0.915484 -2.556 0
M  V30 26484 C 2457.83 -3.27457 -1.49332 0
M  V30 26485 C 2457.43 -4.44732 -0.540139 0
M  V30 26486 C 2459.18 -3.64128 -2.182 0
M  V30 26487 C 2457.09 -5.78548 -1.22624 0
M  V30 26488 H 2456.02 -0.688819 -0.306667 0
M  V30 26489 H 2458.67 -1.83389 -0.0639565 0
M  V30 26490 H 2457.05 -3.23246 -2.28754 0
M  V30 26491 H 2458.22 -4.60266 0.22174 0
M  V30 26492 H 2456.54 -4.16379 0.0422192 0
M  V30 26493 H 2459.13 -4.61381 -2.70244 0
M  V30 26494 H 2459.48 -2.92164 -2.96557 0
M  V30 26495 H 2460.01 -3.70176 -1.45652 0
M  V30 26496 H 2456.75 -6.53713 -0.483717 0
M  V30 26497 H 2456.27 -5.66878 -1.95983 0
M  V30 26498 H 2457.95 -6.22714 -1.75604 0
M  V30 26499 N 2458.08 0.377381 -1.53015 0
M  V30 26500 C 2459.03 1.46165 -1.78618 0
M  V30 26501 C 2460 1.53691 -0.629944 0
M  V30 26502 O 2461.18 1.69765 -0.870891 0
M  V30 26503 C 2458.32 2.83257 -1.97128 0
M  V30 26504 C 2457.44 2.84791 -3.24836 0
M  V30 26505 C 2456.57 4.13383 -3.33598 0
M  V30 26506 C 2455.61 4.09013 -4.55384 0
M  V30 26507 N 2454.75 5.29233 -4.61364 0
M  V30 26508 H 2459.59 1.23632 -2.71144 0
M  V30 26509 H 2457.12 0.599553 -1.34327 0
M  V30 26510 H 2459.08 3.62882 -2.05846 0
M  V30 26511 H 2457.71 3.04214 -1.07951 0
M  V30 26512 H 2456.76 1.97468 -3.25132 0
M  V30 26513 H 2458.08 2.77432 -4.14527 0
M  V30 26514 H 2457.23 5.01418 -3.41562 0
M  V30 26515 H 2455.97 4.23479 -2.41902 0
M  V30 26516 H 2454.97 3.19366 -4.47533 0
M  V30 26517 H 2456.2 4.00529 -5.48409 0
M  V30 26518 H 2454.14 5.39937 -3.72564 0
M  V30 26519 H 2454.06 5.23996 -5.44944 0
M  V30 26520 H 2455.33 6.19133 -4.73597 0
M  V30 26521 N 2459.56 1.44175 0.636506 0
M  V30 26522 C 2460.8 1.46892 1.39823 0
M  V30 26523 C 2461.14 0.0990926 1.93947 0
M  V30 26524 O 2460.41 -0.882514 1.73326 0
M  V30 26525 C 2460.7 2.52494 2.56746 0
M  V30 26526 C 2460.55 3.98815 2.08007 0
M  V30 26527 C 2461.87 2.54655 3.58941 0
M  V30 26528 H 2458.99 0.534839 0.507066 0
M  V30 26529 H 2461.63 1.75823 0.720157 0
M  V30 26530 H 2459.78 2.27955 3.14593 0
M  V30 26531 H 2461.45 4.34468 1.55032 0
M  V30 26532 H 2459.69 4.10848 1.39235 0
M  V30 26533 H 2460.36 4.68344 2.92161 0
M  V30 26534 H 2462.84 2.76568 3.10885 0
M  V30 26535 H 2461.72 3.30457 4.3828 0
M  V30 26536 H 2461.98 1.58653 4.12652 0
M  V30 26537 N 2461.04 -0.876421 1.30983 0
M  V30 26538 C 2461.97 -1.99901 1.20672 0
M  V30 26539 C 2462.95 -1.69832 0.0953838 0
M  V30 26540 O 2464.13 -1.92187 0.278884 0
M  V30 26541 C 2461.26 -3.35258 0.906609 0
M  V30 26542 C 2460.22 -3.79613 1.97681 0
M  V30 26543 C 2459.54 -5.12357 1.52952 0
M  V30 26544 C 2460.84 -3.97416 3.38907 0
M  V30 26545 H 2462.54 -2.08786 2.1459 0
M  V30 26546 H 2460.08 -1.00315 1.0331 0
M  V30 26547 H 2462.04 -4.13323 0.821098 0
M  V30 26548 H 2460.76 -3.26529 -0.0682395 0
M  V30 26549 H 2459.42 -3.03783 2.05211 0
M  V30 26550 H 2459.07 -5.00064 0.542707 0
M  V30 26551 H 2458.77 -5.43005 2.24542 0
M  V30 26552 H 2460.29 -5.92938 1.45796 0
M  V30 26553 H 2461.7 -4.65894 3.34089 0
M  V30 26554 H 2460.1 -4.39453 4.08658 0
M  V30 26555 H 2461.17 -3.00999 3.80168 0
M  V30 26556 N 2462.51 -1.13839 -1.08989 0
M  V30 26557 C 2463.93 -0.877529 -1.3331 0
M  V30 26558 C 2464.13 0.484526 -1.95588 0
M  V30 26559 O 2463.19 1.23009 -2.20511 0
M  V30 26560 C 2464.5 -2.00564 -2.24042 0
M  V30 26561 C 2466.05 -2.03825 -2.37538 0
M  V30 26562 C 2466.52 -3.15911 -3.31608 0
M  V30 26563 N 2468.01 -3.15451 -3.39183 0
M  V30 26564 C 2468.75 -3.98818 -4.11985 0
M  V30 26565 N 2468.24 -4.92211 -4.87545 0
M  V30 26566 N 2470.04 -3.86901 -4.07755 0
M  V30 26567 H 2462.19 -2.01575 -0.66942 0
M  V30 26568 H 2464.45 -0.878021 -0.357466 0
M  V30 26569 H 2464.16 -2.98792 -1.85516 0
M  V30 26570 H 2464.03 -1.92364 -3.24462 0
M  V30 26571 H 2466.42 -1.06207 -2.75326 0
M  V30 26572 H 2466.5 -2.16096 -1.36881 0
M  V30 26573 H 2466.14 -4.13771 -2.94543 0
M  V30 26574 H 2466.07 -3.00878 -4.32181 0
M  V30 26575 H 2468.56 -2.47804 -2.8531 0
M  V30 26576 H 2468.88 -5.52302 -5.40539 0
M  V30 26577 H 2467.22 -4.96214 -4.86618 0
M  V30 26578 H 2470.41 -3.13263 -3.47828 0
M  V30 26579 H 2470.59 -4.521 -4.6423 0
M  V30 26580 N 2463.99 1.27046 -0.932584 0
M  V30 26581 C 2465.22 1.98248 -0.592066 0
M  V30 26582 C 2465.64 1.69527 0.831032 0
M  V30 26583 O 2464.99 0.958589 1.55298 0
M  V30 26584 C 2465.04 3.52208 -0.814341 0
M  V30 26585 O 2464.76 3.79926 -2.18146 0
M  V30 26586 C 2466.27 4.40659 -0.483198 0
M  V30 26587 H 2463.49 0.63254 -0.223907 0
M  V30 26588 H 2466.03 1.61777 -1.25094 0
M  V30 26589 H 2464.18 3.86872 -0.202198 0
M  V30 26590 H 2464.6 4.74494 -2.23508 0
M  V30 26591 H 2466.07 5.47678 -0.689394 0
M  V30 26592 H 2466.55 4.35334 0.58147 0
M  V30 26593 H 2467.16 4.11524 -1.07369 0
M  V30 26594 N 2465.47 0.698636 1.41269 0
M  V30 26595 C 2466.4 0.04967 2.33447 0
M  V30 26596 C 2467.38 -0.763871 1.51984 0
M  V30 26597 O 2468.57 -0.716225 1.8051 0
M  V30 26598 C 2465.7 -0.885208 3.35829 0
M  V30 26599 C 2464.65 -0.178537 4.27627 0
M  V30 26600 C 2463.98 -1.22798 5.20408 0
M  V30 26601 C 2465.28 0.957023 5.13457 0
M  V30 26602 H 2466.97 0.819561 2.87965 0
M  V30 26603 H 2464.52 0.395562 1.3846 0
M  V30 26604 H 2466.47 -1.34847 3.99242 0
M  V30 26605 H 2465.19 -1.6868 2.79669 0
M  V30 26606 H 2463.85 0.264724 3.65643 0
M  V30 26607 H 2463.5 -2.02218 4.60561 0
M  V30 26608 H 2463.2 -0.760136 5.82663 0
M  V30 26609 H 2464.72 -1.69169 5.86698 0
M  V30 26610 H 2466.14 0.573905 5.7042 0
M  V30 26611 H 2464.54 1.35216 5.84668 0
M  V30 26612 H 2465.61 1.79532 4.5044 0
M  V30 26613 N 2466.95 -1.51228 0.443603 0
M  V30 26614 C 2467.88 -2.25673 -0.400568 0
M  V30 26615 C 2468.89 -1.2993 -0.980922 0
M  V30 26616 O 2470.08 -1.55639 -0.873997 0
M  V30 26617 C 2467.18 -3.00184 -1.57299 0
M  V30 26618 C 2466.36 -4.23071 -1.11039 0
M  V30 26619 C 2465.41 -4.80108 -2.15366 0
M  V30 26620 O 2464.44 -5.41778 -1.74544 0
M  V30 26621 N 2465.64 -4.64689 -3.47914 0
M  V30 26622 H 2468.41 -2.98757 0.237502 0
M  V30 26623 H 2465.97 -1.59584 0.272837 0
M  V30 26624 H 2467.96 -3.35227 -2.26727 0
M  V30 26625 H 2466.53 -2.3007 -2.11628 0
M  V30 26626 H 2465.75 -3.93451 -0.24295 0
M  V30 26627 H 2467.04 -5.02804 -0.7788 0
M  V30 26628 H 2466.44 -4.15582 -3.83807 0
M  V30 26629 H 2464.99 -5.04077 -4.13219 0
M  V30 26630 N 2468.43 -0.175182 -1.56623 0
M  V30 26631 C 2469.36 0.78509 -2.15335 0
M  V30 26632 C 2470.37 1.19099 -1.10993 0
M  V30 26633 O 2471.56 1.13017 -1.38164 0
M  V30 26634 C 2468.66 2.06878 -2.6843 0
M  V30 26635 C 2467.83 1.82583 -3.9747 0
M  V30 26636 C 2466.89 2.95207 -4.35591 0
M  V30 26637 O 2465.92 2.65675 -5.03394 0
M  V30 26638 N 2467.12 4.23087 -3.97464 0
M  V30 26639 H 2469.89 0.283135 -2.9836 0
M  V30 26640 H 2467.45 0.00746971 -1.61898 0
M  V30 26641 H 2469.44 2.81323 -2.90929 0
M  V30 26642 H 2468.01 2.48252 -1.89972 0
M  V30 26643 H 2467.23 0.92022 -3.83309 0
M  V30 26644 H 2468.52 1.63724 -4.81738 0
M  V30 26645 H 2467.91 4.49939 -3.42886 0
M  V30 26646 H 2466.47 4.94223 -4.24955 0
M  V30 26647 N 2469.91 1.57292 0.0985263 0
M  V30 26648 C 2470.84 1.97059 1.15079 0
M  V30 26649 C 2471.82 0.84328 1.39024 0
M  V30 26650 O 2473 1.10327 1.5284 0
M  V30 26651 C 2470.13 2.28441 2.50065 0
M  V30 26652 C 2469.17 3.50904 2.42422 0
M  V30 26653 S 2470.01 5.02747 1.84405 0
M  V30 26654 C 2471.16 5.37304 3.21023 0
M  V30 26655 H 2471.4 2.86003 0.811764 0
M  V30 26656 H 2468.93 1.51336 0.306076 0
M  V30 26657 H 2470.89 2.47198 3.27724 0
M  V30 26658 H 2469.55 1.40074 2.81137 0
M  V30 26659 H 2468.74 3.70294 3.41904 0
M  V30 26660 H 2468.34 3.3164 1.7289 0
M  V30 26661 H 2470.63 5.33739 4.17288 0
M  V30 26662 H 2471.58 6.38357 3.06441 0
M  V30 26663 H 2471.99 4.64765 3.20396 0
M  V30 26664 N 2471.38 -0.369261 1.53213 0
M  V30 26665 C 2472.31 -1.45823 1.82368 0
M  V30 26666 C 2473.29 -1.5605 0.676935 0
M  V30 26667 O 2474.48 -1.70678 0.926431 0
M  V30 26668 C 2471.61 -2.83205 2.01028 0
M  V30 26669 C 2470.56 -2.87805 3.16785 0
M  V30 26670 C 2469.89 -4.27826 3.20732 0
M  V30 26671 C 2471.19 -2.55659 4.55451 0
M  V30 26672 H 2472.88 -1.21674 2.73562 0
M  V30 26673 H 2470.43 -0.583888 1.31631 0
M  V30 26674 H 2472.38 -3.59409 2.20007 0
M  V30 26675 H 2471.11 -3.08734 1.06541 0
M  V30 26676 H 2469.77 -2.14051 2.9762 0
M  V30 26677 H 2469.41 -4.50425 2.23889 0
M  V30 26678 H 2469.11 -4.3182 3.98504 0
M  V30 26679 H 2470.64 -5.05909 3.4189 0
M  V30 26680 H 2472.05 -3.21578 4.74616 0
M  V30 26681 H 2470.45 -2.70975 5.35437 0
M  V30 26682 H 2471.52 -1.50922 4.60815 0
M  V30 26683 N 2472.86 -1.4451 -0.628851 0
M  V30 26684 C 2473.79 -1.54379 -1.75184 0
M  V30 26685 C 2474.77 -0.396647 -1.65411 0
M  V30 26686 O 2475.96 -0.617063 -1.84136 0
M  V30 26687 C 2473.09 -1.48981 -3.13723 0
M  V30 26688 C 2472.04 -2.62195 -3.38287 0
M  V30 26689 C 2471.37 -2.41849 -4.76879 0
M  V30 26690 C 2472.67 -4.04332 -3.30625 0
M  V30 26691 H 2474.36 -2.48376 -1.67182 0
M  V30 26692 H 2471.91 -1.1954 -0.802888 0
M  V30 26693 H 2473.86 -1.54485 -3.92062 0
M  V30 26694 H 2472.58 -0.515017 -3.22514 0
M  V30 26695 H 2471.24 -2.56084 -2.62329 0
M  V30 26696 H 2470.89 -1.42557 -4.82376 0
M  V30 26697 H 2470.59 -3.17756 -4.94272 0
M  V30 26698 H 2472.12 -2.49174 -5.57445 0
M  V30 26699 H 2473.53 -4.118 -3.98866 0
M  V30 26700 H 2471.93 -4.8046 -3.59553 0
M  V30 26701 H 2473 -4.27742 -2.28397 0
M  V30 26702 N 2474.34 0.869463 -1.31446 0
M  V30 26703 C 2475.29 1.97673 -1.19139 0
M  V30 26704 C 2476.26 1.65921 -0.0770558 0
M  V30 26705 O 2477.44 1.89155 -0.250005 0
M  V30 26706 C 2474.58 3.33017 -0.905207 0
M  V30 26707 C 2473.69 3.77361 -2.10292 0
M  V30 26708 C 2472.83 5.01424 -1.75348 0
M  V30 26709 C 2471.87 5.38219 -2.91525 0
M  V30 26710 N 2471.01 6.53462 -2.56773 0
M  V30 26711 H 2475.85 2.07531 -2.13857 0
M  V30 26712 H 2473.38 1.01595 -1.06381 0
M  V30 26713 H 2475.34 4.10943 -0.719837 0
M  V30 26714 H 2473.97 3.228 0.0051395 0
M  V30 26715 H 2473.02 2.95212 -2.39904 0
M  V30 26716 H 2474.33 4.00559 -2.97244 0
M  V30 26717 H 2473.49 5.87019 -1.53277 0
M  V30 26718 H 2472.23 4.80131 -0.855886 0
M  V30 26719 H 2471.23 4.51143 -3.14245 0
M  V30 26720 H 2472.46 5.61477 -3.81995 0
M  V30 26721 H 2470.4 6.33714 -1.69537 0
M  V30 26722 H 2470.32 6.76606 -3.37255 0
M  V30 26723 H 2471.59 7.42247 -2.38096 0
M  V30 26724 N 2475.82 1.14415 1.08383 0
M  V30 26725 C 2476.76 0.831303 2.15309 0
M  V30 26726 C 2477.73 -0.211263 1.64751 0
M  V30 26727 O 2478.92 -0.0811339 1.90627 0
M  V30 26728 C 2476.06 0.315203 3.43658 0
M  V30 26729 C 2475.17 1.4181 4.08061 0
M  V30 26730 C 2474.31 0.859218 5.24205 0
M  V30 26731 C 2473.35 1.93977 5.80551 0
M  V30 26732 N 2472.48 1.39805 6.8804 0
M  V30 26733 H 2477.32 1.74713 2.41411 0
M  V30 26734 H 2474.86 0.871929 1.18473 0
M  V30 26735 H 2476.82 -0.0022355 4.172 0
M  V30 26736 H 2475.45 -0.563724 3.1784 0
M  V30 26737 H 2474.5 1.85193 3.32277 0
M  V30 26738 H 2475.81 2.23434 4.45958 0
M  V30 26739 H 2474.97 0.493697 6.04688 0
M  V30 26740 H 2473.71 0.0120177 4.87699 0
M  V30 26741 H 2472.71 2.31424 4.98721 0
M  V30 26742 H 2473.94 2.79057 6.19116 0
M  V30 26743 H 2471.88 0.573034 6.53492 0
M  V30 26744 H 2471.8 2.15067 7.24764 0
M  V30 26745 H 2473.07 1.06044 7.72253 0
M  V30 26746 N 2477.3 -1.26549 0.939309 0
M  V30 26747 C 2478.52 -1.97931 0.602571 0
M  V30 26748 C 2478.94 -1.69965 -0.82203 0
M  V30 26749 O 2478.3 -0.966811 -1.54787 0
M  V30 26750 C 2478.35 -3.51772 0.833008 0
M  V30 26751 O 2478.07 -3.78764 2.20158 0
M  V30 26752 C 2479.57 -4.40396 0.50656 0
M  V30 26753 H 2476.79 -0.631343 0.227259 0
M  V30 26754 H 2479.33 -1.61111 1.2595 0
M  V30 26755 H 2477.49 -3.86759 0.222712 0
M  V30 26756 H 2477.9 -4.73302 2.26022 0
M  V30 26757 H 2479.38 -5.47305 0.718429 0
M  V30 26758 H 2479.85 -4.35636 -0.558375 0
M  V30 26759 H 2480.46 -4.10949 1.0955 0
M  V30 26760 N 2478.77 -0.706118 -1.40896 0
M  V30 26761 C 2479.72 -0.0474879 -2.30751 0
M  V30 26762 C 2480.69 0.760264 -1.47679 0
M  V30 26763 O 2481.88 0.726146 -1.76442 0
M  V30 26764 C 2479.02 0.875251 -3.33816 0
M  V30 26765 C 2478.13 0.0579864 -4.31961 0
M  V30 26766 C 2477.26 0.979333 -5.22094 0
M  V30 26767 C 2476.3 0.155599 -6.11902 0
M  V30 26768 N 2475.44 1.03131 -6.94484 0
M  V30 26769 H 2480.28 -0.819463 -2.86511 0
M  V30 26770 H 2477.82 -0.415808 -1.41101 0
M  V30 26771 H 2479.77 1.42439 -3.92131 0
M  V30 26772 H 2478.4 1.61351 -2.79581 0
M  V30 26773 H 2477.46 -0.608213 -3.75506 0
M  V30 26774 H 2478.77 -0.580169 -4.95414 0
M  V30 26775 H 2477.92 1.59733 -5.85295 0
M  V30 26776 H 2476.66 1.65133 -4.58893 0
M  V30 26777 H 2475.67 -0.475405 -5.47741 0
M  V30 26778 H 2476.89 -0.512754 -6.77161 0
M  V30 26779 H 2474.84 1.68913 -6.3388 0
M  V30 26780 H 2474.75 0.448975 -7.54666 0
M  V30 26781 H 2476.02 1.63579 -7.62143 0
M  V30 26782 N 2480.25 1.50991 -0.451617 0
M  V30 26783 C 2481.48 2.06317 0.10814 0
M  V30 26784 C 2481.89 1.31767 1.35772 0
M  V30 26785 O 2481.23 0.374725 1.79837 0
M  V30 26786 C 2481.29 3.5626 0.481597 0
M  V30 26787 C 2480.96 4.52162 -0.663193 0
M  V30 26788 C 2481.96 4.96582 -1.53955 0
M  V30 26789 C 2479.64 4.9509 -0.847987 0
M  V30 26790 C 2481.63 5.82616 -2.58528 0
M  V30 26791 C 2479.32 5.80912 -1.89697 0
M  V30 26792 C 2480.32 6.24574 -2.76399 0
M  V30 26793 O 2480.01 7.08689 -3.79494 0
M  V30 26794 H 2479.74 0.675982 0.00497995 0
M  V30 26795 H 2482.29 1.9538 -0.633693 0
M  V30 26796 H 2480.52 3.65029 1.27634 0
M  V30 26797 H 2482.21 3.94037 0.974164 0
M  V30 26798 H 2482.98 4.64101 -1.40839 0
M  V30 26799 H 2478.86 4.60638 -0.182661 0
M  V30 26800 H 2482.4 6.16617 -3.26234 0
M  V30 26801 H 2478.3 6.12806 -2.02828 0
M  V30 26802 H 2479.07 7.26898 -3.76247 0
M  V30 26803 N 2481.73 0.183486 1.56528 0
M  V30 26804 C 2482.98 -0.457417 1.96856 0
M  V30 26805 C 2483.3 -1.62951 1.07107 0
M  V30 26806 O 2482.57 -1.954 0.139921 0
M  V30 26807 H 2481.15 -0.171979 0.726933 0
M  V30 26808 H 2483.81 0.26751 1.93055 0
M  V30 26809 H 2482.91 -0.809315 3.01424 0
M  V30 26810 N 2483.21 -1.57342 -0.0901833 0
M  V30 26811 C 2484.48 -1.77363 -0.82473 0
M  V30 26812 C 2484.86 -0.766404 -1.96696 0
M  V30 26813 O 2484.21 0.204139 -2.27586 0
M  V30 26814 C 2484.42 -3.23288 -1.31476 0
M  V30 26815 C 2485.77 -3.86607 -1.75556 0
M  V30 26816 O 2486.79 -3.27067 -1.41087 0
M  V30 26817 O 2485.65 -4.91318 -2.39309 0
M  V30 26818 H 2482.75 -0.727241 -0.393764 0
M  V30 26819 H 2485.29 -1.69549 -0.071684 0
M  V30 26820 H 2484.07 -3.88136 -0.496603 0
M  V30 26821 H 2483.69 -3.35754 -2.12967 0
M  V30 26822 N 2484.69 0.36113 -1.53407 0
M  V30 26823 C 2486.1 0.703099 -1.43278 0
M  V30 26824 C 2486.3 1.93109 -0.575418 0
M  V30 26825 O 2485.36 2.5243 -0.0595806 0
M  V30 26826 C 2486.67 0.912149 -2.86532 0
M  V30 26827 C 2488.22 1.01188 -2.96193 0
M  V30 26828 C 2488.69 1.25337 -4.40516 0
M  V30 26829 N 2490.19 1.32097 -4.43965 0
M  V30 26830 C 2490.92 1.525 -5.52749 0
M  V30 26831 N 2490.42 1.70191 -6.7157 0
M  V30 26832 N 2492.21 1.54906 -5.40334 0
M  V30 26833 H 2484.36 -0.446512 -2.07654 0
M  V30 26834 H 2486.62 -0.137731 -0.937941 0
M  V30 26835 H 2486.33 0.0815796 -3.51605 0
M  V30 26836 H 2486.2 1.81897 -3.30444 0
M  V30 26837 H 2488.59 1.83299 -2.3127 0
M  V30 26838 H 2488.67 0.0823479 -2.55667 0
M  V30 26839 H 2488.32 0.437257 -5.06014 0
M  V30 26840 H 2488.25 2.19619 -4.78618 0
M  V30 26841 H 2490.74 1.20021 -3.58334 0
M  V30 26842 H 2491.05 1.85346 -7.50244 0
M  V30 26843 H 2489.39 1.67361 -6.74548 0
M  V30 26844 H 2492.59 1.40656 -4.46468 0
M  V30 26845 H 2492.76 1.70466 -6.25176 0
M  V30 26846 N 2486.16 1.44842 0.621179 0
M  V30 26847 C 2487.41 1.47855 1.3778 0
M  V30 26848 C 2487.73 0.116258 1.94653 0
M  V30 26849 O 2487 -0.852706 1.76368 0
M  V30 26850 H 2485.58 0.544458 0.511443 0
M  V30 26851 H 2488.25 1.80696 0.730414 0
M  V30 26852 H 2487.34 2.20965 2.20411 0
M  V30 26853 N 2487.64 -0.862479 1.31905 0
M  V30 26854 C 2488.59 -1.99178 1.20128 0
M  V30 26855 C 2489.58 -1.69056 0.107854 0
M  V30 26856 O 2490.79 -1.7796 0.270254 0
M  V30 26857 H 2487.17 -0.653454 0.372159 0
M  V30 26858 H 2489.14 -2.0624 2.15656 0
M  V30 26859 C 2487.89 -3.34944 0.933158 0
M  V30 26860 H 2487.21 -3.58647 1.7667 0
M  V30 26861 H 2488.65 -4.14533 0.890964 0
M  V30 26862 C 2487.11 -3.34927 -0.364113 0
M  V30 26863 O 2487.64 -3.77306 -1.37851 0
M  V30 26864 N 2485.84 -2.88061 -0.383311 0
M  V30 26865 H 2485.39 -2.53768 0.442695 0
M  V30 26866 H 2485.35 -2.88432 -1.25118 0
M  V30 26867 N 2489.12 -1.14988 -1.07775 0
M  V30 26868 C 2490.05 -0.800474 -2.14767 0
M  V30 26869 C 2491.07 0.185566 -1.61739 0
M  V30 26870 O 2492.25 -0.0370672 -1.78462 0
M  V30 26871 C 2489.35 -0.168592 -3.3848 0
M  V30 26872 C 2488.53 -1.19098 -4.20874 0
M  V30 26873 C 2487.59 -0.581667 -5.22975 0
M  V30 26874 O 2486.61 -1.24643 -5.55385 0
M  V30 26875 N 2487.81 0.638605 -5.76977 0
M  V30 26876 H 2490.58 -1.72122 -2.45345 0
M  V30 26877 H 2488.14 -1.04518 -1.23643 0
M  V30 26878 H 2490.13 0.251693 -4.03917 0
M  V30 26879 H 2488.7 0.655414 -3.05652 0
M  V30 26880 H 2487.92 -1.78797 -3.51319 0
M  V30 26881 H 2489.21 -1.88142 -4.72737 0
M  V30 26882 H 2488.61 1.19714 -5.52888 0
M  V30 26883 H 2487.17 1.00131 -6.44063 0
M  V30 26884 N 2490.6 1.26049 -0.946007 0
M  V30 26885 C 2491.53 2.28572 -0.477212 0
M  V30 26886 C 2492.51 1.6342 0.472003 0
M  V30 26887 O 2493.69 1.90588 0.372819 0
M  V30 26888 C 2490.82 3.46371 0.253914 0
M  V30 26889 C 2489.78 4.23642 -0.60921 0
M  V30 26890 C 2489.1 5.34105 0.252158 0
M  V30 26891 C 2490.4 4.87176 -1.88299 0
M  V30 26892 H 2492.1 2.68035 -1.33407 0
M  V30 26893 H 2489.64 1.28851 -0.642926 0
M  V30 26894 H 2491.6 4.17208 0.592942 0
M  V30 26895 H 2490.32 3.05873 1.14495 0
M  V30 26896 H 2488.98 3.54576 -0.9312 0
M  V30 26897 H 2488.63 4.89848 1.14269 0
M  V30 26898 H 2488.33 5.86717 -0.321983 0
M  V30 26899 H 2489.85 6.07778 0.586347 0
M  V30 26900 H 2491.27 5.50202 -1.61091 0
M  V30 26901 H 2489.66 5.49927 -2.40209 0
M  V30 26902 H 2490.73 4.09846 -2.59141 0
M  V30 26903 N 2492.08 0.71358 1.4052 0
M  V30 26904 C 2493.49 0.386934 1.54839 0
M  V30 26905 C 2493.69 -1.10447 1.68534 0
M  V30 26906 O 2492.75 -1.8905 1.67381 0
M  V30 26907 C 2494.06 1.15123 2.7779 0
M  V30 26908 C 2495.61 1.13734 2.91605 0
M  V30 26909 C 2496.08 1.88376 4.17467 0
M  V30 26910 N 2497.58 1.85434 4.24462 0
M  V30 26911 C 2498.31 2.40013 5.20751 0
M  V30 26912 N 2497.81 3.0314 6.22959 0
M  V30 26913 N 2499.6 2.30167 5.12815 0
M  V30 26914 H 2491.75 1.68065 1.29876 0
M  V30 26915 H 2494.01 0.710258 0.627883 0
M  V30 26916 H 2493.72 2.20566 2.73941 0
M  V30 26917 H 2493.59 0.741542 3.69839 0
M  V30 26918 H 2495.98 0.0911127 2.94959 0
M  V30 26919 H 2496.06 1.58624 2.00679 0
M  V30 26920 H 2495.71 2.92987 4.14874 0
M  V30 26921 H 2495.64 1.40907 5.07398 0
M  V30 26922 H 2498.13 1.39427 3.51239 0
M  V30 26923 H 2498.44 3.42307 6.92853 0
M  V30 26924 H 2496.78 3.07223 6.23409 0
M  V30 26925 H 2499.98 1.80509 4.31896 0
M  V30 26926 H 2500.15 2.73003 5.87685 0
M  V30 26927 N 2493.55 -1.50749 0.459618 0
M  V30 26928 C 2494.5 -2.28275 -0.340484 0
M  V30 26929 C 2495.47 -1.32824 -0.997347 0
M  V30 26930 O 2496.66 -1.61751 -1.01199 0
M  V30 26931 C 2493.8 -3.1439 -1.42312 0
M  V30 26932 C 2492.91 -4.2486 -0.782177 0
M  V30 26933 C 2492.04 -4.9825 -1.84174 0
M  V30 26934 C 2491.08 -6.0061 -1.18042 0
M  V30 26935 N 2490.22 -6.67322 -2.18232 0
M  V30 26936 H 2495.06 -2.96201 0.326951 0
M  V30 26937 H 2492.6 -1.46078 0.173083 0
M  V30 26938 H 2494.56 -3.62661 -2.06234 0
M  V30 26939 H 2493.19 -2.48534 -2.05988 0
M  V30 26940 H 2492.24 -3.80388 -0.0306736 0
M  V30 26941 H 2493.55 -4.98124 -0.259576 0
M  V30 26942 H 2492.7 -5.50182 -2.55705 0
M  V30 26943 H 2491.44 -4.24667 -2.39812 0
M  V30 26944 H 2490.45 -5.4795 -0.450679 0
M  V30 26945 H 2491.67 -6.76161 -0.631083 0
M  V30 26946 H 2489.62 -5.96537 -2.72909 0
M  V30 26947 H 2489.54 -7.36424 -1.70925 0
M  V30 26948 H 2490.8 -7.23876 -2.89179 0
M  V30 26949 N 2495.03 -0.191784 -1.56429 0
M  V30 26950 C 2495.97 0.769632 -2.1483 0
M  V30 26951 C 2496.94 1.21188 -1.08407 0
M  V30 26952 O 2498.13 1.29999 -1.36501 0
M  V30 26953 C 2495.25 2.03898 -2.7045 0
M  V30 26954 C 2494.3 1.73913 -3.89431 0
M  V30 26955 S 2495.13 0.890172 -5.28049 0
M  V30 26956 C 2496.29 2.16974 -5.87089 0
M  V30 26957 H 2496.52 0.273152 -2.96043 0
M  V30 26958 H 2494.06 0.0231703 -1.54383 0
M  V30 26959 H 2496.01 2.76797 -3.03139 0
M  V30 26960 H 2494.67 2.50659 -1.89285 0
M  V30 26961 H 2493.87 2.68148 -4.26747 0
M  V30 26962 H 2493.47 1.09097 -3.57734 0
M  V30 26963 H 2495.76 3.12259 -6.01249 0
M  V30 26964 H 2496.7 1.84096 -6.8375 0
M  V30 26965 H 2497.11 2.29669 -5.15667 0
M  V30 26966 N 2496.51 1.57387 0.0818378 0
M  V30 26967 C 2497.44 2.0603 1.09881 0
M  V30 26968 C 2498.42 0.951798 1.40978 0
M  V30 26969 O 2499.61 1.2239 1.50779 0
M  V30 26970 C 2496.74 2.49584 2.41506 0
M  V30 26971 C 2495.69 3.64219 2.24786 0
M  V30 26972 C 2495.02 3.93793 3.61705 0
M  V30 26973 C 2496.32 4.94632 1.6774 0
M  V30 26974 H 2498.01 2.91244 0.694077 0
M  V30 26975 H 2495.56 1.4011 0.332424 0
M  V30 26976 H 2497.51 2.82224 3.12934 0
M  V30 26977 H 2496.23 1.61386 2.8394 0
M  V30 26978 H 2494.89 3.31846 1.55801 0
M  V30 26979 H 2494.54 3.02743 4.01691 0
M  V30 26980 H 2494.24 4.70978 3.5136 0
M  V30 26981 H 2495.76 4.28921 4.34579 0
M  V30 26982 H 2497.18 5.25568 2.29023 0
M  V30 26983 H 2495.58 5.7607 1.68118 0
M  V30 26984 H 2496.65 4.80685 0.637975 0
M  V30 26985 N 2497.99 -0.35299 1.53596 0
M  V30 26986 C 2498.92 -1.4388 1.83904 0
M  V30 26987 C 2499.9 -1.55323 0.693448 0
M  V30 26988 O 2501.08 -1.69686 0.944482 0
M  V30 26989 C 2498.21 -2.81057 2.04021 0
M  V30 26990 C 2497.17 -2.84428 3.19819 0
M  V30 26991 C 2496.49 -4.244 3.25252 0
M  V30 26992 C 2497.79 -2.50814 4.58137 0
M  V30 26993 H 2499.49 -1.18765 2.74837 0
M  V30 26994 H 2497.03 -0.569894 1.32243 0
M  V30 26995 H 2498.99 -3.57055 2.23807 0
M  V30 26996 H 2497.71 -3.07586 1.0981 0
M  V30 26997 H 2496.37 -2.10882 2.99874 0
M  V30 26998 H 2496.02 -4.48025 2.28654 0
M  V30 26999 H 2495.72 -4.27569 4.03061 0
M  V30 27000 H 2497.24 -5.02254 3.47237 0
M  V30 27001 H 2498.66 -3.16526 4.78001 0
M  V30 27002 H 2497.05 -2.65281 5.38281 0
M  V30 27003 H 2498.12 -1.46026 4.6239 0
M  V30 27004 N 2499.47 -1.45169 -0.613489 0
M  V30 27005 C 2500.4 -1.49393 -1.73823 0
M  V30 27006 C 2501.41 -0.385332 -1.58174 0
M  V30 27007 O 2502.6 -0.652065 -1.66164 0
M  V30 27008 C 2499.7 -1.32897 -3.11756 0
M  V30 27009 C 2498.87 -2.57324 -3.537 0
M  V30 27010 C 2497.93 -2.3547 -4.70575 0
M  V30 27011 O 2496.96 -3.09053 -4.77991 0
M  V30 27012 N 2498.16 -1.39654 -5.63451 0
M  V30 27013 H 2500.93 -2.46361 -1.70665 0
M  V30 27014 H 2498.49 -1.40833 -0.798595 0
M  V30 27015 H 2500.48 -1.16096 -3.8769 0
M  V30 27016 H 2499.05 -0.442272 -3.09456 0
M  V30 27017 H 2498.27 -2.8928 -2.67789 0
M  V30 27018 H 2499.56 -3.40045 -3.7848 0
M  V30 27019 H 2498.96 -0.78916 -5.60169 0
M  V30 27020 H 2497.51 -1.28827 -6.38942 0
M  V30 27021 N 2500.95 0.855472 -1.32361 0
M  V30 27022 C 2501.89 1.98538 -1.21183 0
M  V30 27023 C 2502.89 1.68997 -0.116818 0
M  V30 27024 O 2504.09 1.77814 -0.279688 0
M  V30 27025 H 2500.47 0.651471 -0.375619 0
M  V30 27026 H 2502.44 2.05094 -2.16747 0
M  V30 27027 C 2501.19 3.34444 -0.950908 0
M  V30 27028 H 2500.51 3.57705 -1.7857 0
M  V30 27029 H 2501.95 4.14055 -0.912936 0
M  V30 27030 C 2500.41 3.35115 0.346346 0
M  V30 27031 O 2500.94 3.78032 1.35848 0
M  V30 27032 N 2499.15 2.8826 0.368029 0
M  V30 27033 H 2498.69 2.53529 -0.456147 0
M  V30 27034 H 2498.65 2.89091 1.23586 0
M  V30 27035 N 2502.42 1.15558 1.07164 0
M  V30 27036 C 2503.65 0.954165 1.83246 0
M  V30 27037 C 2504.06 -0.500879 1.8245 0
M  V30 27038 O 2503.4 -1.35921 1.23577 0
M  V30 27039 C 2503.47 1.39357 3.31391 0
M  V30 27040 C 2503.13 2.86672 3.55904 0
M  V30 27041 C 2504.13 3.84726 3.49688 0
M  V30 27042 C 2501.81 3.24385 3.83509 0
M  V30 27043 C 2503.81 5.18497 3.70728 0
M  V30 27044 C 2501.49 4.58328 4.04201 0
M  V30 27045 C 2502.49 5.55193 3.97806 0
M  V30 27046 O 2502.18 6.86717 4.17942 0
M  V30 27047 H 2501.91 0.338861 0.584935 0
M  V30 27048 H 2504.47 1.53779 1.36166 0
M  V30 27049 H 2502.7 0.753357 3.79291 0
M  V30 27050 H 2504.38 1.16096 3.88943 0
M  V30 27051 H 2505.15 3.56936 3.28362 0
M  V30 27052 H 2501.03 2.49574 3.876 0
M  V30 27053 H 2504.57 5.94091 3.65652 0
M  V30 27054 H 2500.47 4.85833 4.25014 0
M  V30 27055 H 2501.24 6.93163 4.35279 0
M  V30 27056 N 2503.9 -1.25546 0.952678 0
M  V30 27057 C 2504.83 -2.28315 0.489327 0
M  V30 27058 C 2505.81 -1.63668 -0.46333 0
M  V30 27059 O 2507 -1.90783 -0.362707 0
M  V30 27060 C 2504.13 -3.465 -0.235542 0
M  V30 27061 C 2503.08 -4.23313 0.631668 0
M  V30 27062 C 2502.41 -5.34231 -0.223829 0
M  V30 27063 C 2503.71 -4.86171 1.9088 0
M  V30 27064 H 2505.4 -2.67324 1.34827 0
M  V30 27065 H 2502.95 -1.28508 0.64975 0
M  V30 27066 H 2504.9 -4.17516 -0.570809 0
M  V30 27067 H 2503.62 -3.06476 -1.12871 0
M  V30 27068 H 2502.28 -3.54077 0.949991 0
M  V30 27069 H 2501.93 -4.90448 -1.1167 0
M  V30 27070 H 2501.63 -5.86538 0.353094 0
M  V30 27071 H 2503.16 -6.08081 -0.554107 0
M  V30 27072 H 2504.57 -5.4934 1.64006 0
M  V30 27073 H 2502.97 -5.48645 2.43122 0
M  V30 27074 H 2504.04 -4.08466 2.61311 0
M  V30 27075 N 2505.38 -0.721022 -1.40139 0
M  V30 27076 C 2506.31 -0.0325072 -2.29177 0
M  V30 27077 C 2507.32 0.7181 -1.46107 0
M  V30 27078 O 2508.51 0.564578 -1.69336 0
M  V30 27079 C 2505.61 0.978235 -3.24475 0
M  V30 27080 C 2504.79 0.292039 -4.36424 0
M  V30 27081 C 2503.85 1.20892 -5.12124 0
M  V30 27082 O 2502.87 0.691667 -5.64982 0
M  V30 27083 N 2504.07 2.53969 -5.21996 0
M  V30 27084 H 2506.84 -0.797035 -2.88907 0
M  V30 27085 H 2504.4 -0.569094 -1.51568 0
M  V30 27086 H 2506.39 1.59391 -3.7199 0
M  V30 27087 H 2504.96 1.64408 -2.65874 0
M  V30 27088 H 2504.18 -0.503916 -3.90966 0
M  V30 27089 H 2505.47 -0.184061 -5.08467 0
M  V30 27090 H 2504.87 2.98484 -4.80545 0
M  V30 27091 H 2503.42 3.10667 -5.73 0
M  V30 27092 N 2506.86 1.50503 -0.467606 0
M  V30 27093 C 2507.81 2.30065 0.342441 0
M  V30 27094 C 2508.8 1.37202 0.993572 0
M  V30 27095 O 2510.01 1.5441 0.925075 0
M  V30 27096 H 2506.38 0.740806 0.12927 0
M  V30 27097 H 2508.35 2.96352 -0.349042 0
M  V30 27098 C 2507.1 3.17657 1.41385 0
M  V30 27099 H 2506.42 3.89019 0.922196 0
M  V30 27100 H 2507.86 3.76328 1.95328 0
M  V30 27101 C 2506.32 2.3502 2.41386 0
M  V30 27102 O 2506.85 2.03085 3.46582 0
M  V30 27103 N 2505.06 1.97666 2.13017 0
M  V30 27104 H 2504.61 2.23836 1.27495 0
M  V30 27105 H 2504.56 1.42678 2.80161 0
M  V30 27106 N 2508.34 0.200077 1.56325 0
M  V30 27107 C 2509.75 -0.155688 1.58839 0
M  V30 27108 C 2509.95 -1.60643 1.21639 0
M  V30 27109 O 2509.01 -2.34291 0.941478 0
M  V30 27110 C 2510.32 0.151176 3.0032 0
M  V30 27111 C 2511.87 0.0916834 3.12866 0
M  V30 27112 C 2512.34 0.371926 4.56487 0
M  V30 27113 N 2513.83 0.320722 4.62088 0
M  V30 27114 C 2514.57 0.511343 5.71115 0
M  V30 27115 N 2514.07 0.762582 6.8859 0
M  V30 27116 N 2515.86 0.445256 5.60334 0
M  V30 27117 H 2508.01 1.14671 1.78786 0
M  V30 27118 H 2510.27 0.458065 0.829988 0
M  V30 27119 H 2509.98 1.15726 3.32115 0
M  V30 27120 H 2509.85 -0.543921 3.73258 0
M  V30 27121 H 2512.24 -0.905016 2.8088 0
M  V30 27122 H 2512.32 0.819933 2.42303 0
M  V30 27123 H 2511.96 1.36596 4.89187 0
M  V30 27124 H 2511.89 -0.37727 5.25247 0
M  V30 27125 H 2514.39 0.133356 3.77665 0
M  V30 27126 H 2514.7 0.896711 7.6758 0
M  V30 27127 H 2513.04 0.799533 6.90386 0
M  V30 27128 H 2516.23 0.249361 4.67435 0
M  V30 27129 H 2516.41 0.597229 6.45242 0
M  V30 27130 N 2509.81 -1.57429 -0.0734901 0
M  V30 27131 C 2510.76 -2.03572 -1.08752 0
M  V30 27132 C 2511.73 -0.916024 -1.38558 0
M  V30 27133 O 2512.92 -1.18357 -1.49654 0
M  V30 27134 C 2510.06 -2.48315 -2.39653 0
M  V30 27135 C 2509.17 -3.73896 -2.16392 0
M  V30 27136 C 2508.3 -4.07429 -3.40845 0
M  V30 27137 C 2507.34 -5.26056 -3.12941 0
M  V30 27138 N 2506.48 -5.55235 -4.29719 0
M  V30 27139 H 2511.32 -2.89972 -0.687053 0
M  V30 27140 H 2508.86 -1.43404 -0.327684 0
M  V30 27141 H 2510.81 -2.72308 -3.16076 0
M  V30 27142 H 2509.44 -1.64896 -2.77505 0
M  V30 27143 H 2508.5 -3.57253 -1.3067 0
M  V30 27144 H 2509.81 -4.60458 -1.9178 0
M  V30 27145 H 2508.96 -4.32314 -4.25664 0
M  V30 27146 H 2507.7 -3.19431 -3.68531 0
M  V30 27147 H 2506.71 -5.00969 -2.26517 0
M  V30 27148 H 2507.93 -6.1567 -2.86579 0
M  V30 27149 H 2505.88 -4.70196 -4.5744 0
M  V30 27150 H 2505.79 -6.36213 -4.08374 0
M  V30 27151 H 2507.06 -5.8467 -5.1554 0
M  V30 27152 N 2511.29 0.344839 -1.53781 0
M  V30 27153 C 2512.52 1.10974 -1.75213 0
M  V30 27154 C 2512.94 1.81622 -0.489392 0
M  V30 27155 O 2512.3 1.72503 0.557895 0
M  V30 27156 C 2512.35 2.09988 -2.93151 0
M  V30 27157 O 2511.45 3.17482 -2.63209 0
M  V30 27158 H 2510.79 0.321011 -0.581247 0
M  V30 27159 H 2513.32 0.395626 -2.00739 0
M  V30 27160 H 2513.33 2.53232 -3.19903 0
M  V30 27161 H 2512.01 1.57963 -3.84734 0
M  V30 27162 H 2510.58 2.79065 -2.4734 0
M  V30 27163 N 2512.77 1.45492 0.605781 0
M  V30 27164 C 2514 1.53133 1.39133 0
M  V30 27165 C 2514.41 0.16454 1.88082 0
M  V30 27166 O 2513.77 -0.834219 1.62318 0
M  V30 27167 C 2513.82 2.51721 2.59459 0
M  V30 27168 O 2513.54 3.83088 2.12544 0
M  V30 27169 C 2515.04 2.69076 3.52296 0
M  V30 27170 H 2512.26 0.518557 0.42584 0
M  V30 27171 H 2514.81 1.90695 0.738617 0
M  V30 27172 H 2512.96 2.17225 3.20768 0
M  V30 27173 H 2513.38 4.36546 2.90736 0
M  V30 27174 H 2514.85 3.42031 4.33265 0
M  V30 27175 H 2515.33 1.75174 4.02754 0
M  V30 27176 H 2515.93 3.04576 2.96839 0
M  V30 27177 N 2514.25 -0.848441 1.32813 0
M  V30 27178 C 2515.47 -1.64058 1.26885 0
M  V30 27179 C 2515.9 -1.87426 -0.159097 0
M  V30 27180 O 2515.26 -1.4315 -1.11256 0
M  V30 27181 C 2515.3 -2.97347 2.04002 0
M  V30 27182 O 2514.41 -3.88195 1.39207 0
M  V30 27183 H 2513.75 -0.499935 0.436991 0
M  V30 27184 H 2516.28 -1.05627 1.75226 0
M  V30 27185 H 2516.29 -3.47121 2.14409 0
M  V30 27186 H 2514.96 -2.79661 3.07835 0
M  V30 27187 H 2513.54 -3.46669 1.37387 0
M  V30 27188 N 2515.73 -1.16125 -1.06549 0
M  V30 27189 C 2517.14 -0.905609 -1.31419 0
M  V30 27190 C 2517.34 0.44293 -1.96572 0
M  V30 27191 O 2516.4 1.18304 -2.23071 0
M  V30 27192 C 2517.71 -2.05271 -2.19737 0
M  V30 27193 C 2519.26 -2.08817 -2.33162 0
M  V30 27194 C 2519.73 -3.22874 -3.24833 0
M  V30 27195 N 2521.23 -3.22574 -3.32416 0
M  V30 27196 C 2521.96 -4.07467 -4.03433 0
M  V30 27197 N 2521.46 -5.02442 -4.76995 0
M  V30 27198 N 2523.25 -3.95463 -3.99457 0
M  V30 27199 H 2515.4 -2.0295 -0.626513 0
M  V30 27200 H 2517.66 -0.885406 -0.338762 0
M  V30 27201 H 2517.37 -3.0266 -1.79136 0
M  V30 27202 H 2517.24 -1.99203 -3.20309 0
M  V30 27203 H 2519.63 -1.12023 -2.73011 0
M  V30 27204 H 2519.71 -2.18951 -1.32266 0
M  V30 27205 H 2519.36 -4.19926 -2.857 0
M  V30 27206 H 2519.29 -3.09977 -4.25701 0
M  V30 27207 H 2521.78 -2.538 -2.79989 0
M  V30 27208 H 2522.09 -5.63643 -5.28703 0
M  V30 27209 H 2520.43 -5.06424 -4.75983 0
M  V30 27210 H 2523.63 -3.2057 -3.41105 0
M  V30 27211 H 2523.8 -4.61845 -4.54536 0
M  V30 27212 N 2517.2 1.25039 -0.959323 0
M  V30 27213 C 2518.45 1.92502 -0.615427 0
M  V30 27214 C 2518.77 1.75454 0.850938 0
M  V30 27215 O 2518.04 1.12101 1.60656 0
M  V30 27216 H 2516.62 0.712427 -0.224626 0
M  V30 27217 H 2519.29 1.52107 -1.21858 0
M  V30 27218 H 2518.38 3.00336 -0.84879 0
M  V30 27219 N 2518.68 0.728444 1.39755 0
M  V30 27220 C 2519.96 0.200113 1.94574 0
M  V30 27221 C 2520.34 -1.29681 1.66571 0
M  V30 27222 O 2519.69 -2.05923 0.990362 0
M  V30 27223 C 2519.9 0.526669 3.45003 0
M  V30 27224 C 2521.25 0.472392 4.21964 0
M  V30 27225 O 2522.27 0.463475 3.53172 0
M  V30 27226 O 2521.13 0.46117 5.44551 0
M  V30 27227 H 2518.22 0.0342996 0.826288 0
M  V30 27228 H 2520.77 0.806855 1.49291 0
M  V30 27229 H 2519.54 1.5615 3.58793 0
M  V30 27230 H 2519.16 -0.109379 3.9745 0
M  V30 27231 N 2520.16 -1.50253 0.475581 0
M  V30 27232 C 2521.09 -2.31485 -0.306069 0
M  V30 27233 C 2522.07 -1.38593 -0.986204 0
M  V30 27234 O 2523.26 -1.67512 -0.982511 0
M  V30 27235 C 2520.39 -3.18453 -1.38583 0
M  V30 27236 C 2519.34 -4.19933 -0.827041 0
M  V30 27237 C 2518.67 -4.95668 -2.00542 0
M  V30 27238 C 2519.97 -5.2204 0.164722 0
M  V30 27239 H 2521.66 -2.97081 0.371918 0
M  V30 27240 H 2519.21 -1.42867 0.180307 0
M  V30 27241 H 2521.16 -3.74079 -1.94017 0
M  V30 27242 H 2519.88 -2.50751 -2.09265 0
M  V30 27243 H 2518.54 -3.65414 -0.294637 0
M  V30 27244 H 2518.19 -4.24435 -2.69933 0
M  V30 27245 H 2517.89 -5.64315 -1.63774 0
M  V30 27246 H 2519.41 -5.54131 -2.56459 0
M  V30 27247 H 2520.83 -5.72511 -0.300598 0
M  V30 27248 H 2519.23 -5.98433 0.446918 0
M  V30 27249 H 2520.3 -4.7251 1.08913 0
M  V30 27250 N 2521.64 -0.208365 -1.56217 0
M  V30 27251 C 2523.05 0.301871 -1.84243 0
M  V30 27252 C 2523.4 1.60432 -1.12942 0
M  V30 27253 O 2522.53 2.12771 -0.394647 0
M  V30 27254 C 2523.12 0.554484 -3.34232 0
M  V30 27255 C 2521.68 1.00906 -3.62622 0
M  V30 27256 C 2520.83 0.0648843 -2.77224 0
M  V30 27257 H 2523.78 -0.43186 -1.52711 0
M  V30 27258 H 2523.8 1.40216 -3.53723 0
M  V30 27259 H 2523.31 -0.393629 -3.86099 0
M  V30 27260 H 2521.41 1.97099 -3.16201 0
M  V30 27261 H 2521.52 0.892591 -4.70712 0
M  V30 27262 H 2519.89 0.569247 -2.48257 0
M  V30 27263 H 2520.67 -0.87791 -3.31885 0
M  V30 27264 N 2523.12 1.57465 0.0651402 0
M  V30 27265 C 2524.39 1.78652 0.796408 0
M  V30 27266 C 2524.77 0.7976 1.95452 0
M  V30 27267 O 2524.12 -0.167906 2.27882 0
M  V30 27268 C 2524.33 3.25339 1.26316 0
M  V30 27269 C 2525.68 3.89351 1.69384 0
M  V30 27270 O 2526.7 3.2927 1.35866 0
M  V30 27271 O 2525.56 4.95063 2.31462 0
M  V30 27272 H 2522.66 0.733413 0.382144 0
M  V30 27273 H 2525.2 1.69641 0.0447013 0
M  V30 27274 H 2523.97 3.88877 0.434791 0
M  V30 27275 H 2523.6 3.391 2.07598 0
M  V30 27276 N 2524.59 -0.336679 1.53962 0
M  V30 27277 C 2526.01 -0.911896 1.62915 0
M  V30 27278 C 2526.36 -1.89325 0.514828 0
M  V30 27279 O 2525.48 -2.13479 -0.354357 0
M  V30 27280 C 2526.08 -1.66071 2.95307 0
M  V30 27281 C 2524.64 -2.18483 3.06499 0
M  V30 27282 C 2523.78 -1.00609 2.58405 0
M  V30 27283 H 2526.73 -0.114621 1.58286 0
M  V30 27284 H 2526.75 -2.52405 2.84731 0
M  V30 27285 H 2526.27 -0.94621 3.76389 0
M  V30 27286 H 2524.37 -2.93088 2.30065 0
M  V30 27287 H 2524.48 -2.44384 4.12084 0
M  V30 27288 H 2522.84 -1.38149 2.13979 0
M  V30 27289 H 2523.63 -0.306119 3.41932 0
M  V30 27290 N 2526.07 -1.45812 -0.598057 0
M  V30 27291 C 2527.32 -1.49596 -1.35292 0
M  V30 27292 C 2527.63 -0.145713 -1.95056 0
M  V30 27293 O 2528.84 -0.0612576 -2.71431 0
M  V30 27294 C 2527.3 -2.63523 -2.45119 0
M  V30 27295 C 2526.9 -4.04902 -1.91725 0
M  V30 27296 C 2528.65 -2.76563 -3.22045 0
M  V30 27297 C 2526.56 -5.10195 -2.99091 0
M  V30 27298 H 2525.49 -0.556687 -0.508542 0
M  V30 27299 H 2528.14 -1.71979 -0.639947 0
M  V30 27300 H 2526.52 -2.3444 -3.19145 0
M  V30 27301 H 2527.69 -4.43706 -1.24344 0
M  V30 27302 H 2526.01 -3.96395 -1.27515 0
M  V30 27303 H 2528.6 -3.52398 -4.02144 0
M  V30 27304 H 2528.95 -1.83533 -3.73659 0
M  V30 27305 H 2529.48 -3.05218 -2.55121 0
M  V30 27306 H 2526.22 -6.04966 -2.52382 0
M  V30 27307 H 2525.74 -4.75951 -3.65008 0
M  V30 27308 H 2527.42 -5.35365 -3.63309 0
M  V30 27309 N 2527.55 0.841385 -1.33261 0
M  V30 27310 C 2528.8 1.59332 -1.24329 0
M  V30 27311 C 2529.12 1.94057 0.19153 0
M  V30 27312 O 2528.39 1.60751 1.11964 0
M  V30 27313 H 2526.97 0.590755 -0.457184 0
M  V30 27314 H 2529.63 1.00569 -1.66949 0
M  V30 27315 H 2528.73 2.52439 -1.83524 0
M  V30 27316 N 2529.03 1.16688 1.05932 0
M  V30 27317 C 2530.26 0.974961 1.82489 0
M  V30 27318 C 2530.67 -0.476829 1.82679 0
M  V30 27319 O 2530.03 -1.331 1.24862 0
M  V30 27320 C 2530.08 1.49935 3.2894 0
M  V30 27321 O 2529.8 2.89428 3.28881 0
M  V30 27322 C 2531.3 1.35096 4.22213 0
M  V30 27323 H 2528.52 0.345375 0.575289 0
M  V30 27324 H 2531.07 1.54802 1.33628 0
M  V30 27325 H 2529.22 0.968489 3.75099 0
M  V30 27326 H 2529.64 3.13514 4.20487 0
M  V30 27327 H 2531.11 1.76613 5.22984 0
M  V30 27328 H 2531.59 0.297012 4.38195 0
M  V30 27329 H 2532.19 1.87162 3.81904 0
M  V30 27330 N 2530.51 -1.24529 0.96594 0
M  V30 27331 C 2531.76 -1.92173 0.625627 0
M  V30 27332 C 2532.08 -1.75903 -0.841621 0
M  V30 27333 O 2531.35 -1.12951 -1.60059 0
M  V30 27334 H 2529.93 -0.711226 0.228401 0
M  V30 27335 H 2532.59 -1.51459 1.22663 0
M  V30 27336 H 2531.68 -2.99882 0.864706 0
M  V30 27337 N 2531.99 -0.735845 -1.39367 0
M  V30 27338 C 2532.92 -0.111547 -2.33233 0
M  V30 27339 C 2533.9 0.723307 -1.53955 0
M  V30 27340 O 2535.08 0.668115 -1.82345 0
M  V30 27341 C 2532.21 0.795857 -3.38058 0
M  V30 27342 C 2531.17 0.0650968 -4.2795 0
M  V30 27343 C 2530.49 1.08957 -5.23481 0
M  V30 27344 C 2531.79 -1.09282 -5.10739 0
M  V30 27345 H 2533.49 -0.895621 -2.8569 0
M  V30 27346 H 2531.03 -0.432134 -1.37363 0
M  V30 27347 H 2532.98 1.24214 -4.02677 0
M  V30 27348 H 2531.71 1.61206 -2.84043 0
M  V30 27349 H 2530.37 -0.361575 -3.64813 0
M  V30 27350 H 2530.02 1.89936 -4.65761 0
M  V30 27351 H 2529.72 0.605386 -5.84473 0
M  V30 27352 H 2531.24 1.53554 -5.90977 0
M  V30 27353 H 2532.65 -0.72494 -5.68698 0
M  V30 27354 H 2531.05 -1.5067 -5.80877 0
M  V30 27355 H 2532.12 -1.91412 -4.45522 0
M  V30 27356 N 2533.46 1.49999 -0.483543 0
M  V30 27357 C 2534.74 1.95172 0.129302 0
M  V30 27358 C 2535.12 1.42442 1.55799 0
M  V30 27359 O 2534.47 0.630688 2.19624 0
M  V30 27360 C 2534.68 3.48949 0.0598638 0
M  V30 27361 C 2536.03 4.23907 0.242543 0
M  V30 27362 O 2537.05 3.55941 0.135871 0
M  V30 27363 O 2535.91 5.44566 0.459358 0
M  V30 27364 H 2533 0.820323 0.104873 0
M  V30 27365 H 2535.55 1.60716 -0.544835 0
M  V30 27366 H 2534.32 3.79912 -0.937146 0
M  V30 27367 H 2533.94 3.89975 0.774916 0
M  V30 27368 N 2534.94 0.216646 1.56104 0
M  V30 27369 C 2536.35 -0.292096 1.84401 0
M  V30 27370 C 2536.7 -1.59831 1.13791 0
M  V30 27371 O 2535.83 -2.12559 0.405925 0
M  V30 27372 C 2536.42 -0.536751 3.34521 0
M  V30 27373 C 2534.98 -0.989813 3.63152 0
M  V30 27374 C 2534.13 -0.0501815 2.77255 0
M  V30 27375 H 2537.08 0.439953 1.5248 0
M  V30 27376 H 2537.1 -1.38338 3.54461 0
M  V30 27377 H 2536.61 0.414099 3.85884 0
M  V30 27378 H 2534.71 -1.95419 3.17241 0
M  V30 27379 H 2534.83 -0.867615 4.71179 0
M  V30 27380 H 2533.19 -0.556073 2.48556 0
M  V30 27381 H 2533.97 0.895498 3.31415 0
M  V30 27382 N 2536.42 -1.57498 -0.0567885 0
M  V30 27383 C 2537.7 -1.79072 -0.786923 0
M  V30 27384 C 2538.08 -0.807954 -1.95026 0
M  V30 27385 O 2537.42 0.155818 -2.27968 0
M  V30 27386 C 2537.63 -3.26004 -1.24589 0
M  V30 27387 C 2538.98 -3.90244 -1.67316 0
M  V30 27388 O 2540.01 -3.29986 -1.34118 0
M  V30 27389 O 2538.87 -4.96284 -2.28833 0
M  V30 27390 H 2535.96 -0.73543 -0.378249 0
M  V30 27391 H 2538.51 -1.69662 -0.0357042 0
M  V30 27392 H 2537.28 -3.89102 -0.414162 0
M  V30 27393 H 2536.9 -3.40196 -2.05797 0
M  V30 27394 N 2537.9 0.328509 -1.54138 0
M  V30 27395 C 2539.14 1.06485 -1.73299 0
M  V30 27396 C 2539.5 1.85844 -0.49799 0
M  V30 27397 O 2538.79 1.847 0.509559 0
M  V30 27398 C 2538.99 2.02388 -2.94574 0
M  V30 27399 C 2538.81 1.32459 -4.2975 0
M  V30 27400 C 2537.58 1.06315 -4.93989 0
M  V30 27401 C 2539.78 0.743047 -5.08904 0
M  V30 27402 N 2537.76 0.331252 -6.13006 0
M  V30 27403 C 2539.14 0.142493 -6.19836 0
M  V30 27404 C 2541.19 0.645373 -4.937 0
M  V30 27405 C 2539.89 -0.546251 -7.17223 0
M  V30 27406 C 2541.92 -0.0296598 -5.91393 0
M  V30 27407 C 2541.28 -0.619179 -7.01673 0
M  V30 27408 H 2537.38 0.373527 -0.687024 0
M  V30 27409 H 2539.96 0.346626 -1.9159 0
M  V30 27410 H 2538.14 2.71488 -2.77757 0
M  V30 27411 H 2539.87 2.68972 -3.02384 0
M  V30 27412 H 2536.62 1.3542 -4.53826 0
M  V30 27413 H 2537.05 -0.0204129 -6.76997 0
M  V30 27414 H 2541.69 1.08687 -4.08591 0
M  V30 27415 H 2539.41 -0.9996 -8.01894 0
M  V30 27416 H 2542.99 -0.104807 -5.81706 0
M  V30 27417 H 2541.87 -1.13323 -7.75969 0
M  V30 27418 N 2539.38 1.46127 0.590316 0
M  V30 27419 C 2540.6 1.54835 1.37988 0
M  V30 27420 C 2541.03 0.187539 1.87163 0
M  V30 27421 O 2540.38 -0.830979 1.61135 0
M  V30 27422 C 2540.43 2.55102 2.54863 0
M  V30 27423 O 2539.54 2.08079 3.56057 0
M  V30 27424 H 2538.88 0.521311 0.411256 0
M  V30 27425 H 2541.41 1.91633 0.716785 0
M  V30 27426 H 2541.42 2.74466 3.01881 0
M  V30 27427 H 2540.09 3.53927 2.18423 0
M  V30 27428 H 2538.67 1.98669 3.15571 0
M  V30 27429 N 2540.85 -0.834306 1.33705 0
M  V30 27430 C 2541.82 -1.92601 1.24247 0
M  V30 27431 C 2542.82 -1.59998 0.160411 0
M  V30 27432 O 2544.01 -1.69252 0.412257 0
M  V30 27433 C 2541.14 -3.28374 0.915608 0
M  V30 27434 H 2542.33 -2.02412 2.2129 0
M  V30 27435 H 2539.88 -1.02694 1.17829 0
M  V30 27436 H 2540.62 -3.24258 -0.0521316 0
M  V30 27437 H 2540.4 -3.53419 1.69817 0
M  V30 27438 H 2541.89 -4.08345 0.874303 0
M  V30 27439 N 2542.33 -1.17248 -1.05312 0
M  V30 27440 C 2543.58 -0.954552 -1.77683 0
M  V30 27441 C 2543.89 0.517992 -1.88617 0
M  V30 27442 O 2545.1 0.854098 -2.57716 0
M  V30 27443 C 2543.56 -1.65869 -3.19399 0
M  V30 27444 C 2543.16 -3.16968 -3.16599 0
M  V30 27445 C 2544.91 -1.5231 -3.96235 0
M  V30 27446 C 2542.81 -3.80076 -4.53096 0
M  V30 27447 H 2541.74 -0.353508 -0.665994 0
M  V30 27448 H 2544.4 -1.40488 -1.18048 0
M  V30 27449 H 2542.78 -1.13609 -3.79353 0
M  V30 27450 H 2543.95 -3.76152 -2.66169 0
M  V30 27451 H 2542.27 -3.30525 -2.53263 0
M  V30 27452 H 2544.86 -1.96831 -4.97154 0
M  V30 27453 H 2545.21 -0.473474 -4.13599 0
M  V30 27454 H 2545.74 -2.01781 -3.42826 0
M  V30 27455 H 2542.48 -4.8503 -4.40937 0
M  V30 27456 H 2542 -3.25679 -5.0368 0
M  V30 27457 H 2543.68 -3.82211 -5.22038 0
M  V30 27458 N 2543.81 1.24015 -0.972531 0
M  V30 27459 C 2544.77 2.23421 -0.511442 0
M  V30 27460 C 2545.77 1.55882 0.394651 0
M  V30 27461 O 2546.96 1.73167 0.189438 0
M  V30 27462 C 2544.1 3.39917 0.258709 0
M  V30 27463 H 2545.29 2.65727 -1.39029 0
M  V30 27464 H 2542.84 1.36711 -0.757609 0
M  V30 27465 H 2543.58 3.03056 1.15445 0
M  V30 27466 H 2543.36 3.9014 -0.391591 0
M  V30 27467 H 2544.85 4.13689 0.570172 0
M  V30 27468 N 2545.29 0.743226 1.38974 0
M  V30 27469 C 2546.25 0.117055 2.28901 0
M  V30 27470 C 2547.25 -0.658477 1.46699 0
M  V30 27471 O 2548.44 -0.486276 1.67275 0
M  V30 27472 C 2545.57 -0.843092 3.3031 0
M  V30 27473 H 2546.77 0.909423 2.85779 0
M  V30 27474 H 2544.32 0.509573 1.4776 0
M  V30 27475 H 2545.05 -1.66152 2.78503 0
M  V30 27476 H 2544.84 -0.289525 3.9103 0
M  V30 27477 H 2546.33 -1.27753 3.97579 0
M  V30 27478 N 2546.77 -1.4974 0.491491 0
M  V30 27479 C 2547.99 -2.06831 -0.0534788 0
M  V30 27480 C 2548.41 -1.35298 -1.31681 0
M  V30 27481 O 2547.77 -0.428391 -1.77401 0
M  V30 27482 C 2547.82 -3.60074 -0.320772 0
M  V30 27483 O 2547.54 -4.28913 0.892469 0
M  V30 27484 C 2549.04 -4.3385 -0.910443 0
M  V30 27485 H 2546.26 -0.670804 0.0162027 0
M  V30 27486 H 2548.8 -1.92646 0.686124 0
M  V30 27487 H 2546.96 -3.73993 -1.01034 0
M  V30 27488 H 2547.37 -5.20463 0.649493 0
M  V30 27489 H 2548.85 -5.41977 -1.04711 0
M  V30 27490 H 2549.32 -3.95696 -1.90582 0
M  V30 27491 H 2549.93 -4.24513 -0.258638 0
M  V30 27492 N 2548.24 -0.224922 -1.55987 0
M  V30 27493 C 2549.18 0.716186 -2.17723 0
M  V30 27494 C 2550.19 1.15507 -1.14725 0
M  V30 27495 O 2551.38 1.08564 -1.4169 0
M  V30 27496 C 2548.48 1.98233 -2.74876 0
M  V30 27497 C 2547.65 1.69846 -4.03077 0
M  V30 27498 C 2546.71 2.812 -4.44762 0
M  V30 27499 O 2545.74 2.49525 -5.11591 0
M  V30 27500 N 2546.94 4.10227 -4.10723 0
M  V30 27501 H 2549.7 0.188071 -2.99109 0
M  V30 27502 H 2547.26 -0.0440408 -1.6184 0
M  V30 27503 H 2549.26 2.71925 -2.99732 0
M  V30 27504 H 2547.83 2.42083 -1.97774 0
M  V30 27505 H 2547.05 0.797807 -3.86042 0
M  V30 27506 H 2548.33 1.48315 -4.86703 0
M  V30 27507 H 2547.73 4.38803 -3.57027 0
M  V30 27508 H 2546.29 4.80453 -4.40464 0
M  V30 27509 N 2549.72 1.57526 0.0484352 0
M  V30 27510 C 2550.96 1.90215 0.748162 0
M  V30 27511 C 2551.33 0.821378 1.73544 0
M  V30 27512 O 2552.53 1.03203 2.48199 0
M  V30 27513 C 2550.8 3.281 1.41721 0
M  V30 27514 S 2552.36 3.82587 2.14877 0
M  V30 27515 H 2549.18 0.666236 0.248295 0
M  V30 27516 H 2551.78 1.955 0.00339752 0
M  V30 27517 H 2550.48 4.0464 0.685173 0
M  V30 27518 H 2550.01 3.26072 2.20093 0
M  V30 27519 H 2552.03 3.59753 3.41749 0
M  V30 27520 N 2551.2 -0.32033 1.5431 0
M  V30 27521 C 2552.62 -0.664864 1.45092 0
M  V30 27522 C 2552.82 -1.91516 0.626416 0
M  V30 27523 O 2551.87 -2.52183 0.126487 0
M  V30 27524 C 2553.19 -0.83586 2.88849 0
M  V30 27525 C 2554.73 -0.932993 2.98771 0
M  V30 27526 C 2555.21 -1.13613 4.43685 0
M  V30 27527 N 2556.7 -1.2028 4.47311 0
M  V30 27528 C 2557.43 -1.37792 5.56598 0
M  V30 27529 N 2556.93 -1.52326 6.75847 0
M  V30 27530 N 2558.72 -1.40526 5.44251 0
M  V30 27531 H 2550.87 0.50141 2.06397 0
M  V30 27532 H 2553.14 0.162551 0.93396 0
M  V30 27533 H 2552.84 0.011671 3.51698 0
M  V30 27534 H 2552.72 -1.73072 3.35151 0
M  V30 27535 H 2555.1 -1.77103 2.36048 0
M  V30 27536 H 2555.19 -0.0145333 2.55796 0
M  V30 27537 H 2554.83 -0.302943 5.06996 0
M  V30 27538 H 2554.76 -2.06852 4.84272 0
M  V30 27539 H 2557.25 -1.10478 3.6139 0
M  V30 27540 H 2557.56 -1.65389 7.54895 0
M  V30 27541 H 2555.91 -1.49418 6.78748 0
M  V30 27542 H 2559.1 -1.28769 4.5004 0
M  V30 27543 H 2559.27 -1.53831 6.29476 0
M  V30 27544 N 2552.68 -1.46438 -0.582558 0
M  V30 27545 C 2553.61 -1.59874 -1.70184 0
M  V30 27546 C 2554.59 -0.449071 -1.64065 0
M  V30 27547 O 2555.77 -0.675332 -1.82079 0
M  V30 27548 C 2552.9 -1.58886 -3.08824 0
M  V30 27549 C 2551.86 -2.72824 -3.29774 0
M  V30 27550 C 2551.18 -2.56898 -4.68943 0
M  V30 27551 C 2552.48 -4.14646 -3.17594 0
M  V30 27552 H 2554.18 -2.53569 -1.59196 0
M  V30 27553 H 2551.72 -1.22033 -0.764451 0
M  V30 27554 H 2553.68 -1.6688 -3.86948 0
M  V30 27555 H 2552.4 -0.617362 -3.20712 0
M  V30 27556 H 2551.06 -2.643 -2.54049 0
M  V30 27557 H 2550.71 -1.57831 -4.77596 0
M  V30 27558 H 2550.41 -3.3332 -4.83913 0
M  V30 27559 H 2551.93 -2.66783 -5.49235 0
M  V30 27560 H 2553.35 -4.24281 -3.85563 0
M  V30 27561 H 2551.74 -4.91656 -3.44085 0
M  V30 27562 H 2552.81 -4.34791 -2.14673 0
M  V30 27563 N 2554.16 0.827204 -1.34146 0
M  V30 27564 C 2555.43 1.56863 -1.16847 0
M  V30 27565 C 2555.81 2.09485 0.260617 0
M  V30 27566 O 2555.16 1.90532 1.26134 0
M  V30 27567 C 2555.37 2.69336 -2.21943 0
M  V30 27568 C 2556.72 3.38216 -2.56701 0
M  V30 27569 O 2557.74 2.79589 -2.207 0
M  V30 27570 O 2556.6 4.44076 -3.18526 0
M  V30 27571 H 2553.7 0.692105 -0.452681 0
M  V30 27572 H 2556.24 0.868948 -1.45765 0
M  V30 27573 H 2555.01 2.28176 -3.17886 0
M  V30 27574 H 2554.64 3.46959 -1.94178 0
M  V30 27575 N 2555.63 1.17805 1.04688 0
M  V30 27576 C 2556.58 0.899381 2.12555 0
M  V30 27577 C 2557.55 -0.158742 1.6534 0
M  V30 27578 O 2558.74 -0.0204462 1.90789 0
M  V30 27579 C 2555.88 0.424375 3.42481 0
M  V30 27580 C 2554.99 1.5472 4.03343 0
M  V30 27581 C 2554.12 1.02556 5.21206 0
M  V30 27582 C 2553.16 2.12349 5.74086 0
M  V30 27583 N 2552.3 1.61624 6.83244 0
M  V30 27584 H 2557.14 1.82305 2.35731 0
M  V30 27585 H 2554.68 0.909179 1.15639 0
M  V30 27586 H 2556.64 0.130495 4.16996 0
M  V30 27587 H 2555.27 -0.462321 3.19472 0
M  V30 27588 H 2554.32 1.9567 3.26217 0
M  V30 27589 H 2555.63 2.37509 4.38624 0
M  V30 27590 H 2554.78 0.685824 6.02811 0
M  V30 27591 H 2553.52 0.167169 4.87413 0
M  V30 27592 H 2552.53 2.47174 4.91106 0
M  V30 27593 H 2553.75 2.98612 6.09924 0
M  V30 27594 H 2551.7 0.780647 6.51339 0
M  V30 27595 H 2551.62 2.38016 7.17554 0
M  V30 27596 H 2552.88 1.30559 7.68489 0
M  V30 27597 N 2557.11 -1.23497 0.979094 0
M  V30 27598 C 2558.02 -2.28616 0.526472 0
M  V30 27599 C 2559.04 -1.68902 -0.418097 0
M  V30 27600 O 2560.21 -1.99325 -0.288337 0
M  V30 27601 C 2557.28 -3.46306 -0.165174 0
M  V30 27602 C 2556.34 -4.21384 0.820634 0
M  V30 27603 C 2555.57 -5.33454 0.1619 0
M  V30 27604 O 2555.8 -5.60702 -1.04732 0
M  V30 27605 O 2554.73 -5.95727 0.859813 0
M  V30 27606 H 2558.56 -2.69473 1.40065 0
M  V30 27607 H 2556.14 -1.29404 0.746665 0
M  V30 27608 H 2558.02 -4.17753 -0.553213 0
M  V30 27609 H 2556.7 -3.07404 -1.01413 0
M  V30 27610 H 2555.61 -3.52266 1.25935 0
M  V30 27611 H 2556.94 -4.64132 1.63836 0
M  V30 27612 N 2558.59 -0.750586 -1.38578 0
M  V30 27613 C 2559.84 -0.304805 -1.99788 0
M  V30 27614 C 2560.16 1.11646 -1.59876 0
M  V30 27615 O 2559.43 1.76296 -0.854201 0
M  V30 27616 H 2558.01 -0.109707 -0.7389 0
M  V30 27617 H 2560.67 -0.964012 -1.6939 0
M  V30 27618 H 2559.77 -0.365553 -3.09952 0
M  V30 27619 N 2560.07 1.49477 -0.499425 0
M  V30 27620 C 2561.03 2.27618 0.268798 0
M  V30 27621 C 2562.03 1.33566 0.89536 0
M  V30 27622 O 2563.22 1.5674 0.760136 0
M  V30 27623 C 2560.35 3.11474 1.38553 0
M  V30 27624 H 2561.55 2.96989 -0.416865 0
M  V30 27625 H 2559.1 1.54217 -0.254341 0
M  V30 27626 H 2559.84 2.46665 2.10539 0
M  V30 27627 H 2559.62 3.80623 0.94173 0
M  V30 27628 H 2561.11 3.70496 1.92671 0
M  V30 27629 N 2561.55 0.233191 1.55865 0
M  V30 27630 C 2562.78 -0.39987 2.02999 0
M  V30 27631 C 2563.19 -1.52522 1.11277 0
M  V30 27632 O 2562.55 -1.82074 0.12456 0
M  V30 27633 C 2562.6 -0.920578 3.49582 0
M  V30 27634 O 2562.32 0.159911 4.37808 0
M  V30 27635 C 2563.82 -1.62571 4.12414 0
M  V30 27636 H 2561.04 -0.0966164 0.664008 0
M  V30 27637 H 2563.58 0.353048 2.01429 0
M  V30 27638 H 2561.74 -1.62372 3.5173 0
M  V30 27639 H 2562.15 -0.233278 5.23981 0
M  V30 27640 H 2563.63 -1.94192 5.16714 0
M  V30 27641 H 2564.1 -2.54293 3.58095 0
M  V30 27642 H 2564.71 -0.96748 4.1415 0
M  V30 27643 N 2563.03 -1.57549 -0.0400806 0
M  V30 27644 C 2563.97 -2.05833 -1.0441 0
M  V30 27645 C 2564.94 -0.945208 -1.36583 0
M  V30 27646 O 2566.13 -1.21505 -1.4711 0
M  V30 27647 C 2563.27 -2.53343 -2.34332 0
M  V30 27648 C 2562.38 -3.78402 -2.08413 0
M  V30 27649 C 2561.52 -4.14567 -3.32126 0
M  V30 27650 C 2560.55 -5.32575 -3.01712 0
M  V30 27651 N 2559.69 -5.64225 -4.17845 0
M  V30 27652 H 2564.53 -2.91364 -0.625391 0
M  V30 27653 H 2562.07 -1.44067 -0.297192 0
M  V30 27654 H 2564.03 -2.78951 -3.10229 0
M  V30 27655 H 2562.66 -1.70745 -2.73945 0
M  V30 27656 H 2561.71 -3.59944 -1.23062 0
M  V30 27657 H 2563.02 -4.64423 -1.8197 0
M  V30 27658 H 2562.17 -4.41245 -4.16398 0
M  V30 27659 H 2560.91 -3.27176 -3.61673 0
M  V30 27660 H 2559.92 -5.05661 -2.1584 0
M  V30 27661 H 2561.14 -6.2161 -2.73455 0
M  V30 27662 H 2559.09 -4.79794 -4.47364 0
M  V30 27663 H 2559.01 -6.44732 -3.94787 0
M  V30 27664 H 2560.27 -5.95473 -5.03022 0
M  V30 27665 N 2564.5 0.312142 -1.54478 0
M  V30 27666 C 2565.43 1.38954 -1.87654 0
M  V30 27667 C 2566.41 1.5343 -0.734385 0
M  V30 27668 O 2567.6 1.67122 -0.989139 0
M  V30 27669 C 2564.73 2.75549 -2.11401 0
M  V30 27670 C 2563.68 2.75849 -3.27248 0
M  V30 27671 C 2563.01 4.15628 -3.36389 0
M  V30 27672 C 2564.31 2.38579 -4.64626 0
M  V30 27673 H 2566 1.11437 -2.77889 0
M  V30 27674 H 2563.55 0.534631 -1.33707 0
M  V30 27675 H 2565.5 3.50996 -2.33195 0
M  V30 27676 H 2564.23 3.04567 -1.17926 0
M  V30 27677 H 2562.89 2.02857 -3.0536 0
M  V30 27678 H 2562.53 4.41805 -2.40452 0
M  V30 27679 H 2562.23 4.16732 -4.14256 0
M  V30 27680 H 2563.76 4.92871 -3.60431 0
M  V30 27681 H 2565.17 3.03741 -4.86225 0
M  V30 27682 H 2563.57 2.50916 -5.45125 0
M  V30 27683 H 2564.64 1.33715 -4.66099 0
M  V30 27684 N 2565.98 1.46745 0.574784 0
M  V30 27685 C 2567.23 1.5269 1.33467 0
M  V30 27686 C 2567.56 0.181263 1.93352 0
M  V30 27687 O 2566.84 -0.808206 1.76913 0
M  V30 27688 C 2567.12 2.63156 2.45806 0
M  V30 27689 C 2566.97 4.07278 1.90904 0
M  V30 27690 C 2568.29 2.6965 3.47817 0
M  V30 27691 H 2565.41 0.555864 0.483925 0
M  V30 27692 H 2568.05 1.78719 0.644937 0
M  V30 27693 H 2566.2 2.41093 3.04641 0
M  V30 27694 H 2567.87 4.40653 1.36465 0
M  V30 27695 H 2566.12 4.16384 1.21684 0
M  V30 27696 H 2566.79 4.80314 2.72034 0
M  V30 27697 H 2569.26 2.89505 2.98875 0
M  V30 27698 H 2568.14 3.48749 4.23869 0
M  V30 27699 H 2568.4 1.76012 4.05552 0
M  V30 27700 N 2567.46 -0.820078 1.34583 0
M  V30 27701 C 2568.7 -1.58996 1.28451 0
M  V30 27702 C 2569.06 -1.91468 -0.142849 0
M  V30 27703 O 2570.26 -2.66787 -0.328375 0
M  V30 27704 C 2568.54 -2.85269 2.15305 0
M  V30 27705 S 2570.09 -3.7579 2.26555 0
M  V30 27706 H 2566.91 -0.544932 0.456695 0
M  V30 27707 H 2569.51 -0.968457 1.69827 0
M  V30 27708 H 2568.22 -2.59416 3.18012 0
M  V30 27709 H 2567.75 -3.52414 1.74836 0
M  V30 27710 H 2569.76 -4.74833 1.44042 0
M  V30 27711 N 2568.94 -1.18359 -1.04062 0
M  V30 27712 C 2570.21 -0.888612 -1.7425 0
M  V30 27713 C 2570.59 0.608524 -2.02139 0
M  V30 27714 O 2569.94 1.56324 -1.66658 0
M  V30 27715 C 2570.15 -1.73589 -3.02767 0
M  V30 27716 C 2571.5 -1.96292 -3.76503 0
M  V30 27717 O 2572.52 -1.70642 -3.12665 0
M  V30 27718 O 2571.38 -2.39472 -4.91239 0
M  V30 27719 H 2568.48 -0.330095 -0.758265 0
M  V30 27720 H 2571.02 -1.29112 -1.10128 0
M  V30 27721 H 2569.8 -2.75078 -2.78294 0
M  V30 27722 H 2569.42 -1.33189 -3.74628 0
M  V30 27723 N 2570.42 1.22976 -0.98563 0
M  V30 27724 C 2571.35 2.26938 -0.549689 0
M  V30 27725 C 2572.33 1.64839 0.419774 0
M  V30 27726 O 2573.51 1.91677 0.311997 0
M  V30 27727 C 2570.64 3.47003 0.143591 0
M  V30 27728 C 2569.6 4.2149 -0.74368 0
M  V30 27729 C 2568.92 5.34637 0.0821087 0
M  V30 27730 C 2570.22 4.80939 -2.03703 0
M  V30 27731 H 2571.92 2.63655 -1.41867 0
M  V30 27732 H 2569.46 1.2674 -0.683594 0
M  V30 27733 H 2571.41 4.18883 0.459911 0
M  V30 27734 H 2570.14 3.09361 1.04706 0
M  V30 27735 H 2568.8 3.51434 -1.04353 0
M  V30 27736 H 2568.45 4.93236 0.986272 0
M  V30 27737 H 2568.15 5.85396 -0.50848 0
M  V30 27738 H 2569.67 6.09336 0.39269 0
M  V30 27739 H 2571.08 5.44799 -1.78513 0
M  V30 27740 H 2569.48 5.42007 -2.57583 0
M  V30 27741 H 2570.55 4.01394 -2.72049 0
M  V30 27742 N 2571.89 0.757924 1.38178 0
M  V30 27743 C 2573.14 0.312779 1.9926 0
M  V30 27744 C 2573.46 -1.11298 1.60848 0
M  V30 27745 O 2574.66 -1.65882 2.14932 0
M  V30 27746 C 2573.12 0.508272 3.56293 0
M  V30 27747 C 2572.73 1.9434 4.03653 0
M  V30 27748 C 2574.47 0.126057 4.24313 0
M  V30 27749 C 2572.38 2.08722 5.53343 0
M  V30 27750 H 2571.31 0.113198 0.745454 0
M  V30 27751 H 2573.96 0.935084 1.57887 0
M  V30 27752 H 2572.34 -0.183284 3.95576 0
M  V30 27753 H 2573.51 2.66878 3.7565 0
M  V30 27754 H 2571.83 2.28093 3.48372 0
M  V30 27755 H 2574.43 0.212219 5.34279 0
M  V30 27756 H 2574.77 -0.921893 4.05964 0
M  V30 27757 H 2575.3 0.769631 3.90284 0
M  V30 27758 H 2572.04 3.11787 5.76601 0
M  V30 27759 H 2571.56 1.4065 5.83076 0
M  V30 27760 H 2573.24 1.87923 6.19107 0
M  V30 27761 N 2573.37 -1.4921 0.507345 0
M  V30 27762 C 2574.6 -2.06876 -0.0315386 0
M  V30 27763 C 2575.02 -1.36687 -1.30239 0
M  V30 27764 O 2574.37 -0.447183 -1.76937 0
M  V30 27765 C 2574.42 -3.60394 -0.282563 0
M  V30 27766 O 2574.14 -4.27943 0.937911 0
M  V30 27767 C 2575.65 -4.34791 -0.864376 0
M  V30 27768 H 2572.87 -0.670595 0.0233166 0
M  V30 27769 H 2575.41 -1.91908 0.706518 0
M  V30 27770 H 2573.56 -3.75044 -0.970614 0
M  V30 27771 H 2573.98 -5.19745 0.704658 0
M  V30 27772 H 2575.45 -5.43058 -0.989568 0
M  V30 27773 H 2575.93 -3.97695 -1.86375 0
M  V30 27774 H 2576.54 -4.24763 -0.213598 0
M  V30 27775 N 2574.85 -0.241454 -1.55739 0
M  V30 27776 C 2576.08 0.392076 -2.0366 0
M  V30 27777 C 2576.5 1.51142 -1.11971 0
M  V30 27778 O 2575.86 1.80956 -0.111626 0
M  V30 27779 C 2575.91 0.882309 -3.49639 0
M  V30 27780 O 2575.01 1.99229 -3.61084 0
M  V30 27781 H 2574.35 0.0862006 -0.658381 0
M  V30 27782 H 2576.88 -0.365917 -2.01301 0
M  V30 27783 H 2576.89 1.18695 -3.90353 0
M  V30 27784 H 2575.57 0.063163 -4.15852 0
M  V30 27785 H 2574.14 1.69276 -3.32265 0
M  V30 27786 N 2576.33 1.57568 0.0317248 0
M  V30 27787 C 2577.56 1.93408 0.734915 0
M  V30 27788 C 2577.97 0.84099 1.69035 0
M  V30 27789 O 2577.33 -0.182804 1.81582 0
M  V30 27790 C 2577.38 3.29172 1.49426 0
M  V30 27791 O 2577.1 4.34281 0.577184 0
M  V30 27792 C 2578.6 3.79277 2.29485 0
M  V30 27793 H 2575.82 0.638372 0.206694 0
M  V30 27794 H 2578.37 2.04498 -0.0099564 0
M  V30 27795 H 2576.52 3.19487 2.19104 0
M  V30 27796 H 2576.93 5.12632 1.10943 0
M  V30 27797 H 2578.41 4.7679 2.78164 0
M  V30 27798 H 2578.89 3.10334 3.10789 0
M  V30 27799 H 2579.49 3.92036 1.64887 0
M  V30 27800 N 2577.81 -0.303946 1.54641 0
M  V30 27801 C 2578.75 -1.37476 1.85389 0
M  V30 27802 C 2579.72 -1.5051 0.702554 0
M  V30 27803 O 2580.91 -1.65416 0.950896 0
M  V30 27804 C 2578.05 -2.73529 2.10418 0
M  V30 27805 C 2577.16 -2.68968 3.38054 0
M  V30 27806 C 2576.3 -3.96996 3.52941 0
M  V30 27807 C 2575.34 -3.86821 4.7438 0
M  V30 27808 N 2574.47 -5.06618 4.86089 0
M  V30 27809 H 2579.31 -1.10555 2.76734 0
M  V30 27810 H 2576.85 -0.534781 1.37035 0
M  V30 27811 H 2578.81 -3.52648 2.22925 0
M  V30 27812 H 2577.44 -2.98717 1.22343 0
M  V30 27813 H 2576.49 -1.81731 3.34183 0
M  V30 27814 H 2577.8 -2.57338 4.27292 0
M  V30 27815 H 2576.96 -4.84551 3.65097 0
M  V30 27816 H 2575.69 -4.11456 2.61831 0
M  V30 27817 H 2574.7 -2.9765 4.62261 0
M  V30 27818 H 2575.92 -3.73908 5.66895 0
M  V30 27819 H 2573.87 -5.21547 3.97901 0
M  V30 27820 H 2573.79 -4.974 5.69324 0
M  V30 27821 H 2575.06 -5.95832 5.02598 0
M  V30 27822 N 2579.28 -1.47047 -0.566994 0
M  V30 27823 C 2580.23 -1.59191 -1.69591 0
M  V30 27824 C 2581.23 -0.459638 -1.63045 0
M  V30 27825 O 2582.43 -0.637087 -1.68348 0
M  V30 27826 H 2578.81 -0.500801 -0.560984 0
M  V30 27827 H 2580.78 -2.54078 -1.56483 0
M  V30 27828 C 2579.53 -1.61417 -3.07961 0
M  V30 27829 H 2578.85 -2.47887 -3.13675 0
M  V30 27830 H 2580.29 -1.73965 -3.86668 0
M  V30 27831 C 2578.75 -0.345649 -3.35122 0
M  V30 27832 O 2579.28 0.557451 -3.97813 0
M  V30 27833 N 2577.49 -0.228691 -2.89699 0
M  V30 27834 H 2577.03 -0.964521 -2.38861 0
M  V30 27835 H 2576.99 0.619138 -3.08243 0
M  V30 27836 N 2580.76 0.812929 -1.35016 0
M  V30 27837 C 2581.67 1.9561 -1.29514 0
M  V30 27838 C 2582.69 1.72834 -0.201101 0
M  V30 27839 O 2583.86 1.9677 -0.429355 0
M  V30 27840 C 2580.93 3.30086 -1.06039 0
M  V30 27841 C 2579.99 3.65802 -2.24695 0
M  V30 27842 C 2579.22 4.9386 -2.02331 0
M  V30 27843 O 2579.45 5.61803 -0.986563 0
M  V30 27844 O 2578.38 5.27687 -2.89534 0
M  V30 27845 H 2582.21 2.03198 -2.25709 0
M  V30 27846 H 2579.79 0.94979 -1.15323 0
M  V30 27847 H 2581.67 4.10605 -0.947702 0
M  V30 27848 H 2580.35 3.23443 -0.128909 0
M  V30 27849 H 2579.26 2.85685 -2.41526 0
M  V30 27850 H 2580.59 3.77141 -3.16268 0
M  V30 27851 N 2582.24 1.18909 1.03433 0
M  V30 27852 C 2583.19 0.921874 2.11589 0
M  V30 27853 C 2584.16 -0.141197 1.65499 0
M  V30 27854 O 2585.34 -0.000209291 1.908 0
M  V30 27855 C 2582.48 0.460676 3.42011 0
M  V30 27856 C 2581.6 1.58989 4.01679 0
M  V30 27857 C 2580.73 1.08078 5.20089 0
M  V30 27858 C 2579.77 2.18426 5.71801 0
M  V30 27859 N 2578.91 1.68861 6.81491 0
M  V30 27860 H 2583.75 1.84795 2.33784 0
M  V30 27861 H 2581.28 0.921393 1.14668 0
M  V30 27862 H 2583.24 0.174715 4.16834 0
M  V30 27863 H 2581.87 -0.42841 3.19945 0
M  V30 27864 H 2580.92 1.99119 3.24123 0
M  V30 27865 H 2582.24 2.42148 4.3608 0
M  V30 27866 H 2581.39 0.749721 6.0205 0
M  V30 27867 H 2580.13 0.218857 4.87209 0
M  V30 27868 H 2579.13 2.52368 4.88457 0
M  V30 27869 H 2580.36 3.05064 6.06723 0
M  V30 27870 H 2578.3 0.849686 6.50474 0
M  V30 27871 H 2578.22 2.45613 7.1499 0
M  V30 27872 H 2579.49 1.38702 7.67061 0
M  V30 27873 N 2583.72 -1.22452 0.992137 0
M  V30 27874 C 2584.97 -1.90491 0.663026 0
M  V30 27875 C 2585.28 -1.78114 -0.808376 0
M  V30 27876 O 2586.49 -2.41063 -1.24904 0
M  V30 27877 C 2584.94 -3.41523 1.13536 0
M  V30 27878 C 2584.55 -3.62538 2.63193 0
M  V30 27879 C 2586.29 -4.15267 0.880538 0
M  V30 27880 C 2584.2 -5.07265 3.04033 0
M  V30 27881 H 2583.13 -0.713329 0.24429 0
M  V30 27882 H 2585.78 -1.38686 1.2016 0
M  V30 27883 H 2584.16 -3.92506 0.524919 0
M  V30 27884 H 2585.34 -3.2205 3.29576 0
M  V30 27885 H 2583.65 -3.02124 2.86549 0
M  V30 27886 H 2586.25 -5.21935 1.16138 0
M  V30 27887 H 2586.59 -4.15896 -0.183335 0
M  V30 27888 H 2587.13 -3.70309 1.45313 0
M  V30 27889 H 2583.87 -5.11775 4.09593 0
M  V30 27890 H 2583.39 -5.48658 2.42353 0
M  V30 27891 H 2585.06 -5.75684 2.95292 0
M  V30 27892 N 2585.2 -0.765242 -1.37774 0
M  V30 27893 C 2586.44 -0.326623 -1.99849 0
M  V30 27894 C 2586.77 1.09501 -1.60747 0
M  V30 27895 O 2586.03 1.76658 -0.842052 0
M  V30 27896 C 2586.33 -0.410115 -3.55039 0
M  V30 27897 C 2585.99 -1.78907 -4.13888 0
M  V30 27898 C 2584.65 -2.16642 -4.29674 0
M  V30 27899 C 2587.01 -2.69309 -4.46231 0
M  V30 27900 C 2584.33 -3.44229 -4.75104 0
M  V30 27901 C 2586.69 -3.96298 -4.93082 0
M  V30 27902 C 2585.35 -4.34087 -5.07074 0
M  V30 27903 H 2584.62 -0.11952 -0.731297 0
M  V30 27904 H 2587.27 -0.977997 -1.64643 0
M  V30 27905 H 2585.57 0.324809 -3.90451 0
M  V30 27906 H 2587.27 -0.0521404 -4.00966 0
M  V30 27907 H 2583.86 -1.48576 -4.02024 0
M  V30 27908 H 2588.04 -2.41417 -4.33626 0
M  V30 27909 H 2583.3 -3.7341 -4.84123 0
M  V30 27910 H 2587.47 -4.66482 -5.17076 0
M  V30 27911 H 2585.1 -5.33011 -5.42036 0
M  V30 27912 N 2586.67 1.48939 -0.515251 0
M  V30 27913 C 2587.61 2.27327 0.292441 0
M  V30 27914 C 2588.62 1.34462 0.917814 0
M  V30 27915 O 2589.81 1.59632 0.798744 0
M  V30 27916 C 2586.91 3.07347 1.42798 0
M  V30 27917 C 2586.08 4.27887 0.907272 0
M  V30 27918 C 2585.14 4.89837 1.92214 0
M  V30 27919 O 2584.17 5.49488 1.48497 0
M  V30 27920 N 2585.37 4.80759 3.25347 0
M  V30 27921 H 2588.13 2.97284 -0.379773 0
M  V30 27922 H 2585.69 1.58101 -0.348666 0
M  V30 27923 H 2587.69 3.45662 2.10475 0
M  V30 27924 H 2586.26 2.39905 2.0041 0
M  V30 27925 H 2585.48 3.94162 0.0549525 0
M  V30 27926 H 2586.76 5.05947 0.538019 0
M  V30 27927 H 2586.16 4.33421 3.63542 0
M  V30 27928 H 2584.72 5.23218 3.88698 0
M  V30 27929 N 2588.15 0.249709 1.55609 0
M  V30 27930 C 2589.06 -0.659335 2.25144 0
M  V30 27931 C 2590.08 -1.19099 1.26852 0
M  V30 27932 O 2591.26 -1.22666 1.59734 0
M  V30 27933 C 2588.32 -1.83834 2.93949 0
M  V30 27934 C 2587.38 -1.34589 4.07657 0
M  V30 27935 C 2586.61 -2.4687 4.73171 0
M  V30 27936 O 2586.84 -3.65663 4.37775 0
M  V30 27937 O 2585.77 -2.16469 5.61627 0
M  V30 27938 H 2589.6 -0.0968165 3.03546 0
M  V30 27939 H 2587.18 0.0181003 1.49389 0
M  V30 27940 H 2589.06 -2.52632 3.37276 0
M  V30 27941 H 2587.74 -2.38843 2.18485 0
M  V30 27942 H 2586.65 -0.625109 3.6884 0
M  V30 27943 H 2587.98 -0.841855 4.84947 0
M  V30 27944 N 2589.63 -1.57583 -0.0233682 0
M  V30 27945 C 2590.86 -1.9419 -0.728341 0
M  V30 27946 C 2591.28 -0.850148 -1.67792 0
M  V30 27947 O 2590.64 0.193678 -1.80263 0
M  V30 27948 C 2590.69 -3.2987 -1.45663 0
M  V30 27949 O 2589.79 -3.22523 -2.57008 0
M  V30 27950 H 2589.13 -0.634573 -0.195482 0
M  V30 27951 H 2591.66 -2.04587 0.0228573 0
M  V30 27952 H 2591.67 -3.64893 -1.82529 0
M  V30 27953 H 2590.35 -4.08893 -0.760242 0
M  V30 27954 H 2588.92 -2.9914 -2.22643 0
M  V30 27955 N 2591.11 0.29574 -1.548 0
M  V30 27956 C 2592.36 1.02795 -1.7354 0
M  V30 27957 C 2592.67 1.88249 -0.531192 0
M  V30 27958 O 2593.88 2.64776 -0.600505 0
M  V30 27959 C 2592.33 1.87738 -3.07054 0
M  V30 27960 C 2591.94 1.07262 -4.3497 0
M  V30 27961 C 2593.69 2.60527 -3.35151 0
M  V30 27962 C 2591.59 1.91511 -5.59533 0
M  V30 27963 H 2590.52 0.387511 -0.646801 0
M  V30 27964 H 2593.17 0.284687 -1.81278 0
M  V30 27965 H 2591.56 2.66073 -2.93294 0
M  V30 27966 H 2592.73 0.335036 -4.5958 0
M  V30 27967 H 2591.04 0.460311 -4.13848 0
M  V30 27968 H 2593.64 3.23922 -4.25416 0
M  V30 27969 H 2593.98 3.29632 -2.54261 0
M  V30 27970 H 2594.52 1.89238 -3.49906 0
M  V30 27971 H 2591.26 1.26867 -6.43106 0
M  V30 27972 H 2590.78 2.62928 -5.391 0
M  V30 27973 H 2592.46 2.49432 -5.96986 0
M  V30 27974 N 2592.59 1.47346 0.559187 0
M  V30 27975 C 2593.84 1.53565 1.31385 0
M  V30 27976 C 2594.16 0.198712 1.93985 0
M  V30 27977 O 2593.43 -0.777135 1.79826 0
M  V30 27978 H 2592.01 0.56566 0.487891 0
M  V30 27979 H 2594.67 1.83631 0.653117 0
M  V30 27980 H 2593.76 2.30115 2.1084 0
M  V30 27981 N 2594.07 -0.805758 1.35445 0
M  V30 27982 C 2595 -1.93224 1.31099 0
M  V30 27983 C 2595.98 -1.69088 0.185274 0
M  V30 27984 O 2597.16 -1.90439 0.380366 0
M  V30 27985 C 2594.29 -3.29981 1.08305 0
M  V30 27986 C 2593.25 -3.68601 2.17526 0
M  V30 27987 C 2592.57 -5.03529 1.79896 0
M  V30 27988 C 2593.87 -3.78892 3.59497 0
M  V30 27989 H 2595.57 -1.97118 2.25355 0
M  V30 27990 H 2593.11 -0.946977 1.08482 0
M  V30 27991 H 2595.06 -4.08389 1.03904 0
M  V30 27992 H 2593.79 -3.26431 0.104942 0
M  V30 27993 H 2592.45 -2.92478 2.21025 0
M  V30 27994 H 2592.1 -4.96484 0.807017 0
M  V30 27995 H 2591.8 -5.30339 2.5301 0
M  V30 27996 H 2593.32 -5.84376 1.77022 0
M  V30 27997 H 2594.73 -4.4753 3.58315 0
M  V30 27998 H 2593.13 -4.17173 4.31378 0
M  V30 27999 H 2594.2 -2.80424 3.95589 0
M  V30 28000 N 2595.54 -1.19456 -1.02801 0
M  V30 28001 C 2596.51 -0.934992 -2.09262 0
M  V30 28002 C 2597.51 0.0848733 -1.60576 0
M  V30 28003 O 2598.7 -0.149963 -1.73553 0
M  V30 28004 C 2595.83 -0.405369 -3.38481 0
M  V30 28005 H 2597.02 -1.8792 -2.33722 0
M  V30 28006 H 2594.57 -1.00834 -1.19425 0
M  V30 28007 H 2595.31 0.544843 -3.1969 0
M  V30 28008 H 2595.09 -1.14072 -3.7514 0
M  V30 28009 H 2596.58 -0.242879 -4.16893 0
M  V30 28010 N 2597.02 1.21924 -0.998617 0
M  V30 28011 C 2598.27 1.90137 -0.673119 0
M  V30 28012 C 2598.58 1.7854 0.798919 0
M  V30 28013 O 2599.79 2.41722 1.23624 0
M  V30 28014 C 2598.25 3.40916 -1.15345 0
M  V30 28015 C 2597.85 3.61137 -2.65112 0
M  V30 28016 C 2599.6 4.14794 -0.902549 0
M  V30 28017 C 2597.5 5.05646 -3.06719 0
M  V30 28018 H 2596.43 0.712023 -0.24807 0
M  V30 28019 H 2599.09 1.38047 -1.20894 0
M  V30 28020 H 2597.47 3.92222 -0.545727 0
M  V30 28021 H 2598.64 3.20298 -3.31279 0
M  V30 28022 H 2596.96 3.006 -2.88147 0
M  V30 28023 H 2599.55 5.21312 -1.18904 0
M  V30 28024 H 2599.9 4.15987 0.161276 0
M  V30 28025 H 2600.43 3.69533 -1.47275 0
M  V30 28026 H 2597.17 5.09596 -4.12301 0
M  V30 28027 H 2596.69 5.47365 -2.45259 0
M  V30 28028 H 2598.37 5.7411 -2.98341 0
M  V30 28029 N 2598.5 0.772537 1.37367 0
M  V30 28030 C 2599.45 0.132863 2.27613 0
M  V30 28031 C 2600.43 -0.673221 1.46139 0
M  V30 28032 O 2601.63 -0.536065 1.68687 0
M  V30 28033 C 2598.75 -0.744805 3.35123 0
M  V30 28034 C 2597.84 0.0691517 4.24044 0
M  V30 28035 N 2598.23 1.11519 4.93353 0
M  V30 28036 C 2596.53 -0.154703 4.45732 0
M  V30 28037 C 2597.23 1.60927 5.58997 0
M  V30 28038 N 2596.21 0.921316 5.35736 0
M  V30 28039 H 2600.01 0.93373 2.78673 0
M  V30 28040 H 2597.52 0.610369 1.50493 0
M  V30 28041 H 2599.52 -1.21885 3.98685 0
M  V30 28042 H 2598.18 -1.54441 2.85619 0
M  V30 28043 H 2599.19 1.49735 4.95782 0
M  V30 28044 H 2595.87 -0.926152 4.07098 0
M  V30 28045 H 2597.26 2.48164 6.24391 0
M  V30 28046 N 2599.98 -1.48664 0.523142 0
M  V30 28047 C 2600.91 -2.32342 -0.232269 0
M  V30 28048 C 2601.89 -1.4166 -0.941612 0
M  V30 28049 O 2603.07 -1.70553 -0.928721 0
M  V30 28050 C 2600.2 -3.227 -1.28381 0
M  V30 28051 C 2599.16 -4.22352 -0.693024 0
M  V30 28052 C 2598.48 -5.01797 -1.84672 0
M  V30 28053 C 2599.78 -5.21252 0.330721 0
M  V30 28054 H 2601.48 -2.95747 0.466244 0
M  V30 28055 H 2599.02 -1.42221 0.225668 0
M  V30 28056 H 2600.98 -3.80063 -1.82018 0
M  V30 28057 H 2599.7 -2.57281 -2.01181 0
M  V30 28058 H 2598.36 -3.66166 -0.178235 0
M  V30 28059 H 2598.01 -4.32808 -2.56293 0
M  V30 28060 H 2597.71 -5.6924 -1.45737 0
M  V30 28061 H 2599.23 -5.6201 -2.38699 0
M  V30 28062 H 2600.65 -5.73178 -0.118306 0
M  V30 28063 H 2599.04 -5.96709 0.637079 0
M  V30 28064 H 2600.11 -4.68806 1.23891 0
M  V30 28065 N 2601.46 -0.257958 -1.55475 0
M  V30 28066 C 2602.39 0.630873 -2.24816 0
M  V30 28067 C 2603.37 1.17257 -1.23226 0
M  V30 28068 O 2604.55 1.20988 -1.51906 0
M  V30 28069 C 2601.68 1.82293 -2.95612 0
M  V30 28070 C 2600.64 1.41352 -4.03985 0
M  V30 28071 C 2599.96 2.6873 -4.62264 0
M  V30 28072 C 2601.26 0.576389 -5.1911 0
M  V30 28073 H 2602.96 0.0526351 -2.99354 0
M  V30 28074 H 2600.5 0.0238757 -1.4398 0
M  V30 28075 H 2602.45 2.45047 -3.42826 0
M  V30 28076 H 2601.18 2.42672 -2.18581 0
M  V30 28077 H 2599.84 0.809261 -3.57556 0
M  V30 28078 H 2599.49 3.27331 -3.81921 0
M  V30 28079 H 2599.19 2.42055 -5.35428 0
M  V30 28080 H 2600.71 3.32363 -5.12218 0
M  V30 28081 H 2602.12 1.10851 -5.62481 0
M  V30 28082 H 2600.52 0.405246 -5.9873 0
M  V30 28083 H 2601.59 -0.408861 -4.83173 0
M  V30 28084 N 2602.93 1.57593 0.0150108 0
M  V30 28085 C 2604.21 1.81096 0.739168 0
M  V30 28086 C 2604.59 0.859378 1.92816 0
M  V30 28087 O 2603.94 -0.0953219 2.28301 0
M  V30 28088 C 2604.15 3.29193 1.15901 0
M  V30 28089 C 2605.5 3.94543 1.56911 0
M  V30 28090 O 2606.52 3.33426 1.25322 0
M  V30 28091 O 2605.38 5.02176 2.15595 0
M  V30 28092 H 2602.47 0.7452 0.358618 0
M  V30 28093 H 2605.02 1.69697 -0.00929139 0
M  V30 28094 H 2603.79 3.90063 0.310853 0
M  V30 28095 H 2603.42 3.45533 1.96705 0
M  V30 28096 N 2604.41 -0.287527 1.54955 0
M  V30 28097 C 2605.66 -1.01901 1.7453 0
M  V30 28098 C 2605.98 -1.87334 0.541382 0
M  V30 28099 O 2605.25 -1.908 -0.444075 0
M  V30 28100 H 2603.83 -0.379223 0.643583 0
M  V30 28101 H 2606.49 -0.31526 1.92333 0
M  V30 28102 H 2605.59 -1.66435 2.64018 0
M  V30 28103 N 2605.89 -1.47641 -0.551365 0
M  V30 28104 C 2607.14 -1.5426 -1.30569 0
M  V30 28105 C 2607.46 -0.208997 -1.93877 0
M  V30 28106 O 2606.73 0.767588 -1.80236 0
M  V30 28107 H 2605.31 -0.56824 -0.484884 0
M  V30 28108 H 2607.97 -1.83975 -0.64337 0
M  V30 28109 H 2607.07 -2.3123 -2.09617 0
M  V30 28110 N 2607.37 0.798563 -1.3587 0
M  V30 28111 C 2608.32 1.9322 -1.29495 0
M  V30 28112 C 2609.31 1.68349 -0.18839 0
M  V30 28113 O 2610.52 1.76468 -0.354853 0
M  V30 28114 H 2606.89 0.634953 -0.402912 0
M  V30 28115 H 2608.86 1.95716 -2.2525 0
M  V30 28116 C 2607.61 3.3011 -1.0919 0
M  V30 28117 H 2606.93 3.4981 -1.9358 0
M  V30 28118 H 2608.37 4.0981 -1.08773 0
M  V30 28119 C 2606.83 3.36282 0.2039 0
M  V30 28120 O 2607.36 3.83454 1.19692 0
M  V30 28121 N 2605.57 2.89562 0.245437 0
M  V30 28122 H 2605.12 2.51366 -0.563267 0
M  V30 28123 H 2605.07 2.94073 1.11214 0
M  V30 28124 N 2608.85 1.19999 1.02166 0
M  V30 28125 C 2610.07 1.03252 1.79295 0
M  V30 28126 C 2610.49 -0.41847 1.84104 0
M  V30 28127 O 2609.85 -1.29061 1.29033 0
M  V30 28128 C 2609.9 1.60324 3.24004 0
M  V30 28129 O 2609.62 2.99745 3.19507 0
M  V30 28130 C 2611.12 1.4846 4.17701 0
M  V30 28131 H 2608.34 0.363502 0.56401 0
M  V30 28132 H 2610.88 1.58975 1.28636 0
M  V30 28133 H 2609.04 1.08733 3.71828 0
M  V30 28134 H 2609.45 3.26733 4.103 0
M  V30 28135 H 2610.93 1.93162 5.171 0
M  V30 28136 H 2611.4 0.436269 4.37028 0
M  V30 28137 H 2612.01 1.99217 3.75756 0
M  V30 28138 N 2610.32 -1.21392 1.00507 0
M  V30 28139 C 2611.23 -2.27448 0.574846 0
M  V30 28140 C 2612.25 -1.69751 -0.382176 0
M  V30 28141 O 2613.43 -1.99892 -0.245992 0
M  V30 28142 C 2610.49 -3.46579 -0.0916805 0
M  V30 28143 C 2609.55 -4.19548 0.909831 0
M  V30 28144 C 2608.79 -5.32991 0.275017 0
M  V30 28145 O 2609.01 -5.62798 -0.928155 0
M  V30 28146 O 2607.94 -5.93769 0.985982 0
M  V30 28147 H 2611.77 -2.66441 1.45749 0
M  V30 28148 H 2609.35 -1.27791 0.773946 0
M  V30 28149 H 2611.24 -4.18832 -0.464477 0
M  V30 28150 H 2609.91 -3.09486 -0.9487 0
M  V30 28151 H 2608.82 -3.49515 1.33379 0
M  V30 28152 H 2610.15 -4.60552 1.73644 0
M  V30 28153 N 2611.8 -0.779811 -1.36955 0
M  V30 28154 C 2613.05 -0.34444 -1.98737 0
M  V30 28155 C 2613.36 1.08725 -1.62598 0
M  V30 28156 O 2614.57 1.62441 -2.17543 0
M  V30 28157 C 2613.03 -0.564891 -3.55439 0
M  V30 28158 C 2612.63 -2.00737 -4.0051 0
M  V30 28159 C 2614.38 -0.193545 -4.24059 0
M  V30 28160 C 2612.29 -2.17499 -5.49953 0
M  V30 28161 H 2611.22 -0.125043 -0.743559 0
M  V30 28162 H 2613.87 -0.960084 -1.5638 0
M  V30 28163 H 2612.25 0.120328 -3.95817 0
M  V30 28164 H 2613.42 -2.7282 -3.71357 0
M  V30 28165 H 2611.74 -2.33606 -3.44699 0
M  V30 28166 H 2614.33 -0.297191 -5.33873 0
M  V30 28167 H 2614.68 0.857191 -4.07379 0
M  V30 28168 H 2615.21 -0.831625 -3.8901 0
M  V30 28169 H 2611.95 -3.20921 -5.71568 0
M  V30 28170 H 2611.47 -1.49909 -5.80764 0
M  V30 28171 H 2613.15 -1.97748 -6.16039 0
M  V30 28172 N 2613.28 1.48384 -0.531019 0
M  V30 28173 C 2614.21 2.27624 0.268313 0
M  V30 28174 C 2615.23 1.35428 0.903501 0
M  V30 28175 O 2616.41 1.6047 0.781768 0
M  V30 28176 C 2613.51 3.08844 1.3953 0
M  V30 28177 C 2612.69 4.28825 0.861837 0
M  V30 28178 C 2611.75 4.91848 1.87008 0
M  V30 28179 O 2610.77 5.51032 1.4266 0
M  V30 28180 N 2611.97 4.84183 3.20229 0
M  V30 28181 H 2614.74 2.96865 -0.411283 0
M  V30 28182 H 2612.3 1.57722 -0.365415 0
M  V30 28183 H 2614.29 3.47875 2.06797 0
M  V30 28184 H 2612.86 2.42017 1.97854 0
M  V30 28185 H 2612.08 3.94198 0.0131433 0
M  V30 28186 H 2613.37 5.0649 0.484326 0
M  V30 28187 H 2612.77 4.37252 3.58925 0
M  V30 28188 H 2611.33 5.27311 3.83127 0
M  V30 28189 N 2614.76 0.2662 1.55336 0
M  V30 28190 C 2615.71 -0.625126 2.22173 0
M  V30 28191 C 2616.68 -1.15661 1.19213 0
M  V30 28192 O 2617.86 -1.20755 1.47726 0
M  V30 28193 C 2615 -1.80755 2.93975 0
M  V30 28194 C 2614.11 -1.31077 4.11634 0
M  V30 28195 C 2613.25 -2.45428 4.71104 0
M  V30 28196 C 2612.29 -1.92708 5.80973 0
M  V30 28197 N 2611.42 -3.00498 6.34543 0
M  V30 28198 H 2616.26 -0.0485058 2.97961 0
M  V30 28199 H 2613.8 -0.0121766 1.47095 0
M  V30 28200 H 2615.76 -2.50245 3.33816 0
M  V30 28201 H 2614.39 -2.35634 2.20627 0
M  V30 28202 H 2613.44 -0.509259 3.76976 0
M  V30 28203 H 2614.75 -0.884547 4.90894 0
M  V30 28204 H 2613.91 -3.22927 5.13617 0
M  V30 28205 H 2612.65 -2.91361 3.91101 0
M  V30 28206 H 2611.65 -1.13685 5.37918 0
M  V30 28207 H 2612.88 -1.47721 6.62839 0
M  V30 28208 H 2610.82 -3.4583 5.57439 0
M  V30 28209 H 2610.74 -2.62266 7.0905 0
M  V30 28210 H 2612.01 -3.77999 6.81716 0
M  V30 28211 N 2616.24 -1.57599 -0.0066531 0
M  V30 28212 C 2617.46 -1.94952 -0.707704 0
M  V30 28213 C 2617.89 -0.867897 -1.66881 0
M  V30 28214 O 2617.24 0.174548 -1.80458 0
M  V30 28215 C 2617.29 -3.31397 -1.42157 0
M  V30 28216 O 2616.4 -3.2523 -2.53573 0
M  V30 28217 H 2615.74 -0.636611 -0.18874 0
M  V30 28218 H 2618.27 -2.04551 0.0445552 0
M  V30 28219 H 2618.28 -3.66809 -1.78649 0
M  V30 28220 H 2616.95 -4.09676 -0.716831 0
M  V30 28221 H 2615.53 -3.01484 -2.19457 0
M  V30 28222 N 2617.72 0.279305 -1.55105 0
M  V30 28223 C 2618.96 1.01174 -1.75414 0
M  V30 28224 C 2619.29 1.8651 -0.55176 0
M  V30 28225 O 2618.55 1.90074 0.465885 0
M  V30 28226 C 2618.84 1.92914 -3.00864 0
M  V30 28227 C 2618.51 1.2338 -4.33691 0
M  V30 28228 C 2617.17 1.0415 -4.69794 0
M  V30 28229 C 2619.52 0.738472 -5.15942 0
M  V30 28230 C 2616.85 0.341063 -5.85708 0
M  V30 28231 C 2619.2 0.0516524 -6.32579 0
M  V30 28232 C 2617.87 -0.152409 -6.67326 0
M  V30 28233 H 2617.14 0.370222 -0.641885 0
M  V30 28234 H 2619.79 0.284593 -1.89373 0
M  V30 28235 H 2618.09 2.72229 -2.81777 0
M  V30 28236 H 2619.79 2.49695 -3.13773 0
M  V30 28237 H 2616.38 1.39357 -4.05312 0
M  V30 28238 H 2620.56 0.874678 -4.88532 0
M  V30 28239 H 2615.82 0.172179 -6.11158 0
M  V30 28240 H 2619.99 -0.33995 -6.9557 0
M  V30 28241 H 2617.62 -0.697147 -7.56997 0
M  V30 28242 N 2619.19 1.47931 0.543528 0
M  V30 28243 C 2620.14 1.57847 1.64525 0
M  V30 28244 C 2621.13 0.436435 1.54868 0
M  V30 28245 O 2622.32 0.68713 1.63118 0
M  V30 28246 C 2619.45 1.60865 3.03278 0
M  V30 28247 C 2618.53 2.80501 3.18088 0
M  V30 28248 N 2618.93 4.05062 3.02916 0
M  V30 28249 C 2617.22 2.77549 3.49117 0
M  V30 28250 C 2617.92 4.85256 3.20782 0
M  V30 28251 N 2616.9 4.17824 3.47741 0
M  V30 28252 H 2620.7 2.51913 1.51384 0
M  V30 28253 H 2618.22 1.44115 0.748645 0
M  V30 28254 H 2620.21 1.66061 3.824 0
M  V30 28255 H 2618.87 0.679052 3.1752 0
M  V30 28256 H 2619.88 4.3571 2.79959 0
M  V30 28257 H 2616.56 1.93787 3.69801 0
M  V30 28258 H 2617.95 5.94065 3.13904 0
M  V30 28259 N 2620.67 -0.791347 1.36292 0
M  V30 28260 C 2621.62 -1.9253 1.30518 0
M  V30 28261 C 2622.61 -1.68247 0.197315 0
M  V30 28262 O 2623.82 -1.76277 0.364207 0
M  V30 28263 H 2620.19 -0.632808 0.406274 0
M  V30 28264 H 2622.17 -1.94519 2.26285 0
M  V30 28265 C 2620.91 -3.29527 1.10939 0
M  V30 28266 H 2620.24 -3.48778 1.95433 0
M  V30 28267 H 2621.68 -4.09228 1.10945 0
M  V30 28268 C 2620.14 -3.36386 -0.186063 0
M  V30 28269 O 2620.67 -3.84083 -1.17657 0
M  V30 28270 N 2618.87 -2.89688 -0.230078 0
M  V30 28271 H 2618.42 -2.51064 0.57659 0
M  V30 28272 H 2618.38 -2.94659 -1.09653 0
M  V30 28273 N 2622.15 -1.2054 -1.01528 0
M  V30 28274 C 2623.08 -0.979333 -2.1197 0
M  V30 28275 C 2624.06 0.0921489 -1.6985 0
M  V30 28276 O 2625.25 -0.0656273 -1.94089 0
M  V30 28277 C 2622.38 -0.532044 -3.432 0
M  V30 28278 C 2621.33 -1.54692 -3.99067 0
M  V30 28279 C 2620.66 -0.95622 -5.2608 0
M  V30 28280 C 2621.96 -2.931 -4.32308 0
M  V30 28281 H 2623.65 -1.90302 -2.3114 0
M  V30 28282 H 2621.2 -0.916392 -1.11078 0
M  V30 28283 H 2623.15 -0.361118 -4.1985 0
M  V30 28284 H 2621.87 0.427271 -3.23793 0
M  V30 28285 H 2620.53 -1.70523 -3.24527 0
M  V30 28286 H 2620.18 0.0110654 -5.02999 0
M  V30 28287 H 2619.88 -1.63403 -5.64423 0
M  V30 28288 H 2621.4 -0.79639 -6.05384 0
M  V30 28289 H 2622.82 -2.80772 -4.9984 0
M  V30 28290 H 2621.21 -3.57799 -4.81767 0
M  V30 28291 H 2622.28 -3.44723 -3.41019 0
M  V30 28292 N 2623.63 1.20858 -1.01149 0
M  V30 28293 C 2624.56 2.22146 -0.522147 0
M  V30 28294 C 2625.54 1.56875 0.427659 0
M  V30 28295 O 2626.72 1.85244 0.348858 0
M  V30 28296 C 2623.85 3.37843 0.24076 0
M  V30 28297 C 2622.9 4.21396 -0.657826 0
M  V30 28298 S 2623.73 4.91575 -2.12402 0
M  V30 28299 C 2624.88 6.10697 -1.37113 0
M  V30 28300 H 2625.12 2.6331 -1.3804 0
M  V30 28301 H 2622.65 1.30828 -0.819964 0
M  V30 28302 H 2624.61 4.04915 0.674837 0
M  V30 28303 H 2623.27 2.95149 1.07451 0
M  V30 28304 H 2622.46 5.03952 -0.0698342 0
M  V30 28305 H 2622.06 3.59553 -1.02946 0
M  V30 28306 H 2624.36 6.7439 -0.648433 0
M  V30 28307 H 2625.3 6.73945 -2.17264 0
M  V30 28308 H 2625.71 5.57658 -0.876252 0
M  V30 28309 N 2625.11 0.787064 1.3654 0
M  V30 28310 C 2626.04 0.129805 2.27831 0
M  V30 28311 C 2627.02 -0.692706 1.47107 0
M  V30 28312 O 2628.2 -0.664191 1.76411 0
M  V30 28313 C 2625.33 -0.821825 3.28578 0
M  V30 28314 C 2624.37 -0.0814021 4.26422 0
M  V30 28315 S 2625.21 1.24121 5.20917 0
M  V30 28316 C 2626.36 0.293519 6.25211 0
M  V30 28317 H 2626.6 0.903861 2.83227 0
M  V30 28318 H 2624.13 0.581169 1.43045 0
M  V30 28319 H 2626.09 -1.36543 3.87126 0
M  V30 28320 H 2624.75 -1.56911 2.72099 0
M  V30 28321 H 2623.94 -0.803398 4.97556 0
M  V30 28322 H 2623.54 0.391654 3.71944 0
M  V30 28323 H 2625.83 -0.528504 6.75435 0
M  V30 28324 H 2626.78 0.973468 7.01377 0
M  V30 28325 H 2627.19 -0.102097 5.64408 0
M  V30 28326 N 2626.58 -1.48101 0.53888 0
M  V30 28327 C 2627.81 -2.07397 0.0103059 0
M  V30 28328 C 2628.23 -1.39155 -1.2656 0
M  V30 28329 O 2627.59 -0.460417 -1.75356 0
M  V30 28330 C 2627.64 -3.60112 -0.187539 0
M  V30 28331 O 2626.74 -3.92864 -1.25426 0
M  V30 28332 H 2626.08 -0.662599 0.0431091 0
M  V30 28333 H 2628.61 -1.90384 0.749335 0
M  V30 28334 H 2628.62 -4.0596 -0.407446 0
M  V30 28335 H 2627.3 -4.09183 0.744458 0
M  V30 28336 H 2625.88 -3.58784 -1.0163 0
M  V30 28337 N 2628.06 -0.274434 -1.55192 0
M  V30 28338 C 2629.34 0.394298 -1.91585 0
M  V30 28339 C 2629.72 1.73772 -1.19861 0
M  V30 28340 O 2629.07 2.26173 -0.325239 0
M  V30 28341 C 2629.28 0.53525 -3.44871 0
M  V30 28342 C 2630.62 0.818461 -4.16637 0
M  V30 28343 O 2631.65 0.620084 -3.50761 0
M  V30 28344 O 2630.51 1.19782 -5.33211 0
M  V30 28345 H 2627.6 0.21578 -0.798353 0
M  V30 28346 H 2630.15 -0.320536 -1.66645 0
M  V30 28347 H 2628.92 -0.410209 -3.89144 0
M  V30 28348 H 2628.54 1.29958 -3.75762 0
M  V30 28349 N 2629.54 1.576 -0.00170483 0
M  V30 28350 C 2630.49 2.08529 0.989158 0
M  V30 28351 C 2631.46 0.981088 1.34029 0
M  V30 28352 O 2632.64 1.25362 1.43837 0
M  V30 28353 C 2629.78 2.59467 2.27532 0
M  V30 28354 C 2628.89 3.83795 1.98307 0
M  V30 28355 C 2628.03 4.23227 3.21017 0
M  V30 28356 C 2627.07 5.40387 2.87486 0
M  V30 28357 N 2626.21 5.75105 4.02739 0
M  V30 28358 H 2631.05 2.92919 0.547921 0
M  V30 28359 H 2628.58 1.44804 0.258891 0
M  V30 28360 H 2630.54 2.87079 3.02724 0
M  V30 28361 H 2629.17 1.77948 2.69322 0
M  V30 28362 H 2628.22 3.6308 1.13476 0
M  V30 28363 H 2629.53 4.69084 1.69593 0
M  V30 28364 H 2628.69 4.5213 4.04553 0
M  V30 28365 H 2627.43 3.3665 3.52871 0
M  V30 28366 H 2626.43 5.11206 2.02358 0
M  V30 28367 H 2627.66 6.28642 2.56878 0
M  V30 28368 H 2625.6 4.91486 4.34485 0
M  V30 28369 H 2625.52 6.54972 3.77554 0
M  V30 28370 H 2626.79 6.08601 4.87058 0
M  V30 28371 N 2631.02 -0.271076 1.55251 0
M  V30 28372 C 2631.96 -1.33513 1.88263 0
M  V30 28373 C 2632.93 -1.48986 0.734322 0
M  V30 28374 O 2634.12 -1.63362 0.985769 0
M  V30 28375 C 2631.26 -2.69004 2.16173 0
M  V30 28376 C 2630.37 -2.61737 3.43683 0
M  V30 28377 C 2629.51 -3.8942 3.61283 0
M  V30 28378 C 2628.55 -3.76671 4.82478 0
M  V30 28379 N 2627.68 -4.96193 4.96726 0
M  V30 28380 H 2632.52 -1.0466 2.79017 0
M  V30 28381 H 2630.06 -0.505594 1.38138 0
M  V30 28382 H 2632.02 -3.4784 2.30355 0
M  V30 28383 H 2630.65 -2.96055 1.28652 0
M  V30 28384 H 2629.7 -1.74601 3.37962 0
M  V30 28385 H 2631.01 -2.48217 4.32654 0
M  V30 28386 H 2630.17 -4.76697 3.75293 0
M  V30 28387 H 2628.91 -4.05809 2.705 0
M  V30 28388 H 2627.91 -2.87777 4.6847 0
M  V30 28389 H 2629.14 -3.61799 5.74698 0
M  V30 28390 H 2627.08 -5.12989 4.08874 0
M  V30 28391 H 2627 -4.85212 5.79746 0
M  V30 28392 H 2628.27 -5.85037 5.15123 0
M  V30 28393 N 2632.5 -1.48217 -0.535675 0
M  V30 28394 C 2633.72 -1.5985 -1.32147 0
M  V30 28395 C 2634.15 -0.256874 -1.86338 0
M  V30 28396 O 2633.5 0.770603 -1.64108 0
M  V30 28397 C 2633.55 -2.64386 -2.45219 0
M  V30 28398 O 2632.66 -2.2115 -3.48089 0
M  V30 28399 H 2632 -0.536215 -0.391624 0
M  V30 28400 H 2634.53 -1.94162 -0.645168 0
M  V30 28401 H 2634.54 -2.85481 -2.91486 0
M  V30 28402 H 2633.21 -3.6179 -2.05137 0
M  V30 28403 H 2631.79 -2.10244 -3.0798 0
M  V30 28404 N 2633.97 0.784108 -1.3671 0
M  V30 28405 C 2634.88 1.92819 -1.33634 0
M  V30 28406 C 2635.9 1.72369 -0.237716 0
M  V30 28407 O 2637.08 1.95815 -0.470996 0
M  V30 28408 C 2634.14 3.27762 -1.13017 0
M  V30 28409 C 2633.2 3.60953 -2.32403 0
M  V30 28410 C 2632.44 4.89457 -2.12761 0
M  V30 28411 O 2632.66 5.59584 -1.10551 0
M  V30 28412 O 2631.59 5.21427 -3.00662 0
M  V30 28413 H 2635.42 1.98364 -2.29968 0
M  V30 28414 H 2633 0.925115 -1.17311 0
M  V30 28415 H 2634.89 4.08503 -1.03458 0
M  V30 28416 H 2633.56 3.23097 -0.197487 0
M  V30 28417 H 2632.47 2.80498 -2.47532 0
M  V30 28418 H 2633.8 3.70348 -3.24196 0
M  V30 28419 N 2635.45 1.21076 1.00888 0
M  V30 28420 C 2636.87 0.967279 1.26948 0
M  V30 28421 C 2637.07 -0.348638 1.98461 0
M  V30 28422 O 2636.12 -1.07526 2.28461 0
M  V30 28423 C 2637.44 2.15521 2.09693 0
M  V30 28424 C 2638.99 2.19704 2.22933 0
M  V30 28425 C 2639.46 3.38005 3.09058 0
M  V30 28426 N 2640.95 3.38067 3.16647 0
M  V30 28427 C 2641.69 4.26252 3.83532 0
M  V30 28428 N 2641.18 5.24628 4.52479 0
M  V30 28429 N 2642.98 4.14071 3.80134 0
M  V30 28430 H 2635.13 2.05708 0.528969 0
M  V30 28431 H 2637.39 0.900561 0.296132 0
M  V30 28432 H 2637.1 3.10862 1.64492 0
M  V30 28433 H 2636.97 2.14259 3.1044 0
M  V30 28434 H 2639.36 1.24921 2.67355 0
M  V30 28435 H 2639.44 2.25012 1.21669 0
M  V30 28436 H 2639.08 4.33079 2.6534 0
M  V30 28437 H 2639.01 3.29935 4.10427 0
M  V30 28438 H 2641.5 2.66869 2.67561 0
M  V30 28439 H 2641.82 5.88226 5.01208 0
M  V30 28440 H 2640.16 5.28557 4.51279 0
M  V30 28441 H 2643.35 3.3648 3.25421 0
M  V30 28442 H 2643.52 4.83006 4.31983 0
M  V30 28443 N 2636.93 -1.2032 1.01789 0
M  V30 28444 C 2638.18 -1.89721 0.70797 0
M  V30 28445 C 2638.51 -1.78931 -0.762504 0
M  V30 28446 O 2637.76 -1.16864 -1.56975 0
M  V30 28447 C 2638.06 -3.40347 1.09082 0
M  V30 28448 C 2637.73 -3.71338 2.55772 0
M  V30 28449 C 2636.39 -3.79506 2.95852 0
M  V30 28450 C 2638.74 -3.85536 3.5073 0
M  V30 28451 C 2636.07 -3.99332 4.29827 0
M  V30 28452 C 2638.42 -4.06872 4.84394 0
M  V30 28453 C 2637.08 -4.1327 5.24179 0
M  V30 28454 H 2636.35 -0.694238 0.259064 0
M  V30 28455 H 2639 -1.42553 1.27871 0
M  V30 28456 H 2637.31 -3.89338 0.438521 0
M  V30 28457 H 2639 -3.92344 0.828705 0
M  V30 28458 H 2635.59 -3.6558 2.23717 0
M  V30 28459 H 2639.78 -3.78579 3.20923 0
M  V30 28460 H 2635.03 -4.02521 4.60203 0
M  V30 28461 H 2639.21 -4.16801 5.57898 0
M  V30 28462 H 2636.83 -4.28385 6.28005 0
M  V30 28463 N 2638.41 -0.794293 -1.3612 0
M  V30 28464 C 2639.66 -0.36894 -1.99111 0
M  V30 28465 C 2639.98 1.06067 -1.63034 0
M  V30 28466 O 2639.24 1.74832 -0.879334 0
M  V30 28467 C 2639.54 -0.485332 -3.54089 0
M  V30 28468 C 2639.2 -1.87646 -4.1 0
M  V30 28469 C 2637.87 -2.25707 -4.24982 0
M  V30 28470 C 2640.22 -2.78714 -4.40418 0
M  V30 28471 C 2637.55 -3.54229 -4.67695 0
M  V30 28472 C 2639.9 -4.06668 -4.84565 0
M  V30 28473 C 2638.56 -4.44745 -4.97753 0
M  V30 28474 H 2637.83 -0.135005 -0.728598 0
M  V30 28475 H 2640.48 -1.0127 -1.62532 0
M  V30 28476 H 2638.78 0.241916 -3.91052 0
M  V30 28477 H 2640.48 -0.13718 -4.00765 0
M  V30 28478 H 2637.07 -1.57071 -3.98782 0
M  V30 28479 H 2641.25 -2.5056 -4.28408 0
M  V30 28480 H 2636.51 -3.83595 -4.76093 0
M  V30 28481 H 2640.68 -4.77345 -5.07065 0
M  V30 28482 H 2638.31 -5.44388 -5.30608 0
M  V30 28483 N 2639.89 1.47813 -0.546727 0
M  V30 28484 C 2640.83 2.29872 0.206814 0
M  V30 28485 C 2641.8 1.38413 0.918211 0
M  V30 28486 O 2642.99 1.67376 0.915962 0
M  V30 28487 C 2640.13 3.22153 1.2374 0
M  V30 28488 C 2639.24 4.28698 0.533141 0
M  V30 28489 C 2638.38 5.08141 1.54811 0
M  V30 28490 C 2637.42 6.06471 0.82824 0
M  V30 28491 N 2636.55 6.78911 1.78954 0
M  V30 28492 H 2641.39 2.93791 -0.499089 0
M  V30 28493 H 2638.93 1.44821 -0.257956 0
M  V30 28494 H 2640.89 3.74068 1.84739 0
M  V30 28495 H 2639.52 2.60121 1.91147 0
M  V30 28496 H 2638.57 3.79919 -0.191156 0
M  V30 28497 H 2639.88 4.9879 -0.0312863 0
M  V30 28498 H 2639.04 5.64154 2.23193 0
M  V30 28499 H 2637.77 4.37926 2.14644 0
M  V30 28500 H 2636.78 5.49645 0.130442 0
M  V30 28501 H 2638 6.78691 0.235788 0
M  V30 28502 H 2635.95 6.11434 2.37665 0
M  V30 28503 H 2635.87 7.45137 1.27699 0
M  V30 28504 H 2637.14 7.39504 2.46483 0
M  V30 28505 N 2641.36 0.28266 1.55044 0
M  V30 28506 C 2642.61 -0.332446 2.00057 0
M  V30 28507 C 2642.94 -1.54937 1.17082 0
M  V30 28508 O 2642.22 -1.92979 0.242734 0
M  V30 28509 C 2642.5 -0.707188 3.53088 0
M  V30 28510 C 2642.35 0.517599 4.46812 0
M  V30 28511 C 2643.67 -1.54076 4.12248 0
M  V30 28512 H 2640.79 -0.119361 0.72727 0
M  V30 28513 H 2643.43 0.391108 1.85931 0
M  V30 28514 H 2641.58 -1.32366 3.65256 0
M  V30 28515 H 2643.26 1.15615 4.46577 0
M  V30 28516 H 2641.5 1.15427 4.18161 0
M  V30 28517 H 2642.17 0.211523 5.51595 0
M  V30 28518 H 2644.65 -1.02006 4.03403 0
M  V30 28519 H 2643.52 -1.77177 5.19519 0
M  V30 28520 H 2643.78 -2.5242 3.62955 0
M  V30 28521 N 2642.84 -1.57597 0.0100627 0
M  V30 28522 C 2643.77 -2.12086 -0.97682 0
M  V30 28523 C 2644.75 -1.03237 -1.35189 0
M  V30 28524 O 2645.94 -1.30973 -1.43387 0
M  V30 28525 C 2643.07 -2.6324 -2.26544 0
M  V30 28526 C 2642.02 -3.76705 -2.03169 0
M  V30 28527 C 2641.35 -4.14212 -3.38131 0
M  V30 28528 C 2642.65 -5.0357 -1.38617 0
M  V30 28529 H 2644.34 -2.94795 -0.523093 0
M  V30 28530 H 2641.89 -1.4181 -0.25017 0
M  V30 28531 H 2643.84 -2.99989 -2.95947 0
M  V30 28532 H 2642.57 -1.77666 -2.74048 0
M  V30 28533 H 2641.22 -3.40365 -1.36189 0
M  V30 28534 H 2640.87 -3.25647 -3.83357 0
M  V30 28535 H 2640.57 -4.90662 -3.23303 0
M  V30 28536 H 2642.1 -4.53529 -4.08833 0
M  V30 28537 H 2643.51 -5.38026 -1.97991 0
M  V30 28538 H 2641.91 -5.84891 -1.34246 0
M  V30 28539 H 2642.98 -4.83587 -0.356637 0
M  V30 28540 N 2644.32 0.262839 -1.55393 0
M  V30 28541 C 2645.27 1.32765 -1.85358 0
M  V30 28542 C 2646.25 1.44229 -0.713213 0
M  V30 28543 O 2647.45 1.47739 -0.974791 0
M  V30 28544 C 2644.58 2.68608 -2.13786 0
M  V30 28545 C 2643.66 2.61213 -3.34108 0
M  V30 28546 N 2644.05 2.23442 -4.5377 0
M  V30 28547 C 2642.35 2.92257 -3.36901 0
M  V30 28548 C 2643.05 2.26288 -5.35881 0
M  V30 28549 N 2642.03 2.65164 -4.74541 0
M  V30 28550 H 2645.83 1.02586 -2.75415 0
M  V30 28551 H 2643.34 0.471476 -1.55405 0
M  V30 28552 H 2645.34 3.45433 -2.33413 0
M  V30 28553 H 2644 2.99667 -1.25018 0
M  V30 28554 H 2645.01 1.9525 -4.79685 0
M  V30 28555 H 2641.69 3.2796 -2.58357 0
M  V30 28556 H 2643.08 1.9956 -6.4158 0
M  V30 28557 N 2645.8 1.48499 0.527807 0
M  V30 28558 C 2647.08 1.47117 1.28902 0
M  V30 28559 C 2647.46 0.184044 2.10296 0
M  V30 28560 O 2646.8 -0.834181 2.12729 0
M  V30 28561 C 2647.01 2.73445 2.16861 0
M  V30 28562 C 2648.36 3.21861 2.7693 0
M  V30 28563 O 2649.39 2.74377 2.27147 0
M  V30 28564 O 2648.24 4.04492 3.67489 0
M  V30 28565 H 2645.34 0.587633 0.581907 0
M  V30 28566 H 2647.88 1.60735 0.544282 0
M  V30 28567 H 2646.66 3.58635 1.56515 0
M  V30 28568 H 2646.28 2.62558 2.98578 0
M  V30 28569 N 2647.28 -0.776847 1.37123 0
M  V30 28570 C 2648.69 -1.07669 1.17812 0
M  V30 28571 C 2648.89 -2.01497 0.0107808 0
M  V30 28572 O 2647.95 -2.43971 -0.650714 0
M  V30 28573 C 2649.26 -1.67908 2.49454 0
M  V30 28574 C 2650.81 -1.80191 2.5593 0
M  V30 28575 C 2651.29 -2.43844 3.87691 0
M  V30 28576 N 2652.78 -2.513 3.89105 0
M  V30 28577 C 2653.51 -3.01392 4.87802 0
M  V30 28578 N 2653.01 -3.51695 5.96894 0
M  V30 28579 N 2654.8 -3.00219 4.7521 0
M  V30 28580 H 2646.95 -0.153741 2.11843 0
M  V30 28581 H 2649.21 -0.130828 0.938929 0
M  V30 28582 H 2648.92 -1.06433 3.35209 0
M  V30 28583 H 2648.79 -2.67266 2.66174 0
M  V30 28584 H 2651.18 -2.408 1.70586 0
M  V30 28585 H 2651.26 -0.796027 2.43099 0
M  V30 28586 H 2650.91 -1.83876 4.73447 0
M  V30 28587 H 2650.84 -3.45028 3.97823 0
M  V30 28588 H 2653.33 -2.15695 3.10297 0
M  V30 28589 H 2653.64 -3.88304 6.68162 0
M  V30 28590 H 2651.99 -3.49813 6.00546 0
M  V30 28591 H 2655.18 -2.60217 3.89108 0
M  V30 28592 H 2655.35 -3.38948 5.52285 0
M  V30 28593 N 2648.76 -1.2161 -1.00244 0
M  V30 28594 C 2649.69 -0.920929 -2.08792 0
M  V30 28595 C 2650.67 0.132524 -1.62059 0
M  V30 28596 O 2651.85 0.00300347 -1.885 0
M  V30 28597 C 2648.98 -0.383286 -3.36524 0
M  V30 28598 C 2648.02 -1.41994 -4.02169 0
M  V30 28599 S 2648.86 -2.99001 -4.4425 0
M  V30 28600 C 2650.01 -2.4685 -5.75166 0
M  V30 28601 H 2650.25 -1.84014 -2.33508 0
M  V30 28602 H 2647.78 -1.04611 -1.1356 0
M  V30 28603 H 2649.74 -0.0796593 -4.10423 0
M  V30 28604 H 2648.4 0.514657 -3.09855 0
M  V30 28605 H 2647.59 -0.993422 -4.94112 0
M  V30 28606 H 2647.19 -1.67177 -3.34556 0
M  V30 28607 H 2649.48 -1.87496 -6.51039 0
M  V30 28608 H 2650.43 -3.37246 -6.22632 0
M  V30 28609 H 2650.84 -1.8847 -5.32108 0
M  V30 28610 N 2650.23 1.19778 -1.02425 0
M  V30 28611 C 2651.18 2.22836 -0.601062 0
M  V30 28612 C 2652.15 1.61629 0.382772 0
M  V30 28613 O 2653.34 1.88727 0.280481 0
M  V30 28614 C 2650.48 3.45068 0.0467148 0
M  V30 28615 C 2649.59 4.20677 -0.982604 0
M  V30 28616 C 2648.72 5.30323 -0.305075 0
M  V30 28617 C 2647.76 5.97684 -1.32062 0
M  V30 28618 N 2646.9 6.98903 -0.669228 0
M  V30 28619 H 2651.74 2.58393 -1.48448 0
M  V30 28620 H 2649.28 1.26959 -0.742958 0
M  V30 28621 H 2651.23 4.14879 0.439484 0
M  V30 28622 H 2649.86 3.10181 0.893742 0
M  V30 28623 H 2648.92 3.49857 -1.49347 0
M  V30 28624 H 2650.23 4.6692 -1.75464 0
M  V30 28625 H 2649.38 6.06532 0.142786 0
M  V30 28626 H 2648.12 4.85138 0.499197 0
M  V30 28627 H 2647.13 5.2023 -1.7788 0
M  V30 28628 H 2648.35 6.44953 -2.12631 0
M  V30 28629 H 2646.3 6.55899 0.115037 0
M  V30 28630 H 2646.21 7.43313 -1.37921 0
M  V30 28631 H 2647.48 7.79114 -0.245213 0
M  V30 28632 N 2651.71 0.801501 1.35697 0
M  V30 28633 C 2653.13 0.484623 1.52064 0
M  V30 28634 C 2653.33 -0.995053 1.75217 0
M  V30 28635 O 2652.38 -1.78023 1.79065 0
M  V30 28636 C 2653.7 1.32557 2.69906 0
M  V30 28637 C 2655.24 1.32049 2.83782 0
M  V30 28638 C 2655.72 2.14544 4.04642 0
M  V30 28639 N 2657.21 2.12053 4.1181 0
M  V30 28640 C 2657.95 2.72645 5.04433 0
M  V30 28641 N 2657.44 3.42144 6.0242 0
M  V30 28642 N 2659.23 2.62314 4.9714 0
M  V30 28643 H 2651.39 1.75985 1.18925 0
M  V30 28644 H 2653.65 0.748752 0.581442 0
M  V30 28645 H 2653.35 2.37541 2.59359 0
M  V30 28646 H 2653.23 0.975245 3.64375 0
M  V30 28647 H 2655.62 0.278511 2.93783 0
M  V30 28648 H 2655.7 1.71065 1.90185 0
M  V30 28649 H 2655.34 3.18779 3.95402 0
M  V30 28650 H 2655.27 1.72891 4.9741 0
M  V30 28651 H 2657.76 1.61482 3.41661 0
M  V30 28652 H 2658.07 3.85677 6.69681 0
M  V30 28653 H 2656.42 3.46248 6.02609 0
M  V30 28654 H 2659.61 2.0761 4.19542 0
M  V30 28655 H 2659.78 3.09825 5.69133 0
M  V30 28656 N 2653.19 -1.47521 0.554558 0
M  V30 28657 C 2654.15 -2.28459 -0.184134 0
M  V30 28658 C 2655.15 -1.36797 -0.84517 0
M  V30 28659 O 2656.34 -1.59454 -0.701439 0
M  V30 28660 C 2653.47 -3.16401 -1.26898 0
M  V30 28661 H 2654.67 -2.95237 0.526803 0
M  V30 28662 H 2652.22 -1.53167 0.311402 0
M  V30 28663 H 2652.96 -2.54309 -2.01239 0
M  V30 28664 H 2652.74 -3.83856 -0.799816 0
M  V30 28665 H 2654.23 -3.77392 -1.78788 0
M  V30 28666 N 2654.67 -0.290879 -1.54892 0
M  V30 28667 C 2655.6 0.623197 -2.20565 0
M  V30 28668 C 2656.61 1.10537 -1.19521 0
M  V30 28669 O 2657.8 1.02457 -1.46167 0
M  V30 28670 C 2654.9 1.86396 -2.83037 0
M  V30 28671 C 2654.07 1.52597 -4.09918 0
M  V30 28672 C 2653.13 2.62083 -4.56288 0
M  V30 28673 O 2652.16 2.27602 -5.21714 0
M  V30 28674 N 2653.36 3.92438 -4.27753 0
M  V30 28675 H 2656.13 0.0610388 -2.99638 0
M  V30 28676 H 2653.69 -0.112643 -1.61508 0
M  V30 28677 H 2655.68 2.58968 -3.10995 0
M  V30 28678 H 2654.25 2.33477 -2.07864 0
M  V30 28679 H 2653.47 0.633356 -3.89079 0
M  V30 28680 H 2654.76 1.27539 -4.92556 0
M  V30 28681 H 2654.16 4.23265 -3.75317 0
M  V30 28682 H 2652.71 4.61339 -4.60445 0
M  V30 28683 N 2656.15 1.57589 -0.0184203 0
M  V30 28684 C 2657.08 2.06451 0.99552 0
M  V30 28685 C 2658.09 0.985871 1.29555 0
M  V30 28686 O 2659.28 1.26229 1.26208 0
M  V30 28687 C 2656.38 2.46506 2.32568 0
M  V30 28688 C 2655.55 3.77323 2.21238 0
M  V30 28689 C 2654.61 4.04045 3.37097 0
M  V30 28690 O 2653.64 4.74451 3.1446 0
M  V30 28691 N 2654.84 3.5338 4.60547 0
M  V30 28692 H 2657.6 2.9406 0.578694 0
M  V30 28693 H 2655.17 1.6102 0.168575 0
M  V30 28694 H 2657.16 2.61483 3.08883 0
M  V30 28695 H 2655.73 1.6432 2.65928 0
M  V30 28696 H 2654.95 3.72246 1.29717 0
M  V30 28697 H 2656.24 4.6305 2.1086 0
M  V30 28698 H 2655.63 2.964 4.81834 0
M  V30 28699 H 2654.19 3.73654 5.34066 0
M  V30 28700 N 2657.62 -0.254594 1.5553 0
M  V30 28701 C 2658.53 -1.33674 1.92791 0
M  V30 28702 C 2659.55 -1.5307 0.827383 0
M  V30 28703 O 2660.73 -1.66841 1.1281 0
M  V30 28704 C 2657.79 -2.67272 2.20832 0
M  V30 28705 C 2656.85 -2.56464 3.44274 0
M  V30 28706 C 2656.08 -3.83691 3.70968 0
M  V30 28707 O 2656.31 -4.85221 2.99861 0
M  V30 28708 O 2655.24 -3.82786 4.64498 0
M  V30 28709 H 2659.07 -1.05066 2.84947 0
M  V30 28710 H 2656.65 -0.454698 1.42313 0
M  V30 28711 H 2658.53 -3.46233 2.4021 0
M  V30 28712 H 2657.21 -2.95627 1.31856 0
M  V30 28713 H 2656.12 -1.75815 3.30212 0
M  V30 28714 H 2657.45 -2.33055 4.33528 0
M  V30 28715 N 2659.1 -1.48777 -0.519925 0
M  V30 28716 C 2660.33 -1.60984 -1.29968 0
M  V30 28717 C 2660.74 -0.273917 -1.86802 0
M  V30 28718 O 2660.1 0.738164 -1.66905 0
M  V30 28719 C 2660.15 -2.6642 -2.44342 0
M  V30 28720 O 2659.87 -3.94828 -1.89848 0
M  V30 28721 C 2661.37 -2.89159 -3.36009 0
M  V30 28722 H 2658.59 -0.542503 -0.394882 0
M  V30 28723 H 2661.14 -1.94677 -0.62618 0
M  V30 28724 H 2659.29 -2.35557 -3.07557 0
M  V30 28725 H 2659.71 -4.52755 -2.6479 0
M  V30 28726 H 2661.18 -3.6671 -4.12586 0
M  V30 28727 H 2661.66 -1.98358 -3.91855 0
M  V30 28728 H 2662.26 -3.21364 -2.78577 0
M  V30 28729 N 2660.58 0.769564 -1.37534 0
M  V30 28730 C 2661.53 1.88291 -1.33474 0
M  V30 28731 C 2662.5 1.64892 -0.19992 0
M  V30 28732 O 2663.68 1.86779 -0.389627 0
M  V30 28733 C 2660.82 3.25384 -1.14974 0
M  V30 28734 C 2659.93 3.60722 -2.37704 0
M  V30 28735 C 2659.07 4.87036 -2.1206 0
M  V30 28736 C 2658.11 5.15112 -3.30646 0
M  V30 28737 N 2657.25 6.32615 -3.04538 0
M  V30 28738 H 2662.09 1.91096 -2.28662 0
M  V30 28739 H 2659.62 0.934238 -1.13624 0
M  V30 28740 H 2661.58 4.04471 -1.02268 0
M  V30 28741 H 2660.21 3.21948 -0.23432 0
M  V30 28742 H 2659.26 2.76603 -2.61142 0
M  V30 28743 H 2660.57 3.77407 -3.26137 0
M  V30 28744 H 2659.73 5.74032 -1.96398 0
M  V30 28745 H 2658.47 4.7246 -1.20968 0
M  V30 28746 H 2657.47 4.26591 -3.46844 0
M  V30 28747 H 2658.7 5.31595 -4.22591 0
M  V30 28748 H 2656.64 6.19392 -2.16077 0
M  V30 28749 H 2656.56 6.49725 -3.86515 0
M  V30 28750 H 2657.83 7.22541 -2.92498 0
M  V30 28751 N 2662.06 1.22139 0.995977 0
M  V30 28752 C 2663.28 1.07113 1.77599 0
M  V30 28753 C 2663.71 -0.374232 1.8434 0
M  V30 28754 O 2663.07 -1.27026 1.29361 0
M  V30 28755 C 2663.11 1.68341 3.18894 0
M  V30 28756 O 2662.22 0.934998 4.01661 0
M  V30 28757 H 2661.56 0.376406 0.547005 0
M  V30 28758 H 2664.09 1.61872 1.25134 0
M  V30 28759 H 2664.1 1.72937 3.69536 0
M  V30 28760 H 2662.77 2.73521 3.13303 0
M  V30 28761 H 2661.35 0.964814 3.60202 0
M  V30 28762 N 2663.54 -1.19233 1.03059 0
M  V30 28763 C 2664.76 -1.92916 0.747731 0
M  V30 28764 C 2665.18 -1.75594 -0.693689 0
M  V30 28765 O 2664.54 -1.07896 -1.47189 0
M  V30 28766 C 2664.59 -3.44623 1.09165 0
M  V30 28767 O 2664.31 -3.6139 2.47647 0
M  V30 28768 C 2665.81 -4.35425 0.83184 0
M  V30 28769 H 2663.03 -0.612747 0.273464 0
M  V30 28770 H 2665.57 -1.51324 1.37554 0
M  V30 28771 H 2663.73 -3.84042 0.508987 0
M  V30 28772 H 2664.14 -4.55232 2.60507 0
M  V30 28773 H 2665.62 -5.40468 1.12243 0
M  V30 28774 H 2666.09 -4.38578 -0.233692 0
M  V30 28775 H 2666.7 -4.0169 1.39732 0
M  V30 28776 N 2665.01 -0.808686 -1.3527 0
M  V30 28777 C 2666.26 -0.390616 -1.99003 0
M  V30 28778 C 2666.59 1.04007 -1.64001 0
M  V30 28779 O 2665.87 1.72194 -0.904398 0
M  V30 28780 C 2666.15 -0.576629 -3.55453 0
M  V30 28781 C 2666 -2.0524 -4.00246 0
M  V30 28782 C 2667.32 -0.00362013 -4.401 0
M  V30 28783 H 2664.44 -0.143401 -0.722914 0
M  V30 28784 H 2667.08 -1.01861 -1.60388 0
M  V30 28785 H 2665.23 -0.0420449 -3.88477 0
M  V30 28786 H 2666.91 -2.64952 -3.77621 0
M  V30 28787 H 2665.15 -2.54807 -3.51078 0
M  V30 28788 H 2665.82 -2.13342 -5.09106 0
M  V30 28789 H 2668.3 -0.460189 -4.13547 0
M  V30 28790 H 2667.17 -0.163672 -5.48656 0
M  V30 28791 H 2667.43 1.09025 -4.28446 0
M  V30 28792 N 2666.49 1.47225 -0.562374 0
M  V30 28793 C 2667.46 2.28554 0.172016 0
M  V30 28794 C 2668.46 1.37244 0.837904 0
M  V30 28795 O 2669.65 1.59823 0.692973 0
M  V30 28796 C 2666.78 3.1707 1.25218 0
M  V30 28797 H 2667.97 2.94953 -0.542453 0
M  V30 28798 H 2665.52 1.52999 -0.31952 0
M  V30 28799 H 2666.26 2.55373 1.99888 0
M  V30 28800 H 2666.04 3.84275 0.779448 0
M  V30 28801 H 2667.53 3.78335 1.76784 0
M  V30 28802 N 2667.97 0.299089 1.54736 0
M  V30 28803 C 2669.22 -0.311209 2.00398 0
M  V30 28804 C 2669.55 -1.53686 1.18719 0
M  V30 28805 O 2668.82 -1.92711 0.263188 0
M  V30 28806 C 2669.11 -0.669698 3.53818 0
M  V30 28807 C 2668.96 0.564961 4.46238 0
M  V30 28808 C 2670.28 -1.49695 4.13859 0
M  V30 28809 H 2667.4 -0.11164 0.728495 0
M  V30 28810 H 2670.04 0.410807 1.85506 0
M  V30 28811 H 2668.19 -1.28484 3.66639 0
M  V30 28812 H 2669.86 1.20345 4.45326 0
M  V30 28813 H 2668.11 1.19856 4.16914 0
M  V30 28814 H 2668.78 0.270015 5.51339 0
M  V30 28815 H 2671.25 -0.977213 4.04462 0
M  V30 28816 H 2670.13 -1.71657 5.21368 0
M  V30 28817 H 2670.39 -2.48556 3.65612 0
M  V30 28818 N 2669.45 -1.57577 0.0267774 0
M  V30 28819 C 2670.4 -2.1123 -0.973886 0
M  V30 28820 C 2671.39 -1.03834 -1.33847 0
M  V30 28821 O 2672.6 -1.22271 -1.32097 0
M  V30 28822 H 2668.97 -0.674827 -0.331832 0
M  V30 28823 H 2670.94 -2.94248 -0.49604 0
M  V30 28824 C 2669.69 -2.65261 -2.24794 0
M  V30 28825 H 2669.01 -3.47547 -1.97614 0
M  V30 28826 H 2670.45 -3.0645 -2.93026 0
M  V30 28827 C 2668.91 -1.57896 -2.97608 0
M  V30 28828 O 2669.44 -0.977419 -3.89627 0
M  V30 28829 N 2667.65 -1.29997 -2.59902 0
M  V30 28830 H 2667.2 -1.791 -1.85151 0
M  V30 28831 H 2667.15 -0.583852 -3.08931 0
M  V30 28832 N 2670.93 0.246342 -1.55663 0
M  V30 28833 C 2671.86 1.3314 -1.85335 0
M  V30 28834 C 2672.84 1.46353 -0.70849 0
M  V30 28835 O 2674.02 1.62559 -0.954303 0
M  V30 28836 C 2671.15 2.70483 -2.03854 0
M  V30 28837 C 2670.19 2.74417 -3.26493 0
M  V30 28838 S 2671.03 2.3097 -4.83128 0
M  V30 28839 C 2672.18 3.70237 -5.04654 0
M  V30 28840 H 2672.42 1.07772 -2.77078 0
M  V30 28841 H 2669.95 0.447354 -1.47777 0
M  V30 28842 H 2671.91 3.49565 -2.15208 0
M  V30 28843 H 2670.57 2.93088 -1.12952 0
M  V30 28844 H 2669.76 3.75284 -3.36419 0
M  V30 28845 H 2669.36 2.03379 -3.13868 0
M  V30 28846 H 2671.66 4.65738 -4.92031 0
M  V30 28847 H 2672.6 3.65245 -6.06632 0
M  V30 28848 H 2673.01 3.62776 -4.32497 0
M  V30 28849 N 2672.4 1.4905 0.512027 0
M  V30 28850 C 2673.35 1.65376 1.63566 0
M  V30 28851 C 2674.35 0.519834 1.61227 0
M  V30 28852 O 2675.55 0.69913 1.65868 0
M  V30 28853 H 2671.93 0.521276 0.54201 0
M  V30 28854 H 2673.9 2.59711 1.46945 0
M  V30 28855 C 2672.65 1.72735 3.01758 0
M  V30 28856 H 2671.97 2.59358 3.04259 0
M  V30 28857 H 2673.41 1.88196 3.79945 0
M  V30 28858 C 2671.87 0.469789 3.33608 0
M  V30 28859 O 2672.4 -0.409421 3.99608 0
M  V30 28860 N 2670.61 0.336053 2.8865 0
M  V30 28861 H 2670.15 1.05251 2.35117 0
M  V30 28862 H 2670.11 -0.504309 3.10329 0
M  V30 28863 N 2673.88 -0.762259 1.3794 0
M  V30 28864 C 2675.16 -1.5111 1.24198 0
M  V30 28865 C 2675.54 -2.1049 -0.160372 0
M  V30 28866 O 2674.89 -1.96333 -1.169 0
M  V30 28867 C 2675.1 -2.5844 2.34541 0
M  V30 28868 C 2676.45 -3.25583 2.72545 0
M  V30 28869 O 2677.47 -2.68741 2.33788 0
M  V30 28870 O 2676.33 -4.28373 3.3935 0
M  V30 28871 H 2673.42 -0.669718 0.485187 0
M  V30 28872 H 2675.97 -0.798412 1.49745 0
M  V30 28873 H 2674.74 -2.1275 3.2841 0
M  V30 28874 H 2674.36 -3.37299 2.10511 0
M  V30 28875 N 2675.36 -1.22666 -0.989486 0
M  V30 28876 C 2676.29 -1.02407 -2.09845 0
M  V30 28877 C 2677.27 0.0561004 -1.70007 0
M  V30 28878 O 2678.46 -0.106782 -1.93906 0
M  V30 28879 C 2675.59 -0.604723 -3.41995 0
M  V30 28880 C 2674.54 -1.63122 -3.95696 0
M  V30 28881 C 2673.87 -1.06759 -5.23934 0
M  V30 28882 C 2675.17 -3.02204 -4.25993 0
M  V30 28883 H 2676.86 -1.95162 -2.27051 0
M  V30 28884 H 2674.41 -0.939747 -1.09109 0
M  V30 28885 H 2676.36 -0.450093 -4.18989 0
M  V30 28886 H 2675.08 0.358493 -3.24627 0
M  V30 28887 H 2673.74 -1.77368 -3.20837 0
M  V30 28888 H 2673.39 -0.0956306 -5.02909 0
M  V30 28889 H 2673.09 -1.75338 -5.6083 0
M  V30 28890 H 2674.61 -0.924622 -6.03559 0
M  V30 28891 H 2676.03 -2.91311 -4.93772 0
M  V30 28892 H 2674.43 -3.67938 -4.74069 0
M  V30 28893 H 2675.5 -3.51879 -3.3363 0
M  V30 28894 N 2676.84 1.18685 -1.0369 0
M  V30 28895 C 2678.09 1.88198 -0.736605 0
M  V30 28896 C 2678.41 1.8051 0.737633 0
M  V30 28897 O 2677.68 1.22091 1.53201 0
M  V30 28898 H 2676.26 0.6967 -0.269479 0
M  V30 28899 H 2678.92 1.4405 -1.31285 0
M  V30 28900 H 2678.02 2.9433 -1.03807 0
M  V30 28901 N 2678.32 0.815849 1.34839 0
M  V30 28902 C 2679.54 0.412296 2.03261 0
M  V30 28903 C 2679.97 -0.971723 1.61056 0
M  V30 28904 O 2679.33 -1.63099 0.791729 0
M  V30 28905 C 2679.37 0.514351 3.56913 0
M  V30 28906 O 2678.48 -0.468603 4.09729 0
M  V30 28907 H 2677.82 0.170782 0.641661 0
M  V30 28908 H 2680.35 1.1043 1.72239 0
M  V30 28909 H 2680.36 0.387528 4.06155 0
M  V30 28910 H 2679.03 1.52381 3.86979 0
M  V30 28911 H 2677.61 -0.301251 3.71681 0
M  V30 28912 N 2679.8 -1.46924 0.570174 0
M  V30 28913 C 2680.73 -2.28255 -0.207868 0
M  V30 28914 C 2681.74 -1.37776 -0.867277 0
M  V30 28915 O 2682.93 -1.62486 -0.738948 0
M  V30 28916 C 2680.03 -3.12435 -1.31292 0
M  V30 28917 C 2679.2 -4.3096 -0.747839 0
M  V30 28918 C 2678.26 -4.96633 -1.73901 0
M  V30 28919 O 2677.29 -5.54621 -1.28001 0
M  V30 28920 N 2678.49 -4.92503 -3.0728 0
M  V30 28921 H 2681.25 -2.9567 0.489846 0
M  V30 28922 H 2678.82 -1.56698 0.407104 0
M  V30 28923 H 2680.81 -3.53236 -1.97501 0
M  V30 28924 H 2679.38 -2.47178 -1.91368 0
M  V30 28925 H 2678.6 -3.94094 0.0913759 0
M  V30 28926 H 2679.89 -5.07596 -0.349869 0
M  V30 28927 H 2679.28 -4.46615 -3.47206 0
M  V30 28928 H 2677.84 -5.37284 -3.69011 0
M  V30 28929 N 2681.27 -0.307291 -1.54575 0
M  V30 28930 C 2682.68 0.184088 -1.8579 0
M  V30 28931 C 2683.04 1.52925 -1.22916 0
M  V30 28932 O 2682.16 2.0983 -0.529163 0
M  V30 28933 C 2682.76 0.340803 -3.37082 0
M  V30 28934 C 2681.31 0.776401 -3.68306 0
M  V30 28935 C 2680.46 -0.111551 -2.77076 0
M  V30 28936 H 2683.41 -0.528105 -1.49655 0
M  V30 28937 H 2683.43 1.17437 -3.61924 0
M  V30 28938 H 2682.95 -0.638376 -3.82814 0
M  V30 28939 H 2681.05 1.76591 -3.28095 0
M  V30 28940 H 2681.16 0.591429 -4.75436 0
M  V30 28941 H 2679.52 0.410212 -2.51375 0
M  V30 28942 H 2680.31 -1.0872 -3.2563 0
M  V30 28943 N 2682.75 1.57561 -0.0351337 0
M  V30 28944 C 2683.7 2.07082 0.953998 0
M  V30 28945 C 2684.69 0.97258 1.28178 0
M  V30 28946 O 2685.88 1.23608 1.26689 0
M  V30 28947 C 2683.01 2.60635 2.23437 0
M  V30 28948 C 2682.09 3.774 1.93469 0
M  V30 28949 N 2682.48 4.87784 1.33794 0
M  V30 28950 C 2680.78 3.86 2.23427 0
M  V30 28951 C 2681.48 5.68956 1.21093 0
M  V30 28952 N 2680.46 5.16055 1.70846 0
M  V30 28953 H 2684.26 2.89826 0.48768 0
M  V30 28954 H 2681.77 1.61511 0.169731 0
M  V30 28955 H 2683.77 2.94407 2.95178 0
M  V30 28956 H 2682.43 1.79324 2.7069 0
M  V30 28957 H 2683.44 5.07913 1.01218 0
M  V30 28958 H 2680.12 3.15606 2.73312 0
M  V30 28959 H 2681.51 6.67712 0.748987 0
M  V30 28960 N 2684.23 -0.238084 1.55791 0
M  V30 28961 C 2685.14 -1.31621 1.94198 0
M  V30 28962 C 2686.16 -1.52184 0.843572 0
M  V30 28963 O 2687.33 -1.65635 1.14573 0
M  V30 28964 C 2684.4 -2.64914 2.23654 0
M  V30 28965 C 2683.46 -2.52798 3.46975 0
M  V30 28966 C 2682.69 -3.79734 3.75017 0
M  V30 28967 O 2682.91 -4.82014 3.0499 0
M  V30 28968 O 2681.85 -3.77838 4.68532 0
M  V30 28969 H 2685.67 -1.02038 2.86045 0
M  V30 28970 H 2683.26 -0.439578 1.42787 0
M  V30 28971 H 2685.14 -3.43665 2.43869 0
M  V30 28972 H 2683.82 -2.94212 1.34984 0
M  V30 28973 H 2682.72 -1.72303 3.32058 0
M  V30 28974 H 2684.06 -2.28443 4.35975 0
M  V30 28975 N 2685.71 -1.4932 -0.504115 0
M  V30 28976 C 2686.98 -1.49149 -1.26546 0
M  V30 28977 C 2687.36 -0.217477 -2.09977 0
M  V30 28978 O 2686.71 0.800232 -2.14029 0
M  V30 28979 C 2686.92 -2.7686 -2.12484 0
M  V30 28980 C 2688.27 -3.26226 -2.71775 0
M  V30 28981 O 2689.29 -2.77956 -2.22753 0
M  V30 28982 O 2688.15 -4.10287 -3.61008 0
M  V30 28983 H 2685.25 -0.596817 -0.572485 0
M  V30 28984 H 2687.79 -1.6158 -0.518642 0
M  V30 28985 H 2686.57 -3.61079 -1.50789 0
M  V30 28986 H 2686.19 -2.67275 -2.94364 0
M  V30 28987 N 2687.19 0.754933 -1.38342 0
M  V30 28988 C 2688.6 1.05781 -1.1951 0
M  V30 28989 C 2688.8 2.01454 -0.0428359 0
M  V30 28990 O 2687.86 2.44976 0.611817 0
M  V30 28991 C 2689.17 1.63919 -2.52094 0
M  V30 28992 C 2690.72 1.76096 -2.58765 0
M  V30 28993 C 2691.19 2.37645 -3.91521 0
M  V30 28994 N 2692.68 2.45078 -3.93054 0
M  V30 28995 C 2693.42 2.93593 -4.92535 0
M  V30 28996 N 2692.92 3.42154 -6.02414 0
M  V30 28997 N 2694.71 2.92621 -4.79926 0
M  V30 28998 H 2686.86 0.120019 -2.12061 0
M  V30 28999 H 2689.12 0.115874 -0.940892 0
M  V30 29000 H 2688.83 1.01087 -3.36859 0
M  V30 29001 H 2688.7 2.62998 -2.70392 0
M  V30 29002 H 2691.09 2.38055 -1.74395 0
M  V30 29003 H 2691.17 0.757251 -2.44335 0
M  V30 29004 H 2690.81 1.7632 -4.76312 0
M  V30 29005 H 2690.74 3.38655 -4.03262 0
M  V30 29006 H 2693.24 2.10731 -3.13689 0
M  V30 29007 H 2693.55 3.77625 -6.74255 0
M  V30 29008 H 2691.89 3.40215 -6.06036 0
M  V30 29009 H 2695.08 2.53994 -3.93198 0
M  V30 29010 H 2695.26 3.30118 -5.57607 0
M  V30 29011 N 2688.66 1.23189 0.982967 0
M  V30 29012 C 2689.57 1.02743 2.10905 0
M  V30 29013 C 2690.59 -0.0272883 1.73979 0
M  V30 29014 O 2691.77 0.167605 2.00701 0
M  V30 29015 C 2688.83 0.618364 3.41141 0
M  V30 29016 C 2687.89 1.74784 3.92109 0
M  V30 29017 C 2687.12 1.35819 5.16129 0
M  V30 29018 O 2687.35 0.241301 5.69889 0
M  V30 29019 O 2686.28 2.17834 5.61099 0
M  V30 29020 H 2690.11 1.97112 2.31042 0
M  V30 29021 H 2687.69 1.01871 1.09282 0
M  V30 29022 H 2689.57 0.401056 4.19487 0
M  V30 29023 H 2688.25 -0.296364 3.2234 0
M  V30 29024 H 2687.16 2.01976 3.14891 0
M  V30 29025 H 2688.49 2.64079 4.15359 0
M  V30 29026 N 2690.14 -1.18133 1.04318 0
M  V30 29027 C 2691.55 -1.6983 0.775535 0
M  V30 29028 C 2691.9 -1.83161 -0.703316 0
M  V30 29029 O 2691.03 -1.5129 -1.54726 0
M  V30 29030 C 2691.62 -3.08468 1.40118 0
M  V30 29031 C 2690.18 -3.57366 1.18179 0
M  V30 29032 C 2689.33 -2.33851 1.49026 0
M  V30 29033 H 2692.28 -1.02773 1.20927 0
M  V30 29034 H 2692.3 -3.71871 0.805737 0
M  V30 29035 H 2691.81 -2.98734 2.4775 0
M  V30 29036 H 2689.91 -3.72393 0.124324 0
M  V30 29037 H 2690.03 -4.40649 1.88058 0
M  V30 29038 H 2688.39 -2.37887 0.910037 0
M  V30 29039 H 2689.17 -2.26734 2.57772 0
M  V30 29040 N 2691.62 -0.822988 -1.34405 0
M  V30 29041 C 2692.87 -0.411701 -1.98577 0
M  V30 29042 C 2693.2 1.02262 -1.65095 0
M  V30 29043 O 2692.47 1.71225 -0.922611 0
M  V30 29044 C 2692.76 -0.614297 -3.54822 0
M  V30 29045 C 2692.61 -2.09473 -3.98046 0
M  V30 29046 C 2693.93 -0.0502984 -4.40071 0
M  V30 29047 H 2691.05 -0.15106 -0.721353 0
M  V30 29048 H 2693.69 -1.03556 -1.59299 0
M  V30 29049 H 2691.84 -0.0832457 -3.88411 0
M  V30 29050 H 2693.51 -2.68943 -3.7479 0
M  V30 29051 H 2691.76 -2.58516 -3.48356 0
M  V30 29052 H 2692.43 -2.1873 -5.06815 0
M  V30 29053 H 2694.9 -0.504026 -4.13036 0
M  V30 29054 H 2693.78 -0.221855 -5.48451 0
M  V30 29055 H 2694.04 1.04475 -4.29578 0
M  V30 29056 N 2693.1 1.4662 -0.577957 0
M  V30 29057 C 2694.38 1.95599 0.00491849 0
M  V30 29058 C 2694.76 1.52062 1.46425 0
M  V30 29059 O 2694.1 0.769083 2.15168 0
M  V30 29060 C 2694.31 3.48623 -0.162176 0
M  V30 29061 C 2695.66 4.24591 -0.027537 0
M  V30 29062 O 2696.69 3.56084 -0.0907693 0
M  V30 29063 O 2695.54 5.46385 0.112104 0
M  V30 29064 H 2692.64 0.825332 0.0524912 0
M  V30 29065 H 2695.18 1.56926 -0.645942 0
M  V30 29066 H 2693.96 3.73183 -1.17686 0
M  V30 29067 H 2693.58 3.94114 0.525337 0
M  V30 29068 N 2694.58 0.315484 1.5441 0
M  V30 29069 C 2695.99 -0.174233 1.85885 0
M  V30 29070 C 2696.34 -1.52271 1.23726 0
M  V30 29071 O 2695.46 -2.09547 0.540283 0
M  V30 29072 C 2696.06 -0.322922 3.37258 0
M  V30 29073 C 2694.62 -0.756857 3.68712 0
M  V30 29074 C 2693.76 0.126244 2.77012 0
M  V30 29075 H 2696.72 0.536034 1.49373 0
M  V30 29076 H 2696.74 -1.15516 3.62541 0
M  V30 29077 H 2696.25 0.658669 3.8247 0
M  V30 29078 H 2694.35 -1.74848 3.29027 0
M  V30 29079 H 2694.46 -0.566207 4.75742 0
M  V30 29080 H 2692.83 -0.396875 2.51589 0
M  V30 29081 H 2693.61 1.10445 3.25049 0
M  V30 29082 N 2696.05 -1.5754 0.0434891 0
M  V30 29083 C 2697.28 -1.96694 -0.641801 0
M  V30 29084 C 2697.7 -0.920681 -1.6483 0
M  V30 29085 O 2697.05 0.0959609 -1.82248 0
M  V30 29086 C 2697.11 -3.35926 -1.33551 0
M  V30 29087 O 2696.83 -4.3654 -0.369326 0
M  V30 29088 C 2698.33 -3.89795 -2.11128 0
M  V30 29089 H 2695.55 -0.647506 -0.176001 0
M  V30 29090 H 2698.09 -2.04217 0.107513 0
M  V30 29091 H 2696.25 -3.29577 -2.03611 0
M  V30 29092 H 2696.66 -5.17342 -0.863583 0
M  V30 29093 H 2698.13 -4.89519 -2.55099 0
M  V30 29094 H 2698.61 -3.24808 -2.95629 0
M  V30 29095 H 2699.22 -3.99457 -1.45995 0
M  V30 29096 N 2697.53 0.229818 -1.55915 0
M  V30 29097 C 2698.76 0.97253 -1.82618 0
M  V30 29098 C 2699.18 1.78277 -0.62152 0
M  V30 29099 O 2698.53 1.77837 0.409925 0
M  V30 29100 C 2698.58 1.89674 -3.07744 0
M  V30 29101 O 2698.3 1.11926 -4.23561 0
M  V30 29102 C 2699.81 2.75403 -3.47373 0
M  V30 29103 H 2697.03 0.285408 -0.607275 0
M  V30 29104 H 2699.57 0.247543 -2.02996 0
M  V30 29105 H 2697.72 2.57578 -2.89365 0
M  V30 29106 H 2698.14 1.7459 -4.94589 0
M  V30 29107 H 2699.61 3.35969 -4.37982 0
M  V30 29108 H 2700.09 3.47381 -2.68743 0
M  V30 29109 H 2700.7 2.12925 -3.68162 0
M  V30 29110 N 2699.01 1.49585 0.49619 0
M  V30 29111 C 2699.96 1.66609 1.59719 0
M  V30 29112 C 2700.93 0.507504 1.58157 0
M  V30 29113 O 2702.11 0.735107 1.7607 0
M  V30 29114 C 2699.25 1.74313 2.97841 0
M  V30 29115 C 2698.37 3.01507 3.09382 0
M  V30 29116 C 2697.5 3.0016 4.38266 0
M  V30 29117 C 2696.54 4.21914 4.43458 0
M  V30 29118 N 2695.68 4.1845 5.63777 0
M  V30 29119 H 2700.52 2.60616 1.44511 0
M  V30 29120 H 2698.05 1.29213 0.703026 0
M  V30 29121 H 2700.01 1.7676 3.77904 0
M  V30 29122 H 2698.64 0.837674 3.11742 0
M  V30 29123 H 2697.69 3.08648 2.22352 0
M  V30 29124 H 2699.01 3.915 3.09079 0
M  V30 29125 H 2698.16 3.01198 5.26654 0
M  V30 29126 H 2696.9 2.07954 4.41142 0
M  V30 29127 H 2695.9 4.21116 3.53471 0
M  V30 29128 H 2697.13 5.15318 4.42294 0
M  V30 29129 H 2695.07 3.29084 5.67486 0
M  V30 29130 H 2694.99 5.02183 5.65109 0
M  V30 29131 H 2696.26 4.23597 6.54359 0
M  V30 29132 N 2700.49 -0.747586 1.3874 0
M  V30 29133 C 2701.74 -1.50389 1.3501 0
M  V30 29134 C 2702.06 -1.94916 -0.0573931 0
M  V30 29135 O 2701.33 -1.68082 -1.00625 0
M  V30 29136 H 2699.91 -0.557857 0.496794 0
M  V30 29137 H 2702.57 -0.888289 1.7348 0
M  V30 29138 H 2701.67 -2.39196 2.00478 0
M  V30 29139 N 2701.97 -1.23709 -0.97642 0
M  V30 29140 C 2703.38 -1.0006 -1.24339 0
M  V30 29141 C 2703.58 0.295897 -1.99316 0
M  V30 29142 O 2702.64 1.01431 -2.31231 0
M  V30 29143 C 2703.95 -2.21005 -2.03905 0
M  V30 29144 C 2705.5 -2.25537 -2.1703 0
M  V30 29145 C 2705.97 -3.4608 -2.99988 0
M  V30 29146 N 2707.47 -3.46343 -3.07572 0
M  V30 29147 C 2708.2 -4.36271 -3.72096 0
M  V30 29148 N 2707.7 -5.3644 -4.38411 0
M  V30 29149 N 2709.49 -4.24004 -3.69022 0
M  V30 29150 H 2701.64 -2.07038 -0.474244 0
M  V30 29151 H 2703.9 -0.908096 -0.272151 0
M  V30 29152 H 2703.61 -3.15114 -1.56192 0
M  V30 29153 H 2703.48 -2.22414 -3.0465 0
M  V30 29154 H 2705.87 -1.31965 -2.63949 0
M  V30 29155 H 2705.95 -2.28158 -1.1566 0
M  V30 29156 H 2705.6 -4.39961 -2.53764 0
M  V30 29157 H 2705.53 -3.40701 -4.01535 0
M  V30 29158 H 2708.02 -2.7387 -2.60392 0
M  V30 29159 H 2708.33 -6.01308 -4.85436 0
M  V30 29160 H 2706.67 -5.40336 -4.37107 0
M  V30 29161 H 2709.87 -3.44989 -3.16386 0
M  V30 29162 H 2710.04 -4.94289 -4.19025 0
M  V30 29163 N 2703.44 1.17579 -1.04943 0
M  V30 29164 C 2704.69 1.88055 -0.759145 0
M  V30 29165 C 2705.02 1.80682 0.711887 0
M  V30 29166 O 2704.3 1.2131 1.52033 0
M  V30 29167 C 2704.58 3.38185 -1.23706 0
M  V30 29168 C 2704.43 3.54322 -2.77084 0
M  V30 29169 C 2705.75 4.32124 -0.83409 0
M  V30 29170 H 2702.87 0.682863 -0.277249 0
M  V30 29171 H 2705.51 1.38284 -1.30298 0
M  V30 29172 H 2703.66 3.80704 -0.774404 0
M  V30 29173 H 2705.34 3.20836 -3.31455 0
M  V30 29174 H 2703.58 2.96684 -3.16482 0
M  V30 29175 H 2704.25 4.59698 -3.05585 0
M  V30 29176 H 2706.73 3.97432 -1.23235 0
M  V30 29177 H 2705.6 5.35709 -1.19613 0
M  V30 29178 H 2705.86 4.41322 0.262117 0
M  V30 29179 N 2704.92 0.830104 1.33967 0
M  V30 29180 C 2705.89 0.26239 2.27693 0
M  V30 29181 C 2706.89 -0.563849 1.5059 0
M  V30 29182 O 2708.08 -0.378911 1.70029 0
M  V30 29183 C 2705.21 -0.631321 3.35003 0
M  V30 29184 H 2706.4 1.08933 2.79417 0
M  V30 29185 H 2703.95 0.602512 1.4422 0
M  V30 29186 H 2704.69 -1.48104 2.88506 0
M  V30 29187 H 2704.47 -0.0402587 3.92079 0
M  V30 29188 H 2705.96 -1.0221 4.04899 0
M  V30 29189 N 2706.4 -1.46311 0.585725 0
M  V30 29190 C 2707.63 -2.0726 0.0762826 0
M  V30 29191 C 2708.05 -1.43111 -1.22069 0
M  V30 29192 O 2707.41 -0.515973 -1.73803 0
M  V30 29193 C 2707.46 -3.60526 -0.072877 0
M  V30 29194 O 2706.56 -3.96656 -1.12863 0
M  V30 29195 H 2705.9 -0.660892 0.0641674 0
M  V30 29196 H 2708.43 -1.87904 0.809525 0
M  V30 29197 H 2708.44 -4.07051 -0.278086 0
M  V30 29198 H 2707.12 -4.06607 0.874259 0
M  V30 29199 H 2705.69 -3.61835 -0.901639 0
M  V30 29200 N 2707.88 -0.323668 -1.54241 0
M  V30 29201 C 2709.13 0.278875 -2.00571 0
M  V30 29202 C 2709.45 1.52134 -1.21184 0
M  V30 29203 O 2708.71 1.93656 -0.282077 0
M  V30 29204 C 2709.01 0.657969 -3.51291 0
M  V30 29205 C 2708.67 -0.485331 -4.4828 0
M  V30 29206 C 2707.34 -0.799139 -4.74518 0
M  V30 29207 C 2709.69 -1.2533 -5.05907 0
M  V30 29208 C 2707.02 -1.88364 -5.5564 0
M  V30 29209 C 2709.37 -2.3279 -5.88211 0
M  V30 29210 C 2708.03 -2.64752 -6.1275 0
M  V30 29211 H 2707.3 0.102047 -0.73394 0
M  V30 29212 H 2709.95 -0.447468 -1.86199 0
M  V30 29213 H 2708.25 1.46474 -3.6339 0
M  V30 29214 H 2709.95 1.13573 -3.8458 0
M  V30 29215 H 2706.54 -0.230668 -4.27979 0
M  V30 29216 H 2710.73 -1.02412 -4.85619 0
M  V30 29217 H 2705.98 -2.13574 -5.72884 0
M  V30 29218 H 2710.16 -2.92741 -6.31883 0
M  V30 29219 H 2707.78 -3.48915 -6.75398 0
M  V30 29220 N 2709.36 1.57515 -0.0518432 0
M  V30 29221 C 2710.58 1.97444 0.634861 0
M  V30 29222 C 2711.01 0.929236 1.63545 0
M  V30 29223 O 2710.37 -0.107452 1.80981 0
M  V30 29224 C 2710.41 3.36445 1.29759 0
M  V30 29225 O 2709.52 3.34417 2.41327 0
M  V30 29226 H 2708.86 0.643177 0.164983 0
M  V30 29227 H 2711.39 2.04245 -0.120442 0
M  V30 29228 H 2711.4 3.73187 1.64912 0
M  V30 29229 H 2710.07 4.12054 0.564288 0
M  V30 29230 H 2708.65 3.09422 2.08117 0
M  V30 29231 N 2710.84 -0.221546 1.56035 0
M  V30 29232 C 2712.08 -0.943985 1.78247 0
M  V30 29233 C 2712.4 -1.855 0.620403 0
M  V30 29234 O 2713.6 -2.61609 0.726149 0
M  V30 29235 C 2712.06 -1.72874 3.15662 0
M  V30 29236 C 2711.67 -0.863865 4.39592 0
M  V30 29237 C 2713.41 -2.4424 3.47199 0
M  V30 29238 C 2711.32 -1.64597 5.68033 0
M  V30 29239 H 2710.25 -0.35621 0.664553 0
M  V30 29240 H 2712.9 -0.197872 1.8243 0
M  V30 29241 H 2711.28 -2.51776 3.05655 0
M  V30 29242 H 2712.46 -0.115383 4.60656 0
M  V30 29243 H 2710.77 -0.262334 4.15573 0
M  V30 29244 H 2713.37 -3.03256 4.40386 0
M  V30 29245 H 2713.71 -3.17125 2.69698 0
M  V30 29246 H 2714.24 -1.72328 3.58536 0
M  V30 29247 H 2710.98 -0.960393 6.48426 0
M  V30 29248 H 2710.5 -2.36907 5.51031 0
M  V30 29249 H 2712.18 -2.20665 6.08207 0
M  V30 29250 N 2712.31 -1.49846 -0.48825 0
M  V30 29251 C 2713.72 -1.5303 -1.06952 0
M  V30 29252 C 2714.08 -0.323831 -1.93509 0
M  V30 29253 O 2713.2 0.565079 -2.08892 0
M  V30 29254 C 2713.8 -2.77311 -1.94639 0
M  V30 29255 C 2712.35 -2.83231 -2.47905 0
M  V30 29256 C 2711.5 -2.47108 -1.25829 0
M  V30 29257 H 2714.45 -1.56359 -0.271598 0
M  V30 29258 H 2714.47 -2.58195 -2.79492 0
M  V30 29259 H 2713.99 -3.65102 -1.31614 0
M  V30 29260 H 2712.09 -1.99751 -3.14532 0
M  V30 29261 H 2712.2 -3.85714 -2.84186 0
M  V30 29262 H 2710.56 -1.99166 -1.58761 0
M  V30 29263 H 2711.35 -3.37188 -0.644934 0
M  V30 29264 N 2713.79 0.740218 -1.39135 0
M  V30 29265 C 2715.04 1.49671 -1.35805 0
M  V30 29266 C 2715.36 1.94943 0.0470554 0
M  V30 29267 O 2714.63 1.68613 0.997318 0
M  V30 29268 H 2713.21 0.555215 -0.499745 0
M  V30 29269 H 2715.87 0.879076 -1.73949 0
M  V30 29270 H 2714.97 2.3813 -2.01744 0
M  V30 29271 N 2715.27 1.24225 0.969846 0
M  V30 29272 C 2716.49 1.10857 1.75287 0
M  V30 29273 C 2716.92 -0.335046 1.85092 0
M  V30 29274 O 2716.28 -1.24253 1.32026 0
M  V30 29275 C 2716.33 1.75068 3.15252 0
M  V30 29276 O 2715.43 1.01999 3.99587 0
M  V30 29277 H 2714.77 0.387924 0.538898 0
M  V30 29278 H 2717.3 1.6449 1.21672 0
M  V30 29279 H 2717.31 1.80737 3.65784 0
M  V30 29280 H 2715.99 2.80105 3.07431 0
M  V30 29281 H 2714.56 1.041 3.58075 0
M  V30 29282 N 2716.75 -1.1702 1.05565 0
M  V30 29283 C 2717.97 -1.91828 0.788471 0
M  V30 29284 C 2718.4 -1.765 -0.650325 0
M  V30 29285 O 2717.76 -1.0853 -1.45227 0
M  V30 29286 C 2717.8 -3.40793 1.17866 0
M  V30 29287 O 2716.91 -4.1121 0.313037 0
M  V30 29288 H 2716.25 -0.597903 0.288805 0
M  V30 29289 H 2718.78 -1.48304 1.4095 0
M  V30 29290 H 2718.79 -3.91544 1.14704 0
M  V30 29291 H 2717.46 -3.51269 2.22672 0
M  V30 29292 H 2716.04 -3.70688 0.40558 0
M  V30 29293 N 2718.23 -0.837197 -1.33524 0
M  V30 29294 C 2719.45 -0.444581 -2.02579 0
M  V30 29295 C 2719.88 0.945977 -1.62582 0
M  V30 29296 O 2719.23 1.61819 -0.817576 0
M  V30 29297 C 2719.28 -0.571068 -3.56049 0
M  V30 29298 O 2718.39 0.403359 -4.10423 0
M  V30 29299 H 2717.73 -0.180969 -0.638863 0
M  V30 29300 H 2720.26 -1.13157 -1.7046 0
M  V30 29301 H 2720.27 -0.452095 -4.05487 0
M  V30 29302 H 2718.94 -1.58519 -3.84506 0
M  V30 29303 H 2717.52 0.242082 -3.72113 0
M  V30 29304 N 2719.7 1.45999 -0.593476 0
M  V30 29305 C 2721.12 1.57534 -0.255992 0
M  V30 29306 C 2721.32 1.58699 1.24164 0
M  V30 29307 O 2720.38 1.50972 2.02395 0
M  V30 29308 C 2721.69 2.8645 -0.914711 0
M  V30 29309 C 2723.24 3.00101 -0.889306 0
M  V30 29310 C 2723.71 4.31768 -1.52777 0
M  V30 29311 N 2725.2 4.38492 -1.4926 0
M  V30 29312 C 2725.94 5.3901 -1.9559 0
M  V30 29313 N 2725.43 6.46144 -2.49941 0
M  V30 29314 N 2727.23 5.30279 -1.86442 0
M  V30 29315 H 2719.38 1.43486 -1.56606 0
M  V30 29316 H 2721.64 0.685122 -0.655219 0
M  V30 29317 H 2721.35 2.91439 -1.96866 0
M  V30 29318 H 2721.22 3.74748 -0.429422 0
M  V30 29319 H 2723.61 2.94687 0.156059 0
M  V30 29320 H 2723.69 2.13251 -1.41272 0
M  V30 29321 H 2723.33 4.37939 -2.57239 0
M  V30 29322 H 2723.26 5.1741 -0.979489 0
M  V30 29323 H 2725.75 3.61675 -1.09542 0
M  V30 29324 H 2726.07 7.1907 -2.83122 0
M  V30 29325 H 2724.41 6.46934 -2.53972 0
M  V30 29326 H 2727.6 4.45488 -1.4373 0
M  V30 29327 H 2727.78 6.08471 -2.22862 0
M  V30 29328 N 2721.18 0.331843 1.54067 0
M  V30 29329 C 2722.41 -0.269569 2.04834 0
M  V30 29330 C 2722.82 -1.45685 1.20716 0
M  V30 29331 O 2722.16 -1.82222 0.232571 0
M  V30 29332 C 2722.23 -0.759437 3.51387 0
M  V30 29333 C 2721.89 0.306637 4.5597 0
M  V30 29334 C 2722.89 1.14547 5.07124 0
M  V30 29335 C 2720.57 0.457204 5.00215 0
M  V30 29336 C 2722.57 2.12053 6.01093 0
M  V30 29337 C 2720.25 1.43567 5.93996 0
M  V30 29338 C 2721.25 2.26579 6.44322 0
M  V30 29339 O 2720.94 3.22762 7.36261 0
M  V30 29340 H 2720.67 -0.0579645 0.67351 0
M  V30 29341 H 2723.22 0.478556 1.99747 0
M  V30 29342 H 2721.45 -1.55861 3.53899 0
M  V30 29343 H 2723.14 -1.28011 3.85186 0
M  V30 29344 H 2723.91 1.04018 4.73714 0
M  V30 29345 H 2719.79 -0.179061 4.60652 0
M  V30 29346 H 2723.33 2.76885 6.40297 0
M  V30 29347 H 2719.23 1.54157 6.26822 0
M  V30 29348 H 2720 3.18097 7.5416 0
M  V30 29349 N 2722.66 -1.57485 0.0601958 0
M  V30 29350 C 2723.89 -1.97778 -0.624381 0
M  V30 29351 C 2724.31 -0.937896 -1.63049 0
M  V30 29352 O 2723.67 0.0978527 -1.81036 0
M  V30 29353 C 2723.72 -3.37128 -1.27973 0
M  V30 29354 O 2722.82 -3.35692 -2.3955 0
M  V30 29355 H 2722.16 -0.644043 -0.16157 0
M  V30 29356 H 2724.69 -2.04178 0.131272 0
M  V30 29357 H 2724.7 -3.74056 -1.6293 0
M  V30 29358 H 2723.38 -4.12348 -0.542428 0
M  V30 29359 H 2721.95 -3.10521 -2.06473 0
M  V30 29360 N 2724.14 0.213268 -1.5615 0
M  V30 29361 C 2725.07 1.26738 -1.96111 0
M  V30 29362 C 2726.05 1.48449 -0.830475 0
M  V30 29363 O 2727.23 1.60493 -1.09342 0
M  V30 29364 C 2724.36 2.61547 -2.28497 0
M  V30 29365 C 2723.32 2.54479 -3.44129 0
M  V30 29366 C 2722.64 3.93393 -3.62141 0
M  V30 29367 C 2723.94 2.08548 -4.78858 0
M  V30 29368 H 2725.64 0.935384 -2.84413 0
M  V30 29369 H 2723.18 0.448516 -1.36837 0
M  V30 29370 H 2725.14 3.35455 -2.55045 0
M  V30 29371 H 2723.86 2.96451 -1.37057 0
M  V30 29372 H 2722.52 1.83027 -3.17642 0
M  V30 29373 H 2722.17 4.25619 -2.68063 0
M  V30 29374 H 2721.87 3.89544 -4.3992 0
M  V30 29375 H 2723.39 4.68951 -3.91046 0
M  V30 29376 H 2724.81 2.72204 -5.04557 0
M  V30 29377 H 2723.2 2.1574 -5.59979 0
M  V30 29378 H 2724.27 1.03802 -4.73659 0
M  V30 29379 N 2725.62 1.50103 0.480296 0
M  V30 29380 C 2726.86 1.60314 1.2306 0
M  V30 29381 C 2727.19 0.30126 1.92659 0
M  V30 29382 O 2726.46 -0.680721 1.83693 0
M  V30 29383 H 2725.04 0.590727 0.457221 0
M  V30 29384 H 2727.7 1.86835 0.55486 0
M  V30 29385 H 2726.79 2.40967 1.98346 0
M  V30 29386 N 2727.09 -0.732829 1.39526 0
M  V30 29387 C 2728.51 -1.3112 1.32908 0
M  V30 29388 C 2728.86 -1.96199 -0.00555259 0
M  V30 29389 O 2727.98 -1.96444 -0.907672 0
M  V30 29390 C 2728.58 -2.38422 2.40708 0
M  V30 29391 C 2727.14 -2.91927 2.37604 0
M  V30 29392 C 2726.28 -1.65519 2.22483 0
M  V30 29393 H 2729.23 -0.530181 1.49582 0
M  V30 29394 H 2729.25 -3.18863 2.07622 0
M  V30 29395 H 2728.77 -1.91027 3.37832 0
M  V30 29396 H 2726.87 -3.43597 1.44125 0
M  V30 29397 H 2726.98 -3.44894 3.32544 0
M  V30 29398 H 2725.34 -1.89937 1.69694 0
M  V30 29399 H 2726.13 -1.20173 3.2158 0
M  V30 29400 N 2728.57 -1.24737 -0.963244 0
M  V30 29401 C 2729.8 -1.11785 -1.74697 0
M  V30 29402 C 2730.22 0.325226 -1.85267 0
M  V30 29403 O 2729.58 1.23551 -1.32683 0
M  V30 29404 C 2729.63 -1.76737 -3.14319 0
M  V30 29405 O 2728.73 -1.04116 -3.99041 0
M  V30 29406 H 2728.07 -0.390777 -0.536833 0
M  V30 29407 H 2730.6 -1.65133 -1.20798 0
M  V30 29408 H 2730.61 -1.82674 -3.64821 0
M  V30 29409 H 2729.29 -2.81732 -3.05941 0
M  V30 29410 H 2727.87 -1.05998 -3.57518 0
M  V30 29411 N 2730.05 1.16459 -1.06184 0
M  V30 29412 C 2730.98 2.22982 -0.6929 0
M  V30 29413 C 2731.96 1.67175 0.314092 0
M  V30 29414 O 2733.15 1.93274 0.189465 0
M  V30 29415 C 2730.28 3.47214 -0.077381 0
M  V30 29416 C 2729.23 4.15907 -1.01023 0
M  V30 29417 C 2728.56 5.34077 -0.258067 0
M  V30 29418 C 2729.86 4.67011 -2.33876 0
M  V30 29419 H 2731.55 2.54099 -1.58347 0
M  V30 29420 H 2729.1 1.22136 -0.762812 0
M  V30 29421 H 2731.05 4.2096 0.192586 0
M  V30 29422 H 2729.77 3.15394 0.848199 0
M  V30 29423 H 2728.43 3.44086 -1.26492 0
M  V30 29424 H 2728.08 4.9851 0.670596 0
M  V30 29425 H 2727.78 5.80977 -0.87974 0
M  V30 29426 H 2729.3 6.106 0.00438055 0
M  V30 29427 H 2730.72 5.32343 -2.12799 0
M  V30 29428 H 2729.12 5.24528 -2.91531 0
M  V30 29429 H 2730.19 3.8328 -2.97025 0
M  V30 29430 N 2731.53 0.844266 1.33079 0
M  V30 29431 C 2732.94 0.532755 1.50446 0
M  V30 29432 C 2733.14 -0.938806 1.78294 0
M  V30 29433 O 2732.2 -1.72236 1.84638 0
M  V30 29434 C 2733.51 1.41076 2.65552 0
M  V30 29435 C 2735.06 1.4101 2.79437 0
M  V30 29436 C 2735.54 2.27308 3.97612 0
M  V30 29437 N 2737.03 2.25047 4.04856 0
M  V30 29438 C 2737.76 2.88555 4.95503 0
M  V30 29439 N 2737.26 3.61136 5.9123 0
M  V30 29440 N 2739.05 2.77997 4.88543 0
M  V30 29441 H 2731.2 1.79679 1.13266 0
M  V30 29442 H 2733.47 0.766871 0.557327 0
M  V30 29443 H 2733.17 2.45672 2.5167 0
M  V30 29444 H 2733.05 1.09067 3.61087 0
M  V30 29445 H 2735.43 0.371835 2.92748 0
M  V30 29446 H 2735.51 1.77029 1.84647 0
M  V30 29447 H 2735.16 3.31197 3.8506 0
M  V30 29448 H 2735.09 1.88628 4.91657 0
M  V30 29449 H 2737.58 1.7227 3.3635 0
M  V30 29450 H 2737.89 4.06787 6.57072 0
M  V30 29451 H 2736.24 3.65244 5.91288 0
M  V30 29452 H 2739.43 2.20853 4.12725 0
M  V30 29453 H 2739.6 3.27775 5.58988 0
M  V30 29454 N 2733.01 -1.45682 0.60121 0
M  V30 29455 C 2734.42 -1.57396 0.264343 0
M  V30 29456 C 2734.62 -1.59356 -1.23321 0
M  V30 29457 O 2733.68 -1.52043 -2.01592 0
M  V30 29458 C 2734.99 -2.85961 0.929889 0
M  V30 29459 C 2736.54 -2.99625 0.905209 0
M  V30 29460 C 2737.01 -4.30951 1.55064 0
M  V30 29461 N 2738.51 -4.37695 1.51584 0
M  V30 29462 C 2739.24 -5.37966 1.98445 0
M  V30 29463 N 2738.74 -6.44809 2.53364 0
M  V30 29464 N 2740.53 -5.29283 1.89251 0
M  V30 29465 H 2732.68 -1.42653 1.57365 0
M  V30 29466 H 2734.94 -0.681637 0.658843 0
M  V30 29467 H 2734.65 -2.90391 1.98409 0
M  V30 29468 H 2734.52 -3.74515 0.44929 0
M  V30 29469 H 2736.91 -2.94766 -0.140429 0
M  V30 29470 H 2736.99 -2.12498 1.42401 0
M  V30 29471 H 2736.64 -4.36569 2.59558 0
M  V30 29472 H 2736.57 -5.16884 1.00691 0
M  V30 29473 H 2739.06 -3.61089 1.11459 0
M  V30 29474 H 2739.37 -7.17559 2.86931 0
M  V30 29475 H 2737.71 -6.45578 2.57399 0
M  V30 29476 H 2740.91 -4.44719 1.46091 0
M  V30 29477 H 2741.08 -6.0728 2.26086 0
M  V30 29478 N 2734.48 -0.340009 -1.53889 0
M  V30 29479 C 2735.73 0.257077 -2.00458 0
M  V30 29480 C 2736.05 1.51351 -1.22955 0
M  V30 29481 O 2735.32 1.93001 -0.335768 0
M  V30 29482 H 2733.9 0.0979835 -0.740546 0
M  V30 29483 H 2736.57 -0.46035 -1.89385 0
M  V30 29484 H 2735.66 0.502002 -3.08036 0
M  V30 29485 N 2735.96 1.57451 -0.0685468 0
M  V30 29486 C 2736.91 2.09059 0.909858 0
M  V30 29487 C 2737.9 0.99955 1.26087 0
M  V30 29488 O 2739.09 1.26268 1.24038 0
M  V30 29489 C 2736.22 2.65316 2.17859 0
M  V30 29490 C 2735.3 3.81419 1.8542 0
M  V30 29491 N 2735.7 4.90512 1.23417 0
M  V30 29492 C 2733.99 3.90653 2.15189 0
M  V30 29493 C 2734.69 5.71397 1.08998 0
M  V30 29494 N 2733.67 5.19563 1.59862 0
M  V30 29495 H 2737.47 2.90795 0.426094 0
M  V30 29496 H 2734.99 1.61834 0.135434 0
M  V30 29497 H 2736.98 3.00602 2.88867 0
M  V30 29498 H 2735.64 1.85025 2.66825 0
M  V30 29499 H 2736.65 5.09945 0.904216 0
M  V30 29500 H 2733.33 3.21332 2.66556 0
M  V30 29501 H 2734.72 6.69151 0.607187 0
M  V30 29502 N 2737.44 -0.204984 1.56261 0
M  V30 29503 C 2738.35 -1.27473 1.96946 0
M  V30 29504 C 2739.37 -1.5036 0.875662 0
M  V30 29505 O 2740.54 -1.63167 1.18061 0
M  V30 29506 C 2737.61 -2.60111 2.29223 0
M  V30 29507 C 2736.67 -2.45381 3.52259 0
M  V30 29508 C 2735.9 -3.71694 3.82987 0
M  V30 29509 O 2736.13 -4.75436 3.15146 0
M  V30 29510 O 2735.06 -3.67815 4.76441 0
M  V30 29511 H 2738.89 -0.959477 2.88145 0
M  V30 29512 H 2736.47 -0.409192 1.43687 0
M  V30 29513 H 2738.35 -3.38415 2.51104 0
M  V30 29514 H 2737.03 -2.91283 1.41195 0
M  V30 29515 H 2735.93 -1.65221 3.35638 0
M  V30 29516 H 2737.27 -2.19144 4.40723 0
M  V30 29517 N 2738.92 -1.50356 -0.472329 0
M  V30 29518 C 2740.17 -1.61522 -1.22632 0
M  V30 29519 C 2740.5 -0.314029 -1.91644 0
M  V30 29520 O 2739.77 0.684414 -1.8206 0
M  V30 29521 C 2740.06 -2.79464 -2.27094 0
M  V30 29522 C 2739.91 -4.19462 -1.62394 0
M  V30 29523 C 2741.23 -2.9297 -3.28415 0
M  V30 29524 H 2738.35 -0.587881 -0.444483 0
M  V30 29525 H 2740.99 -1.82738 -0.520289 0
M  V30 29526 H 2739.14 -2.61506 -2.87309 0
M  V30 29527 H 2740.81 -4.49007 -1.05786 0
M  V30 29528 H 2739.05 -4.23777 -0.927109 0
M  V30 29529 H 2739.73 -4.97913 -2.383 0
M  V30 29530 H 2742.2 -3.09406 -2.78221 0
M  V30 29531 H 2741.08 -3.7712 -3.98838 0
M  V30 29532 H 2741.34 -2.03532 -3.92463 0
M  V30 29533 N 2740.4 0.725419 -1.39912 0
M  V30 29534 C 2741.62 1.51968 -1.4114 0
M  V30 29535 C 2742.05 1.88097 -0.010295 0
M  V30 29536 O 2741.41 1.52585 0.979157 0
M  V30 29537 C 2741.45 2.77773 -2.29945 0
M  V30 29538 O 2740.56 3.74085 -1.73593 0
M  V30 29539 H 2739.9 0.458561 -0.480227 0
M  V30 29540 H 2742.43 0.894217 -1.84024 0
M  V30 29541 H 2742.44 3.26407 -2.44791 0
M  V30 29542 H 2741.11 2.5081 -3.31764 0
M  V30 29543 H 2739.69 3.32891 -1.68041 0
M  V30 29544 N 2741.88 1.25246 0.956615 0
M  V30 29545 C 2742.79 1.07193 2.08679 0
M  V30 29546 C 2743.8 0.00962132 1.73997 0
M  V30 29547 O 2744.98 0.210139 2.00301 0
M  V30 29548 C 2742.04 0.690586 3.39753 0
M  V30 29549 C 2741.1 1.83061 3.88313 0
M  V30 29550 C 2740.34 1.46737 5.13132 0
M  V30 29551 O 2740.56 0.362129 5.69249 0
M  V30 29552 O 2739.49 2.29687 5.56352 0
M  V30 29553 H 2743.32 2.01969 2.26809 0
M  V30 29554 H 2740.9 1.04167 1.07097 0
M  V30 29555 H 2742.79 0.489945 4.18542 0
M  V30 29556 H 2741.46 -0.227924 3.22897 0
M  V30 29557 H 2740.37 2.0861 3.10536 0
M  V30 29558 H 2741.7 2.7283 4.09664 0
M  V30 29559 N 2743.35 -1.15894 1.068 0
M  V30 29560 C 2744.77 -1.38537 0.792447 0
M  V30 29561 C 2744.97 -1.92175 -0.605887 0
M  V30 29562 O 2744.03 -2.12387 -1.36558 0
M  V30 29563 C 2745.34 -2.36145 1.86161 0
M  V30 29564 C 2746.89 -2.49819 1.88572 0
M  V30 29565 C 2747.36 -3.50715 2.94556 0
M  V30 29566 N 2748.85 -3.58246 2.93623 0
M  V30 29567 C 2749.59 -4.36118 3.72275 0
M  V30 29568 N 2749.08 -5.17371 4.6076 0
M  V30 29569 N 2750.88 -4.31152 3.60645 0
M  V30 29570 H 2743.03 -0.794164 1.96994 0
M  V30 29571 H 2745.29 -0.411673 0.853949 0
M  V30 29572 H 2745 -2.03838 2.86606 0
M  V30 29573 H 2744.87 -3.35857 1.71698 0
M  V30 29574 H 2747.26 -2.81428 0.887814 0
M  V30 29575 H 2747.34 -1.50126 2.07113 0
M  V30 29576 H 2746.98 -3.19842 3.94542 0
M  V30 29577 H 2746.91 -4.5015 2.73263 0
M  V30 29578 H 2749.4 -3.00248 2.29477 0
M  V30 29579 H 2749.72 -5.74019 5.17419 0
M  V30 29580 H 2748.06 -5.16696 4.64812 0
M  V30 29581 H 2751.25 -3.66737 2.90898 0
M  V30 29582 H 2751.43 -4.91593 4.22185 0
M  V30 29583 N 2744.83 -0.851312 -1.32629 0
M  V30 29584 C 2746.08 -0.453729 -1.97659 0
M  V30 29585 C 2746.41 0.987366 -1.67227 0
M  V30 29586 O 2745.69 1.6923 -0.958722 0
M  V30 29587 C 2745.97 -0.689422 -3.53439 0
M  V30 29588 C 2745.82 -2.17869 -3.93514 0
M  V30 29589 C 2747.14 -0.143633 -4.39866 0
M  V30 29590 H 2744.26 -0.166327 -0.717986 0
M  V30 29591 H 2746.9 -1.06912 -1.57066 0
M  V30 29592 H 2745.05 -0.165615 -3.88147 0
M  V30 29593 H 2746.72 -2.76832 -3.69001 0
M  V30 29594 H 2744.97 -2.65847 -3.42794 0
M  V30 29595 H 2745.64 -2.29431 -5.02061 0
M  V30 29596 H 2748.11 -0.591523 -4.11874 0
M  V30 29597 H 2746.99 -0.33814 -5.47857 0
M  V30 29598 H 2747.25 0.95339 -4.31698 0
M  V30 29599 N 2746.31 1.45361 -0.608928 0
M  V30 29600 C 2747.24 2.28726 0.147277 0
M  V30 29601 C 2748.25 1.40027 0.830443 0
M  V30 29602 O 2749.44 1.64388 0.695607 0
M  V30 29603 C 2746.54 3.15806 1.22963 0
M  V30 29604 C 2745.72 4.32791 0.633315 0
M  V30 29605 C 2744.78 5.0107 1.60673 0
M  V30 29606 O 2743.8 5.5782 1.13251 0
M  V30 29607 N 2745 5.00477 2.94114 0
M  V30 29608 H 2747.77 2.94267 -0.568066 0
M  V30 29609 H 2745.33 1.55564 -0.448507 0
M  V30 29610 H 2747.32 3.58348 1.88066 0
M  V30 29611 H 2745.89 2.52165 1.84747 0
M  V30 29612 H 2745.11 3.93713 -0.195831 0
M  V30 29613 H 2746.4 5.08345 0.215166 0
M  V30 29614 H 2745.8 4.55663 3.35242 0
M  V30 29615 H 2744.35 5.46879 3.54636 0
M  V30 29616 N 2747.79 0.348166 1.53706 0
M  V30 29617 C 2749.01 -0.250847 2.05877 0
M  V30 29618 C 2749.44 -1.4307 1.22117 0
M  V30 29619 O 2748.8 -1.79757 0.236017 0
M  V30 29620 C 2748.84 -0.639354 3.54887 0
M  V30 29621 O 2747.95 -1.73881 3.73951 0
M  V30 29622 H 2747.29 -0.0406414 0.662755 0
M  V30 29623 H 2749.82 0.50372 1.98302 0
M  V30 29624 H 2749.83 -0.915225 3.97602 0
M  V30 29625 H 2748.5 0.223459 4.15299 0
M  V30 29626 H 2747.08 -1.45985 3.43137 0
M  V30 29627 N 2749.27 -1.57412 0.0768958 0
M  V30 29628 C 2750.49 -1.98429 -0.603369 0
M  V30 29629 C 2750.92 -0.955137 -1.62046 0
M  V30 29630 O 2750.27 0.0786459 -1.81129 0
M  V30 29631 C 2750.32 -3.38466 -1.2439 0
M  V30 29632 O 2749.43 -3.38214 -2.35976 0
M  V30 29633 H 2748.77 -0.64572 -0.15473 0
M  V30 29634 H 2751.3 -2.04028 0.152921 0
M  V30 29635 H 2751.31 -3.75763 -1.58954 0
M  V30 29636 H 2749.98 -4.129 -0.498663 0
M  V30 29637 H 2748.56 -3.12693 -2.03168 0
M  V30 29638 N 2750.74 0.196695 -1.56368 0
M  V30 29639 C 2751.65 1.26426 -1.9762 0
M  V30 29640 C 2752.67 1.49894 -0.883624 0
M  V30 29641 O 2753.85 1.62539 -1.18924 0
M  V30 29642 C 2750.91 2.58891 -2.306 0
M  V30 29643 C 2749.97 2.4351 -3.53556 0
M  V30 29644 C 2749.21 3.69658 -3.84953 0
M  V30 29645 O 2749.43 4.73758 -3.17663 0
M  V30 29646 O 2748.36 3.65283 -4.78385 0
M  V30 29647 H 2752.19 0.944182 -2.8865 0
M  V30 29648 H 2749.77 0.401566 -1.43902 0
M  V30 29649 H 2751.66 3.37079 -2.52895 0
M  V30 29650 H 2750.33 2.9053 -1.42738 0
M  V30 29651 H 2749.24 1.63439 -3.36509 0
M  V30 29652 H 2750.57 2.16804 -4.41879 0
M  V30 29653 N 2752.22 1.50604 0.464349 0
M  V30 29654 C 2753.16 1.64607 1.58049 0
M  V30 29655 C 2754.13 0.494043 1.54913 0
M  V30 29656 O 2755.32 0.714423 1.74437 0
M  V30 29657 C 2752.44 1.63486 2.96631 0
M  V30 29658 C 2751.49 2.84331 3.17896 0
M  V30 29659 S 2752.32 4.45541 2.97075 0
M  V30 29660 C 2753.48 4.47123 4.37986 0
M  V30 29661 H 2753.71 2.59019 1.45933 0
M  V30 29662 H 2751.25 1.39951 0.652164 0
M  V30 29663 H 2753.2 1.63524 3.76524 0
M  V30 29664 H 2751.86 0.702982 3.06132 0
M  V30 29665 H 2751.06 2.7987 4.19153 0
M  V30 29666 H 2750.66 2.81895 2.45787 0
M  V30 29667 H 2752.95 4.211 5.30736 0
M  V30 29668 H 2753.89 5.4878 4.47489 0
M  V30 29669 H 2754.3 3.76751 4.2038 0
M  V30 29670 N 2753.7 -0.717989 1.40295 0
M  V30 29671 C 2754.95 -1.47491 1.38169 0
M  V30 29672 C 2755.27 -1.94993 -0.0160357 0
M  V30 29673 O 2754.54 -1.70178 -0.970367 0
M  V30 29674 H 2753.12 -0.547194 0.508515 0
M  V30 29675 H 2755.78 -0.851291 1.75326 0
M  V30 29676 H 2754.88 -2.3489 2.05507 0
M  V30 29677 N 2755.18 -1.25752 -0.94996 0
M  V30 29678 C 2756.41 -1.1353 -1.7297 0
M  V30 29679 C 2756.82 0.31042 -1.86231 0
M  V30 29680 O 2756.18 1.21318 -1.36339 0
M  V30 29681 C 2756.23 -1.78942 -3.14105 0
M  V30 29682 O 2755.95 -3.17863 -3.01487 0
M  V30 29683 C 2757.45 -1.72561 -4.08335 0
M  V30 29684 H 2754.67 -0.395768 -0.541857 0
M  V30 29685 H 2757.22 -1.66205 -1.19148 0
M  V30 29686 H 2755.37 -1.30227 -3.64856 0
M  V30 29687 H 2755.78 -3.50098 -3.90553 0
M  V30 29688 H 2757.26 -2.22981 -5.04959 0
M  V30 29689 H 2757.74 -0.690327 -4.33741 0
M  V30 29690 H 2758.34 -2.20786 -3.63502 0
M  V30 29691 N 2756.66 1.15326 -1.07413 0
M  V30 29692 C 2757.88 1.90549 -0.818889 0
M  V30 29693 C 2758.31 1.77513 0.622163 0
M  V30 29694 O 2757.66 1.10826 1.43482 0
M  V30 29695 C 2757.71 3.38875 -1.23273 0
M  V30 29696 O 2756.82 4.1066 -0.378418 0
M  V30 29697 H 2756.16 0.593233 -0.29828 0
M  V30 29698 H 2758.69 1.46043 -1.43292 0
M  V30 29699 H 2758.7 3.8967 -1.20919 0
M  V30 29700 H 2757.37 3.47682 -2.28232 0
M  V30 29701 H 2755.95 3.69996 -0.464502 0
M  V30 29702 N 2758.13 0.858334 1.32176 0
M  V30 29703 C 2759.38 0.464205 1.97416 0
M  V30 29704 C 2759.71 -0.978484 1.67748 0
M  V30 29705 O 2758.99 -1.68719 0.967684 0
M  V30 29706 C 2759.27 0.708156 3.53068 0
M  V30 29707 C 2759.12 2.19953 3.92353 0
M  V30 29708 C 2760.44 0.166958 4.39783 0
M  V30 29709 H 2757.56 0.170132 0.717094 0
M  V30 29710 H 2760.2 1.07743 1.56497 0
M  V30 29711 H 2758.35 0.186197 3.88054 0
M  V30 29712 H 2760.03 2.78785 3.67528 0
M  V30 29713 H 2758.27 2.67662 3.41379 0
M  V30 29714 H 2758.94 2.32091 5.00837 0
M  V30 29715 H 2761.42 0.613358 4.11555 0
M  V30 29716 H 2760.29 0.367189 5.4767 0
M  V30 29717 H 2760.55 -0.930483 4.32197 0
M  V30 29718 N 2759.61 -1.45036 0.616628 0
M  V30 29719 C 2760.54 -2.33349 -0.0840377 0
M  V30 29720 C 2761.52 -1.47362 -0.849615 0
M  V30 29721 O 2762.71 -1.76114 -0.818376 0
M  V30 29722 C 2759.84 -3.30212 -1.07599 0
M  V30 29723 C 2758.79 -4.25904 -0.423021 0
M  V30 29724 C 2758.12 -5.12526 -1.52385 0
M  V30 29725 C 2759.42 -5.18093 0.661549 0
M  V30 29726 H 2761.11 -2.92184 0.653385 0
M  V30 29727 H 2758.66 -1.40498 0.315658 0
M  V30 29728 H 2760.61 -3.90869 -1.57479 0
M  V30 29729 H 2759.34 -2.69555 -1.84412 0
M  V30 29730 H 2757.99 -3.66559 0.0549944 0
M  V30 29731 H 2757.64 -4.48231 -2.28249 0
M  V30 29732 H 2757.34 -5.77356 -1.09241 0
M  V30 29733 H 2758.87 -5.76052 -2.02474 0
M  V30 29734 H 2760.28 -5.7277 0.246453 0
M  V30 29735 H 2758.68 -5.91449 1.01527 0
M  V30 29736 H 2759.75 -4.59978 1.53454 0
M  V30 29737 N 2761.09 -0.356312 -1.53519 0
M  V30 29738 C 2762.34 0.237338 -2.00299 0
M  V30 29739 C 2762.65 1.50625 -1.24786 0
M  V30 29740 O 2763.86 2.17793 -1.62107 0
M  V30 29741 C 2762.31 0.473482 -3.56772 0
M  V30 29742 C 2761.92 -0.780261 -4.41153 0
M  V30 29743 C 2763.67 1.02529 -4.11932 0
M  V30 29744 C 2761.57 -0.514211 -5.8916 0
M  V30 29745 H 2760.5 0.0924649 -0.748309 0
M  V30 29746 H 2763.15 -0.473619 -1.77283 0
M  V30 29747 H 2761.54 1.24547 -3.75904 0
M  V30 29748 H 2762.71 -1.55433 -4.33794 0
M  V30 29749 H 2761.03 -1.25462 -3.97049 0
M  V30 29750 H 2763.62 1.23951 -5.20135 0
M  V30 29751 H 2763.97 1.98467 -3.65946 0
M  V30 29752 H 2764.5 0.313705 -3.96561 0
M  V30 29753 H 2761.24 -1.44366 -6.39405 0
M  V30 29754 H 2760.76 0.221527 -5.99391 0
M  V30 29755 H 2762.44 -0.136236 -6.46857 0
M  V30 29756 N 2762.57 1.57369 -0.0852427 0
M  V30 29757 C 2763.5 2.09115 0.913571 0
M  V30 29758 C 2764.48 0.999381 1.28262 0
M  V30 29759 O 2765.66 1.27369 1.38958 0
M  V30 29760 C 2762.79 2.55997 2.21772 0
M  V30 29761 C 2761.84 3.76739 1.99926 0
M  V30 29762 S 2762.67 5.20796 1.24628 0
M  V30 29763 C 2763.83 5.7102 2.56294 0
M  V30 29764 H 2764.06 2.93508 0.473317 0
M  V30 29765 H 2761.59 1.5387 0.127829 0
M  V30 29766 H 2763.55 2.83667 2.96721 0
M  V30 29767 H 2762.21 1.71848 2.6292 0
M  V30 29768 H 2761.4 4.07577 2.96475 0
M  V30 29769 H 2761.01 3.49511 1.3311 0
M  V30 29770 H 2763.3 5.78685 3.5232 0
M  V30 29771 H 2764.24 6.69689 2.30048 0
M  V30 29772 H 2764.65 4.98902 2.64116 0
M  V30 29773 N 2764.05 -0.188399 1.5647 0
M  V30 29774 C 2764.98 -1.25766 1.91613 0
M  V30 29775 C 2765.99 -1.41364 0.807461 0
M  V30 29776 O 2767.18 -1.41671 1.08589 0
M  V30 29777 C 2764.28 -2.62886 2.13879 0
M  V30 29778 C 2763.45 -2.68809 3.45051 0
M  V30 29779 C 2762.51 -3.87172 3.56349 0
M  V30 29780 O 2761.54 -3.73963 4.29116 0
M  V30 29781 N 2762.74 -5.02911 2.89932 0
M  V30 29782 H 2765.51 -0.959323 2.83931 0
M  V30 29783 H 2763.07 -0.378278 1.57419 0
M  V30 29784 H 2765.06 -3.40506 2.18718 0
M  V30 29785 H 2763.63 -2.8518 1.28027 0
M  V30 29786 H 2762.85 -1.77412 3.52021 0
M  V30 29787 H 2764.14 -2.69763 4.314 0
M  V30 29788 H 2763.53 -5.16542 2.30653 0
M  V30 29789 H 2762.09 -5.78454 3.0039 0
M  V30 29790 N 2765.53 -1.50848 -0.456355 0
M  V30 29791 C 2766.94 -1.55264 -1.03682 0
M  V30 29792 C 2767.29 -0.364805 -1.92779 0
M  V30 29793 O 2766.41 0.520643 -2.10043 0
M  V30 29794 C 2767.01 -2.81377 -1.88713 0
M  V30 29795 C 2765.57 -2.88426 -2.41842 0
M  V30 29796 C 2764.71 -2.49721 -1.20559 0
M  V30 29797 H 2767.66 -1.569 -0.238371 0
M  V30 29798 H 2767.69 -2.64065 -2.73952 0
M  V30 29799 H 2767.2 -3.67811 -1.2384 0
M  V30 29800 H 2765.3 -2.06378 -3.10224 0
M  V30 29801 H 2765.41 -3.91655 -2.7594 0
M  V30 29802 H 2763.78 -2.02489 -1.545 0
M  V30 29803 H 2764.56 -3.3848 -0.573266 0
M  V30 29804 N 2767 0.710538 -1.40674 0
M  V30 29805 C 2768.25 1.46605 -1.38528 0
M  V30 29806 C 2768.57 1.95598 0.00766802 0
M  V30 29807 O 2769.77 2.71076 0.151744 0
M  V30 29808 C 2768.23 2.65026 -2.43494 0
M  V30 29809 C 2767.84 2.22881 -3.88623 0
M  V30 29810 C 2769.58 3.42737 -2.50462 0
M  V30 29811 C 2767.49 3.38171 -4.85174 0
M  V30 29812 H 2766.42 0.550623 -0.515102 0
M  V30 29813 H 2769.07 0.772816 -1.66433 0
M  V30 29814 H 2767.45 3.36544 -2.08696 0
M  V30 29815 H 2768.62 1.5875 -4.32591 0
M  V30 29816 H 2766.94 1.58201 -3.85177 0
M  V30 29817 H 2769.54 4.28536 -3.19783 0
M  V30 29818 H 2769.88 3.86899 -1.53672 0
M  V30 29819 H 2770.41 2.78267 -2.84276 0
M  V30 29820 H 2767.15 2.99037 -5.83316 0
M  V30 29821 H 2766.67 4.01201 -4.45867 0
M  V30 29822 H 2768.35 4.04165 -5.05232 0
M  V30 29823 N 2768.48 1.26254 0.943277 0
M  V30 29824 C 2769.41 1.10125 2.059 0
M  V30 29825 C 2770.39 0.00703542 1.70099 0
M  V30 29826 O 2771.58 0.178675 1.93376 0
M  V30 29827 C 2768.71 0.731235 3.39515 0
M  V30 29828 C 2767.66 1.77695 3.89369 0
M  V30 29829 C 2766.99 1.26131 5.1961 0
M  V30 29830 C 2768.29 3.17806 4.14484 0
M  V30 29831 H 2769.98 2.03454 2.19651 0
M  V30 29832 H 2767.53 0.979594 1.05546 0
M  V30 29833 H 2769.48 0.605288 4.1703 0
M  V30 29834 H 2768.2 -0.237763 3.25733 0
M  V30 29835 H 2766.86 1.89153 3.14033 0
M  V30 29836 H 2766.51 0.282216 5.02208 0
M  V30 29837 H 2766.21 1.96032 5.53936 0
M  V30 29838 H 2767.74 1.14799 5.99711 0
M  V30 29839 H 2769.15 3.09437 4.8262 0
M  V30 29840 H 2767.55 3.85279 4.60087 0
M  V30 29841 H 2768.62 3.64019 3.2034 0
M  V30 29842 N 2769.96 -1.14755 1.08024 0
M  V30 29843 C 2771.38 -1.37688 0.807096 0
M  V30 29844 C 2771.58 -1.92807 -0.58547 0
M  V30 29845 O 2770.63 -2.13824 -1.34297 0
M  V30 29846 C 2771.94 -2.34158 1.88655 0
M  V30 29847 C 2773.49 -2.47805 1.91211 0
M  V30 29848 C 2773.97 -3.47571 2.98259 0
M  V30 29849 N 2775.46 -3.55111 2.97406 0
M  V30 29850 C 2776.19 -4.32145 3.76879 0
M  V30 29851 N 2775.69 -5.12455 4.66221 0
M  V30 29852 N 2777.48 -4.27302 3.65198 0
M  V30 29853 H 2769.63 -0.773225 1.97826 0
M  V30 29854 H 2771.9 -0.402593 0.858267 0
M  V30 29855 H 2771.6 -2.00786 2.88752 0
M  V30 29856 H 2771.48 -3.34017 1.7525 0
M  V30 29857 H 2773.86 -2.80471 0.917613 0
M  V30 29858 H 2773.94 -1.47921 2.08694 0
M  V30 29859 H 2773.59 -3.15639 3.97912 0
M  V30 29860 H 2773.52 -4.47226 2.78022 0
M  V30 29861 H 2776.01 -2.97797 2.32649 0
M  V30 29862 H 2776.32 -5.68499 5.23478 0
M  V30 29863 H 2774.67 -5.11737 4.70266 0
M  V30 29864 H 2777.86 -3.63631 2.94772 0
M  V30 29865 H 2778.03 -4.87088 4.27375 0
M  V30 29866 N 2771.44 -0.865331 -1.31719 0
M  V30 29867 C 2772.68 -0.473966 -1.96875 0
M  V30 29868 C 2773.01 0.972757 -1.68427 0
M  V30 29869 O 2772.27 1.69925 -0.970772 0
M  V30 29870 C 2772.57 -0.672345 -3.51019 0
M  V30 29871 C 2772.23 -2.09115 -3.99477 0
M  V30 29872 C 2770.89 -2.47917 -4.1242 0
M  V30 29873 C 2773.25 -3.01667 -4.25025 0
M  V30 29874 C 2770.57 -3.78523 -4.48261 0
M  V30 29875 C 2772.93 -4.31782 -4.62328 0
M  V30 29876 C 2771.59 -4.70505 -4.73478 0
M  V30 29877 H 2770.86 -0.173436 -0.720417 0
M  V30 29878 H 2773.51 -1.09743 -1.56935 0
M  V30 29879 H 2771.81 0.0342871 -3.91785 0
M  V30 29880 H 2773.51 -0.349424 -3.99475 0
M  V30 29881 H 2770.1 -1.77988 -3.89895 0
M  V30 29882 H 2774.28 -2.72917 -4.14524 0
M  V30 29883 H 2769.54 -4.08293 -4.5509 0
M  V30 29884 H 2773.71 -5.03552 -4.81049 0
M  V30 29885 H 2771.34 -5.71749 -5.01006 0
M  V30 29886 N 2772.92 1.44707 -0.624311 0
M  V30 29887 C 2773.85 2.3339 0.0716615 0
M  V30 29888 C 2774.83 1.4781 0.841788 0
M  V30 29889 O 2776.01 1.76546 0.809025 0
M  V30 29890 C 2773.14 3.30778 1.05846 0
M  V30 29891 C 2772.1 4.26123 0.400428 0
M  V30 29892 C 2771.42 5.13327 1.49665 0
M  V30 29893 C 2772.72 5.17735 -0.689015 0
M  V30 29894 H 2774.42 2.91833 -0.668871 0
M  V30 29895 H 2771.96 1.40328 -0.323105 0
M  V30 29896 H 2773.91 3.91699 1.55403 0
M  V30 29897 H 2772.64 2.70529 1.8298 0
M  V30 29898 H 2771.3 3.66524 -0.0744332 0
M  V30 29899 H 2770.95 4.49435 2.25869 0
M  V30 29900 H 2770.65 5.77927 1.06177 0
M  V30 29901 H 2772.17 5.77118 1.99417 0
M  V30 29902 H 2773.58 5.72631 -0.276825 0
M  V30 29903 H 2771.98 5.90902 -1.04663 0
M  V30 29904 H 2773.05 4.59158 -1.55892 0
M  V30 29905 N 2774.39 0.364449 1.53328 0
M  V30 29906 C 2775.33 -0.517253 2.23287 0
M  V30 29907 C 2776.34 -1.04709 1.24659 0
M  V30 29908 O 2777.53 -0.953664 1.50889 0
M  V30 29909 C 2774.63 -1.7268 2.91607 0
M  V30 29910 C 2773.8 -1.32865 4.16732 0
M  V30 29911 C 2772.86 -2.40014 4.68273 0
M  V30 29912 O 2771.89 -2.02452 5.31979 0
M  V30 29913 N 2773.09 -3.71583 4.45989 0
M  V30 29914 H 2775.85 0.0819918 2.99588 0
M  V30 29915 H 2773.41 0.189572 1.60786 0
M  V30 29916 H 2775.41 -2.43835 3.22997 0
M  V30 29917 H 2773.98 -2.23294 2.18766 0
M  V30 29918 H 2773.2 -0.447 3.91657 0
M  V30 29919 H 2774.48 -1.03893 4.9808 0
M  V30 29920 H 2773.88 -4.04877 3.95084 0
M  V30 29921 H 2772.44 -4.38845 4.81932 0
M  V30 29922 N 2775.87 -1.57322 0.0935872 0
M  V30 29923 C 2776.8 -2.16966 -0.863024 0
M  V30 29924 C 2777.78 -1.10258 -1.29527 0
M  V30 29925 O 2778.97 -1.38389 -1.36243 0
M  V30 29926 C 2776.1 -2.74878 -2.12272 0
M  V30 29927 C 2775.05 -3.86945 -1.82915 0
M  V30 29928 C 2774.38 -4.31553 -3.15699 0
M  V30 29929 C 2775.68 -5.1021 -1.11728 0
M  V30 29930 H 2777.37 -2.97153 -0.366093 0
M  V30 29931 H 2774.92 -1.42937 -0.174647 0
M  V30 29932 H 2776.87 -3.15255 -2.79629 0
M  V30 29933 H 2775.59 -1.91943 -2.64245 0
M  V30 29934 H 2774.25 -3.47105 -1.17955 0
M  V30 29935 H 2773.9 -3.4551 -3.65557 0
M  V30 29936 H 2773.6 -5.07109 -2.9684 0
M  V30 29937 H 2775.13 -4.74562 -3.84217 0
M  V30 29938 H 2776.54 -5.47765 -1.69193 0
M  V30 29939 H 2774.94 -5.91185 -1.03053 0
M  V30 29940 H 2776.01 -4.84797 -0.0997966 0
M  V30 29941 N 2777.35 0.180099 -1.56568 0
M  V30 29942 C 2778.28 1.2255 -1.98756 0
M  V30 29943 C 2779.26 1.46654 -0.861776 0
M  V30 29944 O 2780.45 1.58137 -1.12722 0
M  V30 29945 C 2777.58 2.56641 -2.33993 0
M  V30 29946 C 2776.53 2.47122 -3.49449 0
M  V30 29947 C 2775.86 3.85623 -3.70404 0
M  V30 29948 C 2777.16 1.98343 -4.83174 0
M  V30 29949 H 2778.85 0.874846 -2.86333 0
M  V30 29950 H 2776.4 0.41939 -1.37757 0
M  V30 29951 H 2778.35 3.2997 -2.62103 0
M  V30 29952 H 2777.07 2.93477 -1.43314 0
M  V30 29953 H 2775.73 1.76248 -3.21453 0
M  V30 29954 H 2775.38 4.19837 -2.77031 0
M  V30 29955 H 2775.08 3.80125 -4.48084 0
M  V30 29956 H 2776.6 4.60551 -4.00905 0
M  V30 29957 H 2778.02 2.6144 -5.10217 0
M  V30 29958 H 2776.41 2.03813 -5.64429 0
M  V30 29959 H 2777.48 0.937319 -4.75754 0
M  V30 29960 N 2778.83 1.51088 0.448349 0
M  V30 29961 C 2780.07 1.64863 1.20829 0
M  V30 29962 C 2780.43 0.351907 1.88747 0
M  V30 29963 O 2781.63 0.365312 2.66306 0
M  V30 29964 C 2779.9 2.8114 2.20669 0
M  V30 29965 S 2781.46 3.15181 3.05297 0
M  V30 29966 H 2778.28 0.580943 0.409909 0
M  V30 29967 H 2780.88 1.88956 0.50159 0
M  V30 29968 H 2779.59 3.73811 1.69392 0
M  V30 29969 H 2779.12 2.59203 2.95935 0
M  V30 29970 H 2781.13 2.60763 4.22158 0
M  V30 29971 N 2780.31 -0.703068 1.41049 0
M  V30 29972 C 2781.22 -1.847 1.44648 0
M  V30 29973 C 2782.23 -1.70689 0.337808 0
M  V30 29974 O 2783.41 -1.92736 0.584361 0
M  V30 29975 C 2780.47 -3.20615 1.31934 0
M  V30 29976 C 2779.53 -3.46789 2.53053 0
M  V30 29977 C 2778.77 -4.7622 2.40936 0
M  V30 29978 O 2778.99 -5.52187 1.42988 0
M  V30 29979 O 2777.92 -5.0301 3.30552 0
M  V30 29980 H 2781.75 -1.84619 2.41142 0
M  V30 29981 H 2779.34 -0.855145 1.22506 0
M  V30 29982 H 2781.22 -4.01776 1.27099 0
M  V30 29983 H 2779.89 -3.21396 0.385525 0
M  V30 29984 H 2778.8 -2.65589 2.63464 0
M  V30 29985 H 2780.13 -3.50816 3.45237 0
M  V30 29986 N 2781.78 -1.26752 -0.936569 0
M  V30 29987 C 2782.73 -1.0853 -2.05728 0
M  V30 29988 C 2783.73 -0.0109081 -1.69396 0
M  V30 29989 O 2784.93 -0.167946 -1.79215 0
M  V30 29990 H 2781.31 -0.334145 -0.673685 0
M  V30 29991 H 2783.28 -2.03497 -2.18247 0
M  V30 29992 C 2782.03 -0.739904 -3.39736 0
M  V30 29993 H 2781.35 -1.55851 -3.68172 0
M  V30 29994 H 2782.79 -0.652223 -4.18954 0
M  V30 29995 C 2781.25 0.555229 -3.32293 0
M  V30 29996 O 2781.78 1.59222 -3.68797 0
M  V30 29997 N 2779.99 0.54757 -2.85395 0
M  V30 29998 H 2779.53 -0.296712 -2.55885 0
M  V30 29999 H 2779.49 1.41423 -2.80797 0
M  V30 30000 N 2783.26 1.1418 -1.08631 0
M  V30 30001 C 2784.21 2.17374 -0.68792 0
M  V30 30002 C 2785.2 1.58199 0.293604 0
M  V30 30003 O 2786.39 1.76687 0.105261 0
M  V30 30004 C 2783.52 3.43151 -0.101244 0
M  V30 30005 C 2782.6 4.09352 -1.10869 0
M  V30 30006 N 2782.99 4.50842 -2.29293 0
M  V30 30007 C 2781.29 4.35874 -0.944974 0
M  V30 30008 C 2781.99 5.02337 -2.93313 0
M  V30 30009 N 2780.97 4.96688 -2.20912 0
M  V30 30010 H 2784.77 2.47197 -1.58968 0
M  V30 30011 H 2782.29 1.30888 -0.961352 0
M  V30 30012 H 2784.28 4.1641 0.202135 0
M  V30 30013 H 2782.94 3.14805 0.795467 0
M  V30 30014 H 2783.95 4.43809 -2.66935 0
M  V30 30015 H 2780.63 4.17375 -0.102259 0
M  V30 30016 H 2782.02 5.44298 -3.93941 0
M  V30 30017 N 2784.74 0.872304 1.31258 0
M  V30 30018 C 2785.69 0.318938 2.30403 0
M  V30 30019 C 2786.68 -0.567239 1.59621 0
M  V30 30020 O 2787.89 -0.45308 1.74204 0
M  V30 30021 H 2784.26 0.0844605 0.747242 0
M  V30 30022 H 2786.23 1.16903 2.74547 0
M  V30 30023 C 2784.98 -0.462623 3.44609 0
M  V30 30024 H 2784.31 0.210006 3.99248 0
M  V30 30025 H 2785.75 -0.815113 4.16091 0
M  V30 30026 C 2784.21 -1.6548 2.93459 0
M  V30 30027 O 2784.74 -2.75411 2.92423 0
M  V30 30028 N 2782.94 -1.48771 2.49631 0
M  V30 30029 H 2782.49 -0.593408 2.50672 0
M  V30 30030 H 2782.45 -2.28678 2.15763 0
M  V30 30031 N 2786.22 -1.44374 0.631976 0
M  V30 30032 C 2787.63 -1.568 0.297669 0
M  V30 30033 C 2787.83 -1.61936 -1.19913 0
M  V30 30034 O 2786.89 -1.56285 -1.98321 0
M  V30 30035 C 2788.2 -2.83924 0.990336 0
M  V30 30036 C 2789.75 -2.97637 0.96856 0
M  V30 30037 C 2790.23 -4.27565 1.64171 0
M  V30 30038 N 2791.72 -4.34381 1.60834 0
M  V30 30039 C 2792.45 -5.33635 2.09812 0
M  V30 30040 N 2791.95 -6.3929 2.66984 0
M  V30 30041 N 2793.74 -5.2515 2.00436 0
M  V30 30042 H 2785.89 -1.39283 1.60356 0
M  V30 30043 H 2788.16 -0.667509 0.673153 0
M  V30 30044 H 2787.86 -2.86117 2.04524 0
M  V30 30045 H 2787.74 -3.73477 0.528629 0
M  V30 30046 H 2790.12 -2.94997 -0.0778728 0
M  V30 30047 H 2790.2 -2.0943 1.46877 0
M  V30 30048 H 2789.85 -4.30965 2.6876 0
M  V30 30049 H 2789.78 -5.14632 1.11633 0
M  V30 30050 H 2792.27 -3.58644 1.19093 0
M  V30 30051 H 2792.58 -7.11311 3.02087 0
M  V30 30052 H 2790.93 -6.39973 2.71035 0
M  V30 30053 H 2794.12 -4.4152 1.55491 0
M  V30 30054 H 2794.29 -6.02348 2.38917 0
M  V30 30055 N 2787.7 -0.372575 -1.53133 0
M  V30 30056 C 2788.97 0.271659 -1.93704 0
M  V30 30057 C 2789.35 1.65797 -1.3067 0
M  V30 30058 O 2788.7 2.23647 -0.468419 0
M  V30 30059 C 2788.91 0.314842 -3.47577 0
M  V30 30060 C 2790.26 0.551838 -4.20999 0
M  V30 30061 O 2791.28 0.395758 -3.53995 0
M  V30 30062 O 2790.14 0.856295 -5.3975 0
M  V30 30063 H 2787.24 0.164571 -0.81046 0
M  V30 30064 H 2789.78 -0.425867 -1.64269 0
M  V30 30065 H 2788.55 -0.65686 -3.85747 0
M  V30 30066 H 2788.18 1.05798 -3.83266 0
M  V30 30067 N 2789.17 1.5727 -0.101929 0
M  V30 30068 C 2790.1 2.1742 0.851506 0
M  V30 30069 C 2791.09 1.10944 1.2894 0
M  V30 30070 O 2792.27 1.3911 1.35507 0
M  V30 30071 C 2789.4 2.76 2.10811 0
M  V30 30072 C 2788.35 3.87909 1.8086 0
M  V30 30073 C 2787.68 4.33221 3.13406 0
M  V30 30074 C 2788.98 5.10795 1.09021 0
M  V30 30075 H 2790.67 2.97343 0.350329 0
M  V30 30076 H 2788.22 1.43028 0.167065 0
M  V30 30077 H 2790.17 3.16733 2.77953 0
M  V30 30078 H 2788.9 1.93342 2.63223 0
M  V30 30079 H 2787.56 3.47726 1.16113 0
M  V30 30080 H 2787.2 3.47444 3.63719 0
M  V30 30081 H 2786.9 5.08677 2.94146 0
M  V30 30082 H 2788.43 4.76593 3.81695 0
M  V30 30083 H 2789.84 5.48655 1.66286 0
M  V30 30084 H 2788.24 5.91723 0.999166 0
M  V30 30085 H 2789.31 4.84843 0.0740852 0
M  V30 30086 N 2790.65 -0.171793 1.56661 0
M  V30 30087 C 2791.58 -1.23727 1.92936 0
M  V30 30088 C 2792.6 -1.405 0.822409 0
M  V30 30089 O 2793.79 -1.40512 1.10085 0
M  V30 30090 C 2790.89 -2.60603 2.16655 0
M  V30 30091 C 2790.06 -2.65134 3.47883 0
M  V30 30092 C 2789.12 -3.8337 3.60435 0
M  V30 30093 O 2788.14 -3.69391 4.33058 0
M  V30 30094 N 2789.35 -4.99808 2.9525 0
M  V30 30095 H 2792.11 -0.929155 2.84933 0
M  V30 30096 H 2789.67 -0.361561 1.57811 0
M  V30 30097 H 2791.66 -3.38167 2.22318 0
M  V30 30098 H 2790.23 -2.83806 1.31045 0
M  V30 30099 H 2789.45 -1.73669 3.53882 0
M  V30 30100 H 2790.74 -2.65172 4.34236 0
M  V30 30101 H 2790.14 -5.14067 2.36119 0
M  V30 30102 H 2788.7 -5.75235 3.06509 0
M  V30 30103 N 2792.13 -1.51324 -0.44033 0
M  V30 30104 C 2793.08 -1.72991 -1.55489 0
M  V30 30105 C 2794.07 -0.596166 -1.58563 0
M  V30 30106 O 2795.28 -0.777471 -1.62343 0
M  V30 30107 H 2791.65 -0.546542 -0.516522 0
M  V30 30108 H 2793.62 -2.66426 -1.34387 0
M  V30 30109 C 2792.37 -1.86936 -2.93173 0
M  V30 30110 H 2791.7 -2.73579 -2.91538 0
M  V30 30111 H 2793.14 -2.0611 -3.70533 0
M  V30 30112 C 2791.6 -0.628423 -3.30987 0
M  V30 30113 O 2792.13 0.218297 -4.01106 0
M  V30 30114 N 2790.33 -0.47339 -2.86718 0
M  V30 30115 H 2789.88 -1.16349 -2.29828 0
M  V30 30116 H 2789.84 0.355672 -3.12382 0
M  V30 30117 N 2793.61 0.695578 -1.41419 0
M  V30 30118 C 2794.86 1.45562 -1.40776 0
M  V30 30119 C 2795.18 1.94493 -0.0168946 0
M  V30 30120 O 2794.44 1.69899 0.971229 0
M  V30 30121 C 2794.74 2.68298 -2.36117 0
M  V30 30122 C 2794.4 2.38024 -3.82956 0
M  V30 30123 C 2793.07 2.29478 -4.22958 0
M  V30 30124 C 2795.42 2.13053 -4.75666 0
M  V30 30125 C 2792.75 1.94058 -5.53677 0
M  V30 30126 C 2795.1 1.79141 -6.06705 0
M  V30 30127 C 2793.76 1.69091 -6.45728 0
M  V30 30128 H 2793.03 0.532649 -0.515137 0
M  V30 30129 H 2795.68 0.795016 -1.74218 0
M  V30 30130 H 2793.98 3.39292 -1.9593 0
M  V30 30131 H 2795.68 3.26438 -2.32893 0
M  V30 30132 H 2792.27 2.4557 -3.51274 0
M  V30 30133 H 2796.45 2.186 -4.45565 0
M  V30 30134 H 2791.71 1.84829 -5.82793 0
M  V30 30135 H 2795.88 1.58838 -6.78044 0
M  V30 30136 H 2793.51 1.41413 -7.46931 0
M  V30 30137 N 2795.09 1.27247 0.929833 0
M  V30 30138 C 2796.02 1.12303 2.0472 0
M  V30 30139 C 2797 0.0250762 1.70082 0
M  V30 30140 O 2798.18 0.199175 1.93176 0
M  V30 30141 C 2795.31 0.767204 3.3872 0
M  V30 30142 C 2794.27 1.81815 3.87463 0
M  V30 30143 C 2793.59 1.31635 5.18243 0
M  V30 30144 C 2794.89 3.22184 4.1109 0
M  V30 30145 H 2796.59 2.05773 2.17481 0
M  V30 30146 H 2794.13 0.990734 1.04501 0
M  V30 30147 H 2796.09 0.649486 4.16365 0
M  V30 30148 H 2794.81 -0.203201 3.25967 0
M  V30 30149 H 2793.47 1.92474 3.12009 0
M  V30 30150 H 2793.12 0.335466 5.0188 0
M  V30 30151 H 2792.82 2.01897 5.51826 0
M  V30 30152 H 2794.34 1.21153 5.9846 0
M  V30 30153 H 2795.76 3.14538 4.79311 0
M  V30 30154 H 2794.15 3.90137 4.55975 0
M  V30 30155 H 2795.22 3.67396 3.16462 0
M  V30 30156 N 2796.57 -1.13603 1.09235 0
M  V30 30157 C 2797.98 -1.36825 0.821654 0
M  V30 30158 C 2798.18 -1.93417 -0.564987 0
M  V30 30159 O 2797.24 -2.15236 -1.32022 0
M  V30 30160 C 2798.55 -2.32143 1.91128 0
M  V30 30161 C 2800.1 -2.45763 1.93828 0
M  V30 30162 C 2800.57 -3.44388 3.01929 0
M  V30 30163 N 2802.06 -3.51937 3.01155 0
M  V30 30164 C 2802.8 -4.28124 3.81442 0
M  V30 30165 N 2802.3 -5.07481 4.7163 0
M  V30 30166 N 2804.09 -4.23405 3.69709 0
M  V30 30167 H 2796.24 -0.7522 1.98635 0
M  V30 30168 H 2798.5 -0.393467 0.862489 0
M  V30 30169 H 2798.21 -1.97712 2.90865 0
M  V30 30170 H 2798.08 -3.32139 1.78783 0
M  V30 30171 H 2800.47 -2.79482 0.947309 0
M  V30 30172 H 2800.55 -1.45699 2.10251 0
M  V30 30173 H 2800.19 -3.11401 4.01238 0
M  V30 30174 H 2800.12 -4.44252 2.8275 0
M  V30 30175 H 2802.62 -2.95313 2.35794 0
M  V30 30176 H 2802.93 -5.62915 5.29478 0
M  V30 30177 H 2801.27 -5.0672 4.75667 0
M  V30 30178 H 2804.46 -3.60484 2.98612 0
M  V30 30179 H 2804.64 -4.82528 4.32517 0
M  V30 30180 N 2798.04 -0.879253 -1.30793 0
M  V30 30181 C 2799.28 -0.501445 -1.98154 0
M  V30 30182 C 2799.65 0.930833 -1.67927 0
M  V30 30183 O 2800.85 1.41447 -2.28574 0
M  V30 30184 C 2799.12 -0.761998 -3.49182 0
M  V30 30185 S 2800.68 -0.485437 -4.36107 0
M  V30 30186 H 2797.5 -0.186804 -0.686021 0
M  V30 30187 H 2800.1 -1.13728 -1.59016 0
M  V30 30188 H 2798.8 -1.80302 -3.68672 0
M  V30 30189 H 2798.33 -0.113501 -3.93236 0
M  V30 30190 H 2800.35 0.678381 -4.91541 0
M  V30 30191 N 2799.52 1.44037 -0.639624 0
M  V30 30192 C 2800.45 2.28987 0.0987281 0
M  V30 30193 C 2801.47 1.41757 0.800555 0
M  V30 30194 O 2802.66 1.65827 0.660582 0
M  V30 30195 C 2799.76 3.18343 1.16236 0
M  V30 30196 C 2798.93 4.34037 0.541371 0
M  V30 30197 C 2797.99 5.04365 1.50008 0
M  V30 30198 O 2797.01 5.60096 1.01393 0
M  V30 30199 N 2798.22 5.06603 2.83432 0
M  V30 30200 H 2800.98 2.92996 -0.630356 0
M  V30 30201 H 2798.54 1.54577 -0.481403 0
M  V30 30202 H 2800.53 3.62256 1.80423 0
M  V30 30203 H 2799.1 2.56027 1.79357 0
M  V30 30204 H 2798.32 3.93209 -0.279299 0
M  V30 30205 H 2799.61 5.08687 0.10729 0
M  V30 30206 H 2799.01 4.62672 3.25502 0
M  V30 30207 H 2797.57 5.54278 3.42957 0
M  V30 30208 N 2801 0.380691 1.52933 0
M  V30 30209 C 2801.95 -0.47357 2.27728 0
M  V30 30210 C 2802.94 -1.07048 1.3129 0
M  V30 30211 O 2804.15 -1.01194 1.48861 0
M  V30 30212 H 2800.52 -0.171463 0.732192 0
M  V30 30213 H 2802.49 0.178837 2.97864 0
M  V30 30214 C 2801.24 -1.59336 3.09043 0
M  V30 30215 H 2800.57 -1.14336 3.83102 0
M  V30 30216 H 2802.01 -2.16549 3.64531 0
M  V30 30217 C 2800.46 -2.54443 2.20818 0
M  V30 30218 O 2800.99 -3.57639 1.82914 0
M  V30 30219 N 2799.2 -2.23983 1.85149 0
M  V30 30220 H 2798.75 -1.40099 2.16171 0
M  V30 30221 H 2798.71 -2.87869 1.26407 0
M  V30 30222 N 2802.48 -1.57214 0.110268 0
M  V30 30223 C 2803.43 -2.16096 -0.860548 0
M  V30 30224 C 2804.42 -1.10783 -1.28155 0
M  V30 30225 O 2805.63 -1.29102 -1.2543 0
M  V30 30226 H 2802 -0.691468 -0.295594 0
M  V30 30227 H 2803.97 -2.96464 -0.339368 0
M  V30 30228 C 2802.72 -2.76803 -2.10417 0
M  V30 30229 H 2802.04 -3.57533 -1.78913 0
M  V30 30230 H 2803.48 -3.21552 -2.7637 0
M  V30 30231 C 2801.94 -1.73449 -2.8882 0
M  V30 30232 O 2802.47 -1.18258 -3.83898 0
M  V30 30233 N 2800.68 -1.43591 -2.52646 0
M  V30 30234 H 2800.23 -1.88663 -1.75397 0
M  V30 30235 H 2800.18 -0.746789 -3.05402 0
M  V30 30236 N 2803.96 0.163482 -1.5675 0
M  V30 30237 C 2804.9 1.20227 -1.97013 0
M  V30 30238 C 2805.87 1.43574 -0.835211 0
M  V30 30239 O 2807.06 1.56183 -1.09596 0
M  V30 30240 C 2804.2 2.53474 -2.3419 0
M  V30 30241 C 2803.31 2.37439 -3.60897 0
M  V30 30242 C 2802.45 3.63607 -3.87251 0
M  V30 30243 C 2801.48 3.42539 -5.0728 0
M  V30 30244 N 2800.62 4.60796 -5.29728 0
M  V30 30245 H 2805.46 0.851908 -2.85564 0
M  V30 30246 H 2803 0.409232 -1.41293 0
M  V30 30247 H 2804.96 3.31145 -2.53769 0
M  V30 30248 H 2803.59 2.86489 -1.48741 0
M  V30 30249 H 2802.64 1.50905 -3.49187 0
M  V30 30250 H 2803.95 2.17823 -4.48726 0
M  V30 30251 H 2803.1 4.49712 -4.0724 0
M  V30 30252 H 2801.84 3.86211 -2.97812 0
M  V30 30253 H 2800.85 2.54822 -4.87182 0
M  V30 30254 H 2802.07 3.2135 -5.98257 0
M  V30 30255 H 2800.02 4.83604 -4.43241 0
M  V30 30256 H 2799.94 4.44122 -6.11794 0
M  V30 30257 H 2801.2 5.48162 -5.54201 0
M  V30 30258 N 2805.43 1.51555 0.432299 0
M  V30 30259 C 2806.66 1.68288 1.20361 0
M  V30 30260 C 2807.08 0.382363 1.84888 0
M  V30 30261 O 2806.43 -0.639597 1.70925 0
M  V30 30262 C 2806.48 2.80212 2.28393 0
M  V30 30263 O 2806.21 4.05225 1.66505 0
M  V30 30264 C 2807.71 3.08257 3.18579 0
M  V30 30265 H 2804.93 0.564603 0.362581 0
M  V30 30266 H 2807.47 1.97997 0.511612 0
M  V30 30267 H 2805.63 2.53088 2.93301 0
M  V30 30268 H 2806.04 4.67422 2.37942 0
M  V30 30269 H 2807.51 3.90141 3.90504 0
M  V30 30270 H 2807.99 2.20867 3.79624 0
M  V30 30271 H 2808.6 3.3706 2.59366 0
M  V30 30272 N 2806.91 -0.688069 1.41786 0
M  V30 30273 C 2807.86 -1.82318 1.44439 0
M  V30 30274 C 2808.85 -1.6632 0.321573 0
M  V30 30275 O 2810.06 -1.7309 0.493961 0
M  V30 30276 H 2806.43 -0.600928 0.452095 0
M  V30 30277 H 2808.41 -1.77198 2.40091 0
M  V30 30278 C 2807.15 -3.2039 1.35077 0
M  V30 30279 H 2806.48 -3.3332 2.20766 0
M  V30 30280 H 2807.92 -3.99871 1.40995 0
M  V30 30281 C 2806.38 -3.36839 0.0639719 0
M  V30 30282 O 2806.91 -3.91752 -0.888426 0
M  V30 30283 N 2805.11 -2.90596 -0.0145603 0
M  V30 30284 H 2804.66 -2.46095 0.761234 0
M  V30 30285 H 2804.62 -3.01981 -0.874935 0
M  V30 30286 N 2808.39 -1.27739 -0.923072 0
M  V30 30287 C 2809.62 -1.17004 -1.70275 0
M  V30 30288 C 2810.03 0.275166 -1.87188 0
M  V30 30289 O 2809.37 1.19875 -1.39197 0
M  V30 30290 C 2809.43 -1.78643 -3.11973 0
M  V30 30291 C 2809.1 -3.27846 -3.1838 0
M  V30 30292 C 2810.09 -4.24415 -3.00279 0
M  V30 30293 C 2807.78 -3.68638 -3.41191 0
M  V30 30294 C 2809.77 -5.59753 -3.04887 0
M  V30 30295 C 2807.46 -5.04104 -3.45431 0
M  V30 30296 C 2808.46 -5.99471 -3.27298 0
M  V30 30297 O 2808.15 -7.32467 -3.31282 0
M  V30 30298 H 2807.88 -0.407514 -0.539359 0
M  V30 30299 H 2810.43 -1.69204 -1.16443 0
M  V30 30300 H 2808.66 -1.20925 -3.67306 0
M  V30 30301 H 2810.35 -1.62557 -3.71928 0
M  V30 30302 H 2811.12 -3.94237 -2.82493 0
M  V30 30303 H 2807 -2.9488 -3.54354 0
M  V30 30304 H 2810.54 -6.34167 -2.90651 0
M  V30 30305 H 2806.44 -5.33936 -3.62744 0
M  V30 30306 H 2807.2 -7.40974 -3.47706 0
M  V30 30307 N 2809.87 1.13022 -1.09836 0
M  V30 30308 C 2810.82 2.20638 -0.736322 0
M  V30 30309 C 2811.81 1.67319 0.264696 0
M  V30 30310 O 2813.02 1.7956 0.125714 0
M  V30 30311 H 2809.39 0.719054 -0.220148 0
M  V30 30312 H 2811.36 2.48433 -1.65299 0
M  V30 30313 C 2810.11 3.47246 -0.177605 0
M  V30 30314 H 2809.43 3.88615 -0.939078 0
M  V30 30315 H 2810.87 4.23983 0.0377262 0
M  V30 30316 C 2809.33 3.18842 1.08819 0
M  V30 30317 O 2809.86 3.37997 2.17074 0
M  V30 30318 N 2808.07 2.72692 1.00437 0
M  V30 30319 H 2807.62 2.57305 0.123338 0
M  V30 30320 H 2807.57 2.54063 1.85201 0
M  V30 30321 N 2811.35 0.886177 1.30325 0
M  V30 30322 C 2812.28 0.370068 2.30549 0
M  V30 30323 C 2813.26 -0.547722 1.6104 0
M  V30 30324 O 2814.44 -0.461319 1.88641 0
M  V30 30325 C 2811.57 -0.415214 3.44809 0
M  V30 30326 C 2810.53 0.410925 4.26023 0
M  V30 30327 C 2809.85 -0.501034 5.32347 0
M  V30 30328 C 2811.15 1.65368 4.9543 0
M  V30 30329 H 2812.85 1.20758 2.73967 0
M  V30 30330 H 2810.39 0.58212 1.31709 0
M  V30 30331 H 2812.35 -0.786917 4.13987 0
M  V30 30332 H 2811.07 -1.28639 3.00199 0
M  V30 30333 H 2809.73 0.764782 3.58534 0
M  V30 30334 H 2809.38 -1.36995 4.83985 0
M  V30 30335 H 2809.08 0.0479389 5.8758 0
M  V30 30336 H 2810.6 -0.869227 6.04381 0
M  V30 30337 H 2812.01 1.35249 5.57118 0
M  V30 30338 H 2810.41 2.14294 5.60534 0
M  V30 30339 H 2811.48 2.3974 4.21488 0
M  V30 30340 N 2812.82 -1.43695 0.647253 0
M  V30 30341 C 2814.07 -2.0218 0.158458 0
M  V30 30342 C 2814.4 -1.50909 -1.2223 0
M  V30 30343 O 2813.68 -0.699734 -1.81477 0
M  V30 30344 C 2813.96 -3.59732 0.162763 0
M  V30 30345 C 2813.81 -4.21249 1.57701 0
M  V30 30346 C 2815.13 -4.37204 -0.504061 0
M  V30 30347 H 2812.25 -0.73463 0.059055 0
M  V30 30348 H 2814.89 -1.71067 0.826802 0
M  V30 30349 H 2813.04 -3.86369 -0.406346 0
M  V30 30350 H 2814.72 -4.05663 2.19625 0
M  V30 30351 H 2812.96 -3.78127 2.12609 0
M  V30 30352 H 2813.63 -5.30317 1.53193 0
M  V30 30353 H 2816.11 -4.16095 -0.019911 0
M  V30 30354 H 2814.98 -5.46882 -0.470297 0
M  V30 30355 H 2815.24 -4.1301 -1.57719 0
M  V30 30356 N 2814.3 -0.388796 -1.52729 0
M  V30 30357 C 2815.54 0.193336 -2.03484 0
M  V30 30358 C 2815.91 1.44085 -1.269 0
M  V30 30359 O 2817.11 2.10011 -1.67777 0
M  V30 30360 C 2815.38 0.455263 -3.54489 0
M  V30 30361 S 2816.94 1.00775 -4.27071 0
M  V30 30362 H 2813.76 0.0545007 -0.708908 0
M  V30 30363 H 2816.36 -0.537026 -1.87979 0
M  V30 30364 H 2815.06 -0.459794 -4.07816 0
M  V30 30365 H 2814.59 1.21406 -3.74198 0
M  V30 30366 H 2816.61 2.29015 -4.40189 0
M  V30 30367 N 2815.78 1.57153 -0.118604 0
M  V30 30368 C 2816.69 2.18836 0.845446 0
M  V30 30369 C 2817.71 1.1644 1.29297 0
M  V30 30370 O 2818.88 1.48908 1.35604 0
M  V30 30371 C 2815.95 2.77532 2.0779 0
M  V30 30372 C 2815.01 3.94963 1.68233 0
M  V30 30373 C 2814.24 4.5085 2.85604 0
M  V30 30374 O 2814.46 4.05636 4.01018 0
M  V30 30375 O 2813.4 5.4154 2.62712 0
M  V30 30376 H 2817.22 3.0167 0.350515 0
M  V30 30377 H 2814.81 1.49016 0.106987 0
M  V30 30378 H 2816.69 3.1495 2.79972 0
M  V30 30379 H 2815.37 1.9773 2.5629 0
M  V30 30380 H 2814.27 3.62315 0.931599 0
M  V30 30381 H 2815.61 4.762 1.24475 0
M  V30 30382 N 2817.26 -0.155167 1.56834 0
M  V30 30383 C 2818.49 -0.884293 1.8705 0
M  V30 30384 C 2818.9 -1.75108 0.70587 0
M  V30 30385 O 2818.26 -1.7959 -0.32461 0
M  V30 30386 C 2818.31 -1.74775 3.16443 0
M  V30 30387 O 2818.03 -0.915903 4.28419 0
M  V30 30388 C 2819.53 -2.58516 3.60117 0
M  V30 30389 H 2816.75 -0.256109 0.620201 0
M  V30 30390 H 2819.3 -0.150409 2.03946 0
M  V30 30391 H 2817.45 -2.43479 3.01325 0
M  V30 30392 H 2817.86 -1.50794 5.02356 0
M  V30 30393 H 2819.34 -3.1469 4.53513 0
M  V30 30394 H 2819.82 -3.34164 2.85011 0
M  V30 30395 H 2820.42 -1.95117 3.77901 0
M  V30 30396 N 2818.74 -1.51782 -0.424256 0
M  V30 30397 C 2819.67 -1.76992 -1.52302 0
M  V30 30398 C 2820.65 -0.620237 -1.58389 0
M  V30 30399 O 2821.83 -0.864298 -1.73907 0
M  V30 30400 C 2818.96 -1.90688 -2.90268 0
M  V30 30401 C 2817.92 -3.06203 -2.99038 0
M  V30 30402 C 2817.24 -3.051 -4.39111 0
M  V30 30403 C 2818.54 -4.45938 -2.71912 0
M  V30 30404 H 2820.24 -2.68997 -1.31457 0
M  V30 30405 H 2817.78 -1.29441 -0.630962 0
M  V30 30406 H 2819.74 -2.06907 -3.67107 0
M  V30 30407 H 2818.46 -0.95342 -3.12374 0
M  V30 30408 H 2817.12 -2.8971 -2.24641 0
M  V30 30409 H 2816.77 -2.07506 -4.58203 0
M  V30 30410 H 2816.47 -3.82677 -4.45906 0
M  V30 30411 H 2817.99 -3.23429 -5.17905 0
M  V30 30412 H 2819.4 -4.62715 -3.38479 0
M  V30 30413 H 2817.8 -5.2532 -2.90102 0
M  V30 30414 H 2818.87 -4.55075 -1.67437 0
M  V30 30415 N 2820.21 0.68054 -1.42149 0
M  V30 30416 C 2821.15 1.80603 -1.41122 0
M  V30 30417 C 2822.16 1.59799 -0.311127 0
M  V30 30418 O 2823.35 1.69025 -0.573843 0
M  V30 30419 C 2820.45 3.17616 -1.18209 0
M  V30 30420 C 2819.62 3.65318 -2.40544 0
M  V30 30421 C 2818.68 4.81047 -2.13262 0
M  V30 30422 O 2817.71 4.91887 -2.86419 0
M  V30 30423 N 2818.91 5.69352 -1.13218 0
M  V30 30424 H 2821.67 1.81971 -2.38131 0
M  V30 30425 H 2819.23 0.863422 -1.36955 0
M  V30 30426 H 2821.23 3.92684 -0.978849 0
M  V30 30427 H 2819.8 3.11182 -0.297435 0
M  V30 30428 H 2819.02 2.80992 -2.76473 0
M  V30 30429 H 2820.3 3.9393 -3.22019 0
M  V30 30430 H 2819.7 5.6324 -0.526992 0
M  V30 30431 H 2818.26 6.44256 -0.988812 0
M  V30 30432 N 2821.69 1.28226 0.916285 0
M  V30 30433 C 2822.94 1.15232 1.66516 0
M  V30 30434 C 2823.27 -0.299598 1.92179 0
M  V30 30435 O 2822.52 -1.23458 1.51844 0
M  V30 30436 C 2822.82 1.89346 3.03122 0
M  V30 30437 C 2822.49 3.39154 2.97129 0
M  V30 30438 C 2821.15 3.80012 2.95202 0
M  V30 30439 C 2823.5 4.3469 2.87566 0
M  V30 30440 C 2820.83 5.14752 2.81509 0
M  V30 30441 C 2823.18 5.695 2.75414 0
M  V30 30442 C 2821.85 6.09637 2.71843 0
M  V30 30443 H 2821.12 0.421665 0.609327 0
M  V30 30444 H 2823.76 1.58971 1.06773 0
M  V30 30445 H 2822.07 1.38149 3.66636 0
M  V30 30446 H 2823.76 1.7671 3.59965 0
M  V30 30447 H 2820.35 3.06666 2.99422 0
M  V30 30448 H 2824.54 4.04087 2.88144 0
M  V30 30449 H 2819.79 5.44981 2.77138 0
M  V30 30450 H 2823.97 6.4319 2.66982 0
M  V30 30451 H 2821.6 7.13994 2.6099 0
M  V30 30452 N 2823.17 -1.12438 1.10433 0
M  V30 30453 C 2824.1 -2.20257 0.775181 0
M  V30 30454 C 2825.08 -1.68226 -0.25183 0
M  V30 30455 O 2826.27 -1.93844 -0.117603 0
M  V30 30456 C 2823.4 -3.46687 0.206194 0
M  V30 30457 C 2822.35 -4.11871 1.16389 0
M  V30 30458 C 2821.68 -5.32751 0.456108 0
M  V30 30459 C 2822.98 -4.58009 2.51048 0
M  V30 30460 H 2824.67 -2.48047 1.67669 0
M  V30 30461 H 2822.22 -1.19221 0.807616 0
M  V30 30462 H 2824.17 -4.21384 -0.036217 0
M  V30 30463 H 2822.89 -3.18324 -0.730558 0
M  V30 30464 H 2821.55 -3.39154 1.39175 0
M  V30 30465 H 2821.2 -5.00655 -0.485115 0
M  V30 30466 H 2820.9 -5.77312 1.09476 0
M  V30 30467 H 2822.42 -6.10195 0.222243 0
M  V30 30468 H 2823.84 -5.24079 2.3241 0
M  V30 30469 H 2822.24 -5.13347 3.10798 0
M  V30 30470 H 2823.31 -3.71992 3.11046 0
M  V30 30471 N 2824.65 -0.893076 -1.29853 0
M  V30 30472 C 2825.93 -0.43537 -1.90693 0
M  V30 30473 C 2826.31 1.0845 -1.81112 0
M  V30 30474 O 2825.65 1.92343 -1.23356 0
M  V30 30475 C 2825.86 -0.942531 -3.36032 0
M  V30 30476 C 2827.21 -0.982298 -4.13081 0
M  V30 30477 O 2828.24 -0.889747 -3.44909 0
M  V30 30478 O 2827.1 -1.12031 -5.34894 0
M  V30 30479 H 2824.19 -0.134582 -0.815976 0
M  V30 30480 H 2826.74 -0.982508 -1.38365 0
M  V30 30481 H 2825.51 -1.98646 -3.37128 0
M  V30 30482 H 2825.13 -0.375022 -3.95827 0
M  V30 30483 N 2826.13 1.4335 -0.654865 0
M  V30 30484 C 2827.38 2.01014 -0.16625 0
M  V30 30485 C 2827.69 1.5228 1.22761 0
M  V30 30486 O 2828.9 2.02228 1.81153 0
M  V30 30487 C 2827.35 3.59056 -0.246404 0
M  V30 30488 C 2826.96 4.16782 -1.64306 0
M  V30 30489 C 2828.7 4.24099 0.184522 0
M  V30 30490 C 2826.61 5.67123 -1.67705 0
M  V30 30491 H 2825.54 0.751736 -0.0583901 0
M  V30 30492 H 2828.19 1.64302 -0.81714 0
M  V30 30493 H 2826.57 3.93177 0.472023 0
M  V30 30494 H 2827.75 3.94158 -2.38697 0
M  V30 30495 H 2826.06 3.64116 -2.0201 0
M  V30 30496 H 2828.66 5.344 0.178994 0
M  V30 30497 H 2829 3.98137 1.21625 0
M  V30 30498 H 2829.54 3.94867 -0.48221 0
M  V30 30499 H 2826.27 5.97855 -2.68793 0
M  V30 30500 H 2825.79 5.91799 -0.976417 0
M  V30 30501 H 2827.47 6.31191 -1.42153 0
M  V30 30502 N 2827.61 0.39689 1.52521 0
M  V30 30503 C 2828.54 -0.478887 2.23119 0
M  V30 30504 C 2829.52 -1.05794 1.23476 0
M  V30 30505 O 2830.7 -1.10814 1.52488 0
M  V30 30506 C 2827.83 -1.66357 2.9503 0
M  V30 30507 C 2826.87 -1.20906 4.09004 0
M  V30 30508 S 2827.71 -0.184312 5.35183 0
M  V30 30509 C 2828.86 -1.37461 6.10619 0
M  V30 30510 H 2829.1 0.120595 2.97055 0
M  V30 30511 H 2826.63 0.181117 1.53334 0
M  V30 30512 H 2828.59 -2.34295 3.3707 0
M  V30 30513 H 2827.25 -2.23437 2.2076 0
M  V30 30514 H 2826.44 -2.09381 4.58449 0
M  V30 30515 H 2826.04 -0.608495 3.69017 0
M  V30 30516 H 2828.33 -2.30037 6.37251 0
M  V30 30517 H 2829.28 -0.920927 7.02086 0
M  V30 30518 H 2829.69 -1.59485 5.41502 0
M  V30 30519 N 2829.08 -1.57088 0.126936 0
M  V30 30520 C 2830.32 -1.97352 -0.532125 0
M  V30 30521 C 2830.69 -1.00916 -1.6334 0
M  V30 30522 O 2831.89 -1.30148 -2.35191 0
M  V30 30523 C 2830.16 -3.41818 -1.04379 0
M  V30 30524 S 2831.72 -4.04098 -1.71026 0
M  V30 30525 H 2828.54 -0.689704 -0.172712 0
M  V30 30526 H 2831.14 -1.94326 0.213899 0
M  V30 30527 H 2829.84 -4.09748 -0.231217 0
M  V30 30528 H 2829.37 -3.48512 -1.8249 0
M  V30 30529 H 2831.39 -3.95506 -2.99649 0
M  V30 30530 N 2830.56 0.146848 -1.56914 0
M  V30 30531 C 2831.81 0.857738 -1.82995 0
M  V30 30532 C 2832.13 1.81699 -0.707846 0
M  V30 30533 O 2831.4 1.94024 0.270487 0
M  V30 30534 H 2829.98 0.319739 -0.675112 0
M  V30 30535 H 2832.64 0.140815 -1.94391 0
M  V30 30536 H 2831.74 1.41989 -2.77931 0
M  V30 30537 N 2832.04 1.52005 0.4162 0
M  V30 30538 C 2833.26 1.69846 1.19026 0
M  V30 30539 C 2833.69 0.404136 1.83707 0
M  V30 30540 O 2833.05 -0.637757 1.69713 0
M  V30 30541 C 2833.1 2.83036 2.23434 0
M  V30 30542 O 2832.2 2.48112 3.29415 0
M  V30 30543 H 2831.54 0.56564 0.347775 0
M  V30 30544 H 2834.07 1.98674 0.488836 0
M  V30 30545 H 2834.08 3.07742 2.67879 0
M  V30 30546 H 2832.76 3.76947 1.75738 0
M  V30 30547 H 2831.33 2.34053 2.90299 0
M  V30 30548 N 2833.52 -0.672992 1.42508 0
M  V30 30549 C 2834.75 -1.46125 1.46476 0
M  V30 30550 C 2835.16 -1.88644 0.0766243 0
M  V30 30551 O 2834.52 -1.5825 -0.909029 0
M  V30 30552 C 2834.57 -2.70919 2.39343 0
M  V30 30553 O 2834.29 -2.30183 3.72756 0
M  V30 30554 C 2835.79 -3.64465 2.5235 0
M  V30 30555 H 2833.01 -0.449566 0.498128 0
M  V30 30556 H 2835.55 -0.826769 1.87042 0
M  V30 30557 H 2833.71 -3.30552 2.02025 0
M  V30 30558 H 2834.12 -3.10784 4.22509 0
M  V30 30559 H 2835.6 -4.48748 3.21448 0
M  V30 30560 H 2836.07 -4.10487 1.56196 0
M  V30 30561 H 2836.68 -3.10724 2.90397 0
M  V30 30562 N 2835 -1.2871 -0.909472 0
M  V30 30563 C 2836.22 -1.18976 -1.6927 0
M  V30 30564 C 2836.64 0.251015 -1.87124 0
M  V30 30565 O 2836 1.16919 -1.40129 0
M  V30 30566 C 2836.05 -1.88844 -3.08253 0
M  V30 30567 O 2835.77 -3.27294 -2.91222 0
M  V30 30568 C 2837.27 -1.85464 -4.02639 0
M  V30 30569 H 2834.49 -0.412806 -0.528992 0
M  V30 30570 H 2837.03 -1.69911 -1.138 0
M  V30 30571 H 2835.19 -1.41769 -3.60528 0
M  V30 30572 H 2835.6 -3.62346 -3.79217 0
M  V30 30573 H 2837.08 -2.38933 -4.97609 0
M  V30 30574 H 2837.55 -0.827969 -4.31325 0
M  V30 30575 H 2838.16 -2.32239 -3.56294 0
M  V30 30576 N 2836.47 1.1185 -1.11028 0
M  V30 30577 C 2837.72 1.83133 -0.854801 0
M  V30 30578 C 2838.04 1.84836 0.621342 0
M  V30 30579 O 2837.31 1.31587 1.45127 0
M  V30 30580 H 2835.89 0.678151 -0.313241 0
M  V30 30581 H 2838.55 1.35409 -1.4018 0
M  V30 30582 H 2837.65 2.87133 -1.22316 0
M  V30 30583 N 2837.95 0.89995 1.29378 0
M  V30 30584 C 2839.2 0.524958 1.95163 0
M  V30 30585 C 2839.52 -0.931858 1.71293 0
M  V30 30586 O 2838.79 -1.6571 1.04484 0
M  V30 30587 H 2837.37 0.191148 0.72213 0
M  V30 30588 H 2840.03 1.1463 1.57626 0
M  V30 30589 H 2839.13 0.707765 3.03969 0
M  V30 30590 N 2839.43 -1.43001 0.662458 0
M  V30 30591 C 2840.36 -2.33498 -0.00975705 0
M  V30 30592 C 2841.34 -1.4999 -0.802303 0
M  V30 30593 O 2842.53 -1.78629 -0.761932 0
M  V30 30594 C 2839.66 -3.33468 -0.970388 0
M  V30 30595 C 2838.61 -4.27035 -0.287308 0
M  V30 30596 C 2837.94 -5.17114 -1.36003 0
M  V30 30597 C 2839.24 -5.15727 0.826041 0
M  V30 30598 H 2840.93 -2.89957 0.74601 0
M  V30 30599 H 2838.48 -1.39422 0.360197 0
M  V30 30600 H 2840.43 -3.95681 -1.44964 0
M  V30 30601 H 2839.15 -2.75285 -1.75743 0
M  V30 30602 H 2837.81 -3.66198 0.171584 0
M  V30 30603 H 2837.46 -4.55266 -2.13874 0
M  V30 30604 H 2837.16 -5.80539 -0.908174 0
M  V30 30605 H 2838.68 -5.82202 -1.84045 0
M  V30 30606 H 2840.1 -5.71696 0.428551 0
M  V30 30607 H 2838.5 -5.8792 1.20292 0
M  V30 30608 H 2839.57 -4.54863 1.68011 0
M  V30 30609 N 2840.91 -0.404973 -1.52308 0
M  V30 30610 C 2842.16 0.171824 -2.01368 0
M  V30 30611 C 2842.48 1.46 -1.29264 0
M  V30 30612 O 2841.75 1.91403 -0.417324 0
M  V30 30613 H 2840.33 0.0664863 -0.744035 0
M  V30 30614 H 2842.99 -0.540261 -1.87262 0
M  V30 30615 H 2842.09 0.370902 -3.09888 0
M  V30 30616 N 2842.39 1.57018 -0.135265 0
M  V30 30617 C 2843.32 2.19178 0.805196 0
M  V30 30618 C 2844.3 1.13654 1.26558 0
M  V30 30619 O 2845.48 1.41953 1.32526 0
M  V30 30620 C 2842.61 2.8041 2.04909 0
M  V30 30621 C 2841.57 3.91658 1.72591 0
M  V30 30622 C 2840.89 4.39772 3.04146 0
M  V30 30623 C 2842.19 5.12993 0.981619 0
M  V30 30624 H 2843.89 2.9802 0.287179 0
M  V30 30625 H 2841.43 1.4335 0.136689 0
M  V30 30626 H 2843.39 3.22558 2.71172 0
M  V30 30627 H 2842.11 1.98882 2.59063 0
M  V30 30628 H 2840.77 3.50111 1.08711 0
M  V30 30629 H 2840.42 3.55081 3.56267 0
M  V30 30630 H 2840.12 5.14801 2.8329 0
M  V30 30631 H 2841.64 4.84582 3.715 0
M  V30 30632 H 2843.05 5.52058 1.5461 0
M  V30 30633 H 2841.45 5.9371 0.873428 0
M  V30 30634 H 2842.52 4.84891 -0.028774 0
M  V30 30635 N 2843.86 -0.138524 1.5699 0
M  V30 30636 C 2844.79 -1.17237 2.01935 0
M  V30 30637 C 2845.78 -1.44318 0.900356 0
M  V30 30638 O 2846.96 -1.55093 1.16875 0
M  V30 30639 C 2844.09 -2.50347 2.40715 0
M  V30 30640 C 2843.04 -2.3777 3.55878 0
M  V30 30641 C 2842.37 -3.75667 3.80498 0
M  V30 30642 C 2843.67 -1.85463 4.88263 0
M  V30 30643 H 2845.36 -0.798622 2.88552 0
M  V30 30644 H 2842.91 -0.382719 1.38821 0
M  V30 30645 H 2844.86 -3.22905 2.70759 0
M  V30 30646 H 2843.59 -2.89574 1.51045 0
M  V30 30647 H 2842.25 -1.67663 3.26013 0
M  V30 30648 H 2841.89 -4.12344 2.88064 0
M  V30 30649 H 2841.59 -3.68111 4.58005 0
M  V30 30650 H 2843.12 -4.4976 4.12975 0
M  V30 30651 H 2844.53 -2.47821 5.1697 0
M  V30 30652 H 2842.93 -1.88777 5.69634 0
M  V30 30653 H 2844 -0.810851 4.78072 0
M  V30 30654 N 2845.34 -1.52224 -0.408133 0
M  V30 30655 C 2846.59 -1.66003 -1.15271 0
M  V30 30656 C 2846.91 -0.392837 -1.91002 0
M  V30 30657 O 2846.18 0.592303 -1.86731 0
M  V30 30658 H 2844.76 -0.611869 -0.428515 0
M  V30 30659 H 2847.42 -1.8927 -0.465087 0
M  V30 30660 H 2846.52 -2.50156 -1.86623 0
M  V30 30661 N 2846.82 0.665425 -1.42863 0
M  V30 30662 C 2847.75 1.79056 -1.4987 0
M  V30 30663 C 2848.73 1.66367 -0.354423 0
M  V30 30664 O 2849.92 1.85646 -0.570002 0
M  V30 30665 C 2847.05 3.17413 -1.40949 0
M  V30 30666 C 2846 3.4485 -2.53501 0
M  V30 30667 C 2845.33 4.82879 -2.29634 0
M  V30 30668 C 2846.63 3.40808 -3.95787 0
M  V30 30669 H 2848.32 1.73449 -2.44041 0
M  V30 30670 H 2845.87 0.83305 -1.17458 0
M  V30 30671 H 2847.82 3.95866 -1.44457 0
M  V30 30672 H 2846.54 3.2372 -0.432773 0
M  V30 30673 H 2845.2 2.68761 -2.49325 0
M  V30 30674 H 2844.85 4.85848 -1.30235 0
M  V30 30675 H 2844.55 5.02199 -3.05074 0
M  V30 30676 H 2846.07 5.63605 -2.34907 0
M  V30 30677 H 2847.49 4.09217 -4.01515 0
M  V30 30678 H 2845.89 3.71664 -4.71154 0
M  V30 30679 H 2846.96 2.39209 -4.21791 0
M  V30 30680 N 2848.3 1.29191 0.902633 0
M  V30 30681 C 2849.53 1.19698 1.68392 0
M  V30 30682 C 2849.94 -0.245351 1.87602 0
M  V30 30683 O 2849.28 -1.17645 1.41086 0
M  V30 30684 C 2849.34 1.83583 3.09091 0
M  V30 30685 C 2849.01 3.3287 3.13124 0
M  V30 30686 C 2850 4.29139 2.93489 0
M  V30 30687 C 2847.69 3.74019 3.35283 0
M  V30 30688 C 2849.68 5.64532 2.95943 0
M  V30 30689 C 2847.37 5.09535 3.37368 0
M  V30 30690 C 2848.37 6.04602 3.1772 0
M  V30 30691 O 2848.05 7.37644 3.19587 0
M  V30 30692 H 2847.79 0.416044 0.532807 0
M  V30 30693 H 2850.34 1.71035 1.13737 0
M  V30 30694 H 2848.57 1.26754 3.65336 0
M  V30 30695 H 2850.26 1.68453 3.69294 0
M  V30 30696 H 2851.03 3.98681 2.76185 0
M  V30 30697 H 2846.9 3.0048 3.49618 0
M  V30 30698 H 2850.45 6.38711 2.80525 0
M  V30 30699 H 2846.35 5.39639 3.54203 0
M  V30 30700 H 2847.11 7.46412 3.35874 0
M  V30 30701 N 2849.78 -1.1126 1.1162 0
M  V30 30702 C 2851.03 -1.82401 0.860966 0
M  V30 30703 C 2851.34 -1.85671 -0.61527 0
M  V30 30704 O 2852.54 -2.52931 -0.986816 0
M  V30 30705 C 2851 -3.27584 1.49054 0
M  V30 30706 C 2850.61 -3.32637 3.00095 0
M  V30 30707 C 2852.35 -4.03611 1.31522 0
M  V30 30708 C 2850.26 -4.72228 3.56027 0
M  V30 30709 H 2849.19 -0.683458 0.318435 0
M  V30 30710 H 2851.84 -1.25186 1.34167 0
M  V30 30711 H 2850.22 -3.84743 0.937502 0
M  V30 30712 H 2851.4 -2.85349 3.61818 0
M  V30 30713 H 2849.71 -2.7009 3.16923 0
M  V30 30714 H 2852.31 -5.06707 1.7074 0
M  V30 30715 H 2852.65 -4.155 0.257991 0
M  V30 30716 H 2853.18 -3.52844 1.837 0
M  V30 30717 H 2849.92 -4.65537 4.61471 0
M  V30 30718 H 2849.44 -5.19917 2.99075 0
M  V30 30719 H 2851.12 -5.41187 3.54578 0
M  V30 30720 N 2851.25 -0.906798 -1.28899 0
M  V30 30721 C 2852.2 -0.379913 -2.29476 0
M  V30 30722 C 2853.2 0.524719 -1.61068 0
M  V30 30723 O 2854.4 0.406734 -1.75344 0
M  V30 30724 H 2850.78 -0.104243 -0.74474 0
M  V30 30725 H 2852.75 -1.24141 -2.71351 0
M  V30 30726 C 2851.5 0.371093 -3.45714 0
M  V30 30727 H 2850.82 -0.315786 -3.98551 0
M  V30 30728 H 2852.26 0.704508 -4.18106 0
M  V30 30729 C 2850.72 1.57641 -2.97743 0
M  V30 30730 O 2851.25 2.67562 -2.99623 0
M  V30 30731 N 2849.46 1.42101 -2.53487 0
M  V30 30732 H 2849 0.526739 -2.52157 0
M  V30 30733 H 2848.96 2.22877 -2.2175 0
M  V30 30734 N 2852.73 1.42648 -0.670032 0
M  V30 30735 C 2853.64 2.34597 0.0114375 0
M  V30 30736 C 2854.66 1.54826 0.794028 0
M  V30 30737 O 2855.83 1.87413 0.737439 0
M  V30 30738 C 2852.9 3.33305 0.954377 0
M  V30 30739 C 2851.96 4.28976 0.16685 0
M  V30 30740 C 2851.19 5.22969 1.06488 0
M  V30 30741 O 2851.42 5.21781 2.30436 0
M  V30 30742 O 2850.35 5.99578 0.528241 0
M  V30 30743 H 2854.18 2.94399 -0.745846 0
M  V30 30744 H 2851.76 1.43071 -0.430253 0
M  V30 30745 H 2853.64 3.93958 1.49582 0
M  V30 30746 H 2852.32 2.75983 1.69159 0
M  V30 30747 H 2851.23 3.71751 -0.41858 0
M  V30 30748 H 2852.56 4.89326 -0.531153 0
M  V30 30749 N 2854.21 0.413044 1.52091 0
M  V30 30750 C 2855.49 -0.220206 1.94357 0
M  V30 30751 C 2855.87 -1.62274 1.35019 0
M  V30 30752 O 2855.22 -2.22327 0.52755 0
M  V30 30753 C 2855.43 -0.222577 3.4829 0
M  V30 30754 C 2856.77 -0.440024 4.22314 0
M  V30 30755 O 2857.8 -0.301763 3.54919 0
M  V30 30756 O 2856.66 -0.712889 5.4183 0
M  V30 30757 H 2853.75 -0.143026 0.814538 0
M  V30 30758 H 2856.3 0.469271 1.63083 0
M  V30 30759 H 2855.07 0.758903 3.8387 0
M  V30 30760 H 2854.69 -0.955989 3.85936 0
M  V30 30761 N 2855.69 -1.56945 0.143591 0
M  V30 30762 C 2856.64 -2.17872 -0.814517 0
M  V30 30763 C 2857.63 -1.13476 -1.25776 0
M  V30 30764 O 2858.84 -1.31733 -1.22664 0
M  V30 30765 H 2855.21 -0.697583 -0.28086 0
M  V30 30766 H 2857.18 -2.97117 -0.276407 0
M  V30 30767 C 2855.93 -2.81204 -2.04498 0
M  V30 30768 H 2855.26 -3.61248 -1.71289 0
M  V30 30769 H 2856.7 -3.27342 -2.69487 0
M  V30 30770 C 2855.15 -1.79537 -2.85076 0
M  V30 30771 O 2855.68 -1.26374 -3.81304 0
M  V30 30772 N 2853.89 -1.48918 -2.49543 0
M  V30 30773 H 2853.44 -1.92341 -1.71356 0
M  V30 30774 H 2853.4 -0.811401 -3.03749 0
M  V30 30775 N 2857.17 0.130197 -1.57061 0
M  V30 30776 C 2858.41 0.841184 -1.84532 0
M  V30 30777 C 2858.75 1.80051 -0.727698 0
M  V30 30778 O 2858.02 1.92653 0.267386 0
M  V30 30779 C 2858.3 1.60094 -3.22555 0
M  V30 30780 C 2858.16 0.66197 -4.44902 0
M  V30 30781 C 2859.48 2.55967 -3.58007 0
M  V30 30782 H 2856.6 0.304355 -0.671221 0
M  V30 30783 H 2859.24 0.105787 -1.89705 0
M  V30 30784 H 2857.39 2.22784 -3.18276 0
M  V30 30785 H 2859.06 0.0447748 -4.61278 0
M  V30 30786 H 2857.3 -0.0273016 -4.33791 0
M  V30 30787 H 2857.97 1.22997 -5.38122 0
M  V30 30788 H 2860.45 2.03387 -3.63005 0
M  V30 30789 H 2859.33 3.06164 -4.55582 0
M  V30 30790 H 2859.59 3.38111 -2.84839 0
M  V30 30791 N 2858.65 1.52438 0.400055 0
M  V30 30792 C 2859.89 1.66612 1.14389 0
M  V30 30793 C 2860.21 0.402961 1.90791 0
M  V30 30794 O 2859.48 -0.582392 1.87043 0
M  V30 30795 H 2858.06 0.614133 0.425265 0
M  V30 30796 H 2860.73 1.89514 0.455043 0
M  V30 30797 H 2859.82 2.51142 1.85294 0
M  V30 30798 N 2860.12 -0.657839 1.43214 0
M  V30 30799 C 2861.05 -1.78259 1.50818 0
M  V30 30800 C 2862.03 -1.66176 0.363241 0
M  V30 30801 O 2863.22 -1.85342 0.579839 0
M  V30 30802 C 2860.35 -3.16661 1.4263 0
M  V30 30803 C 2859.3 -3.43501 2.55326 0
M  V30 30804 C 2858.63 -4.81654 2.32192 0
M  V30 30805 C 2859.93 -3.38704 3.97589 0
M  V30 30806 H 2861.62 -1.72152 2.44957 0
M  V30 30807 H 2859.17 -0.826809 1.17898 0
M  V30 30808 H 2861.12 -3.95095 1.46555 0
M  V30 30809 H 2859.85 -3.23486 0.449934 0
M  V30 30810 H 2858.51 -2.67435 2.50747 0
M  V30 30811 H 2858.15 -4.8515 1.32809 0
M  V30 30812 H 2857.85 -5.00574 3.07733 0
M  V30 30813 H 2859.38 -5.62352 2.37893 0
M  V30 30814 H 2860.79 -4.07082 4.0368 0
M  V30 30815 H 2859.19 -3.6916 4.73118 0
M  V30 30816 H 2860.26 -2.36968 4.23053 0
M  V30 30817 N 2861.6 -1.29668 -0.895769 0
M  V30 30818 C 2862.85 -1.18042 -1.64906 0
M  V30 30819 C 2863.18 0.266648 -1.92361 0
M  V30 30820 O 2862.46 1.19211 -1.53684 0
M  V30 30821 C 2862.74 -1.99824 -2.9957 0
M  V30 30822 C 2862.59 -3.52692 -2.79156 0
M  V30 30823 C 2863.91 -1.82768 -4.00355 0
M  V30 30824 H 2861.03 -0.430175 -0.59843 0
M  V30 30825 H 2863.67 -1.59184 -1.03733 0
M  V30 30826 H 2861.82 -1.64865 -3.51784 0
M  V30 30827 H 2863.49 -3.97654 -2.33814 0
M  V30 30828 H 2861.74 -3.77418 -2.13864 0
M  V30 30829 H 2862.41 -4.05193 -3.74864 0
M  V30 30830 H 2864.88 -2.1331 -3.57265 0
M  V30 30831 H 2863.76 -2.42334 -4.92509 0
M  V30 30832 H 2864.02 -0.783916 -4.35094 0
M  V30 30833 N 2863.08 1.10667 -1.12208 0
M  V30 30834 C 2864.33 1.81942 -0.870627 0
M  V30 30835 C 2864.64 1.85995 0.605415 0
M  V30 30836 O 2865.85 2.53451 0.973389 0
M  V30 30837 C 2864.3 3.26789 -1.50789 0
M  V30 30838 C 2863.91 3.31041 -3.01854 0
M  V30 30839 C 2865.66 4.02908 -1.33661 0
M  V30 30840 C 2863.56 4.70333 -3.58526 0
M  V30 30841 H 2862.49 0.68176 -0.322055 0
M  V30 30842 H 2865.14 1.24473 -1.34829 0
M  V30 30843 H 2863.53 3.8424 -0.957892 0
M  V30 30844 H 2864.7 2.83427 -3.63326 0
M  V30 30845 H 2863.01 2.68405 -3.18351 0
M  V30 30846 H 2865.61 5.05794 -1.73425 0
M  V30 30847 H 2865.95 4.15357 -0.280022 0
M  V30 30848 H 2866.49 3.51865 -1.85569 0
M  V30 30849 H 2863.23 4.63083 -4.63933 0
M  V30 30850 H 2862.75 5.18324 -3.01828 0
M  V30 30851 H 2864.43 5.39299 -3.57443 0
M  V30 30852 N 2864.56 0.913621 1.28416 0
M  V30 30853 C 2865.49 0.359209 2.26368 0
M  V30 30854 C 2866.5 -0.502258 1.54859 0
M  V30 30855 O 2867.69 -0.317159 1.7566 0
M  V30 30856 C 2864.79 -0.505201 3.35113 0
M  V30 30857 C 2863.96 0.333725 4.36125 0
M  V30 30858 C 2863.02 -0.465752 5.24135 0
M  V30 30859 O 2862.05 0.121638 5.6907 0
M  V30 30860 N 2863.25 -1.76881 5.52895 0
M  V30 30861 H 2866.02 1.20115 2.74577 0
M  V30 30862 H 2863.58 0.779557 1.41896 0
M  V30 30863 H 2865.57 -1.04677 3.90928 0
M  V30 30864 H 2864.14 -1.24785 2.86614 0
M  V30 30865 H 2863.36 1.05667 3.79774 0
M  V30 30866 H 2864.65 0.907757 5.00637 0
M  V30 30867 H 2864.05 -2.26856 5.18221 0
M  V30 30868 H 2862.6 -2.25721 6.11468 0
M  V30 30869 N 2866.04 -1.4229 0.677588 0
M  V30 30870 C 2867.26 -2.05837 0.209495 0
M  V30 30871 C 2867.68 -1.50919 -1.13442 0
M  V30 30872 O 2867.04 -0.65011 -1.70528 0
M  V30 30873 C 2867.09 -3.61233 0.138883 0
M  V30 30874 O 2866.81 -4.14115 1.42969 0
M  V30 30875 C 2868.31 -4.41897 -0.352371 0
M  V30 30876 H 2865.53 -0.663322 0.10122 0
M  V30 30877 H 2868.07 -1.82379 0.925109 0
M  V30 30878 H 2866.23 -3.83793 -0.527437 0
M  V30 30879 H 2866.64 -5.08009 1.30489 0
M  V30 30880 H 2868.12 -5.50885 -0.350682 0
M  V30 30881 H 2868.59 -4.16686 -1.38813 0
M  V30 30882 H 2869.2 -4.24362 0.28231 0
M  V30 30883 N 2867.51 -0.421104 -1.5187 0
M  V30 30884 C 2868.44 0.389322 -2.30231 0
M  V30 30885 C 2869.42 1.03553 -1.34948 0
M  V30 30886 O 2870.61 1.04226 -1.63861 0
M  V30 30887 C 2867.74 1.49973 -3.1325 0
M  V30 30888 C 2866.69 0.977893 -4.16679 0
M  V30 30889 C 2866.02 2.18281 -4.88116 0
M  V30 30890 C 2867.32 0.0235857 -5.22295 0
M  V30 30891 H 2869.01 -0.264576 -2.98229 0
M  V30 30892 H 2866.56 -0.128685 -1.43424 0
M  V30 30893 H 2868.51 2.07377 -3.66842 0
M  V30 30894 H 2867.24 2.18168 -2.43044 0
M  V30 30895 H 2865.9 0.426181 -3.64114 0
M  V30 30896 H 2865.54 2.85059 -4.14428 0
M  V30 30897 H 2865.24 1.84011 -5.58044 0
M  V30 30898 H 2866.77 2.76269 -5.44525 0
M  V30 30899 H 2868.18 0.506798 -5.71056 0
M  V30 30900 H 2866.58 -0.230887 -5.99656 0
M  V30 30901 H 2867.65 -0.918083 -4.76129 0
M  V30 30902 N 2868.99 1.56866 -0.151912 0
M  V30 30903 C 2869.9 2.20581 0.798837 0
M  V30 30904 C 2870.92 1.19156 1.26798 0
M  V30 30905 O 2872.09 1.51751 1.32415 0
M  V30 30906 C 2869.16 2.81877 2.01856 0
M  V30 30907 C 2868.22 3.98443 1.59818 0
M  V30 30908 C 2867.45 4.56807 2.75976 0
M  V30 30909 O 2867.68 4.14051 3.92323 0
M  V30 30910 O 2866.61 5.46991 2.51166 0
M  V30 30911 H 2870.44 3.02346 0.286447 0
M  V30 30912 H 2868.02 1.4921 0.0753544 0
M  V30 30913 H 2869.9 3.20818 2.73229 0
M  V30 30914 H 2868.58 2.03121 2.52038 0
M  V30 30915 H 2867.49 3.64209 0.854537 0
M  V30 30916 H 2868.82 4.78733 1.14347 0
M  V30 30917 N 2870.47 -0.121866 1.57128 0
M  V30 30918 C 2871.7 -0.844418 1.88884 0
M  V30 30919 C 2872.11 -1.73572 0.742854 0
M  V30 30920 O 2871.47 -1.80238 -0.286443 0
M  V30 30921 C 2871.52 -1.68023 3.20079 0
M  V30 30922 O 2871.24 -0.824823 4.30265 0
M  V30 30923 C 2872.74 -2.50819 3.6552 0
M  V30 30924 H 2869.96 -0.242896 0.625494 0
M  V30 30925 H 2872.51 -0.107115 2.04219 0
M  V30 30926 H 2870.66 -2.37032 3.06422 0
M  V30 30927 H 2871.08 -1.40104 5.05441 0
M  V30 30928 H 2872.55 -3.05 4.60086 0
M  V30 30929 H 2873.03 -3.28043 2.92035 0
M  V30 30930 H 2873.63 -1.87057 3.81955 0
M  V30 30931 N 2871.95 -1.52648 -0.391965 0
M  V30 30932 C 2872.88 -1.80183 -1.48514 0
M  V30 30933 C 2873.86 -0.653694 -1.57038 0
M  V30 30934 O 2875.04 -0.900992 -1.72034 0
M  V30 30935 C 2872.17 -1.96802 -2.86158 0
M  V30 30936 C 2871.13 -3.12477 -2.92476 0
M  V30 30937 C 2870.45 -3.14345 -4.3254 0
M  V30 30938 C 2871.75 -4.51606 -2.62392 0
M  V30 30939 H 2873.45 -2.71725 -1.25721 0
M  V30 30940 H 2870.99 -1.3075 -0.603364 0
M  V30 30941 H 2872.95 -2.14647 -3.62635 0
M  V30 30942 H 2871.67 -1.01946 -3.10281 0
M  V30 30943 H 2870.33 -2.9441 -2.18445 0
M  V30 30944 H 2869.98 -2.17178 -4.53699 0
M  V30 30945 H 2869.68 -3.92049 -4.37688 0
M  V30 30946 H 2871.2 -3.34342 -5.10928 0
M  V30 30947 H 2872.62 -4.6979 -3.28588 0
M  V30 30948 H 2871.01 -5.31355 -2.78894 0
M  V30 30949 H 2872.08 -4.58524 -1.57746 0
M  V30 30950 N 2873.43 0.650235 -1.43561 0
M  V30 30951 C 2874.65 1.43776 -1.48782 0
M  V30 30952 C 2875.07 1.88499 -0.106626 0
M  V30 30953 O 2874.43 1.59676 0.883738 0
M  V30 30954 C 2874.48 2.67077 -2.43623 0
M  V30 30955 O 2874.2 2.24224 -3.76371 0
M  V30 30956 C 2875.7 3.60404 -2.58116 0
M  V30 30957 H 2872.92 0.441584 -0.505217 0
M  V30 30958 H 2875.46 0.796908 -1.88334 0
M  V30 30959 H 2873.62 3.27296 -2.07258 0
M  V30 30960 H 2874.03 3.04023 -4.274 0
M  V30 30961 H 2875.51 4.43578 -3.28547 0
M  V30 30962 H 2875.98 4.0795 -1.62707 0
M  V30 30963 H 2876.59 3.06065 -2.95304 0
M  V30 30964 N 2874.9 1.30141 0.88888 0
M  V30 30965 C 2875.81 1.18104 2.02703 0
M  V30 30966 C 2876.83 0.10184 1.73702 0
M  V30 30967 O 2878.01 0.316019 1.98905 0
M  V30 30968 C 2875.07 0.86971 3.35614 0
M  V30 30969 C 2874.13 2.03388 3.78063 0
M  V30 30970 C 2873.37 1.7373 5.04632 0
M  V30 30971 O 2873.59 0.663366 5.66529 0
M  V30 30972 O 2872.52 2.58855 5.43395 0
M  V30 30973 H 2876.35 2.13707 2.15784 0
M  V30 30974 H 2873.93 1.09697 1.01424 0
M  V30 30975 H 2875.82 0.711116 4.15357 0
M  V30 30976 H 2874.49 -0.0564433 3.23651 0
M  V30 30977 H 2873.4 2.24777 2.99042 0
M  V30 30978 H 2874.73 2.94162 3.94626 0
M  V30 30979 N 2876.38 -1.1007 1.12794 0
M  V30 30980 C 2877.61 -1.85615 0.907221 0
M  V30 30981 C 2878.02 -1.81116 -0.547149 0
M  V30 30982 O 2877.36 -1.20078 -1.39022 0
M  V30 30983 C 2877.43 -3.3483 1.30878 0
M  V30 30984 C 2877.09 -3.63085 2.77522 0
M  V30 30985 C 2878.09 -3.59366 3.75702 0
M  V30 30986 C 2875.77 -3.91641 3.1452 0
M  V30 30987 C 2877.77 -3.83804 5.08895 0
M  V30 30988 C 2875.45 -4.15734 4.47893 0
M  V30 30989 C 2876.45 -4.11806 5.4489 0
M  V30 30990 O 2876.14 -4.35283 6.75858 0
M  V30 30991 H 2875.87 -0.593369 0.323865 0
M  V30 30992 H 2878.42 -1.40035 1.50264 0
M  V30 30993 H 2876.65 -3.81085 0.656585 0
M  V30 30994 H 2878.34 -3.91772 1.0616 0
M  V30 30995 H 2879.11 -3.37339 3.48464 0
M  V30 30996 H 2874.99 -3.93826 2.39628 0
M  V30 30997 H 2878.53 -3.80653 5.84593 0
M  V30 30998 H 2874.43 -4.37241 4.74859 0
M  V30 30999 H 2875.2 -4.52779 6.81861 0
M  V30 31000 N 2877.86 -0.920419 -1.2793 0
M  V30 31001 C 2879.1 -0.564232 -1.96458 0
M  V30 31002 C 2879.46 0.876937 -1.70803 0
M  V30 31003 O 2880.67 1.34103 -2.32959 0
M  V30 31004 C 2878.94 -0.872702 -3.46581 0
M  V30 31005 S 2880.5 -0.623935 -4.34341 0
M  V30 31006 H 2877.31 -0.208535 -0.679731 0
M  V30 31007 H 2879.92 -1.1873 -1.55317 0
M  V30 31008 H 2878.62 -1.9194 -3.6275 0
M  V30 31009 H 2878.15 -0.238548 -3.92676 0
M  V30 31010 H 2880.17 0.521658 -4.9345 0
M  V30 31011 N 2879.34 1.41929 -0.685124 0
M  V30 31012 C 2880.27 2.29185 0.0258276 0
M  V30 31013 C 2881.28 1.44232 0.755051 0
M  V30 31014 O 2882.47 1.67845 0.607491 0
M  V30 31015 C 2879.57 3.2188 1.0605 0
M  V30 31016 C 2878.75 4.35539 0.403011 0
M  V30 31017 C 2877.8 5.08882 1.33886 0
M  V30 31018 O 2876.83 5.63039 0.835227 0
M  V30 31019 N 2878.03 5.15364 2.67171 0
M  V30 31020 H 2880.8 2.90842 -0.723252 0
M  V30 31021 H 2878.36 1.52967 -0.530337 0
M  V30 31022 H 2880.35 3.67813 1.68806 0
M  V30 31023 H 2878.92 2.61603 1.71121 0
M  V30 31024 H 2878.14 3.92122 -0.404254 0
M  V30 31025 H 2879.43 5.08771 -0.0545992 0
M  V30 31026 H 2878.83 4.72793 3.10617 0
M  V30 31027 H 2877.38 5.64908 3.25149 0
M  V30 31028 N 2880.82 0.429152 1.51644 0
M  V30 31029 C 2882.06 -0.139767 2.01616 0
M  V30 31030 C 2882.39 -1.43925 1.3157 0
M  V30 31031 O 2881.66 -1.90715 0.447722 0
M  V30 31032 H 2880.24 -0.0546409 0.744999 0
M  V30 31033 H 2882.9 0.569984 1.86379 0
M  V30 31034 H 2881.99 -0.321555 3.10439 0
M  V30 31035 N 2882.29 -1.56783 0.160229 0
M  V30 31036 C 2883.71 -1.83228 -0.358384 0
M  V30 31037 C 2884.06 -1.07955 -1.6383 0
M  V30 31038 O 2883.18 -0.329032 -2.13884 0
M  V30 31039 C 2883.78 -3.32369 -0.657 0
M  V30 31040 C 2882.34 -3.59348 -1.12009 0
M  V30 31041 C 2881.48 -2.76893 -0.150102 0
M  V30 31042 H 2884.43 -1.53967 0.384696 0
M  V30 31043 H 2884.45 -3.49244 -1.51027 0
M  V30 31044 H 2883.97 -3.87126 0.274715 0
M  V30 31045 H 2882.07 -3.0999 -2.06729 0
M  V30 31046 H 2882.18 -4.67744 -1.03692 0
M  V30 31047 H 2880.54 -2.46389 -0.645318 0
M  V30 31048 H 2881.33 -3.34428 0.775438 0
M  V30 31049 N 2883.77 0.113531 -1.57191 0
M  V30 31050 C 2885.01 0.826177 -1.86959 0
M  V30 31051 C 2885.38 1.76792 -0.748915 0
M  V30 31052 O 2886.58 2.52254 -0.928515 0
M  V30 31053 C 2884.85 1.55167 -3.2196 0
M  V30 31054 S 2886.41 2.30514 -3.73375 0
M  V30 31055 H 2883.23 0.275632 -0.655399 0
M  V30 31056 H 2885.83 0.0842341 -1.95318 0
M  V30 31057 H 2884.53 0.851906 -4.01461 0
M  V30 31058 H 2884.06 2.33388 -3.16692 0
M  V30 31059 H 2886.08 3.56332 -3.45314 0
M  V30 31060 N 2885.25 1.52854 0.383864 0
M  V30 31061 C 2886.2 1.74378 1.46889 0
M  V30 31062 C 2887.19 0.597936 1.49377 0
M  V30 31063 O 2888.38 0.855956 1.54927 0
M  V30 31064 C 2885.51 1.92068 2.84543 0
M  V30 31065 C 2884.59 3.12599 2.86605 0
M  V30 31066 N 2884.98 4.34855 2.58332 0
M  V30 31067 C 2883.28 3.12949 3.17771 0
M  V30 31068 C 2883.98 5.1649 2.67607 0
M  V30 31069 N 2882.96 4.5229 3.01554 0
M  V30 31070 H 2886.76 2.66524 1.23864 0
M  V30 31071 H 2884.27 1.51231 0.591869 0
M  V30 31072 H 2886.27 2.05611 3.6267 0
M  V30 31073 H 2884.93 1.01138 3.08547 0
M  V30 31074 H 2885.94 4.629 2.32258 0
M  V30 31075 H 2882.62 2.31848 3.47207 0
M  V30 31076 H 2884.01 6.23959 2.49249 0
M  V30 31077 N 2886.73 -0.642612 1.43904 0
M  V30 31078 C 2887.64 -1.78399 1.52352 0
M  V30 31079 C 2888.66 -1.69103 0.409899 0
M  V30 31080 O 2889.83 -1.90084 0.665581 0
M  V30 31081 C 2886.9 -3.14731 1.45414 0
M  V30 31082 C 2885.96 -3.35744 2.67533 0
M  V30 31083 C 2885.19 -4.65573 2.60917 0
M  V30 31084 O 2885.41 -5.45626 1.6628 0
M  V30 31085 O 2884.35 -4.88538 3.51589 0
M  V30 31086 H 2888.17 -1.74225 2.48755 0
M  V30 31087 H 2885.76 -0.802417 1.26022 0
M  V30 31088 H 2887.64 -3.96023 1.44026 0
M  V30 31089 H 2886.32 -3.19472 0.521494 0
M  V30 31090 H 2885.22 -2.54175 2.74492 0
M  V30 31091 H 2886.56 -3.35858 3.59806 0
M  V30 31092 N 2888.21 -1.30611 -0.881966 0
M  V30 31093 C 2889.16 -1.17158 -2.00939 0
M  V30 31094 C 2890.15 -0.0827452 -1.69198 0
M  V30 31095 O 2891.36 -0.243806 -1.78341 0
M  V30 31096 H 2887.73 -0.362418 -0.658906 0
M  V30 31097 H 2889.7 -2.1257 -2.09419 0
M  V30 31098 C 2888.45 -0.883332 -3.36292 0
M  V30 31099 H 2887.77 -1.71326 -3.6123 0
M  V30 31100 H 2889.21 -0.829328 -4.1581 0
M  V30 31101 C 2887.67 0.413793 -3.34349 0
M  V30 31102 O 2888.2 1.43437 -3.75218 0
M  V30 31103 N 2886.41 0.426032 -2.8746 0
M  V30 31104 H 2885.96 -0.404974 -2.54397 0
M  V30 31105 H 2885.91 1.29386 -2.86543 0
M  V30 31106 N 2889.69 1.0947 -1.13376 0
M  V30 31107 C 2890.62 2.15932 -0.768504 0
M  V30 31108 C 2891.63 1.61446 0.209556 0
M  V30 31109 O 2892.82 1.78497 -0.0105703 0
M  V30 31110 C 2889.92 3.38693 -0.118326 0
M  V30 31111 C 2889.09 4.22595 -1.12837 0
M  V30 31112 C 2888.15 5.23781 -0.503967 0
M  V30 31113 O 2887.18 5.57174 -1.16384 0
M  V30 31114 N 2888.38 5.75965 0.724187 0
M  V30 31115 H 2891.14 2.47873 -1.68461 0
M  V30 31116 H 2888.71 1.25181 -1.02671 0
M  V30 31117 H 2890.7 4.03498 0.311627 0
M  V30 31118 H 2889.27 3.04645 0.700716 0
M  V30 31119 H 2888.49 3.53935 -1.73562 0
M  V30 31120 H 2889.78 4.75478 -1.81103 0
M  V30 31121 H 2889.17 5.5105 1.27908 0
M  V30 31122 H 2887.73 6.42506 1.09681 0
M  V30 31123 N 2891.16 0.92719 1.2744 0
M  V30 31124 C 2892.39 0.583657 1.98497 0
M  V30 31125 C 2892.81 -0.838211 1.69173 0
M  V30 31126 O 2892.16 -1.55703 0.951997 0
M  V30 31127 C 2892.21 0.799403 3.5255 0
M  V30 31128 O 2891.94 2.16533 3.80848 0
M  V30 31129 C 2893.44 0.464514 4.4086 0
M  V30 31130 H 2890.66 0.221224 0.633483 0
M  V30 31131 H 2893.2 1.24407 1.62306 0
M  V30 31132 H 2891.36 0.185796 3.86954 0
M  V30 31133 H 2891.77 2.21495 4.75437 0
M  V30 31134 H 2893.24 0.666171 5.47965 0
M  V30 31135 H 2893.72 -0.599919 4.35083 0
M  V30 31136 H 2894.33 1.05624 4.11975 0
M  V30 31137 N 2892.64 -1.41564 0.692641 0
M  V30 31138 C 2893.88 -2.03141 0.226488 0
M  V30 31139 C 2894.25 -1.53662 -1.15118 0
M  V30 31140 O 2895.45 -2.07146 -1.71301 0
M  V30 31141 C 2893.72 -3.56312 0.278612 0
M  V30 31142 S 2895.28 -4.38652 -0.113924 0
M  V30 31143 H 2892.09 -0.705089 0.0914891 0
M  V30 31144 H 2894.7 -1.73042 0.909767 0
M  V30 31145 H 2893.4 -3.89819 1.28332 0
M  V30 31146 H 2892.93 -3.91109 -0.423912 0
M  V30 31147 H 2894.95 -4.77695 -1.34248 0
M  V30 31148 N 2894.12 -0.437188 -1.51415 0
M  V30 31149 C 2895.37 0.13083 -2.01275 0
M  V30 31150 C 2895.68 1.43798 -1.32595 0
M  V30 31151 O 2896.89 2.08893 -1.73424 0
M  V30 31152 C 2895.34 0.2837 -3.5878 0
M  V30 31153 C 2894.95 -1.01301 -4.36397 0
M  V30 31154 C 2896.7 0.805496 -4.16788 0
M  V30 31155 C 2894.6 -0.82579 -5.85606 0
M  V30 31156 H 2893.53 0.0526686 -0.752158 0
M  V30 31157 H 2896.18 -0.566927 -1.74523 0
M  V30 31158 H 2894.57 1.04446 -3.81978 0
M  V30 31159 H 2895.74 -1.78208 -4.24945 0
M  V30 31160 H 2894.05 -1.46333 -3.89841 0
M  V30 31161 H 2896.65 0.962054 -5.25974 0
M  V30 31162 H 2896.99 1.7879 -3.75952 0
M  V30 31163 H 2897.53 0.103055 -3.97666 0
M  V30 31164 H 2894.27 -1.78056 -6.30854 0
M  V30 31165 H 2893.79 -0.0965083 -5.99722 0
M  V30 31166 H 2895.47 -0.478929 -6.45225 0
M  V30 31167 N 2895.6 1.56696 -0.168541 0
M  V30 31168 C 2896.84 1.9709 0.47783 0
M  V30 31169 C 2897.18 1.0544 1.63083 0
M  V30 31170 O 2896.45 0.100985 1.94238 0
M  V30 31171 C 2896.73 3.46972 0.96346 0
M  V30 31172 C 2896.59 4.49401 -0.189522 0
M  V30 31173 C 2897.91 3.99879 1.83806 0
M  V30 31174 H 2895.03 0.716596 0.172217 0
M  V30 31175 H 2897.67 1.88293 -0.254116 0
M  V30 31176 H 2895.82 3.546 1.58717 0
M  V30 31177 H 2897.49 4.53835 -0.826531 0
M  V30 31178 H 2895.73 4.25482 -0.845441 0
M  V30 31179 H 2896.4 5.51665 0.192349 0
M  V30 31180 H 2898.88 3.94865 1.31228 0
M  V30 31181 H 2897.76 5.05173 2.14688 0
M  V30 31182 H 2898.02 3.43528 2.78282 0
M  V30 31183 N 2897.08 -0.105193 1.57249 0
M  V30 31184 C 2898.3 -0.824337 1.89769 0
M  V30 31185 C 2898.72 -1.72774 0.761222 0
M  V30 31186 O 2898.08 -1.80532 -0.26731 0
M  V30 31187 C 2898.13 -1.64619 3.21843 0
M  V30 31188 O 2897.85 -0.779141 4.31116 0
M  V30 31189 C 2899.35 -2.46928 3.68159 0
M  V30 31190 H 2896.57 -0.236248 0.628035 0
M  V30 31191 H 2899.11 -0.0854491 2.04321 0
M  V30 31192 H 2897.27 -2.33769 3.08919 0
M  V30 31193 H 2897.68 -1.34736 5.06899 0
M  V30 31194 H 2899.16 -3.00103 4.63295 0
M  V30 31195 H 2899.63 -3.24927 2.95498 0
M  V30 31196 H 2900.24 -1.82996 3.83918 0
M  V30 31197 N 2898.55 -1.53055 -0.375752 0
M  V30 31198 C 2899.5 -1.75154 -1.45962 0
M  V30 31199 C 2900.49 -0.605849 -1.49058 0
M  V30 31200 O 2901.68 -0.86416 -1.54471 0
M  V30 31201 C 2898.81 -1.93574 -2.83521 0
M  V30 31202 C 2897.9 -3.14115 -2.84943 0
M  V30 31203 N 2898.29 -4.36218 -2.56022 0
M  V30 31204 C 2896.58 -3.1463 -3.16107 0
M  V30 31205 C 2897.29 -5.17901 -2.64864 0
M  V30 31206 N 2896.26 -4.53883 -2.99151 0
M  V30 31207 H 2900.06 -2.67177 -1.22449 0
M  V30 31208 H 2897.58 -1.51542 -0.58384 0
M  V30 31209 H 2899.57 -2.07531 -3.61575 0
M  V30 31210 H 2898.23 -1.02773 -3.08006 0
M  V30 31211 H 2899.25 -4.64125 -2.298 0
M  V30 31212 H 2895.92 -2.33686 -3.45973 0
M  V30 31213 H 2897.31 -6.25272 -2.45936 0
M  V30 31214 N 2900.03 0.634971 -1.44242 0
M  V30 31215 C 2900.94 1.77588 -1.53296 0
M  V30 31216 C 2901.96 1.68883 -0.418861 0
M  V30 31217 O 2903.13 1.89728 -0.675652 0
M  V30 31218 C 2900.2 3.13956 -1.47081 0
M  V30 31219 C 2899.26 3.34321 -2.6931 0
M  V30 31220 C 2898.49 4.64183 -2.63382 0
M  V30 31221 O 2898.72 5.44736 -1.69171 0
M  V30 31222 O 2897.65 4.86666 -3.54174 0
M  V30 31223 H 2901.48 1.72904 -2.49676 0
M  V30 31224 H 2899.06 0.795723 -1.26446 0
M  V30 31225 H 2900.94 3.95254 -1.46124 0
M  V30 31226 H 2899.62 3.19191 -0.538429 0
M  V30 31227 H 2898.53 2.52716 -2.75836 0
M  V30 31228 H 2899.86 3.33945 -3.61582 0
M  V30 31229 N 2901.51 1.31076 0.875027 0
M  V30 31230 C 2902.74 1.23553 1.66581 0
M  V30 31231 C 2903.16 -0.196827 1.87067 0
M  V30 31232 O 2902.52 -1.14117 1.40879 0
M  V30 31233 C 2902.57 1.9797 3.01397 0
M  V30 31234 O 2901.67 1.31358 3.9092 0
M  V30 31235 H 2901.01 0.42683 0.508638 0
M  V30 31236 H 2903.54 1.73062 1.09136 0
M  V30 31237 H 2903.55 2.07372 3.5137 0
M  V30 31238 H 2902.23 3.02138 2.85806 0
M  V30 31239 H 2900.8 1.30374 3.49366 0
M  V30 31240 N 2902.99 -1.08867 1.13955 0
M  V30 31241 C 2903.94 -2.17753 0.817703 0
M  V30 31242 C 2904.93 -1.68186 -0.202414 0
M  V30 31243 O 2906.14 -1.79903 -0.0589843 0
M  V30 31244 H 2902.51 -0.710388 0.246684 0
M  V30 31245 H 2904.48 -2.42127 1.74405 0
M  V30 31246 C 2903.23 -3.46348 0.306361 0
M  V30 31247 H 2902.55 -3.84862 1.08266 0
M  V30 31248 H 2903.99 -4.23831 0.119658 0
M  V30 31249 C 2902.45 -3.22661 -0.969102 0
M  V30 31250 O 2902.98 -3.45821 -2.0438 0
M  V30 31251 N 2901.19 -2.76232 -0.902468 0
M  V30 31252 H 2900.74 -2.57585 -0.0277557 0
M  V30 31253 H 2900.69 -2.60761 -1.75644 0
M  V30 31254 N 2904.47 -0.933936 -1.26946 0
M  V30 31255 C 2905.71 -0.576518 -1.93703 0
M  V30 31256 C 2906.04 0.886115 -1.73704 0
M  V30 31257 O 2905.31 1.62882 -1.08841 0
M  V30 31258 H 2903.89 -0.210226 -0.716808 0
M  V30 31259 H 2906.55 -1.18769 -1.54532 0
M  V30 31260 H 2905.64 -0.788108 -3.01986 0
M  V30 31261 N 2905.94 1.41194 -0.700139 0
M  V30 31262 C 2907.19 2.00383 -0.230117 0
M  V30 31263 C 2907.51 1.56108 1.17854 0
M  V30 31264 O 2908.71 2.07888 1.74627 0
M  V30 31265 C 2907.17 3.5809 -0.36051 0
M  V30 31266 C 2906.78 4.11344 -1.77482 0
M  V30 31267 C 2908.52 4.24471 0.0495053 0
M  V30 31268 C 2906.43 5.61501 -1.85663 0
M  V30 31269 H 2905.36 0.749498 -0.0822765 0
M  V30 31270 H 2908.01 1.61619 -0.868998 0
M  V30 31271 H 2906.39 3.94479 0.346698 0
M  V30 31272 H 2907.56 3.86364 -2.51116 0
M  V30 31273 H 2905.88 3.57505 -2.13492 0
M  V30 31274 H 2908.48 5.34699 0.00888821 0
M  V30 31275 H 2908.82 4.01805 1.08897 0
M  V30 31276 H 2909.35 3.93133 -0.60759 0
M  V30 31277 H 2906.09 5.89001 -2.87678 0
M  V30 31278 H 2905.61 5.88393 -1.1642 0
M  V30 31279 H 2907.29 6.26349 -1.62162 0
M  V30 31280 N 2907.42 0.445212 1.51181 0
M  V30 31281 C 2908.7 -0.178931 1.9478 0
M  V30 31282 C 2909.08 -1.59374 1.38431 0
M  V30 31283 O 2908.43 -2.21158 0.57459 0
M  V30 31284 C 2908.64 -0.14865 3.48683 0
M  V30 31285 C 2909.99 -0.350346 4.23152 0
M  V30 31286 O 2911.01 -0.226412 3.5548 0
M  V30 31287 O 2909.87 -0.597798 5.43221 0
M  V30 31288 H 2906.96 -0.125716 0.817389 0
M  V30 31289 H 2909.51 0.503757 1.62051 0
M  V30 31290 H 2908.28 0.840157 3.82174 0
M  V30 31291 H 2907.9 -0.873911 3.87877 0
M  V30 31292 N 2908.9 -1.56605 0.176849 0
M  V30 31293 C 2910.15 -1.96224 -0.466799 0
M  V30 31294 C 2910.46 -1.06579 -1.64013 0
M  V30 31295 O 2911.67 -1.35902 -2.35038 0
M  V30 31296 C 2910.12 -3.48929 -0.881859 0
M  V30 31297 C 2909.73 -4.47209 0.266181 0
M  V30 31298 C 2911.48 -3.97356 -1.49361 0
M  V30 31299 C 2909.38 -5.91159 -0.16882 0
M  V30 31300 H 2908.31 -0.732648 -0.178165 0
M  V30 31301 H 2910.96 -1.81562 0.265961 0
M  V30 31302 H 2909.35 -3.59029 -1.67076 0
M  V30 31303 H 2910.52 -4.48828 1.04357 0
M  V30 31304 H 2908.84 -4.08871 0.78825 0
M  V30 31305 H 2911.43 -5.02365 -1.83121 0
M  V30 31306 H 2911.78 -3.4061 -2.39354 0
M  V30 31307 H 2912.31 -3.90295 -0.769046 0
M  V30 31308 H 2909.05 -6.5179 0.696465 0
M  V30 31309 H 2908.57 -5.92834 -0.911448 0
M  V30 31310 H 2910.25 -6.4411 -0.610825 0
M  V30 31311 N 2910.38 0.0968524 -1.57302 0
M  V30 31312 C 2911.63 0.799356 -1.85184 0
M  V30 31313 C 2911.94 1.79984 -0.765849 0
M  V30 31314 O 2913.15 2.55011 -0.93174 0
M  V30 31315 C 2911.6 1.47244 -3.28401 0
M  V30 31316 C 2911.21 0.51181 -4.45067 0
M  V30 31317 C 2912.95 2.15877 -3.6551 0
M  V30 31318 C 2910.86 1.18938 -5.79317 0
M  V30 31319 H 2909.79 0.302275 -0.690758 0
M  V30 31320 H 2912.44 0.0522781 -1.83426 0
M  V30 31321 H 2910.82 2.26691 -3.24696 0
M  V30 31322 H 2912 -0.251043 -4.60116 0
M  V30 31323 H 2910.31 -0.0687308 -4.16343 0
M  V30 31324 H 2912.91 2.67301 -4.63092 0
M  V30 31325 H 2913.25 2.94691 -2.94046 0
M  V30 31326 H 2913.79 1.43292 -3.71096 0
M  V30 31327 H 2910.53 0.442083 -6.54008 0
M  V30 31328 H 2910.05 1.9237 -5.68114 0
M  V30 31329 H 2911.72 1.71636 -6.23819 0
M  V30 31330 N 2911.86 1.53252 0.36763 0
M  V30 31331 C 2913.08 1.73241 1.13116 0
M  V30 31332 C 2913.5 0.460436 1.831 0
M  V30 31333 O 2912.86 -0.566527 1.73484 0
M  V30 31334 C 2912.91 2.89647 2.16303 0
M  V30 31335 O 2912.63 4.11923 1.49168 0
M  V30 31336 C 2914.13 3.21492 3.05218 0
M  V30 31337 H 2911.35 0.579473 0.338308 0
M  V30 31338 H 2913.89 1.99989 0.427174 0
M  V30 31339 H 2912.05 2.653 2.82302 0
M  V30 31340 H 2912.46 4.77094 2.17903 0
M  V30 31341 H 2913.94 4.06353 3.73606 0
M  V30 31342 H 2914.41 2.36769 3.69915 0
M  V30 31343 H 2915.02 3.47757 2.44837 0
M  V30 31344 N 2913.34 -0.627313 1.44577 0
M  V30 31345 C 2914.3 -1.721 1.51375 0
M  V30 31346 C 2915.3 -1.55864 0.395357 0
M  V30 31347 O 2916.49 -1.6129 0.658122 0
M  V30 31348 C 2913.62 -3.11214 1.39135 0
M  V30 31349 H 2914.81 -1.67445 2.48801 0
M  V30 31350 H 2912.37 -0.841313 1.31726 0
M  V30 31351 H 2913.1 -3.21461 0.42817 0
M  V30 31352 H 2912.89 -3.24406 2.20235 0
M  V30 31353 H 2914.38 -3.90916 1.46881 0
M  V30 31354 N 2914.81 -1.31539 -0.868063 0
M  V30 31355 C 2915.74 -1.21942 -1.99129 0
M  V30 31356 C 2916.72 -0.106196 -1.69768 0
M  V30 31357 O 2917.91 -0.291115 -1.92006 0
M  V30 31358 C 2915.04 -0.927938 -3.34674 0
M  V30 31359 C 2913.99 -2.00094 -3.78347 0
M  V30 31360 C 2913.32 -1.56212 -5.11373 0
M  V30 31361 C 2914.62 -3.41431 -3.9525 0
M  V30 31362 H 2916.31 -2.15915 -2.07416 0
M  V30 31363 H 2913.86 -1.03946 -0.996551 0
M  V30 31364 H 2915.81 -0.847399 -4.12792 0
M  V30 31365 H 2914.54 0.0474468 -3.26566 0
M  V30 31366 H 2913.2 -2.07141 -3.0247 0
M  V30 31367 H 2912.84 -0.574538 -4.99708 0
M  V30 31368 H 2912.54 -2.27995 -5.41564 0
M  V30 31369 H 2914.07 -1.49569 -5.91998 0
M  V30 31370 H 2915.48 -3.37048 -4.63758 0
M  V30 31371 H 2913.88 -4.11448 -4.36842 0
M  V30 31372 H 2914.95 -3.82077 -2.98572 0
M  V30 31373 N 2916.29 1.08262 -1.1453 0
M  V30 31374 C 2917.54 1.80055 -0.909024 0
M  V30 31375 C 2917.85 1.87237 0.565826 0
M  V30 31376 O 2919.06 2.55459 0.919409 0
M  V30 31377 C 2917.52 3.23517 -1.57687 0
M  V30 31378 C 2917.12 3.24563 -3.08808 0
M  V30 31379 C 2918.87 3.99983 -1.42177 0
M  V30 31380 C 2916.77 4.62622 -3.68422 0
M  V30 31381 H 2915.7 0.674775 -0.336444 0
M  V30 31382 H 2918.36 1.21585 -1.37439 0
M  V30 31383 H 2916.74 3.82122 -1.03918 0
M  V30 31384 H 2917.91 2.75656 -3.69256 0
M  V30 31385 H 2916.23 2.61592 -3.23973 0
M  V30 31386 H 2918.82 5.02002 -1.84115 0
M  V30 31387 H 2919.17 4.1467 -0.368062 0
M  V30 31388 H 2919.7 3.4785 -1.9299 0
M  V30 31389 H 2916.44 4.53138 -4.73652 0
M  V30 31390 H 2915.96 5.11805 -3.12755 0
M  V30 31391 H 2917.64 5.31596 -3.68802 0
M  V30 31392 N 2917.77 0.940655 1.26449 0
M  V30 31393 C 2918.7 0.467519 2.28772 0
M  V30 31394 C 2919.68 -0.478927 1.63219 0
M  V30 31395 O 2920.87 -0.380895 1.90428 0
M  V30 31396 C 2918 -0.268595 3.4626 0
M  V30 31397 C 2916.95 0.591246 4.23897 0
M  V30 31398 C 2916.28 -0.274797 5.33993 0
M  V30 31399 C 2917.58 1.86232 4.8797 0
M  V30 31400 H 2919.27 1.3227 2.68598 0
M  V30 31401 H 2916.82 0.637458 1.29122 0
M  V30 31402 H 2918.77 -0.610623 4.16952 0
M  V30 31403 H 2917.49 -1.15791 3.05385 0
M  V30 31404 H 2916.15 0.916161 3.54968 0
M  V30 31405 H 2915.8 -1.16345 4.8936 0
M  V30 31406 H 2915.5 0.297109 5.86848 0
M  V30 31407 H 2917.02 -0.612106 6.07524 0
M  V30 31408 H 2918.44 1.58757 5.5088 0
M  V30 31409 H 2916.83 2.37875 5.5094 0
M  V30 31410 H 2917.9 2.57402 4.10941 0
M  V30 31411 N 2919.25 -1.40821 0.707617 0
M  V30 31412 C 2920.2 -2.32568 0.0387052 0
M  V30 31413 C 2921.19 -1.51613 -0.755627 0
M  V30 31414 O 2922.4 -1.67468 -0.659892 0
M  V30 31415 H 2918.77 -0.751974 -0.0062859 0
M  V30 31416 H 2920.74 -2.86643 0.82935 0
M  V30 31417 C 2919.49 -3.36513 -0.8749 0
M  V30 31418 H 2918.81 -3.98866 -0.273087 0
M  V30 31419 H 2920.25 -4.03222 -1.31104 0
M  V30 31420 C 2918.71 -2.71357 -1.99668 0
M  V30 31421 O 2919.24 -2.57069 -3.08672 0
M  V30 31422 N 2917.45 -2.29864 -1.77795 0
M  V30 31423 H 2917 -2.41684 -0.891428 0
M  V30 31424 H 2916.95 -1.86606 -2.53033 0
M  V30 31425 N 2920.73 -0.453223 -1.50943 0
M  V30 31426 C 2922 0.168599 -1.94872 0
M  V30 31427 C 2922.38 1.58637 -1.39274 0
M  V30 31428 O 2921.73 2.2085 -0.586311 0
M  V30 31429 C 2921.94 0.130156 -3.48757 0
M  V30 31430 C 2923.29 0.3279 -4.23332 0
M  V30 31431 O 2924.31 0.207557 -3.55595 0
M  V30 31432 O 2923.17 0.568981 -5.4353 0
M  V30 31433 H 2920.27 0.121379 -0.818044 0
M  V30 31434 H 2922.81 -0.512344 -1.61781 0
M  V30 31435 H 2921.58 -0.860413 -3.81723 0
M  V30 31436 H 2921.21 0.853329 -3.88335 0
M  V30 31437 N 2922.2 1.56509 -0.185151 0
M  V30 31438 C 2923.45 1.96469 0.456386 0
M  V30 31439 C 2923.77 1.07447 1.63446 0
M  V30 31440 O 2924.97 1.37147 2.34314 0
M  V30 31441 C 2923.43 3.49391 0.863343 0
M  V30 31442 C 2923.04 4.47061 -0.289894 0
M  V30 31443 C 2924.78 3.98142 1.47252 0
M  V30 31444 C 2922.69 5.9124 0.137467 0
M  V30 31445 H 2921.62 0.733583 0.174277 0
M  V30 31446 H 2924.27 1.81419 -0.275586 0
M  V30 31447 H 2922.65 3.5991 1.6517 0
M  V30 31448 H 2923.82 4.48268 -1.06735 0
M  V30 31449 H 2922.14 4.08447 -0.809922 0
M  V30 31450 H 2924.74 5.03329 1.80454 0
M  V30 31451 H 2925.08 3.41875 2.37544 0
M  V30 31452 H 2925.61 3.90698 0.748336 0
M  V30 31453 H 2922.35 6.51411 -0.731021 0
M  V30 31454 H 2921.87 5.93309 0.879996 0
M  V30 31455 H 2923.55 6.44425 0.576658 0
M  V30 31456 N 2923.68 -0.0885089 1.57351 0
M  V30 31457 C 2924.91 -0.808017 1.91013 0
M  V30 31458 C 2925.33 -1.71164 0.780039 0
M  V30 31459 O 2924.69 -1.79307 -0.268051 0
M  V30 31460 C 2924.74 -1.59179 3.23565 0
M  V30 31461 O 2923.84 -2.70124 3.11619 0
M  V30 31462 H 2923.18 -0.221554 0.625947 0
M  V30 31463 H 2925.71 -0.0617594 2.04507 0
M  V30 31464 H 2925.72 -1.97461 3.57034 0
M  V30 31465 H 2924.4 -0.92867 4.05399 0
M  V30 31466 H 2922.97 -2.34822 2.89678 0
M  V30 31467 N 2925.16 -1.53445 -0.359498 0
M  V30 31468 C 2926.57 -1.61543 -0.935981 0
M  V30 31469 C 2926.92 -0.486666 -1.90068 0
M  V30 31470 O 2926.05 0.386009 -2.12929 0
M  V30 31471 C 2926.64 -2.92809 -1.70436 0
M  V30 31472 C 2925.2 -3.03222 -2.23009 0
M  V30 31473 C 2924.35 -2.56883 -1.04434 0
M  V30 31474 H 2927.3 -1.58098 -0.138106 0
M  V30 31475 H 2927.32 -2.80953 -2.56604 0
M  V30 31476 H 2926.83 -3.74943 -1.00198 0
M  V30 31477 H 2924.93 -2.25689 -2.96471 0
M  V30 31478 H 2925.05 -4.08411 -2.50474 0
M  V30 31479 H 2923.41 -2.11905 -1.4131 0
M  V30 31480 H 2924.19 -3.4144 -0.356845 0
M  V30 31481 N 2926.64 0.619637 -1.44908 0
M  V30 31482 C 2927.57 1.74198 -1.55491 0
M  V30 31483 C 2928.55 1.65155 -0.407172 0
M  V30 31484 O 2929.73 1.83739 -0.628775 0
M  V30 31485 C 2926.86 3.12768 -1.50976 0
M  V30 31486 C 2925.82 3.3661 -2.64343 0
M  V30 31487 C 2925.14 4.75329 -2.44881 0
M  V30 31488 C 2926.44 3.28044 -4.06429 0
M  V30 31489 H 2928.14 1.65597 -2.49435 0
M  V30 31490 H 2925.68 0.79526 -1.20048 0
M  V30 31491 H 2927.64 3.9107 -1.56978 0
M  V30 31492 H 2926.36 3.22179 -0.535543 0
M  V30 31493 H 2925.02 2.60693 -2.57749 0
M  V30 31494 H 2924.67 4.81458 -1.45625 0
M  V30 31495 H 2924.37 4.92239 -3.20897 0
M  V30 31496 H 2925.89 5.55847 -2.52719 0
M  V30 31497 H 2927.31 3.96236 -4.14331 0
M  V30 31498 H 2925.7 3.56486 -4.8274 0
M  V30 31499 H 2926.77 2.25669 -4.29187 0
M  V30 31500 N 2928.12 1.31997 0.861075 0
M  V30 31501 C 2929.36 1.23501 1.62871 0
M  V30 31502 C 2929.72 -0.201659 1.90938 0
M  V30 31503 O 2930.92 -0.410258 2.65651 0
M  V30 31504 C 2929.19 2.06431 2.91755 0
M  V30 31505 S 2930.75 2.14892 3.82579 0
M  V30 31506 H 2927.57 0.439722 0.558718 0
M  V30 31507 H 2930.17 1.66768 1.02022 0
M  V30 31508 H 2928.88 3.09885 2.69072 0
M  V30 31509 H 2928.41 1.63917 3.57624 0
M  V30 31510 H 2930.42 1.29373 4.79038 0
M  V30 31511 N 2929.59 -1.07653 1.15103 0
M  V30 31512 C 2930.54 -2.14775 0.844995 0
M  V30 31513 C 2931.51 -1.64882 -0.200769 0
M  V30 31514 O 2932.7 -1.90675 -0.0689943 0
M  V30 31515 C 2929.84 -3.4345 0.337079 0
M  V30 31516 C 2928.95 -4.0715 1.44405 0
M  V30 31517 C 2928.08 -5.23647 0.892579 0
M  V30 31518 C 2927.12 -5.79304 1.9767 0
M  V30 31519 N 2926.26 -6.87136 1.44183 0
M  V30 31520 H 2931.1 -2.40294 1.76246 0
M  V30 31521 H 2928.64 -1.17915 0.879455 0
M  V30 31522 H 2930.6 -4.17193 0.0243293 0
M  V30 31523 H 2929.23 -3.18192 -0.543475 0
M  V30 31524 H 2928.28 -3.31091 1.87305 0
M  V30 31525 H 2929.59 -4.44526 2.26269 0
M  V30 31526 H 2928.74 -6.04361 0.532189 0
M  V30 31527 H 2927.48 -4.87681 0.0430712 0
M  V30 31528 H 2926.49 -4.97238 2.34595 0
M  V30 31529 H 2927.71 -6.17326 2.82993 0
M  V30 31530 H 2925.66 -6.53114 0.614632 0
M  V30 31531 H 2925.58 -7.23379 2.19678 0
M  V30 31532 H 2926.84 -7.71562 1.10959 0
M  V30 31533 N 2931.07 -0.947348 -1.25949 0
M  V30 31534 C 2932.3 -0.61427 -1.97257 0
M  V30 31535 C 2932.71 0.816325 -1.70683 0
M  V30 31536 O 2932.05 1.55672 -0.975298 0
M  V30 31537 C 2932.12 -0.784142 -3.50844 0
M  V30 31538 C 2931.78 -2.19053 -4.0108 0
M  V30 31539 C 2932.78 -3.16656 -4.12341 0
M  V30 31540 C 2930.46 -2.51276 -4.34932 0
M  V30 31541 C 2932.46 -4.4458 -4.56758 0
M  V30 31542 C 2930.14 -3.79431 -4.79036 0
M  V30 31543 C 2931.14 -4.75896 -4.89911 0
M  V30 31544 O 2930.83 -6.01768 -5.33039 0
M  V30 31545 H 2930.56 -0.229822 -0.635734 0
M  V30 31546 H 2933.11 -1.2721 -1.61266 0
M  V30 31547 H 2931.34 -0.0691689 -3.86638 0
M  V30 31548 H 2933.03 -0.453206 -4.03362 0
M  V30 31549 H 2933.8 -2.93086 -3.86427 0
M  V30 31550 H 2929.68 -1.76923 -4.25698 0
M  V30 31551 H 2933.22 -5.19876 -4.65161 0
M  V30 31552 H 2929.12 -4.02811 -5.04395 0
M  V30 31553 H 2929.89 -6.05039 -5.51245 0
M  V30 31554 N 2932.55 1.40444 -0.715075 0
M  V30 31555 C 2933.97 1.54797 -0.388582 0
M  V30 31556 C 2934.17 1.68651 1.10268 0
M  V30 31557 O 2933.22 1.67582 1.88872 0
M  V30 31558 C 2934.54 2.77667 -1.15419 0
M  V30 31559 C 2936.08 2.91484 -1.14044 0
M  V30 31560 C 2936.56 4.17266 -1.8882 0
M  V30 31561 N 2938.05 4.24265 -1.85886 0
M  V30 31562 C 2938.78 5.20495 -2.40567 0
M  V30 31563 N 2938.28 6.22636 -3.03802 0
M  V30 31564 N 2940.07 5.1257 -2.30712 0
M  V30 31565 H 2932.22 1.29697 -1.68203 0
M  V30 31566 H 2934.49 0.627127 -0.710926 0
M  V30 31567 H 2934.19 2.73706 -2.20858 0
M  V30 31568 H 2934.07 3.6976 -0.745477 0
M  V30 31569 H 2936.45 2.94949 -0.0942515 0
M  V30 31570 H 2936.54 2.0051 -1.58837 0
M  V30 31571 H 2936.18 4.14562 -2.93429 0
M  V30 31572 H 2936.11 5.07248 -1.41447 0
M  V30 31573 H 2938.6 3.5109 -1.398 0
M  V30 31574 H 2938.91 6.92488 -3.43044 0
M  V30 31575 H 2937.26 6.23082 -3.07886 0
M  V30 31576 H 2940.45 4.31704 -1.80968 0
M  V30 31577 H 2940.62 5.87394 -2.73629 0
M  V30 31578 N 2934.03 0.461222 1.507 0
M  V30 31579 C 2934.96 -0.383824 2.24949 0
M  V30 31580 C 2935.94 -1.00462 1.27852 0
M  V30 31581 O 2937.12 -1.04247 1.57051 0
M  V30 31582 C 2934.25 -1.53694 3.01821 0
M  V30 31583 C 2933.3 -1.0345 4.13764 0
M  V30 31584 S 2934.13 0.0428427 5.35483 0
M  V30 31585 C 2935.29 -1.11438 6.159 0
M  V30 31586 H 2935.52 0.246478 2.96277 0
M  V30 31587 H 2933.05 0.245988 1.52428 0
M  V30 31588 H 2935.01 -2.19788 3.46704 0
M  V30 31589 H 2933.67 -2.13873 2.30038 0
M  V30 31590 H 2932.86 -1.89749 4.66917 0
M  V30 31591 H 2932.47 -0.451434 3.71265 0
M  V30 31592 H 2934.76 -2.02802 6.46435 0
M  V30 31593 H 2935.7 -0.62232 7.0536 0
M  V30 31594 H 2936.11 -1.36375 5.47779 0
M  V30 31595 N 2935.51 -1.56408 0.193449 0
M  V30 31596 C 2936.78 -1.89278 -0.493284 0
M  V30 31597 C 2937.16 -1.10673 -1.79763 0
M  V30 31598 O 2936.51 -0.207314 -2.27558 0
M  V30 31599 C 2936.72 -3.41625 -0.713672 0
M  V30 31600 C 2938.07 -4.11823 -1.03378 0
M  V30 31601 O 2939.09 -3.47067 -0.80145 0
M  V30 31602 O 2937.95 -5.2627 -1.47318 0
M  V30 31603 H 2935.05 -0.786067 -0.25696 0
M  V30 31604 H 2937.59 -1.68085 0.233539 0
M  V30 31605 H 2936.36 -3.90749 0.207514 0
M  V30 31606 H 2935.99 -3.68504 -1.49301 0
M  V30 31607 N 2936.98 0.0801629 -1.57396 0
M  V30 31608 C 2937.91 1.09662 -2.06147 0
M  V30 31609 C 2938.9 1.40877 -0.953298 0
M  V30 31610 O 2940.08 1.50649 -1.2255 0
M  V30 31611 C 2937.21 2.4124 -2.49841 0
M  V30 31612 C 2936.16 2.24398 -3.64458 0
M  V30 31613 C 2935.49 3.61286 -3.94178 0
M  V30 31614 C 2936.79 1.67214 -4.9481 0
M  V30 31615 H 2938.48 0.690977 -2.91317 0
M  V30 31616 H 2936.03 0.330932 -1.40146 0
M  V30 31617 H 2937.98 3.12633 -2.82557 0
M  V30 31618 H 2936.71 2.83768 -1.61688 0
M  V30 31619 H 2935.37 1.55448 -3.32011 0
M  V30 31620 H 2935.01 4.01369 -3.0317 0
M  V30 31621 H 2934.71 3.50859 -4.71351 0
M  V30 31622 H 2936.24 4.34123 -4.29383 0
M  V30 31623 H 2937.65 2.28463 -5.25811 0
M  V30 31624 H 2936.05 1.67505 -5.76248 0
M  V30 31625 H 2937.12 0.632859 -4.80752 0
M  V30 31626 N 2938.46 1.53634 0.351355 0
M  V30 31627 C 2939.71 1.70756 1.09408 0
M  V30 31628 C 2940.04 0.465326 1.88543 0
M  V30 31629 O 2939.32 -0.537575 1.86923 0
M  V30 31630 C 2939.6 2.96627 2.04168 0
M  V30 31631 C 2939.45 4.3104 1.28548 0
M  V30 31632 C 2940.77 3.18141 3.04096 0
M  V30 31633 H 2937.89 0.621342 0.396362 0
M  V30 31634 H 2940.53 1.86294 0.373431 0
M  V30 31635 H 2938.68 2.8351 2.6562 0
M  V30 31636 H 2940.35 4.55993 0.697706 0
M  V30 31637 H 2938.6 4.29804 0.587422 0
M  V30 31638 H 2939.27 5.15275 1.9798 0
M  V30 31639 H 2941.74 3.30536 2.52755 0
M  V30 31640 H 2940.62 4.07621 3.67609 0
M  V30 31641 H 2940.88 2.34075 3.75048 0
M  V30 31642 N 2939.94 -0.611943 1.45234 0
M  V30 31643 C 2940.87 -1.73371 1.56413 0
M  V30 31644 C 2941.85 -1.64937 0.415925 0
M  V30 31645 O 2943.04 -1.83403 0.63851 0
M  V30 31646 C 2940.17 -3.11963 1.52632 0
M  V30 31647 C 2939.12 -3.35204 2.66125 0
M  V30 31648 C 2938.45 -4.74024 2.47398 0
M  V30 31649 C 2939.75 -3.25884 4.08163 0
M  V30 31650 H 2941.44 -1.64272 2.5031 0
M  V30 31651 H 2938.99 -0.788882 1.20468 0
M  V30 31652 H 2940.94 -3.90232 1.5905 0
M  V30 31653 H 2939.66 -3.21891 0.552621 0
M  V30 31654 H 2938.32 -2.59323 2.59128 0
M  V30 31655 H 2937.97 -4.80679 1.48177 0
M  V30 31656 H 2937.67 -4.9053 3.23503 0
M  V30 31657 H 2939.19 -5.54499 2.55663 0
M  V30 31658 H 2940.61 -3.94033 4.16427 0
M  V30 31659 H 2939.01 -3.53921 4.84623 0
M  V30 31660 H 2940.08 -2.23389 4.30378 0
M  V30 31661 N 2941.42 -1.32452 -0.854063 0
M  V30 31662 C 2942.35 -1.17265 -1.9693 0
M  V30 31663 C 2943.36 -0.107498 -1.62445 0
M  V30 31664 O 2944.55 -0.356511 -1.74904 0
M  V30 31665 C 2941.65 -0.772875 -3.29969 0
M  V30 31666 C 2940.83 -1.92644 -3.92692 0
M  V30 31667 C 2939.88 -1.51012 -5.04065 0
M  V30 31668 O 2938.91 -2.22222 -5.24029 0
M  V30 31669 N 2940.11 -0.406473 -5.79075 0
M  V30 31670 H 2942.88 -2.13331 -2.10499 0
M  V30 31671 H 2940.44 -1.24997 -1.02895 0
M  V30 31672 H 2942.43 -0.476754 -4.01882 0
M  V30 31673 H 2941 0.0966451 -3.12451 0
M  V30 31674 H 2940.22 -2.38903 -3.13559 0
M  V30 31675 H 2941.51 -2.6987 -4.31332 0
M  V30 31676 H 2940.91 0.186203 -5.65393 0
M  V30 31677 H 2939.46 -0.169961 -6.51578 0
M  V30 31678 N 2942.9 1.07041 -1.15672 0
M  V30 31679 C 2943.83 2.16308 -0.879386 0
M  V30 31680 C 2944.81 1.69235 0.171281 0
M  V30 31681 O 2945.99 1.94184 0.0249834 0
M  V30 31682 C 2943.12 3.45309 -0.371368 0
M  V30 31683 C 2942.08 4.05849 -1.35907 0
M  V30 31684 C 2941.4 5.29968 -0.709771 0
M  V30 31685 C 2942.7 4.4551 -2.72614 0
M  V30 31686 H 2944.4 2.39765 -1.79313 0
M  V30 31687 H 2941.94 1.15232 -0.863578 0
M  V30 31688 H 2943.9 4.21077 -0.164872 0
M  V30 31689 H 2942.62 3.21447 0.577849 0
M  V30 31690 H 2941.28 3.32128 -1.55198 0
M  V30 31691 H 2940.93 5.024 0.245694 0
M  V30 31692 H 2940.63 5.71431 -1.36896 0
M  V30 31693 H 2942.15 6.0844 -0.513122 0
M  V30 31694 H 2943.57 5.12393 -2.5715 0
M  V30 31695 H 2941.96 4.97934 -3.34936 0
M  V30 31696 H 2943.03 3.56728 -3.2844 0
M  V30 31697 N 2944.38 0.954014 1.25445 0
M  V30 31698 C 2945.32 0.472524 2.25911 0
M  V30 31699 C 2946.29 -0.474662 1.59173 0
M  V30 31700 O 2947.48 -0.388049 1.86812 0
M  V30 31701 C 2944.62 -0.244157 3.44235 0
M  V30 31702 C 2943.73 0.740196 4.25611 0
M  V30 31703 C 2942.87 0.00101564 5.312 0
M  V30 31704 C 2941.9 0.976342 6.04263 0
M  V30 31705 N 2941.04 0.268075 7.01588 0
M  V30 31706 H 2945.88 1.33415 2.66467 0
M  V30 31707 H 2943.42 0.669068 1.31003 0
M  V30 31708 H 2945.38 -0.676242 4.11683 0
M  V30 31709 H 2944.01 -1.06983 3.04556 0
M  V30 31710 H 2943.06 1.29076 3.57832 0
M  V30 31711 H 2944.37 1.48449 4.76198 0
M  V30 31712 H 2943.52 -0.489734 6.0472 0
M  V30 31713 H 2942.26 -0.776074 4.81486 0
M  V30 31714 H 2941.27 1.4781 5.29559 0
M  V30 31715 H 2942.49 1.75365 6.56067 0
M  V30 31716 H 2940.44 -0.490288 6.54165 0
M  V30 31717 H 2940.36 0.951475 7.49989 0
M  V30 31718 H 2941.62 -0.201157 7.7924 0
M  V30 31719 N 2945.85 -1.40063 0.722513 0
M  V30 31720 C 2947.13 -1.94657 0.191863 0
M  V30 31721 C 2947.51 -1.6602 -1.30386 0
M  V30 31722 O 2946.86 -0.981624 -2.0634 0
M  V30 31723 C 2947.07 -3.45223 0.512039 0
M  V30 31724 C 2948.42 -4.2216 0.454501 0
M  V30 31725 O 2949.44 -3.53365 0.4485 0
M  V30 31726 O 2948.3 -5.44741 0.438082 0
M  V30 31727 H 2945.39 -0.826426 0.0307966 0
M  V30 31728 H 2947.94 -1.49632 0.800519 0
M  V30 31729 H 2946.71 -3.59452 1.54628 0
M  V30 31730 H 2946.33 -3.974 -0.126227 0
M  V30 31731 N 2947.33 -0.469207 -1.50453 0
M  V30 31732 C 2948.28 0.339993 -2.30102 0
M  V30 31733 C 2949.27 0.992111 -1.37308 0
M  V30 31734 O 2950.48 0.923431 -1.54508 0
M  V30 31735 H 2946.85 0.128482 -0.740943 0
M  V30 31736 H 2948.83 -0.352196 -2.96314 0
M  V30 31737 C 2947.57 1.41047 -3.17807 0
M  V30 31738 H 2946.9 0.918055 -3.89117 0
M  V30 31739 H 2948.34 1.94927 -3.76536 0
M  V30 31740 C 2946.8 2.41136 -2.35277 0
M  V30 31741 O 2947.33 3.46366 -2.03454 0
M  V30 31742 N 2945.53 2.12807 -1.97893 0
M  V30 31743 H 2945.08 1.27257 -2.23972 0
M  V30 31744 H 2945.04 2.80009 -1.42976 0
M  V30 31745 N 2948.81 1.56303 -0.201741 0
M  V30 31746 C 2949.77 2.1816 0.702773 0
M  V30 31747 C 2950.77 1.13789 1.13617 0
M  V30 31748 O 2951.96 1.39136 1.04818 0
M  V30 31749 C 2949.09 2.78902 1.96027 0
M  V30 31750 H 2950.29 2.99452 0.163783 0
M  V30 31751 H 2947.84 1.56227 0.0478825 0
M  V30 31752 H 2948.58 2.01426 2.54162 0
M  V30 31753 H 2948.36 3.55312 1.65818 0
M  V30 31754 H 2949.85 3.26378 2.60513 0
M  V30 31755 N 2950.29 -0.0718147 1.57436 0
M  V30 31756 C 2951.51 -0.787712 1.91859 0
M  V30 31757 C 2951.94 -1.70327 0.798149 0
M  V30 31758 O 2951.3 -1.79582 -0.249018 0
M  V30 31759 C 2951.34 -1.55738 3.25235 0
M  V30 31760 O 2950.45 -2.66804 3.14467 0
M  V30 31761 H 2949.79 -0.214903 0.628262 0
M  V30 31762 H 2952.32 -0.0400653 2.04561 0
M  V30 31763 H 2952.33 -1.93663 3.59108 0
M  V30 31764 H 2951 -0.88562 4.06361 0
M  V30 31765 H 2949.58 -2.31736 2.92152 0
M  V30 31766 N 2951.77 -1.53818 -0.343203 0
M  V30 31767 C 2952.71 -1.8183 -1.4215 0
M  V30 31768 C 2953.68 -0.664023 -1.5225 0
M  V30 31769 O 2954.87 -0.908491 -1.67783 0
M  V30 31770 C 2952.01 -2.03389 -2.78796 0
M  V30 31771 C 2951.12 -3.31099 -2.77484 0
M  V30 31772 C 2950.26 -3.42724 -4.0585 0
M  V30 31773 C 2949.29 -4.64382 -3.98768 0
M  V30 31774 N 2948.43 -4.73038 -5.18825 0
M  V30 31775 H 2953.27 -2.73831 -1.17562 0
M  V30 31776 H 2950.81 -1.35629 -0.569482 0
M  V30 31777 H 2952.77 -2.13878 -3.58207 0
M  V30 31778 H 2951.4 -1.14701 -3.01734 0
M  V30 31779 H 2950.45 -3.2945 -1.90176 0
M  V30 31780 H 2951.76 -4.20605 -2.68129 0
M  V30 31781 H 2950.91 -3.52647 -4.93685 0
M  V30 31782 H 2949.65 -2.51275 -4.17986 0
M  V30 31783 H 2948.66 -4.54536 -3.09317 0
M  V30 31784 H 2949.88 -5.57195 -3.88214 0
M  V30 31785 H 2947.83 -3.84499 -5.31504 0
M  V30 31786 H 2947.75 -5.56481 -5.11728 0
M  V30 31787 H 2949.01 -4.87271 -6.0843 0
M  V30 31788 N 2953.24 0.604233 -1.45557 0
M  V30 31789 C 2954.17 1.72539 -1.5733 0
M  V30 31790 C 2955.15 1.64714 -0.424666 0
M  V30 31791 O 2956.34 1.83062 -0.648228 0
M  V30 31792 C 2953.47 3.11149 -1.54284 0
M  V30 31793 C 2952.42 3.33788 -2.67899 0
M  V30 31794 C 2951.75 4.72705 -2.49908 0
M  V30 31795 C 2953.05 3.23715 -4.09886 0
M  V30 31796 H 2954.74 1.62942 -2.51177 0
M  V30 31797 H 2952.29 0.782483 -1.20885 0
M  V30 31798 H 2954.24 3.89383 -1.61117 0
M  V30 31799 H 2952.97 3.21593 -0.569684 0
M  V30 31800 H 2951.63 2.57945 -2.60499 0
M  V30 31801 H 2951.27 4.79887 -1.50724 0
M  V30 31802 H 2950.97 4.88807 -3.261 0
M  V30 31803 H 2952.5 5.53135 -2.586 0
M  V30 31804 H 2953.91 3.91819 -4.1851 0
M  V30 31805 H 2952.31 3.51346 -4.86494 0
M  V30 31806 H 2953.38 2.21104 -4.31557 0
M  V30 31807 N 2954.72 1.32903 0.847027 0
M  V30 31808 C 2955.65 1.25095 1.97164 0
M  V30 31809 C 2956.63 0.133191 1.69578 0
M  V30 31810 O 2957.82 0.321625 1.91518 0
M  V30 31811 C 2954.95 0.981064 3.33155 0
M  V30 31812 C 2953.9 2.06088 3.75116 0
M  V30 31813 C 2953.23 1.64327 5.08823 0
M  V30 31814 C 2954.53 3.47676 3.89768 0
M  V30 31815 H 2956.22 2.19187 2.03954 0
M  V30 31816 H 2953.77 1.05519 0.979888 0
M  V30 31817 H 2955.72 0.912964 4.11391 0
M  V30 31818 H 2954.44 0.00451299 3.266 0
M  V30 31819 H 2953.1 2.11927 2.99137 0
M  V30 31820 H 2952.75 0.653964 4.98731 0
M  V30 31821 H 2952.45 2.36582 5.37869 0
M  V30 31822 H 2953.98 1.58968 5.89543 0
M  V30 31823 H 2955.39 3.44384 4.58337 0
M  V30 31824 H 2953.79 4.18346 4.30241 0
M  V30 31825 H 2954.86 3.86778 2.92456 0
M  V30 31826 N 2956.2 -1.06426 1.16238 0
M  V30 31827 C 2957.13 -2.15838 0.890845 0
M  V30 31828 C 2958.11 -1.69324 -0.162303 0
M  V30 31829 O 2959.3 -1.94194 -0.014685 0
M  V30 31830 C 2956.43 -3.45107 0.389675 0
M  V30 31831 C 2955.38 -4.05122 1.38058 0
M  V30 31832 C 2954.71 -5.29584 0.737867 0
M  V30 31833 C 2956.01 -4.44058 2.74973 0
M  V30 31834 H 2957.7 -2.38811 1.80582 0
M  V30 31835 H 2955.25 -1.14772 0.869677 0
M  V30 31836 H 2957.2 -4.20984 0.187201 0
M  V30 31837 H 2955.92 -3.21749 -0.560794 0
M  V30 31838 H 2954.58 -3.313 1.56958 0
M  V30 31839 H 2954.23 -5.02523 -0.219047 0
M  V30 31840 H 2953.93 -5.70697 1.39924 0
M  V30 31841 H 2955.45 -6.08159 0.545381 0
M  V30 31842 H 2956.87 -5.11022 2.59864 0
M  V30 31843 H 2955.26 -4.9615 3.37572 0
M  V30 31844 H 2956.33 -3.54982 3.30327 0
M  V30 31845 N 2957.68 -0.960653 -1.24937 0
M  V30 31846 C 2958.64 -0.490099 -2.23899 0
M  V30 31847 C 2959.64 0.409508 -1.55498 0
M  V30 31848 O 2960.83 0.205954 -1.72978 0
M  V30 31849 C 2957.96 0.291133 -3.39655 0
M  V30 31850 H 2959.16 -1.36487 -2.67042 0
M  V30 31851 H 2956.71 -0.744529 -1.37428 0
M  V30 31852 H 2957.44 1.18331 -3.01941 0
M  V30 31853 H 2957.23 -0.354345 -3.90496 0
M  V30 31854 H 2958.72 0.609621 -4.13126 0
M  V30 31855 N 2959.16 1.39677 -0.729931 0
M  V30 31856 C 2960.09 2.33279 -0.101659 0
M  V30 31857 C 2961.07 1.53647 0.729827 0
M  V30 31858 O 2962.25 1.82061 0.675838 0
M  V30 31859 C 2959.38 3.37718 0.810181 0
M  V30 31860 C 2958.34 4.27919 0.0832374 0
M  V30 31861 C 2957.66 5.23014 1.11175 0
M  V30 31862 C 2958.96 5.11198 -1.07116 0
M  V30 31863 H 2960.66 2.86067 -0.883503 0
M  V30 31864 H 2958.2 1.37545 -0.426307 0
M  V30 31865 H 2960.16 4.02147 1.2592 0
M  V30 31866 H 2958.88 2.83357 1.62408 0
M  V30 31867 H 2957.54 3.64963 -0.346107 0
M  V30 31868 H 2957.19 4.64952 1.91909 0
M  V30 31869 H 2956.89 5.84211 0.630157 0
M  V30 31870 H 2958.41 5.9032 1.56058 0
M  V30 31871 H 2959.82 5.69 -0.700826 0
M  V30 31872 H 2958.22 5.81511 -1.48206 0
M  V30 31873 H 2959.29 4.46329 -1.89521 0
M  V30 31874 N 2960.63 0.47718 1.50202 0
M  V30 31875 C 2961.57 -0.359943 2.25343 0
M  V30 31876 C 2962.55 -0.990999 1.28911 0
M  V30 31877 O 2963.73 -1.02575 1.58147 0
M  V30 31878 C 2960.86 -1.50484 3.03434 0
M  V30 31879 C 2959.9 -0.990557 4.14838 0
M  V30 31880 S 2960.74 0.0996354 5.35407 0
M  V30 31881 C 2961.89 -1.049 6.17047 0
M  V30 31882 H 2962.12 0.277888 2.95998 0
M  V30 31883 H 2959.66 0.262141 1.52158 0
M  V30 31884 H 2961.62 -2.16098 3.49015 0
M  V30 31885 H 2960.28 -2.11421 2.32293 0
M  V30 31886 H 2959.47 -1.84786 4.68903 0
M  V30 31887 H 2959.07 -0.412031 3.71723 0
M  V30 31888 H 2961.36 -1.95934 6.48549 0
M  V30 31889 H 2962.31 -0.547472 7.0598 0
M  V30 31890 H 2962.71 -1.30557 5.49195 0
M  V30 31891 N 2962.11 -1.56194 0.210027 0
M  V30 31892 C 2963.02 -2.23393 -0.716419 0
M  V30 31893 C 2964.04 -1.2378 -1.22289 0
M  V30 31894 O 2965.21 -1.56561 -1.26692 0
M  V30 31895 C 2962.28 -2.89175 -1.91256 0
M  V30 31896 C 2961.34 -4.041 -1.4492 0
M  V30 31897 C 2960.57 -4.66735 -2.58832 0
M  V30 31898 O 2960.8 -4.28327 -3.76686 0
M  V30 31899 O 2959.73 -5.55936 -2.30692 0
M  V30 31900 H 2963.56 -3.03201 -0.174036 0
M  V30 31901 H 2961.14 -1.49387 -0.0199242 0
M  V30 31902 H 2963.02 -3.30737 -2.61134 0
M  V30 31903 H 2961.7 -2.12336 -2.44326 0
M  V30 31904 H 2960.61 -3.6713 -0.718775 0
M  V30 31905 H 2961.94 -4.82648 -0.964999 0
M  V30 31906 N 2963.59 0.0634645 -1.57472 0
M  V30 31907 C 2964.82 0.777526 -1.92274 0
M  V30 31908 C 2965.24 1.69901 -0.807171 0
M  V30 31909 O 2964.6 1.79711 0.239491 0
M  V30 31910 C 2964.65 1.54011 -3.26057 0
M  V30 31911 O 2963.75 2.65133 -3.15877 0
M  V30 31912 H 2963.09 0.211568 -0.629393 0
M  V30 31913 H 2965.62 0.0292164 -2.04579 0
M  V30 31914 H 2965.63 1.91756 -3.6013 0
M  V30 31915 H 2964.31 0.864057 -4.06825 0
M  V30 31916 H 2962.88 2.30184 -2.93377 0
M  V30 31917 N 2965.07 1.53998 0.33504 0
M  V30 31918 C 2966.48 1.44451 0.678679 0
M  V30 31919 C 2966.68 0.608112 1.92105 0
M  V30 31920 O 2965.74 0.102417 2.52292 0
M  V30 31921 C 2967.05 2.88038 0.863384 0
M  V30 31922 C 2968.6 2.97867 0.96146 0
M  V30 31923 C 2969.08 4.4258 1.17842 0
M  V30 31924 N 2970.57 4.46143 1.24542 0
M  V30 31925 C 2971.3 5.55258 1.43097 0
M  V30 31926 N 2970.8 6.74362 1.58768 0
M  V30 31927 N 2972.59 5.42885 1.45713 0
M  V30 31928 H 2964.74 2.06866 -0.481693 0
M  V30 31929 H 2967.01 0.935469 -0.153631 0
M  V30 31930 H 2966.71 3.51693 0.0218893 0
M  V30 31931 H 2966.59 3.33484 1.76262 0
M  V30 31932 H 2968.97 2.34347 1.79347 0
M  V30 31933 H 2969.05 2.5577 0.0389412 0
M  V30 31934 H 2968.7 5.06684 0.351307 0
M  V30 31935 H 2968.63 4.82277 2.11464 0
M  V30 31936 H 2971.12 3.6032 1.13922 0
M  V30 31937 H 2971.43 7.53282 1.72585 0
M  V30 31938 H 2969.78 6.77292 1.55888 0
M  V30 31939 H 2972.97 4.48791 1.33057 0
M  V30 31940 H 2973.14 6.27979 1.5983 0
M  V30 31941 N 2966.55 -0.596505 1.45875 0
M  V30 31942 C 2967.5 -1.70108 1.51813 0
M  V30 31943 C 2968.48 -1.56341 0.38032 0
M  V30 31944 O 2969.67 -1.65489 0.627878 0
M  V30 31945 C 2966.8 -3.0888 1.49827 0
M  V30 31946 C 2965.89 -3.27994 2.68851 0
M  V30 31947 N 2966.28 -3.17322 3.93878 0
M  V30 31948 C 2964.58 -3.58896 2.64783 0
M  V30 31949 C 2965.28 -3.38067 4.73376 0
M  V30 31950 N 2964.25 -3.62578 4.05016 0
M  V30 31951 H 2968.06 -1.60367 2.46292 0
M  V30 31952 H 2965.57 -0.800113 1.41322 0
M  V30 31953 H 2967.57 -3.88138 1.52167 0
M  V30 31954 H 2966.23 -3.19762 0.564142 0
M  V30 31955 H 2967.24 -2.95485 4.25334 0
M  V30 31956 H 2963.91 -3.76547 1.8033 0
M  V30 31957 H 2965.3 -3.35117 5.82363 0
M  V30 31958 N 2968.02 -1.3335 -0.839967 0
M  V30 31959 C 2969.3 -1.15345 -1.57971 0
M  V30 31960 C 2969.68 0.280595 -2.09227 0
M  V30 31961 O 2969.03 1.27947 -1.8932 0
M  V30 31962 C 2969.24 -2.19363 -2.71442 0
M  V30 31963 C 2970.59 -2.53462 -3.4065 0
M  V30 31964 O 2971.61 -2.18022 -2.81682 0
M  V30 31965 O 2970.47 -3.14274 -4.47095 0
M  V30 31966 H 2967.56 -0.446056 -0.696393 0
M  V30 31967 H 2970.11 -1.44929 -0.882817 0
M  V30 31968 H 2968.88 -3.15694 -2.31199 0
M  V30 31969 H 2968.51 -1.90859 -3.48796 0
M  V30 31970 N 2969.5 1.05808 -1.16801 0
M  V30 31971 C 2970.73 1.82923 -0.977435 0
M  V30 31972 C 2971.15 1.82147 0.469482 0
M  V30 31973 O 2970.51 1.22588 1.33574 0
M  V30 31974 C 2970.56 3.27208 -1.51549 0
M  V30 31975 O 2969.66 4.05976 -0.725093 0
M  V30 31976 H 2969 0.565819 -0.347484 0
M  V30 31977 H 2971.53 1.33374 -1.55154 0
M  V30 31978 H 2971.54 3.7802 -1.53508 0
M  V30 31979 H 2970.22 3.27088 -2.56877 0
M  V30 31980 H 2968.8 3.64728 -0.776404 0
M  V30 31981 N 2970.98 0.967265 1.24426 0
M  V30 31982 C 2971.89 0.504633 2.29108 0
M  V30 31983 C 2972.91 -0.434195 1.68496 0
M  V30 31984 O 2974.08 -0.307344 1.99041 0
M  V30 31985 C 2971.15 -0.198212 3.46133 0
M  V30 31986 C 2970.21 0.780388 4.22147 0
M  V30 31987 C 2969.44 0.110989 5.33585 0
M  V30 31988 O 2969.66 -1.10078 5.59678 0
M  V30 31989 O 2968.6 0.802928 5.9652 0
M  V30 31990 H 2972.42 1.37487 2.70797 0
M  V30 31991 H 2970.01 0.734283 1.3011 0
M  V30 31992 H 2971.89 -0.593051 4.17206 0
M  V30 31993 H 2970.57 -1.04342 3.06422 0
M  V30 31994 H 2969.47 1.22568 3.53452 0
M  V30 31995 H 2970.81 1.594 4.65674 0
M  V30 31996 N 2972.46 -1.39288 0.737328 0
M  V30 31997 C 2973.41 -2.32433 0.0880275 0
M  V30 31998 C 2974.4 -1.53182 -0.723297 0
M  V30 31999 O 2975.61 -1.6883 -0.624221 0
M  V30 32000 H 2971.98 -0.751938 0.00966599 0
M  V30 32001 H 2973.95 -2.8482 0.889965 0
M  V30 32002 C 2972.7 -3.38293 -0.803324 0
M  V30 32003 H 2972.03 -3.99356 -0.18842 0
M  V30 32004 H 2973.47 -4.05912 -1.22521 0
M  V30 32005 C 2971.92 -2.75531 -1.93867 0
M  V30 32006 O 2972.45 -2.63559 -3.0315 0
M  V30 32007 N 2970.66 -2.33583 -1.72879 0
M  V30 32008 H 2970.21 -2.43521 -0.839963 0
M  V30 32009 H 2970.17 -1.91931 -2.49018 0
M  V30 32010 N 2973.94 -0.485139 -1.49947 0
M  V30 32011 C 2974.9 0.290506 -2.27351 0
M  V30 32012 C 2975.9 0.908064 -1.32706 0
M  V30 32013 O 2977.09 0.775058 -1.56008 0
M  V30 32014 C 2974.22 1.41519 -3.10137 0
M  V30 32015 H 2975.42 -0.388506 -2.97373 0
M  V30 32016 H 2972.97 -0.239613 -1.54452 0
M  V30 32017 H 2973.7 2.12883 -2.44645 0
M  V30 32018 H 2973.49 0.978007 -3.79707 0
M  V30 32019 H 2974.98 1.96198 -3.68641 0
M  V30 32020 N 2975.42 1.56081 -0.218307 0
M  V30 32021 C 2976.33 2.2377 0.704562 0
M  V30 32022 C 2977.34 1.24427 1.2163 0
M  V30 32023 O 2978.52 1.5723 1.2586 0
M  V30 32024 C 2975.58 2.90185 1.89719 0
M  V30 32025 C 2974.64 4.04863 1.42775 0
M  V30 32026 C 2973.88 4.68101 2.56353 0
M  V30 32027 O 2974.1 4.30319 3.74409 0
M  V30 32028 O 2973.03 5.57152 2.2774 0
M  V30 32029 H 2976.86 3.03289 0.157954 0
M  V30 32030 H 2974.44 1.49395 0.0120016 0
M  V30 32031 H 2976.33 3.32117 2.59376 0
M  V30 32032 H 2975 2.13628 2.43197 0
M  V30 32033 H 2973.91 3.67506 0.699295 0
M  V30 32034 H 2975.24 4.83152 0.939389 0
M  V30 32035 N 2976.89 -0.0551124 1.57504 0
M  V30 32036 C 2978.31 -0.410265 1.54237 0
M  V30 32037 C 2978.51 -1.78185 0.94087 0
M  V30 32038 O 2977.57 -2.46424 0.550585 0
M  V30 32039 C 2978.88 -0.336011 2.98817 0
M  V30 32040 C 2980.43 -0.414992 3.10237 0
M  V30 32041 C 2980.9 -0.370469 4.56499 0
M  V30 32042 N 2982.39 -0.430049 4.61199 0
M  V30 32043 C 2983.13 -0.418079 5.71874 0
M  V30 32044 N 2982.62 -0.359934 6.91864 0
M  V30 32045 N 2984.42 -0.465878 5.60166 0
M  V30 32046 H 2976.57 0.842794 1.94963 0
M  V30 32047 H 2978.83 0.317953 0.89309 0
M  V30 32048 H 2978.54 0.60549 3.46449 0
M  V30 32049 H 2978.41 -1.13982 3.59566 0
M  V30 32050 H 2980.8 -1.34692 2.62568 0
M  V30 32051 H 2980.88 0.417692 2.52367 0
M  V30 32052 H 2980.52 0.55768 5.04829 0
M  V30 32053 H 2980.45 -1.22091 5.12251 0
M  V30 32054 H 2982.94 -0.478558 3.74858 0
M  V30 32055 H 2983.26 -0.355185 7.71983 0
M  V30 32056 H 2981.6 -0.32637 6.94233 0
M  V30 32057 H 2984.79 -0.509112 4.65323 0
M  V30 32058 H 2984.97 -0.453081 6.46414 0
M  V30 32059 N 2978.37 -1.54173 -0.326869 0
M  V30 32060 C 2979.62 -1.71433 -1.06271 0
M  V30 32061 C 2979.93 -0.493157 -1.89281 0
M  V30 32062 O 2981.14 -0.547037 -2.65932 0
M  V30 32063 C 2979.6 -3.0321 -1.93886 0
M  V30 32064 C 2979.2 -4.32721 -1.16003 0
M  V30 32065 C 2980.95 -3.29834 -2.67226 0
M  V30 32066 C 2978.85 -5.55561 -2.02746 0
M  V30 32067 H 2977.78 -0.638862 -0.400464 0
M  V30 32068 H 2980.44 -1.80668 -0.321152 0
M  V30 32069 H 2978.82 -2.87874 -2.71928 0
M  V30 32070 H 2979.99 -4.58812 -0.427562 0
M  V30 32071 H 2978.31 -4.12837 -0.543598 0
M  V30 32072 H 2980.9 -4.18804 -3.32427 0
M  V30 32073 H 2981.25 -2.47568 -3.34688 0
M  V30 32074 H 2981.78 -3.46022 -1.96249 0
M  V30 32075 H 2978.52 -6.40419 -1.39798 0
M  V30 32076 H 2978.04 -5.33694 -2.73736 0
M  V30 32077 H 2979.72 -5.9184 -2.61409 0
M  V30 32078 N 2979.85 0.58876 -1.4619 0
M  V30 32079 C 2980.78 1.7086 -1.59151 0
M  V30 32080 C 2981.76 1.64254 -0.442112 0
M  V30 32081 O 2982.95 1.82364 -0.667608 0
M  V30 32082 C 2980.08 3.09495 -1.57576 0
M  V30 32083 C 2979.03 3.30928 -2.71424 0
M  V30 32084 C 2978.36 4.70028 -2.54908 0
M  V30 32085 C 2979.66 3.19349 -4.13296 0
M  V30 32086 H 2981.35 1.60269 -2.52892 0
M  V30 32087 H 2978.9 0.769617 -1.21708 0
M  V30 32088 H 2980.85 3.87652 -1.65238 0
M  V30 32089 H 2979.57 3.20971 -0.603761 0
M  V30 32090 H 2978.23 2.55167 -2.63221 0
M  V30 32091 H 2977.88 4.78261 -1.55805 0
M  V30 32092 H 2977.58 4.85321 -3.31266 0
M  V30 32093 H 2979.1 5.50361 -2.64452 0
M  V30 32094 H 2980.52 3.87358 -4.22643 0
M  V30 32095 H 2978.91 3.46166 -4.90193 0
M  V30 32096 H 2979.98 2.16514 -4.33877 0
M  V30 32097 N 2981.33 1.33794 0.832883 0
M  V30 32098 C 2982.58 1.24935 1.58348 0
M  V30 32099 C 2982.89 -0.181669 1.94755 0
M  V30 32100 O 2984.1 -0.392328 2.6865 0
M  V30 32101 C 2982.55 2.18948 2.8564 0
M  V30 32102 C 2982.16 3.67252 2.56574 0
M  V30 32103 C 2983.9 2.18974 3.63663 0
M  V30 32104 C 2981.81 4.53162 3.79998 0
M  V30 32105 H 2980.74 0.464068 0.59427 0
M  V30 32106 H 2983.39 1.58896 0.917832 0
M  V30 32107 H 2981.77 1.77925 3.53778 0
M  V30 32108 H 2982.95 4.16751 1.9661 0
M  V30 32109 H 2981.26 3.69574 1.91844 0
M  V30 32110 H 2983.86 2.80387 4.55288 0
M  V30 32111 H 2984.2 1.18638 3.99037 0
M  V30 32112 H 2984.74 2.5839 3.02456 0
M  V30 32113 H 2981.47 5.54396 3.49751 0
M  V30 32114 H 2980.99 4.08403 4.3928 0
M  V30 32115 H 2982.67 4.67268 4.47515 0
M  V30 32116 N 2982.81 -1.05187 1.1736 0
M  V30 32117 C 2984.03 -1.82402 0.987122 0
M  V30 32118 C 2984.46 -1.82393 -0.459816 0
M  V30 32119 O 2983.81 -1.23294 -1.32922 0
M  V30 32120 C 2983.86 -3.264 1.53282 0
M  V30 32121 O 2982.97 -4.05585 0.746612 0
M  V30 32122 H 2982.31 -0.563968 0.35048 0
M  V30 32123 H 2984.84 -1.32549 1.55859 0
M  V30 32124 H 2984.85 -3.77201 1.55511 0
M  V30 32125 H 2983.52 -3.25721 2.58608 0
M  V30 32126 H 2982.1 -3.64311 0.795735 0
M  V30 32127 N 2984.28 -0.97385 -1.23911 0
M  V30 32128 C 2985.21 -0.528009 -2.27452 0
M  V30 32129 C 2986.19 0.435484 -1.64431 0
M  V30 32130 O 2987.38 0.330273 -1.91371 0
M  V30 32131 C 2984.51 0.176696 -3.4685 0
M  V30 32132 C 2983.46 -0.703426 -4.2218 0
M  V30 32133 C 2982.79 0.133121 -5.34534 0
M  V30 32134 C 2984.09 -1.99104 -4.82861 0
M  V30 32135 H 2985.78 -1.39345 -2.64997 0
M  V30 32136 H 2983.33 -0.671469 -1.27386 0
M  V30 32137 H 2985.28 0.499861 -4.18425 0
M  V30 32138 H 2984.01 1.07653 -3.08348 0
M  V30 32139 H 2982.67 -1.00995 -3.52414 0
M  V30 32140 H 2982.31 1.03329 -4.92272 0
M  V30 32141 H 2982.01 -0.452597 -5.85854 0
M  V30 32142 H 2983.54 0.450817 -6.08933 0
M  V30 32143 H 2984.95 -1.73307 -5.46478 0
M  V30 32144 H 2983.35 -2.52399 -5.4444 0
M  V30 32145 H 2984.42 -2.68206 -4.03972 0
M  V30 32146 N 2985.76 1.38895 -0.744705 0
M  V30 32147 C 2987.18 1.53938 -0.421329 0
M  V30 32148 C 2987.38 1.70952 1.06665 0
M  V30 32149 O 2986.43 1.7155 1.85275 0
M  V30 32150 C 2987.75 2.75156 -1.21283 0
M  V30 32151 C 2989.29 2.88999 -1.20201 0
M  V30 32152 C 2989.77 4.13167 -1.97628 0
M  V30 32153 N 2991.26 4.20227 -1.94843 0
M  V30 32154 C 2992 5.15275 -2.51554 0
M  V30 32155 N 2991.49 6.16052 -3.16941 0
M  V30 32156 N 2993.28 5.07561 -2.41533 0
M  V30 32157 H 2985.44 1.261 -1.70917 0
M  V30 32158 H 2987.7 0.611906 -0.724068 0
M  V30 32159 H 2987.4 2.68959 -2.26614 0
M  V30 32160 H 2987.28 3.68096 -0.823741 0
M  V30 32161 H 2989.67 2.94683 -0.156793 0
M  V30 32162 H 2989.75 1.97096 -1.63054 0
M  V30 32163 H 2989.39 4.08245 -3.02156 0
M  V30 32164 H 2989.32 5.04133 -1.52175 0
M  V30 32165 H 2991.81 3.48046 -1.47216 0
M  V30 32166 H 2992.12 6.85056 -3.57656 0
M  V30 32167 H 2990.47 6.16411 -3.21034 0
M  V30 32168 H 2993.66 4.27768 -1.90085 0
M  V30 32169 H 2993.83 5.81457 -2.86027 0
M  V30 32170 N 2987.24 0.493084 1.49688 0
M  V30 32171 C 2988.65 0.043336 1.8665 0
M  V30 32172 C 2989 -1.36833 1.4061 0
M  V30 32173 O 2988.13 -2.01833 0.780538 0
M  V30 32174 C 2988.72 0.0718665 3.38724 0
M  V30 32175 C 2987.28 -0.322504 3.75016 0
M  V30 32176 C 2986.43 0.447848 2.7366 0
M  V30 32177 H 2989.38 0.706271 1.42118 0
M  V30 32178 H 2989.4 -0.725282 3.73524 0
M  V30 32179 H 2988.91 1.09941 3.72202 0
M  V30 32180 H 2987.01 -1.35358 3.47144 0
M  V30 32181 H 2987.13 -0.00855838 4.79099 0
M  V30 32182 H 2985.49 -0.101309 2.54498 0
M  V30 32183 H 2986.27 1.47532 3.09982 0
M  V30 32184 N 2988.72 -1.55963 0.226582 0
M  V30 32185 C 2989.65 -2.17799 -0.713868 0
M  V30 32186 C 2990.66 -1.14848 -1.15385 0
M  V30 32187 O 2991.85 -1.41806 -1.08413 0
M  V30 32188 C 2988.95 -2.75087 -1.9794 0
M  V30 32189 C 2988.13 -4.03258 -1.69417 0
M  V30 32190 C 2987.18 -4.45061 -2.80726 0
M  V30 32191 O 2986.21 -5.11857 -2.48981 0
M  V30 32192 N 2987.41 -4.1116 -4.0979 0
M  V30 32193 H 2990.18 -2.99129 -0.184887 0
M  V30 32194 H 2987.74 -1.61835 0.045763 0
M  V30 32195 H 2989.73 -3.00021 -2.71606 0
M  V30 32196 H 2988.3 -1.98032 -2.41872 0
M  V30 32197 H 2987.52 -3.86127 -0.793699 0
M  V30 32198 H 2988.81 -4.86861 -1.47797 0
M  V30 32199 H 2988.21 -3.57494 -4.38423 0
M  V30 32200 H 2986.76 -4.40975 -4.79984 0
M  V30 32201 N 2990.2 0.0467589 -1.57531 0
M  V30 32202 C 2991.11 1.07015 -2.0877 0
M  V30 32203 C 2992.12 1.40789 -1.02247 0
M  V30 32204 O 2993.3 1.50464 -1.33875 0
M  V30 32205 C 2990.36 2.35733 -2.54226 0
M  V30 32206 C 2989.42 2.08702 -3.75156 0
M  V30 32207 C 2988.66 3.31284 -4.18434 0
M  V30 32208 O 2988.88 4.41323 -3.61372 0
M  V30 32209 O 2987.81 3.18023 -5.11024 0
M  V30 32210 H 2991.64 0.66476 -2.96335 0
M  V30 32211 H 2989.23 0.262579 -1.47074 0
M  V30 32212 H 2991.11 3.1144 -2.83872 0
M  V30 32213 H 2989.78 2.75602 -1.69779 0
M  V30 32214 H 2988.69 1.3062 -3.50555 0
M  V30 32215 H 2990.02 1.737 -4.60532 0
M  V30 32216 N 2991.67 1.54344 0.318688 0
M  V30 32217 C 2992.6 1.87064 1.39748 0
M  V30 32218 C 2993.59 0.727875 1.5374 0
M  V30 32219 O 2994.77 0.982046 1.6754 0
M  V30 32220 C 2991.9 2.10231 2.76442 0
M  V30 32221 C 2990.85 3.26076 2.77234 0
M  V30 32222 C 2990.18 3.34625 4.1705 0
M  V30 32223 C 2991.48 4.6361 2.40546 0
M  V30 32224 H 2993.17 2.77414 1.12614 0
M  V30 32225 H 2990.72 1.3348 0.540294 0
M  V30 32226 H 2992.67 2.31705 3.51981 0
M  V30 32227 H 2991.4 1.16634 3.05064 0
M  V30 32228 H 2990.06 3.04497 2.0415 0
M  V30 32229 H 2989.7 2.38577 4.4282 0
M  V30 32230 H 2989.4 4.12486 4.18485 0
M  V30 32231 H 2990.93 3.58339 4.94394 0
M  V30 32232 H 2992.34 4.84933 3.05799 0
M  V30 32233 H 2990.74 5.44056 2.53224 0
M  V30 32234 H 2991.81 4.65528 1.3569 0
M  V30 32235 N 2993.15 -0.580999 1.465 0
M  V30 32236 C 2994.4 -1.34113 1.52123 0
M  V30 32237 C 2994.73 -1.93427 0.173065 0
M  V30 32238 O 2994.01 -1.76569 -0.815698 0
M  V30 32239 C 2994.29 -2.4692 2.62112 0
M  V30 32240 C 2994.14 -1.92629 4.06465 0
M  V30 32241 C 2995.46 -3.48957 2.68173 0
M  V30 32242 H 2992.58 -0.486277 0.553808 0
M  V30 32243 H 2995.22 -0.652507 1.78444 0
M  V30 32244 H 2993.37 -3.05661 2.39799 0
M  V30 32245 H 2995.04 -1.38332 4.4007 0
M  V30 32246 H 2993.29 -1.23448 4.15864 0
M  V30 32247 H 2993.96 -2.74068 4.79157 0
M  V30 32248 H 2996.43 -3.00099 2.88235 0
M  V30 32249 H 2995.31 -4.25344 3.46949 0
M  V30 32250 H 2995.57 -4.06294 1.74291 0
M  V30 32251 N 2994.63 -1.34234 -0.825776 0
M  V30 32252 C 2995.91 -1.17014 -1.56739 0
M  V30 32253 C 2996.29 0.258388 -2.09513 0
M  V30 32254 O 2995.64 1.25931 -1.90666 0
M  V30 32255 C 2995.85 -2.2223 -2.691 0
M  V30 32256 C 2997.19 -2.57061 -3.37942 0
M  V30 32257 O 2998.22 -2.20997 -2.79354 0
M  V30 32258 O 2997.08 -3.18998 -4.43737 0
M  V30 32259 H 2994.17 -0.453418 -0.691622 0
M  V30 32260 H 2996.72 -1.45857 -0.867396 0
M  V30 32261 H 2995.49 -3.18128 -2.27838 0
M  V30 32262 H 2995.11 -1.94547 -3.46752 0
M  V30 32263 N 2996.11 1.04563 -1.17917 0
M  V30 32264 C 2997.35 1.7794 -0.972894 0
M  V30 32265 C 2997.69 1.8774 0.49672 0
M  V30 32266 O 2996.96 1.38183 1.36878 0
M  V30 32267 C 2997.25 3.21485 -1.62232 0
M  V30 32268 C 2997.1 3.19659 -3.16446 0
M  V30 32269 C 2998.42 4.19477 -1.33144 0
M  V30 32270 H 2995.54 0.645947 -0.354854 0
M  V30 32271 H 2998.18 1.22176 -1.4551 0
M  V30 32272 H 2996.33 3.69101 -1.21231 0
M  V30 32273 H 2998 2.80071 -3.66549 0
M  V30 32274 H 2996.24 2.57826 -3.48867 0
M  V30 32275 H 2996.91 4.21 -3.5702 0
M  V30 32276 H 2999.39 3.80385 -1.68661 0
M  V30 32277 H 2998.27 5.18143 -1.8116 0
M  V30 32278 H 2998.53 4.41373 -0.253396 0
M  V30 32279 N 2997.59 0.980408 1.23393 0
M  V30 32280 C 2998.84 0.644818 1.91115 0
M  V30 32281 C 2999.15 -0.825335 1.77335 0
M  V30 32282 O 3000.35 -1.27199 2.3986 0
M  V30 32283 C 2998.81 1.10272 3.4259 0
M  V30 32284 C 2998.42 2.59722 3.65032 0
M  V30 32285 C 3000.16 0.840873 4.16088 0
M  V30 32286 C 2998.07 2.99179 5.10143 0
M  V30 32287 H 2997 0.237473 0.715628 0
M  V30 32288 H 2999.65 1.18831 1.39827 0
M  V30 32289 H 2998.03 0.487442 3.92989 0
M  V30 32290 H 2999.21 3.26488 3.2518 0
M  V30 32291 H 2997.52 2.83653 3.04844 0
M  V30 32292 H 3000.12 1.11152 5.23019 0
M  V30 32293 H 3000.46 -0.223012 4.15702 0
M  V30 32294 H 3000.99 1.41773 3.71679 0
M  V30 32295 H 2997.73 4.04691 5.1566 0
M  V30 32296 H 2997.25 2.37106 5.50945 0
M  V30 32297 H 2998.93 2.89785 5.78475 0
M  V30 32298 N 2999.06 -1.38498 0.75206 0
M  V30 32299 C 3000.01 -2.3047 0.123328 0
M  V30 32300 C 3000.98 -1.50099 -0.711299 0
M  V30 32301 O 3002.17 -1.78734 -0.667743 0
M  V30 32302 C 2999.31 -3.36514 -0.765026 0
M  V30 32303 C 2998.42 -4.31918 0.0840645 0
M  V30 32304 C 2997.55 -5.25032 -0.807151 0
M  V30 32305 C 2996.59 -6.12083 0.0456659 0
M  V30 32306 N 2995.73 -6.975 -0.802424 0
M  V30 32307 H 3000.57 -2.83662 0.913219 0
M  V30 32308 H 2998.11 -1.39657 0.461974 0
M  V30 32309 H 3000.07 -3.96602 -1.29469 0
M  V30 32310 H 2998.7 -2.84735 -1.52072 0
M  V30 32311 H 2997.75 -3.73304 0.731342 0
M  V30 32312 H 2999.06 -4.93239 0.742737 0
M  V30 32313 H 2998.21 -5.9023 -1.40404 0
M  V30 32314 H 2996.95 -4.64074 -1.49956 0
M  V30 32315 H 2995.96 -5.45882 0.655233 0
M  V30 32316 H 2997.18 -6.7511 0.735113 0
M  V30 32317 H 2995.13 -6.39091 -1.47981 0
M  V30 32318 H 2995.05 -7.55734 -0.200614 0
M  V30 32319 H 2996.31 -7.67109 -1.38433 0
M  V30 32320 N 3000.54 -0.501015 -1.49424 0
M  V30 32321 C 3001.49 0.277403 -2.29127 0
M  V30 32322 C 3002.46 0.960339 -1.35524 0
M  V30 32323 O 3003.64 0.966998 -1.6448 0
M  V30 32324 C 3000.78 1.33588 -3.18195 0
M  V30 32325 C 2999.9 0.664716 -4.26855 0
M  V30 32326 C 2999.03 1.70363 -5.0314 0
M  V30 32327 C 2998.07 1.01434 -6.03637 0
M  V30 32328 N 2997.21 1.99746 -6.73087 0
M  V30 32329 H 3002.05 -0.40851 -2.95187 0
M  V30 32330 H 2999.59 -0.213301 -1.45545 0
M  V30 32331 H 3001.54 1.96155 -3.68211 0
M  V30 32332 H 3000.17 1.99055 -2.5412 0
M  V30 32333 H 2999.23 -0.0742377 -3.80328 0
M  V30 32334 H 3000.54 0.122109 -4.98651 0
M  V30 32335 H 2999.69 2.40435 -5.57024 0
M  V30 32336 H 2998.43 2.28009 -4.31118 0
M  V30 32337 H 2997.44 0.2994 -5.48984 0
M  V30 32338 H 2998.66 0.444378 -6.77645 0
M  V30 32339 H 2996.61 2.56354 -6.03836 0
M  V30 32340 H 2996.52 1.50552 -7.40858 0
M  V30 32341 H 2997.79 2.69106 -7.31575 0
M  V30 32342 N 3002.02 1.5584 -0.234849 0
M  V30 32343 C 3002.98 2.19602 0.65634 0
M  V30 32344 C 3003.98 1.16173 1.11177 0
M  V30 32345 O 3005.17 1.41328 1.01843 0
M  V30 32346 C 3002.31 2.82997 1.90067 0
M  V30 32347 H 3003.5 2.99732 0.100228 0
M  V30 32348 H 3001.05 1.56293 0.0147338 0
M  V30 32349 H 3001.79 2.06771 2.49832 0
M  V30 32350 H 3001.57 3.5875 1.58244 0
M  V30 32351 H 3003.06 3.3183 2.53532 0
M  V30 32352 N 3003.5 -0.038404 1.57553 0
M  V30 32353 C 3004.73 -0.74203 1.92815 0
M  V30 32354 C 3005.14 -1.69916 0.832186 0
M  V30 32355 O 3004.48 -1.82598 -0.200885 0
M  V30 32356 C 3004.54 -1.56166 3.23809 0
M  V30 32357 C 3004.21 -0.770327 4.50461 0
M  V30 32358 C 3005.2 -0.0747093 5.19846 0
M  V30 32359 C 3002.89 -0.727627 4.97002 0
M  V30 32360 C 3004.88 0.653013 6.34046 0
M  V30 32361 C 3002.57 0.00384734 6.111 0
M  V30 32362 C 3003.57 0.692936 6.79476 0
M  V30 32363 O 3003.26 1.41255 7.91393 0
M  V30 32364 H 3002.99 -0.214167 0.641177 0
M  V30 32365 H 3005.54 -0.00281485 2.054 0
M  V30 32366 H 3003.77 -2.34447 3.07525 0
M  V30 32367 H 3005.46 -2.14703 3.44467 0
M  V30 32368 H 3006.23 -0.0987897 4.84899 0
M  V30 32369 H 3002.11 -1.25347 4.43632 0
M  V30 32370 H 3005.65 1.19142 6.87351 0
M  V30 32371 H 3001.55 0.0298838 6.45493 0
M  V30 32372 H 3002.31 1.32526 8.077 0
M  V30 32373 N 3004.98 -1.54511 -0.310498 0
M  V30 32374 C 3005.91 -1.87802 -1.38754 0
M  V30 32375 C 3006.89 -0.736018 -1.53352 0
M  V30 32376 O 3008.07 -0.990917 -1.67016 0
M  V30 32377 C 3005.2 -2.11694 -2.75323 0
M  V30 32378 C 3004.16 -3.27541 -2.75501 0
M  V30 32379 C 3003.48 -3.36832 -4.15269 0
M  V30 32380 C 3004.78 -4.6488 -2.38084 0
M  V30 32381 H 3006.48 -2.78007 -1.11141 0
M  V30 32382 H 3004.02 -1.33764 -0.533208 0
M  V30 32383 H 3005.98 -2.33568 -3.50748 0
M  V30 32384 H 3004.7 -1.1825 -3.04441 0
M  V30 32385 H 3003.36 -3.05575 -2.02532 0
M  V30 32386 H 3003.01 -2.40922 -4.41549 0
M  V30 32387 H 3002.71 -4.14699 -4.16291 0
M  V30 32388 H 3004.23 -3.60955 -4.92487 0
M  V30 32389 H 3005.65 -4.86548 -3.03223 0
M  V30 32390 H 3004.04 -5.45392 -2.50335 0
M  V30 32391 H 3005.11 -4.66241 -1.33219 0
M  V30 32392 N 3006.46 0.573222 -1.46806 0
M  V30 32393 C 3007.39 1.69637 -1.5413 0
M  V30 32394 C 3008.4 1.57051 -0.428805 0
M  V30 32395 O 3009.59 1.64302 -0.69764 0
M  V30 32396 C 3006.69 3.07972 -1.41443 0
M  V30 32397 C 3005.86 3.46469 -2.6698 0
M  V30 32398 C 3004.92 4.63902 -2.48357 0
M  V30 32399 O 3003.95 4.69286 -3.22117 0
M  V30 32400 N 3005.15 5.59386 -1.55139 0
M  V30 32401 H 3007.91 1.63806 -2.50974 0
M  V30 32402 H 3005.48 0.759453 -1.42982 0
M  V30 32403 H 3007.47 3.84341 -1.26744 0
M  V30 32404 H 3006.04 3.08118 -0.527442 0
M  V30 32405 H 3005.26 2.59709 -2.96555 0
M  V30 32406 H 3006.55 3.68958 -3.50353 0
M  V30 32407 H 3005.94 5.57779 -0.943338 0
M  V30 32408 H 3004.5 6.35146 -1.46398 0
M  V30 32409 N 3007.93 1.3467 0.818645 0
M  V30 32410 C 3008.84 1.28683 1.96158 0
M  V30 32411 C 3009.86 0.193772 1.72918 0
M  V30 32412 O 3011.04 0.42101 1.9695 0
M  V30 32413 C 3008.1 1.04639 3.30532 0
M  V30 32414 C 3007.16 2.23142 3.66751 0
M  V30 32415 C 3006.39 2.00236 4.94713 0
M  V30 32416 O 3006.62 0.962739 5.62217 0
M  V30 32417 O 3005.55 2.87295 5.28909 0
M  V30 32418 H 3009.38 2.24845 2.04153 0
M  V30 32419 H 3006.96 1.14919 0.954671 0
M  V30 32420 H 3008.84 0.930288 4.11003 0
M  V30 32421 H 3007.52 0.115196 3.23495 0
M  V30 32422 H 3006.43 2.40313 2.86706 0
M  V30 32423 H 3007.76 3.14666 3.78479 0
M  V30 32424 N 3009.41 -1.03936 1.1847 0
M  V30 32425 C 3010.32 -2.15468 0.927927 0
M  V30 32426 C 3011.34 -1.73662 -0.108417 0
M  V30 32427 O 3012.51 -2.01265 0.073799 0
M  V30 32428 C 3009.58 -3.43654 0.458554 0
M  V30 32429 C 3008.64 -3.99835 1.56302 0
M  V30 32430 C 3007.87 -5.21903 1.11595 0
M  V30 32431 O 3008.1 -5.70395 -0.0248054 0
M  V30 32432 O 3007.03 -5.7065 1.91422 0
M  V30 32433 H 3010.86 -2.39986 1.8612 0
M  V30 32434 H 3008.44 -1.13915 0.966627 0
M  V30 32435 H 3010.32 -4.20901 0.204935 0
M  V30 32436 H 3009 -3.20607 -0.446408 0
M  V30 32437 H 3007.9 -3.2397 1.87067 0
M  V30 32438 H 3009.24 -4.27226 2.44415 0
M  V30 32439 N 3010.89 -0.986938 -1.22871 0
M  V30 32440 C 3011.8 -0.541018 -2.28276 0
M  V30 32441 C 3012.82 0.407334 -1.69165 0
M  V30 32442 O 3013.99 0.275639 -1.99505 0
M  V30 32443 C 3011.06 0.14312 -3.46404 0
M  V30 32444 C 3010.12 -0.847449 -4.20852 0
M  V30 32445 C 3009.35 -0.195864 -5.3334 0
M  V30 32446 O 3009.57 1.0116 -5.61358 0
M  V30 32447 O 3008.51 -0.897728 -5.95168 0
M  V30 32448 H 3012.33 -1.41778 -2.68576 0
M  V30 32449 H 3009.92 -0.75489 -1.28925 0
M  V30 32450 H 3011.8 0.526602 -4.18097 0
M  V30 32451 H 3010.48 0.994539 -3.08043 0
M  V30 32452 H 3009.38 -1.28175 -3.51457 0
M  V30 32453 H 3010.72 -1.66788 -4.63079 0
M  V30 32454 N 3012.37 1.38098 -0.759394 0
M  V30 32455 C 3013.78 1.53483 -0.437633 0
M  V30 32456 C 3013.98 1.72074 1.04846 0
M  V30 32457 O 3013.04 1.73506 1.83445 0
M  V30 32458 C 3014.35 2.73855 -1.24194 0
M  V30 32459 C 3015.9 2.87708 -1.2326 0
M  V30 32460 C 3016.38 4.11048 -2.01999 0
M  V30 32461 N 3017.87 4.18136 -1.99289 0
M  V30 32462 C 3018.6 5.12578 -2.57005 0
M  V30 32463 N 3018.1 6.12656 -3.23457 0
M  V30 32464 N 3019.89 5.04971 -2.46903 0
M  V30 32465 H 3012.04 1.2428 -1.72245 0
M  V30 32466 H 3014.3 0.604192 -0.730518 0
M  V30 32467 H 3014.01 2.66541 -2.29454 0
M  V30 32468 H 3013.88 3.67201 -0.862736 0
M  V30 32469 H 3016.27 2.945 -0.18804 0
M  V30 32470 H 3016.35 1.95356 -1.65136 0
M  V30 32471 H 3016 4.05017 -3.06469 0
M  V30 32472 H 3015.93 5.02491 -1.57513 0
M  V30 32473 H 3018.42 3.46465 -1.50899 0
M  V30 32474 H 3018.73 6.81224 -3.64902 0
M  V30 32475 H 3017.08 6.12971 -3.27553 0
M  V30 32476 H 3020.27 4.25728 -1.94611 0
M  V30 32477 H 3020.44 5.78391 -2.92178 0
M  V30 32478 N 3013.85 0.508932 1.49156 0
M  V30 32479 C 3014.76 -0.269615 2.33046 0
M  V30 32480 C 3015.77 -0.959637 1.45145 0
M  V30 32481 O 3016.95 -0.939264 1.78157 0
M  V30 32482 C 3014.01 -1.31548 3.20774 0
M  V30 32483 C 3013.07 -0.638056 4.24532 0
M  V30 32484 C 3012.31 -1.63409 5.08068 0
M  V30 32485 O 3012.53 -2.86474 4.93243 0
M  V30 32486 O 3011.46 -1.18505 5.90119 0
M  V30 32487 H 3015.29 0.417236 3.0082 0
M  V30 32488 H 3012.87 0.270145 1.46937 0
M  V30 32489 H 3014.76 -1.9204 3.75098 0
M  V30 32490 H 3013.43 -1.98512 2.55685 0
M  V30 32491 H 3012.34 0.00680933 3.74099 0
M  V30 32492 H 3013.67 -0.010729 4.92199 0
M  V30 32493 N 3015.32 -1.55714 0.243111 0
M  V30 32494 C 3016.27 -2.22611 -0.67431 0
M  V30 32495 C 3017.27 -1.21245 -1.18305 0
M  V30 32496 O 3018.47 -1.39267 -1.14038 0
M  V30 32497 H 3014.85 -0.714032 -0.235928 0
M  V30 32498 H 3016.82 -2.98273 -0.0868922 0
M  V30 32499 C 3015.57 -2.9364 -1.862 0
M  V30 32500 H 3014.89 -3.7141 -1.47969 0
M  V30 32501 H 3016.33 -3.43818 -2.48124 0
M  V30 32502 C 3014.79 -1.97303 -2.73081 0
M  V30 32503 O 3015.32 -1.50368 -3.72495 0
M  V30 32504 N 3013.52 -1.64486 -2.39568 0
M  V30 32505 H 3013.07 -2.02849 -1.58777 0
M  V30 32506 H 3013.03 -1.00293 -2.97974 0
M  V30 32507 N 3016.8 0.030048 -1.57571 0
M  V30 32508 C 3018.03 0.736567 -1.9388 0
M  V30 32509 C 3018.45 1.68151 -0.843028 0
M  V30 32510 O 3017.81 1.80179 0.201318 0
M  V30 32511 C 3017.86 1.47061 -3.2925 0
M  V30 32512 O 3016.96 2.58373 -3.2143 0
M  V30 32513 H 3016.3 0.19817 -0.633739 0
M  V30 32514 H 3018.83 -0.0141845 -2.04595 0
M  V30 32515 H 3018.84 1.84074 -3.64116 0
M  V30 32516 H 3017.52 0.777569 -4.08567 0
M  V30 32517 H 3016.1 2.23909 -2.98193 0
M  V30 32518 N 3018.28 1.54674 0.3023 0
M  V30 32519 C 3019.19 1.8859 1.39539 0
M  V30 32520 C 3020.21 0.779922 1.55542 0
M  V30 32521 O 3021.38 1.07626 1.70231 0
M  V30 32522 C 3018.45 2.12509 2.73936 0
M  V30 32523 C 3017.51 3.36225 2.66929 0
M  V30 32524 C 3016.74 3.58994 3.94917 0
M  V30 32525 O 3016.96 2.84798 4.94213 0
M  V30 32526 O 3015.9 4.52508 3.96889 0
M  V30 32527 H 3019.72 2.81581 1.13779 0
M  V30 32528 H 3017.31 1.40847 0.498245 0
M  V30 32529 H 3019.19 2.2945 3.53456 0
M  V30 32530 H 3017.87 1.22703 2.99542 0
M  V30 32531 H 3016.77 3.24649 1.85886 0
M  V30 32532 H 3018.11 4.26156 2.46276 0
M  V30 32533 N 3019.76 -0.565428 1.47108 0
M  V30 32534 C 3021 -1.32492 1.53537 0
M  V30 32535 C 3021.34 -1.93233 0.193571 0
M  V30 32536 O 3020.61 -1.77424 -0.796925 0
M  V30 32537 C 3020.9 -2.44126 2.64716 0
M  V30 32538 C 3020.75 -1.88307 4.08486 0
M  V30 32539 C 3022.07 -3.46093 2.71859 0
M  V30 32540 H 3019.19 -0.480376 0.558935 0
M  V30 32541 H 3021.83 -0.633544 1.79126 0
M  V30 32542 H 3019.98 -3.031 2.43028 0
M  V30 32543 H 3021.65 -1.33657 4.41513 0
M  V30 32544 H 3019.89 -1.1903 4.1715 0
M  V30 32545 H 3020.56 -2.6897 4.82036 0
M  V30 32546 H 3023.04 -2.97025 2.91402 0
M  V30 32547 H 3021.92 -4.2164 3.51441 0
M  V30 32548 H 3022.18 -4.04423 1.78591 0
M  V30 32549 N 3021.24 -1.35102 -0.811492 0
M  V30 32550 C 3022.46 -1.31361 -1.60497 0
M  V30 32551 C 3022.89 0.10735 -1.87793 0
M  V30 32552 O 3022.24 1.07266 -1.46163 0
M  V30 32553 C 3022.29 -2.12124 -2.91609 0
M  V30 32554 O 3021.4 -1.4986 -3.84208 0
M  V30 32555 H 3020.74 -0.450611 -0.487694 0
M  V30 32556 H 3023.27 -1.78072 -1.00754 0
M  V30 32557 H 3023.28 -2.239 -3.41076 0
M  V30 32558 H 3021.95 -3.1543 -2.71066 0
M  V30 32559 H 3020.53 -1.46895 -3.42748 0
M  V30 32560 N 3022.71 1.03306 -1.19019 0
M  V30 32561 C 3024.13 1.58088 -0.993234 0
M  V30 32562 C 3024.48 1.90851 0.455017 0
M  V30 32563 O 3023.6 1.70416 1.33369 0
M  V30 32564 C 3024.2 2.87238 -1.79666 0
M  V30 32565 C 3022.76 3.38608 -1.64383 0
M  V30 32566 C 3021.9 2.12099 -1.78632 0
M  V30 32567 H 3024.85 0.858855 -1.33452 0
M  V30 32568 H 3024.87 3.57956 -1.29026 0
M  V30 32569 H 3024.39 2.63361 -2.85066 0
M  V30 32570 H 3022.49 3.67481 -0.615512 0
M  V30 32571 H 3022.6 4.11921 -2.44658 0
M  V30 32572 H 3020.96 2.2377 -1.21652 0
M  V30 32573 H 3021.75 1.90668 -2.85483 0
M  V30 32574 N 3024.19 0.99344 1.22346 0
M  V30 32575 C 3025.61 0.704263 1.43221 0
M  V30 32576 C 3025.81 -0.724876 1.8801 0
M  V30 32577 O 3024.86 -1.49572 2.03432 0
M  V30 32578 C 3026.18 1.71029 2.47325 0
M  V30 32579 C 3027.73 1.7258 2.61123 0
M  V30 32580 C 3028.2 2.72048 3.68448 0
M  V30 32581 N 3029.69 2.70645 3.75906 0
M  V30 32582 C 3030.43 3.44274 4.58545 0
M  V30 32583 N 3029.92 4.27504 5.45171 0
M  V30 32584 N 3031.72 3.32977 4.5286 0
M  V30 32585 H 3023.87 1.91643 0.915798 0
M  V30 32586 H 3026.13 0.826534 0.464269 0
M  V30 32587 H 3025.84 2.73299 2.21361 0
M  V30 32588 H 3025.71 1.50359 3.45936 0
M  V30 32589 H 3028.1 0.710087 2.86429 0
M  V30 32590 H 3028.18 1.9732 1.62784 0
M  V30 32591 H 3027.82 3.73769 3.43888 0
M  V30 32592 H 3027.75 2.44578 4.66357 0
M  V30 32593 H 3030.24 2.10252 3.1401 0
M  V30 32594 H 3030.56 4.8051 6.05252 0
M  V30 32595 H 3028.9 4.31591 5.44751 0
M  V30 32596 H 3032.09 2.67396 3.8421 0
M  V30 32597 H 3032.26 3.90617 5.17032 0
M  V30 32598 N 3025.67 -1.37693 0.766707 0
M  V30 32599 C 3026.58 -2.34119 0.150199 0
M  V30 32600 C 3027.6 -1.59928 -0.685485 0
M  V30 32601 O 3028.77 -1.92048 -0.606582 0
M  V30 32602 C 3025.84 -3.39088 -0.722503 0
M  V30 32603 C 3024.9 -4.29106 0.129059 0
M  V30 32604 C 3024.13 -5.29062 -0.702085 0
M  V30 32605 O 3024.35 -5.36416 -1.93945 0
M  V30 32606 O 3023.29 -6.01792 -0.11395 0
M  V30 32607 H 3027.11 -2.88562 0.94688 0
M  V30 32608 H 3024.7 -1.39767 0.527789 0
M  V30 32609 H 3026.58 -4.03327 -1.22087 0
M  V30 32610 H 3025.26 -2.86981 -1.49746 0
M  V30 32611 H 3024.16 -3.67984 0.673677 0
M  V30 32612 H 3025.5 -4.84504 0.866977 0
M  V30 32613 N 3027.15 -0.516835 -1.48884 0
M  V30 32614 C 3028.39 0.0220572 -2.02788 0
M  V30 32615 C 3028.73 1.35172 -1.39435 0
M  V30 32616 O 3028 1.86983 -0.535492 0
M  V30 32617 C 3028.29 0.157949 -3.59753 0
M  V30 32618 C 3028.14 -1.19596 -4.33609 0
M  V30 32619 C 3029.46 0.891058 -4.30985 0
M  V30 32620 H 3026.58 0.00654193 -0.736971 0
M  V30 32621 H 3029.22 -0.671318 -1.77745 0
M  V30 32622 H 3027.37 0.748501 -3.81221 0
M  V30 32623 H 3029.04 -1.82661 -4.23595 0
M  V30 32624 H 3027.28 -1.78123 -3.95544 0
M  V30 32625 H 3027.95 -1.05401 -5.41844 0
M  V30 32626 H 3030.43 0.390047 -4.14268 0
M  V30 32627 H 3029.31 0.955012 -5.40528 0
M  V30 32628 H 3029.57 1.9384 -3.97339 0
M  V30 32629 N 3028.63 1.55583 -0.251365 0
M  V30 32630 C 3029.87 1.98658 0.371399 0
M  V30 32631 C 3030.2 1.1409 1.58141 0
M  V30 32632 O 3029.47 0.224742 1.94607 0
M  V30 32633 H 3028.05 0.733723 0.140212 0
M  V30 32634 H 3030.71 1.9171 -0.351191 0
M  V30 32635 H 3029.8 3.04658 0.677501 0
M  V30 32636 N 3030.1 -0.0216912 1.57585 0
M  V30 32637 C 3031.05 -1.02803 2.03508 0
M  V30 32638 C 3032.04 -1.31601 0.925739 0
M  V30 32639 O 3033.23 -1.31063 1.18961 0
M  V30 32640 C 3030.36 -2.32688 2.52411 0
M  V30 32641 C 3029.45 -2.06949 3.7018 0
M  V30 32642 N 3029.84 -1.51292 4.82643 0
M  V30 32643 C 3028.13 -2.37198 3.77695 0
M  V30 32644 C 3028.84 -1.41526 5.64221 0
M  V30 32645 N 3027.81 -1.89339 5.0956 0
M  V30 32646 H 3031.61 -0.591848 2.87879 0
M  V30 32647 H 3029.13 -0.227846 1.60794 0
M  V30 32648 H 3031.12 -3.056 2.83574 0
M  V30 32649 H 3029.78 -2.76979 1.69449 0
M  V30 32650 H 3030.8 -1.19463 5.03934 0
M  V30 32651 H 3027.47 -2.84512 3.05547 0
M  V30 32652 H 3028.86 -0.989217 6.64578 0
M  V30 32653 N 3031.58 -1.54832 -0.294093 0
M  V30 32654 C 3032.53 -1.87024 -1.38293 0
M  V30 32655 C 3033.53 -0.744584 -1.52159 0
M  V30 32656 O 3034.73 -0.928668 -1.54194 0
M  V30 32657 H 3031.11 -0.593286 -0.462078 0
M  V30 32658 H 3033.08 -2.78022 -1.08381 0
M  V30 32659 C 3031.83 -2.14028 -2.74021 0
M  V30 32660 H 3031.15 -3.00121 -2.64135 0
M  V30 32661 H 3032.59 -2.40488 -3.49201 0
M  V30 32662 C 3031.05 -0.941039 -3.2349 0
M  V30 32663 O 3031.58 -0.165007 -4.01361 0
M  V30 32664 N 3029.78 -0.744517 -2.80901 0
M  V30 32665 H 3029.33 -1.37725 -2.17692 0
M  V30 32666 H 3029.29 0.0563099 -3.1435 0
M  V30 32667 N 3033.06 0.557619 -1.47405 0
M  V30 32668 C 3034.31 1.31115 -1.5327 0
M  V30 32669 C 3034.62 1.9458 -0.199449 0
M  V30 32670 O 3035.83 2.71159 -0.136087 0
M  V30 32671 C 3034.29 2.37759 -2.70183 0
M  V30 32672 C 3033.89 1.80486 -4.10035 0
M  V30 32673 C 3035.64 3.14296 -2.85339 0
M  V30 32674 C 3033.54 2.84907 -5.18249 0
M  V30 32675 H 3032.47 0.492997 -0.5705 0
M  V30 32676 H 3035.13 0.592277 -1.73679 0
M  V30 32677 H 3033.51 3.12559 -2.43152 0
M  V30 32678 H 3034.68 1.12061 -4.46966 0
M  V30 32679 H 3033 1.16535 -3.99761 0
M  V30 32680 H 3035.59 3.92273 -3.63354 0
M  V30 32681 H 3035.94 3.68456 -1.93768 0
M  V30 32682 H 3036.47 2.46607 -3.12137 0
M  V30 32683 H 3033.21 2.35603 -6.11696 0
M  V30 32684 H 3032.73 3.51744 -4.85836 0
M  V30 32685 H 3034.41 3.48407 -5.4518 0
M  V30 32686 N 3034.54 1.35531 0.804316 0
M  V30 32687 C 3035.77 1.31859 1.5905 0
M  V30 32688 C 3036.18 -0.105516 1.88906 0
M  V30 32689 O 3035.52 -1.06856 1.49424 0
M  V30 32690 C 3035.58 2.06005 2.94622 0
M  V30 32691 C 3035.25 3.5518 2.8757 0
M  V30 32692 C 3036.24 4.49727 2.60848 0
M  V30 32693 C 3033.93 3.97859 3.06616 0
M  V30 32694 C 3035.92 5.84929 2.53252 0
M  V30 32695 C 3033.61 5.33157 2.98642 0
M  V30 32696 C 3034.61 6.26504 2.71996 0
M  V30 32697 O 3034.3 7.59318 2.6399 0
M  V30 32698 H 3034.03 0.45442 0.500478 0
M  V30 32699 H 3036.58 1.79001 1.00736 0
M  V30 32700 H 3034.81 1.53504 3.54927 0
M  V30 32701 H 3036.5 1.95383 3.55782 0
M  V30 32702 H 3037.27 4.1807 2.45851 0
M  V30 32703 H 3033.15 3.25586 3.26366 0
M  V30 32704 H 3036.69 6.5776 2.32374 0
M  V30 32705 H 3032.59 5.64426 3.13198 0
M  V30 32706 H 3033.35 7.6927 2.79581 0
M  V30 32707 N 3036.02 -1.02674 1.19565 0
M  V30 32708 C 3037.27 -1.75512 0.993895 0
M  V30 32709 C 3037.58 -1.89724 -0.475849 0
M  V30 32710 O 3038.79 -2.59554 -0.796479 0
M  V30 32711 C 3037.24 -3.15625 1.72942 0
M  V30 32712 C 3036.85 -3.0946 3.23942 0
M  V30 32713 C 3038.59 -3.92744 1.61099 0
M  V30 32714 C 3036.5 -4.44517 3.90075 0
M  V30 32715 H 3035.43 -0.657954 0.368255 0
M  V30 32716 H 3038.08 -1.14889 1.43083 0
M  V30 32717 H 3036.46 -3.76729 1.22031 0
M  V30 32718 H 3037.64 -2.57724 3.81988 0
M  V30 32719 H 3035.95 -2.45837 3.36085 0
M  V30 32720 H 3038.55 -4.92646 2.07856 0
M  V30 32721 H 3038.89 -4.12441 0.565487 0
M  V30 32722 H 3039.43 -3.38246 2.09367 0
M  V30 32723 H 3036.16 -4.30024 4.94732 0
M  V30 32724 H 3035.68 -4.963 3.36818 0
M  V30 32725 H 3037.36 -5.13394 3.93745 0
M  V30 32726 N 3037.5 -0.999914 -1.21817 0
M  V30 32727 C 3038.43 -0.576136 -2.26281 0
M  V30 32728 C 3039.41 0.400508 -1.65318 0
M  V30 32729 O 3040.59 0.289606 -1.92028 0
M  V30 32730 C 3037.72 0.103084 -3.47147 0
M  V30 32731 C 3036.68 -0.792819 -4.20593 0
M  V30 32732 C 3036 0.0197086 -5.34696 0
M  V30 32733 C 3037.3 -2.09302 -4.78529 0
M  V30 32734 H 3039 -1.44934 -2.61982 0
M  V30 32735 H 3036.54 -0.698338 -1.25933 0
M  V30 32736 H 3038.49 0.410994 -4.19391 0
M  V30 32737 H 3037.22 1.01089 -3.10562 0
M  V30 32738 H 3035.88 -1.08448 -3.50192 0
M  V30 32739 H 3035.53 0.928642 -4.94353 0
M  V30 32740 H 3035.23 -0.576763 -5.84763 0
M  V30 32741 H 3036.75 0.321551 -6.09753 0
M  V30 32742 H 3038.16 -1.84859 -5.42679 0
M  V30 32743 H 3036.56 -2.63891 -5.38964 0
M  V30 32744 H 3037.63 -2.76715 -3.98192 0
M  V30 32745 N 3038.97 1.37284 -0.773999 0
M  V30 32746 C 3039.94 2.28583 -0.168014 0
M  V30 32747 C 3040.94 1.4813 0.625636 0
M  V30 32748 O 3042.13 1.68317 0.448894 0
M  V30 32749 C 3039.26 3.32106 0.769305 0
M  V30 32750 H 3040.45 2.83682 -0.972856 0
M  V30 32751 H 3038 1.46588 -0.542361 0
M  V30 32752 H 3038.74 2.82135 1.59907 0
M  V30 32753 H 3038.52 3.91578 0.20235 0
M  V30 32754 H 3040.01 4.00326 1.18865 0
M  V30 32755 N 3040.45 0.524724 1.48608 0
M  V30 32756 C 3041.38 -0.229796 2.32366 0
M  V30 32757 C 3042.36 -0.940104 1.41761 0
M  V30 32758 O 3043.55 -0.926906 1.70652 0
M  V30 32759 C 3040.68 -1.28038 3.22837 0
M  V30 32760 C 3039.63 -0.688529 4.22425 0
M  V30 32761 C 3038.96 -1.84137 5.01994 0
M  V30 32762 C 3040.26 0.336268 5.21216 0
M  V30 32763 H 3041.95 0.469391 2.95698 0
M  V30 32764 H 3039.5 0.227181 1.42197 0
M  V30 32765 H 3041.45 -1.81613 3.80256 0
M  V30 32766 H 3040.17 -2.00907 2.57495 0
M  V30 32767 H 3038.83 -0.174338 3.66185 0
M  V30 32768 H 3038.48 -2.55832 4.33081 0
M  V30 32769 H 3038.18 -1.45132 5.69395 0
M  V30 32770 H 3039.71 -2.38101 5.62263 0
M  V30 32771 H 3041.12 -0.112206 5.7319 0
M  V30 32772 H 3039.52 0.643429 5.96641 0
M  V30 32773 H 3040.59 1.2439 4.68674 0
M  V30 32774 N 3041.93 -1.55447 0.259613 0
M  V30 32775 C 3042.86 -2.19265 -0.667509 0
M  V30 32776 C 3043.87 -1.1727 -1.12923 0
M  V30 32777 O 3045.06 -1.44073 -1.05381 0
M  V30 32778 C 3042.16 -2.79224 -1.92061 0
M  V30 32779 C 3041.34 -4.06761 -1.60825 0
M  V30 32780 C 3040.4 -4.50915 -2.71223 0
M  V30 32781 O 3039.42 -5.17023 -2.38067 0
M  V30 32782 N 3040.62 -4.19759 -4.00977 0
M  V30 32783 H 3043.39 -2.99454 -0.121396 0
M  V30 32784 H 3040.95 -1.61702 0.0800804 0
M  V30 32785 H 3042.94 -3.05714 -2.65181 0
M  V30 32786 H 3041.51 -2.03118 -2.37617 0
M  V30 32787 H 3040.73 -3.87724 -0.711617 0
M  V30 32788 H 3042.02 -4.89886 -1.37437 0
M  V30 32789 H 3041.42 -3.66713 -4.30741 0
M  V30 32790 H 3039.97 -4.51057 -4.70522 0
M  V30 32791 N 3043.41 0.0133338 -1.57594 0
M  V30 32792 C 3044.34 1.0082 -2.10613 0
M  V30 32793 C 3045.32 1.36707 -1.01219 0
M  V30 32794 O 3046.5 1.45315 -1.2883 0
M  V30 32795 C 3043.63 2.30427 -2.59848 0
M  V30 32796 C 3042.59 2.08738 -3.73647 0
M  V30 32797 C 3041.91 3.44243 -4.09147 0
M  V30 32798 C 3043.21 1.46077 -5.01457 0
M  V30 32799 H 3044.91 0.566798 -2.93986 0
M  V30 32800 H 3042.45 0.271194 -1.41423 0
M  V30 32801 H 3044.41 3.00367 -2.95563 0
M  V30 32802 H 3043.13 2.76655 -1.73578 0
M  V30 32803 H 3041.79 1.41227 -3.38306 0
M  V30 32804 H 3041.44 3.88149 -3.1992 0
M  V30 32805 H 3041.14 3.30551 -4.85808 0
M  V30 32806 H 3042.66 4.1552 -4.47409 0
M  V30 32807 H 3044.08 2.05956 -5.35028 0
M  V30 32808 H 3042.47 1.42914 -5.82834 0
M  V30 32809 H 3043.54 0.428386 -4.83004 0
M  V30 32810 N 3044.89 1.54985 0.285878 0
M  V30 32811 C 3046.11 1.79322 1.04204 0
M  V30 32812 C 3046.54 0.558374 1.79621 0
M  V30 32813 O 3045.89 -0.491631 1.74507 0
M  V30 32814 C 3045.94 3.00954 1.98643 0
M  V30 32815 O 3045.05 2.75137 3.07202 0
M  V30 32816 H 3044.39 0.593079 0.298586 0
M  V30 32817 H 3046.92 2.02103 0.3187 0
M  V30 32818 H 3046.93 3.29337 2.40834 0
M  V30 32819 H 3045.6 3.90484 1.4316 0
M  V30 32820 H 3044.18 2.57814 2.69418 0
M  V30 32821 N 3046.36 -0.549794 1.47699 0
M  V30 32822 C 3047.78 -0.876445 1.33381 0
M  V30 32823 C 3047.98 -1.98782 0.329872 0
M  V30 32824 O 3047.04 -2.51199 -0.255977 0
M  V30 32825 C 3048.35 -1.26267 2.72905 0
M  V30 32826 C 3049.9 -1.37368 2.81245 0
M  V30 32827 C 3050.37 -1.79344 4.21426 0
M  V30 32828 N 3051.86 -1.86481 4.24004 0
M  V30 32829 C 3052.6 -2.20304 5.2939 0
M  V30 32830 N 3052.09 -2.52688 6.45074 0
M  V30 32831 N 3053.89 -2.21141 5.16772 0
M  V30 32832 H 3046.04 0.183819 2.11603 0
M  V30 32833 H 3048.3 0.0195767 0.947798 0
M  V30 32834 H 3048.01 -0.519828 3.47837 0
M  V30 32835 H 3047.88 -2.21722 3.05155 0
M  V30 32836 H 3050.27 -2.10733 2.06581 0
M  V30 32837 H 3050.35 -0.400837 2.5264 0
M  V30 32838 H 3049.99 -1.06546 4.96599 0
M  V30 32839 H 3049.92 -2.77644 4.47461 0
M  V30 32840 H 3052.41 -1.63811 3.4055 0
M  V30 32841 H 3052.73 -2.77545 7.21241 0
M  V30 32842 H 3051.07 -2.50252 6.48382 0
M  V30 32843 H 3054.26 -1.95285 4.25419 0
M  V30 32844 H 3054.44 -2.4717 5.99008 0
M  V30 32845 N 3047.84 -1.35955 -0.797117 0
M  V30 32846 C 3048.79 -1.26187 -1.89897 0
M  V30 32847 C 3049.78 -0.155035 -1.60151 0
M  V30 32848 O 3050.97 -0.387138 -1.72714 0
M  V30 32849 C 3048.1 -1.04565 -3.26988 0
M  V30 32850 C 3047.18 -2.19681 -3.62768 0
M  V30 32851 N 3047.57 -3.4496 -3.69914 0
M  V30 32852 C 3045.87 -2.11277 -3.92782 0
M  V30 32853 C 3046.57 -4.20718 -4.01711 0
M  V30 32854 N 3045.55 -3.49575 -4.16291 0
M  V30 32855 H 3049.35 -2.21093 -1.93637 0
M  V30 32856 H 3046.87 -1.28564 -0.992223 0
M  V30 32857 H 3048.86 -0.956545 -4.05778 0
M  V30 32858 H 3047.52 -0.105524 -3.24528 0
M  V30 32859 H 3048.53 -3.79192 -3.52752 0
M  V30 32860 H 3045.21 -1.25175 -3.98293 0
M  V30 32861 H 3046.6 -5.29023 -4.14227 0
M  V30 32862 N 3049.32 1.02038 -1.20108 0
M  V30 32863 C 3050.27 2.12615 -0.943268 0
M  V30 32864 C 3051.26 1.6908 0.104012 0
M  V30 32865 O 3052.47 1.79941 -0.0460048 0
M  V30 32866 H 3048.84 0.694797 -0.287682 0
M  V30 32867 H 3050.81 2.31546 -1.88225 0
M  V30 32868 C 3049.56 3.43972 -0.50777 0
M  V30 32869 H 3048.89 3.77895 -1.30521 0
M  V30 32870 H 3050.33 4.22413 -0.366561 0
M  V30 32871 C 3048.79 3.27762 0.779333 0
M  V30 32872 O 3049.32 3.57148 1.8387 0
M  V30 32873 N 3047.52 2.81023 0.739881 0
M  V30 32874 H 3047.07 2.57309 -0.122471 0
M  V30 32875 H 3047.03 2.70558 1.60142 0
M  V30 32876 N 3050.8 1.00636 1.21285 0
M  V30 32877 C 3051.75 0.567916 2.23704 0
M  V30 32878 C 3052.72 -0.406724 1.61043 0
M  V30 32879 O 3053.9 -0.308466 1.8829 0
M  V30 32880 C 3051.04 -0.0979354 3.44961 0
M  V30 32881 C 3050.15 0.920046 4.22089 0
M  V30 32882 C 3049.29 0.226315 5.30718 0
M  V30 32883 C 3048.33 1.23175 5.99578 0
M  V30 32884 N 3047.46 0.565401 6.9982 0
M  V30 32885 H 3052.3 1.44596 2.60568 0
M  V30 32886 H 3049.84 0.724029 1.28048 0
M  V30 32887 H 3051.8 -0.501024 4.14181 0
M  V30 32888 H 3050.43 -0.93969 3.0882 0
M  V30 32889 H 3049.48 1.44137 3.52035 0
M  V30 32890 H 3050.79 1.68513 4.69473 0
M  V30 32891 H 3049.95 -0.23281 6.06253 0
M  V30 32892 H 3048.69 -0.571161 4.84344 0
M  V30 32893 H 3047.69 1.70137 5.22813 0
M  V30 32894 H 3048.92 2.03033 6.48039 0
M  V30 32895 H 3046.86 -0.212393 6.55656 0
M  V30 32896 H 3046.78 1.26872 7.45278 0
M  V30 32897 H 3048.05 0.129526 7.79392 0
M  V30 32898 N 3052.28 -1.36872 0.781268 0
M  V30 32899 C 3053.21 -2.28819 0.132115 0
M  V30 32900 C 3054.22 -1.49091 -0.653899 0
M  V30 32901 O 3055.41 -1.71631 -0.490423 0
M  V30 32902 C 3052.51 -3.28421 -0.83624 0
M  V30 32903 C 3051.68 -4.37281 -0.10202 0
M  V30 32904 C 3050.74 -5.16896 -0.985126 0
M  V30 32905 O 3049.77 -5.67455 -0.445378 0
M  V30 32906 N 3050.97 -5.32544 -2.31034 0
M  V30 32907 H 3053.74 -2.85169 0.921888 0
M  V30 32908 H 3051.3 -1.48951 0.634453 0
M  V30 32909 H 3053.29 -3.78568 -1.43068 0
M  V30 32910 H 3051.86 -2.7277 -1.52693 0
M  V30 32911 H 3051.08 -3.88405 0.673418 0
M  V30 32912 H 3052.37 -5.07186 0.404951 0
M  V30 32913 H 3051.76 -4.93068 -2.7731 0
M  V30 32914 H 3050.32 -5.85965 -2.85461 0
M  V30 32915 N 3053.75 -0.532597 -1.48328 0
M  V30 32916 C 3054.68 0.21747 -2.32485 0
M  V30 32917 C 3055.67 0.932573 -1.42257 0
M  V30 32918 O 3056.85 0.917843 -1.71141 0
M  V30 32919 C 3053.98 1.26324 -3.23511 0
M  V30 32920 C 3052.93 0.666117 -4.22785 0
M  V30 32921 C 3052.26 1.81473 -5.02963 0
M  V30 32922 C 3053.56 -0.363905 -5.21031 0
M  V30 32923 H 3055.25 -0.485066 -2.95445 0
M  V30 32924 H 3052.8 -0.234719 -1.42074 0
M  V30 32925 H 3054.75 1.79594 -3.81214 0
M  V30 32926 H 3053.48 1.99539 -2.58557 0
M  V30 32927 H 3052.14 0.154916 -3.66273 0
M  V30 32928 H 3051.78 2.53532 -4.34431 0
M  V30 32929 H 3051.48 1.4211 -5.70157 0
M  V30 32930 H 3053.01 2.35116 -5.63518 0
M  V30 32931 H 3054.42 0.0818072 -5.73242 0
M  V30 32932 H 3052.82 -0.675061 -5.96291 0
M  V30 32933 H 3053.89 -1.26873 -4.68008 0
M  V30 32934 N 3055.23 1.55307 -0.267853 0
M  V30 32935 C 3056.16 2.19615 0.655872 0
M  V30 32936 C 3057.18 1.17867 1.123 0
M  V30 32937 O 3058.37 1.4463 1.04615 0
M  V30 32938 C 3055.47 2.80238 1.90577 0
M  V30 32939 C 3054.64 4.07608 1.58665 0
M  V30 32940 C 3053.7 4.52347 2.68828 0
M  V30 32941 O 3052.72 5.18278 2.35322 0
M  V30 32942 N 3053.93 4.2188 3.98745 0
M  V30 32943 H 3056.69 2.99514 0.105514 0
M  V30 32944 H 3054.25 1.61657 -0.0886547 0
M  V30 32945 H 3056.24 3.07116 2.63556 0
M  V30 32946 H 3054.81 2.04375 2.36537 0
M  V30 32947 H 3054.03 3.88096 0.691045 0
M  V30 32948 H 3055.32 4.90608 1.34837 0
M  V30 32949 H 3054.72 3.68992 4.2879 0
M  V30 32950 H 3053.28 4.53546 4.68124 0
M  V30 32951 N 3056.71 -0.00497598 1.57599 0
M  V30 32952 C 3057.66 -1.00639 2.04587 0
M  V30 32953 C 3058.64 -1.30612 0.939645 0
M  V30 32954 O 3059.84 -1.29793 1.20344 0
M  V30 32955 C 3056.97 -2.29998 2.54864 0
M  V30 32956 C 3056.05 -2.03011 3.72354 0
M  V30 32957 N 3056.44 -1.46164 4.84221 0
M  V30 32958 C 3054.74 -2.33178 3.80189 0
M  V30 32959 C 3055.44 -1.35534 5.6569 0
M  V30 32960 N 3054.42 -1.83924 5.1154 0
M  V30 32961 H 3058.22 -0.561281 2.88491 0
M  V30 32962 H 3055.73 -0.210779 1.61026 0
M  V30 32963 H 3057.73 -3.02575 2.868 0
M  V30 32964 H 3056.39 -2.75166 1.72377 0
M  V30 32965 H 3057.4 -1.14111 5.05172 0
M  V30 32966 H 3054.08 -2.81255 3.08548 0
M  V30 32967 H 3055.47 -0.918674 6.6559 0
M  V30 32968 N 3058.19 -1.55135 -0.277654 0
M  V30 32969 C 3059.12 -1.90703 -1.34739 0
M  V30 32970 C 3060.1 -0.76838 -1.51756 0
M  V30 32971 O 3061.28 -1.02612 -1.64877 0
M  V30 32972 C 3058.41 -2.17486 -2.70771 0
M  V30 32973 C 3057.37 -3.33312 -2.68491 0
M  V30 32974 C 3056.69 -3.45564 -4.08031 0
M  V30 32975 C 3057.99 -4.69825 -2.2817 0
M  V30 32976 H 3059.69 -2.80302 -1.05219 0
M  V30 32977 H 3057.23 -1.34865 -0.504715 0
M  V30 32978 H 3059.19 -2.40955 -3.45714 0
M  V30 32979 H 3057.91 -1.24681 -3.01864 0
M  V30 32980 H 3056.57 -3.09803 -1.96005 0
M  V30 32981 H 3056.22 -2.50234 -4.36339 0
M  V30 32982 H 3055.92 -4.23436 -4.07401 0
M  V30 32983 H 3057.44 -3.71321 -4.8472 0
M  V30 32984 H 3058.86 -4.9287 -2.92835 0
M  V30 32985 H 3057.25 -5.50579 -2.38711 0
M  V30 32986 H 3058.32 -4.68962 -1.23299 0
M  V30 32987 N 3059.67 0.541953 -1.47989 0
M  V30 32988 C 3060.6 1.6571 -1.64506 0
M  V30 32989 C 3061.58 1.62764 -0.494144 0
M  V30 32990 O 3062.76 1.80148 -0.725287 0
M  V30 32991 C 3059.89 3.04325 -1.67343 0
M  V30 32992 C 3058.85 3.22125 -2.81815 0
M  V30 32993 C 3058.17 4.6168 -2.69733 0
M  V30 32994 C 3059.47 3.06039 -4.23247 0
M  V30 32995 H 3061.17 1.52142 -2.57862 0
M  V30 32996 H 3058.71 0.730507 -1.24095 0
M  V30 32997 H 3060.67 3.82199 -1.77487 0
M  V30 32998 H 3059.39 3.18888 -0.70557 0
M  V30 32999 H 3058.05 2.46664 -2.71205 0
M  V30 33000 H 3057.7 4.73062 -1.70942 0
M  V30 33001 H 3057.4 4.74537 -3.46538 0
M  V30 33002 H 3058.92 5.41669 -2.81828 0
M  V30 33003 H 3060.33 3.73716 -4.34752 0
M  V30 33004 H 3058.73 3.30396 -5.00958 0
M  V30 33005 H 3059.8 2.02601 -4.40546 0
M  V30 33006 N 3061.15 1.36376 0.789896 0
M  V30 33007 C 3062.09 1.30664 1.90252 0
M  V30 33008 C 3063.06 0.175419 1.65171 0
M  V30 33009 O 3064.25 0.361856 1.87337 0
M  V30 33010 C 3061.39 1.10131 3.27055 0
M  V30 33011 C 3060.5 2.32323 3.64211 0
M  V30 33012 C 3059.64 2.04806 4.9013 0
M  V30 33013 C 3058.67 3.22962 5.19963 0
M  V30 33014 N 3057.81 2.95113 6.37066 0
M  V30 33015 H 3062.65 2.258 1.9447 0
M  V30 33016 H 3060.19 1.12225 0.951002 0
M  V30 33017 H 3062.15 0.962525 4.05945 0
M  V30 33018 H 3060.78 0.1865 3.22261 0
M  V30 33019 H 3059.83 2.57007 2.80449 0
M  V30 33020 H 3061.14 3.20499 3.82207 0
M  V30 33021 H 3060.29 1.87855 5.76884 0
M  V30 33022 H 3059.03 1.13941 4.74203 0
M  V30 33023 H 3058.04 3.40473 4.31693 0
M  V30 33024 H 3059.26 4.14653 5.3781 0
M  V30 33025 H 3057.21 2.06859 6.22532 0
M  V30 33026 H 3057.13 3.76827 6.55391 0
M  V30 33027 H 3058.39 2.8174 7.26803 0
M  V30 33028 N 3062.62 -1.014 1.20647 0
M  V30 33029 C 3064.03 -1.56488 1.01826 0
M  V30 33030 C 3064.39 -1.91551 -0.424596 0
M  V30 33031 O 3063.51 -1.72516 -1.30641 0
M  V30 33032 C 3064.11 -2.84343 1.84213 0
M  V30 33033 C 3062.66 -3.3595 1.69749 0
M  V30 33034 C 3061.81 -2.0923 1.81984 0
M  V30 33035 H 3064.76 -0.837516 1.34801 0
M  V30 33036 H 3064.78 -3.55858 1.34704 0
M  V30 33037 H 3064.3 -2.58792 2.8922 0
M  V30 33038 H 3062.4 -3.66455 0.673897 0
M  V30 33039 H 3062.51 -4.07977 2.5118 0
M  V30 33040 H 3060.87 -2.21806 1.25197 0
M  V30 33041 H 3061.66 -1.86102 2.8848 0
M  V30 33042 N 3064.1 -1.01278 -1.2075 0
M  V30 33043 C 3065.35 -0.700958 -1.90301 0
M  V30 33044 C 3065.68 0.767111 -1.78407 0
M  V30 33045 O 3064.96 1.55691 -1.16578 0
M  V30 33046 C 3065.24 -1.13248 -3.41829 0
M  V30 33047 C 3065.09 -2.66058 -3.62675 0
M  V30 33048 C 3066.41 -0.700814 -4.34484 0
M  V30 33049 H 3063.53 -0.256119 -0.691066 0
M  V30 33050 H 3066.17 -1.25984 -1.42225 0
M  V30 33051 H 3064.32 -0.656969 -3.82905 0
M  V30 33052 H 3065.99 -3.21432 -3.30876 0
M  V30 33053 H 3064.24 -3.0721 -3.06276 0
M  V30 33054 H 3064.91 -2.91304 -4.68877 0
M  V30 33055 H 3067.38 -1.10955 -4.01034 0
M  V30 33056 H 3066.26 -1.03083 -5.39134 0
M  V30 33057 H 3066.52 0.397703 -4.40308 0
M  V30 33058 N 3065.58 1.36456 -0.788516 0
M  V30 33059 C 3066.53 2.30062 -0.18439 0
M  V30 33060 C 3067.5 1.51932 0.671253 0
M  V30 33061 O 3068.68 1.80442 0.62012 0
M  V30 33062 C 3065.82 3.38424 0.675536 0
M  V30 33063 C 3064.93 4.31543 -0.19855 0
M  V30 33064 C 3064.07 5.26987 0.667664 0
M  V30 33065 C 3063.11 6.11747 -0.207933 0
M  V30 33066 N 3062.25 6.99382 0.617212 0
M  V30 33067 H 3067.09 2.81141 -0.988106 0
M  V30 33068 H 3064.62 1.38384 -0.498839 0
M  V30 33069 H 3066.58 3.99896 1.18909 0
M  V30 33070 H 3065.21 2.88667 1.44469 0
M  V30 33071 H 3064.26 3.71233 -0.83006 0
M  V30 33072 H 3065.57 4.91097 -0.87325 0
M  V30 33073 H 3064.73 5.93745 1.24706 0
M  V30 33074 H 3063.47 4.67886 1.37599 0
M  V30 33075 H 3062.47 5.43952 -0.799734 0
M  V30 33076 H 3063.7 6.72923 -0.913848 0
M  V30 33077 H 3061.64 6.4279 1.30985 0
M  V30 33078 H 3061.56 7.56 0.000174369 0
M  V30 33079 H 3062.83 7.7051 1.18046 0
M  V30 33080 N 3067.06 0.540456 1.48043 0
M  V30 33081 C 3068.47 0.199034 1.58354 0
M  V30 33082 C 3068.67 -1.29805 1.5412 0
M  V30 33083 O 3067.73 -2.07706 1.43577 0
M  V30 33084 C 3069.04 0.810848 2.89561 0
M  V30 33085 C 3070.59 0.780539 3.03112 0
M  V30 33086 C 3071.07 1.37112 4.36995 0
M  V30 33087 N 3072.56 1.33355 4.43588 0
M  V30 33088 C 3073.29 1.76031 5.45711 0
M  V30 33089 N 3072.79 2.26484 6.54734 0
M  V30 33090 N 3074.58 1.67203 5.36656 0
M  V30 33091 H 3066.73 1.51332 1.49038 0
M  V30 33092 H 3068.99 0.630094 0.708298 0
M  V30 33093 H 3068.7 1.86232 2.98346 0
M  V30 33094 H 3068.57 0.294043 3.76052 0
M  V30 33095 H 3070.96 -0.262195 2.93933 0
M  V30 33096 H 3071.04 1.33493 2.18205 0
M  V30 33097 H 3070.69 2.41283 4.46928 0
M  V30 33098 H 3070.62 0.792321 5.20605 0
M  V30 33099 H 3073.11 0.964323 3.65389 0
M  V30 33100 H 3073.42 2.57014 7.2881 0
M  V30 33101 H 3071.77 2.30484 6.55669 0
M  V30 33102 H 3074.96 1.27577 4.5038 0
M  V30 33103 H 3075.13 2.00782 6.16109 0
M  V30 33104 N 3068.54 -1.55163 0.276085 0
M  V30 33105 C 3069.78 -1.98796 -0.341063 0
M  V30 33106 C 3070.1 -1.16794 -1.56903 0
M  V30 33107 O 3071.3 -1.50575 -2.25919 0
M  V30 33108 C 3069.76 -3.53831 -0.658169 0
M  V30 33109 C 3069.37 -4.4461 0.55005 0
M  V30 33110 C 3071.11 -4.0605 -1.23789 0
M  V30 33111 C 3069.02 -5.91036 0.207477 0
M  V30 33112 H 3067.95 -0.742496 -0.131211 0
M  V30 33113 H 3070.6 -1.79503 0.38089 0
M  V30 33114 H 3068.98 -3.68927 -1.43905 0
M  V30 33115 H 3070.16 -4.41282 1.32689 0
M  V30 33116 H 3068.47 -4.0303 1.04668 0
M  V30 33117 H 3071.07 -5.12994 -1.50802 0
M  V30 33118 H 3071.41 -3.55143 -2.17208 0
M  V30 33119 H 3071.94 -3.94396 -0.519275 0
M  V30 33120 H 3068.68 -6.46041 1.10957 0
M  V30 33121 H 3068.2 -5.97431 -0.532582 0
M  V30 33122 H 3069.88 -6.46691 -0.199959 0
M  V30 33123 N 3070.01 -0.00338196 -1.576 0
M  V30 33124 C 3070.95 1.01517 -2.05492 0
M  V30 33125 C 3071.96 1.3049 -0.973464 0
M  V30 33126 O 3073.15 1.27406 -1.25019 0
M  V30 33127 C 3070.25 2.3491 -2.44276 0
M  V30 33128 C 3069.42 2.24828 -3.75195 0
M  V30 33129 C 3068.48 3.40937 -4.0081 0
M  V30 33130 O 3067.51 3.18973 -4.71429 0
M  V30 33131 N 3068.71 4.63898 -3.48969 0
M  V30 33132 H 3071.47 0.606728 -2.93494 0
M  V30 33133 H 3069.03 0.183932 -1.60852 0
M  V30 33134 H 3071.03 3.11364 -2.58524 0
M  V30 33135 H 3069.6 2.67484 -1.61775 0
M  V30 33136 H 3068.82 1.33263 -3.70991 0
M  V30 33137 H 3070.1 2.15269 -4.61017 0
M  V30 33138 H 3069.5 4.8464 -2.91789 0
M  V30 33139 H 3068.06 5.37607 -3.68541 0
M  V30 33140 N 3071.49 1.5528 0.269423 0
M  V30 33141 C 3072.4 1.91507 1.35507 0
M  V30 33142 C 3073.42 0.812739 1.53852 0
M  V30 33143 O 3074.59 1.11213 1.6791 0
M  V30 33144 C 3071.66 2.18272 2.69367 0
M  V30 33145 C 3070.72 3.41811 2.59737 0
M  V30 33146 C 3069.95 3.6729 3.87213 0
M  V30 33147 O 3070.18 2.95217 4.8806 0
M  V30 33148 O 3069.11 4.60824 3.87201 0
M  V30 33149 H 3072.94 2.83931 1.0778 0
M  V30 33150 H 3070.52 1.41872 0.468257 0
M  V30 33151 H 3072.4 2.36895 3.48509 0
M  V30 33152 H 3071.08 1.29029 2.96872 0
M  V30 33153 H 3069.98 3.28519 1.78958 0
M  V30 33154 H 3071.32 4.31284 2.37181 0
M  V30 33155 N 3072.97 -0.534097 1.48274 0
M  V30 33156 C 3073.88 -1.66606 1.65165 0
M  V30 33157 C 3074.9 -1.65597 0.534206 0
M  V30 33158 O 3076.07 -1.84623 0.804747 0
M  V30 33159 C 3073.14 -3.03078 1.68359 0
M  V30 33160 C 3072.2 -3.14974 2.91701 0
M  V30 33161 C 3071.43 -4.44936 2.94733 0
M  V30 33162 O 3071.65 -5.31788 2.06295 0
M  V30 33163 O 3070.59 -4.61112 3.86858 0
M  V30 33164 H 3074.41 -1.55293 2.60994 0
M  V30 33165 H 3072 -0.706726 1.31627 0
M  V30 33166 H 3073.88 -3.84249 1.73005 0
M  V30 33167 H 3072.56 -3.14723 0.757033 0
M  V30 33168 H 3071.46 -2.33114 2.9259 0
M  V30 33169 H 3072.8 -3.08243 3.83728 0
M  V30 33170 N 3074.45 -1.36793 -0.782652 0
M  V30 33171 C 3075.36 -1.33839 -1.92677 0
M  V30 33172 C 3076.37 -0.23955 -1.72343 0
M  V30 33173 O 3077.55 -0.47308 -1.95765 0
M  V30 33174 C 3074.61 -1.13366 -3.27642 0
M  V30 33175 C 3073.68 -2.32787 -3.60706 0
M  V30 33176 C 3072.91 -2.13282 -4.89231 0
M  V30 33177 O 3073.13 -1.11146 -5.59466 0
M  V30 33178 O 3072.07 -3.01217 -5.21106 0
M  V30 33179 H 3075.89 -2.30179 -1.9812 0
M  V30 33180 H 3073.48 -1.1741 -0.923866 0
M  V30 33181 H 3075.36 -1.03893 -4.08392 0
M  V30 33182 H 3074.03 -0.200925 -3.23076 0
M  V30 33183 H 3072.94 -2.4783 -2.80234 0
M  V30 33184 H 3074.27 -3.2459 -3.70003 0
M  V30 33185 N 3075.93 1.00759 -1.21184 0
M  V30 33186 C 3076.89 2.07645 -0.970376 0
M  V30 33187 C 3077.89 1.60697 0.0576063 0
M  V30 33188 O 3079.08 1.73274 -0.179399 0
M  V30 33189 C 3076.21 3.37744 -0.462762 0
M  V30 33190 H 3077.4 2.30499 -1.9186 0
M  V30 33191 H 3074.96 1.17696 -1.02846 0
M  V30 33192 H 3075.69 3.20569 0.490503 0
M  V30 33193 H 3075.48 3.7315 -1.20423 0
M  V30 33194 H 3076.97 4.16421 -0.313604 0
M  V30 33195 N 3077.4 1.01917 1.20211 0
M  V30 33196 C 3078.31 0.601351 2.26762 0
M  V30 33197 C 3079.33 -0.362339 1.70185 0
M  V30 33198 O 3080.51 -0.222647 2.00166 0
M  V30 33199 C 3077.57 -0.051227 3.46662 0
M  V30 33200 C 3076.63 0.958732 4.18458 0
M  V30 33201 C 3075.87 0.337201 5.32634 0
M  V30 33202 O 3076.09 -0.862411 5.63843 0
M  V30 33203 O 3075.02 1.05521 5.92578 0
M  V30 33204 H 3078.85 1.48849 2.64722 0
M  V30 33205 H 3076.43 0.788807 1.26879 0
M  V30 33206 H 3078.32 -0.415566 4.19346 0
M  V30 33207 H 3076.99 -0.912517 3.10572 0
M  V30 33208 H 3075.9 1.37448 3.47935 0
M  V30 33209 H 3077.23 1.79007 4.58495 0
M  V30 33210 N 3078.88 -1.36036 0.795742 0
M  V30 33211 C 3080.13 -1.98678 0.370326 0
M  V30 33212 C 3080.45 -1.6346 -1.06329 0
M  V30 33213 O 3079.72 -0.911701 -1.73392 0
M  V30 33214 H 3078.3 -0.734894 0.133941 0
M  V30 33215 H 3080.96 -1.66128 1.01918 0
M  V30 33216 H 3080.06 -3.08582 0.467261 0
M  V30 33217 N 3080.36 -0.5483 -1.47755 0
M  V30 33218 C 3081.61 -0.0188315 -2.01691 0
M  V30 33219 C 3081.92 1.33566 -1.42896 0
M  V30 33220 O 3083.13 1.95454 -1.88441 0
M  V30 33221 C 3081.58 0.0167838 -3.59896 0
M  V30 33222 C 3081.19 -1.33393 -4.2768 0
M  V30 33223 C 3082.94 0.494114 -4.21614 0
M  V30 33224 C 3080.84 -1.2579 -5.77867 0
M  V30 33225 H 3079.77 -0.00326973 -0.753993 0
M  V30 33226 H 3082.42 -0.694822 -1.69837 0
M  V30 33227 H 3080.81 0.758236 -3.88673 0
M  V30 33228 H 3081.98 -2.09239 -4.10555 0
M  V30 33229 H 3080.3 -1.74847 -3.77912 0
M  V30 33230 H 3082.89 0.569249 -5.31661 0
M  V30 33231 H 3083.24 1.5041 -3.88179 0
M  V30 33232 H 3083.77 -0.192208 -3.97335 0
M  V30 33233 H 3080.51 -2.24361 -6.15908 0
M  V30 33234 H 3080.03 -0.541102 -5.97354 0
M  V30 33235 H 3081.71 -0.956222 -6.39895 0
M  V30 33236 N 3081.84 1.55014 -0.28431 0
M  V30 33237 C 3083.06 2.04664 0.335763 0
M  V30 33238 C 3083.49 1.16097 1.47997 0
M  V30 33239 O 3082.85 0.161486 1.80579 0
M  V30 33240 C 3082.89 3.5194 0.785553 0
M  V30 33241 O 3082 3.66441 1.89196 0
M  V30 33242 H 3081.34 0.660508 0.0680117 0
M  V30 33243 H 3083.87 2.00216 -0.42129 0
M  V30 33244 H 3083.88 3.93478 1.07885 0
M  V30 33245 H 3082.55 4.15868 -0.0515406 0
M  V30 33246 H 3081.13 3.36807 1.60049 0
M  V30 33247 N 3083.32 0.0117398 1.57596 0
M  V30 33248 C 3084.54 -0.684904 1.95765 0
M  V30 33249 C 3084.97 -1.65856 0.887314 0
M  V30 33250 O 3084.32 -1.80649 -0.153476 0
M  V30 33251 C 3084.37 -1.38279 3.33033 0
M  V30 33252 O 3083.48 -2.4976 3.28167 0
M  V30 33253 H 3082.82 -0.181298 0.63877 0
M  V30 33254 H 3085.35 0.0684243 2.04486 0
M  V30 33255 H 3085.36 -1.74356 3.68869 0
M  V30 33256 H 3084.03 -0.668971 4.10485 0
M  V30 33257 H 3082.61 -2.15924 3.04025 0
M  V30 33258 N 3084.79 -1.55421 -0.261185 0
M  V30 33259 C 3085.73 -1.84056 -1.34902 0
M  V30 33260 C 3086.71 -0.694492 -1.47022 0
M  V30 33261 O 3087.89 -0.938748 -1.63462 0
M  V30 33262 C 3085.02 -2.01264 -2.72416 0
M  V30 33263 C 3084.06 -3.2386 -2.7752 0
M  V30 33264 S 3084.9 -4.80902 -2.3557 0
M  V30 33265 C 3086.05 -5.01098 -3.75036 0
M  V30 33266 H 3086.28 -2.76037 -1.10411 0
M  V30 33267 H 3083.82 -1.47344 -0.461435 0
M  V30 33268 H 3085.78 -2.11863 -3.51603 0
M  V30 33269 H 3084.44 -1.1015 -2.94153 0
M  V30 33270 H 3083.63 -3.32823 -3.78477 0
M  V30 33271 H 3083.23 -3.11913 -2.06365 0
M  V30 33272 H 3085.52 -4.87565 -4.70412 0
M  V30 33273 H 3086.47 -6.03119 -3.71017 0
M  V30 33274 H 3086.87 -4.29016 -3.66886 0
M  V30 33275 N 3086.27 0.526227 -1.48555 0
M  V30 33276 C 3087.2 1.63956 -1.66255 0
M  V30 33277 C 3088.18 1.62231 -0.51138 0
M  V30 33278 O 3089.37 1.79368 -0.744354 0
M  V30 33279 C 3086.5 3.02533 -1.70561 0
M  V30 33280 C 3085.45 3.19118 -2.85215 0
M  V30 33281 C 3084.78 4.58793 -2.74614 0
M  V30 33282 C 3086.08 3.01532 -4.26469 0
M  V30 33283 H 3087.77 1.49399 -2.59462 0
M  V30 33284 H 3085.32 0.717304 -1.24863 0
M  V30 33285 H 3087.27 3.80295 -1.81531 0
M  V30 33286 H 3086 3.18121 -0.739353 0
M  V30 33287 H 3084.65 2.43774 -2.73806 0
M  V30 33288 H 3084.3 4.71223 -1.7595 0
M  V30 33289 H 3084 4.70834 -3.51552 0
M  V30 33290 H 3085.53 5.38649 -2.87557 0
M  V30 33291 H 3086.94 3.69084 -4.38691 0
M  V30 33292 H 3085.34 3.25064 -5.04434 0
M  V30 33293 H 3086.41 1.97917 -4.4267 0
M  V30 33294 N 3087.75 1.37206 0.775387 0
M  V30 33295 C 3088.98 1.3557 1.56957 0
M  V30 33296 C 3089.4 -0.0575224 1.88012 0
M  V30 33297 O 3088.76 -1.03353 1.48956 0
M  V30 33298 C 3088.81 2.19781 2.85882 0
M  V30 33299 O 3087.91 1.59994 3.801 0
M  V30 33300 H 3087.25 0.463383 0.475575 0
M  V30 33301 H 3089.78 1.80681 0.959978 0
M  V30 33302 H 3089.79 2.32865 3.3502 0
M  V30 33303 H 3088.47 3.22506 2.62607 0
M  V30 33304 H 3087.04 1.5593 3.38733 0
M  V30 33305 N 3089.23 -1.00115 1.21716 0
M  V30 33306 C 3090.16 -2.10813 1.004 0
M  V30 33307 C 3091.14 -1.69946 -0.0723203 0
M  V30 33308 O 3092.32 -1.93999 0.0882739 0
M  V30 33309 C 3089.45 -3.42556 0.572061 0
M  V30 33310 C 3088.41 -3.97235 1.59338 0
M  V30 33311 C 3087.73 -5.24929 1.01755 0
M  V30 33312 C 3089.03 -4.28858 2.98125 0
M  V30 33313 H 3090.73 -2.28903 1.92987 0
M  V30 33314 H 3088.27 -1.10001 0.929292 0
M  V30 33315 H 3090.23 -4.194 0.410092 0
M  V30 33316 H 3088.95 -3.2427 -0.389453 0
M  V30 33317 H 3087.61 -3.22515 1.74298 0
M  V30 33318 H 3087.26 -5.02977 0.0476375 0
M  V30 33319 H 3086.96 -5.62478 1.69979 0
M  V30 33320 H 3088.48 -6.04414 0.866987 0
M  V30 33321 H 3089.9 -4.96529 2.86586 0
M  V30 33322 H 3088.29 -4.77559 3.63397 0
M  V30 33323 H 3089.36 -3.36973 3.4868 0
M  V30 33324 N 3090.71 -1.02553 -1.19669 0
M  V30 33325 C 3091.66 -0.596906 -2.24811 0
M  V30 33326 C 3092.65 0.368809 -1.65336 0
M  V30 33327 O 3093.86 0.237754 -1.78423 0
M  V30 33328 H 3090.23 -0.174752 -0.731413 0
M  V30 33329 H 3092.2 -1.4944 -2.58283 0
M  V30 33330 C 3090.95 0.0398902 -3.47677 0
M  V30 33331 H 3090.27 -0.694223 -3.93727 0
M  V30 33332 H 3091.71 0.302787 -4.22917 0
M  V30 33333 C 3090.17 1.28544 -3.11413 0
M  V30 33334 O 3090.7 2.37785 -3.23761 0
M  V30 33335 N 3088.91 1.17293 -2.65877 0
M  V30 33336 H 3088.46 0.284 -2.5603 0
M  V30 33337 H 3088.41 2.00726 -2.41984 0
M  V30 33338 N 3092.19 1.35612 -0.802945 0
M  V30 33339 C 3093.13 2.31749 -0.198824 0
M  V30 33340 C 3094.13 1.56459 0.649388 0
M  V30 33341 O 3095.33 1.71616 0.542959 0
M  V30 33342 H 3091.71 0.75062 -0.0455309 0
M  V30 33343 H 3093.68 2.80249 -1.02484 0
M  V30 33344 C 3092.43 3.4174 0.641006 0
M  V30 33345 H 3091.75 3.998 -0.00233272 0
M  V30 33346 H 3093.19 4.11295 1.03015 0
M  V30 33347 C 3091.65 2.84467 1.805 0
M  V30 33348 O 3092.18 2.77722 2.9023 0
M  V30 33349 N 3090.39 2.41566 1.61538 0
M  V30 33350 H 3089.93 2.47251 0.722819 0
M  V30 33351 H 3089.89 2.03593 2.39577 0
M  V30 33352 N 3093.66 0.556128 1.47462 0
M  V30 33353 C 3094.61 -0.192173 2.29999 0
M  V30 33354 C 3095.58 -0.909379 1.38995 0
M  V30 33355 O 3096.77 -0.905286 1.67956 0
M  V30 33356 C 3093.91 -1.21686 3.22934 0
M  V30 33357 C 3093.02 -0.505833 4.29028 0
M  V30 33358 C 3092.15 -1.51572 5.09116 0
M  V30 33359 C 3091.19 -0.789607 6.06986 0
M  V30 33360 N 3090.33 -1.74627 6.80037 0
M  V30 33361 H 3095.17 0.517785 2.93467 0
M  V30 33362 H 3092.71 0.267172 1.44653 0
M  V30 33363 H 3094.66 -1.82354 3.75237 0
M  V30 33364 H 3093.29 -1.89487 2.61332 0
M  V30 33365 H 3092.35 0.215343 3.7979 0
M  V30 33366 H 3093.66 0.0630456 4.9876 0
M  V30 33367 H 3092.81 -2.19596 5.65564 0
M  V30 33368 H 3091.55 -2.11852 4.39284 0
M  V30 33369 H 3090.56 -0.0954416 5.49717 0
M  V30 33370 H 3091.78 -0.192568 6.78827 0
M  V30 33371 H 3089.73 -2.33767 6.12935 0
M  V30 33372 H 3089.64 -1.22952 7.45935 0
M  V30 33373 H 3090.91 -2.41769 7.41059 0
M  V30 33374 N 3095.14 -1.54861 0.292527 0
M  V30 33375 C 3096.07 -2.20631 -0.62085 0
M  V30 33376 C 3097.09 -1.19639 -1.1041 0
M  V30 33377 O 3098.28 -1.46276 -1.02301 0
M  V30 33378 C 3095.38 -2.83235 -1.86095 0
M  V30 33379 C 3094.55 -4.1008 -1.52161 0
M  V30 33380 C 3093.61 -4.56567 -2.61597 0
M  V30 33381 O 3092.63 -5.21956 -2.27047 0
M  V30 33382 N 3093.84 -4.2817 -3.91983 0
M  V30 33383 H 3096.6 -2.99644 -0.0578501 0
M  V30 33384 H 3094.16 -1.61496 0.114362 0
M  V30 33385 H 3096.15 -3.1127 -2.58636 0
M  V30 33386 H 3094.72 -2.08112 -2.33256 0
M  V30 33387 H 3093.94 -3.89146 -0.629215 0
M  V30 33388 H 3095.23 -4.92691 -1.27015 0
M  V30 33389 H 3094.63 -3.75767 -4.22866 0
M  V30 33390 H 3093.19 -4.60936 -4.60849 0
M  V30 33391 N 3096.62 -0.0200973 -1.57587 0
M  V30 33392 C 3097.55 0.963296 -2.12704 0
M  V30 33393 C 3098.53 1.34529 -1.04096 0
M  V30 33394 O 3099.72 1.4255 -1.31883 0
M  V30 33395 C 3096.85 2.24863 -2.64677 0
M  V30 33396 C 3095.8 2.00766 -3.77991 0
M  V30 33397 C 3095.13 3.35487 -4.16357 0
M  V30 33398 C 3096.43 1.35407 -5.04442 0
M  V30 33399 H 3098.12 0.504311 -2.95122 0
M  V30 33400 H 3095.67 0.241135 -1.41967 0
M  V30 33401 H 3097.62 2.94031 -3.01867 0
M  V30 33402 H 3096.34 2.72911 -1.79408 0
M  V30 33403 H 3095 1.34019 -3.41225 0
M  V30 33404 H 3094.65 3.81276 -3.28082 0
M  V30 33405 H 3094.35 3.20172 -4.9271 0
M  V30 33406 H 3095.87 4.05937 -4.56123 0
M  V30 33407 H 3097.29 1.94561 -5.39276 0
M  V30 33408 H 3095.68 1.30519 -5.85734 0
M  V30 33409 H 3096.75 0.325838 -4.83804 0
M  V30 33410 N 3098.1 1.55557 0.252939 0
M  V30 33411 C 3099.32 1.81492 1.00376 0
M  V30 33412 C 3099.75 0.596349 1.78396 0
M  V30 33413 O 3099.11 -0.454504 1.75511 0
M  V30 33414 C 3099.15 3.051 1.92215 0
M  V30 33415 O 3098.26 2.81592 3.01297 0
M  V30 33416 H 3097.6 0.599279 0.285939 0
M  V30 33417 H 3100.13 2.02733 0.275759 0
M  V30 33418 H 3100.14 3.34372 2.33794 0
M  V30 33419 H 3098.81 3.93433 1.34845 0
M  V30 33420 H 3097.39 2.63471 2.63889 0
M  V30 33421 N 3099.58 -0.518341 1.48832 0
M  V30 33422 C 3100.51 -1.638 1.60319 0
M  V30 33423 C 3101.52 -1.55352 0.486798 0
M  V30 33424 O 3102.71 -1.616 0.75814 0
M  V30 33425 C 3099.81 -3.02511 1.52776 0
M  V30 33426 C 3098.98 -3.36321 2.79655 0
M  V30 33427 C 3098.04 -4.54365 2.65404 0
M  V30 33428 O 3097.07 -4.57008 3.39312 0
M  V30 33429 N 3098.27 -5.53242 1.75793 0
M  V30 33430 H 3101.03 -1.54378 2.5688 0
M  V30 33431 H 3098.6 -0.705863 1.45702 0
M  V30 33432 H 3100.59 -3.79372 1.40921 0
M  V30 33433 H 3099.16 -3.05948 0.641435 0
M  V30 33434 H 3098.38 -2.48524 3.05989 0
M  V30 33435 H 3099.67 -3.55701 3.63805 0
M  V30 33436 H 3099.06 -5.53894 1.1497 0
M  V30 33437 H 3097.62 -6.29275 1.6987 0
M  V30 33438 N 3101.05 -1.37615 -0.7681 0
M  V30 33439 C 3101.99 -1.28044 -1.88892 0
M  V30 33440 C 3102.96 -0.160254 -1.61808 0
M  V30 33441 O 3104.15 -0.335092 -1.85498 0
M  V30 33442 C 3101.28 -0.98058 -3.24195 0
M  V30 33443 C 3100.32 -2.11815 -3.70185 0
M  V30 33444 S 3101.15 -3.73824 -3.83427 0
M  V30 33445 C 3102.31 -3.45996 -5.21572 0
M  V30 33446 H 3102.54 -2.22907 -1.96722 0
M  V30 33447 H 3100.08 -1.23281 -0.929581 0
M  V30 33448 H 3102.03 -0.814402 -4.0234 0
M  V30 33449 H 3100.7 -0.0493674 -3.14061 0
M  V30 33450 H 3099.89 -1.86344 -4.68286 0
M  V30 33451 H 3099.49 -2.24465 -2.99151 0
M  V30 33452 H 3101.78 -3.0121 -6.0686 0
M  V30 33453 H 3102.73 -4.43439 -5.52058 0
M  V30 33454 H 3103.13 -2.8084 -4.89682 0
M  V30 33455 N 3102.53 0.994677 -1.22245 0
M  V30 33456 C 3103.46 2.10277 -1.01517 0
M  V30 33457 C 3104.44 1.69982 0.0633067 0
M  V30 33458 O 3105.63 1.9395 -0.0985609 0
M  V30 33459 C 3102.76 3.42248 -0.59022 0
M  V30 33460 C 3101.71 3.96384 -1.61443 0
M  V30 33461 C 3101.04 5.24382 -1.04537 0
M  V30 33462 C 3102.34 4.2727 -3.00395 0
M  V30 33463 H 3104.03 2.27876 -1.94198 0
M  V30 33464 H 3101.58 1.09506 -0.935113 0
M  V30 33465 H 3103.53 4.19176 -0.432328 0
M  V30 33466 H 3102.25 3.24472 0.372251 0
M  V30 33467 H 3100.91 3.21586 -1.76006 0
M  V30 33468 H 3100.56 5.02945 -0.0743109 0
M  V30 33469 H 3100.26 5.61568 -1.72959 0
M  V30 33470 H 3101.79 6.03945 -0.899028 0
M  V30 33471 H 3103.2 4.95002 -2.89216 0
M  V30 33472 H 3101.6 4.75625 -3.65925 0
M  V30 33473 H 3102.67 3.35119 -3.50462 0
M  V30 33474 N 3104.01 1.03186 1.19123 0
M  V30 33475 C 3104.96 0.615239 2.22449 0
M  V30 33476 C 3105.93 -0.372473 1.6187 0
M  V30 33477 O 3107.11 -0.268458 1.88902 0
M  V30 33478 C 3104.25 -0.024742 3.45091 0
M  V30 33479 C 3103.36 1.00937 4.20043 0
M  V30 33480 C 3102.5 0.338837 5.30118 0
M  V30 33481 C 3101.54 1.35865 5.96831 0
M  V30 33482 N 3100.68 0.713716 6.98463 0
M  V30 33483 H 3105.52 1.50091 2.57443 0
M  V30 33484 H 3103.05 0.751027 1.26483 0
M  V30 33485 H 3105.01 -0.413058 4.1515 0
M  V30 33486 H 3103.64 -0.873973 3.10744 0
M  V30 33487 H 3102.69 1.51572 3.48898 0
M  V30 33488 H 3104 1.78433 4.65793 0
M  V30 33489 H 3103.16 -0.104163 6.06611 0
M  V30 33490 H 3101.9 -0.468296 4.85446 0
M  V30 33491 H 3100.9 1.81188 5.19087 0
M  V30 33492 H 3102.13 2.16733 6.43586 0
M  V30 33493 H 3100.07 -0.073271 6.55959 0
M  V30 33494 H 3099.99 1.42651 7.42419 0
M  V30 33495 H 3101.26 0.294818 7.78942 0
M  V30 33496 N 3105.49 -1.35184 0.810125 0
M  V30 33497 C 3106.71 -2.03434 0.403676 0
M  V30 33498 C 3107.14 -1.60643 -0.978541 0
M  V30 33499 O 3106.5 -0.784808 -1.63433 0
M  V30 33500 C 3106.54 -3.57128 0.499217 0
M  V30 33501 O 3105.65 -4.09527 -0.485967 0
M  V30 33502 H 3104.99 -0.64238 0.168061 0
M  V30 33503 H 3107.52 -1.72706 1.09699 0
M  V30 33504 H 3107.53 -4.06316 0.370308 0
M  V30 33505 H 3106.2 -3.87621 1.5074 0
M  V30 33506 H 3104.78 -3.7155 -0.317004 0
M  V30 33507 N 3106.97 -0.56394 -1.47165 0
M  V30 33508 C 3108.19 -0.0455063 -2.0735 0
M  V30 33509 C 3108.62 1.2418 -1.41283 0
M  V30 33510 O 3107.97 1.7455 -0.490115 0
M  V30 33511 C 3108.02 0.126389 -3.60378 0
M  V30 33512 O 3107.13 1.18739 -3.94936 0
M  V30 33513 H 3106.47 -0.0543493 -0.661772 0
M  V30 33514 H 3109 -0.781541 -1.89085 0
M  V30 33515 H 3109.01 0.338483 -4.06594 0
M  V30 33516 H 3107.68 -0.813802 -4.0786 0
M  V30 33517 H 3106.26 0.955254 -3.60457 0
M  V30 33518 N 3108.44 1.54704 -0.300735 0
M  V30 33519 C 3109.41 2.22188 0.562609 0
M  V30 33520 C 3110.41 1.20784 1.0615 0
M  V30 33521 O 3111.6 1.45521 0.957571 0
M  V30 33522 C 3108.73 2.90804 1.77894 0
M  V30 33523 H 3109.92 2.99888 -0.0269888 0
M  V30 33524 H 3107.48 1.56215 -0.0515687 0
M  V30 33525 H 3108.21 2.17182 2.40837 0
M  V30 33526 H 3108 3.65138 1.42886 0
M  V30 33527 H 3109.49 3.42285 2.3923 0
M  V30 33528 N 3109.92 0.0284543 1.57574 0
M  V30 33529 C 3111.33 -0.510471 1.79586 0
M  V30 33530 C 3111.68 -1.7229 0.938656 0
M  V30 33531 O 3110.81 -2.15887 0.148878 0
M  V30 33532 C 3111.4 -0.932855 3.25704 0
M  V30 33533 C 3109.96 -1.4169 3.48713 0
M  V30 33534 C 3109.11 -0.381308 2.74666 0
M  V30 33535 H 3112.06 0.254492 1.56646 0
M  V30 33536 H 3112.08 -1.79726 3.35379 0
M  V30 33537 H 3111.59 -0.0502353 3.88067 0
M  V30 33538 H 3109.7 -2.31947 2.91602 0
M  V30 33539 H 3109.81 -1.42473 4.57426 0
M  V30 33540 H 3108.17 -0.849258 2.40124 0
M  V30 33541 H 3108.96 0.492835 3.39744 0
M  V30 33542 N 3111.4 -1.55689 -0.244686 0
M  V30 33543 C 3112.36 -1.89697 -1.28637 0
M  V30 33544 C 3113.36 -0.773608 -1.40968 0
M  V30 33545 O 3114.55 -1.04158 -1.39631 0
M  V30 33546 C 3111.69 -2.12737 -2.66375 0
M  V30 33547 H 3112.88 -2.82843 -0.996983 0
M  V30 33548 H 3110.43 -1.48615 -0.484077 0
M  V30 33549 H 3111.17 -1.22067 -3.0045 0
M  V30 33550 H 3110.95 -2.94553 -2.58806 0
M  V30 33551 H 3112.44 -2.40224 -3.41588 0
M  V30 33552 N 3112.88 0.510441 -1.49105 0
M  V30 33553 C 3113.81 1.62947 -1.61186 0
M  V30 33554 C 3114.82 1.55091 -0.49503 0
M  V30 33555 O 3116.01 1.61195 -0.766699 0
M  V30 33556 C 3113.11 3.01696 -1.54378 0
M  V30 33557 C 3112.29 3.34834 -2.81434 0
M  V30 33558 C 3111.34 4.52951 -2.6781 0
M  V30 33559 O 3110.37 4.55202 -3.41731 0
M  V30 33560 N 3111.57 5.52302 -1.78725 0
M  V30 33561 H 3114.34 1.53014 -2.57695 0
M  V30 33562 H 3111.9 0.698126 -1.46075 0
M  V30 33563 H 3113.89 3.7862 -1.42931 0
M  V30 33564 H 3112.46 3.05604 -0.657651 0
M  V30 33565 H 3111.68 2.46898 -3.07303 0
M  V30 33566 H 3112.97 3.53767 -3.65687 0
M  V30 33567 H 3112.37 5.53276 -1.17906 0
M  V30 33568 H 3110.92 6.28366 -1.73205 0
M  V30 33569 N 3114.36 1.38021 0.760791 0
M  V30 33570 C 3115.27 1.36887 1.90523 0
M  V30 33571 C 3116.28 0.266938 1.7194 0
M  V30 33572 O 3117.46 0.504164 1.94988 0
M  V30 33573 C 3114.52 1.18564 3.25797 0
M  V30 33574 C 3113.58 2.38496 3.56956 0
M  V30 33575 C 3112.82 2.21038 4.85776 0
M  V30 33576 O 3113.04 1.20033 5.57627 0
M  V30 33577 O 3111.97 3.09469 5.16248 0
M  V30 33578 H 3115.8 2.33302 1.94433 0
M  V30 33579 H 3113.39 1.18865 0.90507 0
M  V30 33580 H 3115.27 1.10377 4.06688 0
M  V30 33581 H 3113.94 0.252298 3.22715 0
M  V30 33582 H 3112.85 2.52257 2.76256 0
M  V30 33583 H 3114.18 3.30436 3.64792 0
M  V30 33584 N 3115.83 -0.98818 1.22771 0
M  V30 33585 C 3116.74 -2.11339 1.01848 0
M  V30 33586 C 3117.76 -1.73965 -0.0346631 0
M  V30 33587 O 3118.94 -2.00771 0.159096 0
M  V30 33588 C 3116 -3.414 0.603897 0
M  V30 33589 C 3115.06 -3.92846 1.7312 0
M  V30 33590 C 3114.3 -5.167 1.3363 0
M  V30 33591 O 3114.52 -5.69987 0.217141 0
M  V30 33592 O 3113.45 -5.62017 2.15453 0
M  V30 33593 H 3117.28 -2.31876 1.96131 0
M  V30 33594 H 3114.86 -1.09713 1.01407 0
M  V30 33595 H 3116.75 -4.19653 0.38327 0
M  V30 33596 H 3115.42 -3.22212 -0.310026 0
M  V30 33597 H 3114.33 -3.15745 2.00639 0
M  V30 33598 H 3115.66 -4.16475 2.62316 0
M  V30 33599 N 3117.31 -1.03816 -1.18575 0
M  V30 33600 C 3118.22 -0.637351 -2.25776 0
M  V30 33601 C 3119.24 0.335218 -1.7074 0
M  V30 33602 O 3120.41 0.190774 -2.00494 0
M  V30 33603 C 3117.48 -0.00393047 -3.467 0
M  V30 33604 C 3116.54 -1.02518 -4.16879 0
M  V30 33605 C 3115.77 -0.421896 -5.3203 0
M  V30 33606 O 3116 0.772599 -5.65143 0
M  V30 33607 O 3114.93 -1.14935 -5.90824 0
M  V30 33608 H 3118.76 -1.53041 -2.62321 0
M  V30 33609 H 3116.34 -0.808892 -1.25608 0
M  V30 33610 H 3118.22 0.348799 -4.19954 0
M  V30 33611 H 3116.9 0.862993 -3.11984 0
M  V30 33612 H 3115.81 -1.42966 -3.45704 0
M  V30 33613 H 3117.14 -1.86279 -4.55589 0
M  V30 33614 N 3118.79 1.34753 -0.817283 0
M  V30 33615 C 3119.7 2.334 -0.236987 0
M  V30 33616 C 3120.72 1.62362 0.625657 0
M  V30 33617 O 3121.89 1.94167 0.534887 0
M  V30 33618 C 3118.96 3.41536 0.596155 0
M  V30 33619 C 3118.02 4.28331 -0.28823 0
M  V30 33620 C 3117.25 5.31303 0.505243 0
M  V30 33621 O 3117.47 5.43244 1.73902 0
M  V30 33622 O 3116.41 6.018 -0.10948 0
M  V30 33623 H 3120.23 2.84849 -1.05333 0
M  V30 33624 H 3117.82 1.37712 -0.579299 0
M  V30 33625 H 3119.7 4.0758 1.07034 0
M  V30 33626 H 3118.38 2.92341 1.38991 0
M  V30 33627 H 3117.28 3.6523 -0.809788 0
M  V30 33628 H 3118.62 4.80953 -1.0462 0
M  V30 33629 N 3120.27 0.571737 1.46864 0
M  V30 33630 C 3121.55 -0.0132101 1.95596 0
M  V30 33631 C 3121.93 -1.47068 1.5144 0
M  V30 33632 O 3121.27 -2.15492 0.759955 0
M  V30 33633 C 3121.48 0.147396 3.48689 0
M  V30 33634 C 3122.83 0.00953793 4.24599 0
M  V30 33635 O 3123.86 0.0756737 3.5612 0
M  V30 33636 O 3122.72 -0.135265 5.46333 0
M  V30 33637 H 3119.81 -0.0559894 0.825103 0
M  V30 33638 H 3122.36 0.639284 1.57198 0
M  V30 33639 H 3121.13 1.16103 3.73679 0
M  V30 33640 H 3120.75 -0.542039 3.93888 0
M  V30 33641 N 3121.75 -1.54542 0.308935 0
M  V30 33642 C 3123.16 -1.8581 -0.182111 0
M  V30 33643 C 3123.51 -1.23079 -1.52794 0
M  V30 33644 O 3122.63 -0.531395 -2.09774 0
M  V30 33645 C 3123.23 -3.37118 -0.337215 0
M  V30 33646 C 3121.79 -3.68388 -0.772481 0
M  V30 33647 C 3120.94 -2.77064 0.1145 0
M  V30 33648 H 3123.89 -1.49599 0.529697 0
M  V30 33649 H 3123.91 -3.62049 -1.17052 0
M  V30 33650 H 3123.42 -3.82746 0.64245 0
M  V30 33651 H 3121.52 -3.28283 -1.76241 0
M  V30 33652 H 3121.63 -4.75498 -0.586369 0
M  V30 33653 H 3120 -2.51418 -0.407537 0
M  V30 33654 H 3120.78 -3.25514 1.09066 0
M  V30 33655 N 3123.23 -0.0368104 -1.57557 0
M  V30 33656 C 3124.16 0.940681 -2.13713 0
M  V30 33657 C 3125.14 1.33417 -1.05517 0
M  V30 33658 O 3126.32 1.41143 -1.33388 0
M  V30 33659 C 3123.45 2.22043 -2.67047 0
M  V30 33660 C 3122.41 1.96745 -3.80099 0
M  V30 33661 C 3121.73 3.31052 -4.19892 0
M  V30 33662 C 3123.03 1.30049 -5.0585 0
M  V30 33663 H 3124.73 0.472981 -2.9564 0
M  V30 33664 H 3122.27 0.226064 -1.42214 0
M  V30 33665 H 3124.22 2.90812 -3.04969 0
M  V30 33666 H 3122.95 2.70993 -1.82292 0
M  V30 33667 H 3121.61 1.30392 -3.42627 0
M  V30 33668 H 3121.26 3.77775 -3.32107 0
M  V30 33669 H 3120.96 3.14928 -4.96078 0
M  V30 33670 H 3122.48 4.01076 -4.60402 0
M  V30 33671 H 3123.89 1.8883 -5.41309 0
M  V30 33672 H 3122.29 1.24299 -5.87086 0
M  V30 33673 H 3123.36 0.274505 -4.84122 0
M  V30 33674 N 3124.7 1.55817 0.236426 0
M  V30 33675 C 3125.67 1.90377 1.27629 0
M  V30 33676 C 3126.67 0.781073 1.40556 0
M  V30 33677 O 3127.86 1.04897 1.39076 0
M  V30 33678 C 3124.99 2.14147 2.65243 0
M  V30 33679 H 3126.18 2.83368 0.981969 0
M  V30 33680 H 3123.73 1.4887 0.476188 0
M  V30 33681 H 3124.47 1.23658 2.99798 0
M  V30 33682 H 3124.25 2.95922 2.57241 0
M  V30 33683 H 3125.74 2.42032 3.40309 0
M  V30 33684 N 3126.18 -0.502526 1.49373 0
M  V30 33685 C 3127.41 -1.27895 1.62254 0
M  V30 33686 C 3127.82 -1.86924 0.292588 0
M  V30 33687 O 3127.16 -1.68495 -0.731794 0
M  V30 33688 C 3127.22 -2.44925 2.63158 0
M  V30 33689 C 3126.89 -2.06777 4.07544 0
M  V30 33690 C 3127.89 -1.6084 4.94395 0
M  V30 33691 C 3125.57 -2.16459 4.53267 0
M  V30 33692 C 3127.56 -1.25087 6.25006 0
M  V30 33693 C 3125.25 -1.80317 5.83891 0
M  V30 33694 C 3126.25 -1.34706 6.69584 0
M  V30 33695 O 3125.94 -0.990521 7.97774 0
M  V30 33696 H 3125.67 -0.39417 0.549187 0
M  V30 33697 H 3128.22 -0.609997 1.96133 0
M  V30 33698 H 3126.45 -3.14891 2.24456 0
M  V30 33699 H 3128.14 -3.06953 2.65584 0
M  V30 33700 H 3128.91 -1.52808 4.60299 0
M  V30 33701 H 3124.79 -2.50912 3.86735 0
M  V30 33702 H 3128.33 -0.894147 6.91846 0
M  V30 33703 H 3124.23 -1.87999 6.17517 0
M  V30 33704 H 3125 -1.12212 8.10772 0
M  V30 33705 N 3127.66 -1.38422 -0.75346 0
M  V30 33706 C 3128.89 -1.37671 -1.54046 0
M  V30 33707 C 3129.3 0.0353324 -1.89167 0
M  V30 33708 O 3128.64 1.01236 -1.53287 0
M  V30 33709 C 3128.7 -2.16798 -2.86773 0
M  V30 33710 C 3128.37 -3.65608 -2.74189 0
M  V30 33711 C 3129.36 -4.59098 -2.43977 0
M  V30 33712 C 3127.05 -4.08965 -2.91638 0
M  V30 33713 C 3129.04 -5.93926 -2.31368 0
M  V30 33714 C 3126.73 -5.43873 -2.78649 0
M  V30 33715 C 3127.73 -6.36167 -2.48557 0
M  V30 33716 O 3127.42 -7.68593 -2.35626 0
M  V30 33717 H 3127.15 -0.472682 -0.483268 0
M  V30 33718 H 3129.7 -1.82616 -0.940235 0
M  V30 33719 H 3127.93 -1.66571 -3.48986 0
M  V30 33720 H 3129.62 -2.08453 -3.48285 0
M  V30 33721 H 3130.39 -4.26906 -2.30165 0
M  V30 33722 H 3126.27 -3.37474 -3.14057 0
M  V30 33723 H 3129.81 -6.65931 -2.07802 0
M  V30 33724 H 3125.71 -5.75662 -2.92034 0
M  V30 33725 H 3126.47 -7.79117 -2.50838 0
M  V30 33726 N 3129.14 0.981655 -1.23294 0
M  V30 33727 C 3130.05 2.10796 -1.02967 0
M  V30 33728 C 3131.06 1.73981 0.0254368 0
M  V30 33729 O 3132.24 2.00683 -0.169741 0
M  V30 33730 C 3129.3 3.41075 -0.621994 0
M  V30 33731 C 3128.37 3.91922 -1.75201 0
M  V30 33732 C 3127.6 5.15984 -1.36368 0
M  V30 33733 O 3127.82 5.69863 -0.247365 0
M  V30 33734 O 3126.76 5.60867 -2.18431 0
M  V30 33735 H 3130.58 2.30832 -1.97358 0
M  V30 33736 H 3128.17 1.09174 -1.01988 0
M  V30 33737 H 3130.05 4.19444 -0.405519 0
M  V30 33738 H 3128.72 3.22372 0.292934 0
M  V30 33739 H 3127.63 3.14676 -2.02311 0
M  V30 33740 H 3128.96 4.15078 -2.64521 0
M  V30 33741 N 3130.62 1.04444 1.18022 0
M  V30 33742 C 3131.56 0.632596 2.23832 0
M  V30 33743 C 3132.56 -0.342459 1.65902 0
M  V30 33744 O 3133.76 -0.209339 1.78779 0
M  V30 33745 H 3130.14 0.186366 0.728541 0
M  V30 33746 H 3132.11 1.5353 2.55873 0
M  V30 33747 C 3130.86 0.0154272 3.47697 0
M  V30 33748 H 3130.18 0.756773 3.92572 0
M  V30 33749 H 3131.62 -0.235466 4.23346 0
M  V30 33750 C 3130.08 -1.23574 3.13418 0
M  V30 33751 O 3130.61 -2.32604 3.27503 0
M  V30 33752 N 3128.82 -1.13048 2.6771 0
M  V30 33753 H 3128.36 -0.243232 2.56449 0
M  V30 33754 H 3128.32 -1.96851 2.45147 0
M  V30 33755 N 3132.09 -1.34317 0.824418 0
M  V30 33756 C 3133.04 -2.26939 0.219663 0
M  V30 33757 C 3134.03 -1.48602 -0.616938 0
M  V30 33758 O 3135.22 -1.70611 -0.471273 0
M  V30 33759 C 3132.35 -3.37722 -0.61632 0
M  V30 33760 C 3131.43 -4.2347 0.230992 0
M  V30 33761 N 3131.83 -4.88736 1.30272 0
M  V30 33762 C 3130.12 -4.45997 0.01558 0
M  V30 33763 C 3130.82 -5.52445 1.82151 0
M  V30 33764 N 3129.8 -5.31828 1.12518 0
M  V30 33765 H 3133.6 -2.74905 1.03944 0
M  V30 33766 H 3131.12 -1.48053 0.667379 0
M  V30 33767 H 3133.11 -4.03048 -1.06575 0
M  V30 33768 H 3131.77 -2.91307 -1.43424 0
M  V30 33769 H 3132.78 -4.89704 1.68553 0
M  V30 33770 H 3129.46 -4.10337 -0.770056 0
M  V30 33771 H 3130.85 -6.14461 2.71821 0
M  V30 33772 N 3133.57 -0.579517 -1.46558 0
M  V30 33773 C 3134.8 -0.0694011 -2.06784 0
M  V30 33774 C 3135.21 1.23417 -1.42877 0
M  V30 33775 O 3134.57 1.74545 -0.53295 0
M  V30 33776 C 3134.62 0.106448 -3.61343 0
M  V30 33777 O 3134.34 -1.14552 -4.22859 0
M  V30 33778 C 3135.84 0.651282 -4.3849 0
M  V30 33779 H 3133.06 -0.0559966 -0.668659 0
M  V30 33780 H 3135.61 -0.799278 -1.88233 0
M  V30 33781 H 3133.76 0.786534 -3.79332 0
M  V30 33782 H 3134.18 -0.957321 -5.15689 0
M  V30 33783 H 3135.65 0.723518 -5.47238 0
M  V30 33784 H 3136.13 1.66755 -4.06312 0
M  V30 33785 H 3136.73 0.00616854 -4.253 0
M  V30 33786 N 3135.05 1.54376 -0.317127 0
M  V30 33787 C 3136.28 2.0533 0.292275 0
M  V30 33788 C 3136.7 1.1921 1.45501 0
M  V30 33789 O 3136.06 0.199753 1.80196 0
M  V30 33790 C 3136.11 3.53527 0.710725 0
M  V30 33791 O 3135.21 3.70371 1.8138 0
M  V30 33792 H 3134.55 0.661802 0.053986 0
M  V30 33793 H 3137.08 1.99277 -0.463664 0
M  V30 33794 H 3137.09 3.95678 0.995147 0
M  V30 33795 H 3135.77 4.15665 -0.139741 0
M  V30 33796 H 3134.34 3.40126 1.52869 0
M  V30 33797 N 3136.53 0.0451655 1.57535 0
M  V30 33798 C 3137.46 -0.960336 2.08111 0
M  V30 33799 C 3138.47 -1.27863 1.00772 0
M  V30 33800 O 3139.66 -1.24047 1.28353 0
M  V30 33801 C 3136.76 -2.2835 2.50418 0
M  V30 33802 C 3135.94 -2.14802 3.81024 0
M  V30 33803 C 3134.99 -3.3019 4.09708 0
M  V30 33804 O 3134.02 -3.06362 4.7972 0
M  V30 33805 N 3135.22 -4.54482 3.61146 0
M  V30 33806 H 3137.99 -0.5287 2.95 0
M  V30 33807 H 3135.55 -0.14122 1.61283 0
M  V30 33808 H 3137.54 -3.044 2.66688 0
M  V30 33809 H 3136.11 -2.63101 1.6881 0
M  V30 33810 H 3135.33 -1.2338 3.74394 0
M  V30 33811 H 3136.62 -2.0297 4.66563 0
M  V30 33812 H 3136.02 -4.76733 3.04535 0
M  V30 33813 H 3134.57 -5.27647 3.82665 0
M  V30 33814 N 3138.01 -1.5594 -0.228159 0
M  V30 33815 C 3139.26 -1.77845 -0.951532 0
M  V30 33816 C 3139.57 -0.612534 -1.85762 0
M  V30 33817 O 3140.77 -0.715052 -2.61915 0
M  V30 33818 C 3139.23 -3.14926 -1.74211 0
M  V30 33819 C 3138.84 -4.39222 -0.882492 0
M  V30 33820 C 3140.58 -3.46161 -2.45709 0
M  V30 33821 C 3138.49 -5.6733 -1.67004 0
M  V30 33822 H 3137.42 -0.663037 -0.359024 0
M  V30 33823 H 3140.07 -1.82345 -0.205604 0
M  V30 33824 H 3138.45 -3.04585 -2.5307 0
M  V30 33825 H 3139.63 -4.60602 -0.134909 0
M  V30 33826 H 3137.94 -4.15458 -0.279949 0
M  V30 33827 H 3140.54 -4.39097 -3.0512 0
M  V30 33828 H 3140.88 -2.68352 -3.18266 0
M  V30 33829 H 3141.41 -3.57802 -1.73846 0
M  V30 33830 H 3138.15 -6.48013 -0.987872 0
M  V30 33831 H 3137.67 -5.50022 -2.39241 0
M  V30 33832 H 3139.35 -6.07266 -2.23241 0
M  V30 33833 N 3139.48 0.494597 -1.49638 0
M  V30 33834 C 3140.39 1.62169 -1.69524 0
M  V30 33835 C 3141.41 1.64122 -0.577923 0
M  V30 33836 O 3142.59 1.82425 -0.853414 0
M  V30 33837 C 3139.65 2.98507 -1.76336 0
M  V30 33838 C 3138.71 3.0713 -2.9995 0
M  V30 33839 C 3137.95 4.36965 -3.06426 0
M  V30 33840 O 3138.17 5.26132 -2.20322 0
M  V30 33841 O 3137.1 4.50693 -3.98948 0
M  V30 33842 H 3140.93 1.48319 -2.65019 0
M  V30 33843 H 3138.51 0.671579 -1.33455 0
M  V30 33844 H 3140.4 3.79527 -1.83132 0
M  V30 33845 H 3139.07 3.12605 -0.84021 0
M  V30 33846 H 3137.98 2.25274 -2.98667 0
M  V30 33847 H 3139.31 2.97961 -3.91765 0
M  V30 33848 N 3140.96 1.3882 0.746109 0
M  V30 33849 C 3142.21 1.34752 1.50083 0
M  V30 33850 C 3142.52 -0.0574442 1.95516 0
M  V30 33851 O 3143.73 -0.220682 2.70602 0
M  V30 33852 C 3142.19 2.3667 2.71137 0
M  V30 33853 C 3141.79 3.82825 2.32699 0
M  V30 33854 C 3143.54 2.41659 3.49001 0
M  V30 33855 C 3141.45 4.76411 3.50409 0
M  V30 33856 H 3140.38 0.500922 0.563554 0
M  V30 33857 H 3143.03 1.64412 0.814922 0
M  V30 33858 H 3141.41 2.00064 3.41746 0
M  V30 33859 H 3142.58 4.28411 1.69708 0
M  V30 33860 H 3140.9 3.81026 1.67953 0
M  V30 33861 H 3143.49 3.08774 4.36535 0
M  V30 33862 H 3143.84 1.43775 3.90684 0
M  V30 33863 H 3144.37 2.77102 2.85411 0
M  V30 33864 H 3141.11 5.75516 3.13785 0
M  V30 33865 H 3140.63 4.35513 4.12418 0
M  V30 33866 H 3142.31 4.94783 4.16892 0
M  V30 33867 N 3142.44 -0.975103 1.23812 0
M  V30 33868 C 3143.69 -1.71965 1.07498 0
M  V30 33869 C 3144.02 -1.90317 -0.386417 0
M  V30 33870 O 3143.29 -1.45929 -1.28589 0
M  V30 33871 C 3143.58 -3.1148 1.807 0
M  V30 33872 C 3143.43 -3.00665 3.34545 0
M  V30 33873 C 3144.75 -4.11 1.57375 0
M  V30 33874 H 3141.87 -0.624159 0.391911 0
M  V30 33875 H 3144.51 -1.13484 1.52385 0
M  V30 33876 H 3142.66 -3.61405 1.42544 0
M  V30 33877 H 3144.33 -2.58224 3.82254 0
M  V30 33878 H 3142.58 -2.37047 3.63306 0
M  V30 33879 H 3143.25 -3.99469 3.80958 0
M  V30 33880 H 3145.72 -3.69904 1.90552 0
M  V30 33881 H 3144.6 -5.067 2.11061 0
M  V30 33882 H 3144.86 -4.39145 0.510298 0
M  V30 33883 N 3143.92 -1.05068 -1.17467 0
M  V30 33884 C 3145.33 -0.771794 -1.39698 0
M  V30 33885 C 3145.53 0.634348 -1.91254 0
M  V30 33886 O 3144.59 1.39695 -2.10336 0
M  V30 33887 C 3145.9 -1.82635 -2.38883 0
M  V30 33888 C 3147.45 -1.84842 -2.52591 0
M  V30 33889 C 3147.93 -2.89317 -3.55049 0
M  V30 33890 N 3149.42 -2.88272 -3.62565 0
M  V30 33891 C 3150.15 -3.65759 -4.41597 0
M  V30 33892 N 3149.65 -4.53028 -5.24154 0
M  V30 33893 N 3151.44 -3.54205 -4.36458 0
M  V30 33894 H 3143.59 -1.95794 -0.82332 0
M  V30 33895 H 3145.86 -0.847744 -0.424305 0
M  V30 33896 H 3145.56 -2.83549 -2.0807 0
M  V30 33897 H 3145.44 -1.66693 -3.38369 0
M  V30 33898 H 3147.82 -0.845938 -2.82715 0
M  V30 33899 H 3147.9 -2.04862 -1.53184 0
M  V30 33900 H 3147.55 -3.89751 -3.25664 0
M  V30 33901 H 3147.48 -2.6655 -4.54157 0
M  V30 33902 H 3149.97 -2.24995 -3.03621 0
M  V30 33903 H 3150.28 -5.0884 -5.81637 0
M  V30 33904 H 3148.63 -4.5709 -5.23539 0
M  V30 33905 H 3151.82 -2.85422 -3.71015 0
M  V30 33906 H 3151.99 -4.1484 -4.97807 0
M  V30 33907 N 3145.4 1.33878 -0.831529 0
M  V30 33908 C 3146.33 2.28171 -0.216948 0
M  V30 33909 C 3147.34 1.51415 0.598114 0
M  V30 33910 O 3148.53 1.73333 0.426385 0
M  V30 33911 C 3145.63 3.31298 0.713772 0
M  V30 33912 C 3144.8 4.37358 -0.0603442 0
M  V30 33913 C 3143.86 5.20196 0.792604 0
M  V30 33914 O 3142.89 5.68717 0.234464 0
M  V30 33915 N 3144.09 5.40752 2.1111 0
M  V30 33916 H 3146.86 2.81551 -1.02709 0
M  V30 33917 H 3144.42 1.46493 -0.689298 0
M  V30 33918 H 3146.41 3.83617 1.28919 0
M  V30 33919 H 3144.98 2.78249 1.42464 0
M  V30 33920 H 3144.2 3.85638 -0.817109 0
M  V30 33921 H 3145.49 5.05334 -0.592911 0
M  V30 33922 H 3144.88 5.0302 2.58819 0
M  V30 33923 H 3143.44 5.96156 2.63517 0
M  V30 33924 N 3146.87 0.587281 1.46249 0
M  V30 33925 C 3148.15 0.00753619 1.95599 0
M  V30 33926 C 3148.53 -1.45454 1.52991 0
M  V30 33927 O 3147.88 -2.14674 0.782768 0
M  V30 33928 C 3148.09 0.184371 3.48513 0
M  V30 33929 C 3149.44 0.0545718 4.24565 0
M  V30 33930 O 3150.46 0.113441 3.56019 0
M  V30 33931 O 3149.32 -0.0773115 5.46445 0
M  V30 33932 H 3146.41 -0.047235 0.82565 0
M  V30 33933 H 3148.96 0.655921 1.56511 0
M  V30 33934 H 3147.73 1.2006 3.72426 0
M  V30 33935 H 3147.36 -0.500232 3.94441 0
M  V30 33936 N 3148.35 -1.54206 0.325309 0
M  V30 33937 C 3149.77 -1.59577 -0.0272756 0
M  V30 33938 C 3149.97 -1.3418 -1.50326 0
M  V30 33939 O 3149.02 -1.12709 -2.25949 0
M  V30 33940 C 3150.34 -2.98127 0.392521 0
M  V30 33941 C 3151.89 -3.11111 0.343324 0
M  V30 33942 C 3152.36 -4.5201 0.738308 0
M  V30 33943 N 3153.85 -4.58005 0.691782 0
M  V30 33944 C 3154.59 -5.65143 0.969578 0
M  V30 33945 N 3154.08 -6.80213 1.3146 0
M  V30 33946 N 3155.88 -5.54929 0.895024 0
M  V30 33947 H 3148.03 -1.68971 1.28695 0
M  V30 33948 H 3150.29 -0.790407 0.523413 0
M  V30 33949 H 3150 -3.21717 1.42094 0
M  V30 33950 H 3149.87 -3.76426 -0.241585 0
M  V30 33951 H 3152.26 -2.87255 -0.675895 0
M  V30 33952 H 3152.34 -2.34914 1.01239 0
M  V30 33953 H 3151.98 -4.76599 1.75545 0
M  V30 33954 H 3151.91 -5.26579 0.0469152 0
M  V30 33955 H 3154.4 -3.75364 0.437041 0
M  V30 33956 H 3154.72 -7.57866 1.5119 0
M  V30 33957 H 3153.06 -6.81705 1.35288 0
M  V30 33958 H 3156.25 -4.63909 0.624957 0
M  V30 33959 H 3156.42 -6.38337 1.11488 0
M  V30 33960 N 3149.83 -0.0535194 -1.57509 0
M  V30 33961 C 3151.06 0.63276 -1.97512 0
M  V30 33962 C 3151.48 1.63446 -0.930976 0
M  V30 33963 O 3150.84 1.80993 0.105526 0
M  V30 33964 C 3150.89 1.29401 -3.36582 0
M  V30 33965 O 3149.99 2.40971 -3.34674 0
M  V30 33966 H 3149.33 0.164298 -0.643352 0
M  V30 33967 H 3151.86 -0.122616 -2.04232 0
M  V30 33968 H 3151.87 1.64514 -3.73362 0
M  V30 33969 H 3150.55 0.559903 -4.12114 0
M  V30 33970 H 3149.12 2.07787 -3.09643 0
M  V30 33971 N 3151.31 1.56059 0.219886 0
M  V30 33972 C 3152.24 1.87568 1.29975 0
M  V30 33973 C 3153.22 0.733228 1.45129 0
M  V30 33974 O 3154.4 0.981757 1.60915 0
M  V30 33975 C 3151.53 2.08416 2.66984 0
M  V30 33976 C 3150.58 3.31104 2.68836 0
M  V30 33977 S 3151.41 4.86979 2.22737 0
M  V30 33978 C 3152.57 5.10865 3.61618 0
M  V30 33979 H 3152.8 2.78868 1.03054 0
M  V30 33980 H 3150.33 1.48515 0.422207 0
M  V30 33981 H 3152.29 2.2111 3.45862 0
M  V30 33982 H 3150.95 1.1791 2.91129 0
M  V30 33983 H 3150.14 3.42741 3.6952 0
M  V30 33984 H 3149.75 3.17274 1.98023 0
M  V30 33985 H 3152.04 4.99865 4.57319 0
M  V30 33986 H 3152.98 6.12744 3.54896 0
M  V30 33987 H 3153.39 4.38592 3.55383 0
M  V30 33988 N 3152.79 -0.486655 1.49898 0
M  V30 33989 C 3153.7 -1.61267 1.70382 0
M  V30 33990 C 3154.71 -1.63813 0.586619 0
M  V30 33991 O 3155.89 -1.8197 0.863076 0
M  V30 33992 C 3152.95 -2.97568 1.77916 0
M  V30 33993 C 3152.02 -3.05535 3.01574 0
M  V30 33994 C 3151.25 -4.35334 3.08739 0
M  V30 33995 O 3151.47 -5.24956 2.23109 0
M  V30 33996 O 3150.41 -4.48571 4.01333 0
M  V30 33997 H 3154.23 -1.46912 2.65802 0
M  V30 33998 H 3151.82 -0.664492 1.33809 0
M  V30 33999 H 3153.7 -3.7855 1.85142 0
M  V30 34000 H 3152.37 -3.12155 0.856777 0
M  V30 34001 H 3151.28 -2.23687 2.99858 0
M  V30 34002 H 3152.61 -2.95879 3.9334 0
M  V30 34003 N 3154.27 -1.39214 -0.738737 0
M  V30 34004 C 3155.2 -1.33533 -1.86283 0
M  V30 34005 C 3156.21 -0.244784 -1.60949 0
M  V30 34006 O 3157.4 -0.50346 -1.71253 0
M  V30 34007 C 3154.5 -1.04975 -3.22232 0
M  V30 34008 C 3153.67 -2.25232 -3.74952 0
M  V30 34009 C 3152.73 -1.93188 -4.89453 0
M  V30 34010 O 3151.76 -2.65834 -5.0331 0
M  V30 34011 N 3152.96 -0.89578 -5.73547 0
M  V30 34012 H 3155.72 -2.30403 -1.91662 0
M  V30 34013 H 3153.29 -1.33267 -0.919314 0
M  V30 34014 H 3155.28 -0.815636 -3.96396 0
M  V30 34015 H 3153.85 -0.168506 -3.12146 0
M  V30 34016 H 3153.07 -2.64618 -2.92183 0
M  V30 34017 H 3154.36 -3.05455 -4.06909 0
M  V30 34018 H 3153.75 -0.293641 -5.64937 0
M  V30 34019 H 3152.31 -0.721565 -6.47794 0
M  V30 34020 N 3155.74 0.968523 -1.24328 0
M  V30 34021 C 3156.99 1.70571 -1.0765 0
M  V30 34022 C 3157.31 1.91778 0.384787 0
M  V30 34023 O 3158.51 2.63059 0.671736 0
M  V30 34024 C 3156.97 3.07014 -1.87804 0
M  V30 34025 C 3156.58 2.93652 -3.38338 0
M  V30 34026 C 3158.32 3.8461 -1.79653 0
M  V30 34027 C 3156.23 4.254 -4.10839 0
M  V30 34028 H 3155.16 0.639635 -0.399228 0
M  V30 34029 H 3157.81 1.07931 -1.48402 0
M  V30 34030 H 3156.19 3.70477 -1.39866 0
M  V30 34031 H 3157.36 2.39206 -3.93849 0
M  V30 34032 H 3155.68 2.29522 -3.47431 0
M  V30 34033 H 3158.28 4.82168 -2.31124 0
M  V30 34034 H 3158.62 4.09274 -0.761625 0
M  V30 34035 H 3159.15 3.27872 -2.25267 0
M  V30 34036 H 3155.89 4.0593 -5.14686 0
M  V30 34037 H 3155.41 4.79665 -3.60113 0
M  V30 34038 H 3157.09 4.94024 -4.17791 0
M  V30 34039 N 3157.22 1.0569 1.16908 0
M  V30 34040 C 3158.47 0.771104 1.87568 0
M  V30 34041 C 3158.8 -0.700367 1.81131 0
M  V30 34042 O 3158.08 -1.51257 1.22276 0
M  V30 34043 C 3158.36 1.25857 3.3739 0
M  V30 34044 C 3158.21 2.79335 3.52551 0
M  V30 34045 C 3159.53 0.861588 4.31584 0
M  V30 34046 H 3156.65 0.281591 0.681084 0
M  V30 34047 H 3159.29 1.31176 1.37451 0
M  V30 34048 H 3157.44 0.798629 3.80203 0
M  V30 34049 H 3159.11 3.33491 3.18719 0
M  V30 34050 H 3157.36 3.18365 2.94663 0
M  V30 34051 H 3158.03 3.08506 4.57742 0
M  V30 34052 H 3160.5 1.25763 3.9664 0
M  V30 34053 H 3159.38 1.23021 5.34936 0
M  V30 34054 H 3159.64 -0.234011 4.4148 0
M  V30 34055 N 3158.7 -1.33435 0.838617 0
M  V30 34056 C 3159.95 -1.9779 0.434204 0
M  V30 34057 C 3160.27 -1.66433 -1.00649 0
M  V30 34058 O 3159.53 -0.936339 -1.71846 0
M  V30 34059 C 3159.83 -3.52302 0.601487 0
M  V30 34060 C 3159.49 -4.03609 2.01024 0
M  V30 34061 C 3158.16 -4.17331 2.39558 0
M  V30 34062 C 3160.51 -4.31017 2.93043 0
M  V30 34063 C 3157.84 -4.55796 3.69414 0
M  V30 34064 C 3160.19 -4.70933 4.2238 0
M  V30 34065 C 3158.85 -4.82861 4.6087 0
M  V30 34066 H 3158.12 -0.723765 0.158887 0
M  V30 34067 H 3160.77 -1.59115 1.06559 0
M  V30 34068 H 3159.07 -3.91636 -0.113215 0
M  V30 34069 H 3160.77 -4.00098 0.268868 0
M  V30 34070 H 3157.36 -3.93402 1.70097 0
M  V30 34071 H 3161.55 -4.19938 2.6451 0
M  V30 34072 H 3156.8 -4.63224 3.99041 0
M  V30 34073 H 3160.98 -4.91097 4.93758 0
M  V30 34074 H 3158.6 -5.12423 5.61539 0
M  V30 34075 N 3160.18 -0.595029 -1.45935 0
M  V30 34076 C 3161.59 -0.171812 -1.85908 0
M  V30 34077 C 3161.94 1.26822 -1.49702 0
M  V30 34078 O 3161.06 1.95977 -0.917722 0
M  V30 34079 C 3161.66 -0.305035 -3.37424 0
M  V30 34080 C 3160.22 0.0633973 -3.76347 0
M  V30 34081 C 3159.37 -0.635303 -2.69924 0
M  V30 34082 H 3162.32 -0.802495 -1.36915 0
M  V30 34083 H 3162.34 0.466246 -3.77633 0
M  V30 34084 H 3161.85 -1.3532 -3.63744 0
M  V30 34085 H 3159.95 1.11123 -3.55644 0
M  V30 34086 H 3160.06 -0.321503 -4.7802 0
M  V30 34087 H 3158.43 -0.0742502 -2.54592 0
M  V30 34088 H 3159.21 -1.68536 -2.99083 0
M  V30 34089 N 3161.66 1.54031 -0.333483 0
M  V30 34090 C 3162.9 2.01041 0.266492 0
M  V30 34091 C 3163.23 1.22113 1.51004 0
M  V30 34092 O 3162.51 0.30605 1.92077 0
M  V30 34093 C 3162.79 3.55222 0.590718 0
M  V30 34094 C 3162.65 4.44869 -0.664222 0
M  V30 34095 C 3163.96 4.17091 1.40439 0
M  V30 34096 H 3161.08 0.730801 0.0953851 0
M  V30 34097 H 3163.73 1.84545 -0.452027 0
M  V30 34098 H 3161.88 3.6941 1.20285 0
M  V30 34099 H 3163.55 4.42534 -1.30235 0
M  V30 34100 H 3161.79 4.1414 -1.29113 0
M  V30 34101 H 3162.46 5.50601 -0.392761 0
M  V30 34102 H 3164.94 4.06539 0.886875 0
M  V30 34103 H 3163.81 5.25063 1.60001 0
M  V30 34104 H 3164.07 3.71058 2.40351 0
M  V30 34105 N 3163.13 0.0618717 1.57479 0
M  V30 34106 C 3164.54 -0.472263 1.80628 0
M  V30 34107 C 3164.9 -1.7026 0.97499 0
M  V30 34108 O 3164.02 -2.15523 0.194638 0
M  V30 34109 C 3164.62 -0.863558 3.2761 0
M  V30 34110 C 3163.17 -1.34261 3.5164 0
M  V30 34111 C 3162.32 -0.322961 2.75413 0
M  V30 34112 H 3165.27 0.287662 1.56071 0
M  V30 34113 H 3165.29 -1.72571 3.39116 0
M  V30 34114 H 3164.81 0.0320908 3.88087 0
M  V30 34115 H 3162.91 -2.25709 2.96456 0
M  V30 34116 H 3163.02 -1.32739 4.60345 0
M  V30 34117 H 3161.38 -0.798133 2.41872 0
M  V30 34118 H 3162.17 0.564788 3.38622 0
M  V30 34119 N 3164.61 -1.56173 -0.211607 0
M  V30 34120 C 3165.86 -1.79292 -0.932673 0
M  V30 34121 C 3166.18 -0.632108 -1.84471 0
M  V30 34122 O 3165.45 0.350485 -1.92739 0
M  V30 34123 H 3164.03 -0.661313 -0.347382 0
M  V30 34124 H 3166.69 -1.93642 -0.221076 0
M  V30 34125 H 3165.79 -2.71822 -1.5336 0
M  V30 34126 N 3166.09 0.478699 -1.50154 0
M  V30 34127 C 3167.34 1.22806 -1.60005 0
M  V30 34128 C 3167.65 1.9325 -0.302311 0
M  V30 34129 O 3168.86 2.70056 -0.279631 0
M  V30 34130 C 3167.31 2.23103 -2.82406 0
M  V30 34131 C 3166.92 1.58497 -4.19026 0
M  V30 34132 C 3168.67 2.98729 -3.01598 0
M  V30 34133 C 3166.57 2.57035 -5.32622 0
M  V30 34134 H 3165.5 0.462063 -0.59583 0
M  V30 34135 H 3168.15 0.499381 -1.76574 0
M  V30 34136 H 3166.54 2.9923 -2.59379 0
M  V30 34137 H 3167.71 0.882108 -4.52278 0
M  V30 34138 H 3166.03 0.951806 -4.05376 0
M  V30 34139 H 3168.62 3.72461 -3.83637 0
M  V30 34140 H 3168.97 3.57667 -2.13026 0
M  V30 34141 H 3169.5 2.29715 -3.2477 0
M  V30 34142 H 3166.24 2.02847 -6.23324 0
M  V30 34143 H 3165.76 3.25496 -5.03798 0
M  V30 34144 H 3167.44 3.19018 -5.62882 0
M  V30 34145 N 3167.57 1.39603 0.731343 0
M  V30 34146 C 3168.81 1.38462 1.50358 0
M  V30 34147 C 3169.17 -0.0187502 1.91991 0
M  V30 34148 O 3170.37 -0.155188 2.68352 0
M  V30 34149 C 3168.64 2.333 2.70751 0
M  V30 34150 S 3170.2 2.50378 3.60355 0
M  V30 34151 H 3167.02 0.490973 0.514263 0
M  V30 34152 H 3169.62 1.75733 0.856623 0
M  V30 34153 H 3168.33 3.3412 2.38311 0
M  V30 34154 H 3167.86 1.97257 3.40372 0
M  V30 34155 H 3169.87 1.74443 4.64526 0
M  V30 34156 N 3169.05 -0.961916 1.2484 0
M  V30 34157 C 3169.98 -2.06053 1.00373 0
M  V30 34158 C 3170.99 -1.62774 -0.0288297 0
M  V30 34159 O 3172.18 -1.77274 0.208884 0
M  V30 34160 C 3169.28 -3.3528 0.494012 0
M  V30 34161 C 3168.45 -4.07437 1.59104 0
M  V30 34162 C 3167.51 -5.14935 1.08297 0
M  V30 34163 O 3166.54 -5.40788 1.77587 0
M  V30 34164 N 3167.74 -5.80445 -0.0795816 0
M  V30 34165 H 3170.51 -2.27615 1.94966 0
M  V30 34166 H 3168.07 -1.12995 1.15947 0
M  V30 34167 H 3170.06 -4.04462 0.138746 0
M  V30 34168 H 3168.63 -3.10546 -0.357796 0
M  V30 34169 H 3167.85 -3.32453 2.11823 0
M  V30 34170 H 3169.14 -4.52405 2.32825 0
M  V30 34171 H 3168.53 -5.61852 -0.658728 0
M  V30 34172 H 3167.09 -6.50715 -0.375942 0
M  V30 34173 N 3170.52 -1.06308 -1.16346 0
M  V30 34174 C 3171.77 -0.779885 -1.8688 0
M  V30 34175 C 3172.1 0.693636 -1.81711 0
M  V30 34176 O 3171.35 1.52399 -1.22772 0
M  V30 34177 C 3171.65 -1.21996 -3.35934 0
M  V30 34178 C 3171.32 -2.69762 -3.61302 0
M  V30 34179 C 3169.98 -3.10125 -3.67935 0
M  V30 34180 C 3172.33 -3.65193 -3.71865 0
M  V30 34181 C 3169.66 -4.44759 -3.82631 0
M  V30 34182 C 3172.01 -4.99575 -3.88082 0
M  V30 34183 C 3170.68 -5.39575 -3.92957 0
M  V30 34184 H 3169.95 -0.28538 -0.683842 0
M  V30 34185 H 3172.59 -1.3322 -1.37567 0
M  V30 34186 H 3170.9 -0.586842 -3.8738 0
M  V30 34187 H 3172.6 -0.977889 -3.88894 0
M  V30 34188 H 3169.19 -2.37511 -3.56773 0
M  V30 34189 H 3173.37 -3.35142 -3.66051 0
M  V30 34190 H 3168.63 -4.75235 -3.84658 0
M  V30 34191 H 3172.8 -5.73404 -3.95197 0
M  V30 34192 H 3170.43 -6.43902 -4.04097 0
M  V30 34193 N 3172 1.32989 -0.845682 0
M  V30 34194 C 3172.93 2.31578 -0.298998 0
M  V30 34195 C 3173.91 1.5928 0.596984 0
M  V30 34196 O 3175.1 1.87133 0.51911 0
M  V30 34197 C 3172.23 3.43369 0.521048 0
M  V30 34198 C 3171.18 4.27085 -0.279726 0
M  V30 34199 C 3170.51 5.30555 0.664497 0
M  V30 34200 C 3171.81 5.00281 -1.50055 0
M  V30 34201 H 3173.5 2.77551 -1.12277 0
M  V30 34202 H 3171.05 1.33437 -0.541343 0
M  V30 34203 H 3173 4.11372 0.913849 0
M  V30 34204 H 3171.73 2.96102 1.37809 0
M  V30 34205 H 3170.38 3.60716 -0.654169 0
M  V30 34206 H 3170.03 4.79543 1.51813 0
M  V30 34207 H 3169.73 5.8745 0.132768 0
M  V30 34208 H 3171.26 6.01423 1.05467 0
M  V30 34209 H 3172.67 5.61014 -1.18054 0
M  V30 34210 H 3171.07 5.66858 -1.96956 0
M  V30 34211 H 3172.14 4.28661 -2.26666 0
M  V30 34212 N 3173.48 0.60276 1.45618 0
M  V30 34213 C 3174.71 0.10229 2.06647 0
M  V30 34214 C 3175.12 -1.21128 1.44822 0
M  V30 34215 O 3174.48 -1.73675 0.560651 0
M  V30 34216 C 3174.53 -0.0489478 3.61467 0
M  V30 34217 O 3174.25 1.21265 4.20983 0
M  V30 34218 C 3175.75 -0.581439 4.3947 0
M  V30 34219 H 3172.97 0.0666273 0.667684 0
M  V30 34220 H 3175.52 0.829123 1.86938 0
M  V30 34221 H 3173.67 -0.726087 3.80535 0
M  V30 34222 H 3174.09 1.03924 5.14101 0
M  V30 34223 H 3175.56 -0.636366 5.4832 0
M  V30 34224 H 3176.04 -1.6027 4.08913 0
M  V30 34225 H 3176.64 0.0614937 4.25256 0
M  V30 34226 N 3174.96 -1.53852 0.341647 0
M  V30 34227 C 3175.87 -2.28661 -0.524515 0
M  V30 34228 C 3176.88 -1.33699 -1.11358 0
M  V30 34229 O 3178.06 -1.66734 -1.12967 0
M  V30 34230 C 3175.13 -3.04344 -1.6606 0
M  V30 34231 C 3174.19 -4.14928 -1.10151 0
M  V30 34232 C 3173.42 -4.86992 -2.18345 0
M  V30 34233 O 3173.64 -4.5871 -3.3903 0
M  V30 34234 O 3172.58 -5.73487 -1.82746 0
M  V30 34235 H 3176.4 -3.03585 0.0835547 0
M  V30 34236 H 3173.99 -1.49018 0.106753 0
M  V30 34237 H 3175.87 -3.51679 -2.32164 0
M  V30 34238 H 3174.54 -2.32279 -2.25451 0
M  V30 34239 H 3173.45 -3.71901 -0.405044 0
M  V30 34240 H 3174.78 -4.89089 -0.552481 0
M  V30 34241 N 3176.44 -0.0702223 -1.57443 0
M  V30 34242 C 3177.35 0.912339 -2.16133 0
M  V30 34243 C 3178.36 1.32817 -1.12409 0
M  V30 34244 O 3179.54 1.40119 -1.44667 0
M  V30 34245 C 3176.6 2.16226 -2.71011 0
M  V30 34246 C 3175.66 1.80299 -3.89603 0
M  V30 34247 C 3174.9 2.99333 -4.41855 0
M  V30 34248 O 3175.12 4.13302 -3.93113 0
M  V30 34249 O 3174.05 2.7924 -5.33206 0
M  V30 34250 H 3177.88 0.443114 -3.0045 0
M  V30 34251 H 3175.47 0.15276 -1.48617 0
M  V30 34252 H 3177.35 2.89525 -3.06192 0
M  V30 34253 H 3176.02 2.62249 -1.89755 0
M  V30 34254 H 3174.93 1.04257 -3.59279 0
M  V30 34255 H 3176.26 1.3906 -4.72147 0
M  V30 34256 N 3177.91 1.56283 0.203321 0
M  V30 34257 C 3179.14 1.84243 0.941394 0
M  V30 34258 C 3179.56 0.651689 1.77196 0
M  V30 34259 O 3178.91 -0.379681 1.78507 0
M  V30 34260 C 3178.97 3.10919 1.84423 0
M  V30 34261 O 3178.69 4.254 1.04721 0
M  V30 34262 C 3180.19 3.51997 2.69467 0
M  V30 34263 H 3177.41 0.612032 0.27506 0
M  V30 34264 H 3179.95 2.03387 0.213053 0
M  V30 34265 H 3178.11 2.93696 2.5263 0
M  V30 34266 H 3178.52 4.97481 1.6617 0
M  V30 34267 H 3179.99 4.43622 3.28487 0
M  V30 34268 H 3180.47 2.74601 3.4277 0
M  V30 34269 H 3181.08 3.71723 2.06645 0
M  V30 34270 N 3179.39 -0.470729 1.50406 0
M  V30 34271 C 3180.34 -1.56868 1.69296 0
M  V30 34272 C 3181.31 -1.57273 0.534276 0
M  V30 34273 O 3182.5 -1.74797 0.764886 0
M  V30 34274 C 3179.64 -2.94839 1.79343 0
M  V30 34275 C 3178.75 -3.0422 3.06715 0
M  V30 34276 C 3177.88 -4.33108 3.07556 0
M  V30 34277 C 3176.92 -4.36233 4.2938 0
M  V30 34278 N 3176.06 -5.56593 4.27958 0
M  V30 34279 H 3180.9 -1.40066 2.63031 0
M  V30 34280 H 3178.44 -0.680993 1.30387 0
M  V30 34281 H 3180.39 -3.7485 1.83149 0
M  V30 34282 H 3179.02 -3.10275 0.890466 0
M  V30 34283 H 3178.08 -2.17081 3.12378 0
M  V30 34284 H 3179.39 -3.02389 3.96689 0
M  V30 34285 H 3178.54 -5.21466 3.10093 0
M  V30 34286 H 3177.28 -4.37549 2.15412 0
M  V30 34287 H 3176.29 -3.46272 4.27054 0
M  V30 34288 H 3177.51 -4.33484 5.22751 0
M  V30 34289 H 3175.46 -5.61818 3.38668 0
M  V30 34290 H 3175.37 -5.56504 5.11702 0
M  V30 34291 H 3176.64 -6.47075 4.34642 0
M  V30 34292 N 3180.87 -1.39989 -0.72393 0
M  V30 34293 C 3181.82 -1.36076 -1.82941 0
M  V30 34294 C 3182.81 -0.23971 -1.59104 0
M  V30 34295 O 3184 -0.478146 -1.70419 0
M  V30 34296 C 3181.13 -1.21751 -3.20985 0
M  V30 34297 C 3180.21 -2.38602 -3.50613 0
M  V30 34298 N 3180.6 -3.64083 -3.51109 0
M  V30 34299 C 3178.9 -2.31801 -3.81031 0
M  V30 34300 C 3179.6 -4.4142 -3.78845 0
M  V30 34301 N 3178.58 -3.7115 -3.97176 0
M  V30 34302 H 3182.38 -2.31046 -1.81645 0
M  V30 34303 H 3179.89 -1.33643 -0.92268 0
M  V30 34304 H 3181.89 -1.17029 -4.00137 0
M  V30 34305 H 3180.55 -0.277401 -3.23513 0
M  V30 34306 H 3181.56 -3.97357 -3.32156 0
M  V30 34307 H 3178.24 -1.46112 -3.91098 0
M  V30 34308 H 3179.63 -5.50236 -3.85603 0
M  V30 34309 N 3182.35 0.955282 -1.25348 0
M  V30 34310 C 3183.77 1.22623 -1.02156 0
M  V30 34311 C 3183.97 1.99789 0.262025 0
M  V30 34312 O 3183.02 2.3292 0.974917 0
M  V30 34313 C 3184.33 2.00125 -2.24434 0
M  V30 34314 C 3185.88 2.1317 -2.29189 0
M  V30 34315 C 3186.36 2.94071 -3.51122 0
M  V30 34316 N 3187.85 3.01649 -3.51514 0
M  V30 34317 C 3188.58 3.64638 -4.42523 0
M  V30 34318 N 3188.08 4.29242 -5.43804 0
M  V30 34319 N 3189.87 3.61772 -4.30206 0
M  V30 34320 H 3182.02 0.439034 -2.07813 0
M  V30 34321 H 3184.29 0.256699 -0.912584 0
M  V30 34322 H 3183.99 1.50821 -3.1772 0
M  V30 34323 H 3183.87 3.00831 -2.27553 0
M  V30 34324 H 3186.25 2.61671 -1.36426 0
M  V30 34325 H 3186.33 1.11771 -2.30089 0
M  V30 34326 H 3185.98 2.4626 -4.44205 0
M  V30 34327 H 3185.91 3.95695 -3.47467 0
M  V30 34328 H 3188.4 2.55706 -2.7825 0
M  V30 34329 H 3188.71 4.7516 -6.09461 0
M  V30 34330 H 3187.06 4.27872 -5.47677 0
M  V30 34331 H 3190.25 3.10485 -3.5031 0
M  V30 34332 H 3190.42 4.10575 -5.0133 0
M  V30 34333 N 3183.83 1.06924 1.1578 0
M  V30 34334 C 3184.76 0.707084 2.22537 0
M  V30 34335 C 3185.74 -0.303441 1.67372 0
M  V30 34336 O 3186.92 -0.177155 1.9339 0
M  V30 34337 C 3184.05 0.0994879 3.47157 0
M  V30 34338 C 3183.01 1.03669 4.15255 0
M  V30 34339 C 3182.33 0.292068 5.33902 0
M  V30 34340 C 3183.63 2.36845 4.65512 0
M  V30 34341 H 3185.33 1.59962 2.53086 0
M  V30 34342 H 3182.87 0.770573 1.21648 0
M  V30 34343 H 3184.83 -0.165778 4.21074 0
M  V30 34344 H 3183.55 -0.828099 3.15927 0
M  V30 34345 H 3182.21 1.2868 3.43274 0
M  V30 34346 H 3181.86 -0.63884 4.98927 0
M  V30 34347 H 3181.56 0.916716 5.80405 0
M  V30 34348 H 3183.08 0.0344988 6.1059 0
M  V30 34349 H 3184.5 2.16184 5.30978 0
M  V30 34350 H 3182.89 2.94865 5.22661 0
M  V30 34351 H 3183.96 2.9946 3.81381 0
M  V30 34352 N 3185.31 -1.32538 0.852723 0
M  V30 34353 C 3186.55 -1.97318 0.455158 0
M  V30 34354 C 3186.88 -1.67491 -0.988784 0
M  V30 34355 O 3186.14 -0.954513 -1.70844 0
M  V30 34356 C 3186.43 -3.51645 0.638819 0
M  V30 34357 C 3186.1 -4.01454 2.05294 0
M  V30 34358 C 3184.76 -4.14767 2.43971 0
M  V30 34359 C 3187.11 -4.27884 2.97598 0
M  V30 34360 C 3184.44 -4.51852 3.74228 0
M  V30 34361 C 3186.79 -4.66427 4.27351 0
M  V30 34362 C 3185.46 -4.77946 4.65965 0
M  V30 34363 H 3184.73 -0.722039 0.166554 0
M  V30 34364 H 3187.38 -1.57975 1.08241 0
M  V30 34365 H 3185.68 -3.91734 -0.0716705 0
M  V30 34366 H 3187.38 -3.9979 0.311289 0
M  V30 34367 H 3183.97 -3.91576 1.7426 0
M  V30 34368 H 3188.15 -4.17109 2.68949 0
M  V30 34369 H 3183.41 -4.58965 4.03932 0
M  V30 34370 H 3187.58 -4.85832 4.98939 0
M  V30 34371 H 3185.21 -5.06439 5.66943 0
M  V30 34372 N 3186.78 -0.610474 -1.45296 0
M  V30 34373 C 3188.01 -0.113247 -2.0659 0
M  V30 34374 C 3188.43 1.20358 -1.45462 0
M  V30 34375 O 3187.78 1.73375 -0.569854 0
M  V30 34376 C 3187.83 0.0297776 -3.61488 0
M  V30 34377 O 3187.56 -1.23496 -4.20334 0
M  V30 34378 C 3189.06 0.558125 -4.39773 0
M  V30 34379 H 3186.28 -0.0701672 -0.667321 0
M  V30 34380 H 3188.82 -0.839026 -1.86496 0
M  V30 34381 H 3186.98 0.705896 -3.80915 0
M  V30 34382 H 3187.39 -1.06649 -5.13543 0
M  V30 34383 H 3188.86 0.607278 -5.48649 0
M  V30 34384 H 3189.34 1.58099 -4.09757 0
M  V30 34385 H 3189.95 -0.0840452 -4.25217 0
M  V30 34386 N 3188.26 1.53669 -0.349801 0
M  V30 34387 C 3189.49 2.05432 0.246002 0
M  V30 34388 C 3189.9 1.22437 1.43717 0
M  V30 34389 O 3189.26 0.261198 1.80621 0
M  V30 34390 C 3189.31 3.55517 0.654947 0
M  V30 34391 O 3189.03 4.35364 -0.488859 0
M  V30 34392 C 3190.53 4.23477 1.31081 0
M  V30 34393 H 3187.75 0.669395 0.0463834 0
M  V30 34394 H 3190.3 1.98202 -0.503601 0
M  V30 34395 H 3188.45 3.6295 1.35448 0
M  V30 34396 H 3188.87 5.24251 -0.16162 0
M  V30 34397 H 3190.34 5.2986 1.54765 0
M  V30 34398 H 3190.82 3.76212 2.2663 0
M  V30 34399 H 3191.42 4.20255 0.653137 0
M  V30 34400 N 3189.74 0.0785709 1.57404 0
M  V30 34401 C 3190.97 -0.597827 1.98075 0
M  V30 34402 C 3191.38 -1.62738 0.957169 0
M  V30 34403 O 3190.74 -1.82416 -0.0553407 0
M  V30 34404 C 3190.79 -1.26035 3.38818 0
M  V30 34405 O 3190.51 -0.271993 4.37255 0
M  V30 34406 C 3192.01 -2.02393 3.94401 0
M  V30 34407 H 3189.23 -0.161534 0.651266 0
M  V30 34408 H 3191.78 0.152977 2.03927 0
M  V30 34409 H 3189.93 -1.96219 3.34031 0
M  V30 34410 H 3190.35 -0.748129 5.19137 0
M  V30 34411 H 3191.82 -2.44131 4.9508 0
M  V30 34412 H 3192.3 -2.8832 3.31313 0
M  V30 34413 H 3192.9 -1.37061 4.0261 0
M  V30 34414 N 3191.22 -1.56389 -0.19503 0
M  V30 34415 C 3192.13 -1.97754 -1.26216 0
M  V30 34416 C 3193.14 -0.885219 -1.49799 0
M  V30 34417 O 3194.32 -1.19097 -1.62412 0
M  V30 34418 C 3191.38 -2.30875 -2.58646 0
M  V30 34419 C 3190.45 -3.53814 -2.43133 0
M  V30 34420 C 3189.68 -3.85346 -3.69248 0
M  V30 34421 O 3189.9 -3.18167 -4.73419 0
M  V30 34422 O 3188.84 -4.78773 -3.64773 0
M  V30 34423 H 3192.66 -2.8875 -0.94111 0
M  V30 34424 H 3190.25 -1.43945 -0.400035 0
M  V30 34425 H 3192.13 -2.53253 -3.3681 0
M  V30 34426 H 3190.8 -1.43047 -2.90378 0
M  V30 34427 H 3189.71 -3.36683 -1.6308 0
M  V30 34428 H 3191.04 -4.42109 -2.16334 0
M  V30 34429 N 3192.7 0.462746 -1.50653 0
M  V30 34430 C 3193.63 1.57737 -1.66288 0
M  V30 34431 C 3194.64 1.53438 -0.544121 0
M  V30 34432 O 3195.83 1.58675 -0.817594 0
M  V30 34433 C 3192.93 2.96632 -1.63898 0
M  V30 34434 C 3192.1 3.2571 -2.91944 0
M  V30 34435 C 3191.16 4.44201 -2.82084 0
M  V30 34436 O 3190.19 4.44099 -3.5604 0
M  V30 34437 N 3191.39 5.46337 -1.96205 0
M  V30 34438 H 3194.15 1.44738 -2.62433 0
M  V30 34439 H 3191.72 0.6513 -1.48222 0
M  V30 34440 H 3193.71 3.73881 -1.54904 0
M  V30 34441 H 3192.28 3.03357 -0.754544 0
M  V30 34442 H 3191.5 2.36996 -3.15002 0
M  V30 34443 H 3192.79 3.41953 -3.76756 0
M  V30 34444 H 3192.18 5.49245 -1.35449 0
M  V30 34445 H 3190.74 6.22537 -1.93108 0
M  V30 34446 N 3194.17 1.40371 0.716495 0
M  V30 34447 C 3195.45 1.29099 1.46945 0
M  V30 34448 C 3195.83 -0.0910811 2.10903 0
M  V30 34449 O 3195.18 -1.10382 2.0007 0
M  V30 34450 C 3195.39 2.42911 2.5059 0
M  V30 34451 C 3196.74 2.83102 3.16446 0
M  V30 34452 O 3197.76 2.42497 2.60909 0
M  V30 34453 O 3196.62 3.53251 4.16984 0
M  V30 34454 H 3193.71 0.506944 0.653404 0
M  V30 34455 H 3196.26 1.52289 0.748747 0
M  V30 34456 H 3195.03 3.35227 2.01837 0
M  V30 34457 H 3194.66 2.21487 3.30196 0
M  V30 34458 N 3195.65 -0.948621 1.25853 0
M  V30 34459 C 3196.56 -2.07992 1.0852 0
M  V30 34460 C 3197.58 -1.73988 0.0207002 0
M  V30 34461 O 3198.75 -2.00163 0.222889 0
M  V30 34462 C 3195.82 -3.39306 0.712205 0
M  V30 34463 C 3194.88 -3.8714 1.8553 0
M  V30 34464 C 3194.11 -5.12187 1.50001 0
M  V30 34465 O 3194.34 -5.69007 0.398368 0
M  V30 34466 O 3193.27 -5.54878 2.33224 0
M  V30 34467 H 3197.1 -2.25519 2.03409 0
M  V30 34468 H 3194.68 -1.06431 1.04846 0
M  V30 34469 H 3196.56 -4.18222 0.516585 0
M  V30 34470 H 3195.24 -3.23035 -0.207359 0
M  V30 34471 H 3194.15 -3.09202 2.10583 0
M  V30 34472 H 3195.48 -4.07919 2.75433 0
M  V30 34473 N 3197.13 -1.07536 -1.15212 0
M  V30 34474 C 3198.06 -0.6553 -2.19633 0
M  V30 34475 C 3199.08 0.293137 -1.60139 0
M  V30 34476 O 3200.26 0.0821643 -1.78311 0
M  V30 34477 C 3197.36 0.0577685 -3.38851 0
M  V30 34478 C 3196.54 -0.907325 -4.27886 0
M  V30 34479 C 3195.6 -0.231208 -5.25692 0
M  V30 34480 O 3194.62 -0.872845 -5.62468 0
M  V30 34481 N 3195.82 1.0224 -5.71426 0
M  V30 34482 H 3198.59 -1.55358 -2.56289 0
M  V30 34483 H 3196.15 -0.960294 -1.30346 0
M  V30 34484 H 3198.14 0.520804 -4.01335 0
M  V30 34485 H 3196.71 0.858018 -3.00594 0
M  V30 34486 H 3195.93 -1.54943 -3.62473 0
M  V30 34487 H 3197.22 -1.5616 -4.84243 0
M  V30 34488 H 3196.62 1.5636 -5.43662 0
M  V30 34489 H 3195.18 1.42908 -6.35941 0
M  V30 34490 N 3198.61 1.32084 -0.85974 0
M  V30 34491 C 3199.86 1.96685 -0.464696 0
M  V30 34492 C 3200.18 1.68347 0.984091 0
M  V30 34493 O 3199.45 0.993391 1.68845 0
M  V30 34494 H 3198.03 0.727666 -0.168851 0
M  V30 34495 H 3200.69 1.61077 -1.09728 0
M  V30 34496 H 3199.79 3.06002 -0.613958 0
M  V30 34497 N 3200.09 0.618171 1.4497 0
M  V30 34498 C 3201.31 0.122432 2.07038 0
M  V30 34499 C 3201.74 -1.1885 1.45795 0
M  V30 34500 O 3201.09 -1.7261 0.55456 0
M  V30 34501 C 3201.14 0.00744978 3.60599 0
M  V30 34502 O 3200.25 -1.04 3.99071 0
M  V30 34503 H 3199.59 0.0788731 0.659299 0
M  V30 34504 H 3202.12 0.85118 1.86054 0
M  V30 34505 H 3202.13 -0.187345 4.0757 0
M  V30 34506 H 3200.8 0.964616 4.04559 0
M  V30 34507 H 3199.38 -0.820815 3.63754 0
M  V30 34508 N 3201.56 -1.53481 0.357946 0
M  V30 34509 C 3202.51 -2.25492 -0.49213 0
M  V30 34510 C 3203.48 -1.25869 -1.0838 0
M  V30 34511 O 3204.67 -1.54634 -1.11772 0
M  V30 34512 C 3201.81 -3.04188 -1.62984 0
M  V30 34513 C 3200.92 -4.1869 -1.06409 0
M  V30 34514 C 3200.05 -4.84843 -2.17028 0
M  V30 34515 C 3199.09 -5.91389 -1.57878 0
M  V30 34516 N 3198.23 -6.51263 -2.62299 0
M  V30 34517 H 3203.07 -2.97723 0.128465 0
M  V30 34518 H 3200.61 -1.46908 0.0751681 0
M  V30 34519 H 3202.57 -3.48083 -2.29987 0
M  V30 34520 H 3201.2 -2.34226 -2.22121 0
M  V30 34521 H 3200.25 -3.79334 -0.284569 0
M  V30 34522 H 3201.56 -4.9528 -0.591566 0
M  V30 34523 H 3200.71 -5.31882 -2.91867 0
M  V30 34524 H 3199.45 -4.07708 -2.67629 0
M  V30 34525 H 3198.46 -5.43718 -0.815509 0
M  V30 34526 H 3199.68 -6.70439 -1.08111 0
M  V30 34527 H 3197.63 -5.76986 -3.12127 0
M  V30 34528 H 3197.55 -7.23369 -2.19711 0
M  V30 34529 H 3198.81 -7.02954 -3.36862 0
M  V30 34530 N 3203.04 -0.0869173 -1.5736 0
M  V30 34531 C 3204.29 0.579564 -1.94342 0
M  V30 34532 C 3204.62 1.6834 -0.968268 0
M  V30 34533 O 3203.9 1.945 4.87768e-05 0
M  V30 34534 C 3204.18 1.14239 -3.41499 0
M  V30 34535 C 3204.03 0.044176 -4.49778 0
M  V30 34536 C 3205.35 2.0433 -3.89792 0
M  V30 34537 H 3202.47 0.209208 -0.706683 0
M  V30 34538 H 3205.11 -0.155964 -1.89359 0
M  V30 34539 H 3203.26 1.76923 -3.45876 0
M  V30 34540 H 3204.93 -0.58967 -4.57516 0
M  V30 34541 H 3203.18 -0.623282 -4.29299 0
M  V30 34542 H 3203.85 0.478652 -5.49921 0
M  V30 34543 H 3206.32 1.51562 -3.87515 0
M  V30 34544 H 3205.2 2.4064 -4.93339 0
M  V30 34545 H 3205.46 2.95751 -3.28608 0
M  V30 34546 N 3204.52 1.5649 0.186734 0
M  V30 34547 C 3205.75 1.85586 0.925884 0
M  V30 34548 C 3206.17 0.671477 1.75707 0
M  V30 34549 O 3205.53 -0.379655 1.7728 0
M  V30 34550 C 3205.58 3.12978 1.79101 0
M  V30 34551 O 3204.68 2.94117 2.89082 0
M  V30 34552 H 3204.02 0.610867 0.260264 0
M  V30 34553 H 3206.55 2.0372 0.189525 0
M  V30 34554 H 3206.56 3.43987 2.19402 0
M  V30 34555 H 3205.24 3.98798 1.18037 0
M  V30 34556 H 3203.81 2.74426 2.52477 0
M  V30 34557 N 3206 -0.45475 1.50897 0
M  V30 34558 C 3207.28 -1.21573 1.53229 0
M  V30 34559 C 3207.66 -2.09148 0.286395 0
M  V30 34560 O 3207 -2.16545 -0.729431 0
M  V30 34561 C 3207.21 -2.03266 2.83697 0
M  V30 34562 C 3208.56 -2.60902 3.34985 0
M  V30 34563 O 3209.59 -2.13494 2.85129 0
M  V30 34564 O 3208.44 -3.47323 4.21935 0
M  V30 34565 H 3205.54 -0.552553 0.615316 0
M  V30 34566 H 3208.08 -0.465237 1.63198 0
M  V30 34567 H 3206.86 -1.38836 3.65842 0
M  V30 34568 H 3206.48 -2.85417 2.76808 0
M  V30 34569 N 3207.48 -1.40749 -0.709041 0
M  V30 34570 C 3208.72 -1.39381 -1.46899 0
M  V30 34571 C 3209.05 0.00166511 -1.945 0
M  V30 34572 O 3208.31 0.987397 -1.68964 0
M  V30 34573 C 3208.61 -2.33546 -2.70538 0
M  V30 34574 C 3208.27 -3.80667 -2.41667 0
M  V30 34575 C 3206.93 -4.20749 -2.33504 0
M  V30 34576 C 3209.29 -4.73611 -2.17582 0
M  V30 34577 C 3206.61 -5.518 -1.99332 0
M  V30 34578 C 3208.97 -6.04968 -1.84922 0
M  V30 34579 C 3207.63 -6.44085 -1.75245 0
M  V30 34580 H 3206.9 -0.510031 -0.53754 0
M  V30 34581 H 3209.55 -1.73451 -0.811604 0
M  V30 34582 H 3207.85 -1.92683 -3.41146 0
M  V30 34583 H 3209.55 -2.29767 -3.28646 0
M  V30 34584 H 3206.14 -3.48915 -2.4891 0
M  V30 34585 H 3210.32 -4.43458 -2.22842 0
M  V30 34586 H 3205.58 -5.81003 -1.90382 0
M  V30 34587 H 3209.75 -6.76497 -1.65301 0
M  V30 34588 H 3207.38 -7.45548 -1.48533 0
M  V30 34589 N 3208.96 0.941933 -1.26354 0
M  V30 34590 C 3210.2 1.68804 -1.11854 0
M  V30 34591 C 3210.53 1.91536 0.338257 0
M  V30 34592 O 3209.79 1.49326 1.26492 0
M  V30 34593 C 3210.08 3.06875 -1.832 0
M  V30 34594 C 3209.75 3.03902 -3.33098 0
M  V30 34595 C 3208.41 3.02798 -3.73988 0
M  V30 34596 C 3210.76 2.96266 -4.28808 0
M  V30 34597 C 3208.09 2.91823 -5.08976 0
M  V30 34598 C 3210.44 2.86832 -5.63835 0
M  V30 34599 C 3209.11 2.84071 -6.04037 0
M  V30 34600 H 3208.38 0.617699 -0.409303 0
M  V30 34601 H 3211.03 1.09955 -1.56787 0
M  V30 34602 H 3209.33 3.69345 -1.30734 0
M  V30 34603 H 3211.03 3.63452 -1.69422 0
M  V30 34604 H 3207.62 3.0554 -3.00571 0
M  V30 34605 H 3211.8 2.96227 -3.982 0
M  V30 34606 H 3207.06 2.88062 -5.39287 0
M  V30 34607 H 3211.23 2.79887 -6.37681 0
M  V30 34608 H 3208.86 2.75322 -7.08591 0
M  V30 34609 N 3210.43 1.08146 1.1464 0
M  V30 34610 C 3211.71 0.722352 1.81773 0
M  V30 34611 C 3212.09 -0.79426 1.95588 0
M  V30 34612 O 3211.44 -1.71176 1.51364 0
M  V30 34613 C 3211.65 1.44617 3.17627 0
M  V30 34614 C 3213 1.6035 3.93158 0
M  V30 34615 O 3214.02 1.40761 3.27208 0
M  V30 34616 O 3212.88 1.92649 5.11418 0
M  V30 34617 H 3209.97 0.257992 0.785728 0
M  V30 34618 H 3212.52 1.18287 1.21681 0
M  V30 34619 H 3211.29 2.47946 3.02719 0
M  V30 34620 H 3210.91 0.97696 3.8541 0
M  V30 34621 N 3211.91 -1.31626 0.866732 0
M  V30 34622 C 3212.84 -2.27516 0.277368 0
M  V30 34623 C 3213.86 -1.52947 -0.557759 0
M  V30 34624 O 3215.05 -1.74402 -0.38028 0
M  V30 34625 C 3212.15 -3.33074 -0.625684 0
M  V30 34626 C 3211.32 -4.37045 0.176281 0
M  V30 34627 C 3210.38 -5.22115 -0.654405 0
M  V30 34628 O 3209.4 -5.69139 -0.0835961 0
M  V30 34629 N 3210.61 -5.46159 -1.96698 0
M  V30 34630 H 3213.37 -2.78729 1.10138 0
M  V30 34631 H 3210.93 -1.44614 0.727896 0
M  V30 34632 H 3212.92 -3.869 -1.18702 0
M  V30 34633 H 3211.49 -2.81929 -1.35037 0
M  V30 34634 H 3210.71 -3.83336 0.919066 0
M  V30 34635 H 3212 -5.03584 0.726682 0
M  V30 34636 H 3211.4 -5.09706 -2.45391 0
M  V30 34637 H 3209.96 -6.02933 -2.47618 0
M  V30 34638 N 3213.39 -0.62585 -1.4464 0
M  V30 34639 C 3214.61 -0.13341 -2.0697 0
M  V30 34640 C 3215.04 1.18076 -1.46423 0
M  V30 34641 O 3214.4 1.72314 -0.563706 0
M  V30 34642 C 3214.45 -0.0265731 -3.6059 0
M  V30 34643 O 3213.55 1.01882 -3.99617 0
M  V30 34644 H 3212.89 -0.0823684 -0.658871 0
M  V30 34645 H 3215.42 -0.861035 -1.856 0
M  V30 34646 H 3215.43 0.165728 -4.07663 0
M  V30 34647 H 3214.11 -0.986057 -4.04042 0
M  V30 34648 H 3212.68 0.801513 -3.64184 0
M  V30 34649 N 3214.87 1.53289 -0.36608 0
M  V30 34650 C 3216.09 2.06156 0.226803 0
M  V30 34651 C 3216.52 1.23779 1.41635 0
M  V30 34652 O 3215.88 0.25698 1.7947 0
M  V30 34653 C 3215.92 3.55609 0.597894 0
M  V30 34654 O 3215.03 3.75954 1.69505 0
M  V30 34655 H 3214.37 0.663184 0.032904 0
M  V30 34656 H 3216.9 1.97701 -0.526828 0
M  V30 34657 H 3216.91 3.98643 0.868761 0
M  V30 34658 H 3215.58 4.1501 -0.271911 0
M  V30 34659 H 3214.16 3.44817 1.4197 0
M  V30 34660 N 3216.35 0.0952613 1.57312 0
M  V30 34661 C 3217.59 -0.568407 1.94359 0
M  V30 34662 C 3217.92 -1.68181 0.97701 0
M  V30 34663 O 3217.18 -1.957 -0.00336958 0
M  V30 34664 C 3217.47 -1.16326 3.37939 0
M  V30 34665 C 3217.14 -0.173635 4.50566 0
M  V30 34666 C 3215.8 0.0985518 4.81099 0
M  V30 34667 C 3218.15 0.502084 5.18776 0
M  V30 34668 C 3215.48 1.05315 5.7717 0
M  V30 34669 C 3217.83 1.44515 6.15872 0
M  V30 34670 C 3216.5 1.72557 6.4481 0
M  V30 34671 H 3215.77 -0.207995 0.71121 0
M  V30 34672 H 3218.42 0.171129 1.90734 0
M  V30 34673 H 3216.72 -1.97905 3.38143 0
M  V30 34674 H 3218.42 -1.68446 3.63905 0
M  V30 34675 H 3215.01 -0.395967 4.26767 0
M  V30 34676 H 3219.19 0.304942 4.95362 0
M  V30 34677 H 3214.45 1.27741 5.97907 0
M  V30 34678 H 3218.62 1.97456 6.6782 0
M  V30 34679 H 3216.25 2.46684 7.19063 0
M  V30 34680 N 3217.82 -1.56587 -0.178432 0
M  V30 34681 C 3218.75 -1.98886 -1.22338 0
M  V30 34682 C 3219.73 -0.863336 -1.46562 0
M  V30 34683 O 3220.92 -1.1289 -1.58017 0
M  V30 34684 C 3218.05 -2.34266 -2.56392 0
M  V30 34685 C 3217 -3.49712 -2.4675 0
M  V30 34686 C 3216.33 -3.70814 -3.85229 0
M  V30 34687 C 3217.63 -4.83385 -1.97829 0
M  V30 34688 H 3219.32 -2.86426 -0.871798 0
M  V30 34689 H 3216.87 -1.37802 -0.417924 0
M  V30 34690 H 3218.82 -2.62454 -3.29691 0
M  V30 34691 H 3217.55 -1.43627 -2.93324 0
M  V30 34692 H 3216.21 -3.21641 -1.75906 0
M  V30 34693 H 3215.85 -2.77477 -4.19542 0
M  V30 34694 H 3215.55 -4.48488 -3.79648 0
M  V30 34695 H 3217.08 -4.01395 -4.60124 0
M  V30 34696 H 3218.49 -5.10495 -2.60897 0
M  V30 34697 H 3216.89 -5.64646 -2.03213 0
M  V30 34698 H 3217.96 -4.75854 -0.932255 0
M  V30 34699 N 3219.3 0.446741 -1.51136 0
M  V30 34700 C 3220.25 1.53974 -1.68155 0
M  V30 34701 C 3221.24 1.51722 -0.535657 0
M  V30 34702 O 3222.43 1.58334 -0.791162 0
M  V30 34703 C 3219.56 2.92242 -1.80138 0
M  V30 34704 C 3218.64 2.99286 -3.00481 0
M  V30 34705 N 3219.03 2.76092 -4.23801 0
M  V30 34706 C 3217.33 3.3044 -2.99542 0
M  V30 34707 C 3218.03 2.88735 -5.04982 0
M  V30 34708 N 3217.01 3.19998 -4.39434 0
M  V30 34709 H 3220.81 1.34779 -2.61174 0
M  V30 34710 H 3218.32 0.653897 -1.48654 0
M  V30 34711 H 3220.32 3.70862 -1.90439 0
M  V30 34712 H 3218.98 3.12465 -0.882934 0
M  V30 34713 H 3219.99 2.51201 -4.529 0
M  V30 34714 H 3216.67 3.56497 -2.17293 0
M  V30 34715 H 3218.06 2.74836 -6.13119 0
M  V30 34716 N 3220.78 1.41123 0.701567 0
M  V30 34717 C 3221.73 1.42693 1.83688 0
M  V30 34718 C 3222.72 0.305688 1.66619 0
M  V30 34719 O 3223.93 0.477422 1.73553 0
M  V30 34720 H 3220.3 0.44634 0.605214 0
M  V30 34721 H 3222.27 2.38389 1.79481 0
M  V30 34722 C 3221.02 1.32014 3.21664 0
M  V30 34723 H 3220.35 2.17575 3.35412 0
M  V30 34724 H 3221.79 1.37172 4.01198 0
M  V30 34725 C 3220.24 0.031827 3.36885 0
M  V30 34726 O 3220.77 -0.925767 3.90887 0
M  V30 34727 N 3218.98 -0.042289 2.90569 0
M  V30 34728 H 3218.53 0.737717 2.46811 0
M  V30 34729 H 3218.49 -0.903711 3.01132 0
M  V30 34730 N 3222.26 -0.935219 1.26852 0
M  V30 34731 C 3223.17 -2.06829 1.1072 0
M  V30 34732 C 3224.18 -1.73956 0.0391528 0
M  V30 34733 O 3225.36 -1.99915 0.244106 0
M  V30 34734 C 3222.42 -3.38531 0.748153 0
M  V30 34735 C 3221.49 -3.8515 1.89626 0
M  V30 34736 C 3220.72 -5.10567 1.55425 0
M  V30 34737 O 3220.94 -5.68553 0.458696 0
M  V30 34738 O 3219.88 -5.52373 2.39097 0
M  V30 34739 H 3223.7 -2.23348 2.05789 0
M  V30 34740 H 3221.29 -1.05313 1.05969 0
M  V30 34741 H 3223.17 -4.1765 0.560914 0
M  V30 34742 H 3221.84 -3.23237 -0.173086 0
M  V30 34743 H 3220.75 -3.06951 2.13851 0
M  V30 34744 H 3222.08 -4.04974 2.79744 0
M  V30 34745 N 3223.74 -1.08752 -1.14065 0
M  V30 34746 C 3224.67 -0.664691 -2.18305 0
M  V30 34747 C 3225.65 0.325331 -1.59312 0
M  V30 34748 O 3226.83 0.228352 -1.87112 0
M  V30 34749 C 3223.96 0.0218127 -3.38693 0
M  V30 34750 C 3223 -0.928917 -4.16261 0
M  V30 34751 S 3223.84 -2.43742 -4.76812 0
M  V30 34752 C 3224.99 -1.76313 -6.00554 0
M  V30 34753 H 3225.23 -1.54776 -2.53834 0
M  V30 34754 H 3222.76 -0.902839 -1.25252 0
M  V30 34755 H 3224.72 0.411614 -4.08431 0
M  V30 34756 H 3223.38 0.881428 -3.01479 0
M  V30 34757 H 3222.57 -0.395534 -5.02446 0
M  V30 34758 H 3222.17 -1.25979 -3.52144 0
M  V30 34759 H 3224.47 -1.08313 -6.68786 0
M  V30 34760 H 3225.41 -2.60385 -6.58487 0
M  V30 34761 H 3225.82 -1.23499 -5.50825 0
M  V30 34762 N 3225.21 1.31165 -0.873701 0
M  V30 34763 C 3226.12 2.32185 -0.335766 0
M  V30 34764 C 3227.14 1.6487 0.55623 0
M  V30 34765 O 3228.32 1.96261 0.452053 0
M  V30 34766 C 3225.38 3.43757 0.450761 0
M  V30 34767 C 3224.44 4.26723 -0.46964 0
M  V30 34768 C 3223.68 5.32968 0.279445 0
M  V30 34769 O 3223.9 5.50131 1.50705 0
M  V30 34770 O 3222.83 6.00795 -0.364625 0
M  V30 34771 H 3226.66 2.80125 -1.17319 0
M  V30 34772 H 3224.24 1.35131 -0.637186 0
M  V30 34773 H 3226.13 4.11753 0.896509 0
M  V30 34774 H 3224.8 2.97973 1.26467 0
M  V30 34775 H 3223.71 3.61467 -0.963966 0
M  V30 34776 H 3225.04 4.76083 -1.24925 0
M  V30 34777 N 3226.69 0.633512 1.44307 0
M  V30 34778 C 3227.94 0.147686 2.02863 0
M  V30 34779 C 3228.29 -1.21775 1.48958 0
M  V30 34780 O 3227.59 -1.79688 0.665029 0
M  V30 34781 C 3227.78 0.0774514 3.57316 0
M  V30 34782 C 3227.61 1.43454 4.26206 0
M  V30 34783 C 3226.38 2.02192 4.63084 0
M  V30 34784 C 3228.58 2.36887 4.56496 0
M  V30 34785 N 3226.56 3.31111 5.16951 0
M  V30 34786 C 3227.93 3.50422 5.11473 0
M  V30 34787 C 3229.99 2.35936 4.3845 0
M  V30 34788 C 3228.69 4.63206 5.50303 0
M  V30 34789 C 3230.71 3.47786 4.7833 0
M  V30 34790 C 3230.08 4.60044 5.33421 0
M  V30 34791 H 3226.18 0.0980174 0.775833 0
M  V30 34792 H 3228.76 0.837526 1.75766 0
M  V30 34793 H 3226.93 -0.581675 3.8402 0
M  V30 34794 H 3228.66 -0.417423 4.02542 0
M  V30 34795 H 3225.42 1.55111 4.47479 0
M  V30 34796 H 3225.84 3.97029 5.48359 0
M  V30 34797 H 3230.48 1.50394 3.95148 0
M  V30 34798 H 3228.2 5.49455 5.92558 0
M  V30 34799 H 3231.79 3.48228 4.66078 0
M  V30 34800 H 3230.67 5.45161 5.6371 0
M  V30 34801 N 3228.17 -1.53093 0.374204 0
M  V30 34802 C 3229.1 -2.23612 -0.503025 0
M  V30 34803 C 3230.12 -1.25323 -1.03913 0
M  V30 34804 O 3231.3 -1.51493 -0.944037 0
M  V30 34805 C 3228.4 -2.92701 -1.70819 0
M  V30 34806 C 3227.58 -4.1757 -1.30209 0
M  V30 34807 C 3226.64 -4.69792 -2.37028 0
M  V30 34808 O 3225.66 -5.33258 -1.9906 0
M  V30 34809 N 3226.86 -4.48346 -3.68735 0
M  V30 34810 H 3229.63 -2.9953 0.101066 0
M  V30 34811 H 3227.19 -1.60662 0.199806 0
M  V30 34812 H 3229.18 -3.24543 -2.41773 0
M  V30 34813 H 3227.75 -2.20184 -2.21896 0
M  V30 34814 H 3226.97 -3.91934 -0.422053 0
M  V30 34815 H 3228.26 -4.98731 -1.0072 0
M  V30 34816 H 3227.66 -3.97654 -4.02353 0
M  V30 34817 H 3226.22 -4.84716 -4.35768 0
M  V30 34818 N 3229.65 -0.103603 -1.57259 0
M  V30 34819 C 3231.06 0.253035 -1.57581 0
M  V30 34820 C 3231.26 1.67817 -1.11534 0
M  V30 34821 O 3230.32 2.39636 -0.795674 0
M  V30 34822 C 3231.63 0.0337224 -3.00681 0
M  V30 34823 C 3233.18 0.100815 -3.12838 0
M  V30 34824 C 3233.66 -0.09061 -4.5791 0
M  V30 34825 N 3235.15 -0.0360604 -4.63186 0
M  V30 34826 C 3235.88 -0.159299 -5.73179 0
M  V30 34827 N 3235.38 -0.337849 -6.91976 0
M  V30 34828 N 3237.17 -0.099965 -5.62011 0
M  V30 34829 H 3229.32 -1.03464 -1.85497 0
M  V30 34830 H 3231.59 -0.406178 -0.856577 0
M  V30 34831 H 3231.29 -0.950918 -3.38601 0
M  V30 34832 H 3231.17 0.772341 -3.69208 0
M  V30 34833 H 3233.55 1.07597 -2.74785 0
M  V30 34834 H 3233.63 -0.669433 -2.46885 0
M  V30 34835 H 3233.28 -1.06267 -4.96659 0
M  V30 34836 H 3233.21 0.699436 -5.21934 0
M  V30 34837 H 3235.7 0.0990546 -3.7777 0
M  V30 34838 H 3236.01 -0.423168 -7.71641 0
M  V30 34839 H 3234.36 -0.373626 -6.93995 0
M  V30 34840 H 3237.55 0.0384534 -4.68084 0
M  V30 34841 H 3237.72 -0.199456 -6.47693 0
M  V30 34842 N 3231.13 1.56679 0.170126 0
M  V30 34843 C 3232.07 1.96502 1.21061 0
M  V30 34844 C 3233.04 0.829117 1.43927 0
M  V30 34845 O 3234.23 1.08933 1.56647 0
M  V30 34846 C 3231.37 2.33114 2.54464 0
M  V30 34847 C 3230.48 3.59887 2.38967 0
M  V30 34848 C 3229.62 3.85706 3.65245 0
M  V30 34849 C 3228.66 5.05824 3.44687 0
M  V30 34850 N 3227.79 5.27769 4.63038 0
M  V30 34851 H 3232.63 2.852 0.864005 0
M  V30 34852 H 3230.17 1.41118 0.415218 0
M  V30 34853 H 3232.13 2.52363 3.32218 0
M  V30 34854 H 3230.76 1.47525 2.87117 0
M  V30 34855 H 3229.81 3.48545 1.52384 0
M  V30 34856 H 3231.12 4.47798 2.19723 0
M  V30 34857 H 3230.28 4.0533 4.51434 0
M  V30 34858 H 3229.01 2.96173 3.8747 0
M  V30 34859 H 3228.02 4.86097 2.56885 0
M  V30 34860 H 3229.24 5.96889 3.23883 0
M  V30 34861 H 3227.19 4.41187 4.85479 0
M  V30 34862 H 3227.11 6.09906 4.46711 0
M  V30 34863 H 3228.38 5.51873 5.50506 0
M  V30 34864 N 3232.6 -0.43872 1.5137 0
M  V30 34865 C 3233.53 -1.53984 1.75531 0
M  V30 34866 C 3234.52 -1.58974 0.605095 0
M  V30 34867 O 3235.7 -1.74723 0.847664 0
M  V30 34868 C 3232.83 -2.92074 1.87909 0
M  V30 34869 C 3231.78 -3.01946 3.03336 0
M  V30 34870 C 3231.11 -4.42002 3.00896 0
M  V30 34871 C 3232.41 -2.76155 4.43323 0
M  V30 34872 H 3234.1 -1.34017 2.67731 0
M  V30 34873 H 3231.65 -0.643285 1.28833 0
M  V30 34874 H 3233.6 -3.69064 2.03395 0
M  V30 34875 H 3232.33 -3.13269 0.923569 0
M  V30 34876 H 3230.99 -2.27395 2.87553 0
M  V30 34877 H 3230.63 -4.60163 2.03124 0
M  V30 34878 H 3230.33 -4.49537 3.78405 0
M  V30 34879 H 3231.86 -5.20968 3.18473 0
M  V30 34880 H 3233.27 -3.42879 4.59464 0
M  V30 34881 H 3231.67 -2.95101 5.22528 0
M  V30 34882 H 3232.74 -1.71771 4.53456 0
M  V30 34883 N 3234.08 -1.41493 -0.694073 0
M  V30 34884 C 3235.5 -1.23996 -1.00485 0
M  V30 34885 C 3235.7 -0.130381 -2.01078 0
M  V30 34886 O 3234.75 0.504732 -2.47404 0
M  V30 34887 C 3236.07 -2.58982 -1.52803 0
M  V30 34888 C 3237.62 -2.66176 -1.64679 0
M  V30 34889 C 3238.09 -4.01483 -2.20399 0
M  V30 34890 N 3239.58 -4.03337 -2.27757 0
M  V30 34891 C 3240.32 -5.04834 -2.71902 0
M  V30 34892 N 3239.81 -6.1672 -3.1564 0
M  V30 34893 N 3241.61 -4.92195 -2.71479 0
M  V30 34894 H 3233.76 -2.12382 -0.0277087 0
M  V30 34895 H 3236.02 -0.94504 -0.0748575 0
M  V30 34896 H 3235.73 -3.40936 -0.863459 0
M  V30 34897 H 3235.6 -2.81571 -2.50993 0
M  V30 34898 H 3237.99 -1.8458 -2.30248 0
M  V30 34899 H 3238.07 -2.47396 -0.650307 0
M  V30 34900 H 3237.71 -4.83528 -1.55445 0
M  V30 34901 H 3237.64 -4.17604 -3.20802 0
M  V30 34902 H 3240.13 -3.22554 -1.96894 0
M  V30 34903 H 3240.45 -6.90035 -3.47954 0
M  V30 34904 H 3238.79 -6.20254 -3.13545 0
M  V30 34905 H 3241.98 -4.03869 -2.36659 0
M  V30 34906 H 3242.15 -5.71432 -3.05563 0
M  V30 34907 N 3235.56 0.928479 -1.27346 0
M  V30 34908 C 3236.79 1.71548 -1.1656 0
M  V30 34909 C 3237.21 1.86093 0.274011 0
M  V30 34910 O 3236.57 1.3604 1.19845 0
M  V30 34911 C 3236.62 3.09326 -1.85338 0
M  V30 34912 O 3235.72 3.96018 -1.15081 0
M  V30 34913 H 3235.06 0.525852 -0.405432 0
M  V30 34914 H 3237.59 1.16199 -1.68401 0
M  V30 34915 H 3237.6 3.59644 -1.92665 0
M  V30 34916 H 3236.28 2.98055 -2.90062 0
M  V30 34917 H 3234.85 3.54459 -1.15817 0
M  V30 34918 N 3237.04 1.09355 1.13486 0
M  V30 34919 C 3237.97 0.676258 2.1795 0
M  V30 34920 C 3238.95 -0.316878 1.59482 0
M  V30 34921 O 3240.13 -0.218426 1.8723 0
M  V30 34922 C 3237.26 -0.00385071 3.387 0
M  V30 34923 C 3236.31 0.950979 4.15763 0
M  V30 34924 S 3237.14 2.46267 4.75513 0
M  V30 34925 C 3238.3 1.79495 5.9961 0
M  V30 34926 H 3238.53 1.5612 2.5301 0
M  V30 34927 H 3236.06 0.909469 1.24772 0
M  V30 34928 H 3238.02 -0.389948 4.08644 0
M  V30 34929 H 3236.68 -0.865427 3.01942 0
M  V30 34930 H 3235.87 0.422175 5.02229 0
M  V30 34931 H 3235.48 1.27844 3.51471 0
M  V30 34932 H 3237.77 1.11858 6.68202 0
M  V30 34933 H 3238.71 2.63873 6.57097 0
M  V30 34934 H 3239.12 1.26418 5.50162 0
M  V30 34935 N 3238.52 -1.307 0.880644 0
M  V30 34936 C 3239.93 -1.78476 0.548024 0
M  V30 34937 C 3240.28 -1.72456 -0.935602 0
M  V30 34938 O 3239.4 -1.29877 -1.73092 0
M  V30 34939 C 3240 -3.24074 0.988007 0
M  V30 34940 C 3238.56 -3.69703 0.70687 0
M  V30 34941 C 3237.71 -2.5125 1.1734 0
M  V30 34942 H 3240.66 -1.17631 1.0653 0
M  V30 34943 H 3240.68 -3.79193 0.315147 0
M  V30 34944 H 3240.19 -3.28423 2.06784 0
M  V30 34945 H 3238.29 -3.70846 -0.361154 0
M  V30 34946 H 3238.4 -4.61368 1.29139 0
M  V30 34947 H 3236.77 -2.47704 0.592851 0
M  V30 34948 H 3237.55 -2.58339 2.26088 0
M  V30 34949 N 3240 -0.641156 -1.43969 0
M  V30 34950 C 3240.93 0.044419 -2.33458 0
M  V30 34951 C 3241.91 0.824481 -1.48783 0
M  V30 34952 O 3243.09 0.788366 -1.77478 0
M  V30 34953 C 3240.22 1.01978 -3.3199 0
M  V30 34954 C 3239.18 0.35067 -4.26561 0
M  V30 34955 C 3238.5 1.43664 -5.15039 0
M  V30 34956 C 3239.8 -0.74939 -5.16896 0
M  V30 34957 H 3241.5 -0.702883 -2.91032 0
M  V30 34958 H 3239.04 -0.33946 -1.39942 0
M  V30 34959 H 3240.99 1.50822 -3.93485 0
M  V30 34960 H 3239.72 1.7981 -2.72646 0
M  V30 34961 H 3238.38 -0.117203 -3.66413 0
M  V30 34962 H 3238.03 2.20609 -4.52041 0
M  V30 34963 H 3237.73 0.994256 -5.79127 0
M  V30 34964 H 3239.25 1.92668 -5.79406 0
M  V30 34965 H 3240.66 -0.343635 -5.72269 0
M  V30 34966 H 3239.06 -1.11552 -5.89641 0
M  V30 34967 H 3240.13 -1.6124 -4.57307 0
M  V30 34968 N 3241.47 1.52892 -0.382318 0
M  V30 34969 C 3242.72 2.00673 0.203306 0
M  V30 34970 C 3243.04 1.27325 1.48485 0
M  V30 34971 O 3244.24 1.6578 2.1501 0
M  V30 34972 C 3242.7 3.57524 0.412859 0
M  V30 34973 C 3242.31 4.39765 -0.855026 0
M  V30 34974 C 3244.05 4.13613 0.955228 0
M  V30 34975 C 3241.96 5.88203 -0.614137 0
M  V30 34976 H 3240.89 0.749771 0.0797504 0
M  V30 34977 H 3243.54 1.76453 -0.503641 0
M  V30 34978 H 3241.92 3.77964 1.18148 0
M  V30 34979 H 3243.09 4.31093 -1.62773 0
M  V30 34980 H 3241.41 3.94863 -1.32183 0
M  V30 34981 H 3244.01 5.22164 1.15105 0
M  V30 34982 H 3244.35 3.69262 1.92227 0
M  V30 34983 H 3244.88 3.97036 0.246351 0
M  V30 34984 H 3241.62 6.36863 -1.55198 0
M  V30 34985 H 3241.14 5.9968 0.11976 0
M  V30 34986 H 3242.82 6.46532 -0.246008 0
M  V30 34987 N 3242.95 0.111941 1.57202 0
M  V30 34988 C 3244.18 -0.554872 1.99009 0
M  V30 34989 C 3244.59 -1.6121 0.990351 0
M  V30 34990 O 3243.93 -1.83682 -0.0259289 0
M  V30 34991 C 3243.99 -1.24592 3.3722 0
M  V30 34992 C 3243.66 -0.337469 4.55752 0
M  V30 34993 C 3244.66 0.421117 5.18192 0
M  V30 34994 C 3242.34 -0.250602 5.01674 0
M  V30 34995 C 3244.33 1.25437 6.24935 0
M  V30 34996 C 3242.02 0.586293 6.08281 0
M  V30 34997 C 3243.02 1.33742 6.69778 0
M  V30 34998 O 3242.71 2.16043 7.74326 0
M  V30 34999 H 3242.44 -0.152079 0.658671 0
M  V30 35000 H 3244.99 0.192973 2.04492 0
M  V30 35001 H 3243.22 -2.04068 3.28471 0
M  V30 35002 H 3244.91 -1.80893 3.63363 0
M  V30 35003 H 3245.68 0.363837 4.83633 0
M  V30 35004 H 3241.56 -0.824925 4.53559 0
M  V30 35005 H 3245.1 1.84114 6.72865 0
M  V30 35006 H 3241 0.644992 6.42269 0
M  V30 35007 H 3241.77 2.08908 7.91391 0
M  V30 35008 N 3244.43 -1.56767 -0.161814 0
M  V30 35009 C 3245.68 -1.83691 -0.873449 0
M  V30 35010 C 3246.03 -0.693848 -1.79453 0
M  V30 35011 O 3245.32 0.309148 -1.89089 0
M  V30 35012 C 3245.52 -3.14525 -1.69731 0
M  V30 35013 C 3245.35 -4.41449 -0.85749 0
M  V30 35014 C 3244.12 -5.02525 -0.528863 0
M  V30 35015 C 3246.31 -5.13932 -0.194643 0
M  V30 35016 N 3244.3 -6.13033 0.326102 0
M  V30 35017 C 3245.67 -6.17806 0.521082 0
M  V30 35018 C 3247.72 -4.9777 -0.113787 0
M  V30 35019 C 3246.43 -7.0727 1.31001 0
M  V30 35020 C 3248.45 -5.87685 0.661835 0
M  V30 35021 C 3247.81 -6.9103 1.36589 0
M  V30 35022 H 3243.91 -0.723024 -0.297926 0
M  V30 35023 H 3246.5 -1.94198 -0.139782 0
M  V30 35024 H 3244.67 -3.05193 -2.40232 0
M  V30 35025 H 3246.4 -3.29411 -2.35097 0
M  V30 35026 H 3243.15 -4.65704 -0.861185 0
M  V30 35027 H 3243.58 -6.72898 0.744173 0
M  V30 35028 H 3248.22 -4.1787 -0.643758 0
M  V30 35029 H 3245.94 -7.86608 1.85129 0
M  V30 35030 H 3249.52 -5.7725 0.726193 0
M  V30 35031 H 3248.4 -7.59403 1.95643 0
M  V30 35032 N 3245.91 0.430686 -1.51601 0
M  V30 35033 C 3247.15 1.17956 -1.64598 0
M  V30 35034 C 3247.48 1.91037 -0.365415 0
M  V30 35035 O 3246.74 1.84562 0.650794 0
M  V30 35036 C 3247.04 2.21604 -2.80404 0
M  V30 35037 C 3246.7 1.65487 -4.19434 0
M  V30 35038 C 3245.36 1.49907 -4.57254 0
M  V30 35039 C 3247.72 1.24295 -5.06162 0
M  V30 35040 C 3245.04 0.916174 -5.79502 0
M  V30 35041 C 3247.4 0.674327 -6.28996 0
M  V30 35042 C 3246.06 0.505474 -6.65583 0
M  V30 35043 H 3245.33 0.431631 -0.602308 0
M  V30 35044 H 3247.98 0.469693 -1.85651 0
M  V30 35045 H 3246.28 2.98654 -2.536 0
M  V30 35046 H 3247.98 2.7938 -2.87659 0
M  V30 35047 H 3244.57 1.78592 -3.89619 0
M  V30 35048 H 3248.75 1.3515 -4.77544 0
M  V30 35049 H 3244.01 0.773173 -6.06492 0
M  V30 35050 H 3248.18 0.346657 -6.95537 0
M  V30 35051 H 3245.81 0.0516852 -7.60182 0
M  V30 35052 N 3247.39 1.4186 0.686559 0
M  V30 35053 C 3248.61 1.45277 1.48018 0
M  V30 35054 C 3249.04 0.0621627 1.87997 0
M  V30 35055 O 3248.39 -0.936706 1.55227 0
M  V30 35056 C 3248.44 2.37517 2.71326 0
M  V30 35057 O 3247.55 1.83843 3.69155 0
M  V30 35058 H 3246.89 0.49269 0.445143 0
M  V30 35059 H 3249.42 1.8642 0.843129 0
M  V30 35060 H 3249.43 2.53699 3.19532 0
M  V30 35061 H 3248.1 3.38554 2.41565 0
M  V30 35062 H 3246.68 1.77157 3.28131 0
M  V30 35063 N 3248.86 -0.921712 1.27837 0
M  V30 35064 C 3250.28 -1.19871 1.05371 0
M  V30 35065 C 3250.48 -2.00414 -0.208962 0
M  V30 35066 O 3249.54 -2.35423 -0.91282 0
M  V30 35067 C 3250.85 -1.94104 2.29661 0
M  V30 35068 C 3252.4 -2.07019 2.3476 0
M  V30 35069 C 3252.87 -2.84658 3.58795 0
M  V30 35070 N 3254.36 -2.92223 3.59388 0
M  V30 35071 C 3255.1 -3.52777 4.52036 0
M  V30 35072 N 3254.59 -4.14673 5.54993 0
M  V30 35073 N 3256.39 -3.50239 4.39647 0
M  V30 35074 H 3248.54 -0.383782 2.08904 0
M  V30 35075 H 3250.8 -0.232413 0.919069 0
M  V30 35076 H 3250.51 -1.42344 3.21607 0
M  V30 35077 H 3250.38 -2.94692 2.35449 0
M  V30 35078 H 3252.77 -2.57962 1.43316 0
M  V30 35079 H 3252.85 -1.05632 2.32971 0
M  V30 35080 H 3252.49 -2.34396 4.50578 0
M  V30 35081 H 3252.42 -3.86343 3.57836 0
M  V30 35082 H 3254.91 -2.48239 2.84932 0
M  V30 35083 H 3255.23 -4.58834 6.21845 0
M  V30 35084 H 3253.57 -4.13201 5.58829 0
M  V30 35085 H 3256.76 -3.01088 3.58418 0
M  V30 35086 H 3256.94 -3.97139 5.1204 0
M  V30 35087 N 3250.34 -1.09956 -1.12905 0
M  V30 35088 C 3251.76 -0.83035 -1.36299 0
M  V30 35089 C 3251.96 0.55266 -1.93773 0
M  V30 35090 O 3251.01 1.30649 -2.16072 0
M  V30 35091 C 3252.33 -1.92602 -2.30922 0
M  V30 35092 C 3253.87 -1.95389 -2.44524 0
M  V30 35093 C 3254.35 -3.04116 -3.42458 0
M  V30 35094 N 3255.84 -3.0339 -3.50012 0
M  V30 35095 C 3256.58 -3.8416 -4.25686 0
M  V30 35096 N 3256.07 -4.74852 -5.04468 0
M  V30 35097 N 3257.86 -3.72398 -4.21042 0
M  V30 35098 H 3250.02 -1.9911 -0.739536 0
M  V30 35099 H 3252.28 -0.864977 -0.387967 0
M  V30 35100 H 3251.98 -2.92119 -1.95856 0
M  V30 35101 H 3251.86 -1.80894 -3.30994 0
M  V30 35102 H 3254.25 -0.965086 -2.78873 0
M  V30 35103 H 3254.33 -2.11174 -1.44357 0
M  V30 35104 H 3253.97 -4.03213 -3.0884 0
M  V30 35105 H 3253.9 -2.85573 -4.42443 0
M  V30 35106 H 3256.39 -2.3767 -2.93805 0
M  V30 35107 H 3256.7 -5.33051 -5.59532 0
M  V30 35108 H 3255.05 -4.78884 -5.03681 0
M  V30 35109 H 3258.24 -3.00901 -3.58575 0
M  V30 35110 H 3258.41 -4.35581 -4.79764 0
M  V30 35111 N 3251.82 1.30231 -0.887563 0
M  V30 35112 C 3252.75 2.26208 -0.300854 0
M  V30 35113 C 3253.73 1.51901 0.580061 0
M  V30 35114 O 3254.91 1.80908 0.529579 0
M  V30 35115 C 3252.04 3.3383 0.572277 0
M  V30 35116 C 3251.09 4.25826 -0.239663 0
M  V30 35117 S 3251.92 5.10101 -1.62962 0
M  V30 35118 C 3253.08 6.21231 -0.763089 0
M  V30 35119 H 3253.31 2.75624 -1.1144 0
M  V30 35120 H 3250.84 1.38267 -0.687147 0
M  V30 35121 H 3252.8 3.96302 1.07029 0
M  V30 35122 H 3251.46 2.83133 1.35994 0
M  V30 35123 H 3250.65 5.0219 0.426766 0
M  V30 35124 H 3250.26 3.67943 -0.67039 0
M  V30 35125 H 3252.55 6.77497 0.0188163 0
M  V30 35126 H 3253.49 6.92064 -1.49842 0
M  V30 35127 H 3253.9 5.63576 -0.322846 0
M  V30 35128 N 3253.3 0.648782 1.43627 0
M  V30 35129 C 3254.53 0.167981 2.06217 0
M  V30 35130 C 3254.94 -1.16459 1.48602 0
M  V30 35131 O 3254.3 -1.71803 0.615621 0
M  V30 35132 C 3254.35 0.066075 3.6144 0
M  V30 35133 O 3254.07 1.34597 4.16912 0
M  V30 35134 C 3255.57 -0.441331 4.41098 0
M  V30 35135 H 3252.79 0.0878354 0.665226 0
M  V30 35136 H 3255.34 0.888177 1.84206 0
M  V30 35137 H 3253.49 -0.604655 3.82652 0
M  V30 35138 H 3253.9 1.20227 5.10535 0
M  V30 35139 H 3255.38 -0.4616 5.50067 0
M  V30 35140 H 3255.86 -1.4718 4.13805 0
M  V30 35141 H 3256.46 0.196754 4.24845 0
M  V30 35142 N 3254.78 -1.52688 0.390421 0
M  V30 35143 C 3255.71 -2.294 -0.435629 0
M  V30 35144 C 3256.69 -1.32834 -1.0625 0
M  V30 35145 O 3257.87 -1.61728 -1.07506 0
M  V30 35146 C 3255 -3.10165 -1.56254 0
M  V30 35147 C 3253.96 -4.14624 -1.06165 0
M  V30 35148 C 3253.28 -4.83619 -2.28071 0
M  V30 35149 C 3254.58 -5.22141 -0.12881 0
M  V30 35150 H 3256.28 -2.98701 0.204437 0
M  V30 35151 H 3253.82 -1.43654 0.0997629 0
M  V30 35152 H 3255.78 -3.62589 -2.14725 0
M  V30 35153 H 3254.5 -2.38599 -2.23021 0
M  V30 35154 H 3253.16 -3.63182 -0.499455 0
M  V30 35155 H 3252.81 -4.08601 -2.93351 0
M  V30 35156 H 3252.51 -5.54224 -1.95217 0
M  V30 35157 H 3254.03 -5.38849 -2.87183 0
M  V30 35158 H 3255.44 -5.69919 -0.621749 0
M  V30 35159 H 3253.84 -5.99999 0.110024 0
M  V30 35160 H 3254.91 -4.77883 0.821968 0
M  V30 35161 N 3256.25 -0.120276 -1.5714 0
M  V30 35162 C 3257.5 0.531955 -1.96321 0
M  V30 35163 C 3257.86 1.64208 -1.00268 0
M  V30 35164 O 3257.15 1.91572 -0.0329306 0
M  V30 35165 C 3257.34 1.10935 -3.39747 0
M  V30 35166 C 3257.17 0.0566982 -4.49664 0
M  V30 35167 C 3255.94 -0.375554 -5.03902 0
M  V30 35168 C 3258.14 -0.724757 -5.09168 0
M  V30 35169 N 3256.12 -1.41385 -5.97397 0
M  V30 35170 C 3257.49 -1.61421 -5.98618 0
M  V30 35171 C 3259.55 -0.775504 -4.91823 0
M  V30 35172 C 3258.25 -2.55 -6.72583 0
M  V30 35173 C 3260.28 -1.69901 -5.6647 0
M  V30 35174 C 3259.64 -2.57604 -6.55606 0
M  V30 35175 H 3255.74 0.164246 -0.764557 0
M  V30 35176 H 3258.32 -0.20869 -1.93578 0
M  V30 35177 H 3256.49 1.81971 -3.43134 0
M  V30 35178 H 3258.22 1.726 -3.66048 0
M  V30 35179 H 3254.98 0.017089 -4.73597 0
M  V30 35180 H 3255.4 -1.93195 -6.48849 0
M  V30 35181 H 3260.05 -0.111571 -4.22653 0
M  V30 35182 H 3257.76 -3.22406 -7.40999 0
M  V30 35183 H 3261.35 -1.74373 -5.55054 0
M  V30 35184 H 3260.23 -3.27902 -7.12355 0
M  V30 35185 N 3257.73 1.56851 0.153498 0
M  V30 35186 C 3258.98 1.8263 0.865487 0
M  V30 35187 C 3259.3 0.700137 1.81997 0
M  V30 35188 O 3258.57 -0.278709 1.93907 0
M  V30 35189 H 3257.15 0.67375 0.322598 0
M  V30 35190 H 3259.81 1.94329 0.149054 0
M  V30 35191 H 3258.91 2.77326 1.43166 0
M  V30 35192 N 3259.21 -0.42264 1.51827 0
M  V30 35193 C 3260.44 -1.19745 1.69339 0
M  V30 35194 C 3260.86 -1.83877 0.396344 0
M  V30 35195 O 3260.22 -1.69441 -0.644946 0
M  V30 35196 C 3260.27 -2.24632 2.82086 0
M  V30 35197 O 3259.37 -3.30464 2.46713 0
M  V30 35198 H 3258.71 -0.35017 0.56416 0
M  V30 35199 H 3261.24 -0.497254 1.98465 0
M  V30 35200 H 3261.25 -2.69181 3.06603 0
M  V30 35201 H 3259.93 -1.77335 3.76198 0
M  V30 35202 H 3258.5 -2.91289 2.32821 0
M  V30 35203 N 3260.69 -1.42222 -0.679027 0
M  V30 35204 C 3261.94 -1.41759 -1.43482 0
M  V30 35205 C 3262.25 -0.0359042 -1.95567 0
M  V30 35206 O 3263.46 0.0913236 -2.71346 0
M  V30 35207 C 3261.91 -2.49337 -2.59537 0
M  V30 35208 C 3261.52 -3.93492 -2.14169 0
M  V30 35209 C 3263.26 -2.58035 -3.37073 0
M  V30 35210 C 3261.17 -4.92587 -3.2728 0
M  V30 35211 H 3260.1 -0.527239 -0.539013 0
M  V30 35212 H 3262.75 -1.68113 -0.735551 0
M  V30 35213 H 3261.13 -2.16141 -3.31812 0
M  V30 35214 H 3262.31 -4.3602 -1.49075 0
M  V30 35215 H 3260.62 -3.88605 -1.49582 0
M  V30 35216 H 3263.22 -3.2925 -4.21306 0
M  V30 35217 H 3263.56 -1.62252 -3.8338 0
M  V30 35218 H 3264.1 -2.90404 -2.71865 0
M  V30 35219 H 3260.84 -5.89832 -2.85969 0
M  V30 35220 H 3260.36 -4.54694 -3.9117 0
M  V30 35221 H 3262.03 -5.1411 -3.92811 0
M  V30 35222 N 3262.17 0.91492 -1.28324 0
M  V30 35223 C 3263.39 1.70302 -1.18373 0
M  V30 35224 C 3263.82 1.86374 0.254258 0
M  V30 35225 O 3263.17 1.37303 1.18395 0
M  V30 35226 C 3263.22 3.07342 -1.88608 0
M  V30 35227 O 3262.33 3.94775 -1.19275 0
M  V30 35228 H 3261.67 0.521522 -0.410987 0
M  V30 35229 H 3264.2 1.14406 -1.69624 0
M  V30 35230 H 3264.21 3.57581 -1.96469 0
M  V30 35231 H 3262.88 2.94962 -2.93207 0
M  V30 35232 H 3261.46 3.5321 -1.1957 0
M  V30 35233 N 3263.64 1.10553 1.1232 0
M  V30 35234 C 3264.89 0.848707 1.83857 0
M  V30 35235 C 3265.22 -0.625718 1.8416 0
M  V30 35236 O 3264.47 -1.47738 1.28344 0
M  V30 35237 C 3264.77 1.3438 3.31175 0
M  V30 35238 C 3264.44 2.82986 3.51041 0
M  V30 35239 C 3263.1 3.23567 3.56171 0
M  V30 35240 C 3265.45 3.78743 3.58055 0
M  V30 35241 C 3262.78 4.58654 3.6586 0
M  V30 35242 C 3265.13 5.13634 3.69274 0
M  V30 35243 C 3263.8 5.53787 3.7266 0
M  V30 35244 H 3263.07 0.310564 0.672779 0
M  V30 35245 H 3265.71 1.38234 1.32528 0
M  V30 35246 H 3264.02 0.730211 3.84935 0
M  V30 35247 H 3265.72 1.12155 3.84996 0
M  V30 35248 H 3262.31 2.50588 3.47712 0
M  V30 35249 H 3266.49 3.48497 3.5336 0
M  V30 35250 H 3261.75 4.89184 3.66755 0
M  V30 35251 H 3265.92 5.87676 3.73644 0
M  V30 35252 H 3263.55 6.58456 3.79921 0
M  V30 35253 N 3265.12 -1.29758 0.894457 0
M  V30 35254 C 3266.07 -2.29828 0.357999 0
M  V30 35255 C 3267.06 -1.6056 -0.540065 0
M  V30 35256 O 3268.27 -1.74948 -0.423447 0
M  V30 35257 H 3264.65 -0.745701 0.0971314 0
M  V30 35258 H 3266.62 -2.72523 1.21547 0
M  V30 35259 C 3265.37 -3.45344 -0.404065 0
M  V30 35260 H 3264.69 -3.98834 0.277741 0
M  V30 35261 H 3266.13 -4.17415 -0.744372 0
M  V30 35262 C 3264.59 -2.96225 -1.60475 0
M  V30 35263 O 3265.12 -2.97056 -2.70408 0
M  V30 35264 N 3263.32 -2.5212 -1.44513 0
M  V30 35265 H 3262.87 -2.51643 -0.550776 0
M  V30 35266 H 3262.83 -2.19614 -2.24983 0
M  V30 35267 N 3266.6 -0.65639 -1.4328 0
M  V30 35268 C 3267.53 0.0196551 -2.33492 0
M  V30 35269 C 3268.51 0.808654 -1.49649 0
M  V30 35270 O 3269.7 0.769498 -1.78304 0
M  V30 35271 C 3266.83 0.984515 -3.33053 0
M  V30 35272 C 3265.78 0.305408 -4.26909 0
M  V30 35273 C 3265.11 1.38193 -5.16533 0
M  V30 35274 C 3266.41 -0.804172 -5.16072 0
M  V30 35275 H 3268.1 -0.733712 -2.90271 0
M  V30 35276 H 3265.65 -0.354283 -1.39574 0
M  V30 35277 H 3267.6 1.4664 -3.95063 0
M  V30 35278 H 3266.32 1.76908 -2.74538 0
M  V30 35279 H 3264.98 -0.156059 -3.66268 0
M  V30 35280 H 3264.63 2.15802 -4.54355 0
M  V30 35281 H 3264.33 0.932776 -5.80149 0
M  V30 35282 H 3265.85 1.86512 -5.81417 0
M  V30 35283 H 3267.27 -0.404312 -5.71873 0
M  V30 35284 H 3265.67 -1.17799 -5.88424 0
M  V30 35285 H 3266.74 -1.66081 -4.55571 0
M  V30 35286 N 3268.08 1.52478 -0.398513 0
M  V30 35287 C 3269.04 2.25316 0.420167 0
M  V30 35288 C 3270.04 1.2729 0.982537 0
M  V30 35289 O 3271.23 1.51316 0.863087 0
M  V30 35290 C 3268.36 3.01528 1.59039 0
M  V30 35291 H 3269.56 2.99109 -0.217652 0
M  V30 35292 H 3267.11 1.55571 -0.150811 0
M  V30 35293 H 3267.85 2.32058 2.26538 0
M  V30 35294 H 3267.63 3.73486 1.19375 0
M  V30 35295 H 3269.12 3.56806 2.16977 0
M  V30 35296 N 3269.56 0.128608 1.57074 0
M  V30 35297 C 3270.8 -0.527834 1.95811 0
M  V30 35298 C 3271.14 -1.65713 1.01256 0
M  V30 35299 O 3270.41 -1.94432 0.0515195 0
M  V30 35300 C 3270.69 -1.05145 3.44408 0
M  V30 35301 C 3270.55 0.0750903 4.49737 0
M  V30 35302 C 3271.87 -1.93923 3.95072 0
M  V30 35303 H 3268.99 -0.190398 0.711982 0
M  V30 35304 H 3271.63 0.206114 1.88879 0
M  V30 35305 H 3269.78 -1.6769 3.50446 0
M  V30 35306 H 3271.45 0.710765 4.55791 0
M  V30 35307 H 3269.69 0.736884 4.27496 0
M  V30 35308 H 3270.36 -0.332682 5.50997 0
M  V30 35309 H 3272.84 -1.41235 3.91398 0
M  V30 35310 H 3271.72 -2.27475 4.99546 0
M  V30 35311 H 3271.98 -2.86935 3.36334 0
M  V30 35312 N 3271.04 -1.5693 -0.145178 0
M  V30 35313 C 3272.28 -1.83449 -0.857484 0
M  V30 35314 C 3272.61 -0.709771 -1.81087 0
M  V30 35315 O 3271.87 0.301063 -1.9337 0
M  V30 35316 C 3272.16 -3.16308 -1.66385 0
M  V30 35317 C 3271.83 -4.42679 -0.857093 0
M  V30 35318 C 3270.49 -4.76998 -0.634528 0
M  V30 35319 C 3272.84 -5.20376 -0.293014 0
M  V30 35320 C 3270.17 -5.86474 0.162796 0
M  V30 35321 C 3272.52 -6.30689 0.491359 0
M  V30 35322 C 3271.19 -6.63557 0.724485 0
M  V30 35323 H 3270.46 -0.671287 -0.313775 0
M  V30 35324 H 3273.11 -1.91117 -0.121041 0
M  V30 35325 H 3271.41 -3.04098 -2.47046 0
M  V30 35326 H 3273.11 -3.34042 -2.21849 0
M  V30 35327 H 3269.7 -4.15775 -1.04063 0
M  V30 35328 H 3273.88 -4.94235 -0.452239 0
M  V30 35329 H 3269.14 -6.10381 0.352895 0
M  V30 35330 H 3273.31 -6.90087 0.93557 0
M  V30 35331 H 3270.94 -7.48222 1.34416 0
M  V30 35332 N 3272.51 0.414582 -1.52049 0
M  V30 35333 C 3273.76 1.1591 -1.65069 0
M  V30 35334 C 3274.08 1.91794 -0.384003 0
M  V30 35335 O 3275.28 2.68627 -0.393919 0
M  V30 35336 C 3273.74 2.10924 -2.91614 0
M  V30 35337 C 3273.35 1.40582 -4.25371 0
M  V30 35338 C 3275.09 2.85668 -3.13997 0
M  V30 35339 C 3273 2.34214 -5.43045 0
M  V30 35340 H 3271.93 0.436376 -0.614892 0
M  V30 35341 H 3274.58 0.42404 -1.78533 0
M  V30 35342 H 3272.96 2.8796 -2.71837 0
M  V30 35343 H 3274.13 0.689488 -4.55612 0
M  V30 35344 H 3272.45 0.779016 -4.09048 0
M  V30 35345 H 3275.05 3.55854 -3.99089 0
M  V30 35346 H 3275.39 3.4831 -2.28004 0
M  V30 35347 H 3275.92 2.15734 -3.34221 0
M  V30 35348 H 3272.66 1.76227 -6.31367 0
M  V30 35349 H 3272.18 3.03836 -5.1715 0
M  V30 35350 H 3273.86 2.94857 -5.75906 0
M  V30 35351 N 3273.99 1.4258 0.671475 0
M  V30 35352 C 3274.94 1.46557 1.8062 0
M  V30 35353 C 3275.93 0.340961 1.65933 0
M  V30 35354 O 3277.14 0.514128 1.72501 0
M  V30 35355 H 3273.51 0.459077 0.595611 0
M  V30 35356 H 3275.49 2.42142 1.74384 0
M  V30 35357 C 3274.23 1.38807 3.18791 0
M  V30 35358 H 3273.56 2.24641 3.30721 0
M  V30 35359 H 3275 1.45652 3.98198 0
M  V30 35360 C 3273.46 0.103278 3.36742 0
M  V30 35361 O 3273.99 -0.842646 3.92762 0
M  V30 35362 N 3272.19 0.0193545 2.90594 0
M  V30 35363 H 3271.74 0.789903 2.4519 0
M  V30 35364 H 3271.7 -0.839633 3.02981 0
M  V30 35365 N 3275.47 -0.908102 1.28807 0
M  V30 35366 C 3276.72 -1.6524 1.15666 0
M  V30 35367 C 3277.03 -1.93395 -0.292849 0
M  V30 35368 O 3278.24 -2.65964 -0.545462 0
M  V30 35369 C 3276.69 -2.97704 2.02238 0
M  V30 35370 C 3276.3 -2.77175 3.51963 0
M  V30 35371 C 3278.05 -3.75601 1.97799 0
M  V30 35372 C 3275.95 -4.05314 4.30667 0
M  V30 35373 H 3274.88 -0.619859 0.429291 0
M  V30 35374 H 3277.53 -1.00728 1.53382 0
M  V30 35375 H 3275.92 -3.63382 1.57383 0
M  V30 35376 H 3277.09 -2.20142 4.04814 0
M  V30 35377 H 3275.4 -2.12684 3.57986 0
M  V30 35378 H 3278 -4.70591 2.53866 0
M  V30 35379 H 3278.34 -4.05174 0.956027 0
M  V30 35380 H 3278.88 -3.1675 2.40653 0
M  V30 35381 H 3275.62 -3.80911 5.33467 0
M  V30 35382 H 3275.14 -4.61937 3.82589 0
M  V30 35383 H 3276.82 -4.73528 4.40886 0
M  V30 35384 N 3276.95 -1.11147 -1.11732 0
M  V30 35385 C 3278.2 -0.853226 -1.82765 0
M  V30 35386 C 3278.51 0.623135 -1.85409 0
M  V30 35387 O 3279.72 0.997529 -2.52511 0
M  V30 35388 C 3278.17 -1.47664 -3.28213 0
M  V30 35389 C 3277.78 -2.98682 -3.33906 0
M  V30 35390 C 3279.52 -1.2981 -4.04165 0
M  V30 35391 C 3277.43 -3.54022 -4.73733 0
M  V30 35392 H 3276.36 -0.315535 -0.684802 0
M  V30 35393 H 3279.01 -1.33635 -1.25754 0
M  V30 35394 H 3277.39 -0.921184 -3.85137 0
M  V30 35395 H 3278.57 -3.60605 -2.86881 0
M  V30 35396 H 3276.88 -3.15776 -2.71431 0
M  V30 35397 H 3279.48 -1.68591 -5.07426 0
M  V30 35398 H 3279.82 -0.240375 -4.15605 0
M  V30 35399 H 3280.36 -1.82203 -3.5362 0
M  V30 35400 H 3277.09 -4.59493 -4.67489 0
M  V30 35401 H 3276.61 -2.96869 -5.2118 0
M  V30 35402 H 3278.29 -3.52281 -5.42685 0
M  V30 35403 N 3278.43 1.29282 -0.901326 0
M  V30 35404 C 3279.67 1.94773 -0.524044 0
M  V30 35405 C 3279.99 1.71826 0.934615 0
M  V30 35406 O 3281.19 2.31436 1.41949 0
M  V30 35407 C 3279.65 3.48816 -0.886324 0
M  V30 35408 C 3279.26 3.8056 -2.36386 0
M  V30 35409 C 3281 4.20532 -0.579029 0
M  V30 35410 C 3278.91 5.27854 -2.66692 0
M  V30 35411 H 3277.84 0.729077 -0.192257 0
M  V30 35412 H 3280.49 1.46984 -1.09854 0
M  V30 35413 H 3278.87 3.95268 -0.240735 0
M  V30 35414 H 3280.05 3.44961 -3.05514 0
M  V30 35415 H 3278.36 3.21986 -2.64034 0
M  V30 35416 H 3280.96 5.28947 -0.782278 0
M  V30 35417 H 3281.3 4.13494 0.482532 0
M  V30 35418 H 3281.83 3.79817 -1.18253 0
M  V30 35419 H 3278.57 5.39958 -3.71652 0
M  V30 35420 H 3278.09 5.64694 -2.02189 0
M  V30 35421 H 3279.77 5.95465 -2.53043 0
M  V30 35422 N 3279.9 0.663979 1.4293 0
M  V30 35423 C 3280.87 -0.0117223 2.29197 0
M  V30 35424 C 3281.87 -0.73985 1.42769 0
M  V30 35425 O 3283.06 -0.57948 1.64279 0
M  V30 35426 C 3280.19 -1.02732 3.25052 0
M  V30 35427 H 3281.38 0.747442 2.90436 0
M  V30 35428 H 3278.93 0.42576 1.50389 0
M  V30 35429 H 3279.67 -1.81535 2.68729 0
M  V30 35430 H 3279.45 -0.50874 3.88786 0
M  V30 35431 H 3280.94 -1.49887 3.89774 0
M  V30 35432 N 3281.38 -1.52265 0.406593 0
M  V30 35433 C 3282.63 -2.01785 -0.170017 0
M  V30 35434 C 3282.96 -1.29233 -1.45359 0
M  V30 35435 O 3282.21 -0.386375 -1.91848 0
M  V30 35436 C 3282.51 -3.54335 -0.467062 0
M  V30 35437 C 3282.18 -4.45 0.727009 0
M  V30 35438 C 3280.84 -4.69503 1.05454 0
M  V30 35439 C 3283.19 -4.9839 1.52502 0
M  V30 35440 C 3280.52 -5.44642 2.18132 0
M  V30 35441 C 3282.87 -5.74763 2.64254 0
M  V30 35442 C 3281.53 -5.97538 2.97496 0
M  V30 35443 H 3280.8 -0.738384 -0.0622137 0
M  V30 35444 H 3283.45 -1.83507 0.547492 0
M  V30 35445 H 3281.76 -3.70779 -1.26611 0
M  V30 35446 H 3283.45 -3.90159 -0.926126 0
M  V30 35447 H 3280.04 -4.26106 0.461741 0
M  V30 35448 H 3284.23 -4.79371 1.2852 0
M  V30 35449 H 3279.48 -5.60498 2.44238 0
M  V30 35450 H 3283.66 -6.1513 3.26479 0
M  V30 35451 H 3281.28 -6.55544 3.84924 0
M  V30 35452 N 3282.86 -0.136936 -1.57004 0
M  V30 35453 C 3284.11 0.516677 -1.95798 0
M  V30 35454 C 3284.44 1.65531 -1.02126 0
M  V30 35455 O 3283.69 1.9564 -0.0485179 0
M  V30 35456 C 3283.99 1.07325 -3.40905 0
M  V30 35457 C 3283.66 0.0541148 -4.50868 0
M  V30 35458 C 3282.32 -0.226072 -4.80669 0
M  V30 35459 C 3284.67 -0.639451 -5.17262 0
M  V30 35460 C 3282 -1.2058 -5.74175 0
M  V30 35461 C 3284.35 -1.60793 -6.11824 0
M  V30 35462 C 3283.01 -1.89592 -6.40009 0
M  V30 35463 H 3282.28 0.189065 -0.716474 0
M  V30 35464 H 3284.93 -0.221639 -1.90213 0
M  V30 35465 H 3283.24 1.8887 -3.43271 0
M  V30 35466 H 3284.93 1.58739 -3.68243 0
M  V30 35467 H 3281.52 0.282678 -4.27667 0
M  V30 35468 H 3285.71 -0.436172 -4.9438 0
M  V30 35469 H 3280.96 -1.43548 -5.9431 0
M  V30 35470 H 3285.14 -2.15093 -6.6235 0
M  V30 35471 H 3282.76 -2.65662 -7.12269 0
M  V30 35472 N 3284.34 1.57005 0.136853 0
M  V30 35473 C 3285.57 1.87797 0.861153 0
M  V30 35474 C 3285.98 0.724302 1.74787 0
M  V30 35475 O 3285.32 -0.314678 1.80985 0
M  V30 35476 C 3285.38 3.1341 1.7611 0
M  V30 35477 C 3285.05 4.44762 1.05051 0
M  V30 35478 C 3286.04 5.18362 0.399645 0
M  V30 35479 C 3283.73 4.91479 1.037 0
M  V30 35480 C 3285.72 6.36889 -0.255239 0
M  V30 35481 C 3283.41 6.09928 0.378307 0
M  V30 35482 C 3284.41 6.82479 -0.266675 0
M  V30 35483 O 3284.09 7.98677 -0.914898 0
M  V30 35484 H 3283.83 0.62653 0.253844 0
M  V30 35485 H 3286.38 2.0498 0.131255 0
M  V30 35486 H 3284.61 2.92262 2.53219 0
M  V30 35487 H 3286.3 3.30366 2.35824 0
M  V30 35488 H 3287.07 4.83333 0.401824 0
M  V30 35489 H 3282.94 4.34925 1.52844 0
M  V30 35490 H 3286.49 6.93456 -0.759257 0
M  V30 35491 H 3282.39 6.44417 0.373829 0
M  V30 35492 H 3283.15 8.14406 -0.817581 0
M  V30 35493 N 3285.82 -0.406513 1.52267 0
M  V30 35494 C 3287.23 -0.985214 1.58589 0
M  V30 35495 C 3287.58 -1.91475 0.427989 0
M  V30 35496 O 3286.7 -2.11642 -0.451304 0
M  V30 35497 C 3287.3 -1.7936 2.87429 0
M  V30 35498 C 3285.86 -2.32228 2.96221 0
M  V30 35499 C 3285 -1.12284 2.5355 0
M  V30 35500 H 3287.96 -0.186657 1.57598 0
M  V30 35501 H 3287.98 -2.65122 2.72929 0
M  V30 35502 H 3287.49 -1.1168 3.71684 0
M  V30 35503 H 3285.59 -3.03271 2.16466 0
M  V30 35504 H 3285.7 -2.62914 4.00516 0
M  V30 35505 H 3284.07 -1.47759 2.07459 0
M  V30 35506 H 3284.85 -0.461671 3.40182 0
M  V30 35507 N 3287.29 -1.42934 -0.663904 0
M  V30 35508 C 3288.52 -1.47189 -1.44979 0
M  V30 35509 C 3288.93 -0.0850423 -1.89009 0
M  V30 35510 O 3288.28 0.912827 -1.59415 0
M  V30 35511 C 3288.34 -2.34597 -2.72405 0
M  V30 35512 C 3288 -3.82305 -2.50383 0
M  V30 35513 C 3289 -4.73685 -2.14286 0
M  V30 35514 C 3286.68 -4.26684 -2.65039 0
M  V30 35515 C 3288.68 -6.07437 -1.93128 0
M  V30 35516 C 3286.36 -5.60493 -2.43496 0
M  V30 35517 C 3287.36 -6.50687 -2.07596 0
M  V30 35518 O 3287.05 -7.82022 -1.8627 0
M  V30 35519 H 3286.78 -0.502459 -0.452229 0
M  V30 35520 H 3289.34 -1.88226 -0.822195 0
M  V30 35521 H 3287.57 -1.88428 -3.37686 0
M  V30 35522 H 3289.26 -2.3018 -3.34323 0
M  V30 35523 H 3290.02 -4.4068 -2.02549 0
M  V30 35524 H 3285.9 -3.56764 -2.91959 0
M  V30 35525 H 3289.44 -6.77798 -1.6503 0
M  V30 35526 H 3285.34 -5.93069 -2.54833 0
M  V30 35527 H 3286.11 -7.93492 -2.00781 0
M  V30 35528 N 3288.77 0.901258 -1.29287 0
M  V30 35529 C 3289.71 2.00698 -1.08607 0
M  V30 35530 C 3290.68 1.626 0.00159375 0
M  V30 35531 O 3291.87 1.87912 -0.148797 0
M  V30 35532 C 3288.99 3.32345 -0.65303 0
M  V30 35533 C 3288.04 3.89429 -1.73918 0
M  V30 35534 S 3288.87 4.1873 -3.33804 0
M  V30 35535 C 3290.03 5.5342 -2.92364 0
M  V30 35536 H 3290.26 2.17932 -2.0222 0
M  V30 35537 H 3287.8 1.04767 -1.13416 0
M  V30 35538 H 3289.75 4.08448 -0.409897 0
M  V30 35539 H 3288.41 3.12993 0.263472 0
M  V30 35540 H 3287.61 4.84508 -1.38808 0
M  V30 35541 H 3287.21 3.20007 -1.93575 0
M  V30 35542 H 3289.5 6.33826 -2.39312 0
M  V30 35543 H 3290.44 5.93453 -3.86289 0
M  V30 35544 H 3290.85 5.15204 -2.30706 0
M  V30 35545 N 3290.25 1.11738 1.11141 0
M  V30 35546 C 3291.16 0.791369 2.2085 0
M  V30 35547 C 3292.18 -0.216803 1.72644 0
M  V30 35548 O 3293.35 -0.0522048 2.01332 0
M  V30 35549 C 3290.42 0.242755 3.45849 0
M  V30 35550 C 3289.48 1.30993 4.08827 0
M  V30 35551 C 3288.71 0.787398 5.2786 0
M  V30 35552 O 3288.93 -0.381449 5.69123 0
M  V30 35553 O 3287.87 1.55363 5.81503 0
M  V30 35554 H 3291.69 1.70748 2.51155 0
M  V30 35555 H 3289.28 0.893499 1.19737 0
M  V30 35556 H 3291.16 -0.0586732 4.21359 0
M  V30 35557 H 3289.84 -0.646023 3.17188 0
M  V30 35558 H 3288.74 1.66442 3.35034 0
M  V30 35559 H 3290.08 2.17221 4.41674 0
M  V30 35560 N 3291.73 -1.28802 0.90817 0
M  V30 35561 C 3292.98 -1.94825 0.537374 0
M  V30 35562 C 3293.3 -1.71883 -0.920932 0
M  V30 35563 O 3292.57 -1.05537 -1.65042 0
M  V30 35564 H 3291.15 -0.720898 0.195742 0
M  V30 35565 H 3293.81 -1.56893 1.15631 0
M  V30 35566 H 3292.91 -3.03512 0.727105 0
M  V30 35567 N 3293.21 -0.67155 -1.42576 0
M  V30 35568 C 3294.17 -0.000432769 -2.292 0
M  V30 35569 C 3295.17 0.732268 -1.43159 0
M  V30 35570 O 3296.36 0.57076 -1.64584 0
M  V30 35571 C 3293.49 1.01007 -3.25592 0
M  V30 35572 H 3294.68 -0.762834 -2.90036 0
M  V30 35573 H 3292.24 -0.433729 -1.50162 0
M  V30 35574 H 3292.97 1.80107 -2.69688 0
M  V30 35575 H 3292.76 0.488115 -3.8905 0
M  V30 35576 H 3294.25 1.47817 -3.90563 0
M  V30 35577 N 3294.68 1.52047 -0.414663 0
M  V30 35578 C 3295.91 2.06773 0.161101 0
M  V30 35579 C 3296.33 1.28222 1.37625 0
M  V30 35580 O 3295.69 0.313947 1.78561 0
M  V30 35581 C 3295.74 3.57331 0.484457 0
M  V30 35582 O 3294.84 3.81157 1.57459 0
M  V30 35583 H 3294.19 0.663895 0.0117886 0
M  V30 35584 H 3296.72 1.95925 -0.589459 0
M  V30 35585 H 3296.73 4.01205 0.741496 0
M  V30 35586 H 3295.4 4.13935 -0.403805 0
M  V30 35587 H 3293.98 3.49159 1.30928 0
M  V30 35588 N 3296.16 0.145261 1.56929 0
M  V30 35589 C 3297.39 -0.513279 2.00432 0
M  V30 35590 C 3297.81 -1.58532 1.02533 0
M  V30 35591 O 3297.16 -1.82487 0.0220779 0
M  V30 35592 C 3297.21 -1.11551 3.43858 0
M  V30 35593 O 3296.93 -0.0862937 4.38015 0
M  V30 35594 C 3298.44 -1.85483 4.0263 0
M  V30 35595 H 3295.66 -0.133766 0.657531 0
M  V30 35596 H 3298.2 0.239332 2.03095 0
M  V30 35597 H 3296.35 -1.81875 3.42053 0
M  V30 35598 H 3296.77 -0.527272 5.21843 0
M  V30 35599 H 3298.24 -2.22914 5.04989 0
M  V30 35600 H 3298.72 -2.74008 3.43243 0
M  V30 35601 H 3299.33 -1.19861 4.0806 0
M  V30 35602 N 3297.64 -1.57075 -0.128525 0
M  V30 35603 C 3298.89 -1.83984 -0.836323 0
M  V30 35604 C 3299.21 -0.729003 -1.80861 0
M  V30 35605 O 3298.48 0.247825 -1.94326 0
M  V30 35606 H 3297.06 -0.678797 -0.311838 0
M  V30 35607 H 3299.72 -1.94542 -0.118119 0
M  V30 35608 H 3298.82 -2.79569 -1.38736 0
M  V30 35609 N 3299.12 0.398432 -1.5248 0
M  V30 35610 C 3300.37 1.14608 -1.67311 0
M  V30 35611 C 3300.7 1.89884 -0.407128 0
M  V30 35612 O 3299.97 1.85182 0.594801 0
M  V30 35613 C 3300.26 2.13193 -2.90208 0
M  V30 35614 C 3300.11 1.41742 -4.26883 0
M  V30 35615 C 3301.43 3.13735 -3.08639 0
M  V30 35616 H 3298.55 0.415281 -0.60886 0
M  V30 35617 H 3301.19 0.430541 -1.85058 0
M  V30 35618 H 3299.34 2.74213 -2.75208 0
M  V30 35619 H 3301.01 0.837597 -4.53632 0
M  V30 35620 H 3299.25 0.719312 -4.27795 0
M  V30 35621 H 3299.93 2.13731 -5.08943 0
M  V30 35622 H 3302.4 2.62799 -3.22608 0
M  V30 35623 H 3301.28 3.7997 -3.96124 0
M  V30 35624 H 3301.54 3.82069 -2.22431 0
M  V30 35625 N 3300.6 1.43284 0.656314 0
M  V30 35626 C 3301.53 1.51007 1.78098 0
M  V30 35627 C 3302.51 0.365009 1.66138 0
M  V30 35628 O 3303.69 0.581811 1.8528 0
M  V30 35629 C 3300.82 1.42967 3.16509 0
M  V30 35630 C 3299.78 2.55691 3.43229 0
M  V30 35631 C 3299.1 2.32705 4.81407 0
M  V30 35632 C 3300.4 3.97949 3.38281 0
M  V30 35633 H 3302.1 2.4514 1.71892 0
M  V30 35634 H 3299.64 1.17986 0.825554 0
M  V30 35635 H 3301.6 1.46975 3.94938 0
M  V30 35636 H 3300.32 0.453376 3.23438 0
M  V30 35637 H 3298.98 2.51031 2.67168 0
M  V30 35638 H 3298.63 1.33325 4.85009 0
M  V30 35639 H 3298.33 3.08266 5.00246 0
M  V30 35640 H 3299.85 2.38491 5.62098 0
M  V30 35641 H 3301.27 4.04113 4.06652 0
M  V30 35642 H 3299.66 4.73511 3.68656 0
M  V30 35643 H 3300.73 4.23305 2.36518 0
M  V30 35644 N 3302.08 -0.894389 1.29763 0
M  V30 35645 C 3303.35 -1.62606 1.08714 0
M  V30 35646 C 3303.73 -2.07888 -0.366871 0
M  V30 35647 O 3303.08 -1.83867 -1.35666 0
M  V30 35648 C 3303.29 -2.80281 2.07952 0
M  V30 35649 C 3304.64 -3.50839 2.39159 0
M  V30 35650 O 3305.66 -2.90456 2.06188 0
M  V30 35651 O 3304.52 -4.59708 2.95517 0
M  V30 35652 H 3301.62 -0.714242 0.416879 0
M  V30 35653 H 3304.16 -0.941991 1.41155 0
M  V30 35654 H 3302.93 -2.44056 3.05864 0
M  V30 35655 H 3302.56 -3.5639 1.76273 0
M  V30 35656 N 3303.55 -1.12326 -1.10547 0
M  V30 35657 C 3304.78 -0.900959 -1.86809 0
M  V30 35658 C 3305.2 0.544399 -1.8005 0
M  V30 35659 O 3304.56 1.38528 -1.1696 0
M  V30 35660 C 3304.61 -1.37889 -3.33195 0
M  V30 35661 O 3303.71 -0.556601 -4.08627 0
M  V30 35662 H 3303.05 -0.32379 -0.579703 0
M  V30 35663 H 3305.58 -1.49506 -1.39675 0
M  V30 35664 H 3305.59 -1.37746 -3.84044 0
M  V30 35665 H 3304.27 -2.43133 -3.37431 0
M  V30 35666 H 3302.85 -0.624924 -3.67626 0
M  V30 35667 N 3305.03 1.28319 -0.914988 0
M  V30 35668 C 3306.44 1.7696 -0.595151 0
M  V30 35669 C 3306.79 1.74876 0.88955 0
M  V30 35670 O 3305.92 1.34421 1.69588 0
M  V30 35671 C 3306.51 3.2134 -1.07358 0
M  V30 35672 C 3305.07 3.67699 -0.804642 0
M  V30 35673 C 3304.22 2.48051 -1.2396 0
M  V30 35674 H 3307.17 1.14765 -1.09612 0
M  V30 35675 H 3307.19 3.78224 -0.415572 0
M  V30 35676 H 3306.7 3.22825 -2.15419 0
M  V30 35677 H 3304.8 3.71673 0.262704 0
M  V30 35678 H 3304.92 4.57782 -1.41325 0
M  V30 35679 H 3303.28 2.46045 -0.658317 0
M  V30 35680 H 3304.06 2.52254 -2.32858 0
M  V30 35681 N 3306.51 0.679102 1.42218 0
M  V30 35682 C 3307.44 0.0174939 2.33493 0
M  V30 35683 C 3308.42 -0.784744 1.50916 0
M  V30 35684 O 3309.61 -0.741034 1.79506 0
M  V30 35685 C 3306.74 -0.931404 3.34578 0
M  V30 35686 C 3305.69 -0.237452 4.27341 0
M  V30 35687 C 3305.02 -1.29958 5.18666 0
M  V30 35688 C 3306.32 0.886172 5.14727 0
M  V30 35689 H 3308.01 0.779798 2.89067 0
M  V30 35690 H 3305.56 0.376443 1.38992 0
M  V30 35691 H 3307.51 -1.40336 3.97346 0
M  V30 35692 H 3306.23 -1.72518 2.77318 0
M  V30 35693 H 3304.89 0.21431 3.65973 0
M  V30 35694 H 3304.54 -2.08546 4.57731 0
M  V30 35695 H 3304.24 -0.840361 5.8156 0
M  V30 35696 H 3305.76 -1.77238 5.84311 0
M  V30 35697 H 3307.18 0.495241 5.71157 0
M  V30 35698 H 3305.57 1.27146 5.86476 0
M  V30 35699 H 3306.64 1.73308 4.52871 0
M  V30 35700 N 3307.99 -1.51825 0.42272 0
M  V30 35701 C 3309.24 -2.01141 -0.15003 0
M  V30 35702 C 3309.55 -1.31217 -1.45057 0
M  V30 35703 O 3310.76 -1.71422 -2.10539 0
M  V30 35704 C 3309.21 -3.58493 -0.317922 0
M  V30 35705 C 3308.82 -4.37344 0.971321 0
M  V30 35706 C 3310.56 -4.16 -0.84523 0
M  V30 35707 C 3308.47 -5.86368 0.769872 0
M  V30 35708 H 3307.4 -0.751621 -0.0598435 0
M  V30 35709 H 3310.05 -1.75056 0.550248 0
M  V30 35710 H 3308.43 -3.80964 -1.08086 0
M  V30 35711 H 3309.61 -4.26626 1.74145 0
M  V30 35712 H 3307.92 -3.91219 1.42606 0
M  V30 35713 H 3310.52 -5.25032 -1.0122 0
M  V30 35714 H 3310.86 -3.74229 -1.82369 0
M  V30 35715 H 3311.4 -3.9755 -0.140997 0
M  V30 35716 H 3308.13 -6.32524 1.72028 0
M  V30 35717 H 3307.65 -5.99787 0.0392771 0
M  V30 35718 H 3309.33 -6.45653 0.417338 0
M  V30 35719 N 3309.47 -0.153581 -1.5685 0
M  V30 35720 C 3310.69 0.505869 -2.01136 0
M  V30 35721 C 3311.12 1.57194 -1.03304 0
M  V30 35722 O 3310.47 1.81297 -0.00979208 0
M  V30 35723 C 3310.52 1.07734 -3.44131 0
M  V30 35724 O 3309.63 2.19199 -3.49321 0
M  V30 35725 H 3308.97 0.123051 -0.652499 0
M  V30 35726 H 3311.5 -0.252252 -2.03039 0
M  V30 35727 H 3311.51 1.40437 -3.83068 0
M  V30 35728 H 3310.18 0.296681 -4.1484 0
M  V30 35729 H 3308.76 1.87675 -3.22231 0
M  V30 35730 N 3310.94 1.57141 0.120193 0
M  V30 35731 C 3311.87 2.03289 1.14873 0
M  V30 35732 C 3312.85 0.917137 1.43257 0
M  V30 35733 O 3314.04 1.18677 1.53719 0
M  V30 35734 C 3311.17 2.4362 2.47521 0
M  V30 35735 C 3310.12 3.58629 2.33601 0
M  V30 35736 C 3309.45 3.84856 3.71201 0
M  V30 35737 C 3310.75 4.90394 1.79752 0
M  V30 35738 H 3312.44 2.89465 0.764892 0
M  V30 35739 H 3309.99 1.39258 0.366492 0
M  V30 35740 H 3311.94 2.74509 3.19723 0
M  V30 35741 H 3310.67 1.54414 2.87791 0
M  V30 35742 H 3309.33 3.27948 1.63847 0
M  V30 35743 H 3308.97 2.92857 4.08954 0
M  V30 35744 H 3308.67 4.62269 3.62741 0
M  V30 35745 H 3310.2 4.18196 4.4491 0
M  V30 35746 H 3311.61 5.19827 2.41771 0
M  V30 35747 H 3310.01 5.71799 1.82116 0
M  V30 35748 H 3311.08 4.78986 0.755003 0
M  V30 35749 N 3312.42 -0.39034 1.5269 0
M  V30 35750 C 3313.35 -1.48322 1.80341 0
M  V30 35751 C 3314.33 -1.56968 0.655365 0
M  V30 35752 O 3315.52 -1.71938 0.902822 0
M  V30 35753 C 3312.65 -2.85948 1.97106 0
M  V30 35754 C 3311.6 -2.92143 3.12788 0
M  V30 35755 C 3310.93 -4.32205 3.14806 0
M  V30 35756 C 3312.23 -2.61911 4.51885 0
M  V30 35757 H 3313.92 -1.25432 2.71859 0
M  V30 35758 H 3311.47 -0.601972 1.30814 0
M  V30 35759 H 3313.42 -3.62407 2.15033 0
M  V30 35760 H 3312.15 -3.10173 1.02277 0
M  V30 35761 H 3310.8 -2.18132 2.94642 0
M  V30 35762 H 3310.45 -4.53467 2.17661 0
M  V30 35763 H 3310.15 -4.37271 3.92515 0
M  V30 35764 H 3311.68 -5.10572 3.34886 0
M  V30 35765 H 3313.09 -3.28088 4.7014 0
M  V30 35766 H 3311.49 -2.78328 5.31652 0
M  V30 35767 H 3312.56 -1.57258 4.58692 0
M  V30 35768 N 3313.9 -1.4363 -0.648706 0
M  V30 35769 C 3315.15 -1.45486 -1.40855 0
M  V30 35770 C 3315.48 -0.0808305 -1.94332 0
M  V30 35771 O 3314.73 0.914845 -1.73 0
M  V30 35772 C 3315.03 -2.4481 -2.6039 0
M  V30 35773 C 3314.7 -3.90575 -2.25305 0
M  V30 35774 C 3313.36 -4.30274 -2.15448 0
M  V30 35775 C 3315.71 -4.82413 -1.97299 0
M  V30 35776 C 3313.04 -5.59758 -1.75749 0
M  V30 35777 C 3315.39 -6.12267 -1.59097 0
M  V30 35778 C 3314.05 -6.50938 -1.47769 0
M  V30 35779 H 3313.32 -0.532371 -0.515424 0
M  V30 35780 H 3315.97 -1.76737 -0.737308 0
M  V30 35781 H 3314.28 -2.06979 -3.32666 0
M  V30 35782 H 3315.97 -2.43499 -3.18605 0
M  V30 35783 H 3312.56 -3.59158 -2.33888 0
M  V30 35784 H 3316.75 -4.52511 -2.03832 0
M  V30 35785 H 3312 -5.88555 -1.65568 0
M  V30 35786 H 3316.18 -6.82899 -1.3646 0
M  V30 35787 H 3313.8 -7.51177 -1.16779 0
M  V30 35788 N 3315.38 0.887495 -1.30236 0
M  V30 35789 C 3316.62 1.64158 -1.20099 0
M  V30 35790 C 3316.98 1.90866 0.242496 0
M  V30 35791 O 3316.27 1.51671 1.17075 0
M  V30 35792 C 3316.47 2.98829 -1.96051 0
M  V30 35793 C 3316.3 2.85268 -3.47638 0
M  V30 35794 C 3315.07 2.85385 -4.16994 0
M  V30 35795 C 3317.26 2.61401 -4.42915 0
M  V30 35796 N 3315.25 2.62689 -5.54858 0
M  V30 35797 C 3316.62 2.47803 -5.68325 0
M  V30 35798 C 3318.67 2.46605 -4.32539 0
M  V30 35799 C 3317.37 2.20915 -6.84536 0
M  V30 35800 C 3319.4 2.21102 -5.48514 0
M  V30 35801 C 3318.76 2.08279 -6.72904 0
M  V30 35802 H 3314.86 0.605781 -0.494524 0
M  V30 35803 H 3317.45 1.04602 -1.64215 0
M  V30 35804 H 3315.62 3.56422 -1.5433 0
M  V30 35805 H 3317.35 3.63415 -1.78078 0
M  V30 35806 H 3314.1 2.97122 -3.68803 0
M  V30 35807 H 3314.53 2.5436 -6.27399 0
M  V30 35808 H 3319.17 2.55256 -3.37052 0
M  V30 35809 H 3316.89 2.11001 -7.80067 0
M  V30 35810 H 3320.47 2.1048 -5.42392 0
M  V30 35811 H 3319.35 1.8882 -7.61129 0
M  V30 35812 N 3316.86 1.12911 1.0995 0
M  V30 35813 C 3318.11 0.882195 1.81384 0
M  V30 35814 C 3318.42 -0.593559 1.86377 0
M  V30 35815 O 3319.62 -0.957231 2.54066 0
M  V30 35816 C 3318.08 1.52867 3.25822 0
M  V30 35817 C 3317.69 3.03956 3.29112 0
M  V30 35818 C 3319.43 1.36223 4.02049 0
M  V30 35819 C 3317.34 3.61514 4.6804 0
M  V30 35820 H 3316.27 0.32639 0.679695 0
M  V30 35821 H 3318.92 1.35619 1.23612 0
M  V30 35822 H 3317.3 0.982339 3.83622 0
M  V30 35823 H 3318.48 3.65124 2.81107 0
M  V30 35824 H 3316.79 3.20054 2.66373 0
M  V30 35825 H 3319.39 1.76642 5.0468 0
M  V30 35826 H 3319.73 0.306464 4.1517 0
M  V30 35827 H 3320.26 1.87805 3.50676 0
M  V30 35828 H 3317 4.66873 4.6012 0
M  V30 35829 H 3316.52 3.05123 5.16392 0
M  V30 35830 H 3318.2 3.6087 5.37012 0
M  V30 35831 N 3318.33 -1.27832 0.92178 0
M  V30 35832 C 3319.26 -2.29441 0.433506 0
M  V30 35833 C 3320.25 -1.6249 -0.503104 0
M  V30 35834 O 3321.43 -1.89842 -0.409122 0
M  V30 35835 C 3318.56 -3.45823 -0.319968 0
M  V30 35836 C 3317.51 -4.24728 0.528253 0
M  V30 35837 C 3316.84 -5.33527 -0.354038 0
M  V30 35838 C 3318.14 -4.90681 1.78967 0
M  V30 35839 H 3319.83 -2.70532 1.28268 0
M  V30 35840 H 3317.38 -1.30054 0.61822 0
M  V30 35841 H 3319.33 -4.16 -0.672453 0
M  V30 35842 H 3318.06 -3.03633 -1.20311 0
M  V30 35843 H 3316.72 -3.56289 0.863364 0
M  V30 35844 H 3316.36 -4.87579 -1.23596 0
M  V30 35845 H 3316.06 -5.87225 0.209958 0
M  V30 35846 H 3317.59 -6.06549 -0.702226 0
M  V30 35847 H 3319 -5.53176 1.50561 0
M  V30 35848 H 3317.4 -5.54411 2.2967 0
M  V30 35849 H 3318.47 -4.14717 2.51273 0
M  V30 35850 N 3319.81 -0.686634 -1.41856 0
M  V30 35851 C 3321.06 -0.210986 -2.00593 0
M  V30 35852 C 3321.37 1.19338 -1.54977 0
M  V30 35853 O 3322.58 1.76603 -2.06213 0
M  V30 35854 C 3321.04 -0.326324 -3.58418 0
M  V30 35855 C 3320.64 -1.73549 -4.13019 0
M  V30 35856 C 3322.39 0.090007 -4.24405 0
M  V30 35857 C 3320.3 -1.80296 -5.63247 0
M  V30 35858 H 3319.23 -0.0751209 -0.750249 0
M  V30 35859 H 3321.88 -0.853536 -1.62441 0
M  V30 35860 H 3320.26 0.384325 -3.94131 0
M  V30 35861 H 3321.43 -2.47418 -3.88743 0
M  V30 35862 H 3319.75 -2.10071 -3.59526 0
M  V30 35863 H 3322.34 0.05991 -5.34666 0
M  V30 35864 H 3322.69 1.12726 -4.00747 0
M  V30 35865 H 3323.22 -0.570049 -3.93694 0
M  V30 35866 H 3319.96 -2.82044 -5.91719 0
M  V30 35867 H 3319.48 -1.108 -5.89477 0
M  V30 35868 H 3321.16 -1.56178 -6.27867 0
M  V30 35869 N 3321.29 1.51599 -0.430766 0
M  V30 35870 C 3322.53 2.03939 0.137148 0
M  V30 35871 C 3322.89 1.30825 1.4053 0
M  V30 35872 O 3324.1 1.73504 2.05304 0
M  V30 35873 C 3322.37 3.55609 0.357332 0
M  V30 35874 S 3323.93 4.29688 0.889593 0
M  V30 35875 H 3320.74 0.710141 0.0349304 0
M  V30 35876 H 3323.35 1.86427 -0.588661 0
M  V30 35877 H 3322.05 4.06393 -0.572082 0
M  V30 35878 H 3321.58 3.77404 1.11041 0
M  V30 35879 H 3323.6 4.46337 2.16789 0
M  V30 35880 N 3322.77 0.161897 1.56766 0
M  V30 35881 C 3324.02 -0.485462 1.96595 0
M  V30 35882 C 3324.34 -1.63886 1.04746 0
M  V30 35883 O 3323.6 -1.95538 0.0796364 0
M  V30 35884 C 3323.9 -1.01888 3.42569 0
M  V30 35885 C 3323.56 0.0176212 4.50897 0
M  V30 35886 C 3322.23 0.302514 4.80248 0
M  V30 35887 C 3324.58 0.721662 5.1618 0
M  V30 35888 C 3321.91 1.297 5.72184 0
M  V30 35889 C 3324.26 1.70507 6.09188 0
M  V30 35890 C 3322.92 1.9975 6.36911 0
M  V30 35891 H 3322.19 -0.177643 0.719391 0
M  V30 35892 H 3324.84 0.251872 1.89836 0
M  V30 35893 H 3323.14 -1.83385 3.46233 0
M  V30 35894 H 3324.84 -1.5286 3.70722 0
M  V30 35895 H 3321.43 -0.214605 4.28062 0
M  V30 35896 H 3325.61 0.514768 4.93623 0
M  V30 35897 H 3320.87 1.52985 5.91951 0
M  V30 35898 H 3325.04 2.25603 6.58845 0
M  V30 35899 H 3322.67 2.7696 7.07953 0
M  V30 35900 N 3324.25 -1.57203 -0.111858 0
M  V30 35901 C 3325.47 -1.89792 -0.836284 0
M  V30 35902 C 3325.9 -0.754544 -1.72303 0
M  V30 35903 O 3325.25 0.29464 -1.7889 0
M  V30 35904 C 3325.3 -3.21166 -1.63965 0
M  V30 35905 O 3324.41 -3.07575 -2.74721 0
M  V30 35906 H 3323.75 -0.622589 -0.230822 0
M  V30 35907 H 3326.28 -2.04393 -0.0921118 0
M  V30 35908 H 3326.29 -3.54063 -2.0274 0
M  V30 35909 H 3324.96 -4.03976 -0.988749 0
M  V30 35910 H 3323.54 -2.8616 -2.39096 0
M  V30 35911 N 3325.72 0.382237 -1.52894 0
M  V30 35912 C 3326.97 1.12382 -1.67491 0
M  V30 35913 C 3327.29 1.90936 -0.424599 0
M  V30 35914 O 3328.49 2.67731 -0.45081 0
M  V30 35915 C 3326.95 2.04691 -2.96023 0
M  V30 35916 C 3326.56 1.31528 -4.28257 0
M  V30 35917 C 3328.3 2.78943 -3.19986 0
M  V30 35918 C 3326.21 2.22642 -5.47891 0
M  V30 35919 H 3325.14 0.423235 -0.62401 0
M  V30 35920 H 3327.79 0.386075 -1.79393 0
M  V30 35921 H 3326.17 2.82129 -2.77883 0
M  V30 35922 H 3327.34 0.59269 -4.56972 0
M  V30 35923 H 3325.66 0.692075 -4.10608 0
M  V30 35924 H 3328.26 3.47309 -4.06547 0
M  V30 35925 H 3328.6 3.43395 -2.35341 0
M  V30 35926 H 3329.13 2.08596 -3.38722 0
M  V30 35927 H 3325.87 1.62795 -6.34963 0
M  V30 35928 H 3325.39 2.92798 -5.23478 0
M  V30 35929 H 3327.07 2.82575 -5.82031 0
M  V30 35930 N 3327.2 1.43972 0.64108 0
M  V30 35931 C 3328.17 1.49726 1.73536 0
M  V30 35932 C 3329.17 0.380466 1.56234 0
M  V30 35933 O 3330.36 0.642702 1.6191 0
M  V30 35934 C 3327.49 1.36159 3.12528 0
M  V30 35935 H 3328.68 2.47192 1.69812 0
M  V30 35936 H 3326.23 1.30917 0.853844 0
M  V30 35937 H 3326.97 0.397476 3.21855 0
M  V30 35938 H 3326.75 2.17129 3.26492 0
M  V30 35939 H 3328.24 1.43144 3.923 0
M  V30 35940 N 3328.68 -0.880575 1.30704 0
M  V30 35941 C 3329.64 -1.9683 1.17433 0
M  V30 35942 C 3330.64 -1.60461 0.104334 0
M  V30 35943 O 3331.83 -1.7059 0.352788 0
M  V30 35944 C 3328.97 -3.31376 0.800158 0
M  V30 35945 H 3330.16 -2.1003 2.14073 0
M  V30 35946 H 3327.71 -1.06753 1.14164 0
M  V30 35947 H 3328.45 -3.23877 -0.165549 0
M  V30 35948 H 3328.23 -3.59144 1.57348 0
M  V30 35949 H 3329.72 -4.11154 0.730898 0
M  V30 35950 N 3330.16 -1.13492 -1.09349 0
M  V30 35951 C 3331.09 -0.835627 -2.18036 0
M  V30 35952 C 3332.07 0.205343 -1.68856 0
M  V30 35953 O 3333.26 0.0641016 -1.94094 0
M  V30 35954 C 3330.39 -0.301721 -3.45987 0
M  V30 35955 C 3329.34 -1.27703 -4.08505 0
M  V30 35956 C 3328.67 -0.602851 -5.31291 0
M  V30 35957 C 3329.97 -2.63583 -4.50912 0
M  V30 35958 H 3331.66 -1.74446 -2.43329 0
M  V30 35959 H 3329.21 -0.840186 -1.16948 0
M  V30 35960 H 3331.16 -0.0800021 -4.21324 0
M  V30 35961 H 3329.88 0.642496 -3.20218 0
M  V30 35962 H 3328.54 -1.48475 -3.35187 0
M  V30 35963 H 3328.19 0.346865 -5.01803 0
M  V30 35964 H 3327.89 -1.25355 -5.74073 0
M  V30 35965 H 3329.41 -0.390432 -6.0935 0
M  V30 35966 H 3330.83 -2.46774 -5.1747 0
M  V30 35967 H 3329.22 -3.24836 -5.04581 0
M  V30 35968 H 3330.29 -3.21186 -3.63273 0
M  V30 35969 N 3331.64 1.27341 -0.928546 0
M  V30 35970 C 3332.88 1.94329 -0.569426 0
M  V30 35971 C 3333.21 1.72971 0.88945 0
M  V30 35972 O 3332.47 1.0525 1.64988 0
M  V30 35973 C 3332.77 3.47322 -0.842751 0
M  V30 35974 C 3332.43 3.88802 -2.2835 0
M  V30 35975 C 3331.09 3.99837 -2.67738 0
M  V30 35976 C 3333.45 4.09806 -3.22039 0
M  V30 35977 C 3330.77 4.29265 -3.99936 0
M  V30 35978 C 3333.13 4.40717 -4.53818 0
M  V30 35979 C 3331.79 4.49966 -4.93038 0
M  V30 35980 H 3331.06 0.7111 -0.208368 0
M  V30 35981 H 3333.71 1.51396 -1.17267 0
M  V30 35982 H 3332.01 3.91486 -0.156844 0
M  V30 35983 H 3333.71 3.97295 -0.543848 0
M  V30 35984 H 3330.3 3.8075 -1.96793 0
M  V30 35985 H 3334.48 4.00719 -2.9281 0
M  V30 35986 H 3329.74 4.34634 -4.30003 0
M  V30 35987 H 3333.91 4.55916 -5.26415 0
M  V30 35988 H 3331.54 4.72523 -5.95505 0
M  V30 35989 N 3333.12 0.694147 1.4149 0
M  V30 35990 C 3334.34 0.233503 2.05578 0
M  V30 35991 C 3334.76 -1.11673 1.52232 0
M  V30 35992 O 3334.12 -1.69758 0.669967 0
M  V30 35993 C 3334.17 0.181031 3.61046 0
M  V30 35994 O 3333.89 1.47792 4.12419 0
M  V30 35995 C 3335.39 -0.300776 4.42278 0
M  V30 35996 H 3332.61 0.108955 0.662095 0
M  V30 35997 H 3335.15 0.946331 1.81287 0
M  V30 35998 H 3333.31 -0.482611 3.84382 0
M  V30 35999 H 3333.72 1.36409 5.06451 0
M  V30 36000 H 3335.2 -0.286367 5.51257 0
M  V30 36001 H 3335.67 -1.33941 4.18278 0
M  V30 36002 H 3336.28 0.331816 4.24004 0
M  V30 36003 N 3334.59 -1.51368 0.438799 0
M  V30 36004 C 3335.54 -2.27784 -0.37191 0
M  V30 36005 C 3336.51 -1.31437 -1.01556 0
M  V30 36006 O 3337.7 -1.60341 -1.03418 0
M  V30 36007 C 3334.84 -3.12399 -1.46631 0
M  V30 36008 C 3333.95 -4.23742 -0.840653 0
M  V30 36009 C 3333.08 -4.95665 -1.91022 0
M  V30 36010 C 3332.12 -5.98926 -1.26308 0
M  V30 36011 N 3331.26 -6.64252 -2.27408 0
M  V30 36012 H 3336.1 -2.96623 0.2861 0
M  V30 36013 H 3333.64 -1.46303 0.152935 0
M  V30 36014 H 3335.59 -3.59785 -2.11213 0
M  V30 36015 H 3334.22 -2.45671 -2.09393 0
M  V30 36016 H 3333.28 -3.80309 -0.083092 0
M  V30 36017 H 3334.59 -4.97719 -0.328198 0
M  V30 36018 H 3333.74 -5.46606 -2.63262 0
M  V30 36019 H 3332.48 -4.21321 -2.45641 0
M  V30 36020 H 3331.49 -5.47277 -0.52615 0
M  V30 36021 H 3332.71 -6.75227 -0.724205 0
M  V30 36022 H 3330.66 -5.9272 -2.81104 0
M  V30 36023 H 3330.57 -7.33999 -1.81058 0
M  V30 36024 H 3331.84 -7.19822 -2.99127 0
M  V30 36025 N 3336.07 -0.170208 -1.56678 0
M  V30 36026 C 3337.49 0.185971 -1.58513 0
M  V30 36027 C 3337.69 1.62935 -1.18551 0
M  V30 36028 O 3336.74 2.36045 -0.896596 0
M  V30 36029 C 3338.06 -0.0938371 -3.00554 0
M  V30 36030 C 3339.6 -0.0319607 -3.12984 0
M  V30 36031 C 3340.08 -0.284744 -4.57114 0
M  V30 36032 N 3341.57 -0.232481 -4.62616 0
M  V30 36033 C 3342.31 -0.402261 -5.71987 0
M  V30 36034 N 3341.8 -0.631036 -6.8992 0
M  V30 36035 N 3343.59 -0.338243 -5.61081 0
M  V30 36036 H 3335.75 -1.11238 -1.80942 0
M  V30 36037 H 3338.01 -0.442143 -0.838578 0
M  V30 36038 H 3337.71 -1.09367 -3.34263 0
M  V30 36039 H 3337.59 0.615052 -3.72152 0
M  V30 36040 H 3339.98 0.958453 -2.79102 0
M  V30 36041 H 3340.06 -0.773543 -2.43824 0
M  V30 36042 H 3339.7 -1.27236 -4.91705 0
M  V30 36043 H 3339.63 0.477437 -5.24431 0
M  V30 36044 H 3342.12 -0.0612597 -3.7785 0
M  V30 36045 H 3342.43 -0.750066 -7.69151 0
M  V30 36046 H 3340.78 -0.667637 -6.91786 0
M  V30 36047 H 3343.97 -0.160112 -4.67826 0
M  V30 36048 H 3344.14 -0.473985 -6.46264 0
M  V30 36049 N 3337.55 1.5726 0.10352 0
M  V30 36050 C 3338.78 1.89581 0.821124 0
M  V30 36051 C 3339.19 0.761214 1.73211 0
M  V30 36052 O 3338.53 -0.276218 1.81611 0
M  V30 36053 C 3338.59 3.17075 1.69422 0
M  V30 36054 C 3338.26 4.4689 0.955935 0
M  V30 36055 C 3339.25 5.19093 0.289603 0
M  V30 36056 C 3336.94 4.93568 0.932515 0
M  V30 36057 C 3338.93 6.36204 -0.390275 0
M  V30 36058 C 3336.62 6.10593 0.248847 0
M  V30 36059 C 3337.62 6.8176 -0.411379 0
M  V30 36060 O 3337.31 7.96557 -1.0841 0
M  V30 36061 H 3337.04 0.631773 0.240497 0
M  V30 36062 H 3339.59 2.05212 0.0877456 0
M  V30 36063 H 3337.82 2.97567 2.46963 0
M  V30 36064 H 3339.51 3.35294 2.28764 0
M  V30 36065 H 3340.28 4.84076 0.299212 0
M  V30 36066 H 3336.16 4.38069 1.43585 0
M  V30 36067 H 3339.7 6.91689 -0.906179 0
M  V30 36068 H 3335.6 6.45065 0.237054 0
M  V30 36069 H 3336.36 8.12489 -0.990144 0
M  V30 36070 N 3339.03 -0.374123 1.53095 0
M  V30 36071 C 3340.25 -1.14297 1.73063 0
M  V30 36072 C 3340.68 -1.82523 0.454643 0
M  V30 36073 O 3340.04 -1.71407 -0.590713 0
M  V30 36074 C 3340.08 -2.15544 2.8909 0
M  V30 36075 O 3339.19 -3.22447 2.57102 0
M  V30 36076 H 3338.53 -0.332044 0.575015 0
M  V30 36077 H 3341.06 -0.433862 1.99947 0
M  V30 36078 H 3341.07 -2.5929 3.15012 0
M  V30 36079 H 3339.74 -1.65276 3.8165 0
M  V30 36080 H 3338.32 -2.83734 2.4197 0
M  V30 36081 N 3340.51 -1.4431 -0.633436 0
M  V30 36082 C 3341.75 -1.46252 -1.389 0
M  V30 36083 C 3342.07 -0.0981042 -1.95354 0
M  V30 36084 O 3343.27 0.00495058 -2.715 0
M  V30 36085 C 3341.73 -2.57467 -2.51473 0
M  V30 36086 C 3341.34 -4.00106 -2.01542 0
M  V30 36087 C 3343.08 -2.68628 -3.28693 0
M  V30 36088 C 3340.99 -5.0275 -3.11443 0
M  V30 36089 H 3339.92 -0.544121 -0.521966 0
M  V30 36090 H 3342.57 -1.70368 -0.681695 0
M  V30 36091 H 3340.95 -2.26588 -3.24767 0
M  V30 36092 H 3342.13 -4.40542 -1.35127 0
M  V30 36093 H 3340.44 -3.93168 -1.37143 0
M  V30 36094 H 3343.04 -3.42487 -4.10618 0
M  V30 36095 H 3343.38 -1.74367 -3.78024 0
M  V30 36096 H 3343.91 -2.98906 -2.62489 0
M  V30 36097 H 3340.65 -5.98631 -2.67059 0
M  V30 36098 H 3340.17 -4.66908 -3.76506 0
M  V30 36099 H 3341.85 -5.26346 -3.76256 0
M  V30 36100 N 3341.98 0.873632 -1.3117 0
M  V30 36101 C 3343.4 1.15878 -1.09747 0
M  V30 36102 C 3343.6 2.01051 0.134436 0
M  V30 36103 O 3342.66 2.38648 0.824815 0
M  V30 36104 C 3343.97 1.85446 -2.36707 0
M  V30 36105 C 3345.52 1.98163 -2.42282 0
M  V30 36106 C 3345.99 2.71145 -3.69113 0
M  V30 36107 N 3347.48 2.78684 -3.69986 0
M  V30 36108 C 3348.22 3.35757 -4.64817 0
M  V30 36109 N 3347.71 3.9379 -5.70001 0
M  V30 36110 N 3349.51 3.3368 -4.52343 0
M  V30 36111 H 3341.66 0.305984 -2.10184 0
M  V30 36112 H 3343.92 0.198142 -0.927062 0
M  V30 36113 H 3343.63 1.3031 -3.26668 0
M  V30 36114 H 3343.5 2.85751 -2.46224 0
M  V30 36115 H 3345.89 2.52465 -1.52792 0
M  V30 36116 H 3345.97 0.969122 -2.36731 0
M  V30 36117 H 3345.61 2.17512 -4.58967 0
M  V30 36118 H 3345.54 3.72796 -3.71928 0
M  V30 36119 H 3348.03 2.37493 -2.93948 0
M  V30 36120 H 3348.35 4.35439 -6.38446 0
M  V30 36121 H 3346.69 3.92176 -5.7378 0
M  V30 36122 H 3349.88 2.87578 -3.69346 0
M  V30 36123 H 3350.06 3.77861 -5.26426 0
M  V30 36124 N 3343.46 1.1407 1.08746 0
M  V30 36125 C 3344.87 0.918407 1.62549 0
M  V30 36126 C 3345.22 -0.54355 1.8852 0
M  V30 36127 O 3344.35 -1.41173 1.64009 0
M  V30 36128 C 3344.94 1.66071 2.95306 0
M  V30 36129 C 3343.5 1.48409 3.45907 0
M  V30 36130 C 3342.65 1.68543 2.20201 0
M  V30 36131 H 3345.6 1.293 0.920173 0
M  V30 36132 H 3345.62 1.12187 3.63585 0
M  V30 36133 H 3345.13 2.7247 2.76372 0
M  V30 36134 H 3343.24 0.443418 3.69952 0
M  V30 36135 H 3343.35 2.25176 4.22886 0
M  V30 36136 H 3341.71 1.11081 2.29201 0
M  V30 36137 H 3342.5 2.76278 2.03778 0
M  V30 36138 N 3344.94 -1.26847 0.935286 0
M  V30 36139 C 3345.87 -2.28968 0.457817 0
M  V30 36140 C 3346.85 -1.63014 -0.485841 0
M  V30 36141 O 3348.04 -1.90265 -0.388964 0
M  V30 36142 C 3345.17 -3.46143 -0.283271 0
M  V30 36143 C 3344.12 -4.24143 0.573271 0
M  V30 36144 C 3343.45 -5.33872 -0.297431 0
M  V30 36145 C 3344.75 -4.88755 1.84162 0
M  V30 36146 H 3346.44 -2.69157 1.3113 0
M  V30 36147 H 3343.99 -1.29391 0.631979 0
M  V30 36148 H 3345.94 -4.1669 -0.628292 0
M  V30 36149 H 3344.66 -3.04892 -1.17084 0
M  V30 36150 H 3343.32 -3.55353 0.901105 0
M  V30 36151 H 3342.97 -4.88862 -1.18418 0
M  V30 36152 H 3342.67 -5.86969 0.272229 0
M  V30 36153 H 3344.19 -6.07259 -0.637854 0
M  V30 36154 H 3345.61 -5.51548 1.5642 0
M  V30 36155 H 3344.01 -5.51944 2.35538 0
M  V30 36156 H 3345.08 -4.12028 2.55657 0
M  V30 36157 N 3346.42 -0.701641 -1.4112 0
M  V30 36158 C 3347.67 -0.232249 -2.00358 0
M  V30 36159 C 3347.98 1.17688 -1.56234 0
M  V30 36160 O 3349.19 1.74406 -2.08074 0
M  V30 36161 C 3347.64 -0.36432 -3.58051 0
M  V30 36162 C 3347.25 -1.7792 -4.11155 0
M  V30 36163 C 3348.99 0.0449881 -4.24476 0
M  V30 36164 C 3346.9 -1.8626 -5.61303 0
M  V30 36165 H 3345.83 -0.083074 -0.74941 0
M  V30 36166 H 3348.48 -0.870717 -1.61526 0
M  V30 36167 H 3346.86 0.3425 -3.94516 0
M  V30 36168 H 3348.04 -2.51527 -3.86097 0
M  V30 36169 H 3346.35 -2.13873 -3.57278 0
M  V30 36170 H 3348.95 0.0031981 -5.347 0
M  V30 36171 H 3349.29 1.08469 -4.0192 0
M  V30 36172 H 3349.83 -0.611773 -3.93068 0
M  V30 36173 H 3346.57 -2.88304 -5.88694 0
M  V30 36174 H 3346.09 -1.17046 -5.88269 0
M  V30 36175 H 3347.76 -1.62828 -6.26176 0
M  V30 36176 N 3347.9 1.51133 -0.446821 0
M  V30 36177 C 3349.14 2.02464 0.11663 0
M  V30 36178 C 3349.48 1.32978 1.4153 0
M  V30 36179 O 3348.75 0.447685 1.89278 0
M  V30 36180 C 3349.03 3.58625 0.325596 0
M  V30 36181 C 3348.89 4.38716 -0.992384 0
M  V30 36182 C 3350.21 4.26359 1.09113 0
M  V30 36183 H 3347.32 0.735864 0.0409133 0
M  V30 36184 H 3349.97 1.80683 -0.587672 0
M  V30 36185 H 3348.12 3.77315 0.925519 0
M  V30 36186 H 3349.79 4.31655 -1.62702 0
M  V30 36187 H 3348.03 4.03422 -1.59477 0
M  V30 36188 H 3348.7 5.46171 -0.800101 0
M  V30 36189 H 3351.18 4.11997 0.582871 0
M  V30 36190 H 3350.05 5.35485 1.20612 0
M  V30 36191 H 3350.32 3.87864 2.12164 0
M  V30 36192 N 3349.37 0.178515 1.56586 0
M  V30 36193 C 3350.34 -0.735081 2.17093 0
M  V30 36194 C 3351.34 -1.15293 1.1209 0
M  V30 36195 O 3352.53 -1.06872 1.37565 0
M  V30 36196 C 3349.66 -2.00146 2.75961 0
M  V30 36197 H 3350.85 -0.208219 2.99176 0
M  V30 36198 H 3348.41 -0.0710693 1.56138 0
M  V30 36199 H 3349.14 -2.57124 1.9763 0
M  V30 36200 H 3348.93 -1.71074 3.52812 0
M  V30 36201 H 3350.42 -2.6533 3.22475 0
M  V30 36202 N 3350.85 -1.57312 -0.0951784 0
M  V30 36203 C 3351.78 -2.05091 -1.11624 0
M  V30 36204 C 3352.76 -0.939812 -1.4178 0
M  V30 36205 O 3353.95 -1.21107 -1.51811 0
M  V30 36206 C 3351.08 -2.47527 -2.43613 0
M  V30 36207 C 3350.03 -3.623 -2.27866 0
M  V30 36208 C 3349.36 -3.90713 -3.65031 0
M  V30 36209 C 3350.66 -4.93192 -1.71928 0
M  V30 36210 H 3352.35 -2.90645 -0.718744 0
M  V30 36211 H 3349.9 -1.39824 -0.34429 0
M  V30 36212 H 3351.85 -2.79561 -3.15315 0
M  V30 36213 H 3350.58 -1.58973 -2.85298 0
M  V30 36214 H 3349.23 -3.30513 -1.58609 0
M  V30 36215 H 3348.88 -2.99326 -4.04244 0
M  V30 36216 H 3348.58 -4.67982 -3.5534 0
M  V30 36217 H 3350.11 -4.25221 -4.382 0
M  V30 36218 H 3351.52 -5.23607 -2.3347 0
M  V30 36219 H 3349.92 -5.74624 -1.72996 0
M  V30 36220 H 3350.99 -4.80127 -0.678705 0
M  V30 36221 N 3352.33 0.365999 -1.53291 0
M  V30 36222 C 3353.58 1.10599 -1.68673 0
M  V30 36223 C 3353.89 1.90475 -0.444826 0
M  V30 36224 O 3355.1 2.67238 -0.479182 0
M  V30 36225 C 3353.55 2.0154 -2.98177 0
M  V30 36226 C 3353.16 1.26978 -4.29628 0
M  V30 36227 C 3354.91 2.75534 -3.22926 0
M  V30 36228 C 3352.81 2.16819 -5.50221 0
M  V30 36229 H 3351.74 0.416593 -0.628464 0
M  V30 36230 H 3354.39 0.367027 -1.79792 0
M  V30 36231 H 3352.78 2.79166 -2.8086 0
M  V30 36232 H 3353.95 0.544189 -4.57575 0
M  V30 36233 H 3352.27 0.648486 -4.11319 0
M  V30 36234 H 3354.86 3.42978 -4.10208 0
M  V30 36235 H 3355.21 3.4088 -2.3897 0
M  V30 36236 H 3355.74 2.04992 -3.40915 0
M  V30 36237 H 3352.48 1.56051 -6.36654 0
M  V30 36238 H 3352 2.87229 -5.26554 0
M  V30 36239 H 3353.68 2.76386 -5.84995 0
M  V30 36240 N 3353.81 1.44644 0.625774 0
M  V30 36241 C 3354.74 1.54751 1.74855 0
M  V30 36242 C 3355.72 0.400167 1.65326 0
M  V30 36243 O 3356.9 0.620981 1.84004 0
M  V30 36244 C 3354.03 1.49648 3.13405 0
M  V30 36245 C 3352.99 2.62914 3.37728 0
M  V30 36246 C 3352.31 2.42864 4.76363 0
M  V30 36247 C 3353.61 4.05035 3.29764 0
M  V30 36248 H 3355.31 2.48731 1.66653 0
M  V30 36249 H 3352.85 1.1971 0.800342 0
M  V30 36250 H 3354.81 1.55319 3.91732 0
M  V30 36251 H 3353.53 0.52188 3.22403 0
M  V30 36252 H 3352.19 2.56642 2.61784 0
M  V30 36253 H 3351.84 1.43583 4.82071 0
M  V30 36254 H 3351.54 3.18807 4.93595 0
M  V30 36255 H 3353.06 2.5036 5.56913 0
M  V30 36256 H 3354.48 4.12648 3.97988 0
M  V30 36257 H 3352.87 4.81224 3.58529 0
M  V30 36258 H 3353.94 4.28227 2.27486 0
M  V30 36259 N 3355.29 -0.866663 1.31631 0
M  V30 36260 C 3356.7 -1.15294 1.1036 0
M  V30 36261 C 3356.9 -2.0112 -0.123772 0
M  V30 36262 O 3355.96 -2.39082 -0.812148 0
M  V30 36263 C 3357.27 -1.84188 2.37687 0
M  V30 36264 C 3358.82 -1.96876 2.43329 0
M  V30 36265 C 3359.29 -2.69184 3.70545 0
M  V30 36266 N 3360.79 -2.76718 3.71459 0
M  V30 36267 C 3361.52 -3.33287 4.66591 0
M  V30 36268 N 3361.02 -3.90761 5.72082 0
M  V30 36269 N 3362.81 -3.31276 4.54106 0
M  V30 36270 H 3354.96 -0.294833 2.10344 0
M  V30 36271 H 3357.22 -0.193223 0.9281 0
M  V30 36272 H 3356.93 -1.28576 3.27355 0
M  V30 36273 H 3356.8 -2.84441 2.47736 0
M  V30 36274 H 3359.19 -2.51652 1.54128 0
M  V30 36275 H 3359.27 -0.956554 2.37242 0
M  V30 36276 H 3358.92 -2.15075 4.60114 0
M  V30 36277 H 3358.85 -3.70818 3.739 0
M  V30 36278 H 3361.34 -2.3593 2.95204 0
M  V30 36279 H 3361.65 -4.32047 6.40746 0
M  V30 36280 H 3359.99 -3.89128 5.75851 0
M  V30 36281 H 3363.19 -2.85615 3.70866 0
M  V30 36282 H 3363.36 -3.75064 5.28423 0
M  V30 36283 N 3356.77 -1.14645 -1.0814 0
M  V30 36284 C 3357.99 -0.940382 -1.84856 0
M  V30 36285 C 3358.42 0.506085 -1.81164 0
M  V30 36286 O 3357.77 1.36016 -1.19872 0
M  V30 36287 C 3357.82 -1.44926 -3.30195 0
M  V30 36288 O 3356.93 -0.643151 -4.07354 0
M  V30 36289 H 3356.27 -0.336014 -0.572705 0
M  V30 36290 H 3358.8 -1.52435 -1.36473 0
M  V30 36291 H 3358.81 -1.45861 -3.81036 0
M  V30 36292 H 3357.48 -2.50235 -3.32197 0
M  V30 36293 H 3356.06 -0.702763 -3.66218 0
M  V30 36294 N 3358.24 1.26349 -0.942 0
M  V30 36295 C 3359.49 1.93008 -0.585745 0
M  V30 36296 C 3359.81 1.74713 0.879476 0
M  V30 36297 O 3361.01 2.35835 1.34514 0
M  V30 36298 C 3359.47 3.45819 -0.996848 0
M  V30 36299 C 3359.08 3.72846 -2.48374 0
M  V30 36300 C 3360.82 4.18477 -0.712525 0
M  V30 36301 C 3358.73 5.19102 -2.8335 0
M  V30 36302 H 3357.66 0.722592 -0.215354 0
M  V30 36303 H 3360.31 1.43415 -1.14475 0
M  V30 36304 H 3358.69 3.94302 -0.366365 0
M  V30 36305 H 3359.86 3.35066 -3.16334 0
M  V30 36306 H 3358.18 3.13423 -2.74145 0
M  V30 36307 H 3360.78 5.2619 -0.950162 0
M  V30 36308 H 3361.12 4.1482 0.350738 0
M  V30 36309 H 3361.65 3.75863 -1.30277 0
M  V30 36310 H 3358.39 5.27861 -3.88643 0
M  V30 36311 H 3357.91 5.57976 -2.20052 0
M  V30 36312 H 3359.59 5.87113 -2.71859 0
M  V30 36313 N 3359.72 0.709115 1.40746 0
M  V30 36314 C 3360.95 0.254924 2.05021 0
M  V30 36315 C 3361.36 -1.10592 1.53512 0
M  V30 36316 O 3360.7 -1.70493 0.683942 0
M  V30 36317 C 3360.76 0.149887 3.59187 0
M  V30 36318 C 3360.43 1.44496 4.33555 0
M  V30 36319 C 3361.43 2.38558 4.61937 0
M  V30 36320 C 3359.11 1.70209 4.72582 0
M  V30 36321 C 3361.1 3.56584 5.28324 0
M  V30 36322 C 3358.79 2.88518 5.38702 0
M  V30 36323 C 3359.79 3.81528 5.66502 0
M  V30 36324 O 3359.48 4.97763 6.31258 0
M  V30 36325 H 3359.21 0.113504 0.666403 0
M  V30 36326 H 3361.76 0.966131 1.8126 0
M  V30 36327 H 3359.99 -0.617209 3.81743 0
M  V30 36328 H 3361.68 -0.268894 4.05008 0
M  V30 36329 H 3362.45 2.19955 4.32256 0
M  V30 36330 H 3358.33 0.986707 4.50317 0
M  V30 36331 H 3361.87 4.292 5.4994 0
M  V30 36332 H 3357.77 3.07033 5.67803 0
M  V30 36333 H 3358.54 4.97756 6.49755 0
M  V30 36334 N 3361.2 -1.50894 0.454829 0
M  V30 36335 C 3362.43 -2.06339 -0.103749 0
M  V30 36336 C 3362.84 -1.32056 -1.35491 0
M  V30 36337 O 3362.18 -0.378552 -1.79757 0
M  V30 36338 C 3362.24 -3.56361 -0.474013 0
M  V30 36339 C 3361.91 -4.5202 0.672815 0
M  V30 36340 C 3362.9 -4.96253 1.55012 0
M  V30 36341 C 3360.59 -4.94909 0.858522 0
M  V30 36342 C 3362.58 -5.82065 2.59768 0
M  V30 36343 C 3360.27 -5.80507 1.90933 0
M  V30 36344 C 3361.27 -6.23984 2.77728 0
M  V30 36345 O 3360.96 -7.07879 3.81002 0
M  V30 36346 H 3360.69 -0.675991 -0.00354122 0
M  V30 36347 H 3363.24 -1.95245 0.63785 0
M  V30 36348 H 3361.47 -3.653 -1.26857 0
M  V30 36349 H 3363.16 -3.94243 -0.965775 0
M  V30 36350 H 3363.93 -4.638 1.41826 0
M  V30 36351 H 3359.81 -4.60598 0.192464 0
M  V30 36352 H 3363.35 -6.15922 3.27546 0
M  V30 36353 H 3359.25 -6.12373 2.04132 0
M  V30 36354 H 3360.01 -7.26095 3.77793 0
M  V30 36355 N 3362.68 -0.186817 -1.56489 0
M  V30 36356 C 3363.61 0.7327 -2.21706 0
M  V30 36357 C 3364.59 1.22753 -1.17753 0
M  V30 36358 O 3365.77 1.27787 -1.46233 0
M  V30 36359 C 3362.9 1.95579 -2.86995 0
M  V30 36360 C 3361.86 1.59621 -3.97121 0
M  V30 36361 C 3361.18 2.89523 -4.49534 0
M  V30 36362 C 3362.48 0.812427 -5.15943 0
M  V30 36363 H 3364.18 0.189042 -2.98803 0
M  V30 36364 H 3361.72 0.0894847 -1.43722 0
M  V30 36365 H 3363.68 2.60421 -3.31299 0
M  V30 36366 H 3362.4 2.52384 -2.07291 0
M  V30 36367 H 3361.06 0.971413 -3.53496 0
M  V30 36368 H 3360.71 3.44401 -3.66602 0
M  V30 36369 H 3360.41 2.66211 -5.23837 0
M  V30 36370 H 3361.93 3.55367 -4.96534 0
M  V30 36371 H 3363.35 1.36376 -5.56843 0
M  V30 36372 H 3361.74 0.677757 -5.9626 0
M  V30 36373 H 3362.81 -0.18818 -4.84535 0
M  V30 36374 N 3364.16 1.57361 0.0868344 0
M  V30 36375 C 3365.4 1.86137 0.787249 0
M  V30 36376 C 3365.72 0.776699 1.78864 0
M  V30 36377 O 3364.99 -0.196216 1.94915 0
M  V30 36378 H 3363.57 0.686827 0.293732 0
M  V30 36379 H 3366.24 1.94787 0.0664984 0
M  V30 36380 H 3365.33 2.83149 1.31275 0
M  V30 36381 N 3365.63 -0.357865 1.53483 0
M  V30 36382 C 3366.88 -1.09703 1.69257 0
M  V30 36383 C 3367.2 -1.90236 0.454921 0
M  V30 36384 O 3368.4 -2.6698 0.493347 0
M  V30 36385 C 3366.86 -1.99956 2.99242 0
M  V30 36386 C 3366.47 -1.24698 4.30296 0
M  V30 36387 C 3368.21 -2.73818 3.24383 0
M  V30 36388 C 3366.12 -2.13898 5.51364 0
M  V30 36389 H 3365.05 -0.413254 0.630664 0
M  V30 36390 H 3367.7 -0.357487 1.79984 0
M  V30 36391 H 3366.08 -2.77672 2.82337 0
M  V30 36392 H 3367.25 -0.519915 4.57858 0
M  V30 36393 H 3365.57 -0.626664 4.11657 0
M  V30 36394 H 3368.17 -3.40797 4.12021 0
M  V30 36395 H 3368.51 -3.39608 2.40775 0
M  V30 36396 H 3369.04 -2.03181 3.41998 0
M  V30 36397 H 3365.78 -1.52673 6.37473 0
M  V30 36398 H 3365.3 -2.84433 5.2807 0
M  V30 36399 H 3366.98 -2.7328 5.86453 0
M  V30 36400 N 3367.11 -1.44974 -0.618094 0
M  V30 36401 C 3368.36 -1.48148 -1.37465 0
M  V30 36402 C 3368.68 -0.1204 -1.94628 0
M  V30 36403 O 3367.95 0.848951 -1.76549 0
M  V30 36404 H 3366.53 -0.545545 -0.510283 0
M  V30 36405 H 3369.19 -1.80851 -0.726566 0
M  V30 36406 H 3368.29 -2.21434 -2.1994 0
M  V30 36407 N 3368.59 0.85967 -1.32089 0
M  V30 36408 C 3370 1.42936 -1.2011 0
M  V30 36409 C 3370.35 1.95294 0.188376 0
M  V30 36410 O 3369.48 1.8713 1.0868 0
M  V30 36411 C 3370.07 2.59817 -2.17441 0
M  V30 36412 C 3368.63 3.128 -2.09364 0
M  V30 36413 C 3367.78 1.85533 -2.06089 0
M  V30 36414 H 3370.73 0.667277 -1.4399 0
M  V30 36415 H 3370.75 3.36824 -1.77001 0
M  V30 36416 H 3370.26 2.21679 -3.18559 0
M  V30 36417 H 3368.36 3.55533 -1.11477 0
M  V30 36418 H 3368.48 3.74384 -2.98954 0
M  V30 36419 H 3366.84 2.04925 -1.51254 0
M  V30 36420 H 3367.62 1.49619 -3.0898 0
M  V30 36421 N 3370.07 1.15217 1.0753 0
M  V30 36422 C 3371.3 0.94972 1.83815 0
M  V30 36423 C 3371.71 -0.501959 1.82005 0
M  V30 36424 O 3371.07 -1.34808 1.23016 0
M  V30 36425 C 3371.12 1.45388 3.30975 0
M  V30 36426 O 3370.84 2.84869 3.32839 0
M  V30 36427 C 3372.34 1.29265 4.24035 0
M  V30 36428 H 3369.56 0.337414 0.579994 0
M  V30 36429 H 3372.1 1.52946 1.35749 0
M  V30 36430 H 3370.26 0.916704 3.76398 0
M  V30 36431 H 3370.67 3.07689 4.24768 0
M  V30 36432 H 3372.15 1.69389 5.25368 0
M  V30 36433 H 3372.62 0.236596 4.38562 0
M  V30 36434 H 3373.23 1.81881 3.84447 0
M  V30 36435 N 3371.55 -1.25848 0.948687 0
M  V30 36436 C 3372.48 -2.28469 0.482076 0
M  V30 36437 C 3373.46 -1.6352 -0.468524 0
M  V30 36438 O 3374.64 -1.90667 -0.368762 0
M  V30 36439 C 3371.77 -3.46424 -0.246542 0
M  V30 36440 C 3370.73 -4.23511 0.618225 0
M  V30 36441 C 3370.05 -5.34158 -0.24079 0
M  V30 36442 C 3371.35 -4.86775 1.89335 0
M  V30 36443 H 3373.05 -2.67751 1.33977 0
M  V30 36444 H 3370.59 -1.28713 0.645667 0
M  V30 36445 H 3372.55 -4.17333 -0.584062 0
M  V30 36446 H 3371.27 -3.06116 -1.13844 0
M  V30 36447 H 3369.93 -3.54377 0.938744 0
M  V30 36448 H 3369.58 -4.90091 -1.13226 0
M  V30 36449 H 3369.28 -5.86647 0.33447 0
M  V30 36450 H 3370.8 -6.07902 -0.57341 0
M  V30 36451 H 3372.21 -5.49858 1.62261 0
M  V30 36452 H 3370.61 -5.49415 2.41379 0
M  V30 36453 H 3371.68 -4.09294 2.60013 0
M  V30 36454 N 3373.02 -0.716569 -1.40368 0
M  V30 36455 C 3373.97 -0.0535129 -2.32538 0
M  V30 36456 C 3374.97 0.745958 -1.52092 0
M  V30 36457 O 3376.17 0.649215 -1.67884 0
M  V30 36458 H 3372.55 0.00149766 -0.751999 0
M  V30 36459 H 3374.52 -0.847585 -2.86109 0
M  V30 36460 C 3373.27 0.853456 -3.37063 0
M  V30 36461 H 3372.59 0.247684 -3.99032 0
M  V30 36462 H 3374.03 1.28534 -4.04048 0
M  V30 36463 C 3372.49 1.97936 -2.72623 0
M  V30 36464 O 3373.02 3.07029 -2.59029 0
M  V30 36465 N 3371.23 1.76328 -2.30991 0
M  V30 36466 H 3370.77 0.876021 -2.42247 0
M  V30 36467 H 3370.73 2.5184 -1.88213 0
M  V30 36468 N 3374.5 1.50651 -0.462825 0
M  V30 36469 C 3375.75 2.01468 0.0966484 0
M  V30 36470 C 3376.06 1.35017 1.41527 0
M  V30 36471 O 3377.27 1.76944 2.0592 0
M  V30 36472 C 3375.73 3.5921 0.222762 0
M  V30 36473 C 3375.33 4.34614 -1.08693 0
M  V30 36474 C 3377.08 4.18095 0.734638 0
M  V30 36475 C 3374.99 5.8412 -0.925067 0
M  V30 36476 H 3373.92 0.752944 0.0398945 0
M  V30 36477 H 3376.57 1.73535 -0.596467 0
M  V30 36478 H 3374.95 3.83696 0.979471 0
M  V30 36479 H 3376.12 4.21859 -1.85395 0
M  V30 36480 H 3374.44 3.87301 -1.52928 0
M  V30 36481 H 3377.03 5.27531 0.872641 0
M  V30 36482 H 3377.38 3.78933 1.72383 0
M  V30 36483 H 3377.91 3.97784 0.0355439 0
M  V30 36484 H 3374.65 6.27741 -1.88738 0
M  V30 36485 H 3374.17 5.99472 -0.198286 0
M  V30 36486 H 3375.85 6.44319 -0.588375 0
M  V30 36487 N 3375.98 0.195113 1.56388 0
M  V30 36488 C 3376.91 -0.720932 2.22092 0
M  V30 36489 C 3377.89 -1.22126 1.18403 0
M  V30 36490 O 3379.08 -1.2701 1.46909 0
M  V30 36491 C 3376.21 -1.94054 2.88028 0
M  V30 36492 C 3375.16 -1.57513 3.97962 0
M  V30 36493 C 3374.49 -2.87135 4.51063 0
M  V30 36494 C 3375.79 -0.785054 5.16366 0
M  V30 36495 H 3377.48 -0.173193 2.98899 0
M  V30 36496 H 3375.03 -0.0818615 1.43767 0
M  V30 36497 H 3376.98 -2.5866 3.32676 0
M  V30 36498 H 3375.7 -2.51281 2.08627 0
M  V30 36499 H 3374.36 -0.952653 3.54006 0
M  V30 36500 H 3374.01 -3.42451 3.68424 0
M  V30 36501 H 3373.71 -2.6343 5.25241 0
M  V30 36502 H 3375.23 -3.52729 4.98412 0
M  V30 36503 H 3376.65 -1.33421 5.57559 0
M  V30 36504 H 3375.05 -0.646126 5.96611 0
M  V30 36505 H 3376.12 0.213874 4.84428 0
M  V30 36506 N 3377.46 -1.57404 -0.0784879 0
M  V30 36507 C 3378.71 -1.86551 -0.777366 0
M  V30 36508 C 3379.03 -0.786173 -1.7845 0
M  V30 36509 O 3378.3 0.185876 -1.95016 0
M  V30 36510 H 3376.88 -0.688375 -0.290085 0
M  V30 36511 H 3379.54 -1.94819 -0.0561675 0
M  V30 36512 H 3378.64 -2.83841 -1.29771 0
M  V30 36513 N 3378.94 0.34972 -1.53671 0
M  V30 36514 C 3379.9 1.41207 -1.80536 0
M  V30 36515 C 3380.9 1.4589 -0.676213 0
M  V30 36516 O 3382.09 1.46374 -0.944479 0
M  V30 36517 C 3379.22 2.80191 -1.9418 0
M  V30 36518 H 3380.41 1.18653 -2.7543 0
M  V30 36519 H 3377.97 0.583762 -1.44989 0
M  V30 36520 H 3378.7 3.08037 -1.01407 0
M  V30 36521 H 3378.49 2.78189 -2.76321 0
M  V30 36522 H 3379.98 3.57095 -2.16502 0
M  V30 36523 N 3380.41 1.45299 0.610397 0
M  V30 36524 C 3381.34 1.56597 1.73204 0
M  V30 36525 C 3382.33 0.41768 1.64892 0
M  V30 36526 O 3383.51 0.640462 1.83335 0
M  V30 36527 C 3380.64 1.52964 3.118 0
M  V30 36528 C 3379.59 2.66481 3.3492 0
M  V30 36529 C 3378.92 2.47902 4.7376 0
M  V30 36530 C 3380.22 4.0851 3.25449 0
M  V30 36531 H 3381.91 2.50484 1.64006 0
M  V30 36532 H 3379.46 1.20552 0.7876 0
M  V30 36533 H 3381.41 1.59465 3.90063 0
M  V30 36534 H 3380.14 0.556046 3.21832 0
M  V30 36535 H 3378.8 2.59404 2.59047 0
M  V30 36536 H 3378.44 1.48688 4.80521 0
M  V30 36537 H 3378.14 3.24025 4.90185 0
M  V30 36538 H 3379.67 2.56253 5.54226 0
M  V30 36539 H 3381.08 4.16846 3.93589 0
M  V30 36540 H 3379.48 4.85 3.53405 0
M  V30 36541 H 3380.55 4.30615 2.22931 0
M  V30 36542 N 3381.89 -0.852653 1.32543 0
M  V30 36543 C 3382.84 -1.9828 1.21605 0
M  V30 36544 C 3383.83 -1.68971 0.120414 0
M  V30 36545 O 3385.04 -1.77754 0.283472 0
M  V30 36546 H 3381.42 -0.65067 0.377005 0
M  V30 36547 H 3383.39 -2.04632 2.17183 0
M  V30 36548 C 3382.14 -3.34241 0.958024 0
M  V30 36549 H 3381.46 -3.57324 1.7933 0
M  V30 36550 H 3382.9 -4.1386 0.921746 0
M  V30 36551 C 3381.36 -3.35188 -0.339212 0
M  V30 36552 O 3381.89 -3.7832 -1.35043 0
M  V30 36553 N 3380.09 -2.88338 -0.361893 0
M  V30 36554 H 3379.64 -2.53432 0.461542 0
M  V30 36555 H 3379.6 -2.89354 -1.22971 0
M  V30 36556 N 3383.37 -1.15786 -1.06918 0
M  V30 36557 C 3384.3 -0.881687 -2.16214 0
M  V30 36558 C 3385.28 0.16948 -1.69254 0
M  V30 36559 O 3386.47 0.0229169 -1.94186 0
M  V30 36560 C 3383.6 -0.375042 -3.45269 0
M  V30 36561 C 3382.55 -1.36339 -4.05704 0
M  V30 36562 C 3381.88 -0.71541 -5.29892 0
M  V30 36563 C 3383.18 -2.73088 -4.45219 0
M  V30 36564 H 3384.87 -1.79568 -2.39574 0
M  V30 36565 H 3382.42 -0.864804 -1.1514 0
M  V30 36566 H 3384.37 -0.169353 -4.2106 0
M  V30 36567 H 3383.09 0.574428 -3.21509 0
M  V30 36568 H 3381.75 -1.55552 -3.31963 0
M  V30 36569 H 3381.4 0.240347 -5.02425 0
M  V30 36570 H 3381.1 -1.37504 -5.71285 0
M  V30 36571 H 3382.62 -0.519596 -6.08385 0
M  V30 36572 H 3384.04 -2.57695 -5.12119 0
M  V30 36573 H 3382.44 -3.35466 -4.97577 0
M  V30 36574 H 3383.51 -3.28819 -3.56379 0
M  V30 36575 N 3384.85 1.25343 -0.955348 0
M  V30 36576 C 3386.08 1.97148 -0.627728 0
M  V30 36577 C 3386.49 1.70998 0.800319 0
M  V30 36578 O 3385.85 0.986444 1.53543 0
M  V30 36579 C 3385.9 3.50682 -0.877737 0
M  V30 36580 O 3385.62 3.7593 -2.24963 0
M  V30 36581 C 3387.12 4.39715 -0.562602 0
M  V30 36582 H 3384.34 0.628398 -0.23528 0
M  V30 36583 H 3386.89 1.59494 -1.27992 0
M  V30 36584 H 3385.04 3.86444 -0.271945 0
M  V30 36585 H 3385.45 4.70385 -2.3203 0
M  V30 36586 H 3386.93 5.46346 -0.788068 0
M  V30 36587 H 3387.41 4.36312 0.502853 0
M  V30 36588 H 3388.01 4.0952 -1.14775 0
M  V30 36589 N 3386.33 0.724003 1.39986 0
M  V30 36590 C 3387.28 0.0658442 2.32507 0
M  V30 36591 C 3388.27 -0.737881 1.52485 0
M  V30 36592 O 3389.48 -0.640303 1.68226 0
M  V30 36593 H 3385.85 0.00249039 0.751996 0
M  V30 36594 H 3387.82 0.862746 2.85656 0
M  V30 36595 C 3386.57 -0.835568 3.37511 0
M  V30 36596 H 3385.89 -0.226518 3.99158 0
M  V30 36597 H 3387.33 -1.26389 4.04724 0
M  V30 36598 C 3385.79 -1.96487 2.73668 0
M  V30 36599 O 3386.32 -3.05651 2.60654 0
M  V30 36600 N 3384.53 -1.751 2.31923 0
M  V30 36601 H 3384.08 -0.863162 2.42708 0
M  V30 36602 H 3384.03 -2.50838 1.89546 0
M  V30 36603 N 3387.81 -1.50403 0.470808 0
M  V30 36604 C 3388.75 -2.28521 -0.32351 0
M  V30 36605 C 3389.72 -1.33561 -0.987449 0
M  V30 36606 O 3390.91 -1.62499 -0.999941 0
M  V30 36607 C 3388.05 -3.15439 -1.39972 0
M  V30 36608 C 3387.16 -4.2543 -0.750582 0
M  V30 36609 C 3386.3 -4.99605 -1.80466 0
M  V30 36610 C 3385.33 -6.01471 -1.13575 0
M  V30 36611 N 3384.47 -6.68926 -2.13267 0
M  V30 36612 H 3389.31 -2.9595 0.348954 0
M  V30 36613 H 3386.85 -1.45946 0.183934 0
M  V30 36614 H 3388.81 -3.64184 -2.03534 0
M  V30 36615 H 3387.44 -2.50058 -2.04135 0
M  V30 36616 H 3386.49 -3.804 -0.00240405 0
M  V30 36617 H 3387.8 -4.98303 -0.22255 0
M  V30 36618 H 3386.95 -5.52067 -2.51609 0
M  V30 36619 H 3385.69 -4.26437 -2.36649 0
M  V30 36620 H 3384.7 -5.4827 -0.409946 0
M  V30 36621 H 3385.92 -6.76612 -0.580816 0
M  V30 36622 H 3383.87 -5.98549 -2.68468 0
M  V30 36623 H 3383.79 -7.37674 -1.65448 0
M  V30 36624 H 3385.05 -7.26005 -2.83791 0
M  V30 36625 N 3389.28 -0.203404 -1.56282 0
M  V30 36626 C 3390.53 0.433426 -1.96988 0
M  V30 36627 C 3390.85 1.62181 -1.09347 0
M  V30 36628 O 3392.05 2.32697 -1.39872 0
M  V30 36629 C 3390.51 0.822508 -3.50375 0
M  V30 36630 C 3390.12 -0.342048 -4.46692 0
M  V30 36631 C 3391.86 1.42596 -3.99833 0
M  V30 36632 C 3389.77 0.0684569 -5.9136 0
M  V30 36633 H 3388.7 0.165704 -0.735566 0
M  V30 36634 H 3391.35 -0.29674 -1.81085 0
M  V30 36635 H 3389.73 1.60958 -3.61813 0
M  V30 36636 H 3390.9 -1.1196 -4.46992 0
M  V30 36637 H 3389.22 -0.857535 -4.07474 0
M  V30 36638 H 3391.82 1.74568 -5.05401 0
M  V30 36639 H 3392.16 2.33538 -3.44624 0
M  V30 36640 H 3392.69 0.702689 -3.91545 0
M  V30 36641 H 3389.43 -0.806994 -6.50514 0
M  V30 36642 H 3388.95 0.810694 -5.94296 0
M  V30 36643 H 3390.63 0.501411 -6.45054 0
M  V30 36644 N 3390.76 1.57444 0.0701393 0
M  V30 36645 C 3392.01 1.87609 0.77012 0
M  V30 36646 C 3392.34 0.795906 1.77141 0
M  V30 36647 O 3391.62 -0.19364 1.93534 0
M  V30 36648 C 3391.9 3.28432 1.47662 0
M  V30 36649 C 3391.75 4.47105 0.491634 0
M  V30 36650 C 3393.07 3.67518 2.42112 0
M  V30 36651 H 3390.19 0.682351 0.278507 0
M  V30 36652 H 3392.83 1.89971 0.033285 0
M  V30 36653 H 3390.98 3.26549 2.1047 0
M  V30 36654 H 3392.65 4.61113 -0.131364 0
M  V30 36655 H 3390.9 4.33371 -0.192894 0
M  V30 36656 H 3391.57 5.42426 1.02363 0
M  V30 36657 H 3394.04 3.70506 1.8938 0
M  V30 36658 H 3392.92 4.66938 2.88548 0
M  V30 36659 H 3393.18 2.9754 3.2699 0
M  V30 36660 N 3392.24 -0.341566 1.53854 0
M  V30 36661 C 3393.49 -1.08159 1.71196 0
M  V30 36662 C 3393.81 -1.88581 0.476174 0
M  V30 36663 O 3393.07 -1.88042 -0.542082 0
M  V30 36664 C 3393.37 -2.04878 2.92847 0
M  V30 36665 C 3393.03 -1.40752 4.28369 0
M  V30 36666 C 3391.7 -1.22992 4.65216 0
M  V30 36667 C 3394.05 -0.945729 5.12548 0
M  V30 36668 C 3391.38 -0.576749 5.83858 0
M  V30 36669 C 3393.73 -0.306457 6.31857 0
M  V30 36670 C 3392.39 -0.11656 6.67398 0
M  V30 36671 H 3391.66 -0.395781 0.626449 0
M  V30 36672 H 3394.31 -0.360655 1.88073 0
M  V30 36673 H 3392.61 -2.8336 2.70581 0
M  V30 36674 H 3394.31 -2.62134 3.03458 0
M  V30 36675 H 3390.9 -1.55573 3.99368 0
M  V30 36676 H 3395.09 -1.07078 4.84611 0
M  V30 36677 H 3390.34 -0.418256 6.09968 0
M  V30 36678 H 3394.52 0.0594509 6.96375 0
M  V30 36679 H 3392.14 0.391611 7.59191 0
M  V30 36680 N 3393.72 -1.45621 -0.602683 0
M  V30 36681 C 3394.96 -1.50116 -1.36357 0
M  V30 36682 C 3395.3 -0.144332 -1.93663 0
M  V30 36683 O 3394.57 0.84182 -1.75339 0
M  V30 36684 C 3394.85 -2.58418 -2.50783 0
M  V30 36685 C 3394.71 -4.03561 -1.98642 0
M  V30 36686 C 3396.03 -2.62963 -3.529 0
M  V30 36687 H 3393.15 -0.546528 -0.494445 0
M  V30 36688 H 3395.79 -1.77456 -0.678925 0
M  V30 36689 H 3393.94 -2.35235 -3.09187 0
M  V30 36690 H 3395.61 -4.37968 -1.4485 0
M  V30 36691 H 3393.85 -4.13986 -1.29608 0
M  V30 36692 H 3394.52 -4.75035 -2.8115 0
M  V30 36693 H 3397 -2.83748 -3.04345 0
M  V30 36694 H 3395.88 -3.40597 -4.30448 0
M  V30 36695 H 3396.14 -1.68241 -4.08837 0
M  V30 36696 N 3395.2 0.845612 -1.32993 0
M  V30 36697 C 3396.44 1.60279 -1.24251 0
M  V30 36698 C 3396.77 1.93238 0.193015 0
M  V30 36699 O 3396.05 1.58124 1.13257 0
M  V30 36700 C 3396.33 2.91723 -2.11116 0
M  V30 36701 C 3396.19 2.65488 -3.63093 0
M  V30 36702 C 3397.5 3.93085 -1.97919 0
M  V30 36703 H 3394.62 0.58157 -0.452709 0
M  V30 36704 H 3397.27 0.975799 -1.63028 0
M  V30 36705 H 3395.42 3.45233 -1.78175 0
M  V30 36706 H 3397.09 2.18462 -4.06291 0
M  V30 36707 H 3395.33 1.993 -3.85308 0
M  V30 36708 H 3396 3.59121 -4.19209 0
M  V30 36709 H 3398.48 3.4886 -2.26794 0
M  V30 36710 H 3397.35 4.82898 -2.6096 0
M  V30 36711 H 3397.61 4.31784 -0.949453 0
M  V30 36712 N 3396.67 1.16351 1.06302 0
M  V30 36713 C 3397.9 0.969672 1.83336 0
M  V30 36714 C 3398.32 -0.477199 1.81946 0
M  V30 36715 O 3397.68 -1.34092 1.2202 0
M  V30 36716 C 3397.73 1.5016 3.27848 0
M  V30 36717 O 3396.83 0.707877 4.06279 0
M  V30 36718 H 3396.17 0.345082 0.567287 0
M  V30 36719 H 3398.7 1.54587 1.3403 0
M  V30 36720 H 3398.71 1.51905 3.78667 0
M  V30 36721 H 3397.39 2.55489 3.28174 0
M  V30 36722 H 3395.97 0.760936 3.65054 0
M  V30 36723 N 3398.15 -1.24835 0.961982 0
M  V30 36724 C 3399.4 -1.92751 0.620749 0
M  V30 36725 C 3399.73 -1.75269 -0.843277 0
M  V30 36726 O 3398.98 -1.09587 -1.62139 0
M  V30 36727 C 3399.28 -3.44965 0.934541 0
M  V30 36728 C 3398.95 -3.82611 2.38578 0
M  V30 36729 C 3397.61 -3.92598 2.78245 0
M  V30 36730 C 3399.96 -4.01123 3.32791 0
M  V30 36731 C 3397.29 -4.1851 4.11176 0
M  V30 36732 C 3399.64 -4.2853 4.65343 0
M  V30 36733 C 3398.3 -4.36736 5.04795 0
M  V30 36734 H 3397.57 -0.705326 0.227148 0
M  V30 36735 H 3400.22 -1.48234 1.2124 0
M  V30 36736 H 3398.53 -3.90932 0.260584 0
M  V30 36737 H 3400.22 -3.95713 0.648993 0
M  V30 36738 H 3396.81 -3.75398 2.06819 0
M  V30 36739 H 3401 -3.92815 3.03332 0
M  V30 36740 H 3396.25 -4.23081 4.41376 0
M  V30 36741 H 3400.43 -4.41799 5.38318 0
M  V30 36742 H 3398.05 -4.56568 6.07824 0
M  V30 36743 N 3399.63 -0.731417 -1.396 0
M  V30 36744 C 3400.88 -0.278203 -2.00883 0
M  V30 36745 C 3401.21 1.13056 -1.57899 0
M  V30 36746 O 3400.48 1.77003 -0.806234 0
M  V30 36747 C 3400.77 -0.376032 -3.58131 0
M  V30 36748 C 3400.62 -1.82431 -4.11144 0
M  V30 36749 C 3401.94 0.243625 -4.39425 0
M  V30 36750 H 3399.06 -0.102562 -0.729829 0
M  V30 36751 H 3401.7 -0.926898 -1.65857 0
M  V30 36752 H 3399.85 0.17626 -3.881 0
M  V30 36753 H 3401.52 -2.4332 -3.9191 0
M  V30 36754 H 3399.76 -2.34682 -3.64838 0
M  V30 36755 H 3400.44 -1.84405 -5.20287 0
M  V30 36756 H 3402.91 -0.22714 -4.1548 0
M  V30 36757 H 3401.79 0.144811 -5.48709 0
M  V30 36758 H 3402.05 1.32922 -4.21645 0
M  V30 36759 N 3401.11 1.50152 -0.478778 0
M  V30 36760 C 3402.36 2.01967 0.0734042 0
M  V30 36761 C 3402.68 1.36231 1.39521 0
M  V30 36762 O 3401.95 0.510183 1.8914 0
M  V30 36763 H 3400.53 0.746393 0.0301174 0
M  V30 36764 H 3403.19 1.84404 -0.630954 0
M  V30 36765 H 3402.29 3.11328 0.219315 0
M  V30 36766 N 3402.59 0.211689 1.56172 0
M  V30 36767 C 3403.53 -0.719024 2.21208 0
M  V30 36768 C 3404.53 -1.20723 1.18837 0
M  V30 36769 O 3405.73 -1.1682 1.36942 0
M  V30 36770 H 3402.11 -0.250266 0.709134 0
M  V30 36771 H 3404.08 -0.146969 2.98038 0
M  V30 36772 C 3402.83 -1.92079 2.89829 0
M  V30 36773 H 3402.15 -1.55421 3.68353 0
M  V30 36774 H 3403.59 -2.55 3.38749 0
M  V30 36775 C 3402.05 -2.77001 1.91761 0
M  V30 36776 O 3402.58 -3.75449 1.42833 0
M  V30 36777 N 3400.79 -2.42833 1.59626 0
M  V30 36778 H 3400.33 -1.62831 1.99609 0
M  V30 36779 H 3400.29 -2.99934 0.942694 0
M  V30 36780 N 3404.06 -1.57479 -0.0617887 0
M  V30 36781 C 3405.48 -1.54061 -0.4168 0
M  V30 36782 C 3405.68 -0.933308 -1.78582 0
M  V30 36783 O 3404.74 -0.540134 -2.46655 0
M  V30 36784 C 3406.05 -2.98672 -0.348676 0
M  V30 36785 C 3407.6 -3.10058 -0.42814 0
M  V30 36786 C 3408.07 -4.56338 -0.389817 0
M  V30 36787 N 3409.56 -4.61013 -0.449596 0
M  V30 36788 C 3410.3 -5.71691 -0.442317 0
M  V30 36789 N 3409.79 -6.91706 -0.38926 0
M  V30 36790 N 3411.59 -5.59964 -0.48962 0
M  V30 36791 H 3403.74 -1.95319 0.834521 0
M  V30 36792 H 3406 -0.89443 0.314164 0
M  V30 36793 H 3405.71 -3.46702 0.590799 0
M  V30 36794 H 3405.58 -3.5908 -1.15505 0
M  V30 36795 H 3407.97 -2.61995 -1.35804 0
M  V30 36796 H 3408.05 -2.52542 0.40699 0
M  V30 36797 H 3407.69 -5.05061 0.536275 0
M  V30 36798 H 3407.62 -5.11729 -1.24262 0
M  V30 36799 H 3410.11 -3.74651 -0.494444 0
M  V30 36800 H 3410.43 -7.71826 -0.387907 0
M  V30 36801 H 3408.77 -6.94089 -0.355796 0
M  V30 36802 H 3411.96 -4.65103 -0.528833 0
M  V30 36803 H 3412.14 -6.46216 -0.480479 0
M  V30 36804 N 3405.54 0.333401 -1.54033 0
M  V30 36805 C 3406.79 1.07037 -1.71428 0
M  V30 36806 C 3407.11 1.88859 -0.485529 0
M  V30 36807 O 3406.38 1.89398 0.500522 0
M  V30 36808 H 3404.96 0.398162 -0.632041 0
M  V30 36809 H 3407.62 0.372219 -1.91313 0
M  V30 36810 H 3406.72 1.742 -2.58961 0
M  V30 36811 N 3407.02 1.45939 0.594952 0
M  V30 36812 C 3408.25 1.54162 1.37991 0
M  V30 36813 C 3408.66 0.178513 1.87954 0
M  V30 36814 O 3408.02 -0.822133 1.62933 0
M  V30 36815 C 3408.07 2.53642 2.57581 0
M  V30 36816 O 3407.79 3.84657 2.09692 0
M  V30 36817 C 3409.29 2.71687 3.50287 0
M  V30 36818 H 3406.51 0.521708 0.421974 0
M  V30 36819 H 3409.06 1.91239 0.724425 0
M  V30 36820 H 3407.21 2.19603 3.19145 0
M  V30 36821 H 3407.63 4.38695 2.87484 0
M  V30 36822 H 3409.1 3.45242 4.30711 0
M  V30 36823 H 3409.58 1.78163 4.01441 0
M  V30 36824 H 3410.18 3.06773 2.94568 0
M  V30 36825 N 3408.5 -0.838547 1.3344 0
M  V30 36826 C 3409.75 -1.59382 1.24915 0
M  V30 36827 C 3410.07 -1.93618 -0.184983 0
M  V30 36828 O 3409.33 -1.58906 -1.14226 0
M  V30 36829 C 3409.63 -2.91347 2.07007 0
M  V30 36830 C 3409.29 -2.76471 3.56194 0
M  V30 36831 C 3407.96 -2.72122 3.96867 0
M  V30 36832 C 3410.31 -2.61253 4.50995 0
M  V30 36833 C 3407.64 -2.50454 5.30556 0
M  V30 36834 C 3409.99 -2.4112 5.84845 0
M  V30 36835 C 3408.65 -2.35172 6.247 0
M  V30 36836 H 3407.92 -0.58322 0.457095 0
M  V30 36837 H 3410.57 -0.971477 1.65029 0
M  V30 36838 H 3408.87 -3.57788 1.59671 0
M  V30 36839 H 3410.57 -3.48839 1.97768 0
M  V30 36840 H 3407.16 -2.80689 3.23901 0
M  V30 36841 H 3411.34 -2.63648 4.2048 0
M  V30 36842 H 3406.6 -2.44297 5.60472 0
M  V30 36843 H 3410.77 -2.28328 6.57905 0
M  V30 36844 H 3408.4 -2.18144 7.28229 0
M  V30 36845 N 3409.98 -1.16914 -1.05683 0
M  V30 36846 C 3411.23 -0.948906 -1.77985 0
M  V30 36847 C 3411.54 0.523978 -1.88451 0
M  V30 36848 O 3412.74 0.862276 -2.57443 0
M  V30 36849 C 3411.2 -1.64854 -3.19924 0
M  V30 36850 C 3410.81 -3.15961 -3.17604 0
M  V30 36851 C 3412.55 -1.51051 -3.96716 0
M  V30 36852 C 3410.46 -3.78636 -4.54301 0
M  V30 36853 H 3409.39 -0.351391 -0.667113 0
M  V30 36854 H 3412.04 -1.40113 -1.18493 0
M  V30 36855 H 3410.42 -1.12404 -3.79712 0
M  V30 36856 H 3411.6 -3.75305 -2.67362 0
M  V30 36857 H 3409.91 -3.2972 -2.54311 0
M  V30 36858 H 3412.51 -1.95252 -4.97776 0
M  V30 36859 H 3412.85 -0.46034 -4.13747 0
M  V30 36860 H 3413.38 -2.00691 -3.43465 0
M  V30 36861 H 3410.12 -4.83628 -4.42475 0
M  V30 36862 H 3409.64 -3.24078 -5.04711 0
M  V30 36863 H 3411.32 -3.80552 -5.23249 0
M  V30 36864 N 3411.45 1.24323 -0.968589 0
M  V30 36865 C 3412.87 1.44611 -0.675265 0
M  V30 36866 C 3413.07 1.86511 0.762608 0
M  V30 36867 O 3412.13 2.00377 1.5364 0
M  V30 36868 C 3413.44 2.5072 -1.66012 0
M  V30 36869 C 3414.99 2.64547 -1.67284 0
M  V30 36870 C 3415.46 3.73854 -2.64569 0
M  V30 36871 N 3416.95 3.81283 -2.63017 0
M  V30 36872 C 3417.69 4.65388 -3.34965 0
M  V30 36873 N 3417.18 5.53674 -4.16434 0
M  V30 36874 N 3418.98 4.59477 -3.23786 0
M  V30 36875 H 3411.13 0.954224 -1.89759 0
M  V30 36876 H 3413.39 0.480827 -0.817013 0
M  V30 36877 H 3413.1 2.26823 -2.68783 0
M  V30 36878 H 3412.97 3.48895 -1.43359 0
M  V30 36879 H 3415.36 2.87802 -0.652235 0
M  V30 36880 H 3415.44 1.66726 -1.94 0
M  V30 36881 H 3415.08 3.51349 -3.66765 0
M  V30 36882 H 3415.01 4.7119 -2.35133 0
M  V30 36883 H 3417.5 3.18183 -2.03883 0
M  V30 36884 H 3417.82 6.1481 -4.68218 0
M  V30 36885 H 3416.16 5.53336 -4.20528 0
M  V30 36886 H 3419.35 3.89519 -2.596 0
M  V30 36887 H 3419.53 5.24797 -3.80121 0
M  V30 36888 N 3412.93 0.73881 1.3921 0
M  V30 36889 C 3414.18 0.287855 2.0004 0
M  V30 36890 C 3414.5 -1.12997 1.58923 0
M  V30 36891 O 3413.77 -1.77014 0.839224 0
M  V30 36892 H 3412.35 0.103438 0.739804 0
M  V30 36893 H 3415.01 0.949617 1.70201 0
M  V30 36894 H 3414.11 0.339262 3.10251 0
M  V30 36895 N 3414.41 -1.49895 0.486734 0
M  V30 36896 C 3415.64 -2.06513 -0.0599581 0
M  V30 36897 C 3416.05 -1.349 -1.3266 0
M  V30 36898 O 3415.39 -0.416596 -1.78914 0
M  V30 36899 C 3415.45 -3.57287 -0.398317 0
M  V30 36900 C 3415.12 -4.50491 0.768544 0
M  V30 36901 C 3416.11 -4.92854 1.65503 0
M  V30 36902 C 3413.8 -4.92976 0.963306 0
M  V30 36903 C 3415.79 -5.76424 2.72056 0
M  V30 36904 C 3413.48 -5.76326 2.03203 0
M  V30 36905 C 3414.48 -6.17953 2.90901 0
M  V30 36906 O 3414.17 -6.99638 3.95931 0
M  V30 36907 H 3413.9 -0.675914 0.0107983 0
M  V30 36908 H 3416.45 -1.93848 0.679121 0
M  V30 36909 H 3414.68 -3.67909 -1.1908 0
M  V30 36910 H 3416.37 -3.96203 -0.881933 0
M  V30 36911 H 3417.14 -4.60687 1.51632 0
M  V30 36912 H 3413.02 -4.60086 0.290121 0
M  V30 36913 H 3416.56 -6.08835 3.40537 0
M  V30 36914 H 3412.46 -6.07905 2.17075 0
M  V30 36915 H 3413.23 -7.17919 3.9311 0
M  V30 36916 N 3415.89 -0.219968 -1.56057 0
M  V30 36917 C 3416.84 0.690807 -2.20219 0
M  V30 36918 C 3417.81 1.19149 -1.15727 0
M  V30 36919 O 3418.99 1.25087 -1.44076 0
M  V30 36920 C 3416.13 1.89403 -2.8848 0
M  V30 36921 C 3415.24 1.43239 -4.07562 0
M  V30 36922 C 3414.38 2.59305 -4.6361 0
M  V30 36923 C 3413.42 2.0987 -5.74997 0
M  V30 36924 N 3412.56 3.19203 -6.25343 0
M  V30 36925 H 3417.4 0.13694 -2.97685 0
M  V30 36926 H 3414.93 0.0558392 -1.46994 0
M  V30 36927 H 3416.89 2.60045 -3.2624 0
M  V30 36928 H 3415.52 2.4208 -2.13535 0
M  V30 36929 H 3414.57 0.620947 -3.75298 0
M  V30 36930 H 3415.88 1.02989 -4.88052 0
M  V30 36931 H 3415.04 3.38033 -5.03804 0
M  V30 36932 H 3413.78 3.02843 -3.82279 0
M  V30 36933 H 3412.78 1.29604 -5.34306 0
M  V30 36934 H 3414.01 1.67334 -6.58161 0
M  V30 36935 H 3411.95 3.62226 -5.46926 0
M  V30 36936 H 3411.87 2.832 -7.00952 0
M  V30 36937 H 3413.14 3.98071 -6.70194 0
M  V30 36938 N 3417.37 1.57509 0.0534363 0
M  V30 36939 C 3418.33 2.0394 1.046 0
M  V30 36940 C 3419.33 0.93938 1.30508 0
M  V30 36941 O 3420.52 1.20374 1.2592 0
M  V30 36942 C 3417.65 2.43567 2.38512 0
M  V30 36943 H 3418.85 2.92872 0.645432 0
M  V30 36944 H 3416.4 1.53401 0.299656 0
M  V30 36945 H 3417.13 1.57717 2.83365 0
M  V30 36946 H 3416.92 3.23855 2.21044 0
M  V30 36947 H 3418.41 2.80001 3.09821 0
M  V30 36948 N 3418.85 -0.325228 1.54208 0
M  V30 36949 C 3419.78 -1.42398 1.7832 0
M  V30 36950 C 3420.76 -1.49768 0.633104 0
M  V30 36951 O 3421.94 -1.67204 0.870353 0
M  V30 36952 C 3419.07 -2.80505 1.89827 0
M  V30 36953 C 3418.11 -2.90674 3.12107 0
M  V30 36954 S 3418.95 -2.55254 4.7075 0
M  V30 36955 C 3420.1 -3.95435 4.85161 0
M  V30 36956 H 3420.34 -1.21731 2.71236 0
M  V30 36957 H 3417.87 -0.521967 1.4531 0
M  V30 36958 H 3419.83 -3.60063 1.97143 0
M  V30 36959 H 3418.49 -2.98456 0.978925 0
M  V30 36960 H 3417.68 -3.91916 3.16888 0
M  V30 36961 H 3417.28 -2.19086 3.03113 0
M  V30 36962 H 3419.57 -4.9017 4.67696 0
M  V30 36963 H 3420.52 -3.95638 5.87261 0
M  V30 36964 H 3420.93 -3.84313 4.13478 0
M  V30 36965 N 3420.32 -1.46252 -0.587204 0
M  V30 36966 C 3421.57 -1.51553 -1.34757 0
M  V30 36967 C 3421.9 -0.164864 -1.93499 0
M  V30 36968 O 3421.18 0.823176 -1.76222 0
M  V30 36969 C 3421.46 -2.61063 -2.48028 0
M  V30 36970 C 3421.31 -4.05645 -1.9435 0
M  V30 36971 C 3422.63 -2.66691 -3.50091 0
M  V30 36972 H 3419.75 -0.551742 -0.488621 0
M  V30 36973 H 3422.39 -1.78166 -0.660066 0
M  V30 36974 H 3420.54 -2.38502 -3.06675 0
M  V30 36975 H 3422.22 -4.3948 -1.40196 0
M  V30 36976 H 3420.46 -4.15337 -1.2521 0
M  V30 36977 H 3421.13 -4.7799 -2.76096 0
M  V30 36978 H 3423.61 -2.86961 -3.01319 0
M  V30 36979 H 3422.48 -3.45143 -4.26811 0
M  V30 36980 H 3422.74 -1.72567 -4.07029 0
M  V30 36981 N 3421.8 0.831459 -1.33883 0
M  V30 36982 C 3422.73 1.94659 -1.19093 0
M  V30 36983 C 3423.71 1.6238 -0.0845992 0
M  V30 36984 O 3424.9 1.86859 -0.248196 0
M  V30 36985 C 3422.02 3.28416 -0.828281 0
M  V30 36986 C 3421.07 3.79662 -1.94316 0
M  V30 36987 S 3421.9 4.00447 -3.55531 0
M  V30 36988 C 3423.06 5.37145 -3.21289 0
M  V30 36989 H 3423.29 2.06906 -2.13488 0
M  V30 36990 H 3420.82 0.986077 -1.1881 0
M  V30 36991 H 3422.78 4.05701 -0.625831 0
M  V30 36992 H 3421.44 3.1395 0.0971905 0
M  V30 36993 H 3420.64 4.76469 -1.64296 0
M  V30 36994 H 3420.24 3.09297 -2.10266 0
M  V30 36995 H 3422.53 6.2025 -2.72574 0
M  V30 36996 H 3423.47 5.72142 -4.17203 0
M  V30 36997 H 3423.88 5.0225 -2.57692 0
M  V30 36998 N 3423.28 1.17472 1.05062 0
M  V30 36999 C 3424.56 0.873807 1.74997 0
M  V30 37000 C 3424.94 -0.62564 2.01616 0
M  V30 37001 O 3424.28 -1.57731 1.65327 0
M  V30 37002 C 3424.49 1.71016 3.04228 0
M  V30 37003 C 3425.84 1.93093 3.78154 0
M  V30 37004 O 3426.87 1.67985 3.14101 0
M  V30 37005 O 3425.73 2.35299 4.93251 0
M  V30 37006 H 3422.82 0.323655 0.761037 0
M  V30 37007 H 3425.37 1.28174 1.11218 0
M  V30 37008 H 3424.14 2.72709 2.80616 0
M  V30 37009 H 3423.76 1.30008 3.75744 0
M  V30 37010 N 3424.76 -1.23807 0.975168 0
M  V30 37011 C 3425.69 -2.23598 0.455969 0
M  V30 37012 C 3426.67 -1.55537 -0.474042 0
M  V30 37013 O 3427.85 -1.84126 -0.403697 0
M  V30 37014 C 3424.98 -3.3698 -0.340949 0
M  V30 37015 C 3424.03 -4.23164 0.532437 0
M  V30 37016 S 3424.86 -4.97664 1.97715 0
M  V30 37017 C 3426.01 -6.14498 1.18923 0
M  V30 37018 H 3426.25 -2.67292 1.30162 0
M  V30 37019 H 3423.78 -1.33205 0.780764 0
M  V30 37020 H 3425.74 -4.02733 -0.794746 0
M  V30 37021 H 3424.4 -2.91829 -1.16166 0
M  V30 37022 H 3423.59 -5.03937 -0.0798042 0
M  V30 37023 H 3423.19 -3.6245 0.922265 0
M  V30 37024 H 3425.49 -6.76018 0.447942 0
M  V30 37025 H 3426.43 -6.80098 1.9716 0
M  V30 37026 H 3426.84 -5.60013 0.710314 0
M  V30 37027 N 3426.24 -0.746182 -1.38816 0
M  V30 37028 C 3427.15 -0.115427 -2.34316 0
M  V30 37029 C 3428.16 0.709151 -1.58893 0
M  V30 37030 O 3429.34 0.635025 -1.91127 0
M  V30 37031 C 3426.4 0.772761 -3.37978 0
M  V30 37032 C 3425.46 -0.0653434 -4.2925 0
M  V30 37033 C 3424.7 0.780547 -5.27961 0
M  V30 37034 O 3424.92 2.01886 -5.33477 0
M  V30 37035 O 3423.85 0.203274 -6.01557 0
M  V30 37036 H 3427.68 -0.903938 -2.89936 0
M  V30 37037 H 3425.26 -0.506983 -1.40535 0
M  V30 37038 H 3427.15 1.28061 -4.0147 0
M  V30 37039 H 3425.82 1.53989 -2.84726 0
M  V30 37040 H 3424.73 -0.618975 -3.68944 0
M  V30 37041 H 3426.06 -0.794957 -4.85738 0
M  V30 37042 N 3427.71 1.49635 -0.494676 0
M  V30 37043 C 3428.96 2.02433 0.0520817 0
M  V30 37044 C 3429.29 1.37488 1.37577 0
M  V30 37045 O 3428.54 0.497571 1.89269 0
M  V30 37046 C 3428.84 3.56455 0.25968 0
M  V30 37047 C 3428.51 4.40005 -0.98522 0
M  V30 37048 C 3427.17 4.62556 -1.32648 0
M  V30 37049 C 3429.52 4.88651 -1.813 0
M  V30 37050 C 3426.85 5.30998 -2.49515 0
M  V30 37051 C 3429.2 5.58379 -2.97315 0
M  V30 37052 C 3427.87 5.79177 -3.31828 0
M  V30 37053 H 3427.14 0.740755 0.019058 0
M  V30 37054 H 3429.78 1.80003 -0.65355 0
M  V30 37055 H 3428.09 3.7753 1.04778 0
M  V30 37056 H 3429.79 3.94895 0.697077 0
M  V30 37057 H 3426.38 4.22689 -0.709387 0
M  V30 37058 H 3430.56 4.71062 -1.5625 0
M  V30 37059 H 3425.82 5.45305 -2.76501 0
M  V30 37060 H 3429.99 5.95049 -3.61787 0
M  V30 37061 H 3427.62 6.31986 -4.22489 0
M  V30 37062 N 3429.19 0.228241 1.55939 0
M  V30 37063 C 3430.12 -0.673661 2.23571 0
M  V30 37064 C 3431.1 -1.19587 1.20966 0
M  V30 37065 O 3432.29 -1.23865 1.4957 0
M  V30 37066 C 3429.42 -1.87901 2.9208 0
M  V30 37067 C 3428.37 -1.49036 4.01214 0
M  V30 37068 C 3427.7 -2.77503 4.57052 0
M  V30 37069 C 3429 -0.675349 5.17915 0
M  V30 37070 H 3430.69 -0.109753 2.99199 0
M  V30 37071 H 3428.24 -0.0513479 1.43908 0
M  V30 37072 H 3430.19 -2.51545 3.38087 0
M  V30 37073 H 3428.91 -2.468 2.1391 0
M  V30 37074 H 3427.57 -0.877349 3.55947 0
M  V30 37075 H 3427.22 -3.3456 3.75605 0
M  V30 37076 H 3426.92 -2.52229 5.30711 0
M  V30 37077 H 3428.45 -3.42078 5.05782 0
M  V30 37078 H 3429.86 -1.21565 5.60263 0
M  V30 37079 H 3428.26 -0.519431 5.97848 0
M  V30 37080 H 3429.33 0.31658 4.83865 0
M  V30 37081 N 3430.67 -1.57536 -0.0450825 0
M  V30 37082 C 3431.9 -1.92498 -0.750197 0
M  V30 37083 C 3432.31 -0.824976 -1.70267 0
M  V30 37084 O 3431.65 0.208624 -1.82512 0
M  V30 37085 C 3431.71 -3.23144 -1.57538 0
M  V30 37086 C 3431.38 -4.5013 -0.789416 0
M  V30 37087 C 3432.37 -5.1981 -0.0967453 0
M  V30 37088 C 3430.06 -4.96689 -0.748688 0
M  V30 37089 C 3432.05 -6.34317 0.62613 0
M  V30 37090 C 3429.74 -6.11096 -0.0220577 0
M  V30 37091 C 3430.74 -6.79763 0.664126 0
M  V30 37092 O 3430.43 -7.91984 1.37899 0
M  V30 37093 H 3430.16 -0.640264 -0.216884 0
M  V30 37094 H 3432.71 -2.05397 -0.0115219 0
M  V30 37095 H 3430.94 -3.06528 -2.35749 0
M  V30 37096 H 3432.63 -3.43553 -2.16162 0
M  V30 37097 H 3433.4 -4.84853 -0.119344 0
M  V30 37098 H 3429.28 -4.43096 -1.27227 0
M  V30 37099 H 3432.82 -6.8785 1.16227 0
M  V30 37100 H 3428.72 -6.455 0.00252053 0
M  V30 37101 H 3429.49 -8.08254 1.29101 0
M  V30 37102 N 3432.15 0.317045 -1.54378 0
M  V30 37103 C 3433.1 1.39169 -1.80599 0
M  V30 37104 C 3434.08 1.46636 -0.662314 0
M  V30 37105 O 3435.27 1.51059 -0.922504 0
M  V30 37106 C 3432.4 2.75924 -2.04257 0
M  V30 37107 C 3431.49 2.72743 -3.24765 0
M  V30 37108 N 3431.88 2.39181 -4.45675 0
M  V30 37109 C 3430.18 3.03865 -3.26469 0
M  V30 37110 C 3430.88 2.44899 -5.27636 0
M  V30 37111 N 3429.86 2.81604 -4.64973 0
M  V30 37112 H 3433.66 1.12159 -2.71657 0
M  V30 37113 H 3431.17 0.525559 -1.53661 0
M  V30 37114 H 3433.17 3.53388 -2.21184 0
M  V30 37115 H 3431.83 3.03858 -1.14457 0
M  V30 37116 H 3432.84 2.11913 -4.7256 0
M  V30 37117 H 3429.52 3.36799 -2.46724 0
M  V30 37118 H 3430.91 2.21885 -6.34205 0
M  V30 37119 N 3433.63 1.46561 0.57944 0
M  V30 37120 C 3434.87 1.52266 1.33951 0
M  V30 37121 C 3435.21 0.175123 1.93409 0
M  V30 37122 O 3434.48 -0.813819 1.76656 0
M  V30 37123 C 3434.76 2.62375 2.4664 0
M  V30 37124 C 3434.62 4.0667 1.92197 0
M  V30 37125 C 3435.94 2.68544 3.48672 0
M  V30 37126 H 3433.05 0.554325 0.485688 0
M  V30 37127 H 3435.7 1.78514 0.650608 0
M  V30 37128 H 3433.85 2.40125 3.05405 0
M  V30 37129 H 3435.52 4.40217 1.37864 0
M  V30 37130 H 3433.76 4.15995 1.23005 0
M  V30 37131 H 3434.43 4.79448 2.73557 0
M  V30 37132 H 3436.91 2.88554 2.99792 0
M  V30 37133 H 3435.78 3.47401 4.24975 0
M  V30 37134 H 3436.05 1.74724 4.06108 0
M  V30 37135 N 3435.1 -0.824347 1.34322 0
M  V30 37136 C 3436.35 -1.57736 1.26348 0
M  V30 37137 C 3436.67 -1.94285 -0.166802 0
M  V30 37138 O 3435.94 -1.62164 -1.09908 0
M  V30 37139 H 3434.52 -0.584885 0.46467 0
M  V30 37140 H 3437.19 -0.984344 1.68216 0
M  V30 37141 H 3436.28 -2.50081 1.86724 0
M  V30 37142 N 3436.58 -1.18028 -1.04437 0
M  V30 37143 C 3437.81 -0.996674 -1.8097 0
M  V30 37144 C 3438.22 0.45816 -1.83569 0
M  V30 37145 O 3437.56 1.32999 -1.26716 0
M  V30 37146 C 3437.63 -1.47053 -3.28048 0
M  V30 37147 C 3437.29 -2.94901 -3.49117 0
M  V30 37148 C 3438.29 -3.92783 -3.40614 0
M  V30 37149 C 3435.97 -3.33248 -3.75834 0
M  V30 37150 C 3437.97 -5.27009 -3.58526 0
M  V30 37151 C 3435.65 -4.67637 -3.93394 0
M  V30 37152 C 3436.65 -5.64327 -3.84739 0
M  V30 37153 O 3436.34 -6.96284 -4.01801 0
M  V30 37154 H 3436.07 -0.352421 -0.576867 0
M  V30 37155 H 3438.62 -1.56915 -1.3254 0
M  V30 37156 H 3436.85 -0.841675 -3.77429 0
M  V30 37157 H 3438.54 -1.25142 -3.86127 0
M  V30 37158 H 3439.31 -3.64503 -3.19942 0
M  V30 37159 H 3435.19 -2.58552 -3.8167 0
M  V30 37160 H 3438.73 -6.02463 -3.51687 0
M  V30 37161 H 3434.63 -4.9562 -4.13559 0
M  V30 37162 H 3435.4 -7.03133 -4.18983 0
M  V30 37163 N 3438.06 1.23288 -0.98172 0
M  V30 37164 C 3439.31 1.91046 -0.646852 0
M  V30 37165 C 3439.62 1.77422 0.823448 0
M  V30 37166 O 3440.83 2.39995 1.26943 0
M  V30 37167 C 3439.28 3.42473 -1.10636 0
M  V30 37168 C 3438.89 3.64756 -2.6011 0
M  V30 37169 C 3440.64 4.15999 -0.8453 0
M  V30 37170 C 3438.54 5.09825 -2.99721 0
M  V30 37171 H 3437.47 0.715374 -0.238234 0
M  V30 37172 H 3440.12 1.397 -1.1898 0
M  V30 37173 H 3438.51 3.92936 -0.491623 0
M  V30 37174 H 3439.68 3.24833 -3.26834 0
M  V30 37175 H 3438 3.04542 -2.83977 0
M  V30 37176 H 3440.59 5.22901 -1.11708 0
M  V30 37177 H 3440.94 4.15726 0.218588 0
M  V30 37178 H 3441.47 3.71528 -1.42168 0
M  V30 37179 H 3438.21 5.15229 -4.05239 0
M  V30 37180 H 3437.73 5.50693 -2.37693 0
M  V30 37181 H 3439.41 5.78167 -2.904 0
M  V30 37182 N 3439.54 0.753533 1.38418 0
M  V30 37183 C 3440.47 0.141239 2.33072 0
M  V30 37184 C 3441.45 -0.703643 1.54864 0
M  V30 37185 O 3442.63 -0.64484 1.83181 0
M  V30 37186 C 3439.76 -0.752743 3.39044 0
M  V30 37187 C 3438.72 -0.010594 4.27999 0
M  V30 37188 C 3438.04 -1.02282 5.24826 0
M  V30 37189 C 3439.34 1.15777 5.09306 0
M  V30 37190 H 3441.04 0.93193 2.84527 0
M  V30 37191 H 3438.58 0.449591 1.36802 0
M  V30 37192 H 3440.54 -1.19076 4.04226 0
M  V30 37193 H 3439.26 -1.57575 2.86073 0
M  V30 37194 H 3437.92 0.408003 3.64323 0
M  V30 37195 H 3437.57 -1.83989 4.68142 0
M  V30 37196 H 3437.27 -0.530907 5.85197 0
M  V30 37197 H 3438.79 -1.46016 5.92884 0
M  V30 37198 H 3440.21 0.797303 5.67729 0
M  V30 37199 H 3438.6 1.58055 5.78912 0
M  V30 37200 H 3439.67 1.9707 4.43048 0
M  V30 37201 N 3441.02 -1.49371 0.502605 0
M  V30 37202 C 3442.24 -2.06865 -0.0381066 0
M  V30 37203 C 3442.66 -1.36273 -1.30672 0
M  V30 37204 O 3442.02 -0.441563 -1.77078 0
M  V30 37205 C 3442.07 -3.60302 -0.294004 0
M  V30 37206 O 3441.79 -4.28238 0.924319 0
M  V30 37207 C 3443.29 -4.34515 -0.878176 0
M  V30 37208 H 3440.51 -0.670665 0.0211874 0
M  V30 37209 H 3443.05 -1.92131 0.700421 0
M  V30 37210 H 3441.21 -3.74734 -0.982517 0
M  V30 37211 H 3441.62 -5.19966 0.688153 0
M  V30 37212 H 3443.1 -5.42741 -1.0068 0
M  V30 37213 H 3443.57 -3.97101 -1.87636 0
M  V30 37214 H 3444.18 -4.24693 -0.227083 0
M  V30 37215 N 3442.49 -0.236508 -1.55815 0
M  V30 37216 C 3443.72 0.39854 -2.03535 0
M  V30 37217 C 3444.14 1.51497 -1.11491 0
M  V30 37218 O 3443.5 1.80991 -0.10588 0
M  V30 37219 C 3443.55 0.893405 -3.49357 0
M  V30 37220 O 3442.65 2.00374 -3.6045 0
M  V30 37221 H 3442 0.0882905 -0.658104 0
M  V30 37222 H 3444.53 -0.359524 -2.01416 0
M  V30 37223 H 3444.54 1.19934 -3.89974 0
M  V30 37224 H 3443.21 0.0763657 -4.1583 0
M  V30 37225 H 3441.79 1.7033 -3.31726 0
M  V30 37226 N 3443.97 1.57557 0.0367273 0
M  V30 37227 C 3445.22 1.892 0.730153 0
M  V30 37228 C 3445.55 0.833302 1.75413 0
M  V30 37229 O 3444.83 -0.152545 1.93901 0
M  V30 37230 C 3445.11 3.31491 1.40663 0
M  V30 37231 C 3444.96 4.48047 0.396686 0
M  V30 37232 C 3446.28 3.72571 2.34262 0
M  V30 37233 H 3443.4 0.688105 0.263971 0
M  V30 37234 H 3446.04 1.89999 -0.0070181 0
M  V30 37235 H 3444.19 3.3094 2.03496 0
M  V30 37236 H 3445.86 4.60731 -0.229143 0
M  V30 37237 H 3444.11 4.32864 -0.284775 0
M  V30 37238 H 3444.78 5.44475 0.90834 0
M  V30 37239 H 3447.25 3.74439 1.81478 0
M  V30 37240 H 3446.13 4.72954 2.78579 0
M  V30 37241 H 3446.39 3.04409 3.20605 0
M  V30 37242 N 3445.45 -0.308854 1.54544 0
M  V30 37243 C 3446.38 -1.38554 1.8795 0
M  V30 37244 C 3447.36 -1.53273 0.737649 0
M  V30 37245 O 3448.55 -1.66911 0.992694 0
M  V30 37246 C 3445.68 -2.75098 2.11987 0
M  V30 37247 C 3444.63 -2.75152 3.27834 0
M  V30 37248 C 3443.96 -4.14911 3.37273 0
M  V30 37249 C 3445.26 -2.3759 4.65133 0
M  V30 37250 H 3446.95 -1.10845 2.78125 0
M  V30 37251 H 3444.5 -0.531784 1.33821 0
M  V30 37252 H 3446.45 -3.50499 2.33941 0
M  V30 37253 H 3445.17 -3.04315 1.18574 0
M  V30 37254 H 3443.83 -2.02207 3.05791 0
M  V30 37255 H 3443.48 -4.41292 2.41392 0
M  V30 37256 H 3443.18 -4.1585 4.15142 0
M  V30 37257 H 3444.71 -4.92103 3.61479 0
M  V30 37258 H 3446.12 -3.02705 4.8687 0
M  V30 37259 H 3444.52 -2.49755 5.45658 0
M  V30 37260 H 3445.59 -1.32723 4.66383 0
M  V30 37261 N 3446.93 -1.46867 -0.571659 0
M  V30 37262 C 3448.18 -1.52446 -1.32682 0
M  V30 37263 C 3448.5 -0.182259 -1.94146 0
M  V30 37264 O 3447.77 0.792353 -1.79161 0
M  V30 37265 H 3446.35 -0.561504 -0.492669 0
M  V30 37266 H 3449.01 -1.83071 -0.668662 0
M  V30 37267 H 3448.11 -2.28319 -2.12784 0
M  V30 37268 N 3448.41 0.817212 -1.34757 0
M  V30 37269 C 3449.34 1.94328 -1.29456 0
M  V30 37270 C 3450.32 1.69239 -0.170932 0
M  V30 37271 O 3451.5 1.90754 -0.364206 0
M  V30 37272 C 3448.63 3.30887 -1.05503 0
M  V30 37273 C 3447.59 3.70432 -2.14393 0
M  V30 37274 C 3446.91 5.05036 -1.75621 0
M  V30 37275 C 3448.21 3.81926 -3.56272 0
M  V30 37276 H 3449.91 1.99021 -2.23676 0
M  V30 37277 H 3447.45 0.95614 -1.07675 0
M  V30 37278 H 3449.41 4.09256 -1.00438 0
M  V30 37279 H 3448.13 3.26509 -0.0772633 0
M  V30 37280 H 3446.79 2.94342 -2.18537 0
M  V30 37281 H 3446.44 4.9715 -0.764896 0
M  V30 37282 H 3446.14 5.32465 -2.48504 0
M  V30 37283 H 3447.66 5.85856 -1.72061 0
M  V30 37284 H 3449.08 4.50552 -3.54508 0
M  V30 37285 H 3447.47 4.20815 -4.27826 0
M  V30 37286 H 3448.54 2.83768 -3.93197 0
M  V30 37287 N 3449.89 1.1858 1.0381 0
M  V30 37288 C 3451.13 0.982749 1.77055 0
M  V30 37289 C 3451.46 -0.487388 1.88294 0
M  V30 37290 O 3450.72 -1.3781 1.38949 0
M  V30 37291 C 3451.01 1.58576 3.20294 0
M  V30 37292 C 3450.68 3.08246 3.29083 0
M  V30 37293 C 3449.34 3.49096 3.31188 0
M  V30 37294 C 3451.69 4.04259 3.28974 0
M  V30 37295 C 3449.02 4.84529 3.30831 0
M  V30 37296 C 3451.37 5.39611 3.30156 0
M  V30 37297 C 3450.04 5.79905 3.30555 0
M  V30 37298 H 3449.31 0.359613 0.647888 0
M  V30 37299 H 3451.96 1.47684 1.21909 0
M  V30 37300 H 3450.26 1.01374 3.78458 0
M  V30 37301 H 3451.96 1.40404 3.75616 0
M  V30 37302 H 3448.55 2.7569 3.28166 0
M  V30 37303 H 3452.73 3.73749 3.26536 0
M  V30 37304 H 3447.99 5.15041 3.29458 0
M  V30 37305 H 3452.16 6.13773 3.29022 0
M  V30 37306 H 3449.79 6.84823 3.30032 0
M  V30 37307 N 3451.36 -1.22766 0.988245 0
M  V30 37308 C 3452.33 -2.22752 0.539852 0
M  V30 37309 C 3453.33 -1.56372 -0.374769 0
M  V30 37310 O 3454.52 -1.73394 -0.167371 0
M  V30 37311 C 3451.65 -3.40219 -0.215402 0
M  V30 37312 H 3452.84 -2.63935 1.42402 0
M  V30 37313 H 3450.39 -1.35735 0.774957 0
M  V30 37314 H 3451.13 -3.04502 -1.11576 0
M  V30 37315 H 3450.91 -3.89609 0.441241 0
M  V30 37316 H 3452.4 -4.14382 -0.517444 0
M  V30 37317 N 3452.84 -0.760864 -1.38017 0
M  V30 37318 C 3453.79 -0.113561 -2.27717 0
M  V30 37319 C 3454.78 0.685587 -1.45563 0
M  V30 37320 O 3455.97 0.550347 -1.68227 0
M  V30 37321 C 3453.1 0.773191 -3.3448 0
M  V30 37322 C 3452.18 -0.0331983 -4.24087 0
M  V30 37323 N 3452.57 -1.07332 -4.94281 0
M  V30 37324 C 3450.87 0.192487 -4.45584 0
M  V30 37325 C 3451.57 -1.56182 -5.60341 0
M  V30 37326 N 3450.55 -0.875863 -5.36498 0
M  V30 37327 H 3454.35 -0.91007 -2.79455 0
M  V30 37328 H 3451.86 -0.597588 -1.51005 0
M  V30 37329 H 3453.86 1.25261 -3.97637 0
M  V30 37330 H 3452.52 1.56857 -2.84299 0
M  V30 37331 H 3453.53 -1.45526 -4.97034 0
M  V30 37332 H 3450.21 0.960633 -4.06298 0
M  V30 37333 H 3451.6 -2.42862 -6.26473 0
M  V30 37334 N 3454.32 1.49102 -0.510519 0
M  V30 37335 C 3455.23 2.33074 0.267135 0
M  V30 37336 C 3456.25 1.45247 0.958092 0
M  V30 37337 O 3457.42 1.78257 0.937368 0
M  V30 37338 C 3454.49 3.20914 1.31207 0
M  V30 37339 C 3453.55 4.246 0.633538 0
M  V30 37340 C 3452.78 5.08242 1.62869 0
M  V30 37341 O 3453 4.93548 2.85949 0
M  V30 37342 O 3451.94 5.90245 1.17877 0
M  V30 37343 H 3455.76 3.00776 -0.420437 0
M  V30 37344 H 3453.35 1.46908 -0.271709 0
M  V30 37345 H 3455.23 3.75302 1.91641 0
M  V30 37346 H 3453.91 2.55896 1.9824 0
M  V30 37347 H 3452.81 3.74098 -0.0107904 0
M  V30 37348 H 3454.15 4.922 0.00549118 0
M  V30 37349 N 3455.8 0.244768 1.55688 0
M  V30 37350 C 3456.73 -0.64991 2.24273 0
M  V30 37351 C 3457.71 -1.18298 1.22228 0
M  V30 37352 O 3458.89 -1.22271 1.50875 0
M  V30 37353 C 3456.02 -1.84793 2.94056 0
M  V30 37354 C 3454.98 -1.44772 4.02772 0
M  V30 37355 C 3454.3 -2.72639 4.59969 0
M  V30 37356 C 3455.6 -0.620379 5.18603 0
M  V30 37357 H 3457.3 -0.0780128 2.99298 0
M  V30 37358 H 3454.84 -0.0360816 1.43955 0
M  V30 37359 H 3456.8 -2.47945 3.40736 0
M  V30 37360 H 3455.52 -2.44517 2.16516 0
M  V30 37361 H 3454.18 -0.839546 3.56857 0
M  V30 37362 H 3453.83 -3.30557 3.79132 0
M  V30 37363 H 3453.53 -2.46586 5.33356 0
M  V30 37364 H 3455.05 -3.36694 5.09382 0
M  V30 37365 H 3456.47 -1.15616 5.61521 0
M  V30 37366 H 3454.86 -0.455992 5.98365 0
M  V30 37367 H 3455.93 0.367883 4.83502 0
M  V30 37368 N 3457.28 -1.57574 -0.0283712 0
M  V30 37369 C 3458.52 -1.89304 -0.719043 0
M  V30 37370 C 3458.85 -0.842141 -1.75323 0
M  V30 37371 O 3458.11 0.156796 -1.95071 0
M  V30 37372 C 3458.4 -3.27779 -1.42464 0
M  V30 37373 C 3458.07 -4.47817 -0.526364 0
M  V30 37374 C 3456.73 -4.80391 -0.278954 0
M  V30 37375 C 3459.08 -5.21116 0.0937954 0
M  V30 37376 C 3456.41 -5.83651 0.597379 0
M  V30 37377 C 3458.76 -6.25307 0.957835 0
M  V30 37378 C 3457.43 -6.56355 1.2147 0
M  V30 37379 H 3456.7 -0.692713 -0.263117 0
M  V30 37380 H 3459.35 -1.91488 0.0210589 0
M  V30 37381 H 3457.65 -3.21586 -2.23808 0
M  V30 37382 H 3459.35 -3.49578 -1.9646 0
M  V30 37383 H 3455.94 -4.22349 -0.729352 0
M  V30 37384 H 3460.12 -4.96228 -0.0843818 0
M  V30 37385 H 3455.38 -6.06081 0.804688 0
M  V30 37386 H 3459.55 -6.81246 1.44488 0
M  V30 37387 H 3457.18 -7.3619 1.89547 0
M  V30 37388 N 3458.75 0.300654 -1.54706 0
M  V30 37389 C 3459.98 1.05324 -1.77737 0
M  V30 37390 C 3460.39 1.81416 -0.537122 0
M  V30 37391 O 3459.73 1.7669 0.502632 0
M  V30 37392 C 3459.8 2.07988 -2.93226 0
M  V30 37393 C 3459.46 1.51087 -4.31302 0
M  V30 37394 C 3460.46 0.94073 -5.11318 0
M  V30 37395 C 3458.14 1.5464 -4.77904 0
M  V30 37396 C 3460.14 0.413679 -6.36056 0
M  V30 37397 C 3457.82 1.01548 -6.02604 0
M  V30 37398 C 3458.82 0.450089 -6.81515 0
M  V30 37399 O 3458.51 -0.0727788 -8.03867 0
M  V30 37400 H 3458.24 0.318111 -0.596474 0
M  V30 37401 H 3460.8 0.345368 -2.02476 0
M  V30 37402 H 3459.03 2.82456 -2.64113 0
M  V30 37403 H 3460.71 2.6915 -3.0383 0
M  V30 37404 H 3461.48 0.906184 -4.76459 0
M  V30 37405 H 3457.36 1.97586 -4.1651 0
M  V30 37406 H 3460.9 -0.028276 -6.97594 0
M  V30 37407 H 3456.8 1.04717 -6.36949 0
M  V30 37408 H 3457.57 0.0404882 -8.1849 0
M  V30 37409 N 3460.23 1.47168 0.563863 0
M  V30 37410 C 3461.46 1.57299 1.35173 0
M  V30 37411 C 3461.88 0.221268 1.86794 0
M  V30 37412 O 3461.24 -0.80178 1.62607 0
M  V30 37413 C 3461.29 2.59658 2.5022 0
M  V30 37414 O 3460.39 2.14467 3.52246 0
M  V30 37415 H 3459.73 0.528644 0.401786 0
M  V30 37416 H 3462.26 1.92895 0.682103 0
M  V30 37417 H 3462.27 2.79867 2.96881 0
M  V30 37418 H 3460.95 3.57809 2.12004 0
M  V30 37419 H 3459.53 2.04329 3.11936 0
M  V30 37420 N 3461.71 -0.810054 1.35188 0
M  V30 37421 C 3462.96 -1.56205 1.27604 0
M  V30 37422 C 3463.27 -1.95035 -0.148586 0
M  V30 37423 O 3464.48 -2.69278 -0.346673 0
M  V30 37424 C 3462.93 -2.81882 2.23764 0
M  V30 37425 C 3462.54 -2.50304 3.71554 0
M  V30 37426 C 3464.29 -3.59894 2.25115 0
M  V30 37427 C 3462.19 -3.72252 4.59546 0
M  V30 37428 H 3461.12 -0.586308 0.474088 0
M  V30 37429 H 3463.77 -0.89073 1.60431 0
M  V30 37430 H 3462.16 -3.50707 1.83904 0
M  V30 37431 H 3463.33 -1.89508 4.20028 0
M  V30 37432 H 3461.65 -1.85544 3.72777 0
M  V30 37433 H 3464.24 -4.50464 2.88074 0
M  V30 37434 H 3464.59 -3.96966 1.25394 0
M  V30 37435 H 3465.12 -2.98027 2.63486 0
M  V30 37436 H 3461.86 -3.4029 5.60252 0
M  V30 37437 H 3461.38 -4.32285 4.158 0
M  V30 37438 H 3463.06 -4.39519 4.74797 0
M  V30 37439 N 3463.19 -1.19129 -1.0318 0
M  V30 37440 C 3464.12 -0.950028 -2.133 0
M  V30 37441 C 3465.1 0.115547 -1.69707 0
M  V30 37442 O 3466.28 -0.0388736 -1.94161 0
M  V30 37443 C 3463.41 -0.484697 -3.43901 0
M  V30 37444 C 3462.37 -1.49177 -4.01161 0
M  V30 37445 C 3461.69 -0.883629 -5.27348 0
M  V30 37446 C 3462.99 -2.87114 -4.36306 0
M  V30 37447 H 3464.69 -1.87099 -2.3374 0
M  V30 37448 H 3462.23 -0.900997 -1.1233 0
M  V30 37449 H 3464.19 -0.303224 -4.20308 0
M  V30 37450 H 3462.91 0.471852 -3.23174 0
M  V30 37451 H 3461.57 -1.66034 -3.26846 0
M  V30 37452 H 3461.22 0.0803828 -5.02936 0
M  V30 37453 H 3460.92 -1.55609 -5.66621 0
M  V30 37454 H 3462.44 -0.712886 -6.06424 0
M  V30 37455 H 3463.86 -2.73857 -5.03662 0
M  V30 37456 H 3462.25 -3.51126 -4.86652 0
M  V30 37457 H 3463.32 -3.39991 -3.45737 0
M  V30 37458 N 3464.67 1.2224 -0.994741 0
M  V30 37459 C 3465.6 2.26523 -0.566539 0
M  V30 37460 C 3466.58 1.65146 0.407512 0
M  V30 37461 O 3467.76 1.91904 0.297743 0
M  V30 37462 C 3464.89 3.471 0.117799 0
M  V30 37463 C 3463.85 4.20925 -0.774982 0
M  V30 37464 C 3463.17 5.34683 0.0423747 0
M  V30 37465 C 3464.47 4.79412 -2.07271 0
M  V30 37466 H 3466.17 2.62594 -1.43822 0
M  V30 37467 H 3463.71 1.26228 -0.692993 0
M  V30 37468 H 3465.67 4.19213 0.428769 0
M  V30 37469 H 3464.39 3.10131 1.02404 0
M  V30 37470 H 3463.05 3.50649 -1.06962 0
M  V30 37471 H 3462.7 4.93955 0.94959 0
M  V30 37472 H 3462.4 5.85002 -0.55197 0
M  V30 37473 H 3463.92 6.09611 0.347397 0
M  V30 37474 H 3465.33 5.43457 -1.82557 0
M  V30 37475 H 3463.73 5.40077 -2.61604 0
M  V30 37476 H 3464.8 3.99361 -2.75024 0
M  V30 37477 N 3466.14 0.768172 1.37611 0
M  V30 37478 C 3467.39 0.330876 1.99779 0
M  V30 37479 C 3467.72 -1.09159 1.6098 0
M  V30 37480 O 3466.97 -1.76478 0.845809 0
M  V30 37481 C 3467.27 0.417671 3.54951 0
M  V30 37482 C 3466.94 1.79787 4.13506 0
M  V30 37483 C 3465.6 2.17556 4.29212 0
M  V30 37484 C 3467.95 2.70258 4.45657 0
M  V30 37485 C 3465.28 3.45239 4.7437 0
M  V30 37486 C 3467.63 3.97347 4.92238 0
M  V30 37487 C 3466.3 4.35166 5.06149 0
M  V30 37488 H 3465.57 0.121076 0.731041 0
M  V30 37489 H 3468.21 0.981499 1.64435 0
M  V30 37490 H 3466.52 -0.316498 3.9052 0
M  V30 37491 H 3468.22 0.0606742 4.00954 0
M  V30 37492 H 3464.81 1.49432 4.01706 0
M  V30 37493 H 3468.99 2.42339 4.33111 0
M  V30 37494 H 3464.25 3.7444 4.83327 0
M  V30 37495 H 3468.42 4.67581 5.16082 0
M  V30 37496 H 3466.05 5.34163 5.40901 0
M  V30 37497 N 3467.62 -1.48829 0.518419 0
M  V30 37498 C 3468.9 -1.95421 -0.0837154 0
M  V30 37499 C 3469.28 -1.4604 -1.52432 0
M  V30 37500 O 3468.63 -0.681774 -2.18092 0
M  V30 37501 C 3468.84 -3.48993 0.0215947 0
M  V30 37502 C 3470.19 -4.24357 -0.14354 0
M  V30 37503 O 3471.21 -3.56161 -0.0527597 0
M  V30 37504 O 3470.07 -5.4549 -0.332135 0
M  V30 37505 H 3467.16 -0.822548 -0.0856987 0
M  V30 37506 H 3469.71 -1.59401 0.582197 0
M  V30 37507 H 3468.48 -3.77621 1.02556 0
M  V30 37508 H 3468.1 -3.91678 -0.683687 0
M  V30 37509 N 3469.1 -0.253021 -1.55556 0
M  V30 37510 C 3470.03 0.638007 -2.24615 0
M  V30 37511 C 3471.01 1.17648 -1.22854 0
M  V30 37512 O 3472.2 1.2147 -1.51521 0
M  V30 37513 C 3469.33 1.83231 -2.95032 0
M  V30 37514 C 3468.28 1.42634 -4.03534 0
M  V30 37515 C 3467.61 2.70196 -4.61409 0
M  V30 37516 C 3468.91 0.592867 -5.18924 0
M  V30 37517 H 3470.6 0.0621391 -2.99336 0
M  V30 37518 H 3468.15 0.0284469 -1.43972 0
M  V30 37519 H 3470.1 2.46135 -3.42046 0
M  V30 37520 H 3468.82 2.43365 -2.17809 0
M  V30 37521 H 3467.48 0.820609 -3.57298 0
M  V30 37522 H 3467.13 3.28542 -3.8088 0
M  V30 37523 H 3466.83 2.43754 -5.34657 0
M  V30 37524 H 3468.35 3.33988 -5.1116 0
M  V30 37525 H 3469.77 1.12636 -5.62126 0
M  V30 37526 H 3468.17 0.424253 -5.98598 0
M  V30 37527 H 3469.24 -0.393519 -4.83301 0
M  V30 37528 N 3470.58 1.57587 0.0200142 0
M  V30 37529 C 3471.83 1.88863 0.708082 0
M  V30 37530 C 3472.14 0.852724 1.76034 0
M  V30 37531 O 3473.35 1.05501 2.50163 0
M  V30 37532 C 3471.8 3.35192 1.31051 0
M  V30 37533 C 3471.41 4.47033 0.294123 0
M  V30 37534 C 3473.15 3.75604 1.97793 0
M  V30 37535 C 3471.06 5.84428 0.905405 0
M  V30 37536 H 3469.99 0.704679 0.268224 0
M  V30 37537 H 3472.64 1.83462 -0.0372485 0
M  V30 37538 H 3471.02 3.35366 2.10584 0
M  V30 37539 H 3472.2 4.58344 -0.475162 0
M  V30 37540 H 3470.51 4.15513 -0.271717 0
M  V30 37541 H 3473.11 4.75578 2.44396 0
M  V30 37542 H 3473.45 3.08069 2.79998 0
M  V30 37543 H 3473.99 3.77643 1.25021 0
M  V30 37544 H 3470.73 6.55385 0.12257 0
M  V30 37545 H 3470.25 5.76821 1.64432 0
M  V30 37546 H 3471.92 6.31448 1.41005 0
M  V30 37547 N 3472.06 -0.292445 1.54863 0
M  V30 37548 C 3473.29 -1.0438 1.78293 0
M  V30 37549 C 3473.69 -1.81128 0.546735 0
M  V30 37550 O 3473.04 -1.76954 -0.493255 0
M  V30 37551 C 3473.1 -2.0643 2.94325 0
M  V30 37552 C 3472.76 -1.48798 4.32097 0
M  V30 37553 C 3473.76 -0.9136 5.1181 0
M  V30 37554 C 3471.45 -1.52103 4.78717 0
M  V30 37555 C 3473.44 -0.379942 6.36267 0
M  V30 37556 C 3471.13 -0.983507 6.03134 0
M  V30 37557 C 3472.12 -0.413941 6.81744 0
M  V30 37558 O 3471.81 0.115409 8.03817 0
M  V30 37559 H 3471.54 -0.314944 0.598153 0
M  V30 37560 H 3474.1 -0.334625 2.02656 0
M  V30 37561 H 3472.33 -2.81051 2.65607 0
M  V30 37562 H 3474.02 -2.67535 3.05253 0
M  V30 37563 H 3474.78 -0.880904 4.76933 0
M  V30 37564 H 3470.66 -1.95375 4.17552 0
M  V30 37565 H 3474.21 0.0652707 6.97569 0
M  V30 37566 H 3470.1 -1.01338 6.37496 0
M  V30 37567 H 3470.87 0.00291883 8.185 0
M  V30 37568 N 3473.53 -1.47465 -0.55605 0
M  V30 37569 C 3474.95 -1.33009 -0.882091 0
M  V30 37570 C 3475.15 -0.321442 -1.9892 0
M  V30 37571 O 3474.21 0.266624 -2.51088 0
M  V30 37572 C 3475.52 -2.72367 -1.27423 0
M  V30 37573 C 3477.07 -2.8066 -1.38559 0
M  V30 37574 C 3477.54 -4.20662 -1.81128 0
M  V30 37575 N 3479.03 -4.23209 -1.88277 0
M  V30 37576 C 3479.77 -5.28451 -2.22546 0
M  V30 37577 N 3479.26 -6.43997 -2.55421 0
M  V30 37578 N 3481.06 -5.1583 -2.2333 0
M  V30 37579 H 3473.21 -2.11679 0.174847 0
M  V30 37580 H 3475.47 -0.947872 0.0155588 0
M  V30 37581 H 3475.18 -3.47614 -0.534569 0
M  V30 37582 H 3475.05 -3.04212 -2.23013 0
M  V30 37583 H 3477.44 -2.05686 -2.11607 0
M  V30 37584 H 3477.52 -2.52468 -0.411543 0
M  V30 37585 H 3477.16 -4.96143 -1.0865 0
M  V30 37586 H 3477.09 -4.4628 -2.79538 0
M  V30 37587 H 3479.58 -3.39853 -1.65253 0
M  V30 37588 H 3479.9 -7.20058 -2.806 0
M  V30 37589 H 3478.24 -6.47315 -2.52998 0
M  V30 37590 H 3481.43 -4.24587 -1.97087 0
M  V30 37591 H 3481.61 -5.97955 -2.49707 0
M  V30 37592 N 3475.01 0.802873 -1.35616 0
M  V30 37593 C 3475.92 1.94642 -1.30964 0
M  V30 37594 C 3476.94 1.7268 -0.213939 0
M  V30 37595 O 3478.12 1.96446 -0.443966 0
M  V30 37596 C 3475.18 3.29289 -1.08489 0
M  V30 37597 C 3474.24 3.64122 -2.27407 0
M  V30 37598 C 3473.47 4.92343 -2.05995 0
M  V30 37599 O 3473.7 5.61055 -1.02829 0
M  V30 37600 O 3472.63 5.25521 -2.93448 0
M  V30 37601 H 3476.46 2.01515 -2.27212 0
M  V30 37602 H 3474.04 0.941194 -1.16025 0
M  V30 37603 H 3475.92 4.09889 -0.97819 0
M  V30 37604 H 3474.6 3.23338 -0.152942 0
M  V30 37605 H 3473.51 2.83882 -2.43643 0
M  V30 37606 H 3474.84 3.7478 -3.19062 0
M  V30 37607 N 3476.49 1.19674 1.02547 0
M  V30 37608 C 3477.4 0.95301 2.14371 0
M  V30 37609 C 3478.42 -0.0881421 1.73777 0
M  V30 37610 O 3479.59 0.0972825 2.01165 0
M  V30 37611 C 3476.66 0.498629 3.43096 0
M  V30 37612 C 3475.72 1.60958 3.97984 0
M  V30 37613 C 3474.95 1.17678 5.20565 0
M  V30 37614 O 3475.18 0.0417638 5.70385 0
M  V30 37615 O 3474.11 1.98069 5.68377 0
M  V30 37616 H 3477.94 1.88908 2.37797 0
M  V30 37617 H 3475.52 0.979856 1.12779 0
M  V30 37618 H 3477.4 0.254042 4.20634 0
M  V30 37619 H 3476.08 -0.408961 3.21106 0
M  V30 37620 H 3474.98 1.90835 3.21765 0
M  V30 37621 H 3476.32 2.49385 4.24344 0
M  V30 37622 N 3477.97 -1.21711 1.00121 0
M  V30 37623 C 3479.2 -1.94682 0.700465 0
M  V30 37624 C 3479.61 -1.73851 -0.736303 0
M  V30 37625 O 3478.97 -1.04275 -1.49776 0
M  V30 37626 C 3479.02 -3.47183 1.00729 0
M  V30 37627 O 3478.74 -3.67321 2.38761 0
M  V30 37628 C 3480.24 -4.37324 0.725412 0
M  V30 37629 H 3477.46 -0.619233 0.258441 0
M  V30 37630 H 3480.01 -1.54634 1.33823 0
M  V30 37631 H 3478.16 -3.85169 0.415184 0
M  V30 37632 H 3478.58 -4.61449 2.49329 0
M  V30 37633 H 3480.05 -5.43044 0.990297 0
M  V30 37634 H 3480.53 -4.37878 -0.340573 0
M  V30 37635 H 3481.13 -4.04978 1.29895 0
M  V30 37636 N 3479.45 -0.775459 -1.37202 0
M  V30 37637 C 3480.38 -0.178301 -2.32818 0
M  V30 37638 C 3481.36 0.678916 -1.55964 0
M  V30 37639 O 3482.54 0.615615 -1.84184 0
M  V30 37640 C 3479.67 0.698708 -3.40199 0
M  V30 37641 C 3478.63 -0.0574982 -4.27961 0
M  V30 37642 C 3477.95 0.939198 -5.26387 0
M  V30 37643 C 3479.25 -1.23865 -5.074 0
M  V30 37644 H 3480.95 -0.977078 -2.83008 0
M  V30 37645 H 3478.49 -0.471298 -1.36069 0
M  V30 37646 H 3480.45 1.1263 -4.06069 0
M  V30 37647 H 3479.17 1.53004 -2.88543 0
M  V30 37648 H 3477.83 -0.465912 -3.63627 0
M  V30 37649 H 3477.48 1.76518 -4.7101 0
M  V30 37650 H 3477.18 0.437741 -5.85967 0
M  V30 37651 H 3478.7 1.36565 -5.95132 0
M  V30 37652 H 3480.12 -0.887523 -5.66388 0
M  V30 37653 H 3478.51 -1.67245 -5.76324 0
M  V30 37654 H 3479.58 -2.04093 -4.39857 0
M  V30 37655 N 3480.93 1.48552 -0.526305 0
M  V30 37656 C 3482.17 2.02498 0.00913091 0
M  V30 37657 C 3482.5 1.40375 1.3463 0
M  V30 37658 O 3481.76 0.537606 1.88171 0
M  V30 37659 C 3482.05 3.56926 0.184012 0
M  V30 37660 C 3481.72 4.37816 -1.07833 0
M  V30 37661 C 3480.38 4.59638 -1.4243 0
M  V30 37662 C 3482.73 4.84695 -1.91624 0
M  V30 37663 C 3480.06 5.25586 -2.60722 0
M  V30 37664 C 3482.41 5.51947 -3.09092 0
M  V30 37665 C 3481.08 5.72008 -3.44039 0
M  V30 37666 H 3480.35 0.740992 0.00334124 0
M  V30 37667 H 3483 1.78576 -0.691585 0
M  V30 37668 H 3481.3 3.79667 0.967465 0
M  V30 37669 H 3483 3.96284 0.613157 0
M  V30 37670 H 3479.59 4.21089 -0.798886 0
M  V30 37671 H 3483.77 4.67642 -1.66207 0
M  V30 37672 H 3479.03 5.39317 -2.88005 0
M  V30 37673 H 3483.2 5.87241 -3.74327 0
M  V30 37674 H 3480.83 6.22883 -4.358 0
M  V30 37675 N 3482.4 0.261267 1.55419 0
M  V30 37676 C 3483.35 -0.648284 2.23383 0
M  V30 37677 C 3484.35 -1.16882 1.22618 0
M  V30 37678 O 3485.55 -1.12405 1.40589 0
M  V30 37679 H 3481.93 -0.227579 0.716737 0
M  V30 37680 H 3483.9 -0.0520764 2.98355 0
M  V30 37681 C 3482.65 -1.82761 2.95794 0
M  V30 37682 H 3481.97 -1.43624 3.73112 0
M  V30 37683 H 3483.41 -2.44094 3.4669 0
M  V30 37684 C 3481.87 -2.7076 2.00477 0
M  V30 37685 O 3482.4 -3.70715 1.54705 0
M  V30 37686 N 3480.6 -2.37632 1.67271 0
M  V30 37687 H 3480.15 -1.56399 2.04688 0
M  V30 37688 H 3480.11 -2.96783 1.03764 0
M  V30 37689 N 3483.88 -1.57596 -0.0116567 0
M  V30 37690 C 3485.13 -1.90338 -0.69996 0
M  V30 37691 C 3485.46 -0.861103 -1.74065 0
M  V30 37692 O 3484.74 0.121678 -1.94119 0
M  V30 37693 C 3485.02 -3.33686 -1.35371 0
M  V30 37694 C 3484.87 -4.48622 -0.325355 0
M  V30 37695 C 3486.19 -3.76251 -2.28305 0
M  V30 37696 H 3483.31 -0.692217 -0.25299 0
M  V30 37697 H 3485.95 -1.89963 0.0372444 0
M  V30 37698 H 3484.1 -3.34136 -1.98206 0
M  V30 37699 H 3485.77 -4.60308 0.302412 0
M  V30 37700 H 3484.02 -4.32356 0.353603 0
M  V30 37701 H 3484.69 -5.45851 -0.821604 0
M  V30 37702 H 3487.16 -3.77279 -1.75498 0
M  V30 37703 H 3486.04 -4.77326 -2.71019 0
M  V30 37704 H 3486.3 -3.09471 -3.15722 0
M  V30 37705 N 3485.36 0.284228 -1.55016 0
M  V30 37706 C 3486.61 1.01503 -1.74299 0
M  V30 37707 C 3486.92 1.87849 -0.545167 0
M  V30 37708 O 3488.13 2.64322 -0.620165 0
M  V30 37709 C 3486.58 1.85451 -3.08441 0
M  V30 37710 C 3486.19 1.04026 -4.35755 0
M  V30 37711 C 3487.94 2.58029 -3.37078 0
M  V30 37712 C 3485.84 1.87348 -5.60941 0
M  V30 37713 H 3484.77 0.382693 -0.649663 0
M  V30 37714 H 3487.42 0.271207 -1.81485 0
M  V30 37715 H 3485.81 2.63886 -2.95263 0
M  V30 37716 H 3486.98 0.300873 -4.59817 0
M  V30 37717 H 3485.29 0.429543 -4.14179 0
M  V30 37718 H 3487.89 3.20751 -4.27812 0
M  V30 37719 H 3488.23 3.27733 -2.56704 0
M  V30 37720 H 3488.77 1.86632 -3.51302 0
M  V30 37721 H 3485.51 1.22084 -6.44031 0
M  V30 37722 H 3485.03 2.58914 -5.41039 0
M  V30 37723 H 3486.71 2.44988 -5.98824 0
M  V30 37724 N 3486.84 1.47758 0.548222 0
M  V30 37725 C 3487.78 1.60918 1.65451 0
M  V30 37726 C 3488.75 0.451859 1.59836 0
M  V30 37727 O 3489.94 0.673054 1.78535 0
M  V30 37728 C 3487.08 1.63785 3.03757 0
M  V30 37729 C 3486.19 2.90498 3.19742 0
M  V30 37730 C 3485.33 2.84643 4.485 0
M  V30 37731 C 3484.37 4.0614 4.57948 0
M  V30 37732 N 3483.5 3.98468 5.78072 0
M  V30 37733 H 3488.34 2.554 1.53541 0
M  V30 37734 H 3485.88 1.26674 0.747803 0
M  V30 37735 H 3487.84 1.6343 3.83857 0
M  V30 37736 H 3486.47 0.728091 3.14482 0
M  V30 37737 H 3485.52 3.0068 2.33014 0
M  V30 37738 H 3486.83 3.80446 3.22587 0
M  V30 37739 H 3485.99 2.82587 5.3687 0
M  V30 37740 H 3484.73 1.92393 4.48148 0
M  V30 37741 H 3483.73 4.08491 3.67988 0
M  V30 37742 H 3484.96 4.99528 4.60053 0
M  V30 37743 H 3482.9 3.09027 5.78652 0
M  V30 37744 H 3482.82 4.82103 5.82333 0
M  V30 37745 H 3484.09 4.00443 6.68779 0
M  V30 37746 N 3488.32 -0.79567 1.3604 0
M  V30 37747 C 3489.54 -1.58953 1.33225 0
M  V30 37748 C 3489.97 -1.87906 -0.0854266 0
M  V30 37749 O 3489.32 -1.47405 -1.05553 0
M  V30 37750 C 3489.37 -2.89113 2.15513 0
M  V30 37751 O 3488.48 -3.82433 1.54333 0
M  V30 37752 H 3487.82 -0.482402 0.456272 0
M  V30 37753 H 3490.35 -0.986695 1.79236 0
M  V30 37754 H 3490.36 -3.3844 2.27865 0
M  V30 37755 H 3489.03 -2.67366 3.18572 0
M  V30 37756 H 3487.61 -3.41011 1.50885 0
M  V30 37757 N 3489.79 -1.20217 -1.0191 0
M  V30 37758 C 3491.04 -1.01229 -1.75729 0
M  V30 37759 C 3491.37 0.454777 -1.888 0
M  V30 37760 O 3490.65 1.33766 -1.41198 0
M  V30 37761 C 3490.93 -1.69353 -3.17792 0
M  V30 37762 C 3490.78 -3.23488 -3.12531 0
M  V30 37763 C 3492.1 -1.42455 -4.16407 0
M  V30 37764 H 3489.22 -0.369155 -0.637882 0
M  V30 37765 H 3491.86 -1.48195 -1.18904 0
M  V30 37766 H 3490.01 -1.29422 -3.66309 0
M  V30 37767 H 3491.69 -3.72697 -2.71836 0
M  V30 37768 H 3489.93 -3.54524 -2.49991 0
M  V30 37769 H 3490.6 -3.66309 -4.12943 0
M  V30 37770 H 3493.08 -1.77092 -3.76534 0
M  V30 37771 H 3491.95 -1.92657 -5.13979 0
M  V30 37772 H 3492.21 -0.351651 -4.40699 0
M  V30 37773 N 3491.27 1.21178 -1.00765 0
M  V30 37774 C 3492.5 1.94308 -0.71078 0
M  V30 37775 C 3492.92 1.74239 0.727073 0
M  V30 37776 O 3492.27 1.05068 1.49221 0
M  V30 37777 C 3492.32 3.46644 -1.02568 0
M  V30 37778 O 3492.04 3.6605 -2.40705 0
M  V30 37779 C 3493.55 4.36934 -0.748594 0
M  V30 37780 H 3490.77 0.617854 -0.261721 0
M  V30 37781 H 3493.31 1.53922 -1.34641 0
M  V30 37782 H 3491.46 3.84943 -0.435605 0
M  V30 37783 H 3491.88 4.60121 -2.51772 0
M  V30 37784 H 3493.35 5.42511 -1.01908 0
M  V30 37785 H 3493.83 4.38052 0.317346 0
M  V30 37786 H 3494.44 4.04284 -1.3204 0
M  V30 37787 N 3492.75 0.782725 1.36789 0
M  V30 37788 C 3494.17 0.46362 1.52718 0
M  V30 37789 C 3494.37 -1.01911 1.73829 0
M  V30 37790 O 3493.42 -1.80474 1.76594 0
M  V30 37791 C 3494.74 1.28824 2.71707 0
M  V30 37792 C 3496.28 1.28125 2.85575 0
M  V30 37793 C 3496.76 2.08947 4.0756 0
M  V30 37794 N 3498.25 2.06358 4.14694 0
M  V30 37795 C 3498.98 2.65668 5.08142 0
M  V30 37796 N 3498.48 3.33809 6.07078 0
M  V30 37797 N 3500.27 2.55438 5.00707 0
M  V30 37798 H 3492.42 1.74329 1.21339 0
M  V30 37799 H 3494.69 0.740668 0.591706 0
M  V30 37800 H 3494.39 2.33945 2.62608 0
M  V30 37801 H 3494.27 0.924938 3.65684 0
M  V30 37802 H 3496.65 0.237999 2.94139 0
M  V30 37803 H 3496.74 1.68428 1.92525 0
M  V30 37804 H 3496.38 3.133 3.99757 0
M  V30 37805 H 3496.31 1.6602 4.99745 0
M  V30 37806 H 3498.8 1.56758 3.43854 0
M  V30 37807 H 3499.11 3.76412 6.74933 0
M  V30 37808 H 3497.46 3.3791 6.07323 0
M  V30 37809 H 3500.65 2.01809 4.22363 0
M  V30 37810 H 3500.82 3.01953 5.73349 0
M  V30 37811 N 3494.23 -1.48271 0.534176 0
M  V30 37812 C 3495.18 -2.31362 -0.239631 0
M  V30 37813 C 3496.17 -1.41492 -0.931476 0
M  V30 37814 O 3497.38 -1.58377 -0.855383 0
M  V30 37815 H 3493.75 -0.745828 -0.0961469 0
M  V30 37816 H 3495.72 -2.94503 0.48069 0
M  V30 37817 C 3494.47 -3.23639 -1.27096 0
M  V30 37818 H 3493.79 -3.9274 -0.748013 0
M  V30 37819 H 3495.23 -3.84655 -1.78373 0
M  V30 37820 C 3493.69 -2.45538 -2.30679 0
M  V30 37821 O 3494.22 -2.1832 -3.37193 0
M  V30 37822 N 3492.43 -2.06958 -2.04002 0
M  V30 37823 H 3491.98 -2.29293 -1.17399 0
M  V30 37824 H 3491.93 -1.55014 -2.73529 0
M  V30 37825 N 3495.71 -0.269505 -1.55279 0
M  V30 37826 C 3496.95 0.348189 -1.99078 0
M  V30 37827 C 3497.28 1.56798 -1.15928 0
M  V30 37828 O 3496.55 1.94331 -0.247438 0
M  V30 37829 H 3495.13 0.13164 -0.735309 0
M  V30 37830 H 3497.79 -0.37354 -1.91287 0
M  V30 37831 H 3496.88 0.6419 -3.05428 0
M  V30 37832 N 3497.18 1.576 0.00329885 0
M  V30 37833 C 3498.6 1.55502 0.359333 0
M  V30 37834 C 3498.8 0.998945 1.74995 0
M  V30 37835 O 3497.86 0.631306 2.44481 0
M  V30 37836 C 3499.17 2.9976 0.237585 0
M  V30 37837 C 3500.72 3.11433 0.312769 0
M  V30 37838 C 3501.19 4.5747 0.220182 0
M  V30 37839 N 3502.68 4.62364 0.278184 0
M  V30 37840 C 3503.42 5.72939 0.229833 0
M  V30 37841 N 3502.91 6.92674 0.13227 0
M  V30 37842 N 3504.71 5.61395 0.281456 0
M  V30 37843 H 3496.86 1.92087 -0.906438 0
M  V30 37844 H 3499.12 0.882154 -0.347144 0
M  V30 37845 H 3498.83 3.44271 -0.719068 0
M  V30 37846 H 3498.7 3.6312 1.02098 0
M  V30 37847 H 3501.09 2.66855 1.25987 0
M  V30 37848 H 3501.17 2.50857 -0.500439 0
M  V30 37849 H 3500.81 5.02723 -0.723356 0
M  V30 37850 H 3500.74 5.15988 1.05183 0
M  V30 37851 H 3503.23 3.76228 0.355054 0
M  V30 37852 H 3503.55 7.72734 0.101181 0
M  V30 37853 H 3501.89 6.94931 0.0979444 0
M  V30 37854 H 3505.08 4.66745 0.355849 0
M  V30 37855 H 3505.26 6.47554 0.240309 0
M  V30 37856 N 3498.66 -0.276003 1.55164 0
M  V30 37857 C 3499.89 -1.0306 1.79982 0
M  V30 37858 C 3500.31 -1.79262 0.5698 0
M  V30 37859 O 3499.67 -1.74816 -0.480509 0
M  V30 37860 C 3499.72 -1.96723 3.02213 0
M  V30 37861 O 3498.82 -3.05444 2.77088 0
M  V30 37862 H 3498.16 -0.294803 0.594968 0
M  V30 37863 H 3500.69 -0.305825 2.02301 0
M  V30 37864 H 3500.7 -2.38732 3.30864 0
M  V30 37865 H 3499.38 -1.4067 3.91388 0
M  V30 37866 H 3497.96 -2.67771 2.59524 0
M  V30 37867 N 3500.14 -1.48046 -0.540378 0
M  V30 37868 C 3501.39 -1.5479 -1.29318 0
M  V30 37869 C 3501.7 -0.222143 -1.94334 0
M  V30 37870 O 3502.91 -0.167723 -2.70981 0
M  V30 37871 C 3501.36 -2.72939 -2.3459 0
M  V30 37872 C 3500.97 -4.12114 -1.75689 0
M  V30 37873 C 3502.72 -2.88988 -3.10944 0
M  V30 37874 C 3500.62 -5.21538 -2.7884 0
M  V30 37875 H 3499.55 -0.576214 -0.486305 0
M  V30 37876 H 3502.2 -1.74358 -0.571968 0
M  V30 37877 H 3500.59 -2.46783 -3.097 0
M  V30 37878 H 3501.76 -4.48244 -1.06837 0
M  V30 37879 H 3500.08 -4.01093 -1.11862 0
M  V30 37880 H 3502.67 -3.67907 -3.88006 0
M  V30 37881 H 3503.02 -1.98054 -3.6617 0
M  V30 37882 H 3503.55 -3.14994 -2.42948 0
M  V30 37883 H 3500.29 -6.14404 -2.28448 0
M  V30 37884 H 3499.81 -4.89907 -3.4605 0
M  V30 37885 H 3501.49 -5.49209 -3.42021 0
M  V30 37886 N 3501.62 0.788444 -1.3646 0
M  V30 37887 C 3502.55 1.91539 -1.33549 0
M  V30 37888 C 3503.53 1.68838 -0.206792 0
M  V30 37889 O 3504.71 1.89939 -0.404586 0
M  V30 37890 C 3501.84 3.28575 -1.12498 0
M  V30 37891 C 3500.8 3.65801 -2.22202 0
M  V30 37892 C 3500.12 5.01197 -1.86294 0
M  V30 37893 C 3501.42 3.74283 -3.64293 0
M  V30 37894 H 3503.12 1.94232 -2.27847 0
M  V30 37895 H 3500.66 0.933086 -1.09679 0
M  V30 37896 H 3502.62 4.07033 -1.09096 0
M  V30 37897 H 3501.34 3.26271 -0.146503 0
M  V30 37898 H 3500 2.8964 -2.24732 0
M  V30 37899 H 3499.65 4.95416 -0.870177 0
M  V30 37900 H 3499.35 5.27074 -2.59743 0
M  V30 37901 H 3500.87 5.82075 -1.84449 0
M  V30 37902 H 3502.29 4.42931 -3.63985 0
M  V30 37903 H 3500.68 4.11645 -4.36655 0
M  V30 37904 H 3501.75 2.75364 -3.99128 0
M  V30 37905 N 3503.1 1.20755 1.01271 0
M  V30 37906 C 3504.03 0.983842 2.11761 0
M  V30 37907 C 3505.01 -0.0885337 1.69869 0
M  V30 37908 O 3506.19 0.069758 1.94075 0
M  V30 37909 C 3503.32 0.539348 3.43086 0
M  V30 37910 C 3502.28 1.55541 3.98737 0
M  V30 37911 C 3501.6 0.967414 5.25876 0
M  V30 37912 C 3502.9 2.94019 4.31683 0
M  V30 37913 H 3504.6 1.90794 2.30734 0
M  V30 37914 H 3502.14 0.918754 1.10882 0
M  V30 37915 H 3504.1 0.370053 4.19772 0
M  V30 37916 H 3502.82 -0.420378 3.23883 0
M  V30 37917 H 3501.48 1.71213 3.24163 0
M  V30 37918 H 3501.13 -0.000359892 5.03 0
M  V30 37919 H 3500.83 1.64604 5.64074 0
M  V30 37920 H 3502.35 0.809273 6.05213 0
M  V30 37921 H 3503.76 2.81835 4.99241 0
M  V30 37922 H 3502.16 3.58824 4.81005 0
M  V30 37923 H 3503.23 3.45448 3.40284 0
M  V30 37924 N 3504.58 -1.20642 1.01406 0
M  V30 37925 C 3505.8 -1.93928 0.721075 0
M  V30 37926 C 3506.22 -1.74622 -0.717822 0
M  V30 37927 O 3505.58 -1.05858 -1.48662 0
M  V30 37928 C 3505.63 -3.46095 1.04405 0
M  V30 37929 O 3505.35 -3.64768 2.42643 0
M  V30 37930 C 3506.85 -4.3653 0.771755 0
M  V30 37931 H 3504.07 -0.616457 0.264994 0
M  V30 37932 H 3506.61 -1.53206 1.35456 0
M  V30 37933 H 3504.77 -3.84707 0.456013 0
M  V30 37934 H 3505.18 -4.58779 2.54209 0
M  V30 37935 H 3506.66 -5.41963 1.04784 0
M  V30 37936 H 3507.13 -4.38214 -0.294111 0
M  V30 37937 H 3507.74 -4.03578 1.34183 0
M  V30 37938 N 3506.05 -0.789968 -1.36372 0
M  V30 37939 C 3507.02 -0.194679 -2.28372 0
M  V30 37940 C 3508.02 0.608306 -1.4885 0
M  V30 37941 O 3509.21 0.42922 -1.68829 0
M  V30 37942 C 3506.34 0.730495 -3.32981 0
M  V30 37943 H 3507.53 -1.0059 -2.82527 0
M  V30 37944 H 3505.08 -0.559431 -1.45945 0
M  V30 37945 H 3505.82 1.56603 -2.83982 0
M  V30 37946 H 3505.6 0.156637 -3.91787 0
M  V30 37947 H 3507.09 1.14185 -4.01686 0
M  V30 37948 N 3507.53 1.47986 -0.542031 0
M  V30 37949 C 3508.46 2.32619 0.202662 0
M  V30 37950 C 3509.44 1.42848 0.923496 0
M  V30 37951 O 3510.63 1.71722 0.906927 0
M  V30 37952 C 3507.76 3.24309 1.24261 0
M  V30 37953 C 3506.71 4.232 0.639183 0
M  V30 37954 C 3506.04 5.04108 1.78266 0
M  V30 37955 C 3507.34 5.20788 -0.397073 0
M  V30 37956 H 3509.03 2.9513 -0.503868 0
M  V30 37957 H 3506.58 1.41922 -0.243761 0
M  V30 37958 H 3508.53 3.8235 1.77163 0
M  V30 37959 H 3507.25 2.59822 1.97888 0
M  V30 37960 H 3505.91 3.66364 0.131591 0
M  V30 37961 H 3505.56 4.36037 2.50761 0
M  V30 37962 H 3505.26 5.7105 1.38477 0
M  V30 37963 H 3506.79 5.65004 2.31523 0
M  V30 37964 H 3508.2 5.73282 0.045305 0
M  V30 37965 H 3506.6 5.95849 -0.713015 0
M  V30 37966 H 3507.67 4.6719 -1.29851 0
M  V30 37967 N 3509.01 0.277736 1.55133 0
M  V30 37968 C 3509.94 -0.602192 2.25601 0
M  V30 37969 C 3510.92 -1.15678 1.2471 0
M  V30 37970 O 3512.11 -1.19044 1.53435 0
M  V30 37971 C 3509.24 -1.78514 2.9791 0
M  V30 37972 C 3508.19 -1.36196 4.05752 0
M  V30 37973 C 3507.52 -2.62821 4.65649 0
M  V30 37974 C 3508.82 -0.510236 5.19802 0
M  V30 37975 H 3510.51 -0.0145096 2.99396 0
M  V30 37976 H 3508.06 -0.00553857 1.43999 0
M  V30 37977 H 3510.01 -2.40662 3.45919 0
M  V30 37978 H 3508.73 -2.39869 2.21654 0
M  V30 37979 H 3507.39 -0.763663 3.58558 0
M  V30 37980 H 3507.04 -3.22441 3.86058 0
M  V30 37981 H 3506.74 -2.35217 5.38467 0
M  V30 37982 H 3508.26 -3.25813 5.16409 0
M  V30 37983 H 3509.68 -1.03679 5.63847 0
M  V30 37984 H 3508.07 -0.328967 5.99198 0
M  V30 37985 H 3509.14 0.470358 4.82613 0
M  V30 37986 N 3510.49 -1.57599 0.00505908 0
M  V30 37987 C 3511.45 -2.07681 -0.969592 0
M  V30 37988 C 3512.45 -0.98717 -1.26931 0
M  V30 37989 O 3513.64 -1.24964 -1.21366 0
M  V30 37990 C 3510.77 -2.52251 -2.29308 0
M  V30 37991 H 3511.97 -2.95066 -0.53629 0
M  V30 37992 H 3509.52 -1.54407 -0.242516 0
M  V30 37993 H 3510.25 -1.68125 -2.77317 0
M  V30 37994 H 3510.04 -3.31835 -2.08872 0
M  V30 37995 H 3511.53 -2.91307 -2.99216 0
M  V30 37996 N 3511.97 0.267771 -1.55309 0
M  V30 37997 C 3512.9 1.33522 -1.91557 0
M  V30 37998 C 3513.88 1.51264 -0.778028 0
M  V30 37999 O 3515.06 1.6422 -1.0366 0
M  V30 38000 C 3512.19 2.69381 -2.19206 0
M  V30 38001 C 3511.15 2.66363 -3.35014 0
M  V30 38002 C 3510.47 4.05823 -3.48155 0
M  V30 38003 C 3511.77 2.25174 -4.71268 0
M  V30 38004 H 3513.47 1.03432 -2.80966 0
M  V30 38005 H 3511.01 0.496117 -1.35184 0
M  V30 38006 H 3512.96 3.44173 -2.43152 0
M  V30 38007 H 3511.69 3.01064 -1.26601 0
M  V30 38008 H 3510.35 1.94028 -3.11044 0
M  V30 38009 H 3510 4.34737 -2.53007 0
M  V30 38010 H 3509.7 4.04697 -4.26021 0
M  V30 38011 H 3511.22 4.82346 -3.74399 0
M  V30 38012 H 3512.63 2.8969 -4.94724 0
M  V30 38013 H 3511.03 2.352 -5.52088 0
M  V30 38014 H 3512.1 1.20311 -4.69738 0
M  V30 38015 N 3513.44 1.48331 0.532519 0
M  V30 38016 C 3514.69 1.55473 1.28495 0
M  V30 38017 C 3515.01 0.232446 1.94214 0
M  V30 38018 O 3516.21 0.182091 2.70889 0
M  V30 38019 C 3514.67 2.74179 2.33139 0
M  V30 38020 C 3514.28 4.13039 1.73501 0
M  V30 38021 C 3516.02 2.90633 3.09407 0
M  V30 38022 C 3513.93 5.2301 2.7607 0
M  V30 38023 H 3512.86 0.578785 0.483243 0
M  V30 38024 H 3515.51 1.74659 0.562713 0
M  V30 38025 H 3513.89 2.48422 3.08387 0
M  V30 38026 H 3515.06 4.48804 1.04458 0
M  V30 38027 H 3513.38 4.01681 1.09733 0
M  V30 38028 H 3515.98 3.6996 3.86049 0
M  V30 38029 H 3516.32 1.99994 3.65114 0
M  V30 38030 H 3516.85 3.16278 2.41274 0
M  V30 38031 H 3513.59 6.15606 2.25186 0
M  V30 38032 H 3513.11 4.91736 3.43447 0
M  V30 38033 H 3514.79 5.51015 3.39103 0
M  V30 38034 N 3514.92 -0.781196 1.36876 0
M  V30 38035 C 3515.85 -1.90828 1.34563 0
M  V30 38036 C 3516.83 -1.68726 0.215743 0
M  V30 38037 O 3518.02 -1.89722 0.414653 0
M  V30 38038 C 3515.15 -3.27974 1.14239 0
M  V30 38039 C 3514.1 -3.64617 2.24139 0
M  V30 38040 C 3513.43 -5.00202 1.88949 0
M  V30 38041 C 3514.73 -3.72346 3.66273 0
M  V30 38042 H 3516.42 -1.93021 2.28874 0
M  V30 38043 H 3513.97 -0.927256 1.10172 0
M  V30 38044 H 3515.92 -4.06449 1.11253 0
M  V30 38045 H 3514.64 -3.26189 0.163804 0
M  V30 38046 H 3513.3 -2.88444 2.26264 0
M  V30 38047 H 3512.95 -4.94947 0.896438 0
M  V30 38048 H 3512.65 -5.25689 2.62534 0
M  V30 38049 H 3514.18 -5.81088 1.87533 0
M  V30 38050 H 3515.59 -4.40994 3.66329 0
M  V30 38051 H 3513.99 -4.09324 4.38832 0
M  V30 38052 H 3515.06 -2.73243 4.00582 0
M  V30 38053 N 3516.4 -1.21291 -1.0063 0
M  V30 38054 C 3517.65 -1.03087 -1.74645 0
M  V30 38055 C 3517.98 0.434727 -1.89272 0
M  V30 38056 O 3517.25 1.32261 -1.42609 0
M  V30 38057 C 3517.54 -1.72714 -3.15977 0
M  V30 38058 C 3517.39 -3.26785 -3.09082 0
M  V30 38059 C 3518.71 -1.46864 -4.14872 0
M  V30 38060 H 3515.83 -0.3759 -0.633931 0
M  V30 38061 H 3518.47 -1.49448 -1.17326 0
M  V30 38062 H 3516.62 -1.333 -3.64915 0
M  V30 38063 H 3518.29 -3.75559 -2.67868 0
M  V30 38064 H 3516.53 -3.57155 -2.46217 0
M  V30 38065 H 3517.21 -3.70668 -4.09034 0
M  V30 38066 H 3519.68 -1.81076 -3.74634 0
M  V30 38067 H 3518.56 -1.98097 -5.11907 0
M  V30 38068 H 3518.82 -0.398373 -4.40301 0
M  V30 38069 N 3517.88 1.20103 -1.02045 0
M  V30 38070 C 3519.11 1.93262 -0.730288 0
M  V30 38071 C 3519.52 1.75228 0.713559 0
M  V30 38072 O 3518.86 1.06599 1.49607 0
M  V30 38073 C 3518.92 3.4557 -0.991039 0
M  V30 38074 C 3518.58 3.87368 -2.42476 0
M  V30 38075 C 3519.58 3.92816 -3.40576 0
M  V30 38076 C 3517.27 4.19248 -2.76652 0
M  V30 38077 C 3519.26 4.2956 -4.70911 0
M  V30 38078 C 3516.95 4.55666 -4.072 0
M  V30 38079 C 3517.95 4.60795 -5.0414 0
M  V30 38080 O 3517.63 4.96375 -6.3235 0
M  V30 38081 H 3517.37 0.62097 -0.267157 0
M  V30 38082 H 3519.92 1.5343 -1.36559 0
M  V30 38083 H 3518.15 3.85546 -0.298575 0
M  V30 38084 H 3519.84 3.9996 -0.691863 0
M  V30 38085 H 3520.6 3.68346 -3.15509 0
M  V30 38086 H 3516.48 4.14445 -2.01883 0
M  V30 38087 H 3520.03 4.33478 -5.46574 0
M  V30 38088 H 3515.92 4.79592 -4.32044 0
M  V30 38089 H 3516.69 5.14354 -6.36696 0
M  V30 38090 N 3519.36 0.797189 1.35951 0
M  V30 38091 C 3520.29 0.215318 2.32505 0
M  V30 38092 C 3521.27 -0.654018 1.57024 0
M  V30 38093 O 3522.45 -0.586235 1.8514 0
M  V30 38094 C 3519.58 -0.644497 3.41268 0
M  V30 38095 C 3518.54 0.125576 4.27816 0
M  V30 38096 C 3517.86 -0.855335 5.27814 0
M  V30 38097 C 3519.16 1.31922 5.05365 0
M  V30 38098 H 3520.86 1.02198 2.81418 0
M  V30 38099 H 3518.4 0.492886 1.35302 0
M  V30 38100 H 3520.36 -1.06156 4.0781 0
M  V30 38101 H 3519.08 -1.48395 2.90941 0
M  V30 38102 H 3517.74 0.523703 3.6284 0
M  V30 38103 H 3517.39 -1.69003 4.73758 0
M  V30 38104 H 3517.09 -0.344463 5.86589 0
M  V30 38105 H 3518.61 -1.2708 5.97229 0
M  V30 38106 H 3520.02 0.977518 5.64905 0
M  V30 38107 H 3518.42 1.76392 5.7359 0
M  V30 38108 H 3519.49 2.11065 4.36554 0
M  V30 38109 N 3520.83 -1.47696 0.549872 0
M  V30 38110 C 3522.08 -2.02487 0.0230859 0
M  V30 38111 C 3522.41 -1.42499 -1.32379 0
M  V30 38112 O 3521.66 -0.567474 -1.87292 0
M  V30 38113 C 3521.96 -3.57174 -0.127205 0
M  V30 38114 C 3521.63 -4.36045 1.14785 0
M  V30 38115 C 3520.29 -4.57314 1.49724 0
M  V30 38116 C 3522.64 -4.81586 1.99311 0
M  V30 38117 C 3519.97 -5.21372 2.69051 0
M  V30 38118 C 3522.32 -5.46959 3.17834 0
M  V30 38119 C 3520.99 -5.66463 3.53096 0
M  V30 38120 H 3520.26 -0.740952 0.00844774 0
M  V30 38121 H 3522.9 -1.77453 0.719907 0
M  V30 38122 H 3521.21 -3.81159 -0.906941 0
M  V30 38123 H 3522.91 -3.9721 -0.550034 0
M  V30 38124 H 3519.5 -4.19765 0.865777 0
M  V30 38125 H 3523.68 -4.64938 1.73626 0
M  V30 38126 H 3518.94 -5.34667 2.96549 0
M  V30 38127 H 3523.11 -5.81211 3.83623 0
M  V30 38128 H 3520.74 -6.15871 4.45654 0
M  V30 38129 N 3522.31 -0.285959 -1.54984 0
M  V30 38130 C 3523.54 0.333585 -2.047 0
M  V30 38131 C 3523.96 1.47873 -1.16254 0
M  V30 38132 O 3523.32 1.80562 -0.163407 0
M  V30 38133 C 3523.37 0.781808 -3.52023 0
M  V30 38134 O 3522.47 1.88805 -3.66642 0
M  V30 38135 H 3521.81 0.0673087 -0.66058 0
M  V30 38136 H 3524.34 -0.423421 -2.00171 0
M  V30 38137 H 3524.35 1.07466 -3.93592 0
M  V30 38138 H 3523.03 -0.0559661 -4.15862 0
M  V30 38139 H 3521.61 1.5969 -3.36977 0
M  V30 38140 N 3523.79 1.57594 -0.0134169 0
M  V30 38141 C 3525.04 1.90322 0.667862 0
M  V30 38142 C 3525.35 0.889871 1.74186 0
M  V30 38143 O 3526.56 1.10784 2.47869 0
M  V30 38144 C 3525.01 3.37896 1.23911 0
M  V30 38145 C 3524.62 4.47557 0.199234 0
M  V30 38146 C 3526.37 3.79715 1.89781 0
M  V30 38147 C 3524.27 5.86217 0.781236 0
M  V30 38148 H 3523.2 0.71021 0.253216 0
M  V30 38149 H 3525.85 1.83342 -0.0761551 0
M  V30 38150 H 3524.24 3.39757 2.03423 0
M  V30 38151 H 3525.41 4.57233 -0.572276 0
M  V30 38152 H 3523.73 4.14843 -0.359792 0
M  V30 38153 H 3526.32 4.80655 2.34253 0
M  V30 38154 H 3526.67 3.13939 2.73401 0
M  V30 38155 H 3527.2 3.8021 1.16983 0
M  V30 38156 H 3523.94 6.55498 -0.016475 0
M  V30 38157 H 3523.46 5.80179 1.52159 0
M  V30 38158 H 3525.14 6.34297 1.27579 0
M  V30 38159 N 3525.27 -0.259531 1.55448 0
M  V30 38160 C 3526.51 -0.990785 1.7695 0
M  V30 38161 C 3526.85 -1.85448 0.576434 0
M  V30 38162 O 3526.12 -1.89785 -0.42566 0
M  V30 38163 C 3526.41 -1.86199 3.08224 0
M  V30 38164 C 3526.26 -1.02733 4.37911 0
M  V30 38165 C 3527.58 -2.84673 3.35633 0
M  V30 38166 H 3524.7 -0.358777 0.643777 0
M  V30 38167 H 3527.34 -0.262178 1.88182 0
M  V30 38168 H 3525.49 -2.48321 2.98779 0
M  V30 38169 H 3527.16 -0.425774 4.59331 0
M  V30 38170 H 3525.4 -0.331232 4.32534 0
M  V30 38171 H 3526.07 -1.67041 5.26119 0
M  V30 38172 H 3528.55 -2.32687 3.44958 0
M  V30 38173 H 3527.43 -3.42762 4.28725 0
M  V30 38174 H 3527.69 -3.60491 2.55927 0
M  V30 38175 N 3526.75 -1.48611 -0.524645 0
M  V30 38176 C 3527.99 -1.5659 -1.27765 0
M  V30 38177 C 3528.32 -0.243933 -1.93468 0
M  V30 38178 O 3527.59 0.734953 -1.81591 0
M  V30 38179 H 3526.17 -0.576893 -0.474556 0
M  V30 38180 H 3528.83 -1.85105 -0.610081 0
M  V30 38181 H 3527.92 -2.34973 -2.05412 0
M  V30 38182 N 3528.22 0.773926 -1.37289 0
M  V30 38183 C 3529.47 1.53241 -1.32377 0
M  V30 38184 C 3529.8 1.9428 0.0923942 0
M  V30 38185 O 3529.05 1.64174 1.06514 0
M  V30 38186 C 3529.35 2.81138 -2.20672 0
M  V30 38187 C 3529.02 2.59162 -3.6898 0
M  V30 38188 C 3527.68 2.52877 -4.09398 0
M  V30 38189 C 3530.03 2.39438 -4.62946 0
M  V30 38190 C 3527.36 2.24856 -5.41901 0
M  V30 38191 C 3529.71 2.12941 -5.95683 0
M  V30 38192 C 3528.38 2.05099 -6.35209 0
M  V30 38193 H 3527.65 0.560747 -0.4844 0
M  V30 38194 H 3530.29 0.891633 -1.69476 0
M  V30 38195 H 3528.6 3.49763 -1.7656 0
M  V30 38196 H 3530.3 3.39006 -2.14186 0
M  V30 38197 H 3526.89 2.64916 -3.36924 0
M  V30 38198 H 3531.07 2.43286 -4.3258 0
M  V30 38199 H 3526.33 2.17278 -5.7149 0
M  V30 38200 H 3530.5 1.96678 -6.6805 0
M  V30 38201 H 3528.13 1.8315 -7.37808 0
M  V30 38202 N 3529.7 1.21823 0.99985 0
M  V30 38203 C 3530.63 1.00625 2.10706 0
M  V30 38204 C 3531.61 -0.0705118 1.69954 0
M  V30 38205 O 3532.8 0.0903383 1.9399 0
M  V30 38206 C 3529.93 0.575706 3.42495 0
M  V30 38207 C 3528.88 1.59761 3.97065 0
M  V30 38208 C 3528.21 1.02314 5.2482 0
M  V30 38209 C 3529.51 2.98581 4.2854 0
M  V30 38210 H 3531.2 1.9323 2.28697 0
M  V30 38211 H 3528.75 0.930462 1.09902 0
M  V30 38212 H 3530.7 0.414555 4.19356 0
M  V30 38213 H 3529.43 -0.386002 3.24311 0
M  V30 38214 H 3528.08 1.74642 3.22329 0
M  V30 38215 H 3527.73 0.05299 5.02972 0
M  V30 38216 H 3527.43 1.70577 5.62296 0
M  V30 38217 H 3528.96 0.873418 6.04321 0
M  V30 38218 H 3530.37 2.87115 4.96224 0
M  V30 38219 H 3528.77 3.63905 4.77172 0
M  V30 38220 H 3529.84 3.49038 3.36601 0
M  V30 38221 N 3531.18 -1.1956 1.0268 0
M  V30 38222 C 3532.43 -1.8919 0.722049 0
M  V30 38223 C 3532.76 -1.79492 -0.749186 0
M  V30 38224 O 3532.01 -1.18028 -1.56102 0
M  V30 38225 C 3532.31 -3.39527 1.11609 0
M  V30 38226 C 3531.98 -3.69426 2.58524 0
M  V30 38227 C 3530.64 -3.77297 2.98664 0
M  V30 38228 C 3532.99 -3.82919 3.53585 0
M  V30 38229 C 3530.32 -3.96127 4.32782 0
M  V30 38230 C 3532.67 -4.03261 4.87405 0
M  V30 38231 C 3531.33 -4.09364 5.27236 0
M  V30 38232 H 3530.6 -0.692294 0.264217 0
M  V30 38233 H 3533.25 -1.41598 1.28927 0
M  V30 38234 H 3531.56 -3.89002 0.467443 0
M  V30 38235 H 3533.25 -3.91717 0.85784 0
M  V30 38236 H 3529.84 -3.63907 2.26427 0
M  V30 38237 H 3534.03 -3.76184 3.23728 0
M  V30 38238 H 3529.28 -3.9909 4.63182 0
M  V30 38239 H 3533.46 -4.12643 5.6098 0
M  V30 38240 H 3531.08 -4.23707 6.31171 0
M  V30 38241 N 3532.66 -0.804387 -1.35526 0
M  V30 38242 C 3533.59 -0.227645 -2.32388 0
M  V30 38243 C 3534.57 0.645681 -1.57369 0
M  V30 38244 O 3535.75 0.576409 -1.85449 0
M  V30 38245 C 3532.88 0.62639 -3.41605 0
M  V30 38246 C 3531.84 -0.148262 -4.27743 0
M  V30 38247 C 3531.16 0.827332 -5.28261 0
M  V30 38248 C 3532.46 -1.346 -5.04658 0
M  V30 38249 H 3534.16 -1.03689 -2.80872 0
M  V30 38250 H 3531.7 -0.500054 -1.35039 0
M  V30 38251 H 3533.66 1.03992 -4.08367 0
M  V30 38252 H 3532.38 1.4685 -2.91724 0
M  V30 38253 H 3531.04 -0.542938 -3.62557 0
M  V30 38254 H 3530.69 1.66488 -4.74648 0
M  V30 38255 H 3530.39 0.31335 -5.86764 0
M  V30 38256 H 3531.91 1.23911 -5.97895 0
M  V30 38257 H 3533.33 -1.00746 -5.64378 0
M  V30 38258 H 3531.72 -1.79432 -5.72647 0
M  V30 38259 H 3532.79 -2.13377 -4.35429 0
M  V30 38260 N 3534.14 1.47403 -0.557697 0
M  V30 38261 C 3535.08 2.30019 0.189725 0
M  V30 38262 C 3536.05 1.39091 0.907899 0
M  V30 38263 O 3537.24 1.68052 0.903498 0
M  V30 38264 C 3534.38 3.23063 1.21342 0
M  V30 38265 C 3533.49 4.29082 0.501267 0
M  V30 38266 C 3532.63 5.09277 1.5103 0
M  V30 38267 C 3531.67 6.07069 0.783147 0
M  V30 38268 N 3530.8 6.80222 1.73904 0
M  V30 38269 H 3535.64 2.93412 -0.520908 0
M  V30 38270 H 3533.18 1.44625 -0.268711 0
M  V30 38271 H 3535.14 3.75431 1.81954 0
M  V30 38272 H 3533.77 2.61534 1.89209 0
M  V30 38273 H 3532.82 3.79767 -0.219384 0
M  V30 38274 H 3534.13 4.98753 -0.0683532 0
M  V30 38275 H 3533.29 5.65797 2.18994 0
M  V30 38276 H 3532.03 4.39509 2.11384 0
M  V30 38277 H 3531.03 5.49727 0.0895916 0
M  V30 38278 H 3532.26 6.78847 0.185344 0
M  V30 38279 H 3530.2 6.13183 2.33114 0
M  V30 38280 H 3530.12 7.46065 1.22158 0
M  V30 38281 H 3531.39 7.41316 2.4098 0
M  V30 38282 N 3535.62 0.294175 1.5483 0
M  V30 38283 C 3536.89 -0.369868 1.92071 0
M  V30 38284 C 3537.27 -1.72231 1.22064 0
M  V30 38285 O 3536.62 -2.25741 0.354015 0
M  V30 38286 C 3536.83 -0.491289 3.45525 0
M  V30 38287 C 3538.18 -0.765338 4.17645 0
M  V30 38288 O 3539.2 -0.575366 3.51522 0
M  V30 38289 O 3538.06 -1.12982 5.34694 0
M  V30 38290 H 3535.16 -0.205596 0.801036 0
M  V30 38291 H 3537.7 0.341731 1.66224 0
M  V30 38292 H 3536.47 0.459732 3.8859 0
M  V30 38293 H 3536.1 -1.25162 3.77386 0
M  V30 38294 N 3537.09 -1.57585 0.0217743 0
M  V30 38295 C 3538.37 -1.82772 -0.696701 0
M  V30 38296 C 3538.75 -0.904146 -1.90757 0
M  V30 38297 O 3538.1 0.042012 -2.28461 0
M  V30 38298 C 3538.31 -3.31808 -1.08187 0
M  V30 38299 C 3539.66 -3.98098 -1.4766 0
M  V30 38300 O 3540.68 -3.3626 -1.17506 0
M  V30 38301 O 3539.54 -5.07071 -2.03816 0
M  V30 38302 H 3536.63 -0.753366 -0.341127 0
M  V30 38303 H 3539.18 -1.6963 0.048895 0
M  V30 38304 H 3537.95 -3.90683 -0.21973 0
M  V30 38305 H 3537.57 -3.5003 -1.88587 0
M  V30 38306 N 3538.57 0.251283 -1.55584 0
M  V30 38307 C 3539.82 0.979935 -1.7721 0
M  V30 38308 C 3540.15 1.85484 -0.585312 0
M  V30 38309 O 3539.4 1.90883 0.431526 0
M  V30 38310 C 3539.7 1.87456 -3.04294 0
M  V30 38311 C 3539.37 1.15537 -4.35846 0
M  V30 38312 C 3538.03 0.956596 -4.71596 0
M  V30 38313 C 3540.38 0.64529 -5.1719 0
M  V30 38314 C 3537.71 0.235362 -5.86228 0
M  V30 38315 C 3540.06 -0.0624553 -6.32569 0
M  V30 38316 C 3538.72 -0.272751 -6.66943 0
M  V30 38317 H 3537.99 0.358584 -0.648459 0
M  V30 38318 H 3540.64 0.250389 -1.89856 0
M  V30 38319 H 3538.95 2.67102 -2.86642 0
M  V30 38320 H 3540.64 2.43995 -3.18225 0
M  V30 38321 H 3537.23 1.32024 -4.07759 0
M  V30 38322 H 3541.42 0.786419 -4.9003 0
M  V30 38323 H 3536.67 0.0619157 -6.11369 0
M  V30 38324 H 3540.85 -0.465356 -6.94843 0
M  V30 38325 H 3538.47 -0.833575 -7.55616 0
M  V30 38326 N 3540.05 1.48887 0.516757 0
M  V30 38327 C 3541.3 1.56827 1.26839 0
M  V30 38328 C 3541.61 0.253032 1.93956 0
M  V30 38329 O 3542.82 0.210813 2.7068 0
M  V30 38330 C 3541.27 2.76637 2.30218 0
M  V30 38331 C 3540.88 4.14856 1.6911 0
M  V30 38332 C 3542.63 2.93898 3.06307 0
M  V30 38333 C 3540.53 5.25909 2.70507 0
M  V30 38334 H 3539.46 0.583878 0.477077 0
M  V30 38335 H 3542.11 1.75246 0.544156 0
M  V30 38336 H 3540.5 2.51679 3.05734 0
M  V30 38337 H 3541.67 4.49887 0.996924 0
M  V30 38338 H 3539.98 4.02822 1.05466 0
M  V30 38339 H 3542.58 3.74033 3.82104 0
M  V30 38340 H 3542.92 2.03855 3.62972 0
M  V30 38341 H 3543.46 3.18819 2.37906 0
M  V30 38342 H 3540.2 6.1796 2.18644 0
M  V30 38343 H 3539.72 4.95351 3.38212 0
M  V30 38344 H 3541.4 5.54581 3.3324 0
M  V30 38345 N 3541.53 -0.766635 1.37697 0
M  V30 38346 C 3542.46 -1.8939 1.36579 0
M  V30 38347 C 3543.44 -1.68488 0.233626 0
M  V30 38348 O 3544.62 -1.89271 0.434753 0
M  V30 38349 C 3541.75 -3.26744 1.17711 0
M  V30 38350 C 3540.71 -3.62219 2.27994 0
M  V30 38351 C 3540.03 -4.9817 1.94244 0
M  V30 38352 C 3541.33 -3.6844 3.70201 0
M  V30 38353 H 3543.03 -1.90583 2.30908 0
M  V30 38354 H 3540.57 -0.915518 1.1115 0
M  V30 38355 H 3542.53 -4.05246 1.15558 0
M  V30 38356 H 3541.25 -3.25997 0.198392 0
M  V30 38357 H 3539.91 -2.86028 2.29311 0
M  V30 38358 H 3539.56 -4.93969 0.948883 0
M  V30 38359 H 3539.26 -5.22875 2.68095 0
M  V30 38360 H 3540.78 -5.79067 1.93686 0
M  V30 38361 H 3542.2 -4.37084 3.70986 0
M  V30 38362 H 3540.59 -4.04647 4.43149 0
M  V30 38363 H 3541.66 -2.68979 4.03458 0
M  V30 38364 N 3543.01 -1.22351 -0.993375 0
M  V30 38365 C 3543.92 -1.00951 -2.11769 0
M  V30 38366 C 3544.93 0.0420373 -1.73949 0
M  V30 38367 O 3546.11 -0.150584 -2.00836 0
M  V30 38368 C 3543.17 -0.589419 -3.41653 0
M  V30 38369 C 3542.23 -1.71453 -3.93576 0
M  V30 38370 C 3541.47 -1.31439 -5.17262 0
M  V30 38371 O 3541.69 -0.192977 -5.70073 0
M  V30 38372 O 3540.62 -2.13069 -5.62926 0
M  V30 38373 H 3544.45 -1.95146 -2.32705 0
M  V30 38374 H 3542.03 -1.00941 -1.10142 0
M  V30 38375 H 3543.92 -0.365477 -4.19812 0
M  V30 38376 H 3542.59 0.323682 -3.22078 0
M  V30 38377 H 3541.5 -1.99299 -3.16592 0
M  V30 38378 H 3542.83 -2.60548 -4.17583 0
M  V30 38379 N 3544.48 1.19014 -1.03313 0
M  V30 38380 C 3545.73 1.89084 -0.733157 0
M  V30 38381 C 3546.06 1.79683 0.736719 0
M  V30 38382 O 3545.34 1.19204 1.5369 0
M  V30 38383 C 3545.62 3.39857 -1.19034 0
M  V30 38384 C 3545.47 3.58107 -2.72175 0
M  V30 38385 C 3546.79 4.33232 -0.774459 0
M  V30 38386 H 3543.91 0.686619 -0.267812 0
M  V30 38387 H 3546.55 1.40066 -1.2838 0
M  V30 38388 H 3544.7 3.81735 -0.721866 0
M  V30 38389 H 3546.38 3.25373 -3.27002 0
M  V30 38390 H 3544.62 3.01017 -3.12364 0
M  V30 38391 H 3545.29 4.63865 -2.99221 0
M  V30 38392 H 3547.77 3.99093 -1.17746 0
M  V30 38393 H 3546.64 5.37306 -1.12219 0
M  V30 38394 H 3546.9 4.40919 0.322911 0
M  V30 38395 N 3545.96 0.811563 1.35098 0
M  V30 38396 C 3547.24 0.317323 1.93009 0
M  V30 38397 C 3547.62 -1.19379 1.74103 0
M  V30 38398 O 3546.97 -1.99562 1.11299 0
M  V30 38399 C 3547.18 0.734183 3.4119 0
M  V30 38400 C 3548.52 0.726511 4.18338 0
M  V30 38401 O 3549.55 0.676041 3.49726 0
M  V30 38402 O 3548.41 0.789386 5.40769 0
M  V30 38403 H 3545.5 0.0841674 0.822706 0
M  V30 38404 H 3548.05 0.895594 1.44143 0
M  V30 38405 H 3546.82 1.77546 3.48702 0
M  V30 38406 H 3546.44 0.130989 3.97384 0
M  V30 38407 N 3547.44 -1.47105 0.565506 0
M  V30 38408 C 3548.86 -1.57993 0.225883 0
M  V30 38409 C 3549.06 -1.56301 -1.2717 0
M  V30 38410 O 3548.11 -1.47082 -2.05239 0
M  V30 38411 C 3549.42 -2.88143 0.859879 0
M  V30 38412 C 3550.97 -3.01743 0.831874 0
M  V30 38413 C 3551.45 -4.34604 1.44509 0
M  V30 38414 N 3552.94 -4.41261 1.40865 0
M  V30 38415 C 3553.67 -5.42645 1.85268 0
M  V30 38416 N 3553.17 -6.50796 2.37564 0
M  V30 38417 N 3554.96 -5.33741 1.76288 0
M  V30 38418 H 3547.11 -1.46448 1.5384 0
M  V30 38419 H 3549.38 -0.697501 0.642025 0
M  V30 38420 H 3549.08 -2.95143 1.91269 0
M  V30 38421 H 3548.96 -3.75499 0.357828 0
M  V30 38422 H 3551.34 -2.94336 -0.212267 0
M  V30 38423 H 3551.42 -2.15908 1.37177 0
M  V30 38424 H 3551.07 -4.42768 2.48834 0
M  V30 38425 H 3551 -5.19185 0.88057 0
M  V30 38426 H 3553.49 -3.637 1.0262 0
M  V30 38427 H 3553.8 -7.24342 2.69348 0
M  V30 38428 H 3552.15 -6.51663 2.4158 0
M  V30 38429 H 3555.34 -4.48149 1.35203 0
M  V30 38430 H 3555.51 -6.12613 2.1121 0
M  V30 38431 N 3548.92 -0.302382 -1.54672 0
M  V30 38432 C 3549.85 0.566225 -2.26531 0
M  V30 38433 C 3550.83 1.1368 -1.26534 0
M  V30 38434 O 3552.01 1.16588 -1.55309 0
M  V30 38435 C 3549.14 1.73752 -3.00712 0
M  V30 38436 C 3548.1 1.29724 -4.07867 0
M  V30 38437 C 3547.42 2.5538 -4.69771 0
M  V30 38438 C 3548.72 0.427475 -5.20548 0
M  V30 38439 H 3550.42 -0.0331236 -2.99382 0
M  V30 38440 H 3547.96 -0.0173711 -1.4399 0
M  V30 38441 H 3549.92 2.35128 -3.49704 0
M  V30 38442 H 3548.64 2.36313 -2.25442 0
M  V30 38443 H 3547.3 0.706523 -3.59727 0
M  V30 38444 H 3546.95 3.16258 -3.91139 0
M  V30 38445 H 3546.65 2.26621 -5.42141 0
M  V30 38446 H 3548.17 3.17557 -5.21527 0
M  V30 38447 H 3549.59 0.946954 -5.65425 0
M  V30 38448 H 3547.98 0.233599 -5.99645 0
M  V30 38449 H 3549.05 -0.547078 -4.81804 0
M  V30 38450 N 3550.4 1.57571 -0.0301311 0
M  V30 38451 C 3551.81 1.7964 0.508559 0
M  V30 38452 C 3552.16 0.940489 1.7219 0
M  V30 38453 O 3551.28 0.151175 2.15871 0
M  V30 38454 C 3551.88 3.25803 0.929388 0
M  V30 38455 C 3550.44 3.48864 1.41319 0
M  V30 38456 C 3549.58 2.74706 0.378384 0
M  V30 38457 H 3552.54 1.56619 -0.256159 0
M  V30 38458 H 3552.56 3.3557 1.79369 0
M  V30 38459 H 3552.07 3.88073 0.0461056 0
M  V30 38460 H 3550.17 2.91848 2.31636 0
M  V30 38461 H 3550.28 4.57577 1.41987 0
M  V30 38462 H 3548.65 2.40215 0.846702 0
M  V30 38463 H 3549.43 3.39691 -0.49645 0
M  V30 38464 N 3551.87 -0.243029 1.55715 0
M  V30 38465 C 3552.82 -1.32069 1.91469 0
M  V30 38466 C 3553.82 -1.49629 0.794208 0
M  V30 38467 O 3555.02 -1.51057 0.978861 0
M  V30 38468 H 3551.4 -0.442322 0.608157 0
M  V30 38469 H 3553.37 -0.991816 2.81435 0
M  V30 38470 C 3552.12 -2.66836 2.22922 0
M  V30 38471 H 3551.44 -2.54125 3.08643 0
M  V30 38472 H 3552.88 -3.41106 2.51839 0
M  V30 38473 C 3551.34 -3.20222 1.04689 0
M  V30 38474 O 3551.87 -4.00601 0.296877 0
M  V30 38475 N 3550.08 -2.78301 0.836468 0
M  V30 38476 H 3549.62 -2.13046 1.44808 0
M  V30 38477 H 3549.58 -3.14365 0.0470719 0
M  V30 38478 N 3553.35 -1.49159 -0.508854 0
M  V30 38479 C 3554.3 -1.65723 -1.63213 0
M  V30 38480 C 3555.29 -0.523265 -1.61116 0
M  V30 38481 O 3556.5 -0.702658 -1.65719 0
M  V30 38482 H 3552.88 -0.522429 -0.5409 0
M  V30 38483 H 3554.85 -2.60023 -1.46392 0
M  V30 38484 C 3553.6 -1.73377 -3.0139 0
M  V30 38485 H 3552.92 -2.60005 -3.03706 0
M  V30 38486 H 3554.36 -1.89004 -3.79544 0
M  V30 38487 C 3552.82 -0.476888 -3.33508 0
M  V30 38488 O 3553.35 0.400915 -3.99694 0
M  V30 38489 N 3551.55 -0.342196 -2.88578 0
M  V30 38490 H 3551.1 -1.05751 -2.34892 0
M  V30 38491 H 3551.06 0.497703 -3.10436 0
M  V30 38492 N 3554.83 0.759322 -1.38102 0
M  V30 38493 C 3555.78 1.86345 -1.31376 0
M  V30 38494 C 3556.76 1.59663 -0.199141 0
M  V30 38495 O 3557.96 1.71581 -0.43462 0
M  V30 38496 C 3555.09 3.2398 -1.13542 0
M  V30 38497 C 3554.17 3.56572 -2.29602 0
M  V30 38498 N 3554.56 3.60261 -3.5503 0
M  V30 38499 C 3552.86 3.86807 -2.22028 0
M  V30 38500 C 3553.56 3.89956 -4.31636 0
M  V30 38501 N 3552.54 4.06493 -3.60922 0
M  V30 38502 H 3556.34 1.87466 -2.26349 0
M  V30 38503 H 3553.85 0.956392 -1.31251 0
M  V30 38504 H 3555.85 4.02986 -1.06808 0
M  V30 38505 H 3554.51 3.24114 -0.194979 0
M  V30 38506 H 3555.52 3.42161 -3.88775 0
M  V30 38507 H 3552.2 3.9469 -1.36111 0
M  V30 38508 H 3553.59 3.99481 -5.40245 0
M  V30 38509 N 3556.31 1.22876 0.986873 0
M  V30 38510 C 3557.53 1.0843 1.76798 0
M  V30 38511 C 3557.96 -0.360522 1.84613 0
M  V30 38512 O 3557.32 -1.26061 1.30301 0
M  V30 38513 C 3557.36 1.70706 3.17635 0
M  V30 38514 O 3556.47 0.964822 4.00955 0
M  V30 38515 H 3555.81 0.380461 0.544192 0
M  V30 38516 H 3558.34 1.62798 1.23928 0
M  V30 38517 H 3558.35 1.75679 3.6824 0
M  V30 38518 H 3557.02 2.75842 3.11262 0
M  V30 38519 H 3555.6 0.991556 3.59475 0
M  V30 38520 N 3557.79 -1.18464 1.03942 0
M  V30 38521 C 3559.01 -1.92355 0.762047 0
M  V30 38522 C 3559.43 -1.76105 -0.680621 0
M  V30 38523 O 3558.79 -1.08987 -1.46383 0
M  V30 38524 C 3558.84 -3.43803 1.11723 0
M  V30 38525 O 3558.56 -3.5954 2.50326 0
M  V30 38526 C 3560.06 -4.34795 0.864176 0
M  V30 38527 H 3557.28 -0.610697 0.27801 0
M  V30 38528 H 3559.82 -1.50298 1.38675 0
M  V30 38529 H 3557.98 -3.83653 0.537513 0
M  V30 38530 H 3558.39 -4.53284 2.63883 0
M  V30 38531 H 3559.87 -5.39619 1.16256 0
M  V30 38532 H 3560.34 -4.38739 -0.201093 0
M  V30 38533 H 3560.95 -4.00641 1.42713 0
M  V30 38534 N 3559.26 -0.818716 -1.34665 0
M  V30 38535 C 3560.23 -0.243077 -2.27907 0
M  V30 38536 C 3561.23 0.576596 -1.50107 0
M  V30 38537 O 3562.42 0.393312 -1.69702 0
M  V30 38538 C 3559.55 0.6597 -3.34456 0
M  V30 38539 H 3560.74 -1.0656 -2.8033 0
M  V30 38540 H 3558.3 -0.590263 -1.44726 0
M  V30 38541 H 3559.03 1.50544 -2.8724 0
M  V30 38542 H 3558.82 0.0734981 -3.92031 0
M  V30 38543 H 3560.31 1.05639 -4.04018 0
M  V30 38544 N 3560.74 1.46803 -0.573299 0
M  V30 38545 C 3561.97 2.07317 -0.0587081 0
M  V30 38546 C 3562.39 1.42071 1.23278 0
M  V30 38547 O 3561.75 0.501219 1.74234 0
M  V30 38548 C 3561.8 3.60452 0.10344 0
M  V30 38549 O 3560.9 3.95684 1.16222 0
M  V30 38550 H 3560.24 0.661412 -0.058562 0
M  V30 38551 H 3562.77 1.88583 -0.793565 0
M  V30 38552 H 3562.78 4.06801 0.312587 0
M  V30 38553 H 3561.46 4.07334 -0.839755 0
M  V30 38554 H 3560.04 3.61058 0.932283 0
M  V30 38555 N 3562.22 0.31058 1.54509 0
M  V30 38556 C 3563.63 -0.180133 1.85829 0
M  V30 38557 C 3563.98 -1.52663 1.23241 0
M  V30 38558 O 3563.11 -2.09717 0.533627 0
M  V30 38559 C 3563.7 -0.333628 3.37153 0
M  V30 38560 C 3562.26 -0.76856 3.6847 0
M  V30 38561 C 3561.41 0.117448 2.77051 0
M  V30 38562 H 3564.36 0.531289 1.49543 0
M  V30 38563 H 3564.38 -1.16666 3.62173 0
M  V30 38564 H 3563.89 0.646522 3.82677 0
M  V30 38565 H 3561.99 -1.75892 3.2847 0
M  V30 38566 H 3562.11 -0.581309 4.7556 0
M  V30 38567 H 3560.47 -0.404861 2.51462 0
M  V30 38568 H 3561.25 1.09413 3.25398 0
M  V30 38569 N 3563.7 -1.57553 0.0384871 0
M  V30 38570 C 3564.63 -2.13813 -0.938407 0
M  V30 38571 C 3565.61 -1.05659 -1.33305 0
M  V30 38572 O 3566.8 -1.33538 -1.41001 0
M  V30 38573 C 3563.93 -2.67283 -2.21759 0
M  V30 38574 C 3562.88 -3.80308 -1.96341 0
M  V30 38575 C 3562.21 -4.20244 -3.30605 0
M  V30 38576 C 3563.51 -5.05988 -1.29511 0
M  V30 38577 H 3565.2 -2.95691 -0.469835 0
M  V30 38578 H 3562.75 -1.42238 -0.22455 0
M  V30 38579 H 3564.7 -3.05278 -2.90488 0
M  V30 38580 H 3563.42 -1.8258 -2.70799 0
M  V30 38581 H 3562.08 -3.42766 -1.30027 0
M  V30 38582 H 3561.73 -3.32509 -3.77421 0
M  V30 38583 H 3561.43 -4.96413 -3.144 0
M  V30 38584 H 3562.95 -4.60829 -4.00586 0
M  V30 38585 H 3564.37 -5.4151 -1.88254 0
M  V30 38586 H 3562.76 -5.87218 -1.23674 0
M  V30 38587 H 3563.83 -4.84151 -0.269353 0
M  V30 38588 N 3565.18 0.234767 -1.55842 0
M  V30 38589 C 3566.43 0.959186 -1.77888 0
M  V30 38590 C 3566.75 1.85389 -0.604653 0
M  V30 38591 O 3566.02 1.92198 0.379059 0
M  V30 38592 H 3564.6 0.357161 -0.656083 0
M  V30 38593 H 3567.26 0.249797 -1.93293 0
M  V30 38594 H 3566.35 1.57378 -2.69515 0
M  V30 38595 N 3566.66 1.49427 0.500936 0
M  V30 38596 C 3567.59 1.60704 1.62017 0
M  V30 38597 C 3568.57 0.45612 1.56071 0
M  V30 38598 O 3569.75 0.671673 1.76127 0
M  V30 38599 C 3566.88 1.56204 3.0053 0
M  V30 38600 C 3565.92 2.76494 3.24736 0
M  V30 38601 S 3566.76 4.38164 3.07851 0
M  V30 38602 C 3567.91 4.36309 4.48759 0
M  V30 38603 H 3568.15 2.55384 1.52206 0
M  V30 38604 H 3565.68 1.38319 0.686098 0
M  V30 38605 H 3567.64 1.54293 3.804 0
M  V30 38606 H 3566.3 0.628121 3.07756 0
M  V30 38607 H 3565.49 2.69565 4.25853 0
M  V30 38608 H 3565.09 2.75818 2.52588 0
M  V30 38609 H 3567.38 4.08033 5.40847 0
M  V30 38610 H 3568.33 5.37704 4.60738 0
M  V30 38611 H 3568.74 3.66387 4.29442 0
M  V30 38612 N 3568.13 -0.751987 1.38502 0
M  V30 38613 C 3569.54 -1.32939 1.31088 0
M  V30 38614 C 3569.9 -1.96173 -0.0325903 0
M  V30 38615 O 3569.02 -1.95175 -0.934657 0
M  V30 38616 C 3569.62 -2.41716 2.374 0
M  V30 38617 C 3568.17 -2.95173 2.33559 0
M  V30 38618 C 3567.32 -1.6857 2.20181 0
M  V30 38619 H 3570.27 -0.550745 1.48837 0
M  V30 38620 H 3570.29 -3.21694 2.03208 0
M  V30 38621 H 3569.81 -1.95664 3.35167 0
M  V30 38622 H 3567.91 -3.4555 1.39377 0
M  V30 38623 H 3568.02 -3.49444 3.27759 0
M  V30 38624 H 3566.38 -1.92257 1.6706 0
M  V30 38625 H 3567.17 -1.24593 3.19893 0
M  V30 38626 N 3569.61 -1.23398 -0.980343 0
M  V30 38627 C 3570.56 -0.982359 -2.05752 0
M  V30 38628 C 3571.55 0.0716656 -1.6074 0
M  V30 38629 O 3572.74 -0.140469 -1.76442 0
M  V30 38630 C 3569.87 -0.57554 -3.38441 0
M  V30 38631 C 3568.95 -1.66497 -3.90051 0
M  V30 38632 N 3569.34 -2.89526 -4.14739 0
M  V30 38633 C 3567.64 -1.53956 -4.18585 0
M  V30 38634 C 3568.34 -3.60061 -4.56871 0
M  V30 38635 N 3567.32 -2.87575 -4.61304 0
M  V30 38636 H 3571.12 -1.91673 -2.22797 0
M  V30 38637 H 3568.63 -1.13337 -1.16312 0
M  V30 38638 H 3570.63 -0.37655 -4.15196 0
M  V30 38639 H 3569.29 0.351787 -3.22789 0
M  V30 38640 H 3570.3 -3.25831 -4.0256 0
M  V30 38641 H 3566.98 -0.679348 -4.11936 0
M  V30 38642 H 3568.37 -4.65531 -4.8449 0
M  V30 38643 N 3571.09 1.17911 -1.04569 0
M  V30 38644 C 3572.34 1.87646 -0.750571 0
M  V30 38645 C 3572.66 1.81053 0.724198 0
M  V30 38646 O 3571.93 1.23226 1.5229 0
M  V30 38647 H 3570.51 0.694678 -0.274649 0
M  V30 38648 H 3573.17 1.4307 -1.32352 0
M  V30 38649 H 3572.27 2.93551 -1.05992 0
M  V30 38650 N 3572.57 0.825847 1.34229 0
M  V30 38651 C 3573.53 0.25516 2.27775 0
M  V30 38652 C 3574.53 -0.568627 1.5041 0
M  V30 38653 O 3575.72 -0.384307 1.69908 0
M  V30 38654 C 3572.85 -0.641954 3.34801 0
M  V30 38655 H 3574.05 1.08045 2.79761 0
M  V30 38656 H 3571.6 0.59793 1.44411 0
M  V30 38657 H 3572.33 -1.49019 2.88035 0
M  V30 38658 H 3572.12 -0.0527067 3.92065 0
M  V30 38659 H 3573.61 -1.03495 4.04572 0
M  V30 38660 N 3574.05 -1.46497 0.581077 0
M  V30 38661 C 3575.01 -2.28754 -0.142897 0
M  V30 38662 C 3576.01 -1.383 -0.820359 0
M  V30 38663 O 3577.2 -1.60693 -0.672564 0
M  V30 38664 C 3574.33 -3.18639 -1.2117 0
M  V30 38665 H 3575.52 -2.94239 0.579969 0
M  V30 38666 H 3573.08 -1.5258 0.338978 0
M  V30 38667 H 3573.81 -2.57898 -1.9662 0
M  V30 38668 H 3573.6 -3.85236 -0.730449 0
M  V30 38669 H 3575.09 -3.80555 -1.71952 0
M  V30 38670 N 3575.52 -0.31877 -1.54343 0
M  V30 38671 C 3576.49 0.53664 -2.22829 0
M  V30 38672 C 3577.49 1.04733 -1.22015 0
M  V30 38673 O 3578.68 0.940523 -1.46628 0
M  V30 38674 C 3575.81 1.74488 -2.9286 0
M  V30 38675 H 3577 -0.0619852 -2.99836 0
M  V30 38676 H 3574.55 -0.0697961 -1.56144 0
M  V30 38677 H 3575.29 2.38286 -2.19977 0
M  V30 38678 H 3575.07 1.38615 -3.66781 0
M  V30 38679 H 3576.56 2.35219 -3.45053 0
M  V30 38680 N 3577 1.5753 -0.0468419 0
M  V30 38681 C 3578.25 1.92519 0.627905 0
M  V30 38682 C 3578.58 0.924831 1.71106 0
M  V30 38683 O 3577.83 -0.0635468 1.95597 0
M  V30 38684 C 3578.13 3.34202 1.26663 0
M  V30 38685 C 3577.8 4.49819 0.312105 0
M  V30 38686 C 3576.46 4.81175 0.0494356 0
M  V30 38687 C 3578.81 5.20075 -0.34232 0
M  V30 38688 C 3576.14 5.80136 -0.875166 0
M  V30 38689 C 3578.49 6.20024 -1.25509 0
M  V30 38690 C 3577.15 6.49812 -1.52647 0
M  V30 38691 H 3576.42 0.704477 0.229767 0
M  V30 38692 H 3579.07 1.9117 -0.112396 0
M  V30 38693 H 3577.38 3.31898 2.0821 0
M  V30 38694 H 3579.07 3.58553 1.79557 0
M  V30 38695 H 3575.66 4.25348 0.527013 0
M  V30 38696 H 3579.85 4.96066 -0.152471 0
M  V30 38697 H 3575.1 6.01552 -1.09294 0
M  V30 38698 H 3579.28 6.73576 -1.76827 0
M  V30 38699 H 3576.9 7.26308 -2.24456 0
M  V30 38700 N 3578.48 -0.226499 1.55964 0
M  V30 38701 C 3579.73 -0.953028 1.79012 0
M  V30 38702 C 3580.06 -1.84183 0.615641 0
M  V30 38703 O 3579.33 -1.90645 -0.385308 0
M  V30 38704 C 3579.62 -1.79619 3.12104 0
M  V30 38705 C 3579.47 -0.934209 4.39992 0
M  V30 38706 C 3580.79 -2.7749 3.41595 0
M  V30 38707 H 3577.91 -0.34504 0.651242 0
M  V30 38708 H 3580.55 -0.222203 1.88696 0
M  V30 38709 H 3578.7 -2.41928 3.03979 0
M  V30 38710 H 3580.37 -0.328248 4.60131 0
M  V30 38711 H 3578.62 -0.239411 4.33139 0
M  V30 38712 H 3579.29 -1.55844 5.29544 0
M  V30 38713 H 3581.76 -2.25317 3.49816 0
M  V30 38714 H 3580.64 -3.33591 4.35899 0
M  V30 38715 H 3580.9 -3.54981 2.63516 0
M  V30 38716 N 3579.96 -1.4969 -0.493005 0
M  V30 38717 C 3581.24 -1.50086 -1.25434 0
M  V30 38718 C 3581.62 -0.233075 -2.09809 0
M  V30 38719 O 3580.96 0.784304 -2.14618 0
M  V30 38720 C 3581.17 -2.78432 -2.1042 0
M  V30 38721 C 3582.52 -3.28237 -2.69343 0
M  V30 38722 O 3583.55 -2.79604 -2.20681 0
M  V30 38723 O 3582.4 -4.12959 -3.57949 0
M  V30 38724 H 3579.5 -0.601054 -0.568034 0
M  V30 38725 H 3582.04 -1.61961 -0.50662 0
M  V30 38726 H 3580.82 -3.6219 -1.48102 0
M  V30 38727 H 3580.44 -2.69455 -2.92369 0
M  V30 38728 N 3581.44 0.744631 -1.38899 0
M  V30 38729 C 3582.66 1.53389 -1.38851 0
M  V30 38730 C 3583.08 1.8879 0.0194617 0
M  V30 38731 O 3582.44 1.53419 0.988372 0
M  V30 38732 C 3582.49 2.82746 -2.25248 0
M  V30 38733 O 3582.21 2.48852 -3.60561 0
M  V30 38734 C 3583.71 3.76833 -2.33478 0
M  V30 38735 H 3580.93 0.474329 -0.474608 0
M  V30 38736 H 3583.47 0.92087 -1.82593 0
M  V30 38737 H 3581.63 3.40403 -1.84944 0
M  V30 38738 H 3582.04 3.31879 -4.06148 0
M  V30 38739 H 3583.52 4.64523 -2.98198 0
M  V30 38740 H 3583.99 4.17903 -1.35107 0
M  V30 38741 H 3584.6 3.25098 -2.74211 0
M  V30 38742 N 3582.91 1.23916 0.973785 0
M  V30 38743 C 3584.15 1.08704 1.73098 0
M  V30 38744 C 3584.52 -0.368739 1.88426 0
M  V30 38745 O 3585.72 -0.642213 2.61015 0
M  V30 38746 C 3583.99 1.79983 3.08773 0
M  V30 38747 S 3585.55 1.80426 3.9999 0
M  V30 38748 H 3582.37 0.3889 0.595212 0
M  V30 38749 H 3584.97 1.57154 1.16288 0
M  V30 38750 H 3583.67 2.8503 2.95273 0
M  V30 38751 H 3583.2 1.31842 3.7065 0
M  V30 38752 H 3585.22 0.86758 4.88557 0
M  V30 38753 N 3584.39 -1.17355 1.05193 0
M  V30 38754 C 3585.62 -1.92077 0.782377 0
M  V30 38755 C 3586.04 -1.76293 -0.655926 0
M  V30 38756 O 3585.4 -1.08068 -1.45571 0
M  V30 38757 C 3585.45 -3.41166 1.16783 0
M  V30 38758 O 3584.55 -4.11308 0.29998 0
M  V30 38759 H 3583.89 -0.598817 0.286905 0
M  V30 38760 H 3586.42 -1.48751 1.40479 0
M  V30 38761 H 3586.43 -3.91907 1.1346 0
M  V30 38762 H 3585.11 -3.51974 2.21556 0
M  V30 38763 H 3583.69 -3.70815 0.393809 0
M  V30 38764 N 3585.87 -0.832954 -1.3379 0
M  V30 38765 C 3587.12 -0.424975 -1.97581 0
M  V30 38766 C 3587.44 1.01781 -1.6633 0
M  V30 38767 O 3586.71 1.70812 -0.959171 0
M  V30 38768 H 3585.29 -0.154156 -0.730921 0
M  V30 38769 H 3587.95 -1.06461 -1.63255 0
M  V30 38770 H 3587.05 -0.552181 -3.07176 0
M  V30 38771 N 3587.35 1.46186 -0.588837 0
M  V30 38772 C 3588.63 1.95598 -0.00961769 0
M  V30 38773 C 3589.01 1.53146 1.45291 0
M  V30 38774 O 3588.35 0.785053 2.14591 0
M  V30 38775 C 3588.56 3.48493 -0.188079 0
M  V30 38776 C 3589.91 4.24559 -0.0590898 0
M  V30 38777 O 3590.94 3.56007 -0.117229 0
M  V30 38778 O 3589.79 5.46453 0.0714963 0
M  V30 38779 H 3586.89 0.8257 0.0463563 0
M  V30 38780 H 3589.43 1.56441 -0.657586 0
M  V30 38781 H 3588.21 3.72298 -1.20456 0
M  V30 38782 H 3587.83 3.94494 0.496034 0
M  V30 38783 N 3588.83 0.32695 1.54171 0
M  V30 38784 C 3589.77 -0.537461 2.24455 0
M  V30 38785 C 3590.74 -1.10894 1.2366 0
M  V30 38786 O 3591.93 -1.14865 1.5235 0
M  V30 38787 C 3589.07 -1.6908 3.00842 0
M  V30 38788 C 3588.18 -1.14823 4.16461 0
M  V30 38789 C 3587.32 -2.26752 4.80372 0
M  V30 38790 C 3586.36 -1.69761 5.88088 0
M  V30 38791 N 3585.49 -2.75367 6.45846 0
M  V30 38792 H 3590.33 0.0684546 2.97921 0
M  V30 38793 H 3587.87 0.0455545 1.47029 0
M  V30 38794 H 3589.83 -2.36953 3.43379 0
M  V30 38795 H 3588.46 -2.26795 2.29704 0
M  V30 38796 H 3587.51 -0.360938 3.78684 0
M  V30 38797 H 3588.82 -0.691233 4.93987 0
M  V30 38798 H 3587.98 -3.02524 5.25894 0
M  V30 38799 H 3586.71 -2.75789 4.02233 0
M  V30 38800 H 3585.72 -0.92489 5.41965 0
M  V30 38801 H 3586.94 -1.21597 6.68125 0
M  V30 38802 H 3584.89 -3.23689 5.7058 0
M  V30 38803 H 3584.81 -2.3424 7.18796 0
M  V30 38804 H 3586.08 -3.50957 6.96024 0
M  V30 38805 N 3590.3 -1.57503 0.0551955 0
M  V30 38806 C 3591.24 -2.07334 -0.953311 0
M  V30 38807 C 3592.22 -0.974722 -1.30146 0
M  V30 38808 O 3593.4 -1.24694 -1.41364 0
M  V30 38809 C 3590.53 -2.51719 -2.26617 0
M  V30 38810 C 3589.57 -3.72855 -2.07079 0
M  V30 38811 S 3590.41 -5.18323 -1.34544 0
M  V30 38812 C 3591.56 -5.66025 -2.67145 0
M  V30 38813 H 3591.79 -2.92551 -0.529243 0
M  V30 38814 H 3589.33 -1.53598 -0.157169 0
M  V30 38815 H 3591.29 -2.77953 -3.0208 0
M  V30 38816 H 3589.95 -1.66799 -2.66152 0
M  V30 38817 H 3589.14 -4.01844 -3.04199 0
M  V30 38818 H 3588.74 -3.46907 -1.39755 0
M  V30 38819 H 3591.03 -5.71857 -3.63299 0
M  V30 38820 H 3591.98 -6.65177 -2.42786 0
M  V30 38821 H 3592.38 -4.93771 -2.73589 0
M  V30 38822 N 3591.78 0.218225 -1.56082 0
M  V30 38823 C 3593.06 0.966655 -1.70045 0
M  V30 38824 C 3593.44 2.02292 -0.603407 0
M  V30 38825 O 3592.79 2.25163 0.389098 0
M  V30 38826 C 3593 1.57408 -3.11486 0
M  V30 38827 C 3594.35 2.06507 -3.70999 0
M  V30 38828 O 3595.37 1.67296 -3.14469 0
M  V30 38829 O 3594.23 2.78588 -4.70161 0
M  V30 38830 H 3591.32 0.451772 -0.692699 0
M  V30 38831 H 3593.87 0.209744 -1.68399 0
M  V30 38832 H 3592.64 0.811547 -3.82792 0
M  V30 38833 H 3592.26 2.39644 -3.17264 0
M  V30 38834 N 3593.26 1.4995 0.485059 0
M  V30 38835 C 3594.5 1.61867 1.24813 0
M  V30 38836 C 3594.87 0.305775 1.8955 0
M  V30 38837 O 3596.07 0.300263 2.67118 0
M  V30 38838 C 3594.34 2.75676 2.27459 0
M  V30 38839 S 3595.9 3.07643 3.12892 0
M  V30 38840 H 3592.71 0.570775 0.423954 0
M  V30 38841 H 3595.32 1.87677 0.547519 0
M  V30 38842 H 3594.02 3.69569 1.78457 0
M  V30 38843 H 3593.55 2.51909 3.02168 0
M  V30 38844 H 3595.57 2.50391 4.28391 0
M  V30 38845 N 3594.74 -0.737255 1.39292 0
M  V30 38846 C 3595.99 -1.49899 1.36595 0
M  V30 38847 C 3596.32 -1.94161 -0.0388471 0
M  V30 38848 O 3595.59 -1.66624 -1.00334 0
M  V30 38849 C 3595.88 -2.74024 2.3363 0
M  V30 38850 C 3595.73 -2.35795 3.83041 0
M  V30 38851 C 3597.05 -3.76114 2.2853 0
M  V30 38852 H 3594.17 -0.543757 0.497491 0
M  V30 38853 H 3596.81 -0.843163 1.70267 0
M  V30 38854 H 3594.96 -3.29982 2.05046 0
M  V30 38855 H 3596.63 -1.85485 4.22366 0
M  V30 38856 H 3594.87 -1.68051 3.99927 0
M  V30 38857 H 3595.55 -3.24673 4.46421 0
M  V30 38858 H 3598.02 -3.29735 2.53799 0
M  V30 38859 H 3596.9 -4.60634 2.98509 0
M  V30 38860 H 3597.16 -4.22874 1.28957 0
M  V30 38861 N 3596.22 -1.24431 -0.967199 0
M  V30 38862 C 3597.44 -1.11229 -1.75051 0
M  V30 38863 C 3597.87 0.331106 -1.85163 0
M  V30 38864 O 3597.23 1.23972 -1.3229 0
M  V30 38865 C 3597.27 -1.75738 -3.14879 0
M  V30 38866 O 3596.38 -1.02849 -3.99369 0
M  V30 38867 H 3595.72 -0.38907 -0.538071 0
M  V30 38868 H 3598.25 -1.64749 -1.21322 0
M  V30 38869 H 3598.26 -1.81515 -3.65399 0
M  V30 38870 H 3596.93 -2.80759 -3.06834 0
M  V30 38871 H 3595.51 -1.04862 -3.57852 0
M  V30 38872 N 3597.7 1.16795 -1.05814 0
M  V30 38873 C 3598.94 1.86839 -0.770431 0
M  V30 38874 C 3599.26 1.81811 0.704954 0
M  V30 38875 O 3598.53 1.24834 1.50974 0
M  V30 38876 H 3597.11 0.691726 -0.282001 0
M  V30 38877 H 3599.78 1.41658 -1.33862 0
M  V30 38878 H 3598.87 2.9241 -1.09099 0
M  V30 38879 N 3599.17 0.840037 1.33346 0
M  V30 38880 C 3600.1 0.289179 2.31702 0
M  V30 38881 C 3601.08 -0.603731 1.59025 0
M  V30 38882 O 3602.27 -0.527038 1.86912 0
M  V30 38883 C 3599.4 -0.535599 3.43145 0
M  V30 38884 C 3598.35 0.261619 4.272 0
M  V30 38885 C 3597.68 -0.686982 5.30268 0
M  V30 38886 C 3598.98 1.47933 5.00912 0
M  V30 38887 H 3600.67 1.11099 2.78024 0
M  V30 38888 H 3598.22 0.535682 1.33665 0
M  V30 38889 H 3600.17 -0.931279 4.10981 0
M  V30 38890 H 3598.9 -1.39063 2.95515 0
M  V30 38891 H 3597.56 0.638872 3.6099 0
M  V30 38892 H 3597.2 -1.53845 4.78895 0
M  V30 38893 H 3596.9 -0.15767 5.87388 0
M  V30 38894 H 3598.43 -1.08015 6.0097 0
M  V30 38895 H 3599.84 1.15674 5.61509 0
M  V30 38896 H 3598.24 1.94551 5.67688 0
M  V30 38897 H 3599.31 2.24847 4.29618 0
M  V30 38898 N 3600.65 -1.45872 0.596582 0
M  V30 38899 C 3601.88 -2.07197 0.091683 0
M  V30 38900 C 3602.3 -1.44015 -1.21002 0
M  V30 38901 O 3601.66 -0.528875 -1.73415 0
M  V30 38902 C 3601.71 -3.60571 -0.0460823 0
M  V30 38903 O 3600.81 -3.97483 -1.09912 0
M  V30 38904 H 3600.15 -0.660397 0.0690771 0
M  V30 38905 H 3602.68 -1.87297 0.823467 0
M  V30 38906 H 3602.69 -4.07247 -0.247828 0
M  V30 38907 H 3601.37 -4.05946 0.904452 0
M  V30 38908 H 3599.94 -3.62495 -0.874724 0
M  V30 38909 N 3602.13 -0.335122 -1.53996 0
M  V30 38910 C 3603.38 0.264353 -2.0107 0
M  V30 38911 C 3603.71 1.50874 -1.22274 0
M  V30 38912 O 3602.98 1.92044 -0.308094 0
M  V30 38913 C 3603.27 0.586937 -3.55284 0
M  V30 38914 C 3603.12 -0.668955 -4.44798 0
M  V30 38915 C 3604.44 1.39995 -4.1724 0
M  V30 38916 H 3601.56 0.0946073 -0.730902 0
M  V30 38917 H 3604.2 -0.453991 -1.84496 0
M  V30 38918 H 3602.35 1.19892 -3.69538 0
M  V30 38919 H 3604.02 -1.30705 -4.42395 0
M  V30 38920 H 3602.26 -1.29554 -4.14003 0
M  V30 38921 H 3602.94 -0.39862 -5.50559 0
M  V30 38922 H 3605.41 0.882548 -4.06633 0
M  V30 38923 H 3604.29 1.59442 -5.25233 0
M  V30 38924 H 3604.55 2.39956 -3.71314 0
M  V30 38925 N 3603.61 1.57472 -0.0635475 0
M  V30 38926 C 3605.02 1.80678 0.470341 0
M  V30 38927 C 3605.37 0.976801 1.70156 0
M  V30 38928 O 3604.49 0.196931 2.15502 0
M  V30 38929 C 3605.09 3.27701 0.860072 0
M  V30 38930 C 3603.65 3.51783 1.33887 0
M  V30 38931 C 3602.8 2.75447 0.32003 0
M  V30 38932 H 3605.75 1.5604 -0.289322 0
M  V30 38933 H 3605.77 3.39299 1.7221 0
M  V30 38934 H 3605.28 3.88083 -0.0362207 0
M  V30 38935 H 3603.38 2.96696 2.25394 0
M  V30 38936 H 3603.49 4.60486 1.32249 0
M  V30 38937 H 3601.86 2.41957 0.795558 0
M  V30 38938 H 3602.64 3.38562 -0.568392 0
M  V30 38939 N 3605.09 -0.209945 1.56195 0
M  V30 38940 C 3606 -1.28097 1.96541 0
M  V30 38941 C 3607.01 -1.50637 0.870884 0
M  V30 38942 O 3608.19 -1.63542 1.17542 0
M  V30 38943 C 3605.25 -2.60837 2.28396 0
M  V30 38944 C 3604.31 -2.46498 3.51478 0
M  V30 38945 C 3603.55 -3.72908 3.81805 0
M  V30 38946 O 3603.77 -4.76434 3.13635 0
M  V30 38947 O 3602.7 -3.69325 4.75271 0
M  V30 38948 H 3606.53 -0.96862 2.87839 0
M  V30 38949 H 3604.11 -0.413752 1.43556 0
M  V30 38950 H 3606 -3.39211 2.50028 0
M  V30 38951 H 3604.67 -2.9173 1.40269 0
M  V30 38952 H 3603.58 -1.66286 3.35112 0
M  V30 38953 H 3604.91 -2.20542 4.40025 0
M  V30 38954 N 3606.56 -1.50205 -0.4771 0
M  V30 38955 C 3607.81 -1.61132 -1.23144 0
M  V30 38956 C 3608.14 -0.307943 -1.91743 0
M  V30 38957 O 3607.42 0.690191 -1.81842 0
M  V30 38958 C 3607.7 -2.78742 -2.2798 0
M  V30 38959 C 3607.55 -4.18944 -1.63725 0
M  V30 38960 C 3608.87 -2.91926 -3.29344 0
M  V30 38961 H 3605.99 -0.586466 -0.446348 0
M  V30 38962 H 3608.63 -1.82571 -0.526088 0
M  V30 38963 H 3606.78 -2.60593 -2.88138 0
M  V30 38964 H 3608.46 -4.48669 -1.07211 0
M  V30 38965 H 3606.7 -4.23481 -0.940559 0
M  V30 38966 H 3607.37 -4.97154 -2.39879 0
M  V30 38967 H 3609.85 -3.08521 -2.79202 0
M  V30 38968 H 3608.72 -3.75852 -4.00033 0
M  V30 38969 H 3608.98 -2.02284 -3.93107 0
M  V30 38970 N 3608.04 0.729857 -1.39681 0
M  V30 38971 C 3608.97 1.85702 -1.41552 0
M  V30 38972 C 3609.95 1.67809 -0.278216 0
M  V30 38973 O 3611.14 1.88052 -0.484782 0
M  V30 38974 C 3608.27 3.23508 -1.26333 0
M  V30 38975 C 3607.22 3.56047 -2.37517 0
M  V30 38976 C 3606.55 4.92845 -2.07384 0
M  V30 38977 C 3607.85 3.58496 -3.7984 0
M  V30 38978 H 3609.54 1.84393 -2.3588 0
M  V30 38979 H 3607.09 0.885727 -1.13538 0
M  V30 38980 H 3609.04 4.0204 -1.26261 0
M  V30 38981 H 3607.77 3.25356 -0.284754 0
M  V30 38982 H 3606.42 2.79848 -2.36814 0
M  V30 38983 H 3606.07 4.91279 -1.07952 0
M  V30 38984 H 3605.77 5.15583 -2.81864 0
M  V30 38985 H 3607.3 5.73728 -2.08971 0
M  V30 38986 H 3608.71 4.27094 -3.82444 0
M  V30 38987 H 3607.11 3.92755 -4.53722 0
M  V30 38988 H 3608.18 2.58187 -4.10448 0
M  V30 38989 N 3609.52 1.24942 0.960587 0
M  V30 38990 C 3610.43 1.0653 2.09018 0
M  V30 38991 C 3611.45 0.00409699 1.74 0
M  V30 38992 O 3612.62 0.203779 2.00366 0
M  V30 38993 C 3609.69 0.679795 3.3997 0
M  V30 38994 C 3608.75 1.81828 3.88892 0
M  V30 38995 C 3607.98 1.45107 5.13595 0
M  V30 38996 O 3608.2 0.344054 5.69361 0
M  V30 38997 O 3607.14 2.27919 5.57079 0
M  V30 38998 H 3610.96 2.01247 2.27449 0
M  V30 38999 H 3608.55 1.03826 1.07427 0
M  V30 39000 H 3610.43 0.476654 4.18696 0
M  V30 39001 H 3609.11 -0.238175 3.22823 0
M  V30 39002 H 3608.01 2.07623 3.11197 0
M  V30 39003 H 3609.35 2.71528 4.10528 0
M  V30 39004 N 3611 -1.16233 1.06432 0
M  V30 39005 C 3611.91 -2.24301 0.687485 0
M  V30 39006 C 3612.92 -1.71445 -0.297102 0
M  V30 39007 O 3614.1 -2.0087 -0.146066 0
M  V30 39008 C 3611.17 -3.46605 0.0811582 0
M  V30 39009 C 3610.23 -4.14492 1.11779 0
M  V30 39010 C 3609.46 -5.30958 0.540303 0
M  V30 39011 O 3609.68 -5.66724 -0.64652 0
M  V30 39012 O 3608.62 -5.88118 1.28067 0
M  V30 39013 H 3612.44 -2.58846 1.58846 0
M  V30 39014 H 3610.03 -1.23775 0.836671 0
M  V30 39015 H 3611.91 -4.20627 -0.255166 0
M  V30 39016 H 3610.58 -3.13829 -0.793283 0
M  V30 39017 H 3609.49 -3.42434 1.50632 0
M  V30 39018 H 3610.82 -4.51326 1.96381 0
M  V30 39019 N 3612.48 -0.847097 -1.32899 0
M  V30 39020 C 3613.75 -0.368385 -1.921 0
M  V30 39021 C 3614.13 1.14721 -1.77207 0
M  V30 39022 O 3613.48 1.96541 -1.1655 0
M  V30 39023 C 3613.69 -0.824385 -3.39124 0
M  V30 39024 C 3615.04 -0.837171 -4.16265 0
M  V30 39025 O 3616.06 -0.768527 -3.4781 0
M  V30 39026 O 3614.92 -0.932483 -5.38486 0
M  V30 39027 H 3612.02 -0.10595 -0.820185 0
M  V30 39028 H 3614.56 -0.933496 -1.41718 0
M  V30 39029 H 3613.33 -1.86729 -3.43872 0
M  V30 39030 H 3612.96 -0.236302 -3.96897 0
M  V30 39031 N 3613.95 1.45554 -0.604309 0
M  V30 39032 C 3615.37 1.57339 -0.267692 0
M  V30 39033 C 3615.57 1.59618 1.22981 0
M  V30 39034 O 3614.63 1.52472 2.01268 0
M  V30 39035 C 3615.94 2.85762 -0.935973 0
M  V30 39036 C 3617.49 2.99431 -0.911584 0
M  V30 39037 C 3617.96 4.3062 -1.55981 0
M  V30 39038 N 3619.45 4.37371 -1.52515 0
M  V30 39039 C 3620.19 5.37542 -1.9959 0
M  V30 39040 N 3619.68 6.44268 -2.54735 0
M  V30 39041 N 3621.48 5.28879 -1.90377 0
M  V30 39042 H 3613.63 1.42318 -1.57668 0
M  V30 39043 H 3615.89 0.680234 -0.660292 0
M  V30 39044 H 3615.6 2.89968 -1.99027 0
M  V30 39045 H 3615.47 3.74418 -0.45726 0
M  V30 39046 H 3617.86 2.94795 0.134155 0
M  V30 39047 H 3617.94 2.12195 -1.42853 0
M  V30 39048 H 3617.58 4.36015 -2.60486 0
M  V30 39049 H 3617.51 5.16668 -1.01791 0
M  V30 39050 H 3620 3.60851 -1.12227 0
M  V30 39051 H 3620.32 7.16946 -2.88458 0
M  V30 39052 H 3618.66 6.45028 -2.58773 0
M  V30 39053 H 3621.85 4.44407 -1.47037 0
M  V30 39054 H 3622.03 6.06798 -2.27378 0
M  V30 39055 N 3615.43 0.343284 1.53816 0
M  V30 39056 C 3616.34 -0.522081 2.28717 0
M  V30 39057 C 3617.36 -1.11216 1.33817 0
M  V30 39058 O 3618.53 -1.1279 1.66855 0
M  V30 39059 C 3615.6 -1.65736 3.0452 0
M  V30 39060 C 3614.66 -1.09709 4.15045 0
M  V30 39061 C 3613.89 -2.17826 4.87224 0
M  V30 39062 O 3614.12 -3.38541 4.59071 0
M  V30 39063 O 3613.05 -1.82135 5.73681 0
M  V30 39064 H 3616.88 0.0867853 3.03576 0
M  V30 39065 H 3614.46 0.108339 1.49007 0
M  V30 39066 H 3616.34 -2.3179 3.51925 0
M  V30 39067 H 3615.02 -2.25204 2.32518 0
M  V30 39068 H 3613.93 -0.401086 3.71944 0
M  V30 39069 H 3615.26 -0.547276 4.89148 0
M  V30 39070 N 3616.91 -1.57436 0.0718977 0
M  V30 39071 C 3617.84 -2.15756 -0.892842 0
M  V30 39072 C 3618.82 -1.08463 -1.31034 0
M  V30 39073 O 3620.01 -1.36499 -1.38137 0
M  V30 39074 C 3617.14 -2.71927 -2.16039 0
M  V30 39075 C 3616.09 -3.84387 -1.8823 0
M  V30 39076 C 3615.42 -4.27162 -3.21616 0
M  V30 39077 C 3616.72 -5.08622 -1.18749 0
M  V30 39078 H 3618.41 -2.96621 -0.407009 0
M  V30 39079 H 3615.96 -1.42683 -0.194329 0
M  V30 39080 H 3617.91 -3.11371 -2.83947 0
M  V30 39081 H 3616.63 -1.88283 -2.66865 0
M  V30 39082 H 3615.29 -3.45447 -1.22728 0
M  V30 39083 H 3614.94 -3.4044 -3.70283 0
M  V30 39084 H 3614.64 -5.02971 -3.038 0
M  V30 39085 H 3616.16 -4.69222 -3.90721 0
M  V30 39086 H 3617.58 -5.45381 -1.76726 0
M  V30 39087 H 3615.98 -5.89709 -1.11191 0
M  V30 39088 H 3617.05 -4.84614 -0.166597 0
M  V30 39089 N 3618.39 0.201658 -1.56305 0
M  V30 39090 C 3619.67 0.948565 -1.7106 0
M  V30 39091 C 3620.05 2.01641 -0.624829 0
M  V30 39092 O 3619.39 2.25563 0.365195 0
M  V30 39093 C 3619.6 1.54095 -3.13138 0
M  V30 39094 C 3620.95 2.0256 -3.73168 0
M  V30 39095 O 3621.98 1.63951 -3.16226 0
M  V30 39096 O 3620.83 2.73585 -4.73089 0
M  V30 39097 H 3617.93 0.444399 -0.697451 0
M  V30 39098 H 3620.47 0.191872 -1.68612 0
M  V30 39099 H 3619.25 0.770901 -3.83631 0
M  V30 39100 H 3618.87 2.36266 -3.19788 0
M  V30 39101 N 3619.87 1.50456 0.469128 0
M  V30 39102 C 3621.09 1.65577 1.24896 0
M  V30 39103 C 3621.52 0.339614 1.85009 0
M  V30 39104 O 3620.87 -0.696745 1.67377 0
M  V30 39105 C 3620.92 2.75045 2.332 0
M  V30 39106 O 3620.03 2.36435 3.37894 0
M  V30 39107 H 3619.37 0.553126 0.367353 0
M  V30 39108 H 3621.9 1.96843 0.558048 0
M  V30 39109 H 3621.91 2.98181 2.78482 0
M  V30 39110 H 3620.58 3.70567 1.88819 0
M  V30 39111 H 3619.16 2.23753 2.9831 0
M  V30 39112 N 3621.34 -0.722439 1.40066 0
M  V30 39113 C 3622.57 -1.5116 1.41273 0
M  V30 39114 C 3622.99 -1.88797 0.0105756 0
M  V30 39115 O 3622.34 -1.54972 -0.96384 0
M  V30 39116 C 3622.4 -2.79127 2.29718 0
M  V30 39117 O 3622.12 -2.43084 3.64475 0
M  V30 39118 C 3623.62 -3.73071 2.39443 0
M  V30 39119 H 3620.84 -0.466719 0.482094 0
M  V30 39120 H 3623.38 -0.891704 1.84035 0
M  V30 39121 H 3621.54 -3.37418 1.90336 0
M  V30 39122 H 3621.95 -3.25376 4.11377 0
M  V30 39123 H 3623.42 -4.5972 3.05551 0
M  V30 39124 H 3623.9 -4.157 1.41738 0
M  V30 39125 H 3624.51 -3.20694 2.79348 0
M  V30 39126 N 3622.82 -1.2545 -0.953947 0
M  V30 39127 C 3623.73 -1.07637 -2.0845 0
M  V30 39128 C 3624.75 -0.0133246 -1.73995 0
M  V30 39129 O 3625.93 -0.214402 -2.00256 0
M  V30 39130 C 3622.99 -0.697815 -3.39605 0
M  V30 39131 C 3622.05 -1.83888 -3.87923 0
M  V30 39132 C 3621.28 -1.47828 -5.12818 0
M  V30 39133 O 3621.51 -0.374243 -5.69171 0
M  V30 39134 O 3620.44 -2.3087 -5.55862 0
M  V30 39135 H 3624.27 -2.02451 -2.26379 0
M  V30 39136 H 3621.85 -1.04394 -1.06875 0
M  V30 39137 H 3623.73 -0.498852 -4.18437 0
M  V30 39138 H 3622.41 0.221051 -3.22944 0
M  V30 39139 H 3621.32 -2.0927 -3.10092 0
M  V30 39140 H 3622.65 -2.73701 -4.09083 0
M  V30 39141 N 3624.3 1.15667 -1.07047 0
M  V30 39142 C 3625.72 1.38368 -0.795394 0
M  V30 39143 C 3625.92 1.92304 0.601795 0
M  V30 39144 O 3624.97 2.12677 1.36105 0
M  V30 39145 C 3626.29 2.35749 -1.86663 0
M  V30 39146 C 3627.83 2.49418 -1.89103 0
M  V30 39147 C 3628.31 3.50087 -2.95302 0
M  V30 39148 N 3629.8 3.5762 -2.94384 0
M  V30 39149 C 3630.54 4.35325 -3.73202 0
M  V30 39150 N 3630.03 5.16389 -4.6186 0
M  V30 39151 N 3631.82 4.30383 -3.61562 0
M  V30 39152 H 3623.98 0.789969 -1.97163 0
M  V30 39153 H 3626.24 0.409855 -0.854823 0
M  V30 39154 H 3625.94 2.03227 -2.87039 0
M  V30 39155 H 3625.82 3.35491 -1.72412 0
M  V30 39156 H 3628.21 2.81239 -0.893802 0
M  V30 39157 H 3628.29 1.49685 -2.07432 0
M  V30 39158 H 3627.93 3.19001 -3.95222 0
M  V30 39159 H 3627.86 4.49567 -2.7422 0
M  V30 39160 H 3630.35 2.99759 -2.30116 0
M  V30 39161 H 3630.66 5.72917 -5.18639 0
M  V30 39162 H 3629.01 5.15706 -4.65911 0
M  V30 39163 H 3632.2 3.66117 -2.91678 0
M  V30 39164 H 3632.37 4.90694 -4.2323 0
M  V30 39165 N 3625.78 0.854133 1.32447 0
M  V30 39166 C 3626.74 0.303417 2.27183 0
M  V30 39167 C 3627.74 -0.536595 1.51583 0
M  V30 39168 O 3628.93 -0.348181 1.70685 0
M  V30 39169 C 3626.06 -0.570793 3.36087 0
M  V30 39170 H 3627.26 1.13955 2.77406 0
M  V30 39171 H 3624.81 0.628427 1.4311 0
M  V30 39172 H 3625.55 -1.42876 2.91131 0
M  V30 39173 H 3625.33 0.0304679 3.92088 0
M  V30 39174 H 3626.82 -0.948901 4.06676 0
M  V30 39175 N 3627.26 -1.45231 0.61202 0
M  V30 39176 C 3628.5 -2.04093 0.11201 0
M  V30 39177 C 3628.86 -1.46952 -1.23568 0
M  V30 39178 O 3630.06 -1.97195 -1.82668 0
M  V30 39179 C 3628.33 -3.57315 0.0780029 0
M  V30 39180 S 3629.89 -4.37319 -0.36017 0
M  V30 39181 H 3626.71 -0.709115 0.0517341 0
M  V30 39182 H 3629.31 -1.77879 0.811119 0
M  V30 39183 H 3628.02 -3.96413 1.0623 0
M  V30 39184 H 3627.55 -3.8811 -0.64296 0
M  V30 39185 H 3629.56 -4.69398 -1.60871 0
M  V30 39186 N 3628.74 -0.351436 -1.53632 0
M  V30 39187 C 3630.01 0.298328 -1.93312 0
M  V30 39188 C 3630.39 1.67582 -1.28372 0
M  V30 39189 O 3629.74 2.24272 -0.437553 0
M  V30 39190 C 3629.95 0.362712 -3.4711 0
M  V30 39191 C 3631.3 0.609804 -4.20198 0
M  V30 39192 O 3632.32 0.444504 -3.53416 0
M  V30 39193 O 3631.18 0.930596 -5.38518 0
M  V30 39194 H 3628.28 0.175725 -0.808115 0
M  V30 39195 H 3630.82 -0.403189 -1.64841 0
M  V30 39196 H 3629.59 -0.603638 -3.86616 0
M  V30 39197 H 3629.22 1.11069 -3.81771 0
M  V30 39198 N 3630.21 1.57396 -0.0802459 0
M  V30 39199 C 3631.44 1.98138 0.595719 0
M  V30 39200 C 3631.86 0.9589 1.62636 0
M  V30 39201 O 3631.21 -0.0533995 1.82422 0
M  V30 39202 C 3631.26 3.38952 1.25674 0
M  V30 39203 O 3630.99 4.37284 0.26734 0
M  V30 39204 C 3632.49 3.94616 2.01973 0
M  V30 39205 H 3629.71 0.651438 0.160841 0
M  V30 39206 H 3632.25 2.03911 -0.155147 0
M  V30 39207 H 3630.41 3.3424 1.95864 0
M  V30 39208 H 3630.82 5.19216 0.742604 0
M  V30 39209 H 3632.29 4.95339 2.43604 0
M  V30 39210 H 3632.77 3.3162 2.87967 0
M  V30 39211 H 3633.38 4.02755 1.36632 0
M  V30 39212 N 3631.69 -0.193366 1.56409 0
M  V30 39213 C 3632.62 -1.24231 1.97709 0
M  V30 39214 C 3633.6 -1.47379 0.849311 0
M  V30 39215 O 3634.79 -1.59087 1.11377 0
M  V30 39216 C 3631.92 -2.58616 2.31809 0
M  V30 39217 C 3630.87 -2.50076 3.47341 0
M  V30 39218 C 3630.2 -3.88749 3.67121 0
M  V30 39219 C 3631.5 -2.02433 4.81475 0
M  V30 39220 H 3633.19 -0.89909 2.85581 0
M  V30 39221 H 3630.74 -0.431054 1.37397 0
M  V30 39222 H 3632.69 -3.3218 2.59296 0
M  V30 39223 H 3631.41 -2.94681 1.40821 0
M  V30 39224 H 3630.07 -1.78967 3.19947 0
M  V30 39225 H 3629.72 -4.22171 2.73461 0
M  V30 39226 H 3629.42 -3.8391 4.44845 0
M  V30 39227 H 3630.95 -4.63933 3.96986 0
M  V30 39228 H 3632.36 -2.65757 5.07983 0
M  V30 39229 H 3630.76 -2.08591 5.62681 0
M  V30 39230 H 3631.83 -0.97762 4.74943 0
M  V30 39231 N 3633.17 -1.50702 -0.461142 0
M  V30 39232 C 3634.1 -1.73226 -1.56573 0
M  V30 39233 C 3635.08 -0.581429 -1.59854 0
M  V30 39234 O 3636.27 -0.821633 -1.75963 0
M  V30 39235 C 3633.4 -1.83553 -2.94832 0
M  V30 39236 C 3632.35 -2.9882 -3.06416 0
M  V30 39237 C 3631.68 -2.94301 -4.4642 0
M  V30 39238 C 3632.98 -4.39175 -2.82706 0
M  V30 39239 H 3634.67 -2.65712 -1.37977 0
M  V30 39240 H 3632.22 -1.27863 -0.662339 0
M  V30 39241 H 3634.17 -1.97893 -3.72043 0
M  V30 39242 H 3632.89 -0.876962 -3.14606 0
M  V30 39243 H 3631.55 -2.84146 -2.31639 0
M  V30 39244 H 3631.2 -1.9627 -4.63127 0
M  V30 39245 H 3630.9 -3.7169 -4.55105 0
M  V30 39246 H 3632.42 -3.10704 -5.25638 0
M  V30 39247 H 3633.84 -4.54323 -3.49662 0
M  V30 39248 H 3632.23 -5.18089 -3.02826 0
M  V30 39249 H 3633.3 -4.50856 -1.78484 0
M  V30 39250 N 3634.65 0.715001 -1.40447 0
M  V30 39251 C 3635.58 1.83866 -1.35162 0
M  V30 39252 C 3636.56 1.61079 -0.221912 0
M  V30 39253 O 3637.74 1.84083 -0.405667 0
M  V30 39254 C 3634.87 3.20215 -1.10364 0
M  V30 39255 C 3633.92 3.61828 -2.25793 0
M  V30 39256 S 3634.75 3.68875 -3.8819 0
M  V30 39257 C 3635.9 5.07983 -3.65656 0
M  V30 39258 H 3636.14 1.88069 -2.30255 0
M  V30 39259 H 3633.67 0.881837 -1.2674 0
M  V30 39260 H 3635.63 3.98938 -0.967413 0
M  V30 39261 H 3634.29 3.13644 -0.169233 0
M  V30 39262 H 3633.48 4.60831 -2.04086 0
M  V30 39263 H 3633.08 2.90364 -2.35722 0
M  V30 39264 H 3635.38 5.94918 -3.24159 0
M  V30 39265 H 3636.32 5.34726 -4.64192 0
M  V30 39266 H 3636.73 4.78604 -2.99331 0
M  V30 39267 N 3636.13 1.25954 0.947281 0
M  V30 39268 C 3637.37 1.12351 1.70753 0
M  V30 39269 C 3637.73 -0.328688 1.89166 0
M  V30 39270 O 3638.93 -0.586703 2.62319 0
M  V30 39271 C 3637.2 1.86492 3.04886 0
M  V30 39272 S 3638.76 1.8887 3.96073 0
M  V30 39273 H 3635.58 0.401438 0.586829 0
M  V30 39274 H 3638.18 1.59585 1.12929 0
M  V30 39275 H 3636.88 2.91229 2.89161 0
M  V30 39276 H 3636.42 1.39674 3.6777 0
M  V30 39277 H 3638.43 0.971014 4.86606 0
M  V30 39278 N 3637.6 -1.15097 1.07659 0
M  V30 39279 C 3638.85 -1.85302 0.796622 0
M  V30 39280 C 3639.17 -1.83405 -0.679855 0
M  V30 39281 O 3640.37 -2.49324 -1.07471 0
M  V30 39282 C 3638.83 -3.32598 1.37501 0
M  V30 39283 C 3638.44 -3.42933 2.88273 0
M  V30 39284 C 3640.18 -4.07966 1.1732 0
M  V30 39285 C 3638.09 -4.84395 3.39287 0
M  V30 39286 H 3637.02 -0.694181 0.294328 0
M  V30 39287 H 3639.67 -1.29803 1.29705 0
M  V30 39288 H 3638.05 -3.87787 0.802316 0
M  V30 39289 H 3639.22 -2.97834 3.51613 0
M  V30 39290 H 3637.54 -2.81013 3.0728 0
M  V30 39291 H 3640.14 -5.1237 1.52908 0
M  V30 39292 H 3640.48 -4.16148 0.11246 0
M  V30 39293 H 3641.01 -3.59056 1.71242 0
M  V30 39294 H 3637.75 -4.81398 4.44901 0
M  V30 39295 H 3637.27 -5.30063 2.80702 0
M  V30 39296 H 3638.95 -5.53262 3.35426 0
M  V30 39297 N 3639.08 -0.861145 -1.31993 0
M  V30 39298 C 3640.33 -0.468406 -1.97316 0
M  V30 39299 C 3640.66 0.974912 -1.67956 0
M  V30 39300 O 3639.94 1.68513 -0.971272 0
M  V30 39301 C 3640.22 -0.715669 -3.52917 0
M  V30 39302 C 3640.07 -2.20788 -3.91884 0
M  V30 39303 C 3641.39 -0.176318 -4.39747 0
M  V30 39304 H 3638.51 -0.171658 -0.71673 0
M  V30 39305 H 3641.15 -1.08076 -1.56267 0
M  V30 39306 H 3639.3 -0.194455 -3.88013 0
M  V30 39307 H 3640.97 -2.79567 -3.66933 0
M  V30 39308 H 3639.22 -2.68388 -3.40809 0
M  V30 39309 H 3639.89 -2.33156 -5.00342 0
M  V30 39310 H 3642.36 -0.622116 -4.11423 0
M  V30 39311 H 3641.24 -0.378845 -5.47591 0
M  V30 39312 H 3641.5 0.921282 -4.32394 0
M  V30 39313 N 3640.56 1.44905 -0.619713 0
M  V30 39314 C 3641.79 2.06514 -0.126399 0
M  V30 39315 C 3642.2 1.46226 1.1943 0
M  V30 39316 O 3641.56 0.580882 1.73009 0
M  V30 39317 C 3641.61 3.61499 0.00675965 0
M  V30 39318 O 3641.33 4.19539 -1.2617 0
M  V30 39319 C 3642.83 4.40119 0.530112 0
M  V30 39320 H 3640.05 0.666861 -0.0744149 0
M  V30 39321 H 3642.6 1.85958 -0.850883 0
M  V30 39322 H 3640.75 3.81356 0.681627 0
M  V30 39323 H 3641.17 5.12853 -1.09917 0
M  V30 39324 H 3642.64 5.49025 0.572331 0
M  V30 39325 H 3643.12 4.10756 1.55487 0
M  V30 39326 H 3643.72 4.25155 -0.111119 0
M  V30 39327 N 3642.04 0.359579 1.53443 0
M  V30 39328 C 3643.28 -0.232331 2.01465 0
M  V30 39329 C 3643.62 -1.48909 1.24658 0
M  V30 39330 O 3642.89 -1.9153 0.338607 0
M  V30 39331 C 3643.18 -0.53034 3.56173 0
M  V30 39332 C 3643.03 0.739634 4.43677 0
M  V30 39333 C 3644.35 -1.3334 4.19415 0
M  V30 39334 H 3641.47 -0.0829673 0.732315 0
M  V30 39335 H 3644.11 0.483285 1.83751 0
M  V30 39336 H 3642.26 -1.13998 3.71398 0
M  V30 39337 H 3643.93 1.37727 4.4026 0
M  V30 39338 H 3642.17 1.36124 4.11889 0
M  V30 39339 H 3642.84 0.486158 5.49855 0
M  V30 39340 H 3645.32 -0.817745 4.07985 0
M  V30 39341 H 3644.2 -1.51066 5.27703 0
M  V30 39342 H 3644.46 -2.34018 3.75084 0
M  V30 39343 N 3643.52 -1.57351 0.0885919 0
M  V30 39344 C 3644.45 -2.09309 -0.909118 0
M  V30 39345 C 3645.43 -1.00211 -1.28049 0
M  V30 39346 O 3646.61 -1.27664 -1.38687 0
M  V30 39347 C 3643.74 -2.56469 -2.21227 0
M  V30 39348 C 3642.78 -3.77163 -1.99124 0
M  V30 39349 S 3643.62 -5.2106 -1.23519 0
M  V30 39350 C 3644.77 -5.71564 -2.55079 0
M  V30 39351 H 3645.01 -2.93608 -0.467069 0
M  V30 39352 H 3642.54 -1.53897 -0.124554 0
M  V30 39353 H 3644.5 -2.84298 -2.96116 0
M  V30 39354 H 3643.16 -1.72407 -2.62554 0
M  V30 39355 H 3642.35 -4.08207 -2.95607 0
M  V30 39356 H 3641.95 -3.49793 -1.32365 0
M  V30 39357 H 3644.25 -5.79434 -3.51088 0
M  V30 39358 H 3645.19 -6.70177 -2.28622 0
M  V30 39359 H 3645.6 -4.99463 -2.63053 0
M  V30 39360 N 3644.99 0.185069 -1.5651 0
M  V30 39361 C 3645.94 1.24872 -1.96239 0
M  V30 39362 C 3646.94 1.46578 -0.849195 0
M  V30 39363 O 3648.14 1.4732 -1.03425 0
M  V30 39364 H 3644.52 0.419446 -0.624155 0
M  V30 39365 H 3646.49 0.88668 -2.84922 0
M  V30 39366 C 3645.24 2.58378 -2.32671 0
M  V30 39367 H 3644.56 2.42495 -3.17862 0
M  V30 39368 H 3646 3.31524 -2.64326 0
M  V30 39369 C 3644.46 3.16116 -1.16501 0
M  V30 39370 O 3644.99 3.99224 -0.445353 0
M  V30 39371 N 3643.2 2.75005 -0.939182 0
M  V30 39372 H 3642.74 2.07525 -1.52615 0
M  V30 39373 H 3642.7 3.13973 -0.163714 0
M  V30 39374 N 3646.47 1.50945 0.453144 0
M  V30 39375 C 3647.42 1.675 1.54686 0
M  V30 39376 C 3648.41 0.52922 1.51948 0
M  V30 39377 O 3649.6 0.784443 1.58668 0
M  V30 39378 C 3646.73 1.78897 2.93003 0
M  V30 39379 C 3645.81 2.9921 3.00557 0
M  V30 39380 N 3646.2 4.22626 2.77886 0
M  V30 39381 C 3644.5 2.98138 3.31707 0
M  V30 39382 C 3645.2 5.03754 2.90873 0
M  V30 39383 N 3644.18 4.38074 3.21858 0
M  V30 39384 H 3647.98 2.606 1.35885 0
M  V30 39385 H 3645.5 1.48375 0.660192 0
M  V30 39386 H 3647.49 1.88865 3.71666 0
M  V30 39387 H 3646.15 0.869681 3.12836 0
M  V30 39388 H 3647.16 4.51831 2.53118 0
M  V30 39389 H 3643.84 2.15779 3.57415 0
M  V30 39390 H 3645.23 6.11948 2.77433 0
M  V30 39391 N 3647.95 -0.707543 1.40825 0
M  V30 39392 C 3649.2 -1.4646 1.39262 0
M  V30 39393 C 3649.52 -1.95 -0.00154426 0
M  V30 39394 O 3648.79 -1.70895 -0.957693 0
M  V30 39395 H 3647.37 -0.5434 0.512567 0
M  V30 39396 H 3650.03 -0.838238 1.75953 0
M  V30 39397 H 3649.13 -2.33356 2.07247 0
M  V30 39398 N 3649.43 -1.26454 -0.940588 0
M  V30 39399 C 3650.36 -1.10563 -2.05665 0
M  V30 39400 C 3651.34 -0.0106557 -1.70097 0
M  V30 39401 O 3652.52 -0.18279 -1.93338 0
M  V30 39402 C 3649.65 -0.738459 -3.39358 0
M  V30 39403 C 3648.61 -1.78524 -3.8899 0
M  V30 39404 C 3647.93 -1.27237 -5.19341 0
M  V30 39405 C 3649.23 -3.18687 -4.13806 0
M  V30 39406 H 3650.93 -2.03921 -2.19218 0
M  V30 39407 H 3648.47 -0.981838 -1.05337 0
M  V30 39408 H 3650.43 -0.614163 -4.169 0
M  V30 39409 H 3649.15 0.23083 -3.25783 0
M  V30 39410 H 3647.81 -1.89821 -3.13629 0
M  V30 39411 H 3647.46 -0.292904 -5.02146 0
M  V30 39412 H 3647.16 -1.97211 -5.53517 0
M  V30 39413 H 3648.68 -1.16075 -5.99465 0
M  V30 39414 H 3650.1 -3.10463 -4.8196 0
M  V30 39415 H 3648.49 -3.86257 -4.59266 0
M  V30 39416 H 3649.56 -3.647 -3.19565 0
M  V30 39417 N 3650.91 1.14525 -1.08268 0
M  V30 39418 C 3652.32 1.37516 -0.810025 0
M  V30 39419 C 3652.52 1.92931 0.581365 0
M  V30 39420 O 3651.58 2.14109 1.33842 0
M  V30 39421 C 3652.89 2.33755 -1.89153 0
M  V30 39422 C 3654.44 2.47398 -1.91738 0
M  V30 39423 C 3654.91 3.46935 -2.98998 0
M  V30 39424 N 3656.41 3.54478 -2.98161 0
M  V30 39425 C 3657.14 4.31342 -3.77798 0
M  V30 39426 N 3656.64 5.11461 -4.67311 0
M  V30 39427 N 3658.43 4.26524 -3.66106 0
M  V30 39428 H 3650.58 0.769013 -1.9799 0
M  V30 39429 H 3652.84 0.400765 -0.859122 0
M  V30 39430 H 3652.55 2.00171 -2.89179 0
M  V30 39431 H 3652.42 3.33643 -1.75961 0
M  V30 39432 H 3654.81 2.80275 -0.923581 0
M  V30 39433 H 3654.89 1.47476 -2.09008 0
M  V30 39434 H 3654.54 3.14792 -3.98583 0
M  V30 39435 H 3654.47 4.46634 -2.78973 0
M  V30 39436 H 3656.96 2.97301 -2.33282 0
M  V30 39437 H 3657.27 5.67383 -5.24686 0
M  V30 39438 H 3655.61 5.10735 -4.71354 0
M  V30 39439 H 3658.81 3.63002 -2.95545 0
M  V30 39440 H 3658.98 4.86177 -4.28411 0
M  V30 39441 N 3652.39 0.868133 1.31534 0
M  V30 39442 C 3653.33 0.311621 2.30503 0
M  V30 39443 C 3654.33 -0.572304 1.5944 0
M  V30 39444 O 3655.53 -0.458609 1.7406 0
M  V30 39445 H 3651.91 0.0820876 0.747506 0
M  V30 39446 H 3653.88 1.16031 2.74917 0
M  V30 39447 C 3652.63 -0.473562 3.4446 0
M  V30 39448 H 3651.95 0.197329 3.99313 0
M  V30 39449 H 3653.39 -0.82832 4.1583 0
M  V30 39450 C 3651.85 -1.66411 2.92932 0
M  V30 39451 O 3652.38 -2.76339 2.91547 0
M  V30 39452 N 3650.59 -1.49563 2.49157 0
M  V30 39453 H 3650.13 -0.601364 2.50482 0
M  V30 39454 H 3650.09 -2.29362 2.15036 0
M  V30 39455 N 3653.86 -1.44574 0.627389 0
M  V30 39456 C 3655.11 -2.01681 0.13013 0
M  V30 39457 C 3655.43 -1.49575 -1.2511 0
M  V30 39458 O 3654.7 -0.697854 -1.83049 0
M  V30 39459 H 3653.28 -0.745636 0.0451163 0
M  V30 39460 H 3655.94 -1.77122 0.813249 0
M  V30 39461 H 3655.04 -3.11955 0.0949679 0
M  V30 39462 N 3655.34 -0.367711 -1.5325 0
M  V30 39463 C 3656.59 0.220878 -2.00889 0
M  V30 39464 C 3656.91 1.49108 -1.25665 0
M  V30 39465 O 3656.18 1.92364 -0.370525 0
M  V30 39466 H 3654.76 0.0846102 -0.742193 0
M  V30 39467 H 3657.42 -0.494435 -1.88524 0
M  V30 39468 H 3656.52 0.44636 -3.08892 0
M  V30 39469 N 3656.82 1.57302 -0.0969353 0
M  V30 39470 C 3658.07 1.94035 0.56522 0
M  V30 39471 C 3658.39 0.97963 1.68607 0
M  V30 39472 O 3657.66 0.0320133 1.95874 0
M  V30 39473 H 3656.24 0.71635 0.211783 0
M  V30 39474 H 3658.9 1.94236 -0.1607 0
M  V30 39475 H 3658 2.96505 0.974216 0
M  V30 39476 N 3658.3 -0.176766 1.56606 0
M  V30 39477 C 3659.54 -0.895595 1.81953 0
M  V30 39478 C 3659.88 -1.82132 0.673925 0
M  V30 39479 O 3659.15 -1.91775 -0.324461 0
M  V30 39480 C 3659.43 -1.69599 3.17661 0
M  V30 39481 C 3659.29 -0.793756 4.42741 0
M  V30 39482 C 3660.61 -2.66482 3.50251 0
M  V30 39483 H 3657.73 -0.324147 0.66189 0
M  V30 39484 H 3660.37 -0.162058 1.89308 0
M  V30 39485 H 3658.52 -2.32134 3.11522 0
M  V30 39486 H 3660.19 -0.181694 4.60942 0
M  V30 39487 H 3658.43 -0.10149 4.33681 0
M  V30 39488 H 3659.1 -1.38918 5.34234 0
M  V30 39489 H 3661.58 -2.14074 3.56807 0
M  V30 39490 H 3660.46 -3.19554 4.46292 0
M  V30 39491 H 3660.72 -3.46418 2.74676 0
M  V30 39492 N 3659.78 -1.51183 -0.445132 0
M  V30 39493 C 3661.02 -1.63143 -1.19285 0
M  V30 39494 C 3661.34 -0.346143 -1.91903 0
M  V30 39495 O 3660.61 0.637663 -1.85231 0
M  V30 39496 H 3659.19 -0.601237 -0.443309 0
M  V30 39497 H 3661.86 -1.88079 -0.511103 0
M  V30 39498 H 3660.95 -2.45531 -1.92668 0
M  V30 39499 N 3661.25 0.700065 -1.41198 0
M  V30 39500 C 3662.53 1.45428 -1.30805 0
M  V30 39501 C 3662.91 2.10995 0.0664616 0
M  V30 39502 O 3662.26 2.01345 1.08039 0
M  V30 39503 C 3662.47 2.47738 -2.45819 0
M  V30 39504 C 3663.82 3.13121 -2.86776 0
M  V30 39505 O 3664.84 2.58061 -2.45526 0
M  V30 39506 O 3663.7 4.12833 -3.58093 0
M  V30 39507 H 3660.79 0.647444 -0.514535 0
M  V30 39508 H 3663.34 0.730924 -1.53152 0
M  V30 39509 H 3662.11 1.97911 -3.3756 0
M  V30 39510 H 3661.73 3.27589 -2.25325 0
M  V30 39511 N 3662.73 1.26951 0.933869 0
M  V30 39512 C 3663.98 1.12313 1.67537 0
M  V30 39513 C 3664.29 -0.331754 1.92766 0
M  V30 39514 O 3665.5 -0.598936 2.64811 0
M  V30 39515 C 3663.96 1.96199 3.01718 0
M  V30 39516 C 3663.56 3.46307 2.8421 0
M  V30 39517 C 3665.31 1.90191 3.7951 0
M  V30 39518 C 3663.21 4.22414 4.13909 0
M  V30 39519 H 3662.14 0.416715 0.628382 0
M  V30 39520 H 3664.8 1.51322 1.03798 0
M  V30 39521 H 3663.18 1.5003 3.66479 0
M  V30 39522 H 3664.35 4.00296 2.28254 0
M  V30 39523 H 3662.67 3.53629 2.19854 0
M  V30 39524 H 3665.26 2.44333 4.7561 0
M  V30 39525 H 3665.61 0.8742 4.07018 0
M  V30 39526 H 3666.14 2.34223 3.21535 0
M  V30 39527 H 3662.88 5.25684 3.91582 0
M  V30 39528 H 3662.4 3.73204 4.69552 0
M  V30 39529 H 3664.08 4.31256 4.82314 0
M  V30 39530 N 3664.21 -1.13949 1.08873 0
M  V30 39531 C 3665.14 -2.21304 0.744754 0
M  V30 39532 C 3666.12 -1.67862 -0.274989 0
M  V30 39533 O 3667.31 -1.93663 -0.144305 0
M  V30 39534 C 3664.44 -3.46939 0.158397 0
M  V30 39535 C 3663.39 -4.13436 1.10702 0
M  V30 39536 C 3662.72 -5.33329 0.382646 0
M  V30 39537 C 3664.02 -4.61425 2.44712 0
M  V30 39538 H 3665.71 -2.50334 1.64235 0
M  V30 39539 H 3663.26 -1.20322 0.79111 0
M  V30 39540 H 3665.21 -4.21295 -0.0942846 0
M  V30 39541 H 3663.93 -3.17287 -0.774357 0
M  V30 39542 H 3662.59 -3.4104 1.34488 0
M  V30 39543 H 3662.24 -4.99939 -0.554065 0
M  V30 39544 H 3661.94 -5.78766 1.0151 0
M  V30 39545 H 3663.46 -6.10444 0.13813 0
M  V30 39546 H 3664.88 -5.27232 2.25166 0
M  V30 39547 H 3663.27 -5.17581 3.03694 0
M  V30 39548 H 3664.34 -3.76244 3.0589 0
M  V30 39549 N 3665.69 -0.875096 -1.31072 0
M  V30 39550 C 3667.1 -0.567723 -1.49161 0
M  V30 39551 C 3667.3 0.896937 -1.80436 0
M  V30 39552 O 3666.36 1.6788 -1.88607 0
M  V30 39553 C 3667.67 -1.47236 -2.62187 0
M  V30 39554 C 3669.22 -1.47494 -2.7607 0
M  V30 39555 C 3669.7 -2.36526 -3.92198 0
M  V30 39556 N 3671.19 -2.34435 -3.99493 0
M  V30 39557 C 3671.92 -3.00041 -4.88634 0
M  V30 39558 N 3671.42 -3.74837 -5.8264 0
M  V30 39559 N 3673.21 -2.89324 -4.81921 0
M  V30 39560 H 3665.36 -1.82274 -1.09041 0
M  V30 39561 H 3667.62 -0.779669 -0.539277 0
M  V30 39562 H 3667.33 -2.51479 -2.45868 0
M  V30 39563 H 3667.2 -1.17465 -3.58444 0
M  V30 39564 H 3669.59 -0.440059 -2.918 0
M  V30 39565 H 3669.67 -1.8129 -1.80465 0
M  V30 39566 H 3669.32 -3.40094 -3.77225 0
M  V30 39567 H 3669.25 -2.00052 -4.87121 0
M  V30 39568 H 3671.74 -1.80073 -3.32238 0
M  V30 39569 H 3672.05 -4.22012 -6.47399 0
M  V30 39570 H 3670.4 -3.78945 -5.82603 0
M  V30 39571 H 3673.59 -2.30425 -4.07458 0
M  V30 39572 H 3673.76 -3.40732 -5.51186 0
M  V30 39573 N 3667.17 1.44239 -0.635047 0
M  V30 39574 C 3668.11 2.30701 0.0675302 0
M  V30 39575 C 3669.08 1.43708 0.832893 0
M  V30 39576 O 3670.27 1.72605 0.813147 0
M  V30 39577 C 3667.41 3.29041 1.04047 0
M  V30 39578 C 3666.52 4.31136 0.273115 0
M  V30 39579 C 3665.66 5.16567 1.23822 0
M  V30 39580 C 3664.7 6.10367 0.460252 0
M  V30 39581 N 3663.83 6.88484 1.37602 0
M  V30 39582 H 3668.67 2.90238 -0.675707 0
M  V30 39583 H 3666.21 1.42997 -0.344996 0
M  V30 39584 H 3668.17 3.84548 1.61798 0
M  V30 39585 H 3666.8 2.71196 1.75079 0
M  V30 39586 H 3665.85 3.7807 -0.420382 0
M  V30 39587 H 3667.16 4.9769 -0.332635 0
M  V30 39588 H 3666.32 5.7661 1.88694 0
M  V30 39589 H 3665.05 4.50096 1.87789 0
M  V30 39590 H 3664.06 5.49429 -0.201933 0
M  V30 39591 H 3665.28 6.78875 -0.174758 0
M  V30 39592 H 3663.23 6.24678 2.00283 0
M  V30 39593 H 3663.15 7.51492 0.824388 0
M  V30 39594 H 3664.42 7.53047 2.01346 0
M  V30 39595 N 3668.64 0.375833 1.53053 0
M  V30 39596 C 3670.06 -0.101155 1.86426 0
M  V30 39597 C 3670.41 -1.47298 1.29606 0
M  V30 39598 O 3669.53 -2.07265 0.622095 0
M  V30 39599 C 3670.13 -0.190329 3.38265 0
M  V30 39600 C 3668.69 -0.611588 3.71398 0
M  V30 39601 C 3667.83 0.234849 2.76304 0
M  V30 39602 H 3670.78 0.594237 1.47155 0
M  V30 39603 H 3670.8 -1.012 3.66795 0
M  V30 39604 H 3670.32 0.808247 3.79591 0
M  V30 39605 H 3668.42 -1.61802 3.35635 0
M  V30 39606 H 3668.53 -0.379084 4.77598 0
M  V30 39607 H 3666.89 -0.297843 2.52953 0
M  V30 39608 H 3667.68 1.23115 3.20464 0
M  V30 39609 N 3670.12 -1.57248 0.105276 0
M  V30 39610 C 3671.35 -1.99485 -0.56748 0
M  V30 39611 C 3671.77 -0.98421 -1.60296 0
M  V30 39612 O 3671.13 0.0459626 -1.81242 0
M  V30 39613 C 3671.18 -3.40655 -1.18265 0
M  V30 39614 O 3670.28 -3.42416 -2.29837 0
M  V30 39615 H 3669.62 -0.648406 -0.143058 0
M  V30 39616 H 3672.15 -2.03719 0.189697 0
M  V30 39617 H 3672.16 -3.78569 -1.5215 0
M  V30 39618 H 3670.84 -4.13732 -0.424106 0
M  V30 39619 H 3669.42 -3.16307 -1.97495 0
M  V30 39620 N 3671.6 0.168458 -1.56697 0
M  V30 39621 C 3672.55 1.20851 -1.96631 0
M  V30 39622 C 3673.52 1.43838 -0.830648 0
M  V30 39623 O 3674.7 1.56531 -1.091 0
M  V30 39624 C 3671.84 2.54216 -2.33384 0
M  V30 39625 C 3670.96 2.38584 -3.60141 0
M  V30 39626 C 3670.09 3.64835 -3.86095 0
M  V30 39627 C 3669.13 3.44148 -5.0619 0
M  V30 39628 N 3668.27 4.62476 -5.28262 0
M  V30 39629 H 3673.11 0.86097 -2.85292 0
M  V30 39630 H 3670.64 0.413716 -1.41162 0
M  V30 39631 H 3672.6 3.31949 -2.52717 0
M  V30 39632 H 3671.23 2.8696 -1.4783 0
M  V30 39633 H 3670.28 1.52013 -3.48707 0
M  V30 39634 H 3671.6 2.19246 -4.48032 0
M  V30 39635 H 3670.75 4.51002 -4.0581 0
M  V30 39636 H 3669.49 3.87155 -2.96585 0
M  V30 39637 H 3668.49 2.56367 -4.8637 0
M  V30 39638 H 3669.72 3.23248 -5.97233 0
M  V30 39639 H 3667.66 4.85009 -4.41704 0
M  V30 39640 H 3667.58 4.46062 -6.10381 0
M  V30 39641 H 3668.85 5.49918 -5.52458 0
M  V30 39642 N 3673.08 1.51417 0.437109 0
M  V30 39643 C 3674.36 1.54638 1.19777 0
M  V30 39644 C 3674.74 0.310784 2.088 0
M  V30 39645 O 3674.08 -0.70411 2.17381 0
M  V30 39646 C 3674.29 2.8605 1.99942 0
M  V30 39647 C 3675.64 3.38007 2.56975 0
M  V30 39648 O 3676.67 2.87601 2.10152 0
M  V30 39649 O 3675.52 4.25959 3.42375 0
M  V30 39650 H 3672.62 0.621723 0.545335 0
M  V30 39651 H 3675.16 1.6373 0.44616 0
M  V30 39652 H 3673.94 3.67437 1.34557 0
M  V30 39653 H 3673.56 2.8012 2.82167 0
M  V30 39654 N 3674.56 -0.692567 1.41567 0
M  V30 39655 C 3675.47 -1.8362 1.46017 0
M  V30 39656 C 3676.48 -1.70434 0.350483 0
M  V30 39657 O 3677.66 -1.92296 0.598668 0
M  V30 39658 C 3674.72 -3.19626 1.34313 0
M  V30 39659 C 3673.78 -3.44899 2.55623 0
M  V30 39660 C 3673.02 -4.74417 2.44468 0
M  V30 39661 O 3673.24 -5.51109 1.47088 0
M  V30 39662 O 3672.17 -5.0054 3.34281 0
M  V30 39663 H 3676 -1.82822 2.42507 0
M  V30 39664 H 3673.59 -0.846018 1.23138 0
M  V30 39665 H 3675.47 -4.0082 1.30082 0
M  V30 39666 H 3674.14 -3.21101 0.409399 0
M  V30 39667 H 3673.05 -2.63623 2.65431 0
M  V30 39668 H 3674.38 -3.48241 3.47835 0
M  V30 39669 N 3676.03 -1.27445 -0.927123 0
M  V30 39670 C 3677.26 -1.16742 -1.71424 0
M  V30 39671 C 3677.68 0.27203 -1.86123 0
M  V30 39672 O 3677.04 1.197 -1.36167 0
M  V30 39673 C 3677.09 -1.85667 -3.09128 0
M  V30 39674 O 3676.19 -1.15502 -3.95895 0
M  V30 39675 H 3675.54 -0.405992 -0.52542 0
M  V30 39676 H 3678.07 -1.68525 -1.16019 0
M  V30 39677 H 3678.08 -1.93048 -3.59439 0
M  V30 39678 H 3676.75 -2.90379 -2.97747 0
M  V30 39679 H 3675.33 -1.16194 -3.54335 0
M  V30 39680 N 3677.51 1.1337 -1.09476 0
M  V30 39681 C 3678.44 2.20906 -0.75648 0
M  V30 39682 C 3679.42 1.68006 0.266083 0
M  V30 39683 O 3680.61 1.93737 0.134033 0
M  V30 39684 C 3677.74 3.4685 -0.176794 0
M  V30 39685 C 3676.69 4.12843 -1.12893 0
M  V30 39686 C 3676.02 5.33119 -0.410924 0
M  V30 39687 C 3677.32 4.60121 -2.47156 0
M  V30 39688 H 3679.01 2.4946 -1.6556 0
M  V30 39689 H 3676.56 1.19901 -0.797479 0
M  V30 39690 H 3678.51 4.21339 0.071941 0
M  V30 39691 H 3677.24 3.17694 0.75752 0
M  V30 39692 H 3675.89 3.40322 -1.36295 0
M  V30 39693 H 3675.54 5.00226 0.527544 0
M  V30 39694 H 3675.24 5.78219 -1.04578 0
M  V30 39695 H 3676.77 6.10362 -0.170502 0
M  V30 39696 H 3678.18 5.2603 -2.27959 0
M  V30 39697 H 3676.58 5.15963 -3.06434 0
M  V30 39698 H 3677.65 3.74616 -3.07881 0
M  V30 39699 N 3678.99 0.882035 1.30606 0
M  V30 39700 C 3680.24 0.498999 1.96256 0
M  V30 39701 C 3680.57 -0.95123 1.69652 0
M  V30 39702 O 3679.82 -1.68675 0.992333 0
M  V30 39703 C 3680.12 0.716991 3.50134 0
M  V30 39704 C 3679.79 2.14185 3.96781 0
M  V30 39705 C 3678.45 2.53149 4.0923 0
M  V30 39706 C 3680.8 3.07055 4.21149 0
M  V30 39707 C 3678.13 3.842 4.43404 0
M  V30 39708 C 3680.48 4.37635 4.56792 0
M  V30 39709 C 3679.14 4.76496 4.67448 0
M  V30 39710 H 3678.41 0.182596 0.71815 0
M  V30 39711 H 3681.06 1.11733 1.55525 0
M  V30 39712 H 3679.37 0.0156077 3.91797 0
M  V30 39713 H 3681.06 0.400267 3.98997 0
M  V30 39714 H 3677.65 1.82939 3.87597 0
M  V30 39715 H 3681.84 2.78174 4.11015 0
M  V30 39716 H 3677.09 4.14055 4.49854 0
M  V30 39717 H 3681.27 5.09637 4.74598 0
M  V30 39718 H 3678.89 5.78083 4.93684 0
M  V30 39719 N 3680.47 -1.439 0.642688 0
M  V30 39720 C 3681.88 -1.85242 0.232842 0
M  V30 39721 C 3682.23 -1.53791 -1.21831 0
M  V30 39722 O 3681.36 -0.981659 -1.92853 0
M  V30 39723 C 3681.95 -3.36239 0.415808 0
M  V30 39724 C 3680.51 -3.76352 0.0603716 0
M  V30 39725 C 3679.66 -2.6769 0.723705 0
M  V30 39726 H 3682.61 -1.34203 0.847076 0
M  V30 39727 H 3682.63 -3.78961 -0.341837 0
M  V30 39728 H 3682.14 -3.59099 1.47206 0
M  V30 39729 H 3680.24 -3.59105 -0.993698 0
M  V30 39730 H 3680.35 -4.76705 0.478492 0
M  V30 39731 H 3678.72 -2.5421 0.157914 0
M  V30 39732 H 3679.5 -2.9338 1.78278 0
M  V30 39733 N 3681.95 -0.383945 -1.52852 0
M  V30 39734 C 3682.91 0.441648 -2.24905 0
M  V30 39735 C 3683.91 0.994638 -1.26347 0
M  V30 39736 O 3685.1 0.877486 -1.50485 0
M  V30 39737 C 3682.23 1.61909 -2.99997 0
M  V30 39738 H 3683.43 -0.1891 -2.99303 0
M  V30 39739 H 3680.98 -0.135959 -1.55708 0
M  V30 39740 H 3681.71 2.28742 -2.29886 0
M  V30 39741 H 3681.5 1.22933 -3.7233 0
M  V30 39742 H 3682.99 2.20372 -3.54719 0
M  V30 39743 N 3683.43 1.5719 -0.113614 0
M  V30 39744 C 3684.84 1.57739 0.242996 0
M  V30 39745 C 3685.04 1.126 1.67103 0
M  V30 39746 O 3684.1 0.810917 2.39124 0
M  V30 39747 C 3685.41 3.00696 0.0145762 0
M  V30 39748 C 3686.96 3.12895 0.0808935 0
M  V30 39749 C 3687.43 4.57843 -0.119765 0
M  V30 39750 N 3688.92 4.63154 -0.0655525 0
M  V30 39751 C 3689.66 5.73066 -0.195793 0
M  V30 39752 N 3689.16 6.91747 -0.381903 0
M  V30 39753 N 3690.95 5.61936 -0.135748 0
M  V30 39754 H 3683.1 1.84834 -1.04643 0
M  V30 39755 H 3685.36 0.853973 -0.411624 0
M  V30 39756 H 3685.07 3.37988 -0.972458 0
M  V30 39757 H 3684.94 3.69693 0.748817 0
M  V30 39758 H 3687.33 2.75465 1.05845 0
M  V30 39759 H 3687.41 2.46454 -0.68514 0
M  V30 39760 H 3687.05 4.95972 -1.09427 0
M  V30 39761 H 3686.98 5.22369 0.666189 0
M  V30 39762 H 3689.48 3.77826 0.0749985 0
M  V30 39763 H 3689.79 7.71355 -0.472293 0
M  V30 39764 H 3688.13 6.93743 -0.417808 0
M  V30 39765 H 3691.32 4.68099 0.00864782 0
M  V30 39766 H 3691.5 6.47553 -0.240693 0
M  V30 39767 N 3684.9 -0.160146 1.56784 0
M  V30 39768 C 3686.15 -0.876246 1.82893 0
M  V30 39769 C 3686.48 -1.81406 0.693205 0
M  V30 39770 O 3685.76 -1.92108 -0.304102 0
M  V30 39771 C 3686.04 -1.6622 3.19442 0
M  V30 39772 C 3685.89 -0.746753 4.43558 0
M  V30 39773 C 3687.21 -2.62752 3.53057 0
M  V30 39774 H 3684.33 -0.317108 0.66529 0
M  V30 39775 H 3686.97 -0.141971 1.89469 0
M  V30 39776 H 3685.12 -2.28817 3.13966 0
M  V30 39777 H 3686.8 -0.132795 4.61109 0
M  V30 39778 H 3685.04 -0.0554863 4.33765 0
M  V30 39779 H 3685.71 -1.33244 5.35677 0
M  V30 39780 H 3688.19 -2.10277 3.59058 0
M  V30 39781 H 3687.06 -3.14803 4.49656 0
M  V30 39782 H 3687.32 -3.43485 2.78335 0
M  V30 39783 N 3686.38 -1.51647 -0.429072 0
M  V30 39784 C 3687.63 -1.64968 -1.17955 0
M  V30 39785 C 3687.96 -0.368788 -1.90666 0
M  V30 39786 O 3687.24 0.63199 -1.83946 0
M  V30 39787 C 3687.52 -2.85854 -2.18997 0
M  V30 39788 C 3687.37 -4.23941 -1.50314 0
M  V30 39789 C 3688.69 -3.02256 -3.1989 0
M  V30 39790 H 3685.81 -0.60037 -0.427464 0
M  V30 39791 H 3688.45 -1.84153 -0.467738 0
M  V30 39792 H 3686.6 -2.69628 -2.79702 0
M  V30 39793 H 3688.27 -4.51852 -0.928822 0
M  V30 39794 H 3686.52 -4.26259 -0.805356 0
M  V30 39795 H 3687.19 -5.04534 -2.23941 0
M  V30 39796 H 3689.66 -3.17247 -2.69246 0
M  V30 39797 H 3688.54 -3.88388 -3.87873 0
M  V30 39798 H 3688.8 -2.14688 -3.86473 0
M  V30 39799 N 3687.86 0.685049 -1.41932 0
M  V30 39800 C 3689.09 1.47148 -1.45021 0
M  V30 39801 C 3689.5 1.89114 -0.0569744 0
M  V30 39802 O 3688.84 1.58042 0.936392 0
M  V30 39803 C 3688.9 2.75858 -2.30527 0
M  V30 39804 C 3688.57 2.56031 -3.78546 0
M  V30 39805 C 3689.56 2.21295 -4.70452 0
M  V30 39806 C 3687.25 2.71344 -4.22703 0
M  V30 39807 C 3689.24 2.02125 -6.04503 0
M  V30 39808 C 3686.93 2.5179 -5.56817 0
M  V30 39809 C 3687.93 2.17232 -6.47533 0
M  V30 39810 O 3687.62 1.97859 -7.79171 0
M  V30 39811 H 3687.35 0.459638 -0.49569 0
M  V30 39812 H 3689.9 0.850047 -1.86985 0
M  V30 39813 H 3688.13 3.40446 -1.83394 0
M  V30 39814 H 3689.82 3.37703 -2.25192 0
M  V30 39815 H 3690.59 2.09069 -4.37624 0
M  V30 39816 H 3686.47 2.97224 -3.52391 0
M  V30 39817 H 3690.01 1.75074 -6.75274 0
M  V30 39818 H 3685.91 2.63609 -5.8922 0
M  V30 39819 H 3686.67 2.12538 -7.90424 0
M  V30 39820 N 3689.34 1.27935 0.920351 0
M  V30 39821 C 3690.61 1.05416 1.64763 0
M  V30 39822 C 3690.99 -0.40868 2.07106 0
M  V30 39823 O 3690.34 -1.39342 1.81096 0
M  V30 39824 C 3690.55 2.02262 2.84413 0
M  V30 39825 C 3691.9 2.32042 3.55586 0
M  V30 39826 O 3692.92 2.00294 2.94552 0
M  V30 39827 O 3691.78 2.86195 4.65569 0
M  V30 39828 H 3688.88 0.402404 0.722496 0
M  V30 39829 H 3691.42 1.39228 0.970239 0
M  V30 39830 H 3690.2 3.00884 2.50168 0
M  V30 39831 H 3689.82 1.69056 3.59869 0
M  V30 39832 N 3690.82 -1.12788 1.10076 0
M  V30 39833 C 3691.75 -2.20502 0.768184 0
M  V30 39834 C 3692.73 -1.68145 -0.25717 0
M  V30 39835 O 3693.91 -1.93805 -0.123756 0
M  V30 39836 C 3691.04 -3.46751 0.195186 0
M  V30 39837 C 3690 -4.12238 1.15081 0
M  V30 39838 C 3689.32 -5.32893 0.439191 0
M  V30 39839 C 3690.62 -4.58804 2.49593 0
M  V30 39840 H 3692.32 -2.48578 1.6688 0
M  V30 39841 H 3689.86 -1.19476 0.803827 0
M  V30 39842 H 3691.81 -4.21371 -0.0495954 0
M  V30 39843 H 3690.54 -3.18091 -0.740661 0
M  V30 39844 H 3689.2 -3.39595 1.38098 0
M  V30 39845 H 3688.85 -5.00499 -0.501008 0
M  V30 39846 H 3688.55 -5.77656 1.07643 0
M  V30 39847 H 3690.07 -6.10263 0.202868 0
M  V30 39848 H 3691.48 -5.24814 2.30745 0
M  V30 39849 H 3689.88 -5.14331 3.09166 0
M  V30 39850 H 3690.95 -3.72978 3.09863 0
M  V30 39851 N 3692.29 -0.888949 -1.30136 0
M  V30 39852 C 3693.22 -0.374974 -2.3047 0
M  V30 39853 C 3694.2 0.544294 -1.61157 0
M  V30 39854 O 3695.39 0.457304 -1.88739 0
M  V30 39855 C 3692.52 0.407874 -3.44897 0
M  V30 39856 C 3691.47 -0.419991 -4.25934 0
M  V30 39857 C 3690.8 0.489703 -5.32453 0
M  V30 39858 C 3692.1 -1.66422 -4.95077 0
M  V30 39859 H 3693.79 -1.21341 -2.73709 0
M  V30 39860 H 3691.34 -0.584922 -1.31585 0
M  V30 39861 H 3693.29 0.778104 -4.14154 0
M  V30 39862 H 3692.02 1.28 -3.00472 0
M  V30 39863 H 3690.68 -0.772411 -3.5837 0
M  V30 39864 H 3690.32 1.35965 -4.84275 0
M  V30 39865 H 3690.02 -0.0604445 -5.87569 0
M  V30 39866 H 3691.55 0.856362 -6.04565 0
M  V30 39867 H 3692.96 -1.36435 -5.56829 0
M  V30 39868 H 3691.36 -2.15487 -5.60076 0
M  V30 39869 H 3692.43 -2.40637 -4.20977 0
M  V30 39870 N 3693.77 1.43557 -0.65031 0
M  V30 39871 C 3695.02 2.01847 -0.16252 0
M  V30 39872 C 3695.35 1.5128 1.22248 0
M  V30 39873 O 3694.6 0.695147 1.82938 0
M  V30 39874 C 3694.9 3.57201 -0.119146 0
M  V30 39875 C 3694.57 4.27102 -1.4455 0
M  V30 39876 C 3693.23 4.45913 -1.80872 0
M  V30 39877 C 3695.58 4.66711 -2.32013 0
M  V30 39878 C 3692.91 5.01599 -3.04328 0
M  V30 39879 C 3695.26 5.23765 -3.54758 0
M  V30 39880 C 3693.92 5.40793 -3.91279 0
M  V30 39881 H 3693.19 0.73861 -0.0594703 0
M  V30 39882 H 3695.84 1.72072 -0.84044 0
M  V30 39883 H 3694.15 3.86501 0.642214 0
M  V30 39884 H 3695.84 4.00055 0.275098 0
M  V30 39885 H 3692.43 4.12803 -1.15289 0
M  V30 39886 H 3696.62 4.51873 -2.05242 0
M  V30 39887 H 3691.87 5.12968 -3.32677 0
M  V30 39888 H 3696.05 5.53404 -4.2275 0
M  V30 39889 H 3693.67 5.83707 -4.87021 0
M  V30 39890 N 3695.25 0.392045 1.52646 0
M  V30 39891 C 3696.5 -0.189264 2.01614 0
M  V30 39892 C 3696.82 -1.46585 1.2784 0
M  V30 39893 O 3696.08 -1.92208 0.368051 0
M  V30 39894 C 3696.38 -0.500852 3.53873 0
M  V30 39895 C 3696.04 0.684512 4.45674 0
M  V30 39896 C 3694.71 1.00969 4.70488 0
M  V30 39897 C 3697.06 1.47739 4.99823 0
M  V30 39898 C 3694.39 2.12925 5.46699 0
M  V30 39899 C 3696.74 2.58757 5.77258 0
M  V30 39900 C 3695.4 2.91781 6.0035 0
M  V30 39901 H 3694.67 -0.0692567 0.737756 0
M  V30 39902 H 3697.32 0.529956 1.84021 0
M  V30 39903 H 3695.62 -1.30143 3.69554 0
M  V30 39904 H 3697.32 -0.963313 3.89257 0
M  V30 39905 H 3693.91 0.42106 4.26527 0
M  V30 39906 H 3698.1 1.2394 4.80575 0
M  V30 39907 H 3693.35 2.38878 5.62803 0
M  V30 39908 H 3697.53 3.20594 6.18217 0
M  V30 39909 H 3695.15 3.78651 6.59187 0
M  V30 39910 N 3696.73 -1.57127 0.121948 0
M  V30 39911 C 3697.98 -1.95296 -0.535337 0
M  V30 39912 C 3698.3 -1.00541 -1.66498 0
M  V30 39913 O 3697.56 -0.0298473 -1.95677 0
M  V30 39914 C 3697.86 -3.39865 -1.10573 0
M  V30 39915 C 3697.52 -4.50795 -0.0971351 0
M  V30 39916 C 3696.19 -4.80862 0.180195 0
M  V30 39917 C 3698.54 -5.17849 0.590064 0
M  V30 39918 C 3695.87 -5.753 1.15096 0
M  V30 39919 C 3698.22 -6.1333 1.54948 0
M  V30 39920 C 3696.88 -6.41789 1.83477 0
M  V30 39921 H 3696.15 -0.714637 -0.195894 0
M  V30 39922 H 3698.8 -1.90416 0.203478 0
M  V30 39923 H 3697.1 -3.41454 -1.92137 0
M  V30 39924 H 3698.8 -3.66712 -1.62246 0
M  V30 39925 H 3695.39 -4.27378 -0.323474 0
M  V30 39926 H 3699.57 -4.94773 0.388977 0
M  V30 39927 H 3694.83 -5.95652 1.3787 0
M  V30 39928 H 3699 -6.64373 2.08763 0
M  V30 39929 H 3696.63 -7.14772 2.58853 0
M  V30 39930 N 3698.21 0.151829 -1.56867 0
M  V30 39931 C 3699.46 0.863657 -1.82274 0
M  V30 39932 C 3699.77 1.82553 -0.702409 0
M  V30 39933 O 3700.97 2.58115 -0.841948 0
M  V30 39934 C 3699.43 1.58643 -3.23048 0
M  V30 39935 C 3699.04 0.667214 -4.43004 0
M  V30 39936 C 3700.78 2.28533 -3.57733 0
M  V30 39937 C 3698.69 1.39134 -5.74801 0
M  V30 39938 H 3697.62 0.326257 -0.679759 0
M  V30 39939 H 3700.27 0.116422 -1.8313 0
M  V30 39940 H 3698.65 2.37912 -3.16565 0
M  V30 39941 H 3699.83 -0.0899063 -4.60712 0
M  V30 39942 H 3698.14 0.076979 -4.16329 0
M  V30 39943 H 3700.74 2.8334 -4.53456 0
M  V30 39944 H 3701.08 3.04798 -2.83556 0
M  V30 39945 H 3701.61 1.56188 -3.65856 0
M  V30 39946 H 3698.35 0.670632 -6.5206 0
M  V30 39947 H 3697.87 2.12129 -5.61036 0
M  V30 39948 H 3699.55 1.93356 -6.17432 0
M  V30 39949 N 3699.68 1.51872 0.421024 0
M  V30 39950 C 3700.93 1.65591 1.17079 0
M  V30 39951 C 3701.26 0.378895 1.90468 0
M  V30 39952 O 3700.54 -0.622226 1.84279 0
M  V30 39953 C 3700.82 2.87011 2.17478 0
M  V30 39954 C 3700.67 4.24732 1.48064 0
M  V30 39955 C 3701.99 3.03948 3.18282 0
M  V30 39956 H 3699.11 0.602628 0.424274 0
M  V30 39957 H 3701.75 1.84398 0.457965 0
M  V30 39958 H 3699.9 2.71107 2.78268 0
M  V30 39959 H 3701.58 4.52339 0.904846 0
M  V30 39960 H 3699.82 4.2668 0.782739 0
M  V30 39961 H 3700.49 5.05714 2.21263 0
M  V30 39962 H 3702.97 3.18671 2.67559 0
M  V30 39963 H 3701.84 3.9044 3.85808 0
M  V30 39964 H 3702.1 2.16735 3.85329 0
M  V30 39965 N 3701.16 -0.677513 1.42294 0
M  V30 39966 C 3702.41 -1.43332 1.41912 0
M  V30 39967 C 3702.72 -1.95563 0.0379854 0
M  V30 39968 O 3703.93 -2.71356 -0.088436 0
M  V30 39969 C 3702.39 -2.59271 2.49613 0
M  V30 39970 C 3701.99 -2.1375 3.93719 0
M  V30 39971 C 3703.74 -3.36798 2.58393 0
M  V30 39972 C 3701.65 -3.26756 4.92935 0
M  V30 39973 H 3700.58 -0.538451 0.527813 0
M  V30 39974 H 3703.23 -0.733762 1.68191 0
M  V30 39975 H 3701.61 -3.31581 2.16494 0
M  V30 39976 H 3702.78 -1.48611 4.36178 0
M  V30 39977 H 3701.1 -1.49168 3.88764 0
M  V30 39978 H 3703.69 -4.20955 3.29698 0
M  V30 39979 H 3704.04 -3.83207 1.6266 0
M  V30 39980 H 3704.57 -2.71556 2.90693 0
M  V30 39981 H 3701.31 -2.85341 5.90136 0
M  V30 39982 H 3700.83 -3.90686 4.5511 0
M  V30 39983 H 3702.51 -3.92264 5.14527 0
M  V30 39984 N 3702.64 -1.28421 -0.913554 0
M  V30 39985 C 3703.89 -1.14964 -1.65729 0
M  V30 39986 C 3704.2 0.301045 -1.93269 0
M  V30 39987 O 3705.41 0.556731 -2.65731 0
M  V30 39988 C 3703.86 -2.00975 -2.98559 0
M  V30 39989 C 3703.47 -3.50785 -2.78665 0
M  V30 39990 C 3705.22 -1.96205 -3.76436 0
M  V30 39991 C 3703.12 -4.28945 -4.07136 0
M  V30 39992 H 3702.05 -0.426659 -0.621673 0
M  V30 39993 H 3704.7 -1.52954 -1.01377 0
M  V30 39994 H 3703.09 -1.55841 -3.64046 0
M  V30 39995 H 3704.26 -4.03877 -2.21856 0
M  V30 39996 H 3702.58 -3.57082 -2.142 0
M  V30 39997 H 3705.17 -2.51869 -4.71663 0
M  V30 39998 H 3705.52 -0.938843 -4.05575 0
M  V30 39999 H 3706.05 -2.39308 -3.17768 0
M  V30 40000 H 3702.79 -5.31847 -3.83169 0
M  V30 40001 H 3702.31 -3.80627 -4.63555 0
M  V30 40002 H 3703.99 -4.38875 -4.75392 0
M  V30 40003 N 3704.12 1.12202 -1.10672 0
M  V30 40004 C 3705.37 1.83125 -0.845471 0
M  V30 40005 C 3705.68 1.85143 0.630989 0
M  V30 40006 O 3706.89 2.52085 1.00822 0
M  V30 40007 C 3705.34 3.28836 -1.46271 0
M  V30 40008 C 3704.95 3.35169 -2.97264 0
M  V30 40009 C 3706.69 4.04712 -1.28095 0
M  V30 40010 C 3704.6 4.75229 -3.5201 0
M  V30 40011 H 3703.53 0.686133 -0.312629 0
M  V30 40012 H 3706.18 1.26319 -1.33101 0
M  V30 40013 H 3704.56 3.85524 -0.904849 0
M  V30 40014 H 3705.74 2.88407 -3.59386 0
M  V30 40015 H 3704.05 2.72767 -3.14622 0
M  V30 40016 H 3706.65 5.08136 -1.66438 0
M  V30 40017 H 3706.99 4.15704 -0.222755 0
M  V30 40018 H 3707.53 3.54389 -1.80702 0
M  V30 40019 H 3704.27 4.69433 -4.57508 0
M  V30 40020 H 3703.79 5.22434 -2.94657 0
M  V30 40021 H 3705.46 5.44174 -3.49977 0
M  V30 40022 N 3705.6 0.895838 1.29663 0
M  V30 40023 C 3706.84 0.520556 1.96005 0
M  V30 40024 C 3707.18 -0.930039 1.70481 0
M  V30 40025 O 3706.45 -1.65878 1.01561 0
M  V30 40026 C 3706.73 0.808987 3.50895 0
M  V30 40027 C 3706.59 2.311 3.85892 0
M  V30 40028 C 3707.91 0.292847 4.39125 0
M  V30 40029 H 3705.02 0.190601 0.711927 0
M  V30 40030 H 3707.67 1.12181 1.53347 0
M  V30 40031 H 3705.82 0.297262 3.87361 0
M  V30 40032 H 3707.49 2.89197 3.59392 0
M  V30 40033 H 3705.73 2.77329 3.33573 0
M  V30 40034 H 3706.4 2.4634 4.93985 0
M  V30 40035 H 3708.88 0.730978 4.09629 0
M  V30 40036 H 3707.75 0.523895 5.46394 0
M  V30 40037 H 3708.02 -0.806317 4.34685 0
M  V30 40038 N 3707.07 -1.43211 0.657914 0
M  V30 40039 C 3708 -2.33494 -0.0171704 0
M  V30 40040 C 3708.99 -1.49735 -0.807061 0
M  V30 40041 O 3710.17 -1.78386 -0.7676 0
M  V30 40042 C 3707.3 -3.33158 -0.98097 0
M  V30 40043 C 3706.25 -4.26941 -0.300865 0
M  V30 40044 C 3705.58 -5.1668 -1.37644 0
M  V30 40045 C 3706.88 -5.15986 0.809663 0
M  V30 40046 H 3708.57 -2.90192 0.7368 0
M  V30 40047 H 3706.12 -1.39536 0.355768 0
M  V30 40048 H 3708.07 -3.95219 -1.46219 0
M  V30 40049 H 3706.8 -2.74726 -1.76616 0
M  V30 40050 H 3705.46 -3.66251 0.159957 0
M  V30 40051 H 3705.1 -4.54585 -2.15318 0
M  V30 40052 H 3704.8 -5.80248 -0.926602 0
M  V30 40053 H 3706.33 -5.81615 -1.85893 0
M  V30 40054 H 3707.74 -5.71829 0.410398 0
M  V30 40055 H 3706.14 -5.88299 1.18425 0
M  V30 40056 H 3707.21 -4.55394 1.66566 0
M  V30 40057 N 3708.55 -0.400135 -1.52436 0
M  V30 40058 C 3709.5 0.444532 -2.28313 0
M  V30 40059 C 3710.49 1.05367 -1.32643 0
M  V30 40060 O 3711.7 0.992904 -1.50138 0
M  V30 40061 H 3708.08 0.162125 -0.734316 0
M  V30 40062 H 3710.05 -0.216754 -2.97612 0
M  V30 40063 C 3708.8 1.55387 -3.11047 0
M  V30 40064 H 3708.12 1.09448 -3.84527 0
M  V30 40065 H 3709.56 2.11889 -3.67259 0
M  V30 40066 C 3708.02 2.5161 -2.2404 0
M  V30 40067 O 3708.55 3.5528 -1.87453 0
M  V30 40068 N 3706.75 2.21607 -1.87986 0
M  V30 40069 H 3706.3 1.37335 -2.17938 0
M  V30 40070 H 3706.26 2.86236 -1.30063 0
M  V30 40071 N 3710.03 1.57061 -0.13028 0
M  V30 40072 C 3710.96 2.18921 0.812151 0
M  V30 40073 C 3711.94 1.13251 1.26918 0
M  V30 40074 O 3713.13 1.41531 1.32976 0
M  V30 40075 C 3710.26 2.79758 2.05798 0
M  V30 40076 C 3709.21 3.91108 1.73834 0
M  V30 40077 C 3708.54 4.38804 3.05541 0
M  V30 40078 C 3709.84 5.12678 0.997901 0
M  V30 40079 H 3711.53 2.97927 0.29664 0
M  V30 40080 H 3709.08 1.43306 0.141239 0
M  V30 40081 H 3711.03 3.21695 2.72195 0
M  V30 40082 H 3709.75 1.98058 2.59693 0
M  V30 40083 H 3708.41 3.49764 1.09822 0
M  V30 40084 H 3708.06 3.53948 3.57393 0
M  V30 40085 H 3707.76 5.13899 2.84923 0
M  V30 40086 H 3709.28 4.834 3.73037 0
M  V30 40087 H 3710.7 5.51565 1.56362 0
M  V30 40088 H 3709.1 5.93429 0.892274 0
M  V30 40089 H 3710.17 4.84898 -0.0133789 0
M  V30 40090 N 3711.51 -0.143508 1.56945 0
M  V30 40091 C 3712.76 -0.853979 1.8273 0
M  V30 40092 C 3713.07 -1.82178 0.71208 0
M  V30 40093 O 3714.28 -2.57665 0.855625 0
M  V30 40094 C 3712.73 -1.56928 3.23885 0
M  V30 40095 C 3712.34 -0.643711 4.43351 0
M  V30 40096 C 3714.09 -2.26633 3.5894 0
M  V30 40097 C 3711.99 -1.36084 5.7553 0
M  V30 40098 H 3710.92 -0.322648 0.68148 0
M  V30 40099 H 3713.57 -0.106708 1.83189 0
M  V30 40100 H 3711.96 -2.3623 3.17823 0
M  V30 40101 H 3713.13 0.114338 4.60658 0
M  V30 40102 H 3711.44 -0.054899 4.16364 0
M  V30 40103 H 3714.04 -2.80931 4.54953 0
M  V30 40104 H 3714.38 -3.0329 2.85168 0
M  V30 40105 H 3714.92 -1.54245 3.66679 0
M  V30 40106 H 3711.66 -0.636043 6.52407 0
M  V30 40107 H 3711.18 -2.09151 5.62153 0
M  V30 40108 H 3712.86 -1.90079 6.18449 0
M  V30 40109 N 3712.99 -1.52093 -0.412964 0
M  V30 40110 C 3714.23 -1.65964 -1.16027 0
M  V30 40111 C 3714.56 -0.387685 -1.90597 0
M  V30 40112 O 3713.82 0.62921 -1.85309 0
M  V30 40113 C 3714.12 -2.82971 -2.18316 0
M  V30 40114 C 3713.78 -4.21337 -1.60581 0
M  V30 40115 C 3712.44 -4.58973 -1.4456 0
M  V30 40116 C 3714.8 -5.07578 -1.18379 0
M  V30 40117 C 3712.12 -5.80532 -0.848482 0
M  V30 40118 C 3714.48 -6.2974 -0.600874 0
M  V30 40119 C 3713.14 -6.66128 -0.427763 0
M  V30 40120 H 3712.41 -0.607305 -0.424573 0
M  V30 40121 H 3715.06 -1.86186 -0.447995 0
M  V30 40122 H 3713.36 -2.57068 -2.95674 0
M  V30 40123 H 3715.06 -2.909 -2.76004 0
M  V30 40124 H 3711.65 -3.91676 -1.74033 0
M  V30 40125 H 3715.83 -4.79089 -1.29568 0
M  V30 40126 H 3711.09 -6.07353 -0.70234 0
M  V30 40127 H 3715.26 -6.95894 -0.265461 0
M  V30 40128 H 3712.89 -7.60191 0.037035 0
M  V30 40129 N 3714.47 0.669957 -1.42651 0
M  V30 40130 C 3715.71 1.42717 -1.43096 0
M  V30 40131 C 3716.03 1.94935 -0.0501571 0
M  V30 40132 O 3715.3 1.73374 0.912046 0
M  V30 40133 H 3713.88 0.529619 -0.526795 0
M  V30 40134 H 3716.55 0.791292 -1.78114 0
M  V30 40135 H 3715.64 2.2778 -2.13361 0
M  V30 40136 N 3715.94 1.28904 0.90673 0
M  V30 40137 C 3717.19 1.16639 1.65901 0
M  V30 40138 C 3717.52 -0.282947 1.92128 0
M  V30 40139 O 3716.8 -1.2051 1.52668 0
M  V30 40140 C 3717.08 1.97277 3.01253 0
M  V30 40141 C 3716.93 3.50313 2.82136 0
M  V30 40142 C 3718.25 1.79367 4.0189 0
M  V30 40143 H 3715.37 0.425086 0.602055 0
M  V30 40144 H 3718.01 1.58299 1.05079 0
M  V30 40145 H 3716.16 1.61877 3.53169 0
M  V30 40146 H 3717.84 3.95657 2.37177 0
M  V30 40147 H 3716.08 3.75591 2.17057 0
M  V30 40148 H 3716.75 4.02 3.78286 0
M  V30 40149 H 3719.23 2.10274 3.5906 0
M  V30 40150 H 3718.1 2.3815 4.94546 0
M  V30 40151 H 3718.36 0.747 4.35743 0
M  V30 40152 N 3717.42 -1.11614 1.11266 0
M  V30 40153 C 3718.67 -1.82674 0.855171 0
M  V30 40154 C 3718.98 -1.85475 -0.621162 0
M  V30 40155 O 3720.19 -2.52617 -0.994842 0
M  V30 40156 C 3718.65 -3.28055 1.48013 0
M  V30 40157 C 3718.25 -3.33588 2.99037 0
M  V30 40158 C 3720 -4.04027 1.3024 0
M  V30 40159 C 3717.9 -4.73356 3.54526 0
M  V30 40160 H 3716.83 -0.684466 0.316264 0
M  V30 40161 H 3719.49 -1.25611 1.33769 0
M  V30 40162 H 3717.87 -3.85038 0.925282 0
M  V30 40163 H 3719.04 -2.86497 3.6091 0
M  V30 40164 H 3717.36 -2.71095 3.16064 0
M  V30 40165 H 3719.95 -5.07246 1.69131 0
M  V30 40166 H 3720.3 -4.1558 0.244797 0
M  V30 40167 H 3720.83 -3.53426 1.82579 0
M  V30 40168 H 3717.57 -4.67 4.59991 0
M  V30 40169 H 3717.09 -5.20864 2.97423 0
M  V30 40170 H 3718.77 -5.4231 3.52858 0
M  V30 40171 N 3718.9 -0.902701 -1.29186 0
M  V30 40172 C 3720.15 -0.526117 -1.94717 0
M  V30 40173 C 3720.46 0.932786 -1.71926 0
M  V30 40174 O 3721.67 1.41703 -2.31587 0
M  V30 40175 C 3720.12 -0.890035 -3.48721 0
M  V30 40176 C 3719.73 -2.36791 -3.80308 0
M  V30 40177 C 3721.48 -0.583504 -4.20471 0
M  V30 40178 C 3719.38 -2.67253 -5.2757 0
M  V30 40179 H 3718.31 -0.193032 -0.728872 0
M  V30 40180 H 3720.96 -1.10011 -1.46867 0
M  V30 40181 H 3719.35 -0.244941 -3.95242 0
M  V30 40182 H 3720.52 -3.05881 -3.44635 0
M  V30 40183 H 3718.83 -2.64377 -3.21704 0
M  V30 40184 H 3721.43 -0.787906 -5.28863 0
M  V30 40185 H 3721.77 0.478131 -4.13545 0
M  V30 40186 H 3722.31 -1.18657 -3.79691 0
M  V30 40187 H 3719.05 -3.72227 -5.39562 0
M  V30 40188 H 3718.57 -2.0279 -5.64479 0
M  V30 40189 H 3720.25 -2.53677 -5.95195 0
M  V30 40190 N 3720.38 1.4286 -0.6655 0
M  V30 40191 C 3721.65 1.95272 -0.113286 0
M  V30 40192 C 3722.03 1.60632 1.36969 0
M  V30 40193 O 3721.38 0.897699 2.10128 0
M  V30 40194 C 3721.59 3.47006 -0.372543 0
M  V30 40195 C 3722.94 4.23649 -0.284056 0
M  V30 40196 O 3723.96 3.54885 -0.305776 0
M  V30 40197 O 3722.82 5.46064 -0.218267 0
M  V30 40198 H 3719.92 0.826996 0.00252258 0
M  V30 40199 H 3722.46 1.52736 -0.739587 0
M  V30 40200 H 3721.24 3.6539 -1.40021 0
M  V30 40201 H 3720.86 3.96568 0.286224 0
M  V30 40202 N 3721.86 0.408213 1.52221 0
M  V30 40203 C 3723.08 -0.167393 2.06222 0
M  V30 40204 C 3723.5 -1.38938 1.27835 0
M  V30 40205 O 3722.86 -1.79492 0.329965 0
M  V30 40206 C 3722.91 -0.518741 3.57759 0
M  V30 40207 O 3722.63 0.654715 4.3318 0
M  V30 40208 C 3724.13 -1.14818 4.28173 0
M  V30 40209 H 3721.35 -0.0207936 0.670678 0
M  V30 40210 H 3723.89 0.578903 1.96135 0
M  V30 40211 H 3722.05 -1.21493 3.67856 0
M  V30 40212 H 3722.46 0.36165 5.23252 0
M  V30 40213 H 3723.94 -1.34423 5.35382 0
M  V30 40214 H 3724.41 -2.12101 3.8459 0
M  V30 40215 H 3725.02 -0.492217 4.22442 0
M  V30 40216 N 3723.33 -1.56989 0.138607 0
M  V30 40217 C 3724.58 -1.95852 -0.514593 0
M  V30 40218 C 3724.91 -1.02302 -1.65423 0
M  V30 40219 O 3724.16 -0.0505998 -1.95635 0
M  V30 40220 C 3724.46 -3.41019 -1.06963 0
M  V30 40221 C 3724.13 -4.50873 -0.0493168 0
M  V30 40222 C 3722.79 -4.80644 0.231187 0
M  V30 40223 C 3725.14 -5.17194 0.644956 0
M  V30 40224 C 3722.47 -5.74047 1.21191 0
M  V30 40225 C 3724.82 -6.11652 1.61444 0
M  V30 40226 C 3723.49 -6.39806 1.90273 0
M  V30 40227 H 3722.76 -0.716675 -0.188303 0
M  V30 40228 H 3725.4 -1.90189 0.223663 0
M  V30 40229 H 3723.71 -3.43472 -1.88505 0
M  V30 40230 H 3725.41 -3.68412 -1.58347 0
M  V30 40231 H 3722 -4.27697 -0.278127 0
M  V30 40232 H 3726.18 -4.94333 0.441432 0
M  V30 40233 H 3721.44 -5.94157 1.4418 0
M  V30 40234 H 3725.61 -6.62121 2.15797 0
M  V30 40235 H 3723.24 -7.11986 2.6642 0
M  V30 40236 N 3724.81 0.135183 -1.57019 0
M  V30 40237 C 3725.77 1.15053 -1.98231 0
M  V30 40238 C 3726.77 1.35211 -0.870319 0
M  V30 40239 O 3727.96 1.32003 -1.1367 0
M  V30 40240 C 3725.1 2.50842 -2.30849 0
M  V30 40241 H 3726.29 0.796694 -2.89124 0
M  V30 40242 H 3723.84 0.378936 -1.51637 0
M  V30 40243 H 3724.58 2.91176 -1.42784 0
M  V30 40244 H 3724.36 2.37569 -3.11935 0
M  V30 40245 H 3725.85 3.23948 -2.63529 0
M  V30 40246 N 3726.29 1.5231 0.404892 0
M  V30 40247 C 3727.57 1.57144 1.1647 0
M  V30 40248 C 3727.95 0.355004 2.08094 0
M  V30 40249 O 3727.3 -0.657841 2.18826 0
M  V30 40250 C 3727.51 2.90226 1.93829 0
M  V30 40251 C 3728.85 3.43382 2.49748 0
M  V30 40252 O 3729.88 2.91994 2.04004 0
M  V30 40253 O 3728.74 4.33126 3.33263 0
M  V30 40254 H 3725.83 0.63315 0.532024 0
M  V30 40255 H 3728.38 1.6464 0.41133 0
M  V30 40256 H 3727.15 3.70209 1.26733 0
M  V30 40257 H 3726.77 2.86043 2.76162 0
M  V30 40258 N 3727.77 -0.662382 1.43004 0
M  V30 40259 C 3728.7 -1.78737 1.50251 0
M  V30 40260 C 3729.68 -1.66291 0.357963 0
M  V30 40261 O 3730.86 -1.85525 0.573952 0
M  V30 40262 C 3727.99 -3.17112 1.41624 0
M  V30 40263 C 3726.95 -3.4431 2.54234 0
M  V30 40264 C 3726.27 -4.82389 2.30662 0
M  V30 40265 C 3727.57 -3.39965 3.96511 0
M  V30 40266 H 3729.27 -1.72929 2.44409 0
M  V30 40267 H 3726.81 -0.830548 1.17635 0
M  V30 40268 H 3728.77 -3.95558 1.45299 0
M  V30 40269 H 3727.49 -3.23627 0.439662 0
M  V30 40270 H 3726.15 -2.6823 2.49896 0
M  V30 40271 H 3725.8 -4.85569 1.31268 0
M  V30 40272 H 3725.5 -5.01548 3.06142 0
M  V30 40273 H 3727.02 -5.63104 2.36106 0
M  V30 40274 H 3728.44 -4.08361 4.02385 0
M  V30 40275 H 3726.83 -3.7066 4.71944 0
M  V30 40276 H 3727.9 -2.3831 4.22299 0
M  V30 40277 N 3729.25 -1.29383 -0.899882 0
M  V30 40278 C 3730.66 -1.0739 -1.18066 0
M  V30 40279 C 3730.86 0.174915 -2.00739 0
M  V30 40280 O 3729.92 0.87273 -2.36938 0
M  V30 40281 C 3731.23 -2.32923 -1.90178 0
M  V30 40282 C 3732.78 -2.3824 -2.03004 0
M  V30 40283 C 3733.25 -3.63575 -2.78527 0
M  V30 40284 N 3734.75 -3.64296 -2.86081 0
M  V30 40285 C 3735.48 -4.57958 -3.45053 0
M  V30 40286 N 3734.98 -5.61952 -4.05194 0
M  V30 40287 N 3736.77 -4.45528 -3.42726 0
M  V30 40288 H 3728.92 -2.09525 -0.348269 0
M  V30 40289 H 3731.18 -0.922882 -0.21678 0
M  V30 40290 H 3730.89 -3.23977 -1.36865 0
M  V30 40291 H 3730.76 -2.40417 -2.90654 0
M  V30 40292 H 3733.15 -1.47674 -2.55492 0
M  V30 40293 H 3733.23 -2.34731 -1.01662 0
M  V30 40294 H 3732.88 -4.54492 -2.26715 0
M  V30 40295 H 3732.81 -3.64342 -3.80214 0
M  V30 40296 H 3735.3 -2.89104 -2.43367 0
M  V30 40297 H 3735.61 -6.29543 -4.48214 0
M  V30 40298 H 3733.95 -5.65762 -4.03657 0
M  V30 40299 H 3737.15 -3.63477 -2.94961 0
M  V30 40300 H 3737.32 -5.18707 -3.88391 0
M  V30 40301 N 3730.72 1.11022 -1.11856 0
M  V30 40302 C 3731.95 1.87189 -0.893032 0
M  V30 40303 C 3732.37 1.79817 0.552026 0
M  V30 40304 O 3731.73 1.16371 1.39023 0
M  V30 40305 C 3731.78 3.33777 -1.36475 0
M  V30 40306 O 3730.88 4.08859 -0.539274 0
M  V30 40307 H 3730.23 0.581071 -0.32133 0
M  V30 40308 H 3732.76 1.40308 -1.48912 0
M  V30 40309 H 3732.77 3.84625 -1.36117 0
M  V30 40310 H 3731.44 3.38458 -2.417 0
M  V30 40311 H 3730.02 3.67888 -0.609335 0
M  V30 40312 N 3732.2 0.90954 1.28706 0
M  V30 40313 C 3733.11 0.399668 2.31171 0
M  V30 40314 C 3734.13 -0.510552 1.66341 0
M  V30 40315 O 3735.3 -0.397758 1.97433 0
M  V30 40316 C 3732.37 -0.355792 3.4487 0
M  V30 40317 C 3731.43 0.587139 4.25266 0
M  V30 40318 C 3730.66 -0.132362 5.33536 0
M  V30 40319 O 3730.89 -1.35477 5.54078 0
M  V30 40320 O 3729.82 0.530168 5.99561 0
M  V30 40321 H 3733.65 1.25 2.76783 0
M  V30 40322 H 3731.23 0.674209 1.33322 0
M  V30 40323 H 3733.11 -0.782619 4.14069 0
M  V30 40324 H 3731.79 -1.18202 3.01347 0
M  V30 40325 H 3730.7 1.06328 3.58671 0
M  V30 40326 H 3732.03 1.38006 4.72456 0
M  V30 40327 N 3733.68 -1.42505 0.673067 0
M  V30 40328 C 3734.63 -2.30799 -0.0063401 0
M  V30 40329 C 3735.6 -1.45866 -0.794499 0
M  V30 40330 O 3736.78 -1.747 -0.767098 0
M  V30 40331 C 3733.92 -3.31684 -0.952864 0
M  V30 40332 C 3733.04 -4.31708 -0.158711 0
M  V30 40333 C 3732.17 -5.19668 -1.10083 0
M  V30 40334 C 3731.21 -6.11373 -0.298262 0
M  V30 40335 N 3730.35 -6.9189 -1.193 0
M  V30 40336 H 3735.19 -2.88345 0.752421 0
M  V30 40337 H 3732.72 -1.42032 0.382788 0
M  V30 40338 H 3734.68 -3.88703 -1.51545 0
M  V30 40339 H 3733.31 -2.75742 -1.67827 0
M  V30 40340 H 3732.36 -3.76823 0.520473 0
M  V30 40341 H 3733.68 -4.96633 0.464472 0
M  V30 40342 H 3732.83 -5.8141 -1.7334 0
M  V30 40343 H 3731.57 -4.54917 -1.7579 0
M  V30 40344 H 3730.57 -5.48701 0.347533 0
M  V30 40345 H 3731.8 -6.78173 0.354689 0
M  V30 40346 H 3729.74 -6.29769 -1.8365 0
M  V30 40347 H 3729.66 -7.53413 -0.624854 0
M  V30 40348 H 3730.93 -7.58121 -1.81309 0
M  V30 40349 N 3735.16 -0.41628 -1.52003 0
M  V30 40350 C 3736.09 0.441168 -2.24914 0
M  V30 40351 C 3737.1 1.00418 -1.28141 0
M  V30 40352 O 3738.29 0.901901 -1.54039 0
M  V30 40353 C 3735.39 1.62683 -2.973 0
M  V30 40354 C 3734.57 1.18644 -4.21001 0
M  V30 40355 C 3733.62 2.23982 -4.7615 0
M  V30 40356 O 3732.65 1.84279 -5.38544 0
M  V30 40357 N 3733.85 3.56231 -4.58345 0
M  V30 40358 H 3736.62 -0.183629 -2.99137 0
M  V30 40359 H 3734.18 -0.244036 -1.6005 0
M  V30 40360 H 3736.17 2.32731 -3.31087 0
M  V30 40361 H 3734.74 2.1574 -2.26219 0
M  V30 40362 H 3733.96 0.313808 -3.92949 0
M  V30 40363 H 3735.25 0.869277 -5.01319 0
M  V30 40364 H 3734.65 3.91234 -4.08599 0
M  V30 40365 H 3733.2 4.22235 -4.96549 0
M  V30 40366 N 3736.64 1.56914 -0.146931 0
M  V30 40367 C 3737.58 2.16757 0.792783 0
M  V30 40368 C 3738.55 1.10043 1.24418 0
M  V30 40369 O 3739.74 1.38084 1.31672 0
M  V30 40370 C 3736.88 2.7933 2.02654 0
M  V30 40371 C 3735.99 4.00436 1.62095 0
M  V30 40372 C 3735.13 4.51009 2.8065 0
M  V30 40373 C 3734.17 5.6458 2.36464 0
M  V30 40374 N 3733.3 6.09772 3.48027 0
M  V30 40375 H 3738.14 2.96722 0.275656 0
M  V30 40376 H 3735.68 1.46573 0.124349 0
M  V30 40377 H 3737.64 3.13754 2.74981 0
M  V30 40378 H 3736.27 2.0201 2.51778 0
M  V30 40379 H 3735.32 3.71993 0.795341 0
M  V30 40380 H 3736.63 4.82716 1.25644 0
M  V30 40381 H 3735.79 4.87487 3.61166 0
M  V30 40382 H 3734.52 3.67736 3.20346 0
M  V30 40383 H 3733.53 5.27678 1.54387 0
M  V30 40384 H 3734.75 6.49639 1.97854 0
M  V30 40385 H 3732.7 5.29434 3.87345 0
M  V30 40386 H 3732.62 6.86978 3.1559 0
M  V30 40387 H 3733.89 6.50895 4.28901 0
M  V30 40388 N 3738.11 -0.126854 1.57089 0
M  V30 40389 C 3739.06 -1.15596 1.99766 0
M  V30 40390 C 3740.03 -1.41585 0.868493 0
M  V30 40391 O 3741.22 -1.53583 1.13212 0
M  V30 40392 C 3738.36 -2.47939 2.40043 0
M  V30 40393 C 3737.47 -2.28952 3.6634 0
M  V30 40394 C 3736.6 -3.5447 3.95632 0
M  V30 40395 C 3735.64 -3.30607 5.15137 0
M  V30 40396 N 3734.78 -4.48307 5.40338 0
M  V30 40397 H 3739.62 -0.785027 2.87474 0
M  V30 40398 H 3737.16 -0.376144 1.4221 0
M  V30 40399 H 3739.12 -3.25132 2.61429 0
M  V30 40400 H 3737.75 -2.8294 1.55387 0
M  V30 40401 H 3736.8 -1.42714 3.52614 0
M  V30 40402 H 3738.11 -2.0729 4.53687 0
M  V30 40403 H 3737.26 -4.40085 4.17625 0
M  V30 40404 H 3736 -3.79155 3.06745 0
M  V30 40405 H 3735.01 -2.43382 4.92996 0
M  V30 40406 H 3736.23 -3.073 6.05594 0
M  V30 40407 H 3734.18 -4.73128 4.54408 0
M  V30 40408 H 3734.1 -4.29722 6.21993 0
M  V30 40409 H 3735.36 -5.35078 5.66844 0
M  V30 40410 N 3739.59 -1.52523 -0.396809 0
M  V30 40411 C 3740.5 -1.79655 -1.50868 0
M  V30 40412 C 3741.52 -0.682832 -1.60042 0
M  V30 40413 O 3742.69 -0.969581 -1.76525 0
M  V30 40414 C 3739.76 -1.95268 -2.86481 0
M  V30 40415 C 3738.82 -3.1918 -2.87093 0
M  V30 40416 C 3738.05 -3.34039 -4.16238 0
M  V30 40417 O 3738.28 -2.53879 -5.10785 0
M  V30 40418 O 3737.21 -4.27254 -4.23955 0
M  V30 40419 H 3741.04 -2.74055 -1.30873 0
M  V30 40420 H 3738.62 -1.37518 -0.583884 0
M  V30 40421 H 3740.5 -2.07288 -3.66892 0
M  V30 40422 H 3739.18 -1.04058 -3.06519 0
M  V30 40423 H 3738.09 -3.12608 -2.05492 0
M  V30 40424 H 3739.42 -4.10211 -2.72007 0
M  V30 40425 N 3741.07 0.654789 -1.43354 0
M  V30 40426 C 3741.98 1.79684 -1.50834 0
M  V30 40427 C 3743 1.69444 -0.395547 0
M  V30 40428 O 3744.17 1.90642 -0.649442 0
M  V30 40429 C 3741.24 3.15953 -1.4274 0
M  V30 40430 C 3740.3 3.38001 -2.64677 0
M  V30 40431 C 3739.53 4.67768 -2.5696 0
M  V30 40432 O 3739.76 5.47016 -1.61648 0
M  V30 40433 O 3738.69 4.91501 -3.47434 0
M  V30 40434 H 3742.52 1.76328 -2.47269 0
M  V30 40435 H 3740.1 0.813073 -1.25338 0
M  V30 40436 H 3741.98 3.9723 -1.40663 0
M  V30 40437 H 3740.66 3.19902 -0.49439 0
M  V30 40438 H 3739.56 2.56493 -2.72327 0
M  V30 40439 H 3740.9 3.38896 -3.56946 0
M  V30 40440 N 3742.55 1.29858 0.893007 0
M  V30 40441 C 3743.8 1.17586 1.63879 0
M  V30 40442 C 3744.11 -0.270259 1.93724 0
M  V30 40443 O 3745.32 -0.514385 2.66583 0
M  V30 40444 C 3743.77 2.05699 2.95323 0
M  V30 40445 C 3743.38 3.55174 2.73049 0
M  V30 40446 C 3745.13 2.02169 3.73267 0
M  V30 40447 C 3743.03 4.35368 4.0026 0
M  V30 40448 H 3741.96 0.436496 0.614807 0
M  V30 40449 H 3744.61 1.54547 0.989312 0
M  V30 40450 H 3743 1.61613 3.61521 0
M  V30 40451 H 3744.17 4.07355 2.15403 0
M  V30 40452 H 3742.48 3.60444 2.08492 0
M  V30 40453 H 3745.08 2.59341 4.67596 0
M  V30 40454 H 3745.42 1.00325 4.0403 0
M  V30 40455 H 3745.96 2.44334 3.1392 0
M  V30 40456 H 3742.7 5.37876 3.74659 0
M  V30 40457 H 3742.22 3.87953 4.57441 0
M  V30 40458 H 3743.9 4.46382 4.6835 0
M  V30 40459 N 3744.03 -1.10427 1.12443 0
M  V30 40460 C 3744.96 -2.18823 0.814783 0
M  V30 40461 C 3745.94 -1.68652 -0.221446 0
M  V30 40462 O 3747.12 -1.94024 -0.0826196 0
M  V30 40463 C 3744.25 -3.46259 0.268693 0
M  V30 40464 C 3743.21 -4.09704 1.23799 0
M  V30 40465 C 3742.53 -5.31842 0.552127 0
M  V30 40466 C 3743.83 -4.53406 2.59268 0
M  V30 40467 H 3745.53 -2.44983 1.72116 0
M  V30 40468 H 3743.07 -1.17745 0.828989 0
M  V30 40469 H 3745.03 -4.21381 0.0397947 0
M  V30 40470 H 3743.75 -3.1959 -0.673023 0
M  V30 40471 H 3742.41 -3.36589 1.4527 0
M  V30 40472 H 3742.06 -5.01449 -0.394732 0
M  V30 40473 H 3741.76 -5.75243 1.19871 0
M  V30 40474 H 3743.28 -6.09695 0.332268 0
M  V30 40475 H 3744.7 -5.19801 2.41825 0
M  V30 40476 H 3743.09 -5.07657 3.20006 0
M  V30 40477 H 3744.16 -3.66322 3.17705 0
M  V30 40478 N 3745.51 -0.916353 -1.28221 0
M  V30 40479 C 3746.45 -0.40525 -2.27214 0
M  V30 40480 C 3747.42 0.521707 -1.57694 0
M  V30 40481 O 3748.61 0.443337 -1.85578 0
M  V30 40482 C 3745.75 0.346242 -3.43359 0
M  V30 40483 C 3744.86 -0.613518 -4.27621 0
M  V30 40484 C 3744 0.156682 -5.30969 0
M  V30 40485 C 3743.03 -0.796525 -6.06895 0
M  V30 40486 N 3742.17 -0.0596773 -7.02075 0
M  V30 40487 H 3747.01 -1.25445 -2.7031 0
M  V30 40488 H 3744.55 -0.629882 -1.32932 0
M  V30 40489 H 3746.51 0.798159 -4.09494 0
M  V30 40490 H 3745.14 1.15977 -3.01246 0
M  V30 40491 H 3744.19 -1.18397 -3.61506 0
M  V30 40492 H 3745.5 -1.34247 -4.80395 0
M  V30 40493 H 3744.65 0.66904 -6.03 0
M  V30 40494 H 3743.39 0.91867 -4.78969 0
M  V30 40495 H 3742.4 -1.32024 -5.33713 0
M  V30 40496 H 3743.62 -1.55811 -6.60984 0
M  V30 40497 H 3741.57 0.684273 -6.52421 0
M  V30 40498 H 3741.49 -0.728408 -7.52483 0
M  V30 40499 H 3742.75 0.432401 -7.783 0
M  V30 40500 N 3746.98 1.42146 -0.680615 0
M  V30 40501 C 3748.21 2.05792 -0.213875 0
M  V30 40502 C 3748.63 1.5116 1.1312 0
M  V30 40503 O 3747.98 0.653738 1.70389 0
M  V30 40504 C 3748.03 3.61203 -0.146571 0
M  V30 40505 O 3747.76 4.1381 -1.4385 0
M  V30 40506 C 3749.26 4.41971 0.342965 0
M  V30 40507 H 3746.48 0.663105 -0.102632 0
M  V30 40508 H 3749.02 1.82181 -0.928989 0
M  V30 40509 H 3747.18 3.83904 0.519267 0
M  V30 40510 H 3747.59 5.0773 -1.3157 0
M  V30 40511 H 3749.06 5.50958 0.338956 0
M  V30 40512 H 3749.54 4.16981 1.37926 0
M  V30 40513 H 3750.15 4.24301 -0.291341 0
M  V30 40514 N 3748.46 0.424336 1.5178 0
M  V30 40515 C 3749.69 -0.145511 2.06388 0
M  V30 40516 C 3750.1 -1.37574 1.29301 0
M  V30 40517 O 3749.46 -1.79132 0.348984 0
M  V30 40518 C 3749.51 -0.480767 3.58289 0
M  V30 40519 O 3749.23 0.700622 4.32461 0
M  V30 40520 C 3750.73 -1.1027 4.29366 0
M  V30 40521 H 3747.95 -0.013679 0.670861 0
M  V30 40522 H 3750.5 0.599673 1.9551 0
M  V30 40523 H 3748.65 -1.17585 3.69124 0
M  V30 40524 H 3749.07 0.417127 5.22839 0
M  V30 40525 H 3750.54 -1.28737 5.36778 0
M  V30 40526 H 3751.02 -2.0801 3.86818 0
M  V30 40527 H 3751.62 -0.447383 4.2294 0
M  V30 40528 N 3749.94 -1.56833 0.15525 0
M  V30 40529 C 3751.18 -1.9828 -0.496442 0
M  V30 40530 C 3751.54 -1.03846 -1.61493 0
M  V30 40531 O 3752.74 -1.34369 -2.32806 0
M  V30 40532 C 3751.02 -3.43646 -0.981961 0
M  V30 40533 S 3752.57 -4.07118 -1.63709 0
M  V30 40534 H 3749.39 -0.692707 -0.160244 0
M  V30 40535 H 3751.99 -1.93909 0.248915 0
M  V30 40536 H 3750.7 -4.10099 -0.157272 0
M  V30 40537 H 3750.23 -3.51747 -1.76174 0
M  V30 40538 H 3752.24 -4.00846 -2.92466 0
M  V30 40539 N 3751.42 0.118521 -1.57154 0
M  V30 40540 C 3752.66 0.826223 -1.84878 0
M  V30 40541 C 3752.99 1.79856 -0.740405 0
M  V30 40542 O 3752.25 1.93854 0.268199 0
M  V30 40543 C 3752.55 1.60993 -3.19086 0
M  V30 40544 C 3752.21 0.781833 -4.4407 0
M  V30 40545 C 3750.87 0.553474 -4.78006 0
M  V30 40546 C 3753.23 0.204647 -5.20798 0
M  V30 40547 C 3750.55 -0.262315 -5.86113 0
M  V30 40548 C 3752.91 -0.598336 -6.29764 0
M  V30 40549 C 3751.57 -0.837007 -6.62231 0
M  V30 40550 H 3750.84 0.302336 -0.676516 0
M  V30 40551 H 3753.49 0.0885846 -1.91295 0
M  V30 40552 H 3751.79 2.41848 -3.08248 0
M  V30 40553 H 3753.49 2.16148 -3.37759 0
M  V30 40554 H 3750.08 0.969911 -4.17481 0
M  V30 40555 H 3754.26 0.368287 -4.94932 0
M  V30 40556 H 3749.52 -0.456445 -6.09694 0
M  V30 40557 H 3753.69 -1.05257 -6.884 0
M  V30 40558 H 3751.32 -1.47096 -7.45833 0
M  V30 40559 N 3752.9 1.52731 0.388715 0
M  V30 40560 C 3754.14 1.67013 1.13091 0
M  V30 40561 C 3754.46 0.416501 1.91114 0
M  V30 40562 O 3755.66 0.439457 2.6792 0
M  V30 40563 C 3754.12 2.95152 2.05944 0
M  V30 40564 C 3753.73 4.27696 1.33342 0
M  V30 40565 C 3755.47 3.188 2.80297 0
M  V30 40566 C 3753.38 5.46942 2.24963 0
M  V30 40567 H 3752.31 0.62221 0.425876 0
M  V30 40568 H 3754.96 1.79227 0.393677 0
M  V30 40569 H 3753.34 2.76685 2.83304 0
M  V30 40570 H 3754.52 4.56717 0.612056 0
M  V30 40571 H 3752.83 4.10311 0.709475 0
M  V30 40572 H 3755.43 4.05071 3.49029 0
M  V30 40573 H 3755.77 2.33883 3.4439 0
M  V30 40574 H 3756.3 3.37835 2.1003 0
M  V30 40575 H 3753.04 6.34267 1.65485 0
M  V30 40576 H 3752.56 5.22232 2.95014 0
M  V30 40577 H 3754.24 5.80828 2.8504 0
M  V30 40578 N 3754.37 -0.647178 1.43699 0
M  V30 40579 C 3755.61 -1.41873 1.47144 0
M  V30 40580 C 3755.98 -1.91764 0.0952586 0
M  V30 40581 O 3757.18 -2.688 0.00439277 0
M  V30 40582 C 3755.45 -2.56423 2.48961 0
M  V30 40583 S 3757.01 -3.44856 2.71329 0
M  V30 40584 H 3753.83 -0.484209 0.520637 0
M  V30 40585 H 3756.43 -0.750788 1.80509 0
M  V30 40586 H 3755.13 -2.18055 3.47678 0
M  V30 40587 H 3754.66 -3.28062 2.17115 0
M  V30 40588 H 3756.68 -4.53351 2.01712 0
M  V30 40589 N 3755.85 -1.3033 -0.886108 0
M  V30 40590 C 3757.1 -1.18852 -1.63458 0
M  V30 40591 C 3757.42 0.257251 -1.93296 0
M  V30 40592 O 3756.69 1.17353 -1.5686 0
M  V30 40593 H 3755.27 -0.43688 -0.605925 0
M  V30 40594 H 3757.93 -1.63441 -1.06174 0
M  V30 40595 H 3757.03 -1.74855 -2.58519 0
M  V30 40596 N 3757.33 1.0983 -1.13028 0
M  V30 40597 C 3758.26 2.18388 -0.826377 0
M  V30 40598 C 3759.24 1.68767 0.212499 0
M  V30 40599 O 3760.43 1.94065 0.0723288 0
M  V30 40600 C 3757.56 3.46112 -0.287052 0
M  V30 40601 C 3756.51 4.09042 -1.2597 0
M  V30 40602 C 3755.84 5.31541 -0.580324 0
M  V30 40603 C 3757.14 4.52025 -2.61669 0
M  V30 40604 H 3758.83 2.44067 -1.73412 0
M  V30 40605 H 3756.38 1.17303 -0.835221 0
M  V30 40606 H 3758.33 4.21354 -0.0621411 0
M  V30 40607 H 3757.05 3.19943 0.656064 0
M  V30 40608 H 3755.71 3.35814 -1.47053 0
M  V30 40609 H 3755.36 5.01651 0.368134 0
M  V30 40610 H 3755.06 5.74599 -1.2292 0
M  V30 40611 H 3756.58 6.0951 -0.364597 0
M  V30 40612 H 3758 5.18512 -2.44578 0
M  V30 40613 H 3756.4 5.05953 -3.22694 0
M  V30 40614 H 3757.47 3.64632 -3.19643 0
M  V30 40615 N 3758.81 0.92314 1.27734 0
M  V30 40616 C 3759.72 0.424165 2.30734 0
M  V30 40617 C 3760.73 -0.492881 1.66873 0
M  V30 40618 O 3761.91 -0.376795 1.97844 0
M  V30 40619 C 3758.98 -0.319194 3.45228 0
M  V30 40620 C 3758.04 0.632211 4.24619 0
M  V30 40621 C 3757.27 -0.0757658 5.33646 0
M  V30 40622 O 3757.49 -1.29592 5.55484 0
M  V30 40623 O 3756.43 0.593729 5.98964 0
M  V30 40624 H 3760.25 1.27928 2.75442 0
M  V30 40625 H 3757.84 0.688312 1.326 0
M  V30 40626 H 3759.72 -0.738657 4.14876 0
M  V30 40627 H 3758.39 -1.14999 3.02584 0
M  V30 40628 H 3757.3 1.10126 3.57523 0
M  V30 40629 H 3758.63 1.43009 4.70966 0
M  V30 40630 N 3760.29 -1.41783 0.688143 0
M  V30 40631 C 3761.7 -1.55511 0.35897 0
M  V30 40632 C 3761.9 -1.66516 -1.13466 0
M  V30 40633 O 3760.96 -1.63947 -1.92036 0
M  V30 40634 C 3762.27 -2.79819 1.10099 0
M  V30 40635 C 3763.82 -2.93607 1.08461 0
M  V30 40636 C 3764.29 -4.20794 1.80822 0
M  V30 40637 N 3765.79 -4.27735 1.77755 0
M  V30 40638 C 3766.52 -5.24991 2.30591 0
M  V30 40639 N 3766.02 -6.28321 2.91865 0
M  V30 40640 N 3767.81 -5.1688 2.20889 0
M  V30 40641 H 3759.96 -1.32883 1.65698 0
M  V30 40642 H 3762.22 -0.64058 0.698829 0
M  V30 40643 H 3761.93 -2.77871 2.15594 0
M  V30 40644 H 3761.8 -3.71115 0.674778 0
M  V30 40645 H 3764.19 -2.95076 0.0379474 0
M  V30 40646 H 3764.27 -2.03505 1.54982 0
M  V30 40647 H 3763.92 -4.20087 2.85464 0
M  V30 40648 H 3763.85 -5.09855 1.31741 0
M  V30 40649 H 3766.34 -3.53694 1.33075 0
M  V30 40650 H 3766.65 -6.98909 3.29767 0
M  V30 40651 H 3764.99 -6.28844 2.9594 0
M  V30 40652 H 3768.19 -4.35079 1.72697 0
M  V30 40653 H 3768.36 -5.92509 2.62369 0
M  V30 40654 N 3761.76 -0.432379 -1.51553 0
M  V30 40655 C 3763.04 0.195438 -1.94621 0
M  V30 40656 C 3763.42 1.60542 -1.37075 0
M  V30 40657 O 3762.77 2.21637 -0.55582 0
M  V30 40658 C 3762.98 0.178206 -3.48545 0
M  V30 40659 C 3764.33 0.386209 -4.2284 0
M  V30 40660 O 3765.35 0.256541 -3.55275 0
M  V30 40661 O 3764.21 0.643831 -5.42694 0
M  V30 40662 H 3761.3 0.132641 -0.816294 0
M  V30 40663 H 3763.85 -0.49 -1.62472 0
M  V30 40664 H 3762.62 -0.807726 -3.82873 0
M  V30 40665 H 3762.25 0.906764 -3.87122 0
M  V30 40666 N 3763.24 1.56749 -0.163565 0
M  V30 40667 C 3764.19 2.17586 0.769749 0
M  V30 40668 C 3765.16 1.11356 1.23244 0
M  V30 40669 O 3766.34 1.39472 1.302 0
M  V30 40670 C 3763.48 2.81464 1.9968 0
M  V30 40671 C 3762.6 4.02133 1.57839 0
M  V30 40672 C 3761.73 4.5396 2.7585 0
M  V30 40673 C 3760.77 5.67057 2.30463 0
M  V30 40674 N 3759.91 6.13429 3.4154 0
M  V30 40675 H 3764.75 2.96998 0.244169 0
M  V30 40676 H 3762.29 1.46697 0.108795 0
M  V30 40677 H 3764.24 3.16653 2.71637 0
M  V30 40678 H 3762.87 2.04669 2.49621 0
M  V30 40679 H 3761.93 3.72815 0.755842 0
M  V30 40680 H 3763.24 4.84022 1.20517 0
M  V30 40681 H 3762.39 4.9129 3.55975 0
M  V30 40682 H 3761.13 3.71113 3.16428 0
M  V30 40683 H 3760.14 5.29286 1.48782 0
M  V30 40684 H 3761.36 6.51701 1.90952 0
M  V30 40685 H 3759.31 5.33512 3.81708 0
M  V30 40686 H 3759.22 6.90287 3.08286 0
M  V30 40687 H 3760.49 6.55407 4.21973 0
M  V30 40688 N 3764.72 -0.110185 1.57214 0
M  V30 40689 C 3765.97 -0.816407 1.85313 0
M  V30 40690 C 3766.3 -1.79461 0.749932 0
M  V30 40691 O 3765.55 -1.93993 -0.257914 0
M  V30 40692 C 3765.85 -1.59298 3.19936 0
M  V30 40693 C 3765.52 -0.758272 4.44478 0
M  V30 40694 C 3764.18 -0.528117 4.78293 0
M  V30 40695 C 3766.53 -0.177025 5.20899 0
M  V30 40696 C 3763.86 0.293395 5.85966 0
M  V30 40697 C 3766.21 0.631726 6.29438 0
M  V30 40698 C 3764.87 0.872115 6.61778 0
M  V30 40699 H 3764.14 -0.298744 0.67811 0
M  V30 40700 H 3766.79 -0.0784385 1.91339 0
M  V30 40701 H 3765.1 -2.4021 3.09526 0
M  V30 40702 H 3766.79 -2.14353 3.38901 0
M  V30 40703 H 3763.38 -0.947757 4.1799 0
M  V30 40704 H 3767.57 -0.342034 4.9512 0
M  V30 40705 H 3762.82 0.488772 6.09443 0
M  V30 40706 H 3767 1.08906 6.87832 0
M  V30 40707 H 3764.62 1.5105 7.45042 0
M  V30 40708 N 3766.2 -1.52935 -0.38061 0
M  V30 40709 C 3767.48 -1.58977 -1.13955 0
M  V30 40710 C 3767.86 -0.388065 -2.07502 0
M  V30 40711 O 3767.2 0.622945 -2.19845 0
M  V30 40712 C 3767.41 -2.93273 -1.89187 0
M  V30 40713 C 3768.76 -3.47312 -2.44253 0
M  V30 40714 O 3769.79 -2.95203 -1.99333 0
M  V30 40715 O 3768.64 -4.38373 -3.2633 0
M  V30 40716 H 3765.74 -0.641534 -0.521884 0
M  V30 40717 H 3768.28 -1.65273 -0.385085 0
M  V30 40718 H 3767.06 -3.72178 -1.20828 0
M  V30 40719 H 3766.68 -2.904 -2.71576 0
M  V30 40720 N 3767.68 0.639548 -1.4404 0
M  V30 40721 C 3768.62 1.77311 -1.50544 0
M  V30 40722 C 3769.62 1.65132 -0.377839 0
M  V30 40723 O 3770.82 1.71313 -0.552426 0
M  V30 40724 H 3767.2 0.585237 -0.472231 0
M  V30 40725 H 3769.17 1.68947 -2.45967 0
M  V30 40726 C 3767.92 3.1562 -1.45874 0
M  V30 40727 H 3767.24 3.25635 -2.31952 0
M  V30 40728 H 3768.68 3.94855 -1.54485 0
M  V30 40729 C 3767.14 3.36428 -0.178263 0
M  V30 40730 O 3767.67 3.94542 0.754948 0
M  V30 40731 N 3765.88 2.90478 -0.0840806 0
M  V30 40732 H 3765.42 2.4337 -0.844324 0
M  V30 40733 H 3765.38 3.04776 0.771935 0
M  V30 40734 N 3769.15 1.30798 0.879184 0
M  V30 40735 C 3770.1 1.1767 1.98551 0
M  V30 40736 C 3771.07 0.0647523 1.65974 0
M  V30 40737 O 3772.26 0.235974 1.89335 0
M  V30 40738 C 3769.4 0.880493 3.33678 0
M  V30 40739 C 3768.51 2.07488 3.7891 0
M  V30 40740 C 3767.64 1.71626 5.02711 0
M  V30 40741 C 3766.68 2.87527 5.40366 0
M  V30 40742 N 3765.82 2.51921 6.55347 0
M  V30 40743 H 3770.66 2.12312 2.09111 0
M  V30 40744 H 3768.2 1.05625 1.02381 0
M  V30 40745 H 3770.16 0.68935 4.11465 0
M  V30 40746 H 3768.79 -0.0290716 3.22787 0
M  V30 40747 H 3767.84 2.37709 2.96982 0
M  V30 40748 H 3769.15 2.94266 4.02752 0
M  V30 40749 H 3768.3 1.4892 5.88139 0
M  V30 40750 H 3767.04 0.820265 4.80752 0
M  V30 40751 H 3766.05 3.10891 4.53461 0
M  V30 40752 H 3767.27 3.77821 5.64294 0
M  V30 40753 H 3765.22 1.64834 6.34953 0
M  V30 40754 H 3765.14 3.32229 6.79087 0
M  V30 40755 H 3766.4 2.32586 7.43992 0
M  V30 40756 N 3770.63 -1.09229 1.13608 0
M  V30 40757 C 3771.86 -1.85205 0.922328 0
M  V30 40758 C 3772.28 -1.8124 -0.528922 0
M  V30 40759 O 3771.63 -1.21001 -1.3662 0
M  V30 40760 C 3771.68 -3.33097 1.40458 0
M  V30 40761 O 3771.41 -3.37031 2.79896 0
M  V30 40762 C 3772.91 -4.25907 1.22956 0
M  V30 40763 H 3770.13 -0.584939 0.328767 0
M  V30 40764 H 3772.67 -1.38005 1.50914 0
M  V30 40765 H 3770.83 -3.77717 0.860727 0
M  V30 40766 H 3771.24 -4.29288 3.0135 0
M  V30 40767 H 3772.71 -5.27825 1.61571 0
M  V30 40768 H 3773.19 -4.38865 0.171465 0
M  V30 40769 H 3773.8 -3.87104 1.76154 0
M  V30 40770 N 3772.11 -0.929901 -1.27242 0
M  V30 40771 C 3773.36 -0.57234 -1.94556 0
M  V30 40772 C 3773.69 0.884511 -1.72887 0
M  V30 40773 O 3772.97 1.63127 -1.05923 0
M  V30 40774 C 3773.25 -0.901736 -3.48627 0
M  V30 40775 C 3773.1 -2.4125 -3.79629 0
M  V30 40776 C 3774.42 -0.40917 -4.38194 0
M  V30 40777 H 3771.54 -0.209409 -0.706624 0
M  V30 40778 H 3774.18 -1.16208 -1.50319 0
M  V30 40779 H 3772.33 -0.399859 -3.86437 0
M  V30 40780 H 3774 -2.98624 -3.51598 0
M  V30 40781 H 3772.25 -2.86076 -3.26103 0
M  V30 40782 H 3772.92 -2.5935 -4.8728 0
M  V30 40783 H 3775.39 -0.839327 -4.07547 0
M  V30 40784 H 3774.27 -0.668578 -5.44813 0
M  V30 40785 H 3774.53 0.690784 -4.3667 0
M  V30 40786 N 3773.59 1.41416 -0.695653 0
M  V30 40787 C 3774.81 2.06073 -0.234199 0
M  V30 40788 C 3775.24 1.52008 1.10793 0
M  V30 40789 O 3774.6 0.64708 1.69359 0
M  V30 40790 C 3774.65 3.60031 -0.202417 0
M  V30 40791 O 3773.75 4.04111 0.822696 0
M  V30 40792 H 3773.09 0.65407 -0.114406 0
M  V30 40793 H 3775.62 1.81179 -0.950535 0
M  V30 40794 H 3775.63 4.07986 -0.0333038 0
M  V30 40795 H 3774.31 3.98751 -1.18195 0
M  V30 40796 H 3772.88 3.6766 0.622931 0
M  V30 40797 N 3775.07 0.44041 1.51321 0
M  V30 40798 C 3776.31 -0.125027 2.02114 0
M  V30 40799 C 3776.64 -1.42444 1.32439 0
M  V30 40800 O 3775.9 -1.9094 0.429014 0
M  V30 40801 C 3776.2 -0.388017 3.55287 0
M  V30 40802 C 3775.86 0.825954 4.43271 0
M  V30 40803 C 3774.52 1.15887 4.67037 0
M  V30 40804 C 3776.88 1.63566 4.94869 0
M  V30 40805 C 3774.2 2.3021 5.39648 0
M  V30 40806 C 3776.56 2.76991 5.68734 0
M  V30 40807 C 3775.22 3.10733 5.90763 0
M  V30 40808 H 3774.49 -0.0457505 0.739586 0
M  V30 40809 H 3777.14 0.588233 1.82242 0
M  V30 40810 H 3775.44 -1.1832 3.73507 0
M  V30 40811 H 3777.14 -0.838986 3.92125 0
M  V30 40812 H 3773.73 0.556543 4.24971 0
M  V30 40813 H 3777.91 1.39166 4.76389 0
M  V30 40814 H 3773.17 2.56662 5.54918 0
M  V30 40815 H 3777.34 3.401 6.07705 0
M  V30 40816 H 3774.97 3.99431 6.46807 0
M  V30 40817 N 3776.55 -1.5666 0.171876 0
M  V30 40818 C 3777.46 -2.2158 -0.770682 0
M  V30 40819 C 3778.47 -1.20761 -1.25271 0
M  V30 40820 O 3779.65 -1.53425 -1.30472 0
M  V30 40821 C 3776.71 -2.84425 -1.98251 0
M  V30 40822 C 3775.77 -4.00446 -1.54731 0
M  V30 40823 C 3775.01 -4.60285 -2.70137 0
M  V30 40824 O 3775.23 -4.19014 -3.87019 0
M  V30 40825 O 3774.16 -5.50145 -2.4418 0
M  V30 40826 H 3777.99 -3.02686 -0.247921 0
M  V30 40827 H 3775.57 -1.49294 -0.0563471 0
M  V30 40828 H 3777.46 -3.24271 -2.69121 0
M  V30 40829 H 3776.13 -2.06315 -2.49431 0
M  V30 40830 H 3775.04 -3.65268 -0.808088 0
M  V30 40831 H 3776.37 -4.80151 -1.08241 0
M  V30 40832 N 3778.02 0.101846 -1.57271 0
M  V30 40833 C 3778.93 1.14254 -2.04898 0
M  V30 40834 C 3779.95 1.4428 -0.972586 0
M  V30 40835 O 3781.13 1.55056 -1.28529 0
M  V30 40836 C 3778.19 2.44484 -2.45822 0
M  V30 40837 C 3777.25 2.217 -3.67624 0
M  V30 40838 C 3776.48 3.45721 -4.06587 0
M  V30 40839 O 3776.71 4.53696 -3.4571 0
M  V30 40840 O 3775.64 3.35708 -4.99584 0
M  V30 40841 H 3779.47 0.768033 -2.93828 0
M  V30 40842 H 3777.05 0.313876 -1.46066 0
M  V30 40843 H 3778.93 3.21181 -2.72802 0
M  V30 40844 H 3777.61 2.81374 -1.60033 0
M  V30 40845 H 3776.52 1.42806 -3.45771 0
M  V30 40846 H 3777.85 1.89706 -4.54172 0
M  V30 40847 N 3779.5 1.53135 0.372494 0
M  V30 40848 C 3780.45 1.75464 1.45589 0
M  V30 40849 C 3781.44 0.60902 1.48929 0
M  V30 40850 O 3782.63 0.867446 1.54287 0
M  V30 40851 C 3779.76 1.94177 2.83108 0
M  V30 40852 C 3778.84 3.14721 2.84274 0
M  V30 40853 N 3779.23 4.36762 2.55093 0
M  V30 40854 C 3777.53 3.15302 3.15437 0
M  V30 40855 C 3778.23 5.18464 2.63761 0
M  V30 40856 N 3777.21 4.54519 2.98184 0
M  V30 40857 H 3781.01 2.67437 1.2188 0
M  V30 40858 H 3778.52 1.51666 0.580614 0
M  V30 40859 H 3780.52 2.083 3.61132 0
M  V30 40860 H 3779.18 1.03429 3.07787 0
M  V30 40861 H 3780.19 4.64613 2.28812 0
M  V30 40862 H 3776.87 2.34422 3.45475 0
M  V30 40863 H 3778.26 6.25794 2.44605 0
M  V30 40864 N 3780.98 -0.6319 1.44377 0
M  V30 40865 C 3782.23 -1.38744 1.464 0
M  V30 40866 C 3782.54 -1.95343 0.100183 0
M  V30 40867 O 3783.75 -2.715 -0.00206136 0
M  V30 40868 C 3782.2 -2.51199 2.57735 0
M  V30 40869 C 3781.81 -2.01116 4.0032 0
M  V30 40870 C 3783.56 -3.28407 2.68977 0
M  V30 40871 C 3781.46 -3.10908 5.03081 0
M  V30 40872 H 3780.39 -0.521387 0.544676 0
M  V30 40873 H 3783.04 -0.679882 1.7044 0
M  V30 40874 H 3781.43 -3.24526 2.26934 0
M  V30 40875 H 3782.6 -1.34659 4.40685 0
M  V30 40876 H 3780.91 -1.36725 3.93313 0
M  V30 40877 H 3783.51 -4.10253 3.42923 0
M  V30 40878 H 3783.85 -3.77838 1.74769 0
M  V30 40879 H 3784.39 -2.6217 2.99185 0
M  V30 40880 H 3781.13 -2.66422 5.98915 0
M  V30 40881 H 3780.65 -3.76009 4.67309 0
M  V30 40882 H 3782.33 -3.75696 5.26746 0
M  V30 40883 N 3782.46 -1.31262 -0.872235 0
M  V30 40884 C 3783.4 -1.18721 -1.97924 0
M  V30 40885 C 3784.37 -0.0735534 -1.65937 0
M  V30 40886 O 3785.56 -0.246012 -1.89207 0
M  V30 40887 C 3782.7 -0.898176 -3.33207 0
M  V30 40888 C 3781.81 -2.09495 -3.77804 0
M  V30 40889 C 3780.95 -1.7429 -5.01793 0
M  V30 40890 C 3779.99 -2.90388 -5.38833 0
M  V30 40891 N 3779.12 -2.55393 -6.54002 0
M  V30 40892 H 3783.96 -2.13418 -2.07982 0
M  V30 40893 H 3781.5 -1.06166 -1.01819 0
M  V30 40894 H 3783.46 -0.711162 -4.11094 0
M  V30 40895 H 3782.09 0.011953 -3.22798 0
M  V30 40896 H 3781.14 -2.39281 -2.95718 0
M  V30 40897 H 3782.45 -2.96398 -4.01186 0
M  V30 40898 H 3781.61 -1.52037 -5.87341 0
M  V30 40899 H 3780.35 -0.845749 -4.80311 0
M  V30 40900 H 3779.35 -3.13292 -4.51806 0
M  V30 40901 H 3780.58 -3.80809 -5.62283 0
M  V30 40902 H 3778.52 -1.68199 -6.3407 0
M  V30 40903 H 3778.44 -3.35826 -6.77316 0
M  V30 40904 H 3779.71 -2.36529 -7.42748 0
M  V30 40905 N 3783.94 1.08625 -1.14186 0
M  V30 40906 C 3784.87 2.17499 -0.849493 0
M  V30 40907 C 3785.85 1.68983 0.194587 0
M  V30 40908 O 3787.03 1.94131 0.0517416 0
M  V30 40909 C 3784.16 3.45788 -0.323746 0
M  V30 40910 C 3783.12 4.07683 -1.30302 0
M  V30 40911 C 3782.44 5.30896 -0.636669 0
M  V30 40912 C 3783.74 4.49224 -2.66449 0
M  V30 40913 H 3785.44 2.42214 -1.75991 0
M  V30 40914 H 3782.98 1.16411 -0.847616 0
M  V30 40915 H 3784.93 4.21265 -0.106828 0
M  V30 40916 H 3783.66 3.20621 0.622093 0
M  V30 40917 H 3782.32 3.34235 -1.50607 0
M  V30 40918 H 3781.97 5.02013 0.314906 0
M  V30 40919 H 3781.67 5.73263 -1.29008 0
M  V30 40920 H 3783.19 6.0909 -0.429224 0
M  V30 40921 H 3784.6 5.15888 -2.50064 0
M  V30 40922 H 3783 5.02502 -3.28042 0
M  V30 40923 H 3784.07 3.61221 -3.23493 0
M  V30 40924 N 3785.41 0.936635 1.26747 0
M  V30 40925 C 3786.32 0.448613 2.30271 0
M  V30 40926 C 3787.34 -0.475154 1.67387 0
M  V30 40927 O 3788.52 -0.35579 1.98232 0
M  V30 40928 C 3785.58 -0.28256 3.45547 0
M  V30 40929 C 3784.64 0.677212 4.23925 0
M  V30 40930 C 3783.88 -0.0191612 5.33697 0
M  V30 40931 O 3784.1 -1.23693 5.56827 0
M  V30 40932 O 3783.03 0.657224 5.98301 0
M  V30 40933 H 3786.86 1.30842 2.74069 0
M  V30 40934 H 3784.44 0.702337 1.31862 0
M  V30 40935 H 3786.33 -0.694613 4.15636 0
M  V30 40936 H 3785 -1.11783 3.03786 0
M  V30 40937 H 3783.91 1.13912 3.56335 0
M  V30 40938 H 3785.24 1.47997 4.69423 0
M  V30 40939 N 3786.89 -1.41045 0.703143 0
M  V30 40940 C 3787.84 -2.27992 0.0193024 0
M  V30 40941 C 3788.83 -1.42603 -0.745191 0
M  V30 40942 O 3790.02 -1.65807 -0.619438 0
M  V30 40943 C 3787.15 -3.30996 -0.910837 0
M  V30 40944 C 3786.23 -4.23862 -0.142191 0
M  V30 40945 N 3786.62 -4.98296 0.868015 0
M  V30 40946 C 3784.92 -4.44407 -0.376573 0
M  V30 40947 C 3785.62 -5.6632 1.32878 0
M  V30 40948 N 3784.6 -5.3966 0.653271 0
M  V30 40949 H 3788.4 -2.82979 0.793737 0
M  V30 40950 H 3785.92 -1.53347 0.534636 0
M  V30 40951 H 3787.91 -3.92118 -1.41596 0
M  V30 40952 H 3786.57 -2.7757 -1.68479 0
M  V30 40953 H 3787.58 -5.02626 1.24849 0
M  V30 40954 H 3784.26 -4.01978 -1.12782 0
M  V30 40955 H 3785.65 -6.35979 2.16749 0
M  V30 40956 N 3788.37 -0.448429 -1.51086 0
M  V30 40957 C 3789.32 0.371671 -2.29611 0
M  V30 40958 C 3790.31 1.01094 -1.35928 0
M  V30 40959 O 3791.52 0.944636 -1.53221 0
M  V30 40960 H 3787.89 0.138681 -0.739102 0
M  V30 40961 H 3789.86 -0.311327 -2.96771 0
M  V30 40962 C 3788.61 1.45413 -3.15833 0
M  V30 40963 H 3787.94 0.971593 -3.87815 0
M  V30 40964 H 3789.38 2.00098 -3.73814 0
M  V30 40965 C 3787.84 2.44355 -2.31931 0
M  V30 40966 O 3788.37 3.49137 -1.98661 0
M  V30 40967 N 3786.57 2.15514 -1.94941 0
M  V30 40968 H 3786.12 1.30332 -2.22197 0
M  V30 40969 H 3786.08 2.81953 -1.39103 0
M  V30 40970 N 3789.85 1.56567 -0.180181 0
M  V30 40971 C 3790.78 2.14253 0.785539 0
M  V30 40972 C 3791.76 1.07506 1.21989 0
M  V30 40973 O 3792.94 1.35533 1.31008 0
M  V30 40974 C 3790.07 2.68931 2.05898 0
M  V30 40975 C 3789.12 3.88131 1.76795 0
M  V30 40976 S 3789.95 5.27375 0.929297 0
M  V30 40977 C 3791.11 5.85464 2.21321 0
M  V30 40978 H 3791.34 2.95832 0.295093 0
M  V30 40979 H 3788.87 1.54361 0.0346156 0
M  V30 40980 H 3790.83 3.01079 2.79037 0
M  V30 40981 H 3789.49 1.87422 2.52055 0
M  V30 40982 H 3788.68 4.24747 2.71304 0
M  V30 40983 H 3788.29 3.56916 1.11746 0
M  V30 40984 H 3790.58 5.98918 3.16708 0
M  V30 40985 H 3791.52 6.82367 1.8916 0
M  V30 40986 H 3791.93 5.1395 2.33486 0
M  V30 40987 N 3791.33 -0.0935042 1.57322 0
M  V30 40988 C 3792.57 -0.792761 1.87315 0
M  V30 40989 C 3792.93 -1.76267 0.771212 0
M  V30 40990 O 3792.22 -1.90255 -0.226646 0
M  V30 40991 C 3792.41 -1.55896 3.21607 0
M  V30 40992 C 3792.24 -0.664752 4.4476 0
M  V30 40993 C 3791.01 -0.309883 5.04349 0
M  V30 40994 C 3793.21 0.0289808 5.14292 0
M  V30 40995 N 3791.19 0.59232 6.11036 0
M  V30 40996 C 3792.56 0.78919 6.14957 0
M  V30 40997 C 3794.62 0.102735 4.97794 0
M  V30 40998 C 3793.32 1.61627 7.00906 0
M  V30 40999 C 3795.35 0.916714 5.84252 0
M  V30 41000 C 3794.71 1.66504 6.84438 0
M  V30 41001 H 3790.81 -0.266209 0.735293 0
M  V30 41002 H 3793.39 -0.0552192 1.94622 0
M  V30 41003 H 3791.56 -2.26736 3.15349 0
M  V30 41004 H 3793.3 -2.20553 3.3932 0
M  V30 41005 H 3790.05 -0.657898 4.69008 0
M  V30 41006 H 3790.48 1.03602 6.69026 0
M  V30 41007 H 3795.12 -0.461474 4.20274 0
M  V30 41008 H 3792.84 2.19153 7.77816 0
M  V30 41009 H 3796.42 0.976475 5.73547 0
M  V30 41010 H 3795.3 2.28475 7.50179 0
M  V30 41011 N 3792.8 -1.5333 -0.364368 0
M  V30 41012 C 3793.75 -1.80525 -1.46674 0
M  V30 41013 C 3794.75 -0.674448 -1.55395 0
M  V30 41014 O 3795.95 -0.857412 -1.58267 0
M  V30 41015 H 3792.33 -0.571605 -0.488642 0
M  V30 41016 H 3794.3 -2.72792 -1.20942 0
M  V30 41017 C 3793.05 -2.01314 -2.83492 0
M  V30 41018 H 3792.37 -2.87769 -2.77541 0
M  V30 41019 H 3793.81 -2.2432 -3.59801 0
M  V30 41020 C 3792.27 -0.792596 -3.27444 0
M  V30 41021 O 3792.8 0.0181259 -4.01696 0
M  V30 41022 N 3791.01 -0.615693 -2.84003 0
M  V30 41023 H 3790.55 -1.27658 -2.23744 0
M  V30 41024 H 3790.51 0.199548 -3.13766 0
M  V30 41025 N 3794.28 0.624234 -1.4471 0
M  V30 41026 C 3795.51 1.40865 -1.51131 0
M  V30 41027 C 3795.92 1.88702 -0.137133 0
M  V30 41028 O 3795.26 1.61872 0.868518 0
M  V30 41029 C 3795.33 2.65832 -2.4202 0
M  V30 41030 C 3794.99 2.39745 -3.89065 0
M  V30 41031 C 3795.99 2.01142 -4.79414 0
M  V30 41032 C 3793.67 2.53172 -4.33831 0
M  V30 41033 C 3795.67 1.76304 -6.12532 0
M  V30 41034 C 3793.35 2.27947 -5.66995 0
M  V30 41035 C 3794.35 1.89573 -6.56164 0
M  V30 41036 O 3794.04 1.64633 -7.86862 0
M  V30 41037 H 3793.77 0.438201 -0.514739 0
M  V30 41038 H 3796.32 0.769975 -1.90422 0
M  V30 41039 H 3794.55 3.32361 -1.97669 0
M  V30 41040 H 3796.24 3.27848 -2.39312 0
M  V30 41041 H 3797.01 1.9032 -4.46098 0
M  V30 41042 H 3792.89 2.8201 -3.6468 0
M  V30 41043 H 3796.43 1.46276 -6.82092 0
M  V30 41044 H 3792.33 2.38381 -5.99871 0
M  V30 41045 H 3793.1 1.78822 -7.98727 0
M  V30 41046 N 3795.76 1.31723 0.865262 0
M  V30 41047 C 3796.69 1.22366 1.98869 0
M  V30 41048 C 3797.67 0.109809 1.69745 0
M  V30 41049 O 3798.86 0.295201 1.91943 0
M  V30 41050 C 3795.99 0.935059 3.34476 0
M  V30 41051 C 3794.94 2.00899 3.7792 0
M  V30 41052 C 3794.27 1.573 5.11039 0
M  V30 41053 C 3795.57 3.42271 3.94522 0
M  V30 41054 H 3797.26 2.16356 2.06956 0
M  V30 41055 H 3794.81 1.04158 0.994337 0
M  V30 41056 H 3796.76 0.856183 4.12611 0
M  V30 41057 H 3795.48 -0.0404962 3.26575 0
M  V30 41058 H 3794.14 2.07784 3.02029 0
M  V30 41059 H 3793.79 0.585172 4.99585 0
M  V30 41060 H 3793.49 2.29147 5.41078 0
M  V30 41061 H 3795.01 1.50828 5.91678 0
M  V30 41062 H 3796.43 3.38035 4.63039 0
M  V30 41063 H 3794.83 4.12377 4.35965 0
M  V30 41064 H 3795.9 3.82711 2.97758 0
M  V30 41065 N 3797.24 -1.08018 1.14761 0
M  V30 41066 C 3798.47 -1.83949 0.940553 0
M  V30 41067 C 3798.88 -1.82073 -0.514392 0
M  V30 41068 O 3798.22 -1.22566 -1.36833 0
M  V30 41069 C 3798.28 -3.32415 1.36896 0
M  V30 41070 C 3797.95 -3.5802 2.84026 0
M  V30 41071 C 3798.94 -3.52531 3.82123 0
M  V30 41072 C 3796.63 -3.85904 3.21533 0
M  V30 41073 C 3798.62 -3.74562 5.15734 0
M  V30 41074 C 3796.31 -4.07588 4.55319 0
M  V30 41075 C 3797.31 -4.01911 5.52229 0
M  V30 41076 O 3796.99 -4.23022 6.83599 0
M  V30 41077 H 3796.73 -0.587431 0.334515 0
M  V30 41078 H 3799.28 -1.37302 1.52765 0
M  V30 41079 H 3797.51 -3.79839 0.725216 0
M  V30 41080 H 3799.2 -3.89793 1.13209 0
M  V30 41081 H 3799.97 -3.30999 3.54492 0
M  V30 41082 H 3795.84 -3.8944 2.46693 0
M  V30 41083 H 3799.39 -3.70047 5.91364 0
M  V30 41084 H 3795.29 -4.28604 4.82668 0
M  V30 41085 H 3796.05 -4.40406 6.89916 0
M  V30 41086 N 3798.72 -0.943344 -1.26249 0
M  V30 41087 C 3799.96 -0.592066 -1.93651 0
M  V30 41088 C 3800.29 0.869203 -1.73997 0
M  V30 41089 O 3799.55 1.63748 -1.07168 0
M  V30 41090 C 3799.85 -0.883228 -3.46315 0
M  V30 41091 C 3799.51 -2.32872 -3.8611 0
M  V30 41092 C 3798.17 -2.72386 -3.96685 0
M  V30 41093 C 3800.53 -3.26799 -4.06019 0
M  V30 41094 C 3797.85 -4.04918 -4.24568 0
M  V30 41095 C 3800.21 -4.58931 -4.35391 0
M  V30 41096 C 3798.87 -4.98256 -4.44181 0
M  V30 41097 H 3798.14 -0.216652 -0.70862 0
M  V30 41098 H 3800.79 -1.19026 -1.50017 0
M  V30 41099 H 3799.09 -0.202521 -3.91276 0
M  V30 41100 H 3800.79 -0.590177 -3.96633 0
M  V30 41101 H 3797.38 -2.01223 -3.78427 0
M  V30 41102 H 3801.56 -2.97467 -3.97275 0
M  V30 41103 H 3796.82 -4.35047 -4.29586 0
M  V30 41104 H 3800.99 -5.317 -4.49742 0
M  V30 41105 H 3798.62 -6.00979 -4.65541 0
M  V30 41106 N 3800.2 1.4067 -0.710613 0
M  V30 41107 C 3801.44 2.00206 -0.245002 0
M  V30 41108 C 3801.76 1.5698 1.16691 0
M  V30 41109 O 3802.96 2.0918 1.73077 0
M  V30 41110 C 3801.42 3.57812 -0.387111 0
M  V30 41111 C 3801.03 4.10014 -1.80535 0
M  V30 41112 C 3802.77 4.24496 0.0179592 0
M  V30 41113 C 3800.68 5.60106 -1.89831 0
M  V30 41114 H 3799.61 0.748865 -0.0878441 0
M  V30 41115 H 3802.26 1.60969 -0.880984 0
M  V30 41116 H 3800.64 3.94726 0.317373 0
M  V30 41117 H 3801.82 3.84487 -2.5398 0
M  V30 41118 H 3800.13 3.55909 -2.16143 0
M  V30 41119 H 3802.73 5.34691 -0.0308484 0
M  V30 41120 H 3803.07 4.02603 1.05908 0
M  V30 41121 H 3803.6 3.9267 -0.636789 0
M  V30 41122 H 3800.34 5.86847 -2.92047 0
M  V30 41123 H 3799.86 5.87512 -1.20789 0
M  V30 41124 H 3801.54 6.25126 -1.66812 0
M  V30 41125 N 3801.67 0.456435 1.50846 0
M  V30 41126 C 3802.92 -0.103736 2.02535 0
M  V30 41127 C 3803.25 -1.4068 1.33876 0
M  V30 41128 O 3802.53 -1.88989 0.459728 0
M  V30 41129 C 3802.81 -0.302754 3.58825 0
M  V30 41130 C 3802.66 1.0203 4.38075 0
M  V30 41131 C 3803.98 -1.06396 4.27045 0
M  V30 41132 H 3801.1 -0.0362269 0.736109 0
M  V30 41133 H 3803.74 0.599165 1.80305 0
M  V30 41134 H 3801.89 -0.901475 3.77896 0
M  V30 41135 H 3803.57 1.65447 4.3061 0
M  V30 41136 H 3801.81 1.62043 4.02398 0
M  V30 41137 H 3802.48 0.834862 5.4565 0
M  V30 41138 H 3804.96 -0.556626 4.1236 0
M  V30 41139 H 3803.83 -1.172 5.36242 0
M  V30 41140 H 3804.09 -2.0969 3.89207 0
M  V30 41141 N 3803.15 -1.56469 0.188482 0
M  V30 41142 C 3804.08 -2.21784 -0.73034 0
M  V30 41143 C 3805.06 -1.17884 -1.22627 0
M  V30 41144 O 3806.25 -1.46369 -1.27631 0
M  V30 41145 C 3803.38 -2.87203 -1.95273 0
M  V30 41146 C 3802.33 -3.97291 -1.59198 0
M  V30 41147 C 3801.66 -4.49842 -2.89044 0
M  V30 41148 C 3802.96 -5.16029 -0.806936 0
M  V30 41149 H 3804.65 -2.98823 -0.185862 0
M  V30 41150 H 3802.2 -1.43731 -0.0879552 0
M  V30 41151 H 3804.15 -3.31576 -2.60068 0
M  V30 41152 H 3802.87 -2.0756 -2.52163 0
M  V30 41153 H 3801.53 -3.53599 -0.967651 0
M  V30 41154 H 3801.18 -3.66969 -3.4401 0
M  V30 41155 H 3800.88 -5.2412 -2.65654 0
M  V30 41156 H 3802.41 -4.96912 -3.54839 0
M  V30 41157 H 3803.82 -5.56988 -1.35784 0
M  V30 41158 H 3802.22 -5.96332 -0.671412 0
M  V30 41159 H 3803.29 -4.84514 0.193336 0
M  V30 41160 N 3804.63 0.0851597 -1.5737 0
M  V30 41161 C 3805.88 0.787987 -1.86865 0
M  V30 41162 C 3806.21 1.77893 -0.778967 0
M  V30 41163 O 3805.48 1.9334 0.212099 0
M  V30 41164 C 3805.77 1.5079 -3.27008 0
M  V30 41165 C 3805.62 0.534275 -4.46616 0
M  V30 41166 C 3806.94 2.45608 -3.65191 0
M  V30 41167 H 3804.06 0.285005 -0.679662 0
M  V30 41168 H 3806.7 0.0514109 -1.8993 0
M  V30 41169 H 3804.85 2.13577 -3.24526 0
M  V30 41170 H 3806.52 -0.0873572 -4.61217 0
M  V30 41171 H 3804.76 -0.151532 -4.33535 0
M  V30 41172 H 3805.44 1.07534 -5.41424 0
M  V30 41173 H 3807.91 1.92907 -3.68682 0
M  V30 41174 H 3806.79 2.92991 -4.64163 0
M  V30 41175 H 3807.05 3.29814 -2.94406 0
M  V30 41176 N 3806.11 1.53521 0.356231 0
M  V30 41177 C 3807.52 1.43502 0.698521 0
M  V30 41178 C 3807.72 0.58158 1.92925 0
M  V30 41179 O 3806.78 0.0676391 2.52409 0
M  V30 41180 C 3808.09 2.86821 0.902997 0
M  V30 41181 C 3809.64 2.96514 1.00242 0
M  V30 41182 C 3810.12 4.40914 1.2393 0
M  V30 41183 N 3811.61 4.44384 1.30679 0
M  V30 41184 C 3812.34 5.53233 1.50735 0
M  V30 41185 N 3811.84 6.7211 1.68047 0
M  V30 41186 N 3813.63 5.40825 1.5318 0
M  V30 41187 H 3805.78 2.0751 -0.453139 0
M  V30 41188 H 3808.04 0.937497 -0.140725 0
M  V30 41189 H 3807.75 3.5163 0.0703542 0
M  V30 41190 H 3807.62 3.31023 1.80841 0
M  V30 41191 H 3810.01 2.31854 1.82559 0
M  V30 41192 H 3810.09 2.55692 0.0741853 0
M  V30 41193 H 3809.74 5.06151 0.4211 0
M  V30 41194 H 3809.67 4.79317 2.1809 0
M  V30 41195 H 3812.16 3.58715 1.18877 0
M  V30 41196 H 3812.47 7.50832 1.8295 0
M  V30 41197 H 3810.82 6.75079 1.65207 0
M  V30 41198 H 3814.01 4.46915 1.3923 0
M  V30 41199 H 3814.18 6.25717 1.68469 0
M  V30 41200 N 3807.59 -0.616551 1.45039 0
M  V30 41201 C 3808.83 -1.37783 1.48808 0
M  V30 41202 C 3809.16 -1.93792 0.125845 0
M  V30 41203 O 3808.44 -1.74527 -0.858513 0
M  V30 41204 C 3808.72 -2.53238 2.56013 0
M  V30 41205 C 3808.58 -2.02484 4.01647 0
M  V30 41206 C 3809.89 -3.55393 2.59584 0
M  V30 41207 H 3807.01 -0.499638 0.541785 0
M  V30 41208 H 3809.66 -0.695828 1.768 0
M  V30 41209 H 3807.81 -3.11418 2.32274 0
M  V30 41210 H 3809.48 -1.49022 4.36566 0
M  V30 41211 H 3807.72 -1.33552 4.1273 0
M  V30 41212 H 3808.39 -2.85671 4.72331 0
M  V30 41213 H 3810.87 -3.07039 2.80831 0
M  V30 41214 H 3809.74 -4.33678 3.36474 0
M  V30 41215 H 3810 -4.10424 1.64332 0
M  V30 41216 N 3809.06 -1.3218 -0.858264 0
M  V30 41217 C 3810.01 -1.20814 -1.96654 0
M  V30 41218 C 3810.98 -0.0911491 -1.6585 0
M  V30 41219 O 3812.17 -0.266066 -1.88936 0
M  V30 41220 C 3809.31 -0.933466 -3.32235 0
M  V30 41221 C 3808.42 -2.1349 -3.75561 0
M  V30 41222 C 3807.55 -1.79602 -4.99917 0
M  V30 41223 C 3806.59 -2.96087 -5.35723 0
M  V30 41224 N 3805.73 -2.62315 -6.51257 0
M  V30 41225 H 3810.57 -2.15612 -2.05707 0
M  V30 41226 H 3808.11 -1.0724 -1.00687 0
M  V30 41227 H 3810.06 -0.754724 -4.10317 0
M  V30 41228 H 3808.69 -0.0222847 -3.22792 0
M  V30 41229 H 3807.75 -2.42404 -2.93163 0
M  V30 41230 H 3809.06 -3.00636 -3.98019 0
M  V30 41231 H 3808.21 -1.58258 -5.85695 0
M  V30 41232 H 3806.95 -0.896645 -4.79387 0
M  V30 41233 H 3805.96 -3.18066 -4.48457 0
M  V30 41234 H 3807.18 -3.86751 -5.58212 0
M  V30 41235 H 3805.13 -1.74915 -6.32251 0
M  V30 41236 H 3805.04 -3.42991 -6.73716 0
M  V30 41237 H 3806.31 -2.44393 -7.40197 0
M  V30 41238 N 3810.54 1.07407 -1.15332 0
M  V30 41239 C 3811.49 2.16694 -0.845366 0
M  V30 41240 C 3812.48 1.6843 0.18098 0
M  V30 41241 O 3813.69 1.79964 0.0360697 0
M  V30 41242 H 3810.06 0.707189 -0.25571 0
M  V30 41243 H 3812.04 2.39886 -1.77475 0
M  V30 41244 C 3810.78 3.45929 -0.350442 0
M  V30 41245 H 3810.11 3.83452 -1.13159 0
M  V30 41246 H 3811.55 4.23644 -0.173622 0
M  V30 41247 C 3810.01 3.23869 0.927934 0
M  V30 41248 O 3810.54 3.48395 1.99959 0
M  V30 41249 N 3808.74 2.77358 0.867218 0
M  V30 41250 H 3808.29 2.576 -0.0050488 0
M  V30 41251 H 3808.25 2.62977 1.72309 0
M  V30 41252 N 3812.02 0.950026 1.25747 0
M  V30 41253 C 3812.97 0.465349 2.2606 0
M  V30 41254 C 3813.94 -0.479714 1.59022 0
M  V30 41255 O 3815.12 -0.393978 1.86688 0
M  V30 41256 C 3812.26 -0.255085 3.44156 0
M  V30 41257 C 3811.37 0.726679 4.25844 0
M  V30 41258 C 3810.51 -0.0158496 5.31198 0
M  V30 41259 C 3809.55 0.957152 6.0457 0
M  V30 41260 N 3808.69 0.245799 7.0167 0
M  V30 41261 H 3813.53 1.32568 2.66889 0
M  V30 41262 H 3811.06 0.664905 1.31215 0
M  V30 41263 H 3813.02 -0.689309 4.11466 0
M  V30 41264 H 3811.65 -1.07949 3.04215 0
M  V30 41265 H 3810.7 1.2794 3.5824 0
M  V30 41266 H 3812.01 1.46937 4.76667 0
M  V30 41267 H 3811.17 -0.508931 6.04562 0
M  V30 41268 H 3809.91 -0.791357 4.81237 0
M  V30 41269 H 3808.91 1.46128 5.30025 0
M  V30 41270 H 3810.14 1.73281 6.5662 0
M  V30 41271 H 3808.08 -0.511055 6.54006 0
M  V30 41272 H 3808 0.927659 7.50287 0
M  V30 41273 H 3809.27 -0.225897 7.79173 0
M  V30 41274 N 3813.5 -1.40291 0.718063 0
M  V30 41275 C 3814.73 -2.05152 0.268362 0
M  V30 41276 C 3815.14 -1.54106 -1.09073 0
M  V30 41277 O 3814.5 -0.698684 -1.68596 0
M  V30 41278 C 3814.55 -3.60687 0.242286 0
M  V30 41279 O 3814.27 -4.09851 1.54771 0
M  V30 41280 C 3815.77 -4.42725 -0.225664 0
M  V30 41281 H 3812.99 -0.66015 0.120177 0
M  V30 41282 H 3815.53 -1.79654 0.976964 0
M  V30 41283 H 3813.69 -3.85146 -0.4173 0
M  V30 41284 H 3814.1 -5.04063 1.44985 0
M  V30 41285 H 3815.58 -5.51663 -0.19276 0
M  V30 41286 H 3816.05 -4.20491 -1.26822 0
M  V30 41287 H 3816.66 -4.23379 0.403735 0
M  V30 41288 N 3814.98 -0.464428 -1.50602 0
M  V30 41289 C 3816.25 0.154112 -1.94992 0
M  V30 41290 C 3816.63 1.57598 -1.4045 0
M  V30 41291 O 3815.98 2.20408 -0.602707 0
M  V30 41292 C 3816.19 0.104235 -3.48844 0
M  V30 41293 C 3817.54 0.296431 -4.23564 0
M  V30 41294 O 3818.56 0.181125 -3.55739 0
M  V30 41295 O 3817.42 0.528573 -5.43938 0
M  V30 41296 H 3814.52 0.115297 -0.818923 0
M  V30 41297 H 3817.06 -0.524353 -1.61396 0
M  V30 41298 H 3815.83 -0.888757 -3.81073 0
M  V30 41299 H 3815.46 0.824446 -3.88958 0
M  V30 41300 N 3816.45 1.56367 -0.196777 0
M  V30 41301 C 3817.68 2.01718 0.446455 0
M  V30 41302 C 3818.09 1.07607 1.55619 0
M  V30 41303 O 3817.44 0.0734266 1.83553 0
M  V30 41304 C 3817.5 3.43463 1.06176 0
M  V30 41305 C 3817.16 4.5691 0.0905475 0
M  V30 41306 C 3818.16 5.15157 -0.700689 0
M  V30 41307 C 3815.84 5.02296 -0.0210224 0
M  V30 41308 C 3817.84 6.17239 -1.59044 0
M  V30 41309 C 3815.52 6.04221 -0.914336 0
M  V30 41310 C 3816.52 6.61566 -1.69761 0
M  V30 41311 O 3816.21 7.61512 -2.57595 0
M  V30 41312 H 3815.94 0.665931 0.116242 0
M  V30 41313 H 3818.5 2.03149 -0.30326 0
M  V30 41314 H 3816.73 3.39024 1.86009 0
M  V30 41315 H 3818.42 3.72612 1.60982 0
M  V30 41316 H 3819.18 4.80959 -0.624807 0
M  V30 41317 H 3815.06 4.57356 0.578477 0
M  V30 41318 H 3818.6 6.61926 -2.20226 0
M  V30 41319 H 3814.5 6.37842 -0.991327 0
M  V30 41320 H 3815.27 7.78938 -2.51393 0
M  V30 41321 N 3817.93 -0.0768128 1.57413 0
M  V30 41322 C 3819.16 -0.789974 1.91225 0
M  V30 41323 C 3819.58 -1.71373 0.792262 0
M  V30 41324 O 3818.93 -1.80985 -0.234704 0
M  V30 41325 C 3818.98 -1.58787 3.2476 0
M  V30 41326 O 3818.7 -0.701253 4.32451 0
M  V30 41327 C 3820.21 -2.40247 3.72553 0
M  V30 41328 H 3817.43 -0.224882 0.632194 0
M  V30 41329 H 3819.97 -0.0485814 2.04442 0
M  V30 41330 H 3818.12 -2.28159 3.13085 0
M  V30 41331 H 3818.54 -1.25571 5.09247 0
M  V30 41332 H 3820.01 -2.91697 4.68633 0
M  V30 41333 H 3820.49 -3.19544 3.01311 0
M  V30 41334 H 3821.1 -1.76041 3.87156 0
M  V30 41335 N 3819.41 -1.53708 -0.348084 0
M  V30 41336 C 3820.66 -1.70398 -1.08668 0
M  V30 41337 C 3820.98 -0.467486 -1.89313 0
M  V30 41338 O 3820.25 0.518572 -1.88912 0
M  V30 41339 H 3818.83 -0.628213 -0.404175 0
M  V30 41340 H 3821.49 -1.90949 -0.390457 0
M  V30 41341 H 3820.59 -2.57287 -1.76663 0
M  V30 41342 N 3820.89 0.608851 -1.45364 0
M  V30 41343 C 3822.3 1.19078 -1.43796 0
M  V30 41344 C 3822.65 1.95506 -0.164909 0
M  V30 41345 O 3821.78 2.03586 0.733587 0
M  V30 41346 C 3822.37 2.1661 -2.6051 0
M  V30 41347 C 3820.93 2.70182 -2.62066 0
M  V30 41348 C 3820.08 1.45566 -2.36021 0
M  V30 41349 H 3823.03 0.398233 -1.53622 0
M  V30 41350 H 3823.05 2.99621 -2.34537 0
M  V30 41351 H 3822.56 1.60957 -3.5315 0
M  V30 41352 H 3820.66 3.29777 -1.73429 0
M  V30 41353 H 3820.77 3.14701 -3.61248 0
M  V30 41354 H 3819.14 1.74477 -1.85553 0
M  V30 41355 H 3819.92 0.917825 -3.30803 0
M  V30 41356 N 3822.37 1.32633 0.851242 0
M  V30 41357 C 3823.28 1.23861 1.99237 0
M  V30 41358 C 3824.29 0.151548 1.73339 0
M  V30 41359 O 3825.47 0.372857 1.97919 0
M  V30 41360 C 3822.53 0.965476 3.32986 0
M  V30 41361 C 3821.59 2.14132 3.72083 0
M  V30 41362 C 3820.83 1.88112 4.99449 0
M  V30 41363 O 3821.05 0.825352 5.64397 0
M  V30 41364 O 3819.98 2.74312 5.35758 0
M  V30 41365 H 3823.81 2.198 2.09575 0
M  V30 41366 H 3821.4 1.12557 0.98241 0
M  V30 41367 H 3823.28 0.829786 4.1315 0
M  V30 41368 H 3821.95 0.0362759 3.2368 0
M  V30 41369 H 3820.86 2.3325 2.92481 0
M  V30 41370 H 3822.19 3.05343 3.86039 0
M  V30 41371 N 3823.84 -1.06794 1.159 0
M  V30 41372 C 3825.07 -1.83746 0.961891 0
M  V30 41373 C 3825.49 -1.81742 -0.484908 0
M  V30 41374 O 3824.85 -1.21451 -1.34608 0
M  V30 41375 C 3824.9 -3.28481 1.48769 0
M  V30 41376 O 3824 -4.06576 0.690648 0
M  V30 41377 H 3823.35 -0.568744 0.342674 0
M  V30 41378 H 3825.88 -1.34684 1.54017 0
M  V30 41379 H 3825.89 -3.79308 1.50298 0
M  V30 41380 H 3824.56 -3.29254 2.54095 0
M  V30 41381 H 3823.14 -3.65373 0.745454 0
M  V30 41382 N 3825.32 -0.956681 -1.25241 0
M  V30 41383 C 3826.55 -0.628912 -1.96795 0
M  V30 41384 C 3826.96 0.803618 -1.71285 0
M  V30 41385 O 3826.3 1.54942 -0.986839 0
M  V30 41386 C 3826.37 -0.810194 -3.50251 0
M  V30 41387 C 3826.03 -2.22027 -3.99441 0
M  V30 41388 C 3827.03 -3.19711 -4.09976 0
M  V30 41389 C 3824.71 -2.54501 -4.33053 0
M  V30 41390 C 3826.71 -4.47962 -4.53441 0
M  V30 41391 C 3824.39 -3.8298 -4.76203 0
M  V30 41392 C 3825.39 -4.79523 -4.8636 0
M  V30 41393 O 3825.08 -6.05712 -5.28553 0
M  V30 41394 H 3824.81 -0.23454 -0.634009 0
M  V30 41395 H 3827.36 -1.28405 -1.60316 0
M  V30 41396 H 3825.59 -0.0979002 -3.86576 0
M  V30 41397 H 3827.28 -0.48317 -4.03014 0
M  V30 41398 H 3828.05 -2.9595 -3.84238 0
M  V30 41399 H 3823.93 -1.80082 -4.24372 0
M  V30 41400 H 3827.47 -5.23319 -4.61284 0
M  V30 41401 H 3823.37 -4.06548 -5.01387 0
M  V30 41402 H 3824.14 -6.09119 -5.46733 0
M  V30 41403 N 3826.8 1.39908 -0.725493 0
M  V30 41404 C 3828.05 2.00999 -0.269685 0
M  V30 41405 C 3828.38 1.57418 1.13724 0
M  V30 41406 O 3827.65 0.798724 1.77343 0
M  V30 41407 C 3827.94 3.58287 -0.360847 0
M  V30 41408 C 3827.79 4.11913 -1.80686 0
M  V30 41409 C 3829.11 4.39318 0.26225 0
M  V30 41410 H 3826.23 0.730257 -0.0994675 0
M  V30 41411 H 3828.87 1.66249 -0.919859 0
M  V30 41412 H 3827.02 3.88022 0.192711 0
M  V30 41413 H 3828.69 3.92937 -2.41656 0
M  V30 41414 H 3826.94 3.6583 -2.33133 0
M  V30 41415 H 3827.61 5.21064 -1.82198 0
M  V30 41416 H 3830.08 4.15572 -0.209525 0
M  V30 41417 H 3828.96 5.48643 0.16807 0
M  V30 41418 H 3829.22 4.21077 1.34708 0
M  V30 41419 N 3828.28 0.472408 1.50353 0
M  V30 41420 C 3829.24 -0.309771 2.27097 0
M  V30 41421 C 3830.24 -0.919282 1.31931 0
M  V30 41422 O 3831.43 -0.788257 1.55345 0
M  V30 41423 C 3828.56 -1.44143 3.08926 0
M  V30 41424 H 3829.76 0.363281 2.97692 0
M  V30 41425 H 3827.31 0.22651 1.5465 0
M  V30 41426 H 3828.04 -2.1495 2.42831 0
M  V30 41427 H 3827.83 -1.01016 3.78864 0
M  V30 41428 H 3829.32 -1.99316 3.66964 0
M  V30 41429 N 3829.76 -1.5626 0.205067 0
M  V30 41430 C 3830.69 -2.16795 -0.743816 0
M  V30 41431 C 3831.7 -1.13247 -1.16957 0
M  V30 41432 O 3832.89 -1.40298 -1.10357 0
M  V30 41433 C 3829.99 -2.72333 -2.01712 0
M  V30 41434 C 3829.16 -4.00885 -1.74958 0
M  V30 41435 C 3828.22 -4.4115 -2.86833 0
M  V30 41436 O 3827.25 -5.08377 -2.56011 0
M  V30 41437 N 3828.45 -4.05473 -4.15417 0
M  V30 41438 H 3831.22 -2.98846 -0.226093 0
M  V30 41439 H 3828.78 -1.61883 0.0234561 0
M  V30 41440 H 3830.77 -2.96249 -2.75715 0
M  V30 41441 H 3829.34 -1.9468 -2.44578 0
M  V30 41442 H 3828.56 -3.84997 -0.846836 0
M  V30 41443 H 3829.85 -4.84778 -1.54492 0
M  V30 41444 H 3829.25 -3.51418 -4.43308 0
M  V30 41445 H 3827.8 -4.34318 -4.86015 0
M  V30 41446 N 3831.24 0.0684638 -1.57451 0
M  V30 41447 C 3832.17 1.11294 -1.99221 0
M  V30 41448 C 3833.15 1.37387 -0.869681 0
M  V30 41449 O 3834.33 1.50705 -1.13227 0
M  V30 41450 C 3831.46 2.45656 -2.33176 0
M  V30 41451 C 3830.5 2.35675 -3.55471 0
M  V30 41452 S 3831.34 1.74768 -5.06178 0
M  V30 41453 C 3832.49 3.10701 -5.43337 0
M  V30 41454 H 3832.73 0.756986 -2.87501 0
M  V30 41455 H 3830.26 0.277113 -1.51893 0
M  V30 41456 H 3832.22 3.22943 -2.53413 0
M  V30 41457 H 3830.88 2.7841 -1.45418 0
M  V30 41458 H 3830.07 3.34769 -3.76757 0
M  V30 41459 H 3829.67 1.66524 -3.34882 0
M  V30 41460 H 3831.96 4.07017 -5.41612 0
M  V30 41461 H 3832.91 2.94192 -6.44094 0
M  V30 41462 H 3833.32 3.1146 -4.708 0
M  V30 41463 N 3832.71 1.5389 0.339928 0
M  V30 41464 C 3833.96 1.70526 1.0772 0
M  V30 41465 C 3834.28 0.477092 1.89692 0
M  V30 41466 O 3835.48 0.524471 2.66386 0
M  V30 41467 C 3833.94 3.01555 1.9645 0
M  V30 41468 C 3833.55 4.31722 1.19668 0
M  V30 41469 C 3835.29 3.27556 2.70013 0
M  V30 41470 C 3833.2 5.53822 2.07448 0
M  V30 41471 H 3832.13 0.635444 0.405866 0
M  V30 41472 H 3834.78 1.80389 0.336458 0
M  V30 41473 H 3833.16 2.85558 2.74359 0
M  V30 41474 H 3834.33 4.58433 0.466446 0
M  V30 41475 H 3832.65 4.12361 0.578579 0
M  V30 41476 H 3835.25 4.1597 3.35966 0
M  V30 41477 H 3835.59 2.44722 3.36774 0
M  V30 41478 H 3836.12 3.44346 1.99176 0
M  V30 41479 H 3832.86 6.39211 1.45223 0
M  V30 41480 H 3832.38 5.31354 2.78251 0
M  V30 41481 H 3834.06 5.89602 2.66417 0
M  V30 41482 N 3834.19 -0.601133 1.45685 0
M  V30 41483 C 3835.14 -1.71144 1.54849 0
M  V30 41484 C 3836.11 -1.61361 0.393943 0
M  V30 41485 O 3837.29 -1.80845 0.608254 0
M  V30 41486 C 3834.43 -3.09464 1.52728 0
M  V30 41487 C 3833.55 -3.30007 2.78782 0
M  V30 41488 C 3832.68 -4.5847 2.68289 0
M  V30 41489 C 3831.72 -4.72292 3.89367 0
M  V30 41490 N 3830.86 -5.92061 3.77369 0
M  V30 41491 H 3835.7 -1.62648 2.49699 0
M  V30 41492 H 3833.23 -0.792984 1.23896 0
M  V30 41493 H 3835.19 -3.895 1.49486 0
M  V30 41494 H 3833.82 -3.16902 0.614244 0
M  V30 41495 H 3832.87 -2.43703 2.92084 0
M  V30 41496 H 3834.19 -3.36093 3.68569 0
M  V30 41497 H 3833.34 -5.46709 2.63049 0
M  V30 41498 H 3832.08 -4.54792 1.76111 0
M  V30 41499 H 3831.08 -3.82476 3.94959 0
M  V30 41500 H 3832.31 -4.77762 4.82618 0
M  V30 41501 H 3830.26 -5.89417 2.87965 0
M  V30 41502 H 3830.17 -5.99335 4.60796 0
M  V30 41503 H 3831.44 -6.82781 3.76073 0
M  V30 41504 N 3835.67 -1.33083 -0.844196 0
M  V30 41505 C 3836.62 -1.22865 -1.97502 0
M  V30 41506 C 3837.61 -0.131171 -1.68891 0
M  V30 41507 O 3838.82 -0.294784 -1.7757 0
M  V30 41508 H 3835.19 -0.38114 -0.648256 0
M  V30 41509 H 3837.16 -2.18481 -2.03245 0
M  V30 41510 C 3835.91 -0.979287 -3.33624 0
M  V30 41511 H 3835.24 -1.81602 -3.56175 0
M  V30 41512 H 3836.68 -0.948079 -4.13264 0
M  V30 41513 C 3835.13 0.317863 -3.35397 0
M  V30 41514 O 3835.66 1.32632 -3.79172 0
M  V30 41515 N 3833.87 0.343526 -2.88562 0
M  V30 41516 H 3833.42 -0.477669 -2.53133 0
M  V30 41517 H 3833.38 1.21126 -2.90131 0
M  V30 41518 N 3837.15 1.06178 -1.16464 0
M  V30 41519 C 3838.09 2.13682 -0.872277 0
M  V30 41520 C 3839.06 1.65124 0.179755 0
M  V30 41521 O 3840.25 1.90748 0.0447071 0
M  V30 41522 C 3837.39 3.42993 -0.380788 0
M  V30 41523 C 3836.5 4.05278 -1.49578 0
M  V30 41524 C 3835.64 5.22468 -0.959191 0
M  V30 41525 C 3834.68 5.7674 -2.05031 0
M  V30 41526 N 3833.81 6.85244 -1.52922 0
M  V30 41527 H 3838.65 2.3803 -1.79292 0
M  V30 41528 H 3836.19 1.16786 -0.8944 0
M  V30 41529 H 3838.15 4.17128 -0.0774549 0
M  V30 41530 H 3836.78 3.18858 0.50291 0
M  V30 41531 H 3835.83 3.28679 -1.91506 0
M  V30 41532 H 3837.14 4.41609 -2.31912 0
M  V30 41533 H 3836.3 6.03635 -0.609109 0
M  V30 41534 H 3835.04 4.87587 -0.105172 0
M  V30 41535 H 3834.04 4.9421 -2.40908 0
M  V30 41536 H 3835.27 6.13672 -2.90831 0
M  V30 41537 H 3833.21 6.52279 -0.697754 0
M  V30 41538 H 3833.13 7.20523 -2.28872 0
M  V30 41539 H 3834.4 7.70087 -1.20776 0
M  V30 41540 N 3838.63 0.96331 1.24732 0
M  V30 41541 C 3839.57 0.481744 2.27557 0
M  V30 41542 C 3840.57 -0.452459 1.63246 0
M  V30 41543 O 3841.77 -0.328232 1.76982 0
M  V30 41544 H 3838.15 0.13731 0.739358 0
M  V30 41545 H 3840.12 1.36104 2.65553 0
M  V30 41546 C 3838.87 -0.216745 3.47024 0
M  V30 41547 H 3838.19 0.492986 3.96749 0
M  V30 41548 H 3839.63 -0.517585 4.20829 0
M  V30 41549 C 3838.09 -1.44223 3.04469 0
M  V30 41550 O 3838.62 -2.53951 3.11242 0
M  V30 41551 N 3836.83 -1.30669 2.59565 0
M  V30 41552 H 3836.37 -0.413906 2.54253 0
M  V30 41553 H 3836.33 -2.12779 2.31457 0
M  V30 41554 N 3840.1 -1.39522 0.732902 0
M  V30 41555 C 3841.03 -2.33256 0.106624 0
M  V30 41556 C 3842.01 -1.53802 -0.726555 0
M  V30 41557 O 3843.2 -1.82204 -0.671962 0
M  V30 41558 C 3840.33 -3.3789 -0.802991 0
M  V30 41559 C 3839.28 -4.27936 -0.0741296 0
M  V30 41560 C 3838.61 -5.2325 -1.10062 0
M  V30 41561 C 3839.91 -5.10969 1.08204 0
M  V30 41562 H 3841.6 -2.85879 0.889589 0
M  V30 41563 H 3839.15 -1.37454 0.429233 0
M  V30 41564 H 3841.1 -4.02414 -1.25064 0
M  V30 41565 H 3839.83 -2.83702 -1.61805 0
M  V30 41566 H 3838.49 -3.64888 0.353874 0
M  V30 41567 H 3838.13 -4.65359 -1.90919 0
M  V30 41568 H 3837.83 -5.84344 -0.617722 0
M  V30 41569 H 3839.36 -5.90651 -1.54801 0
M  V30 41570 H 3840.77 -5.6885 0.712935 0
M  V30 41571 H 3839.17 -5.81194 1.49443 0
M  V30 41572 H 3840.24 -4.45925 1.90471 0
M  V30 41573 N 3841.58 -0.480375 -1.501 0
M  V30 41574 C 3842.86 0.133422 -1.95144 0
M  V30 41575 C 3843.24 1.561 -1.42113 0
M  V30 41576 O 3842.59 2.19756 -0.626051 0
M  V30 41577 C 3842.8 0.0672291 -3.48935 0
M  V30 41578 C 3844.14 0.25149 -4.23855 0
M  V30 41579 O 3845.17 0.143384 -3.55911 0
M  V30 41580 O 3844.03 0.470851 -5.44468 0
M  V30 41581 H 3841.12 0.106604 -0.8201 0
M  V30 41582 H 3843.67 -0.541442 -1.60831 0
M  V30 41583 H 3842.44 -0.929125 -3.80109 0
M  V30 41584 H 3842.06 0.783145 -3.89811 0
M  V30 41585 N 3843.06 1.56149 -0.213351 0
M  V30 41586 C 3844.31 1.99132 0.41447 0
M  V30 41587 C 3844.66 1.09839 1.57966 0
M  V30 41588 O 3843.95 0.146599 1.91038 0
M  V30 41589 C 3844.15 3.45734 0.905703 0
M  V30 41590 C 3843.98 4.49208 -0.210346 0
M  V30 41591 C 3842.75 5.00784 -0.674035 0
M  V30 41592 C 3844.94 5.03967 -1.02575 0
M  V30 41593 N 3842.93 5.8795 -1.766 0
M  V30 41594 C 3844.3 5.87979 -1.96674 0
M  V30 41595 C 3846.35 4.86352 -1.06611 0
M  V30 41596 C 3845.06 6.56258 -2.94478 0
M  V30 41597 C 3847.08 5.55384 -2.0323 0
M  V30 41598 C 3846.44 6.39157 -2.96069 0
M  V30 41599 H 3842.54 0.772959 0.118568 0
M  V30 41600 H 3845.13 1.91998 -0.32324 0
M  V30 41601 H 3843.3 3.53332 1.6128 0
M  V30 41602 H 3845.03 3.75649 1.50565 0
M  V30 41603 H 3841.78 4.72863 -0.264093 0
M  V30 41604 H 3842.21 6.36235 -2.31373 0
M  V30 41605 H 3846.85 4.21245 -0.362283 0
M  V30 41606 H 3844.57 7.20553 -3.65827 0
M  V30 41607 H 3848.15 5.43724 -2.07016 0
M  V30 41608 H 3847.03 6.91633 -3.69613 0
M  V30 41609 N 3844.54 -0.0601128 1.57485 0
M  V30 41610 C 3845.79 -0.757037 1.87817 0
M  V30 41611 C 3846.11 -1.76984 0.806647 0
M  V30 41612 O 3845.37 -1.94715 -0.196066 0
M  V30 41613 C 3845.67 -1.49039 3.24842 0
M  V30 41614 C 3845.33 -0.616481 4.46666 0
M  V30 41615 C 3844 -0.375684 4.79731 0
M  V30 41616 C 3846.35 -0.0112156 5.21199 0
M  V30 41617 C 3843.68 0.479667 5.84736 0
M  V30 41618 C 3846.03 0.831657 6.27109 0
M  V30 41619 C 3844.69 1.08221 6.58669 0
M  V30 41620 H 3843.96 -0.27702 0.687271 0
M  V30 41621 H 3846.61 -0.0175256 1.91492 0
M  V30 41622 H 3844.91 -2.30241 3.17011 0
M  V30 41623 H 3846.61 -2.03463 3.45549 0
M  V30 41624 H 3843.2 -0.814297 4.20793 0
M  V30 41625 H 3847.38 -0.184342 4.95958 0
M  V30 41626 H 3842.64 0.682414 6.0758 0
M  V30 41627 H 3846.81 1.30734 6.84019 0
M  V30 41628 H 3844.44 1.74676 7.3986 0
M  V30 41629 N 3846.02 -1.54068 -0.331762 0
M  V30 41630 C 3847.43 -1.63205 -0.906691 0
M  V30 41631 C 3847.78 -0.52087 -1.8916 0
M  V30 41632 O 3846.9 0.34754 -2.13591 0
M  V30 41633 C 3847.5 -2.95835 -1.65127 0
M  V30 41634 C 3846.06 -3.07195 -2.17504 0
M  V30 41635 C 3845.2 -2.58725 -0.997834 0
M  V30 41636 H 3848.16 -1.58321 -0.109567 0
M  V30 41637 H 3848.18 -2.85536 -2.51495 0
M  V30 41638 H 3847.69 -3.76689 -0.934189 0
M  V30 41639 H 3845.79 -2.31 -2.92352 0
M  V30 41640 H 3845.9 -4.12862 -2.43067 0
M  V30 41641 H 3844.27 -2.14419 -1.37465 0
M  V30 41642 H 3845.05 -3.42028 -0.295201 0
M  V30 41643 N 3847.49 0.593399 -1.46002 0
M  V30 41644 C 3848.91 0.915655 -1.30721 0
M  V30 41645 C 3849.11 1.99673 -0.270714 0
M  V30 41646 O 3848.17 2.50329 0.330438 0
M  V30 41647 C 3849.48 1.34313 -2.69036 0
M  V30 41648 C 3851.03 1.45657 -2.77043 0
M  V30 41649 C 3851.5 1.91775 -4.15916 0
M  V30 41650 N 3852.99 1.98986 -4.18281 0
M  V30 41651 C 3853.73 2.35923 -5.22617 0
M  V30 41652 N 3853.22 2.71727 -6.37288 0
M  V30 41653 N 3855.02 2.36385 -5.09979 0
M  V30 41654 H 3847.17 -0.120919 -2.12056 0
M  V30 41655 H 3849.43 0.00856908 -0.947961 0
M  V30 41656 H 3849.14 0.622861 -3.46141 0
M  V30 41657 H 3849.01 2.30683 -2.98438 0
M  V30 41658 H 3851.4 2.16773 -2.00234 0
M  V30 41659 H 3851.48 0.475662 -2.51339 0
M  V30 41660 H 3851.12 1.21242 -4.93217 0
M  V30 41661 H 3851.05 2.90805 -4.39021 0
M  V30 41662 H 3853.54 1.73849 -3.35537 0
M  V30 41663 H 3853.86 2.98834 -7.12684 0
M  V30 41664 H 3852.2 2.6939 -6.40667 0
M  V30 41665 H 3855.39 2.07829 -4.19434 0
M  V30 41666 H 3855.57 2.64844 -5.91407 0
M  V30 41667 N 3848.97 1.33529 0.837127 0
M  V30 41668 C 3849.91 1.18267 1.95162 0
M  V30 41669 C 3850.88 0.077715 1.62414 0
M  V30 41670 O 3852.07 0.240273 1.86962 0
M  V30 41671 C 3849.19 0.814352 3.28764 0
M  V30 41672 C 3848.24 1.92705 3.80483 0
M  V30 41673 S 3849.07 3.5383 4.01951 0
M  V30 41674 C 3850.23 3.19009 5.38502 0
M  V30 41675 H 3850.46 2.12609 2.07809 0
M  V30 41676 H 3848 1.18391 0.991105 0
M  V30 41677 H 3849.95 0.608627 4.05963 0
M  V30 41678 H 3848.61 -0.110498 3.13906 0
M  V30 41679 H 3847.81 1.62275 4.77161 0
M  V30 41680 H 3847.41 2.08953 3.10185 0
M  V30 41681 H 3849.7 2.69942 6.214 0
M  V30 41682 H 3850.64 4.14774 5.73906 0
M  V30 41683 H 3851.05 2.5556 5.03338 0
M  V30 41684 N 3850.45 -1.05559 1.17026 0
M  V30 41685 C 3851.87 -1.30645 0.916741 0
M  V30 41686 C 3852.07 -1.96941 -0.426214 0
M  V30 41687 O 3851.12 -2.24068 -1.16404 0
M  V30 41688 C 3852.44 -2.17985 2.0713 0
M  V30 41689 C 3853.98 -2.31379 2.10791 0
M  V30 41690 C 3854.46 -3.22078 3.25622 0
M  V30 41691 N 3855.95 -3.29663 3.25387 0
M  V30 41692 C 3856.68 -3.99956 4.1088 0
M  V30 41693 N 3856.18 -4.72709 5.06476 0
M  V30 41694 N 3857.97 -3.96082 3.98842 0
M  V30 41695 H 3850.12 -0.609248 2.03475 0
M  V30 41696 H 3852.39 -0.331228 0.888252 0
M  V30 41697 H 3852.09 -1.76559 3.04171 0
M  V30 41698 H 3851.97 -3.18605 2.01917 0
M  V30 41699 H 3854.35 -2.72049 1.14338 0
M  V30 41700 H 3854.44 -1.30401 2.20066 0
M  V30 41701 H 3854.08 -2.82123 4.22338 0
M  V30 41702 H 3854.01 -4.23053 3.13583 0
M  V30 41703 H 3856.5 -2.77823 2.56169 0
M  V30 41704 H 3856.81 -5.23895 5.68114 0
M  V30 41705 H 3855.16 -4.71664 5.10449 0
M  V30 41706 H 3858.35 -3.38369 3.23456 0
M  V30 41707 H 3858.52 -4.50596 4.6569 0
M  V30 41708 N 3851.93 -0.969911 -1.2422 0
M  V30 41709 C 3852.89 -0.506725 -2.23528 0
M  V30 41710 C 3853.89 0.397941 -1.55798 0
M  V30 41711 O 3855.08 0.193093 -1.73127 0
M  V30 41712 C 3852.21 0.265884 -3.39862 0
M  V30 41713 H 3853.41 -1.38468 -2.6602 0
M  V30 41714 H 3850.96 -0.754722 -1.36871 0
M  V30 41715 H 3851.69 1.16084 -3.02812 0
M  V30 41716 H 3851.48 -0.383355 -3.90221 0
M  V30 41717 H 3852.97 0.578902 -4.13568 0
M  V30 41718 N 3853.41 1.39131 -0.740291 0
M  V30 41719 C 3854.34 2.2814 -0.0524412 0
M  V30 41720 C 3855.32 1.44672 0.742211 0
M  V30 41721 O 3856.5 1.74056 0.723654 0
M  V30 41722 C 3853.63 3.25601 0.932818 0
M  V30 41723 C 3852.67 4.25901 0.226014 0
M  V30 41724 S 3853.51 5.24828 -1.06378 0
M  V30 41725 C 3854.66 6.25847 -0.0812545 0
M  V30 41726 H 3854.9 2.8613 -0.807259 0
M  V30 41727 H 3852.43 1.44934 -0.532308 0
M  V30 41728 H 3854.39 3.82271 1.49597 0
M  V30 41729 H 3853.05 2.66619 1.66051 0
M  V30 41730 H 3852.24 4.94544 0.971725 0
M  V30 41731 H 3851.84 3.73058 -0.265251 0
M  V30 41732 H 3854.14 6.73254 0.757333 0
M  V30 41733 H 3855.08 7.04275 -0.734973 0
M  V30 41734 H 3855.49 5.63736 0.293507 0
M  V30 41735 N 3854.88 0.488329 1.49844 0
M  V30 41736 C 3856.11 -0.0600573 2.07313 0
M  V30 41737 C 3856.53 -1.31208 1.34782 0
M  V30 41738 O 3855.89 -1.76817 0.400665 0
M  V30 41739 C 3855.94 -0.309595 3.59269 0
M  V30 41740 O 3855.04 -1.38681 3.88383 0
M  V30 41741 H 3854.39 0.0206064 0.66368 0
M  V30 41742 H 3856.92 0.684318 1.92817 0
M  V30 41743 H 3856.93 -0.544929 4.04345 0
M  V30 41744 H 3855.6 0.605218 4.11473 0
M  V30 41745 H 3854.18 -1.13743 3.5513 0
M  V30 41746 N 3856.36 -1.56034 0.221629 0
M  V30 41747 C 3857.29 -2.23284 -0.683132 0
M  V30 41748 C 3858.27 -1.20458 -1.20099 0
M  V30 41749 O 3859.46 -1.49043 -1.24498 0
M  V30 41750 C 3856.59 -2.9128 -1.89137 0
M  V30 41751 C 3855.54 -4.00578 -1.50735 0
M  V30 41752 C 3854.87 -4.55871 -2.79438 0
M  V30 41753 C 3856.17 -5.17624 -0.697297 0
M  V30 41754 H 3857.86 -2.9915 -0.122435 0
M  V30 41755 H 3855.41 -1.43885 -0.0574479 0
M  V30 41756 H 3857.36 -3.37018 -2.52976 0
M  V30 41757 H 3856.09 -2.12862 -2.47704 0
M  V30 41758 H 3854.74 -3.55572 -0.89243 0
M  V30 41759 H 3854.39 -3.74183 -3.36149 0
M  V30 41760 H 3854.09 -5.29637 -2.54477 0
M  V30 41761 H 3855.62 -5.04327 -3.44219 0
M  V30 41762 H 3857.03 -5.59743 -1.23939 0
M  V30 41763 H 3855.43 -5.97622 -0.54477 0
M  V30 41764 H 3856.5 -4.83995 0.296066 0
M  V30 41765 N 3857.84 0.0517601 -1.57515 0
M  V30 41766 C 3859.09 0.748173 -1.88495 0
M  V30 41767 C 3859.42 1.762 -0.816525 0
M  V30 41768 O 3858.69 1.93746 0.17104 0
M  V30 41769 C 3858.98 1.43819 -3.30133 0
M  V30 41770 C 3858.83 0.439421 -4.47648 0
M  V30 41771 C 3860.15 2.37806 -3.70319 0
M  V30 41772 H 3857.27 0.270525 -0.685555 0
M  V30 41773 H 3859.91 0.0111123 -1.89997 0
M  V30 41774 H 3858.06 2.06645 -3.28983 0
M  V30 41775 H 3859.73 -0.185169 -4.60928 0
M  V30 41776 H 3857.98 -0.243457 -4.33116 0
M  V30 41777 H 3858.65 0.960254 -5.43584 0
M  V30 41778 H 3861.12 1.85043 -3.72691 0
M  V30 41779 H 3860 2.83079 -4.70274 0
M  V30 41780 H 3860.26 3.23495 -3.01336 0
M  V30 41781 N 3859.32 1.54242 0.323587 0
M  V30 41782 C 3860.54 1.76728 1.08545 0
M  V30 41783 C 3860.97 0.514407 1.80929 0
M  V30 41784 O 3860.33 -0.534039 1.73256 0
M  V30 41785 C 3860.38 2.9602 2.05923 0
M  V30 41786 O 3859.48 2.67564 3.1382 0
M  V30 41787 H 3858.82 0.585621 0.31296 0
M  V30 41788 H 3861.35 2.01265 0.367889 0
M  V30 41789 H 3861.36 3.23367 2.48793 0
M  V30 41790 H 3860.04 3.86877 1.52639 0
M  V30 41791 H 3858.61 2.51168 2.75625 0
M  V30 41792 N 3860.8 -0.585648 1.46314 0
M  V30 41793 C 3861.75 -1.71601 1.57021 0
M  V30 41794 C 3862.74 -1.63616 0.438866 0
M  V30 41795 O 3863.95 -1.69145 0.615627 0
M  V30 41796 H 3860.32 -0.567307 0.493626 0
M  V30 41797 H 3862.29 -1.59702 2.52067 0
M  V30 41798 C 3861.04 -3.09989 1.57487 0
M  V30 41799 H 3860.36 -3.16802 2.43878 0
M  V30 41800 H 3861.8 -3.88849 1.69034 0
M  V30 41801 C 3860.26 -3.35535 0.303003 0
M  V30 41802 O 3860.79 -3.97072 -0.607996 0
M  V30 41803 N 3859 -2.89966 0.191832 0
M  V30 41804 H 3858.55 -2.40069 0.934067 0
M  V30 41805 H 3858.5 -3.07431 -0.658287 0
M  V30 41806 N 3862.28 -1.33971 -0.830033 0
M  V30 41807 C 3863.19 -1.27015 -1.97242 0
M  V30 41808 C 3864.2 -0.179105 -1.73076 0
M  V30 41809 O 3865.38 -0.404297 -1.973 0
M  V30 41810 C 3862.44 -1.01833 -3.31408 0
M  V30 41811 C 3861.5 -2.20025 -3.68629 0
M  V30 41812 C 3860.74 -1.96034 -4.96393 0
M  V30 41813 O 3860.96 -0.915039 -5.63013 0
M  V30 41814 O 3859.89 -2.82801 -5.31326 0
M  V30 41815 H 3863.72 -2.23106 -2.06052 0
M  V30 41816 H 3861.3 -1.14106 -0.964379 0
M  V30 41817 H 3863.19 -0.895409 -4.11777 0
M  V30 41818 H 3861.86 -0.087766 -3.23581 0
M  V30 41819 H 3860.77 -2.37874 -2.88733 0
M  V30 41820 H 3862.1 -3.11446 -3.81133 0
M  V30 41821 N 3863.75 1.04937 -1.17584 0
M  V30 41822 C 3865 1.77633 -0.963901 0
M  V30 41823 C 3865.32 1.88253 0.508515 0
M  V30 41824 O 3864.59 1.40116 1.3691 0
M  V30 41825 H 3863.17 0.657984 -0.353647 0
M  V30 41826 H 3865.83 1.26691 -1.48106 0
M  V30 41827 H 3864.93 2.79217 -1.39443 0
M  V30 41828 N 3865.23 0.976485 1.23703 0
M  V30 41829 C 3866.14 0.521645 2.28727 0
M  V30 41830 C 3867.16 -0.421661 1.68814 0
M  V30 41831 O 3868.33 -0.292543 1.99264 0
M  V30 41832 C 3865.4 -0.172484 3.46271 0
M  V30 41833 C 3864.46 0.811738 4.21556 0
M  V30 41834 C 3863.69 0.15064 5.33487 0
M  V30 41835 O 3863.92 -1.05916 5.6048 0
M  V30 41836 O 3862.85 0.847236 5.95907 0
M  V30 41837 H 3866.68 1.39495 2.69768 0
M  V30 41838 H 3864.26 0.743932 1.29561 0
M  V30 41839 H 3866.14 -0.56203 4.17635 0
M  V30 41840 H 3864.82 -1.02062 3.07189 0
M  V30 41841 H 3863.72 1.25191 3.52531 0
M  V30 41842 H 3865.06 1.62856 4.64477 0
M  V30 41843 N 3866.71 -1.38737 0.747659 0
M  V30 41844 C 3867.96 -1.99852 0.300587 0
M  V30 41845 C 3868.28 -1.5964 -1.11983 0
M  V30 41846 O 3867.55 -0.850478 -1.76476 0
M  V30 41847 H 3866.13 -0.73913 0.108147 0
M  V30 41848 H 3868.79 -1.69593 0.960435 0
M  V30 41849 H 3867.89 -3.10028 0.35901 0
M  V30 41850 N 3868.19 -0.496268 -1.49583 0
M  V30 41851 C 3869.1 0.289363 -2.32809 0
M  V30 41852 C 3870.11 0.971908 -1.44326 0
M  V30 41853 O 3871.29 0.954335 -1.77354 0
M  V30 41854 C 3868.35 1.34263 -3.19647 0
M  V30 41855 C 3867.42 0.674025 -4.23976 0
M  V30 41856 C 3866.65 1.67711 -5.06664 0
M  V30 41857 O 3866.87 2.90645 -4.90797 0
M  V30 41858 O 3865.81 1.23504 -5.89093 0
M  V30 41859 H 3869.63 -0.391717 -3.01163 0
M  V30 41860 H 3867.22 -0.257678 -1.47161 0
M  V30 41861 H 3869.1 1.95213 -3.73457 0
M  V30 41862 H 3867.77 2.00672 -2.53993 0
M  V30 41863 H 3866.68 0.0249074 -3.74092 0
M  V30 41864 H 3868.01 0.0524577 -4.92172 0
M  V30 41865 N 3869.67 1.55914 -0.2299 0
M  V30 41866 C 3870.6 2.17951 0.709231 0
M  V30 41867 C 3871.61 1.15094 1.1514 0
M  V30 41868 O 3872.8 1.42036 1.08111 0
M  V30 41869 C 3869.9 2.75508 1.97354 0
M  V30 41870 C 3869.07 4.03617 1.68558 0
M  V30 41871 C 3868.13 4.45657 2.79778 0
M  V30 41872 O 3867.16 5.12385 2.47891 0
M  V30 41873 N 3868.36 4.12031 4.08914 0
M  V30 41874 H 3871.12 2.99168 0.17852 0
M  V30 41875 H 3868.69 1.61825 -0.0492073 0
M  V30 41876 H 3870.68 3.00598 2.70967 0
M  V30 41877 H 3869.25 1.98546 2.4145 0
M  V30 41878 H 3868.47 3.86295 0.785479 0
M  V30 41879 H 3869.76 4.87174 1.4676 0
M  V30 41880 H 3869.15 3.58426 4.37661 0
M  V30 41881 H 3867.71 4.41995 4.79044 0
M  V30 41882 N 3871.14 -0.043406 1.5754 0
M  V30 41883 C 3872.09 -1.06696 2.06685 0
M  V30 41884 C 3873.09 -1.38337 0.977715 0
M  V30 41885 O 3874.29 -1.3741 1.16269 0
M  V30 41886 H 3870.67 -0.361547 0.659384 0
M  V30 41887 H 3872.64 -0.626554 2.91748 0
M  V30 41888 C 3871.39 -2.36381 2.54989 0
M  V30 41889 H 3870.71 -2.12891 3.38404 0
M  V30 41890 H 3872.15 -3.06379 2.931 0
M  V30 41891 C 3870.61 -3.04343 1.44489 0
M  V30 41892 O 3871.14 -3.93593 0.802979 0
M  V30 41893 N 3869.34 -2.65432 1.18296 0
M  V30 41894 H 3868.89 -1.92941 1.70679 0
M  V30 41895 H 3868.85 -3.11224 0.44573 0
M  V30 41896 N 3872.62 -1.54412 -0.315402 0
M  V30 41897 C 3873.53 -1.874 -1.41133 0
M  V30 41898 C 3874.55 -0.766707 -1.56197 0
M  V30 41899 O 3875.72 -1.06179 -1.71137 0
M  V30 41900 C 3872.79 -2.10179 -2.75728 0
M  V30 41901 C 3871.85 -3.3395 -2.6977 0
M  V30 41902 C 3871.08 -3.55633 -3.97946 0
M  V30 41903 O 3871.31 -2.80598 -4.96609 0
M  V30 41904 O 3870.24 -4.49126 -4.00711 0
M  V30 41905 H 3874.07 -2.80607 -1.16162 0
M  V30 41906 H 3871.65 -1.4042 -0.510168 0
M  V30 41907 H 3873.53 -2.26445 -3.55388 0
M  V30 41908 H 3872.21 -1.20159 -3.00572 0
M  V30 41909 H 3871.11 -3.23062 -1.88632 0
M  V30 41910 H 3872.45 -4.24053 -2.4988 0
M  V30 41911 N 3874.1 0.57788 -1.46623 0
M  V30 41912 C 3875.35 1.33215 -1.51449 0
M  V30 41913 C 3875.66 1.94837 -0.172614 0
M  V30 41914 O 3876.87 2.71321 -0.0987055 0
M  V30 41915 C 3875.32 2.4146 -2.6688 0
M  V30 41916 C 3874.93 1.8612 -4.07509 0
M  V30 41917 C 3876.68 3.18198 -2.80981 0
M  V30 41918 C 3874.58 2.92022 -5.14273 0
M  V30 41919 H 3873.51 0.500812 -0.563652 0
M  V30 41920 H 3876.16 0.616155 -1.72846 0
M  V30 41921 H 3874.55 3.1588 -2.38822 0
M  V30 41922 H 3875.72 1.1821 -4.4538 0
M  V30 41923 H 3874.04 1.22033 -3.98117 0
M  V30 41924 H 3876.63 3.97243 -3.57913 0
M  V30 41925 H 3876.98 3.71091 -1.88672 0
M  V30 41926 H 3877.51 2.50886 -3.08709 0
M  V30 41927 H 3874.25 2.4401 -6.08391 0
M  V30 41928 H 3873.77 3.58406 -4.80942 0
M  V30 41929 H 3875.45 3.55887 -5.40327 0
M  V30 41930 N 3875.58 1.34409 0.822917 0
M  V30 41931 C 3876.99 1.14091 1.11604 0
M  V30 41932 C 3877.19 -0.057581 2.01418 0
M  V30 41933 O 3876.25 -0.733103 2.41623 0
M  V30 41934 C 3877.56 2.43614 1.76274 0
M  V30 41935 C 3879.11 2.4967 1.88769 0
M  V30 41936 C 3879.59 3.79195 2.56856 0
M  V30 41937 N 3881.08 3.80356 2.64355 0
M  V30 41938 C 3881.81 4.77297 3.17766 0
M  V30 41939 N 3881.31 5.8462 3.71741 0
M  V30 41940 N 3883.1 4.64752 3.16167 0
M  V30 41941 H 3875.25 2.11199 0.225518 0
M  V30 41942 H 3877.52 0.933951 0.162605 0
M  V30 41943 H 3877.22 3.31405 1.17744 0
M  V30 41944 H 3877.1 2.56954 2.76142 0
M  V30 41945 H 3879.48 1.62319 2.46448 0
M  V30 41946 H 3879.56 2.40259 0.878037 0
M  V30 41947 H 3879.21 4.66937 1.99831 0
M  V30 41948 H 3879.14 3.8589 3.58325 0
M  V30 41949 H 3881.63 3.02801 2.26097 0
M  V30 41950 H 3881.94 6.54604 4.10747 0
M  V30 41951 H 3880.29 5.88334 3.69985 0
M  V30 41952 H 3883.48 3.80056 2.73267 0
M  V30 41953 H 3883.65 5.40468 3.57488 0
M  V30 41954 N 3877.06 -1.04312 1.18139 0
M  V30 41955 C 3878.31 -1.76865 0.969613 0
M  V30 41956 C 3878.62 -1.8905 -0.501949 0
M  V30 41957 O 3879.82 -2.58432 -0.832173 0
M  V30 41958 C 3878.28 -3.17978 1.68576 0
M  V30 41959 C 3877.89 -3.13895 3.19647 0
M  V30 41960 C 3879.63 -3.94926 1.55671 0
M  V30 41961 C 3877.54 -4.49851 3.83912 0
M  V30 41962 H 3876.47 -0.662967 0.359153 0
M  V30 41963 H 3879.12 -1.1685 1.41486 0
M  V30 41964 H 3877.5 -3.78374 1.16828 0
M  V30 41965 H 3878.68 -2.62964 3.784 0
M  V30 41966 H 3876.99 -2.50446 3.32665 0
M  V30 41967 H 3879.59 -4.95463 2.01047 0
M  V30 41968 H 3879.93 -4.13182 0.508595 0
M  V30 41969 H 3880.46 -3.41099 2.04686 0
M  V30 41970 H 3877.2 -4.36801 4.88759 0
M  V30 41971 H 3876.72 -5.00895 3.29946 0
M  V30 41972 H 3878.4 -5.18772 3.86633 0
M  V30 41973 N 3878.53 -0.983032 -1.23184 0
M  V30 41974 C 3879.46 -0.544898 -2.27053 0
M  V30 41975 C 3880.45 0.423252 -1.6475 0
M  V30 41976 O 3881.63 0.316042 -1.91611 0
M  V30 41977 C 3878.76 0.150915 -3.46972 0
M  V30 41978 C 3877.71 -0.734781 -4.21646 0
M  V30 41979 C 3877.04 0.0933934 -5.34618 0
M  V30 41980 C 3878.34 -2.02687 -4.81368 0
M  V30 41981 H 3880.03 -1.4131 -2.63954 0
M  V30 41982 H 3877.58 -0.680917 -1.26884 0
M  V30 41983 H 3879.53 0.468751 -4.18785 0
M  V30 41984 H 3878.26 1.05359 -3.09139 0
M  V30 41985 H 3876.92 -1.03611 -3.51654 0
M  V30 41986 H 3876.56 0.996681 -4.93027 0
M  V30 41987 H 3876.26 -0.496122 -5.85502 0
M  V30 41988 H 3877.79 0.405551 -6.09252 0
M  V30 41989 H 3879.2 -1.77363 -5.45175 0
M  V30 41990 H 3877.6 -2.56438 -5.42549 0
M  V30 41991 H 3878.67 -2.71201 -4.01968 0
M  V30 41992 N 3880.01 1.38338 -0.755006 0
M  V30 41993 C 3880.94 2.29029 -0.0884239 0
M  V30 41994 C 3881.96 1.47816 0.682232 0
M  V30 41995 O 3883.15 1.70664 0.523087 0
M  V30 41996 C 3880.25 3.26765 0.898762 0
M  V30 41997 C 3879.42 4.37007 0.18545 0
M  V30 41998 C 3878.48 5.14922 1.08359 0
M  V30 41999 O 3877.5 5.66502 0.553587 0
M  V30 42000 N 3878.71 5.28038 2.41155 0
M  V30 42001 H 3881.47 2.86876 -0.8673 0
M  V30 42002 H 3879.03 1.50134 -0.605912 0
M  V30 42003 H 3881.02 3.75769 1.50266 0
M  V30 42004 H 3879.59 2.69807 1.57871 0
M  V30 42005 H 3878.81 3.8962 -0.599174 0
M  V30 42006 H 3880.1 5.07866 -0.308088 0
M  V30 42007 H 3879.5 4.87686 2.86669 0
M  V30 42008 H 3878.06 5.80411 2.96592 0
M  V30 42009 N 3881.49 0.504194 1.49317 0
M  V30 42010 C 3882.77 -0.102359 1.95332 0
M  V30 42011 C 3883.15 -1.53819 1.44579 0
M  V30 42012 O 3882.5 -2.18733 0.660933 0
M  V30 42013 C 3882.71 -0.011708 3.48998 0
M  V30 42014 C 3884.05 -0.184027 4.24201 0
M  V30 42015 O 3885.08 -0.086743 3.56094 0
M  V30 42016 O 3883.94 -0.384172 5.45148 0
M  V30 42017 H 3881.03 -0.0935437 0.821693 0
M  V30 42018 H 3883.58 0.56696 1.59949 0
M  V30 42019 H 3882.35 0.989479 3.78583 0
M  V30 42020 H 3881.97 -0.721031 3.91008 0
M  V30 42021 N 3882.97 -1.5579 0.238166 0
M  V30 42022 C 3883.92 -2.2101 -0.665059 0
M  V30 42023 C 3884.89 -1.17109 -1.17791 0
M  V30 42024 O 3886.07 -1.45526 -1.23397 0
M  V30 42025 C 3883.21 -2.90671 -1.86023 0
M  V30 42026 C 3882.32 -4.09206 -1.38473 0
M  V30 42027 C 3881.46 -4.66605 -2.53877 0
M  V30 42028 C 3880.5 -5.77407 -2.03145 0
M  V30 42029 N 3879.63 -6.29025 -3.11884 0
M  V30 42030 H 3884.47 -2.97825 -0.102189 0
M  V30 42031 H 3882.01 -1.47049 -0.0386805 0
M  V30 42032 H 3883.97 -3.29252 -2.5622 0
M  V30 42033 H 3882.6 -2.16345 -2.39572 0
M  V30 42034 H 3881.65 -3.75997 -0.577106 0
M  V30 42035 H 3882.96 -4.89221 -0.97286 0
M  V30 42036 H 3882.12 -5.07715 -3.3213 0
M  V30 42037 H 3880.86 -3.85787 -2.98361 0
M  V30 42038 H 3879.86 -5.35782 -1.2336 0
M  V30 42039 H 3881.09 -6.60069 -1.59641 0
M  V30 42040 H 3879.03 -5.51116 -3.55818 0
M  V30 42041 H 3878.95 -7.04209 -2.75001 0
M  V30 42042 H 3880.22 -6.74794 -3.90222 0
M  V30 42043 N 3884.45 0.0350506 -1.57561 0
M  V30 42044 C 3885.38 1.03713 -2.09203 0
M  V30 42045 C 3886.36 1.38089 -0.993255 0
M  V30 42046 O 3887.54 1.47077 -1.26815 0
M  V30 42047 C 3884.67 2.33986 -2.56648 0
M  V30 42048 C 3883.63 2.13868 -3.70735 0
M  V30 42049 C 3882.95 3.49848 -4.04364 0
M  V30 42050 C 3884.25 1.52973 -4.99396 0
M  V30 42051 H 3885.95 0.607258 -2.93177 0
M  V30 42052 H 3883.49 0.290658 -1.41036 0
M  V30 42053 H 3885.45 3.04412 -2.91395 0
M  V30 42054 H 3884.17 2.79021 -1.69749 0
M  V30 42055 H 3882.83 1.45875 -3.36327 0
M  V30 42056 H 3882.48 3.92521 -3.14541 0
M  V30 42057 H 3882.18 3.37215 -4.81207 0
M  V30 42058 H 3883.7 4.21647 -4.41641 0
M  V30 42059 H 3885.11 2.1331 -5.32139 0
M  V30 42060 H 3883.51 1.50932 -5.80809 0
M  V30 42061 H 3884.58 0.494909 -4.82368 0
M  V30 42062 N 3885.92 1.54577 0.307209 0
M  V30 42063 C 3886.87 1.85845 1.39873 0
M  V30 42064 C 3887.87 0.731657 1.52785 0
M  V30 42065 O 3889.07 0.915561 1.54976 0
M  V30 42066 H 3885.45 0.589347 0.467091 0
M  V30 42067 H 3887.42 2.77093 1.10734 0
M  V30 42068 C 3886.17 2.11697 2.75825 0
M  V30 42069 H 3885.49 2.97871 2.6667 0
M  V30 42070 H 3886.93 2.37519 3.51227 0
M  V30 42071 C 3885.39 0.913579 3.24277 0
M  V30 42072 O 3885.92 0.130973 4.01486 0
M  V30 42073 N 3884.13 0.720675 2.81522 0
M  V30 42074 H 3883.67 1.35874 2.18851 0
M  V30 42075 H 3883.63 -0.0829587 3.14291 0
M  V30 42076 N 3887.4 -0.570096 1.46927 0
M  V30 42077 C 3888.63 -1.35839 1.56725 0
M  V30 42078 C 3889.05 -1.86886 0.213347 0
M  V30 42079 O 3888.41 -1.62266 -0.808666 0
M  V30 42080 C 3888.46 -2.51319 2.58595 0
M  V30 42081 O 3887.56 -3.53152 2.12972 0
M  V30 42082 H 3886.9 -0.404023 0.526936 0
M  V30 42083 H 3889.43 -0.690274 1.92604 0
M  V30 42084 H 3889.44 -2.98065 2.78606 0
M  V30 42085 H 3888.12 -2.13519 3.56907 0
M  V30 42086 H 3886.7 -3.12799 2.03005 0
M  V30 42087 N 3888.88 -1.34844 -0.815777 0
M  V30 42088 C 3890.11 -1.30695 -1.60394 0
M  V30 42089 C 3890.52 0.117503 -1.88434 0
M  V30 42090 O 3889.88 1.06673 -1.48078 0
M  V30 42091 C 3889.93 -2.10257 -2.94065 0
M  V30 42092 O 3889.65 -3.47148 -2.67245 0
M  V30 42093 C 3891.15 -2.13588 -3.88452 0
M  V30 42094 H 3888.37 -0.449328 -0.498343 0
M  V30 42095 H 3890.92 -1.77563 -1.01447 0
M  V30 42096 H 3889.07 -1.67012 -3.49551 0
M  V30 42097 H 3889.49 -3.8836 -3.52529 0
M  V30 42098 H 3890.96 -2.73666 -4.79386 0
M  V30 42099 H 3891.44 -1.13217 -4.24357 0
M  V30 42100 H 3892.04 -2.56953 -3.38903 0
M  V30 42101 N 3890.36 1.03684 -1.1869 0
M  V30 42102 C 3891.29 2.11343 -0.860788 0
M  V30 42103 C 3892.27 1.61613 0.178856 0
M  V30 42104 O 3893.45 1.88414 0.0569569 0
M  V30 42105 C 3890.58 3.37484 -0.286804 0
M  V30 42106 C 3889.63 4.06069 -1.30424 0
M  V30 42107 S 3890.46 4.52627 -2.86163 0
M  V30 42108 C 3891.62 5.81996 -2.30286 0
M  V30 42109 H 3891.85 2.3868 -1.77255 0
M  V30 42110 H 3889.38 1.16507 -1.01318 0
M  V30 42111 H 3891.34 4.10483 0.0378494 0
M  V30 42112 H 3890 3.08255 0.603136 0
M  V30 42113 H 3889.19 4.96754 -0.851584 0
M  V30 42114 H 3888.8 3.39204 -1.57533 0
M  V30 42115 H 3891.09 6.56139 -1.68784 0
M  V30 42116 H 3892.03 6.3203 -3.19286 0
M  V30 42117 H 3892.44 5.37285 -1.73162 0
M  V30 42118 N 3891.84 0.989551 1.22661 0
M  V30 42119 C 3892.78 0.537033 2.24465 0
M  V30 42120 C 3893.75 -0.428879 1.60468 0
M  V30 42121 O 3894.94 -0.334385 1.87847 0
M  V30 42122 C 3892.08 -0.145465 3.44793 0
M  V30 42123 C 3891.19 0.86179 4.23317 0
M  V30 42124 C 3890.33 0.153155 5.30979 0
M  V30 42125 C 3889.37 1.14901 6.01219 0
M  V30 42126 N 3888.5 0.468905 7.00532 0
M  V30 42127 H 3893.34 1.40992 2.62536 0
M  V30 42128 H 3890.88 0.706314 1.29033 0
M  V30 42129 H 3892.84 -0.558055 4.13451 0
M  V30 42130 H 3891.47 -0.982159 3.07495 0
M  V30 42131 H 3890.52 1.39272 3.53988 0
M  V30 42132 H 3891.83 1.62027 4.71751 0
M  V30 42133 H 3890.99 -0.316336 6.05875 0
M  V30 42134 H 3889.73 -0.637855 4.83511 0
M  V30 42135 H 3888.73 1.62916 5.25108 0
M  V30 42136 H 3889.96 1.94083 6.50775 0
M  V30 42137 H 3887.9 -0.302729 6.55301 0
M  V30 42138 H 3887.82 1.16589 7.46956 0
M  V30 42139 H 3889.09 0.0221056 7.79497 0
M  V30 42140 N 3893.32 -1.37936 0.762332 0
M  V30 42141 C 3894.25 -2.32978 0.156077 0
M  V30 42142 C 3895.23 -1.55309 -0.693768 0
M  V30 42143 O 3896.41 -1.83588 -0.633163 0
M  V30 42144 C 3893.54 -3.39517 -0.731139 0
M  V30 42145 C 3892.5 -4.27997 0.0166586 0
M  V30 42146 C 3891.82 -5.25467 -0.989384 0
M  V30 42147 C 3893.12 -5.08559 1.19018 0
M  V30 42148 H 3894.82 -2.83928 0.950028 0
M  V30 42149 H 3892.36 -1.36513 0.458293 0
M  V30 42150 H 3894.31 -4.04976 -1.165 0
M  V30 42151 H 3893.04 -2.8707 -1.55751 0
M  V30 42152 H 3891.7 -3.64055 0.431192 0
M  V30 42153 H 3891.35 -4.69304 -1.81005 0
M  V30 42154 H 3891.05 -5.85523 -0.493635 0
M  V30 42155 H 3892.57 -5.93802 -1.42238 0
M  V30 42156 H 3893.98 -5.6721 0.833436 0
M  V30 42157 H 3892.38 -5.77894 1.61738 0
M  V30 42158 H 3893.45 -4.41784 1.99887 0
M  V30 42159 N 3894.79 -0.512106 -1.49048 0
M  V30 42160 C 3896.04 0.0284954 -2.0278 0
M  V30 42161 C 3896.37 1.35614 -1.39005 0
M  V30 42162 O 3895.65 1.87152 -0.529553 0
M  V30 42163 C 3895.93 0.16937 -3.59701 0
M  V30 42164 C 3895.78 -1.18218 -4.33987 0
M  V30 42165 C 3897.1 0.904737 -4.307 0
M  V30 42166 H 3894.22 0.00888172 -0.736946 0
M  V30 42167 H 3896.86 -0.665672 -1.77957 0
M  V30 42168 H 3895.01 0.7606 -3.80982 0
M  V30 42169 H 3896.69 -1.81315 -4.24173 0
M  V30 42170 H 3894.93 -1.76866 -3.96107 0
M  V30 42171 H 3895.6 -1.0368 -5.42176 0
M  V30 42172 H 3898.08 0.403198 -4.14142 0
M  V30 42173 H 3896.95 0.972169 -5.40222 0
M  V30 42174 H 3897.21 1.95101 -3.96722 0
M  V30 42175 N 3896.27 1.55662 -0.246424 0
M  V30 42176 C 3897.5 2.03784 0.385572 0
M  V30 42177 C 3897.92 1.12453 1.50784 0
M  V30 42178 O 3897.28 0.117402 1.80919 0
M  V30 42179 C 3897.33 3.49919 0.871142 0
M  V30 42180 O 3896.43 3.61718 1.98075 0
M  V30 42181 H 3895.77 0.658653 0.0840983 0
M  V30 42182 H 3898.3 2.01183 -0.372341 0
M  V30 42183 H 3898.31 3.9073 1.17448 0
M  V30 42184 H 3896.99 4.1587 0.0498866 0
M  V30 42185 H 3895.56 3.32804 1.68214 0
M  V30 42186 N 3897.75 -0.0266943 1.57577 0
M  V30 42187 C 3898.7 -1.03449 2.03181 0
M  V30 42188 C 3899.68 -1.31894 0.921556 0
M  V30 42189 O 3900.88 -1.3144 1.18544 0
M  V30 42190 C 3898 -2.33488 2.51671 0
M  V30 42191 C 3897.09 -2.08123 3.69521 0
M  V30 42192 N 3897.48 -1.52823 4.8216 0
M  V30 42193 C 3895.78 -2.38396 3.7694 0
M  V30 42194 C 3896.48 -1.43317 5.63769 0
M  V30 42195 N 3895.46 -1.90956 5.08956 0
M  V30 42196 H 3899.26 -0.600985 2.8769 0
M  V30 42197 H 3896.77 -0.23295 1.60721 0
M  V30 42198 H 3898.77 -3.06498 2.82603 0
M  V30 42199 H 3897.43 -2.77515 1.68568 0
M  V30 42200 H 3898.44 -1.21062 5.03552 0
M  V30 42201 H 3895.12 -2.85481 3.04642 0
M  V30 42202 H 3896.51 -1.01031 6.64261 0
M  V30 42203 N 3899.23 -1.54738 -0.299007 0
M  V30 42204 C 3900.16 -1.88828 -1.37354 0
M  V30 42205 C 3901.14 -0.747394 -1.52801 0
M  V30 42206 O 3902.32 -1.0033 -1.66275 0
M  V30 42207 C 3899.45 -2.13734 -2.73743 0
M  V30 42208 C 3898.41 -3.2958 -2.73059 0
M  V30 42209 C 3897.73 -3.39908 -4.12755 0
M  V30 42210 C 3899.03 -4.66636 -2.34623 0
M  V30 42211 H 3900.73 -2.78826 -1.09072 0
M  V30 42212 H 3898.27 -1.34157 -0.523253 0
M  V30 42213 H 3900.23 -2.36168 -3.49002 0
M  V30 42214 H 3898.95 -1.2051 -3.03554 0
M  V30 42215 H 3897.61 -3.07072 -2.00256 0
M  V30 42216 H 3897.26 -2.44197 -4.39746 0
M  V30 42217 H 3896.96 -4.17781 -4.13198 0
M  V30 42218 H 3898.48 -3.64605 -4.89791 0
M  V30 42219 H 3899.9 -4.88788 -2.99599 0
M  V30 42220 H 3898.29 -5.47237 -2.46275 0
M  V30 42221 H 3899.36 -4.67218 -1.2975 0
M  V30 42222 N 3900.71 0.562296 -1.47228 0
M  V30 42223 C 3901.93 1.34523 -1.57198 0
M  V30 42224 C 3902.35 1.8751 -0.220336 0
M  V30 42225 O 3901.71 1.64724 0.785635 0
M  V30 42226 C 3901.76 2.51867 -2.59317 0
M  V30 42227 O 3901.48 2.01071 -3.89233 0
M  V30 42228 C 3902.98 3.44148 -2.79423 0
M  V30 42229 H 3900.2 0.410248 -0.530978 0
M  V30 42230 H 3902.74 0.681646 -1.92805 0
M  V30 42231 H 3900.9 3.14174 -2.26657 0
M  V30 42232 H 3901.31 2.7764 -4.4499 0
M  V30 42233 H 3902.79 4.22914 -3.5475 0
M  V30 42234 H 3903.26 3.97373 -1.87061 0
M  V30 42235 H 3903.87 2.87661 -3.13259 0
M  V30 42236 N 3902.18 1.35274 0.808615 0
M  V30 42237 C 3903.15 1.27904 1.90193 0
M  V30 42238 C 3904.15 0.190943 1.59662 0
M  V30 42239 O 3905.34 0.444511 1.68433 0
M  V30 42240 C 3902.47 0.978164 3.26565 0
M  V30 42241 H 3903.66 2.25116 1.98148 0
M  V30 42242 H 3901.21 1.19769 1.00424 0
M  V30 42243 H 3901.95 0.00981489 3.24299 0
M  V30 42244 H 3901.73 1.76536 3.5011 0
M  V30 42245 H 3903.22 0.952142 4.06601 0
M  V30 42246 N 3903.66 -1.03053 1.19239 0
M  V30 42247 C 3904.59 -2.11367 0.886385 0
M  V30 42248 C 3905.61 -1.62355 -0.120228 0
M  V30 42249 O 3906.8 -1.78167 0.108965 0
M  V30 42250 C 3903.9 -3.37526 0.304878 0
M  V30 42251 C 3903.07 -4.15731 1.35964 0
M  V30 42252 C 3902.13 -5.20206 0.791977 0
M  V30 42253 O 3901.15 -5.4991 1.46926 0
M  V30 42254 N 3902.36 -5.79082 -0.405539 0
M  V30 42255 H 3905.12 -2.38208 1.81871 0
M  V30 42256 H 3902.68 -1.1933 1.09416 0
M  V30 42257 H 3904.67 -4.04603 -0.0886917 0
M  V30 42258 H 3903.24 -3.08045 -0.53169 0
M  V30 42259 H 3902.46 -3.43827 1.92812 0
M  V30 42260 H 3903.75 -4.6477 2.07042 0
M  V30 42261 H 3903.15 -5.57264 -0.973325 0
M  V30 42262 H 3901.71 -6.47575 -0.740907 0
M  V30 42263 N 3905.14 -0.996042 -1.22134 0
M  V30 42264 C 3906.07 -0.568949 -2.26462 0
M  V30 42265 C 3907.05 0.405754 -1.6519 0
M  V30 42266 O 3908.24 0.295701 -1.91936 0
M  V30 42267 C 3905.37 0.114105 -3.47113 0
M  V30 42268 C 3904.32 -0.779461 -4.20842 0
M  V30 42269 C 3903.65 0.0366847 -5.34687 0
M  V30 42270 C 3904.95 -2.07781 -4.79191 0
M  V30 42271 H 3906.64 -1.44102 -2.62441 0
M  V30 42272 H 3904.19 -0.694336 -1.26155 0
M  V30 42273 H 3906.14 0.424307 -4.19258 0
M  V30 42274 H 3904.86 1.02074 -3.10239 0
M  V30 42275 H 3903.52 -1.07335 -3.50535 0
M  V30 42276 H 3903.17 0.944333 -4.94056 0
M  V30 42277 H 3902.87 -0.558195 -5.84943 0
M  V30 42278 H 3904.39 0.340909 -6.09648 0
M  V30 42279 H 3905.81 -1.83135 -5.43263 0
M  V30 42280 H 3904.21 -2.62178 -5.39799 0
M  V30 42281 H 3905.28 -2.75449 -3.99069 0
M  V30 42282 N 3906.62 1.37529 -0.769636 0
M  V30 42283 C 3907.57 2.32165 -0.142252 0
M  V30 42284 C 3908.56 1.54829 0.687349 0
M  V30 42285 O 3909.77 1.70241 0.584647 0
M  V30 42286 H 3906.14 0.751507 -0.0272131 0
M  V30 42287 H 3908.11 2.82665 -0.956197 0
M  V30 42288 C 3906.86 3.40076 0.72415 0
M  V30 42289 H 3906.18 3.99687 0.0951615 0
M  V30 42290 H 3907.62 4.08661 1.13014 0
M  V30 42291 C 3906.08 2.79981 1.87383 0
M  V30 42292 O 3906.61 2.70562 2.96916 0
M  V30 42293 N 3904.82 2.37555 1.6738 0
M  V30 42294 H 3904.37 2.45415 0.782898 0
M  V30 42295 H 3904.32 1.97691 2.4447 0
M  V30 42296 N 3908.1 0.520003 1.48774 0
M  V30 42297 C 3909.01 -0.252288 2.3324 0
M  V30 42298 C 3910.02 -0.948824 1.45854 0
M  V30 42299 O 3911.2 -0.925998 1.7885 0
M  V30 42300 C 3908.26 -1.29161 3.21743 0
M  V30 42301 C 3907.32 -0.606489 4.24994 0
M  V30 42302 C 3906.56 -1.59629 5.09268 0
M  V30 42303 O 3906.78 -2.82801 4.95358 0
M  V30 42304 O 3905.71 -1.14116 5.90983 0
M  V30 42305 H 3909.54 0.43958 3.00502 0
M  V30 42306 H 3907.13 0.281057 1.46733 0
M  V30 42307 H 3909.01 -1.89247 3.76515 0
M  V30 42308 H 3907.68 -1.96606 2.57153 0
M  V30 42309 H 3906.59 0.0346105 3.74084 0
M  V30 42310 H 3907.92 0.0258492 4.92193 0
M  V30 42311 N 3909.57 -1.55529 0.254676 0
M  V30 42312 C 3910.5 -2.24682 -0.635617 0
M  V30 42313 C 3911.49 -1.22979 -1.17517 0
M  V30 42314 O 3912.67 -1.51651 -1.21308 0
M  V30 42315 C 3909.8 -2.95227 -1.82916 0
M  V30 42316 C 3908.75 -4.03685 -1.42205 0
M  V30 42317 C 3908.08 -4.61696 -2.69705 0
M  V30 42318 C 3909.38 -5.18987 -0.587345 0
M  V30 42319 H 3911.07 -2.99342 -0.0589537 0
M  V30 42320 H 3908.62 -1.43975 -0.0269147 0
M  V30 42321 H 3910.57 -3.42308 -2.45771 0
M  V30 42322 H 3909.3 -2.18068 -2.43133 0
M  V30 42323 H 3907.96 -3.57385 -0.816807 0
M  V30 42324 H 3907.6 -3.81229 -3.28136 0
M  V30 42325 H 3907.3 -5.34916 -2.43185 0
M  V30 42326 H 3908.83 -5.11515 -3.33444 0
M  V30 42327 H 3910.24 -5.62246 -1.12038 0
M  V30 42328 H 3908.64 -5.98643 -0.417882 0
M  V30 42329 H 3909.71 -4.83258 0.398662 0
M  V30 42330 N 3911.05 0.0183372 -1.57589 0
M  V30 42331 C 3912 1.0156 -2.07254 0
M  V30 42332 C 3912.97 1.35266 -0.963965 0
M  V30 42333 O 3914.15 1.45419 -1.23523 0
M  V30 42334 C 3911.29 2.30814 -2.56552 0
M  V30 42335 C 3910.41 2.03171 -3.81242 0
M  V30 42336 C 3909.54 3.26374 -4.19111 0
M  V30 42337 C 3908.58 2.94335 -5.36688 0
M  V30 42338 N 3907.72 4.1002 -5.69937 0
M  V30 42339 H 3912.56 0.585127 -2.92199 0
M  V30 42340 H 3910.1 0.277285 -1.44463 0
M  V30 42341 H 3912.05 3.0635 -2.83206 0
M  V30 42342 H 3910.68 2.71563 -1.74509 0
M  V30 42343 H 3909.74 1.18084 -3.61608 0
M  V30 42344 H 3911.05 1.75544 -4.66889 0
M  V30 42345 H 3910.2 4.1027 -4.46949 0
M  V30 42346 H 3908.94 3.57124 -3.32136 0
M  V30 42347 H 3907.95 2.08842 -5.08591 0
M  V30 42348 H 3909.17 2.64851 -6.25324 0
M  V30 42349 H 3907.12 4.40701 -4.85921 0
M  V30 42350 H 3907.03 3.85853 -6.50118 0
M  V30 42351 H 3908.3 4.94758 -6.02358 0
M  V30 42352 N 3912.53 1.54894 0.290797 0
M  V30 42353 C 3913.44 1.89621 1.38134 0
M  V30 42354 C 3914.46 0.79146 1.54958 0
M  V30 42355 O 3915.63 1.08888 1.69426 0
M  V30 42356 C 3912.7 2.14539 2.72349 0
M  V30 42357 C 3911.76 3.38199 2.64423 0
M  V30 42358 C 3910.99 3.61919 3.92238 0
M  V30 42359 O 3911.21 2.88463 4.92083 0
M  V30 42360 O 3910.15 4.55445 3.93515 0
M  V30 42361 H 3913.97 2.82419 1.11683 0
M  V30 42362 H 3911.56 1.41213 0.487764 0
M  V30 42363 H 3913.44 2.3207 3.51741 0
M  V30 42364 H 3912.12 1.24926 2.98622 0
M  V30 42365 H 3911.02 3.26022 1.83469 0
M  V30 42366 H 3912.36 4.27975 2.43102 0
M  V30 42367 N 3914.01 -0.55448 1.47524 0
M  V30 42368 C 3914.94 -1.6766 1.56277 0
M  V30 42369 C 3915.95 -1.56492 0.44877 0
M  V30 42370 O 3917.14 -1.63401 0.718507 0
M  V30 42371 C 3914.24 -3.06146 1.45354 0
M  V30 42372 C 3913.42 -3.43041 2.7137 0
M  V30 42373 C 3912.47 -4.60702 2.54245 0
M  V30 42374 O 3911.5 -4.65146 3.28067 0
M  V30 42375 N 3912.7 -5.57365 1.6225 0
M  V30 42376 H 3915.47 -1.60596 2.53039 0
M  V30 42377 H 3913.03 -0.741184 1.43938 0
M  V30 42378 H 3915.02 -3.82696 1.31628 0
M  V30 42379 H 3913.59 -3.07422 0.566637 0
M  V30 42380 H 3912.81 -2.55912 2.99838 0
M  V30 42381 H 3914.1 -3.64467 3.55023 0
M  V30 42382 H 3913.5 -5.56533 1.01429 0
M  V30 42383 H 3912.05 -6.3323 1.54475 0
M  V30 42384 N 3915.49 -1.35701 -0.80143 0
M  V30 42385 C 3916.42 -1.23399 -1.91958 0
M  V30 42386 C 3917.4 -0.120749 -1.62151 0
M  V30 42387 O 3918.58 -0.289758 -1.8626 0
M  V30 42388 C 3915.71 -0.901231 -3.2649 0
M  V30 42389 C 3914.75 -2.02725 -3.7524 0
M  V30 42390 S 3915.59 -3.64363 -3.92429 0
M  V30 42391 C 3916.74 -3.33174 -5.29854 0
M  V30 42392 H 3916.98 -2.18044 -2.02099 0
M  V30 42393 H 3914.51 -1.20977 -0.959367 0
M  V30 42394 H 3916.47 -0.716047 -4.04207 0
M  V30 42395 H 3915.13 0.0272329 -3.14088 0
M  V30 42396 H 3914.32 -1.74869 -4.72691 0
M  V30 42397 H 3913.92 -2.17103 -3.04536 0
M  V30 42398 H 3916.22 -2.86322 -6.14024 0
M  V30 42399 H 3917.16 -4.29845 -5.62707 0
M  V30 42400 H 3917.57 -2.68816 -4.96385 0
M  V30 42401 N 3916.96 1.02419 -1.19783 0
M  V30 42402 C 3918.19 1.79512 -1.02874 0
M  V30 42403 C 3918.61 1.84015 0.422355 0
M  V30 42404 O 3917.96 1.28761 1.29333 0
M  V30 42405 C 3918.02 3.24341 -1.5964 0
M  V30 42406 O 3917.74 3.20139 -2.9907 0
M  V30 42407 C 3919.24 4.18014 -1.47578 0
M  V30 42408 H 3916.46 0.564776 -0.362311 0
M  V30 42409 H 3919 1.28971 -1.58703 0
M  V30 42410 H 3917.16 3.72056 -1.07948 0
M  V30 42411 H 3917.57 4.10989 -3.25866 0
M  V30 42412 H 3919.04 5.17507 -1.9207 0
M  V30 42413 H 3919.52 4.37119 -0.427044 0
M  V30 42414 H 3920.13 3.76176 -1.98424 0
M  V30 42415 N 3918.44 1.0025 1.21604 0
M  V30 42416 C 3919.35 0.570044 2.27569 0
M  V30 42417 C 3920.37 -0.385758 1.6967 0
M  V30 42418 O 3921.55 -0.250211 1.9984 0
M  V30 42419 C 3918.61 -0.0989957 3.46559 0
M  V30 42420 C 3917.67 0.900974 4.19739 0
M  V30 42421 C 3916.9 0.263767 5.33048 0
M  V30 42422 O 3917.13 -0.940032 5.62601 0
M  V30 42423 O 3916.06 0.973447 5.93976 0
M  V30 42424 H 3919.89 1.45186 2.66748 0
M  V30 42425 H 3917.47 0.771247 1.27954 0
M  V30 42426 H 3919.35 -0.473317 4.18733 0
M  V30 42427 H 3918.03 -0.955231 3.09285 0
M  V30 42428 H 3916.94 1.32641 3.49796 0
M  V30 42429 H 3918.27 1.72672 4.60918 0
M  V30 42430 N 3919.92 -1.37119 0.776919 0
M  V30 42431 C 3920.85 -2.2886 0.124849 0
M  V30 42432 C 3921.87 -1.48882 -0.658629 0
M  V30 42433 O 3923.06 -1.71474 -0.49587 0
M  V30 42434 C 3920.16 -3.28154 -0.846663 0
M  V30 42435 C 3919.33 -4.37246 -0.115903 0
M  V30 42436 C 3918.39 -5.16581 -1.00153 0
M  V30 42437 O 3917.41 -5.67311 -0.463392 0
M  V30 42438 N 3918.62 -5.31808 -2.32724 0
M  V30 42439 H 3921.38 -2.8546 0.91283 0
M  V30 42440 H 3918.94 -1.49151 0.629721 0
M  V30 42441 H 3920.93 -3.78112 -1.44269 0
M  V30 42442 H 3919.5 -2.72284 -1.53558 0
M  V30 42443 H 3918.72 -3.88617 0.661083 0
M  V30 42444 H 3920.01 -5.07312 0.388846 0
M  V30 42445 H 3919.41 -4.92185 -2.78874 0
M  V30 42446 H 3917.97 -5.85056 -2.8732 0
M  V30 42447 N 3921.4 -0.527886 -1.48496 0
M  V30 42448 C 3922.82 -0.185601 -1.58517 0
M  V30 42449 C 3923.02 1.31107 -1.53014 0
M  V30 42450 O 3922.07 2.08916 -1.41811 0
M  V30 42451 C 3923.38 -0.78627 -2.90238 0
M  V30 42452 C 3924.93 -0.754813 -3.03762 0
M  V30 42453 C 3925.41 -1.33402 -4.38141 0
M  V30 42454 N 3926.9 -1.2959 -4.44703 0
M  V30 42455 C 3927.63 -1.71398 -5.47184 0
M  V30 42456 N 3927.13 -2.20925 -6.56631 0
M  V30 42457 N 3928.92 -1.62648 -5.38054 0
M  V30 42458 H 3921.07 -1.50063 -1.50316 0
M  V30 42459 H 3923.34 -0.624066 -0.713614 0
M  V30 42460 H 3923.04 -1.83696 -2.99915 0
M  V30 42461 H 3922.92 -0.26215 -3.76288 0
M  V30 42462 H 3925.3 0.287105 -2.937 0
M  V30 42463 H 3925.38 -1.31638 -2.19329 0
M  V30 42464 H 3925.03 -2.37486 -4.48958 0
M  V30 42465 H 3924.96 -0.748155 -5.21258 0
M  V30 42466 H 3927.45 -0.93331 -3.66194 0
M  V30 42467 H 3927.76 -2.50826 -7.30962 0
M  V30 42468 H 3926.11 -2.24917 -6.576 0
M  V30 42469 H 3929.3 -1.23754 -4.51445 0
M  V30 42470 H 3929.47 -1.95551 -6.17789 0
M  V30 42471 N 3922.88 1.55391 -0.26292 0
M  V30 42472 C 3923.82 2.2204 0.629814 0
M  V30 42473 C 3924.79 1.18968 1.15913 0
M  V30 42474 O 3925.98 1.4747 1.21067 0
M  V30 42475 C 3923.12 2.93593 1.81375 0
M  V30 42476 C 3922.23 4.11357 1.31945 0
M  V30 42477 C 3921.37 4.70584 2.46422 0
M  V30 42478 C 3920.41 5.80565 1.93933 0
M  V30 42479 N 3919.54 6.33908 3.01837 0
M  V30 42480 H 3924.38 2.9795 0.054795 0
M  V30 42481 H 3921.92 1.47092 0.0152814 0
M  V30 42482 H 3923.88 3.33287 2.5095 0
M  V30 42483 H 3922.51 2.20129 2.36099 0
M  V30 42484 H 3921.56 3.76867 0.517215 0
M  V30 42485 H 3922.87 4.90706 0.894907 0
M  V30 42486 H 3922.03 5.12935 3.24011 0
M  V30 42487 H 3920.77 3.90485 2.92186 0
M  V30 42488 H 3919.77 5.37677 1.1482 0
M  V30 42489 H 3921 6.62526 1.4912 0
M  V30 42490 H 3918.94 5.56707 3.47006 0
M  V30 42491 H 3918.86 7.08495 2.63762 0
M  V30 42492 H 3920.13 6.80917 3.79437 0
M  V30 42493 N 3924.36 -0.00997961 1.57597 0
M  V30 42494 C 3925.77 -0.365922 1.55349 0
M  V30 42495 C 3925.97 -1.75417 0.991518 0
M  V30 42496 O 3925.03 -2.44746 0.620937 0
M  V30 42497 C 3926.34 -0.25029 2.99657 0
M  V30 42498 C 3927.89 -0.325968 3.11298 0
M  V30 42499 C 3928.36 -0.239572 4.57373 0
M  V30 42500 N 3929.85 -0.297782 4.62242 0
M  V30 42501 C 3930.59 -0.254118 5.72837 0
M  V30 42502 N 3930.09 -0.161631 6.92611 0
M  V30 42503 N 3931.88 -0.305252 5.61271 0
M  V30 42504 H 3924.03 0.898287 1.9247 0
M  V30 42505 H 3926.29 0.343402 0.883617 0
M  V30 42506 H 3926 0.704468 3.44572 0
M  V30 42507 H 3925.87 -1.03637 3.62683 0
M  V30 42508 H 3928.26 -1.27117 2.66318 0
M  V30 42509 H 3928.34 0.489801 2.51067 0
M  V30 42510 H 3927.98 0.702038 5.03025 0
M  V30 42511 H 3927.91 -1.0737 5.15538 0
M  V30 42512 H 3930.41 -0.370999 3.76074 0
M  V30 42513 H 3930.72 -0.133937 7.72684 0
M  V30 42514 H 3929.06 -0.127402 6.94883 0
M  V30 42515 H 3932.25 -0.375631 4.6659 0
M  V30 42516 H 3932.43 -0.267757 6.47447 0
M  V30 42517 N 3925.83 -1.55046 -0.282578 0
M  V30 42518 C 3927.25 -1.46671 -0.629259 0
M  V30 42519 C 3927.45 -0.672965 -1.8993 0
M  V30 42520 O 3926.51 -0.18799 -2.51799 0
M  V30 42521 C 3927.82 -2.90803 -0.765122 0
M  V30 42522 C 3929.37 -3.00959 -0.859806 0
M  V30 42523 C 3929.84 -4.46325 -1.02752 0
M  V30 42524 N 3931.33 -4.50113 -1.09328 0
M  V30 42525 C 3932.07 -5.59795 -1.24168 0
M  V30 42526 N 3931.56 -6.79363 -1.35788 0
M  V30 42527 N 3933.36 -5.47518 -1.27202 0
M  V30 42528 H 3925.51 -2.05112 0.551628 0
M  V30 42529 H 3927.77 -0.929715 0.185294 0
M  V30 42530 H 3927.48 -3.51565 0.097493 0
M  V30 42531 H 3927.35 -3.39274 -1.64842 0
M  V30 42532 H 3929.74 -2.403 -1.7129 0
M  V30 42533 H 3929.82 -2.55755 0.0478933 0
M  V30 42534 H 3929.46 -5.07584 -0.179129 0
M  V30 42535 H 3929.39 -4.89176 -1.94973 0
M  V30 42536 H 3931.88 -3.63979 -1.01626 0
M  V30 42537 H 3932.2 -7.58706 -1.46918 0
M  V30 42538 H 3930.54 -6.82192 -1.3281 0
M  V30 42539 H 3933.73 -4.53049 -1.17748 0
M  V30 42540 H 3933.91 -6.33043 -1.38424 0
M  V30 42541 N 3927.31 0.546649 -1.47816 0
M  V30 42542 C 3928.24 1.66829 -1.57164 0
M  V30 42543 C 3929.26 1.56252 -0.457063 0
M  V30 42544 O 3930.45 1.63017 -0.727162 0
M  V30 42545 C 3927.55 3.05371 -1.46975 0
M  V30 42546 C 3926.72 3.41597 -2.73186 0
M  V30 42547 C 3925.78 4.59347 -2.56684 0
M  V30 42548 O 3924.8 4.634 -3.30529 0
M  V30 42549 N 3926.01 5.56496 -1.65203 0
M  V30 42550 H 3928.77 1.59252 -2.53887 0
M  V30 42551 H 3926.33 0.73354 -1.44329 0
M  V30 42552 H 3928.32 3.81993 -1.33655 0
M  V30 42553 H 3926.89 3.07117 -0.582932 0
M  V30 42554 H 3926.11 2.54318 -3.01191 0
M  V30 42555 H 3927.4 3.62579 -3.56951 0
M  V30 42556 H 3926.8 5.55987 -1.04379 0
M  V30 42557 H 3925.36 6.32402 -1.57831 0
M  V30 42558 N 3928.79 1.36124 0.794222 0
M  V30 42559 C 3930.21 1.16433 1.09158 0
M  V30 42560 C 3930.41 -0.0148443 2.01495 0
M  V30 42561 O 3929.46 -0.681687 2.43124 0
M  V30 42562 C 3930.77 2.47298 1.71067 0
M  V30 42563 C 3932.32 2.53618 1.83431 0
M  V30 42564 C 3932.8 3.84558 2.48755 0
M  V30 42565 N 3934.29 3.85878 2.56228 0
M  V30 42566 C 3935.02 4.8393 3.07571 0
M  V30 42567 N 3934.52 5.92374 3.59257 0
M  V30 42568 N 3936.31 4.71354 3.06238 0
M  V30 42569 H 3928.46 2.1163 0.180668 0
M  V30 42570 H 3930.73 0.93719 0.142758 0
M  V30 42571 H 3930.43 3.33828 1.10688 0
M  V30 42572 H 3930.31 2.62754 2.7063 0
M  V30 42573 H 3932.69 1.6751 2.4295 0
M  V30 42574 H 3932.77 2.42067 0.826877 0
M  V30 42575 H 3932.42 4.7107 1.89882 0
M  V30 42576 H 3932.35 3.93403 3.50059 0
M  V30 42577 H 3934.84 3.07529 2.19623 0
M  V30 42578 H 3935.15 6.63169 3.9677 0
M  V30 42579 H 3933.5 5.96049 3.57422 0
M  V30 42580 H 3936.69 3.85767 2.65144 0
M  V30 42581 H 3936.86 5.4793 3.45944 0
M  V30 42582 N 3930.27 -1.01782 1.20325 0
M  V30 42583 C 3931.2 -2.12176 0.974856 0
M  V30 42584 C 3932.18 -1.6983 -0.0957338 0
M  V30 42585 O 3933.36 -1.94102 0.0615304 0
M  V30 42586 C 3930.49 -3.43312 0.524799 0
M  V30 42587 C 3929.45 -3.99393 1.53849 0
M  V30 42588 C 3928.77 -5.26281 0.945113 0
M  V30 42589 C 3930.07 -4.32925 2.92187 0
M  V30 42590 H 3931.77 -2.31541 1.89814 0
M  V30 42591 H 3929.31 -1.11271 0.914045 0
M  V30 42592 H 3931.27 -4.19925 0.352255 0
M  V30 42593 H 3929.99 -3.23702 -0.434104 0
M  V30 42594 H 3928.65 -3.24886 1.69837 0
M  V30 42595 H 3928.3 -5.02995 -0.0216825 0
M  V30 42596 H 3928 -5.64767 1.62211 0
M  V30 42597 H 3929.52 -6.05551 0.78361 0
M  V30 42598 H 3930.94 -5.00431 2.79717 0
M  V30 42599 H 3929.33 -4.82521 3.56781 0
M  V30 42600 H 3930.4 -3.41746 3.44003 0
M  V30 42601 N 3931.75 -1.00894 -1.21071 0
M  V30 42602 C 3932.99 -0.692514 -1.89865 0
M  V30 42603 C 3933.31 0.779531 -1.78741 0
M  V30 42604 O 3932.58 1.56007 -1.18485 0
M  V30 42605 H 3931.16 -0.253157 -0.702795 0
M  V30 42606 H 3933.83 -1.2789 -1.47072 0
M  V30 42607 H 3932.92 -0.96915 -2.96671 0
M  V30 42608 N 3933.22 1.36705 -0.78418 0
M  V30 42609 C 3934.47 1.99379 -0.354168 0
M  V30 42610 C 3934.8 1.62243 1.07273 0
M  V30 42611 O 3934.05 0.866348 1.75479 0
M  V30 42612 C 3934.35 3.54439 -0.459067 0
M  V30 42613 C 3934.02 4.1138 -1.84601 0
M  V30 42614 C 3932.68 4.26644 -2.2255 0
M  V30 42615 C 3935.03 4.42472 -2.75441 0
M  V30 42616 C 3932.36 4.70308 -3.50752 0
M  V30 42617 C 3934.71 4.87567 -4.03065 0
M  V30 42618 C 3933.38 5.01036 -4.41043 0
M  V30 42619 H 3932.65 0.729579 -0.129599 0
M  V30 42620 H 3935.29 1.63278 -1.00062 0
M  V30 42621 H 3933.6 3.90862 0.270901 0
M  V30 42622 H 3935.3 4.00856 -0.107463 0
M  V30 42623 H 3931.89 3.99935 -1.5411 0
M  V30 42624 H 3936.07 4.30254 -2.47377 0
M  V30 42625 H 3931.33 4.78924 -3.80055 0
M  V30 42626 H 3935.5 5.1059 -4.73572 0
M  V30 42627 H 3933.13 5.3463 -5.4044 0
M  V30 42628 N 3934.7 0.535753 1.48214 0
M  V30 42629 C 3935.95 0.0037687 2.028 0
M  V30 42630 C 3936.28 -1.33386 1.41145 0
M  V30 42631 O 3935.56 -1.86286 0.55926 0
M  V30 42632 C 3935.84 -0.112123 3.59925 0
M  V30 42633 C 3935.69 1.25108 4.32051 0
M  V30 42634 C 3937.01 -0.836102 4.32085 0
M  V30 42635 H 3934.13 0.00284358 0.736995 0
M  V30 42636 H 3936.77 0.693899 1.76876 0
M  V30 42637 H 3934.92 -0.699893 3.82144 0
M  V30 42638 H 3936.59 1.8804 4.21235 0
M  V30 42639 H 3934.84 1.83145 3.93243 0
M  V30 42640 H 3935.51 1.12293 5.40458 0
M  V30 42641 H 3937.98 -0.33726 4.14731 0
M  V30 42642 H 3936.86 -0.886101 5.41701 0
M  V30 42643 H 3937.12 -1.88764 3.99775 0
M  V30 42644 N 3936.18 -1.5525 0.271158 0
M  V30 42645 C 3937.46 -1.91501 -0.398341 0
M  V30 42646 C 3937.84 -1.19494 -1.74024 0
M  V30 42647 O 3937.19 -0.320465 -2.26242 0
M  V30 42648 C 3937.4 -3.44757 -0.542529 0
M  V30 42649 C 3938.74 -4.16463 -0.827253 0
M  V30 42650 O 3939.77 -3.5063 -0.627486 0
M  V30 42651 O 3938.63 -5.32957 -1.20907 0
M  V30 42652 H 3935.72 -0.797896 -0.217465 0
M  V30 42653 H 3938.27 -1.66713 0.317018 0
M  V30 42654 H 3937.04 -3.8923 0.401995 0
M  V30 42655 H 3936.66 -3.75486 -1.30751 0
M  V30 42656 N 3937.66 0.00162173 -1.576 0
M  V30 42657 C 3938.9 0.687826 -1.90779 0
M  V30 42658 C 3939.24 1.73513 -0.872169 0
M  V30 42659 O 3938.51 1.94193 0.109315 0
M  V30 42660 C 3938.8 1.33244 -3.34542 0
M  V30 42661 C 3938.65 0.296783 -4.4882 0
M  V30 42662 C 3939.97 2.25905 -3.77697 0
M  V30 42663 H 3937.09 0.248577 -0.693814 0
M  V30 42664 H 3939.73 -0.0493393 -1.89936 0
M  V30 42665 H 3937.88 1.96074 -3.35391 0
M  V30 42666 H 3939.55 -0.331716 -4.60106 0
M  V30 42667 H 3937.79 -0.381126 -4.32123 0
M  V30 42668 H 3938.46 0.786831 -5.46363 0
M  V30 42669 H 3940.94 1.73093 -3.78389 0
M  V30 42670 H 3939.82 2.67974 -4.79042 0
M  V30 42671 H 3940.08 3.13745 -3.11475 0
M  V30 42672 N 3939.14 1.55194 0.274352 0
M  V30 42673 C 3940.07 1.8439 1.36136 0
M  V30 42674 C 3941.08 0.72832 1.456 0
M  V30 42675 O 3942.27 1.00615 1.47441 0
M  V30 42676 C 3939.37 1.99065 2.74274 0
M  V30 42677 C 3938.54 3.29711 2.87418 0
M  V30 42678 C 3937.6 3.34468 4.06223 0
M  V30 42679 O 3936.63 4.07852 3.97046 0
M  V30 42680 N 3937.83 2.61773 5.18126 0
M  V30 42681 H 3940.6 2.78213 1.11436 0
M  V30 42682 H 3938.16 1.55095 0.464465 0
M  V30 42683 H 3940.15 1.99619 3.52043 0
M  V30 42684 H 3938.72 1.12115 2.91803 0
M  V30 42685 H 3937.94 3.41707 1.96545 0
M  V30 42686 H 3939.23 4.15876 2.93129 0
M  V30 42687 H 3938.62 2.01833 5.28469 0
M  V30 42688 H 3937.18 2.68052 5.94131 0
M  V30 42689 N 3940.61 -0.538802 1.48104 0
M  V30 42690 C 3941.56 -1.66519 1.62401 0
M  V30 42691 C 3942.56 -1.62137 0.490698 0
M  V30 42692 O 3943.76 -1.67101 0.669128 0
M  V30 42693 H 3940.14 -0.551316 0.511425 0
M  V30 42694 H 3942.11 -1.51601 2.57021 0
M  V30 42695 C 3940.86 -3.04822 1.6727 0
M  V30 42696 H 3940.18 -3.08883 2.53833 0
M  V30 42697 H 3941.62 -3.83275 1.81319 0
M  V30 42698 C 3940.08 -3.34401 0.409598 0
M  V30 42699 O 3940.61 -3.98805 -0.481363 0
M  V30 42700 N 3938.82 -2.89209 0.283985 0
M  V30 42701 H 3938.36 -2.36975 1.00997 0
M  V30 42702 H 3938.32 -3.0937 -0.560147 0
M  V30 42703 N 3942.09 -1.36544 -0.786992 0
M  V30 42704 C 3943.33 -1.32292 -1.55814 0
M  V30 42705 C 3943.7 0.0960822 -1.91759 0
M  V30 42706 O 3944.9 0.263173 -2.67509 0
M  V30 42707 C 3943.17 -2.22203 -2.7993 0
M  V30 42708 S 3944.73 -2.35658 -3.7015 0
M  V30 42709 H 3941.55 -0.469857 -0.533625 0
M  V30 42710 H 3944.15 -1.7214 -0.926725 0
M  V30 42711 H 3942.85 -3.24248 -2.51578 0
M  V30 42712 H 3942.38 -1.83384 -3.48043 0
M  V30 42713 H 3944.4 -1.55587 -4.71176 0
M  V30 42714 N 3943.57 1.01143 -1.20863 0
M  V30 42715 C 3944.82 1.74233 -1.01617 0
M  V30 42716 C 3945.13 1.90314 0.45165 0
M  V30 42717 O 3946.34 2.60548 0.763362 0
M  V30 42718 C 3944.79 3.13397 -1.76948 0
M  V30 42719 C 3944.4 3.0531 -3.27857 0
M  V30 42720 C 3946.15 3.9066 -1.66087 0
M  V30 42721 C 3944.05 4.39514 -3.95704 0
M  V30 42722 H 3942.98 0.653212 -0.376604 0
M  V30 42723 H 3945.63 1.13058 -1.44535 0
M  V30 42724 H 3944.02 3.75144 -1.26819 0
M  V30 42725 H 3945.19 2.52839 -3.85239 0
M  V30 42726 H 3943.51 2.41537 -3.39188 0
M  V30 42727 H 3946.1 4.89959 -2.14113 0
M  V30 42728 H 3946.45 4.11688 -0.617964 0
M  V30 42729 H 3946.98 3.35552 -2.13657 0
M  V30 42730 H 3943.72 4.23689 -5.00168 0
M  V30 42731 H 3943.24 4.91971 -3.4311 0
M  V30 42732 H 3944.92 5.08339 -4.00251 0
M  V30 42733 N 3945.05 1.01535 1.20534 0
M  V30 42734 C 3946.27 0.722942 1.94392 0
M  V30 42735 C 3946.7 -0.709827 1.74193 0
M  V30 42736 O 3946.06 -1.48826 1.0354 0
M  V30 42737 C 3946.1 1.06237 3.44596 0
M  V30 42738 O 3945.21 0.173359 4.12035 0
M  V30 42739 H 3944.55 0.268355 0.607356 0
M  V30 42740 H 3947.08 1.35838 1.53001 0
M  V30 42741 H 3947.09 1.01355 3.9521 0
M  V30 42742 H 3945.76 2.10628 3.58621 0
M  V30 42743 H 3944.34 0.279595 3.7185 0
M  V30 42744 N 3946.53 -1.36288 0.791419 0
M  V30 42745 C 3947.94 -1.52419 0.473335 0
M  V30 42746 C 3948.14 -1.74474 -1.00802 0
M  V30 42747 O 3947.2 -1.7774 -1.79345 0
M  V30 42748 C 3948.51 -2.70881 1.30552 0
M  V30 42749 C 3950.06 -2.84753 1.29941 0
M  V30 42750 C 3950.53 -4.06221 2.11538 0
M  V30 42751 N 3952.03 -4.13371 2.08994 0
M  V30 42752 C 3952.76 -5.0644 2.68898 0
M  V30 42753 N 3952.26 -6.0494 3.37668 0
M  V30 42754 N 3954.05 -4.99071 2.58621 0
M  V30 42755 H 3946.2 -1.20226 1.75098 0
M  V30 42756 H 3948.46 -0.586977 0.74442 0
M  V30 42757 H 3948.17 -2.61113 2.35612 0
M  V30 42758 H 3948.04 -3.65088 0.948204 0
M  V30 42759 H 3950.43 -2.93981 0.256723 0
M  V30 42760 H 3950.51 -1.91448 1.6965 0
M  V30 42761 H 3950.16 -3.97754 3.15839 0
M  V30 42762 H 3950.09 -4.98678 1.69198 0
M  V30 42763 H 3952.58 -3.42849 1.58944 0
M  V30 42764 H 3952.89 -6.72522 3.80702 0
M  V30 42765 H 3951.23 -6.05159 3.4177 0
M  V30 42766 H 3954.43 -4.2107 2.04494 0
M  V30 42767 H 3954.6 -5.71414 3.05597 0
M  V30 42768 O 3948.04 -0.684825 -1.46261 0
M  V30 42769 H 3948.73 -0.220151 -1.92445 0
M  V30 END ATOM
M  V30 BEGIN BOND
M  V30 END BOND
M  V30 END CTAB
M  END
$$$$
