drugbank_target|O94788 Retinal dehydrogenase 2 (DB00157; DB00162; DB00755)
 OpenBabel12092119333D

  0  0  0     0  0            999 V3000
M  V30 BEGIN CTAB
M  V30 COUNTS 7971 8055 0 0 0
M  V30 BEGIN ATOM
M  V30 1 H -0.908 1.98254 -0.117106 0
M  V30 2 N 0 1.576 0 0
M  V30 3 C 0.933 2.03868 1.02534 0
M  V30 4 C 1.911 0.928543 1.3348 0
M  V30 5 O 3.095 1.19667 1.45644 0
M  V30 6 C 0.222 2.43627 2.35294 0
M  V30 7 C -0.732 3.65373 2.2001 0
M  V30 8 S 0.101 5.13292 1.52614 0
M  V30 9 C 1.257 5.56322 2.86805 0
M  V30 10 H 1.49 2.90518 0.631377 0
M  V30 11 H -0.977 1.52953 0.210867 0
M  V30 12 H 0.981 2.67203 3.11629 0
M  V30 13 H -0.358 1.57376 2.7183 0
M  V30 14 H -1.165 3.90944 3.18086 0
M  V30 15 H -1.563 3.418 1.51819 0
M  V30 16 H 0.729 5.58782 3.83104 0
M  V30 17 H 1.672 6.56266 2.65933 0
M  V30 18 H 2.08 4.83886 2.90714 0
M  V30 19 N 1.4781 -0.272755 1.55222 0
M  V30 20 C 2.7061 -1.02255 1.79865 0
M  V30 21 C 3.1211 -1.79924 0.572088 0
M  V30 22 O 2.4781 -1.76638 -0.458842 0
M  V30 23 C 2.5291 -1.98094 3.02392 0
M  V30 24 O 2.2501 -1.23572 4.20311 0
M  V30 25 C 3.7511 -2.84884 3.39641 0
M  V30 26 H 0.9711 -0.302057 0.599168 0
M  V30 27 H 3.5151 -0.303465 2.02236 0
M  V30 28 H 1.6701 -2.65465 2.82147 0
M  V30 29 H 2.0841 -1.88172 4.89583 0
M  V30 30 H 3.5581 -3.47927 4.28545 0
M  V30 31 H 4.0351 -3.54665 2.59055 0
M  V30 32 H 4.6411 -2.23003 3.62146 0
M  V30 33 N 2.9562 -1.48159 -0.537278 0
M  V30 34 C 4.1812 -1.59707 -1.32319 0
M  V30 35 C 4.6062 -0.254859 -1.86365 0
M  V30 36 O 3.9642 0.772378 -1.64024 0
M  V30 37 C 4.0122 -2.6412 -2.45505 0
M  V30 38 O 3.1162 -2.20774 -3.48328 0
M  V30 39 H 2.4572 -0.535791 -0.392204 0
M  V30 40 H 4.9872 -1.94092 -0.647268 0
M  V30 41 H 4.9972 -2.85166 -2.91795 0
M  V30 42 H 3.6722 -3.61567 -2.05528 0
M  V30 43 H 2.2492 -2.09911 -3.08207 0
M  V30 44 N 4.4343 0.785586 -1.36625 0
M  V30 45 C 5.6593 1.57963 -1.34397 0
M  V30 46 C 6.0843 1.87964 0.071526 0
M  V30 47 O 5.4423 1.48182 1.0446 0
M  V30 48 C 5.4903 2.87511 -2.17646 0
M  V30 49 O 4.5943 3.81281 -1.57158 0
M  V30 50 H 3.9353 0.479014 -0.459828 0
M  V30 51 H 6.4653 0.973411 -1.79961 0
M  V30 52 H 6.4753 3.36745 -2.30362 0
M  V30 53 H 5.1503 2.65002 -3.20541 0
M  V30 54 H 3.7273 3.39885 -1.53403 0
M  V30 55 N 5.9124 1.20967 1.01018 0
M  V30 56 C 6.8594 0.964281 2.09691 0
M  V30 57 C 7.8294 -0.107853 1.65749 0
M  V30 58 O 9.0144 0.0381987 1.90762 0
M  V30 59 C 6.1544 0.52943 3.41015 0
M  V30 60 C 5.2674 1.67043 3.98398 0
M  V30 61 C 4.4024 1.18525 5.17808 0
M  V30 62 C 3.4414 2.29892 5.67288 0
M  V30 63 N 2.5784 1.82546 6.77954 0
M  V30 64 H 7.4184 1.89463 2.30017 0
M  V30 65 H 4.9554 0.944289 1.1279 0
M  V30 66 H 6.9134 0.258588 4.16398 0
M  V30 67 H 5.5434 -0.363919 3.20742 0
M  V30 68 H 4.5954 2.05603 3.20049 0
M  V30 69 H 5.9074 2.50877 4.31117 0
M  V30 70 H 5.0614 0.870762 6.00419 0
M  V30 71 H 3.8004 0.316887 4.86669 0
M  V30 72 H 2.8054 2.6215 4.83278 0
M  V30 73 H 4.0304 3.17216 6.00459 0
M  V30 74 H 1.9764 0.980454 6.48632 0
M  V30 75 H 1.8934 2.59956 7.09901 0
M  V30 76 H 3.1614 1.54115 7.64113 0
M  V30 77 N 7.3905 -1.2043 1.01659 0
M  V30 78 C 8.6395 -1.89118 0.701237 0
M  V30 79 C 8.9525 -1.79705 -0.772358 0
M  V30 80 O 10.1585 -2.43528 -1.20026 0
M  V30 81 C 8.6145 -3.39168 1.20388 0
M  V30 82 C 8.2225 -3.57166 2.70438 0
M  V30 83 C 9.9665 -4.1341 0.963953 0
M  V30 84 C 7.8735 -5.01042 3.14183 0
M  V30 85 H 6.8035 -0.708267 0.2586 0
M  V30 86 H 9.4545 -1.36239 1.22927 0
M  V30 87 H 7.8365 -3.91369 0.603824 0
M  V30 88 H 9.0105 -3.15351 3.35992 0
M  V30 89 H 7.3255 -2.96294 2.92572 0
M  V30 90 H 9.9225 -5.19491 1.26621 0
M  V30 91 H 10.2655 -4.16181 -0.099578 0
M  V30 92 H 10.7985 -3.67309 1.52738 0
M  V30 93 H 7.5375 -5.03426 4.19812 0
M  V30 94 H 7.0575 -5.43668 2.53348 0
M  V30 95 H 8.7365 -5.69623 3.0682 0
M  V30 96 N 8.8686 -0.792821 -1.36206 0
M  V30 97 C 9.7786 -0.194808 -2.3379 0
M  V30 98 C 10.7946 0.654869 -1.61206 0
M  V30 99 O 11.9706 0.569856 -1.9317 0
M  V30 100 C 9.0356 0.657721 -3.40404 0
M  V30 101 C 8.0966 -0.210849 -4.28782 0
M  V30 102 C 7.3296 0.601086 -5.30304 0
M  V30 103 O 7.5526 1.83682 -5.40016 0
M  V30 104 O 6.4866 -0.000808277 -6.019 0
M  V30 105 H 10.3126 -1.00172 -2.86704 0
M  V30 106 H 7.8976 -0.554341 -1.38735 0
M  V30 107 H 9.7796 1.14375 -4.05581 0
M  V30 108 H 8.4546 1.44247 -2.89784 0
M  V30 109 H 7.3616 -0.743714 -3.66633 0
M  V30 110 H 8.6946 -0.959195 -4.82763 0
M  V30 111 N 10.3467 1.47872 -0.545128 0
M  V30 112 C 11.2797 2.2675 0.256885 0
M  V30 113 C 12.2577 1.33293 0.931228 0
M  V30 114 O 13.4417 1.62657 0.95262 0
M  V30 115 C 10.5687 3.09976 1.36501 0
M  V30 116 C 9.6147 4.1892 0.800496 0
M  V30 117 S 10.4477 5.34397 -0.343505 0
M  V30 118 C 11.6037 6.21186 0.766733 0
M  V30 119 H 11.8367 2.94425 -0.412479 0
M  V30 120 H 9.3697 1.50806 -0.331204 0
M  V30 121 H 11.3277 3.585 1.9997 0
M  V30 122 H 9.9887 2.41686 2.00616 0
M  V30 123 H 9.1817 4.76836 1.63227 0
M  V30 124 H 8.7837 3.73215 0.242217 0
M  V30 125 H 11.0757 6.56804 1.66178 0
M  V30 126 H 12.0187 7.07742 0.225204 0
M  V30 127 H 12.4267 5.54574 1.05396 0
M  V30 128 N 11.8248 0.280983 1.55075 0
M  V30 129 C 13.2358 -0.215629 1.85451 0
M  V30 130 C 13.5868 -1.54991 1.203 0
M  V30 131 O 12.7118 -2.10699 0.493435 0
M  V30 132 C 13.3068 -0.398026 3.36454 0
M  V30 133 C 11.8658 -0.838866 3.66933 0
M  V30 134 C 11.0128 0.064458 2.77225 0
M  V30 135 H 13.9638 0.502601 1.50531 0
M  V30 136 H 13.9848 -1.23569 3.59876 0
M  V30 137 H 13.4968 0.573241 3.83843 0
M  V30 138 H 11.5978 -1.8214 3.25048 0
M  V30 139 H 11.7108 -0.672123 4.74362 0
M  V30 140 H 10.0748 -0.452863 2.50642 0
M  V30 141 H 10.8578 1.03172 3.2743 0
M  V30 142 N 13.3029 -1.57598 0.00835791 0
M  V30 143 C 14.5509 -1.90551 -0.6734 0
M  V30 144 C 14.8719 -0.883301 -1.73847 0
M  V30 145 O 14.1419 0.0781442 -1.95744 0
M  V30 146 H 12.7219 -0.703312 -0.251717 0
M  V30 147 H 15.3839 -1.94833 0.0512592 0
M  V30 148 H 14.4799 -2.9056 -1.13935 0
M  V30 149 N 14.781 0.264519 -1.55364 0
M  V30 150 C 15.691 1.34902 -1.91934 0
M  V30 151 C 16.707 1.53595 -0.817593 0
M  V30 152 O 17.883 1.67558 -1.11742 0
M  V30 153 C 14.948 2.68676 -2.19121 0
M  V30 154 C 14.009 2.58657 -3.4263 0
M  V30 155 C 13.242 3.86051 -3.68511 0
M  V30 156 O 13.465 4.87126 -2.96757 0
M  V30 157 O 12.399 3.85744 -4.62045 0
M  V30 158 H 16.225 1.06883 -2.8427 0
M  V30 159 H 13.81 0.463775 -1.42019 0
M  V30 160 H 15.692 3.47759 -2.37995 0
M  V30 161 H 14.367 2.96463 -1.29966 0
M  V30 162 H 13.274 1.7792 -3.29082 0
M  V30 163 H 14.607 2.35818 -4.32031 0
M  V30 164 N 16.2591 1.48442 0.529413 0
M  V30 165 C 17.5051 1.5672 1.28711 0
M  V30 166 C 17.8381 0.2406 1.92704 0
M  V30 167 O 17.1131 -0.753454 1.79313 0
M  V30 168 C 17.3961 2.70587 2.37603 0
M  V30 169 C 17.2491 4.12953 1.78297 0
M  V30 170 C 18.5681 2.80212 3.39366 0
M  V30 171 H 15.6871 0.570474 0.466613 0
M  V30 172 H 18.3291 1.80617 0.589706 0
M  V30 173 H 16.4791 2.50342 2.97088 0
M  V30 174 H 18.1511 4.44639 1.22858 0
M  V30 175 H 16.3941 4.19927 1.0883 0
M  V30 176 H 17.0651 4.88448 2.57144 0
M  V30 177 H 19.5411 2.98553 2.89836 0
M  V30 178 H 18.4171 3.61611 4.12951 0
M  V30 179 H 18.6781 1.88393 3.99951 0
M  V30 180 N 17.7372 -0.778329 1.37039 0
M  V30 181 C 18.6842 -1.89139 1.32269 0
M  V30 182 C 19.6542 -1.65017 0.189387 0
M  V30 183 O 20.8392 -1.87024 0.377693 0
M  V30 184 C 17.9792 -3.26112 1.12894 0
M  V30 185 C 17.0922 -3.62233 2.35396 0
M  V30 186 C 16.2272 -4.8838 2.08946 0
M  V30 187 C 15.2662 -5.17212 3.2735 0
M  V30 188 N 14.4032 -6.34546 3.00492 0
M  V30 189 H 19.2432 -1.92552 2.27437 0
M  V30 190 H 16.7802 -0.941473 1.13025 0
M  V30 191 H 18.7382 -4.05116 0.996835 0
M  V30 192 H 17.3682 -3.22091 0.213758 0
M  V30 193 H 16.4202 -2.78265 2.5937 0
M  V30 194 H 17.7322 -3.79481 3.23721 0
M  V30 195 H 16.8862 -5.75274 1.92729 0
M  V30 196 H 15.6252 -4.73222 1.17949 0
M  V30 197 H 14.6302 -4.28796 3.44113 0
M  V30 198 H 15.8552 -5.34283 4.19188 0
M  V30 199 H 13.8012 -6.20759 2.12118 0
M  V30 200 H 13.7182 -6.52179 3.82358 0
M  V30 201 H 14.9862 -7.24394 2.87879 0
M  V30 202 N 19.2153 -1.21501 -1.00376 0
M  V30 203 C 20.1783 -0.976927 -2.07337 0
M  V30 204 C 21.1783 0.0525322 -1.60714 0
M  V30 205 O 22.3683 -0.184869 -1.73216 0
M  V30 206 C 19.5003 -0.473423 -3.37597 0
M  V30 207 H 20.6933 -1.92587 -2.29892 0
M  V30 208 H 18.2463 -1.03217 -1.17371 0
M  V30 209 H 18.9813 0.480379 -3.20722 0
M  V30 210 H 18.7663 -1.216 -3.72768 0
M  V30 211 H 20.2563 -0.32675 -4.1632 0
M  V30 212 N 20.6934 1.19889 -1.02296 0
M  V30 213 C 21.9704 1.85148 -0.630832 0
M  V30 214 C 22.3504 1.91385 0.890782 0
M  V30 215 O 21.6984 1.42642 1.78509 0
M  V30 216 C 21.9084 3.24442 -1.28602 0
M  V30 217 C 23.2564 4.00663 -1.4055 0
M  V30 218 O 24.2804 3.33818 -1.24273 0
M  V30 219 O 23.1394 5.20387 -1.66913 0
M  V30 220 H 20.2334 0.797613 -0.218499 0
M  V30 221 H 22.7794 1.27427 -1.12074 0
M  V30 222 H 21.5514 3.14704 -2.32545 0
M  V30 223 H 21.1744 3.89802 -0.7836 0
M  V30 224 N 22.1715 0.800033 1.35784 0
M  V30 225 C 23.5825 0.439142 1.81462 0
M  V30 226 C 23.9335 -1.03813 1.66485 0
M  V30 227 O 23.0585 -1.80626 1.19177 0
M  V30 228 C 23.6535 0.790314 3.29453 0
M  V30 229 C 22.2125 0.482111 3.733 0
M  V30 230 C 21.3595 1.01938 2.57883 0
M  V30 231 H 24.3105 0.992254 1.23855 0
M  V30 232 H 24.3315 0.0853677 3.80404 0
M  V30 233 H 23.8435 1.86554 3.40322 0
M  V30 234 H 21.9445 -0.584652 3.67984 0
M  V30 235 H 22.0575 1.01015 4.6833 0
M  V30 236 H 20.4215 0.442043 2.50835 0
M  V30 237 H 21.2045 2.10059 2.71533 0
M  V30 238 N 23.6496 -1.47581 0.552962 0
M  V30 239 C 24.6126 -2.28439 -0.186605 0
M  V30 240 C 25.6126 -1.36706 -0.84665 0
M  V30 241 O 26.8026 -1.59378 -0.703164 0
M  V30 242 C 23.9346 -3.16264 -1.2724 0
M  V30 243 H 25.1276 -2.95294 0.523609 0
M  V30 244 H 22.6806 -1.532 0.309745 0
M  V30 245 H 23.4156 -2.54091 -2.01514 0
M  V30 246 H 23.2006 -3.83769 -0.803968 0
M  V30 247 H 24.6906 -3.77198 -1.79196 0
M  V30 248 N 25.1277 -0.289203 -1.54924 0
M  V30 249 C 26.0907 0.579144 -2.21762 0
M  V30 250 C 27.0907 1.07047 -1.1999 0
M  V30 251 O 28.2807 0.968384 -1.44803 0
M  V30 252 C 25.4127 1.80055 -2.8947 0
M  V30 253 H 26.6057 -0.00464908 -2.999 0
M  V30 254 H 24.1587 -0.0399306 -1.56249 0
M  V30 255 H 24.8937 2.42449 -2.15381 0
M  V30 256 H 24.6787 1.45602 -3.64064 0
M  V30 257 H 26.1687 2.41773 -3.40493 0
M  V30 258 N 26.6058 1.57591 -0.0167156 0
M  V30 259 C 27.5358 2.12496 0.967858 0
M  V30 260 C 28.5168 1.03807 1.34752 0
M  V30 261 O 29.7018 1.31577 1.42833 0
M  V30 262 C 26.8318 2.64194 2.25431 0
M  V30 263 C 25.7858 3.77559 2.01576 0
M  V30 264 C 25.1118 4.15636 3.36379 0
M  V30 265 C 26.4118 5.04151 1.36489 0
M  V30 266 H 28.1058 2.95013 0.510643 0
M  V30 267 H 25.6518 1.41915 0.244181 0
M  V30 268 H 27.6048 3.01236 2.94678 0
M  V30 269 H 26.3288 1.78821 2.73296 0
M  V30 270 H 24.9878 3.40937 1.34751 0
M  V30 271 H 24.6358 3.27263 3.81979 0
M  V30 272 H 24.3358 4.92022 3.21229 0
M  V30 273 H 25.8598 4.5525 4.06915 0
M  V30 274 H 27.2738 5.38857 1.95718 0
M  V30 275 H 25.6708 5.85453 1.31776 0
M  V30 276 H 26.7408 4.83733 0.336219 0
M  V30 277 N 28.0839 -0.256276 1.55502 0
M  V30 278 C 29.0169 -1.34321 1.84481 0
M  V30 279 C 29.9949 -1.46802 0.699131 0
M  V30 280 O 31.1789 -1.63165 0.943904 0
M  V30 281 C 28.3059 -2.71779 2.02123 0
M  V30 282 C 27.3519 -2.76496 3.24734 0
M  V30 283 S 28.1849 -2.3405 4.81644 0
M  V30 284 C 29.3409 -3.73452 5.02279 0
M  V30 285 H 29.5739 -1.09539 2.76385 0
M  V30 286 H 27.1069 -0.45678 1.47489 0
M  V30 287 H 29.0649 -3.50932 2.12972 0
M  V30 288 H 27.7259 -2.93803 1.11078 0
M  V30 289 H 26.9189 -3.77424 3.34016 0
M  V30 290 H 26.5209 -2.05379 3.12563 0
M  V30 291 H 28.8129 -4.6887 4.89047 0
M  V30 292 H 29.7559 -3.6911 6.04287 0
M  V30 293 H 30.1639 -3.6553 4.30172 0
M  V30 294 N 29.562 -1.4872 -0.521534 0
M  V30 295 C 30.525 -1.63379 -1.60748 0
M  V30 296 C 31.525 -0.50661 -1.52611 0
M  V30 297 O 32.715 -0.772601 -1.5613 0
M  V30 298 C 29.847 -1.61192 -3.00383 0
M  V30 299 H 31.04 -2.60217 -1.49087 0
M  V30 300 H 28.593 -1.37444 -0.744235 0
M  V30 301 H 29.328 -0.65863 -3.17541 0
M  V30 302 H 29.113 -2.43032 -3.07698 0
M  V30 303 H 30.603 -1.7466 -3.7932 0
M  V30 304 N 31.0401 0.771051 -1.3745 0
M  V30 305 C 32.2651 1.56529 -1.36065 0
M  V30 306 C 32.6901 1.88029 0.0515859 0
M  V30 307 O 32.0481 1.49282 1.02882 0
M  V30 308 C 32.0961 2.85187 -2.20683 0
M  V30 309 O 31.2001 3.79593 -1.61193 0
M  V30 310 H 30.5411 0.47411 -0.464883 0
M  V30 311 H 33.0711 0.954269 -1.80983 0
M  V30 312 H 33.0811 3.34283 -2.33921 0
M  V30 313 H 31.7561 2.61588 -3.23334 0
M  V30 314 H 30.3331 3.38239 -1.56999 0
M  V30 315 N 32.5182 1.22032 0.997298 0
M  V30 316 C 33.4482 1.01065 2.10495 0
M  V30 317 C 34.4292 -0.0669542 1.69968 0
M  V30 318 O 35.6142 0.0943987 1.9397 0
M  V30 319 C 32.7442 0.582874 3.42374 0
M  V30 320 C 31.6982 1.60592 3.96729 0
M  V30 321 C 31.0242 1.03412 5.24605 0
M  V30 322 C 32.3242 2.99478 4.27914 0
M  V30 323 H 34.0182 1.93708 2.28292 0
M  V30 324 H 31.5642 0.932761 1.09707 0
M  V30 325 H 33.5172 0.423332 4.19268 0
M  V30 326 H 32.2412 -0.379213 3.24391 0
M  V30 327 H 30.9002 1.75316 3.21963 0
M  V30 328 H 30.5482 0.063518 5.0296 0
M  V30 329 H 30.2482 1.71754 5.61938 0
M  V30 330 H 31.7722 0.886066 6.04137 0
M  V30 331 H 33.1862 2.88153 4.95622 0
M  V30 332 H 31.5832 3.64903 4.76409 0
M  V30 333 H 32.6532 3.49742 3.3587 0
M  V30 334 N 33.9963 -1.19345 1.0293 0
M  V30 335 C 34.9463 -2.20472 0.58104 0
M  V30 336 C 35.9303 -1.56578 -0.370442 0
M  V30 337 O 37.1223 -1.75963 -0.191344 0
M  V30 338 C 34.2513 -3.43236 -0.066306 0
M  V30 339 C 33.3373 -4.14274 0.907642 0
M  V30 340 N 33.7283 -4.61492 2.07023 0
M  V30 341 C 32.0263 -4.39966 0.731177 0
M  V30 342 C 32.7273 -5.1605 2.68454 0
M  V30 343 N 31.7033 -5.06875 1.96414 0
M  V30 344 H 35.5053 -2.54659 1.46717 0
M  V30 345 H 33.0193 -1.35423 0.896345 0
M  V30 346 H 35.0163 -4.14927 -0.405068 0
M  V30 347 H 33.6763 -3.10549 -0.948118 0
M  V30 348 H 34.6873 -4.56304 2.44963 0
M  V30 349 H 31.3643 -4.17377 -0.101507 0
M  V30 350 H 32.7543 -5.6287 3.66915 0
M  V30 351 N 35.4744 -0.807222 -1.35358 0
M  V30 352 C 36.4044 -0.232509 -2.3234 0
M  V30 353 C 37.3854 0.642386 -1.57504 0
M  V30 354 O 38.5704 0.572526 -1.85569 0
M  V30 355 C 35.7004 0.619238 -3.41735 0
M  V30 356 C 34.6544 -0.157215 -4.27711 0
M  V30 357 C 33.9804 0.816273 -5.28433 0
M  V30 358 C 35.2804 -1.35656 -5.04376 0
M  V30 359 H 36.9744 -1.04276 -2.80654 0
M  V30 360 H 34.5204 -0.50288 -1.34934 0
M  V30 361 H 36.4734 1.03137 -4.08584 0
M  V30 362 H 35.1974 1.46239 -2.92031 0
M  V30 363 H 33.8564 -0.550525 -3.62443 0
M  V30 364 H 33.5044 1.65494 -4.74996 0
M  V30 365 H 33.2044 0.301067 -5.86828 0
M  V30 366 H 34.7284 1.22659 -5.98153 0
M  V30 367 H 36.1424 -1.01927 -5.64166 0
M  V30 368 H 34.5394 -1.8063 -5.7227 0
M  V30 369 H 35.6094 -2.14288 -4.34981 0
M  V30 370 N 36.9525 1.47285 -0.560781 0
M  V30 371 C 37.8825 2.32857 0.173105 0
M  V30 372 C 38.8635 1.44009 0.905281 0
M  V30 373 O 40.0485 1.7286 0.885046 0
M  V30 374 C 37.1785 3.25861 1.20133 0
M  V30 375 C 36.1325 4.23978 0.585388 0
M  V30 376 C 35.4585 5.06332 1.7185 0
M  V30 377 C 36.7585 5.20242 -0.463178 0
M  V30 378 H 38.4525 2.94466 -0.541307 0
M  V30 379 H 35.9985 1.41601 -0.261764 0
M  V30 380 H 37.9515 3.84569 1.72293 0
M  V30 381 H 36.6755 2.62315 1.94573 0
M  V30 382 H 35.3345 3.66501 0.085054 0
M  V30 383 H 34.9825 4.39186 2.45203 0
M  V30 384 H 34.6825 5.72762 1.31213 0
M  V30 385 H 36.2065 5.67899 2.24329 0
M  V30 386 H 37.6205 5.73293 -0.027502 0
M  V30 387 H 36.0175 5.94896 -0.788627 0
M  V30 388 H 37.0875 4.65504 -1.35773 0
M  V30 389 N 38.4306 0.297415 1.54768 0
M  V30 390 C 39.8416 -0.195947 1.85669 0
M  V30 391 C 40.1926 -1.53707 1.21937 0
M  V30 392 O 39.3176 -2.10164 0.515754 0
M  V30 393 C 39.9126 -0.362318 3.36857 0
M  V30 394 C 38.4716 -0.799901 3.67802 0
M  V30 395 C 37.6186 0.0938578 2.77141 0
M  V30 396 H 40.5696 0.518538 1.4999 0
M  V30 397 H 40.5906 -1.19745 3.61167 0
M  V30 398 H 40.1026 0.613921 3.83214 0
M  V30 399 H 38.2036 -1.78682 3.26961 0
M  V30 400 H 38.3166 -0.621773 4.75048 0
M  V30 401 H 36.6806 -0.426254 2.51108 0
M  V30 402 H 37.4636 1.06639 3.26318 0
M  V30 403 N 39.9087 -1.5758 0.0250728 0
M  V30 404 C 41.1337 -1.96337 -0.668317 0
M  V30 405 C 41.5587 -0.901314 -1.651 0
M  V30 406 O 40.9167 0.138187 -1.80773 0
M  V30 407 C 40.9647 -3.34191 -1.35457 0
M  V30 408 O 40.0687 -3.30269 -2.46974 0
M  V30 409 H 39.4097 -0.640281 -0.175887 0
M  V30 410 H 41.9397 -2.0442 0.0857224 0
M  V30 411 H 41.9497 -3.70331 -1.71228 0
M  V30 412 H 40.6247 -4.11036 -0.634218 0
M  V30 413 H 39.2017 -3.05841 -2.13344 0
M  V30 414 N 41.3868 0.248026 -1.55636 0
M  V30 415 C 42.7978 0.817177 -1.67866 0
M  V30 416 C 43.1488 1.86069 -0.622322 0
M  V30 417 O 42.2738 2.15157 0.231618 0
M  V30 418 C 42.8688 1.489 -3.04326 0
M  V30 419 C 41.4278 2.00587 -3.185 0
M  V30 420 C 40.5748 0.856573 -2.63739 0
M  V30 421 H 43.5258 0.0238579 -1.58682 0
M  V30 422 H 43.5468 2.35698 -2.98708 0
M  V30 423 H 43.0588 0.729279 -3.81186 0
M  V30 424 H 41.1598 2.79443 -2.4646 0
M  V30 425 H 41.2728 2.20402 -4.25393 0
M  V30 426 H 39.6368 1.25678 -2.21534 0
M  V30 427 H 40.4198 0.109953 -3.43124 0
M  V30 428 N 42.8649 1.48995 0.513639 0
M  V30 429 C 44.0929 1.61531 1.29288 0
M  V30 430 C 44.5079 0.281801 1.86685 0
M  V30 431 O 43.8649 -0.731111 1.67215 0
M  V30 432 C 43.9159 2.67449 2.43215 0
M  V30 433 O 43.6369 3.95626 1.88179 0
M  V30 434 C 45.1379 2.90575 3.34785 0
M  V30 435 H 42.3579 0.544165 0.392588 0
M  V30 436 H 44.9019 1.9494 0.617956 0
M  V30 437 H 43.0569 2.36853 3.0656 0
M  V30 438 H 43.4709 4.53868 2.62876 0
M  V30 439 H 44.9449 3.68449 4.11035 0
M  V30 440 H 45.4219 2.00011 3.91015 0
M  V30 441 H 46.0279 3.22538 2.77218 0
M  V30 442 N 44.343 -0.763751 1.37857 0
M  V30 443 C 45.754 -1.3405 1.29952 0
M  V30 444 C 46.105 -1.96138 -0.0492898 0
M  V30 445 O 45.23 -1.94372 -0.951239 0
M  V30 446 C 45.825 -2.43729 2.35333 0
M  V30 447 C 44.384 -2.97151 2.31037 0
M  V30 448 C 43.531 -1.70438 2.18738 0
M  V30 449 H 46.482 -0.563396 1.48363 0
M  V30 450 H 46.503 -3.23412 2.00462 0
M  V30 451 H 46.015 -1.9851 3.33489 0
M  V30 452 H 44.116 -3.46724 1.3643 0
M  V30 453 H 44.229 -3.52221 3.24772 0
M  V30 454 H 42.593 -1.93673 1.65418 0
M  V30 455 H 43.376 -1.27312 3.18821 0
M  V30 456 N 45.8211 -1.22559 -0.990812 0
M  V30 457 C 46.7691 -0.994798 -2.10253 0
M  V30 458 C 47.7631 0.0627798 -1.69284 0
M  V30 459 O 48.9691 -0.0898392 -1.79776 0
M  V30 460 H 45.3441 -0.304527 -0.687581 0
M  V30 461 H 47.3151 -1.93812 -2.26891 0
M  V30 462 C 46.0641 -0.591439 -3.42633 0
M  V30 463 H 45.3871 -1.3969 -3.74602 0
M  V30 464 H 46.8271 -0.469385 -4.21394 0
M  V30 465 C 45.2861 0.699232 -3.29564 0
M  V30 466 O 45.8161 1.75112 -3.61523 0
M  V30 467 N 44.0221 0.671182 -2.82743 0
M  V30 468 H 43.5691 -0.185136 -2.56934 0
M  V30 469 H 43.5271 1.53502 -2.7438 0
M  V30 470 N 47.2992 1.18797 -1.03562 0
M  V30 471 C 48.2292 2.24472 -0.643019 0
M  V30 472 C 49.2102 1.66433 0.351283 0
M  V30 473 O 50.3952 1.92803 0.232505 0
M  V30 474 C 47.5252 3.473 4.24935e-05 0
M  V30 475 C 46.4792 4.18055 -0.917257 0
M  V30 476 C 45.8052 5.34519 -0.138941 0
M  V30 477 C 47.1052 4.72109 -2.23407 0
M  V30 478 H 48.7992 2.57566 -1.52643 0
M  V30 479 H 46.3452 1.23806 -0.735394 0
M  V30 480 H 48.2982 4.20426 0.286383 0
M  V30 481 H 47.0222 3.13424 0.918299 0
M  V30 482 H 45.6812 3.46821 -1.1879 0
M  V30 483 H 45.3292 4.96891 0.781562 0
M  V30 484 H 45.0292 5.82794 -0.750005 0
M  V30 485 H 46.5532 6.10438 0.1405 0
M  V30 486 H 47.9672 5.36955 -2.00879 0
M  V30 487 H 46.3642 5.30897 -2.79765 0
M  V30 488 H 47.4342 3.89807 -2.88407 0
M  V30 489 N 48.7773 0.814389 1.34928 0
M  V30 490 C 49.6873 0.231978 2.3345 0
M  V30 491 C 50.7033 -0.629139 1.62228 0
M  V30 492 O 51.8793 -0.539052 1.94052 0
M  V30 493 C 48.9443 -0.603482 3.41407 0
M  V30 494 C 48.0053 0.279037 4.28392 0
M  V30 495 C 47.2383 -0.516643 5.31193 0
M  V30 496 O 47.4613 -1.75068 5.4287 0
M  V30 497 O 46.3953 0.0965652 6.01823 0
M  V30 498 H 50.2213 1.04721 2.85074 0
M  V30 499 H 47.8063 0.576343 1.37836 0
M  V30 500 H 49.6883 -1.07908 4.0735 0
M  V30 501 H 48.3633 -1.39618 2.92042 0
M  V30 502 H 47.2703 0.801948 3.65403 0
M  V30 503 H 48.6033 1.03588 4.81176 0
M  V30 504 N 50.2554 -1.46986 0.568584 0
M  V30 505 C 51.5044 -2.01646 0.0465894 0
M  V30 506 C 51.8174 -1.44721 -1.31587 0
M  V30 507 O 53.0234 -1.91113 -1.92842 0
M  V30 508 C 51.4794 -3.59885 0.032752 0
M  V30 509 C 51.0874 -4.25804 1.39266 0
M  V30 510 C 52.8314 -4.22255 -0.436038 0
M  V30 511 C 50.7384 -5.76081 1.33732 0
M  V30 512 H 49.6684 -0.753876 0.013647 0
M  V30 513 H 52.3194 -1.68864 0.718131 0
M  V30 514 H 50.7014 -3.8968 -0.704669 0
M  V30 515 H 51.8754 -4.07637 2.1487 0
M  V30 516 H 50.1904 -3.7547 1.80032 0
M  V30 517 H 52.7874 -5.32394 -0.49602 0
M  V30 518 H 53.1304 -3.90212 -1.45053 0
M  V30 519 H 53.6634 -3.97033 0.246877 0
M  V30 520 H 50.4024 -6.12761 2.32817 0
M  V30 521 H 49.9224 -5.96553 0.623267 0
M  V30 522 H 51.6014 -6.38518 1.0442 0
M  V30 523 N 51.7335 -0.305618 -1.54608 0
M  V30 524 C 52.6805 0.568421 -2.23691 0
M  V30 525 C 53.6505 1.12592 -1.22116 0
M  V30 526 O 54.8355 1.16959 -1.50749 0
M  V30 527 C 51.9755 1.7322 -2.98477 0
M  V30 528 C 51.0885 1.20566 -4.14835 0
M  V30 529 C 50.2235 2.33368 -4.77193 0
M  V30 530 C 49.2625 1.7787 -5.85686 0
M  V30 531 N 48.3995 2.84263 -6.4198 0
M  V30 532 H 53.2395 -0.0272867 -2.97988 0
M  V30 533 H 50.7765 -0.0252363 -1.47078 0
M  V30 534 H 52.7345 2.41675 -3.40072 0
M  V30 535 H 51.3645 2.29947 -2.26548 0
M  V30 536 H 50.4165 0.413223 -3.78149 0
M  V30 537 H 51.7285 0.759417 -4.92985 0
M  V30 538 H 50.8825 3.09761 -5.21664 0
M  V30 539 H 49.6215 2.8132 -3.98385 0
M  V30 540 H 48.6265 0.99968 -5.40635 0
M  V30 541 H 49.8515 1.30816 -6.66381 0
M  V30 542 H 47.7975 3.31541 -5.66053 0
M  V30 543 H 47.7145 2.44149 -7.15491 0
M  V30 544 H 48.9825 3.6054 -6.91109 0
M  V30 545 N 53.2116 1.57565 -0.0334293 0
M  V30 546 C 54.4416 1.95996 0.653398 0
M  V30 547 C 54.8496 0.908749 1.65947 0
M  V30 548 O 54.1926 -0.117471 1.83324 0
M  V30 549 C 54.2546 3.30589 1.41249 0
M  V30 550 C 53.9186 4.53503 0.564263 0
M  V30 551 C 54.9156 5.19647 -0.16225 0
M  V30 552 C 52.6006 4.99801 0.500398 0
M  V30 553 C 54.5946 6.30412 -0.941255 0
M  V30 554 C 52.2816 6.10448 -0.282308 0
M  V30 555 C 53.2796 6.75612 -1.00184 0
M  V30 556 O 52.9676 7.84134 -1.77171 0
M  V30 557 H 52.6996 0.65027 0.184728 0
M  V30 558 H 55.2536 2.05199 -0.0907841 0
M  V30 559 H 53.4836 3.17888 2.20191 0
M  V30 560 H 55.1726 3.53892 1.98784 0
M  V30 561 H 55.9386 4.84846 -0.12227 0
M  V30 562 H 51.8176 4.48883 1.05002 0
M  V30 563 H 55.3616 6.81208 -1.50339 0
M  V30 564 H 51.2586 6.44686 -0.323989 0
M  V30 565 H 52.0266 8.00822 -1.69194 0
M  V30 566 N 54.6897 -0.239769 1.55765 0
M  V30 567 C 55.9177 -0.98417 1.81994 0
M  V30 568 C 56.3327 -1.7867 0.610124 0
M  V30 569 O 55.6897 -1.77571 -0.421271 0
M  V30 570 C 55.7407 -1.91635 3.06526 0
M  V30 571 O 55.4617 -1.14629 4.22838 0
M  V30 572 C 56.9627 -2.77616 3.45607 0
M  V30 573 H 54.1827 -0.28928 0.605441 0
M  V30 574 H 56.7267 -0.260499 2.02834 0
M  V30 575 H 54.8817 -2.5942 2.87715 0
M  V30 576 H 55.2957 -1.77745 4.93464 0
M  V30 577 H 56.7697 -3.38759 4.35828 0
M  V30 578 H 57.2467 -3.4909 2.6652 0
M  V30 579 H 57.8527 -2.15271 3.66795 0
M  V30 580 N 56.1678 -1.49265 -0.50573 0
M  V30 581 C 57.1148 -1.65585 -1.6078 0
M  V30 582 C 58.0848 -0.497396 -1.58478 0
M  V30 583 O 59.2698 -0.72385 -1.76536 0
M  V30 584 C 56.4098 -1.72408 -2.98948 0
M  V30 585 C 55.5228 -2.99525 -3.11301 0
M  V30 586 C 54.6578 -2.97356 -4.40174 0
M  V30 587 C 53.6968 -4.19074 -4.46143 0
M  V30 588 N 52.8338 -4.14841 -5.66437 0
M  V30 589 H 57.6738 -2.59688 -1.46172 0
M  V30 590 H 55.2108 -1.28761 -0.711261 0
M  V30 591 H 57.1688 -1.74344 -3.79025 0
M  V30 592 H 55.7988 -0.817753 -3.1227 0
M  V30 593 H 54.8508 -3.07222 -2.24318 0
M  V30 594 H 56.1628 -3.89518 -3.11572 0
M  V30 595 H 55.3168 -2.97829 -5.28567 0
M  V30 596 H 54.0558 -2.05133 -4.42461 0
M  V30 597 H 53.0608 -4.1885 -3.56153 0
M  V30 598 H 54.2858 -5.12483 -4.45575 0
M  V30 599 H 52.2318 -3.25453 -5.69575 0
M  V30 600 H 52.1488 -4.98564 -5.68304 0
M  V30 601 H 53.4168 -4.1941 -6.57051 0
M  V30 602 N 57.6459 0.756429 -1.3826 0
M  V30 603 C 58.8949 1.51082 -1.3363 0
M  V30 604 C 59.2079 1.95467 0.0720068 0
M  V30 605 O 60.4139 2.7043 0.240834 0
M  V30 606 C 58.8699 2.72893 -2.34644 0
M  V30 607 C 58.4779 2.35544 -3.81081 0
M  V30 608 C 60.2219 3.50791 -2.39052 0
M  V30 609 C 58.1289 3.53948 -4.73787 0
M  V30 610 H 57.0589 0.56727 -0.49671 0
M  V30 611 H 59.7099 0.827147 -1.638 0
M  V30 612 H 58.0919 3.43227 -1.97513 0
M  V30 613 H 59.2659 1.72894 -4.27135 0
M  V30 614 H 57.5809 1.70786 -3.79764 0
M  V30 615 H 60.1779 4.38823 -3.05513 0
M  V30 616 H 60.5209 3.91745 -1.40861 0
M  V30 617 H 61.0539 2.87467 -2.74968 0
M  V30 618 H 57.7929 3.18064 -5.73163 0
M  V30 619 H 57.3129 4.15651 -4.32428 0
M  V30 620 H 58.9919 4.20566 -4.91663 0
M  V30 621 N 59.124 1.23083 0.984299 0
M  V30 622 C 60.371 1.06057 1.72505 0
M  V30 623 C 60.699 -0.403105 1.90277 0
M  V30 624 O 59.954 -1.3149 1.44944 0
M  V30 625 C 60.253 1.72673 3.1292 0
M  V30 626 C 59.919 3.22586 3.15038 0
M  V30 627 C 58.581 3.63489 3.15324 0
M  V30 628 C 60.933 4.185 3.10657 0
M  V30 629 C 58.261 4.98772 3.08939 0
M  V30 630 C 60.613 5.53769 3.05814 0
M  V30 631 C 59.277 5.94041 3.04419 0
M  V30 632 H 58.547 0.388091 0.631242 0
M  V30 633 H 61.194 1.52963 1.15215 0
M  V30 634 H 59.499 1.18116 3.73572 0
M  V30 635 H 61.196 1.56982 3.68996 0
M  V30 636 H 57.786 2.90022 3.15571 0
M  V30 637 H 61.97 3.87911 3.09579 0
M  V30 638 H 57.226 5.29193 3.0621 0
M  V30 639 H 61.4 6.27808 3.0138 0
M  V30 640 H 59.027 6.98833 2.99227 0
M  V30 641 N 60.6021 -1.18246 1.0419 0
M  V30 642 C 61.8511 -1.87588 0.741194 0
M  V30 643 C 62.1641 -1.81303 -0.734066 0
M  V30 644 O 63.3701 -2.46019 -1.14834 0
M  V30 645 C 61.8261 -3.36538 1.27555 0
M  V30 646 C 61.4341 -3.51349 2.77953 0
M  V30 647 C 63.1781 -4.11273 1.05143 0
M  V30 648 C 61.0851 -4.94265 3.2474 0
M  V30 649 H 60.0151 -0.702622 0.273565 0
M  V30 650 H 62.6661 -1.33601 1.25789 0
M  V30 651 H 61.0481 -3.9 0.686703 0
M  V30 652 H 62.2221 -3.08153 3.42605 0
M  V30 653 H 60.5371 -2.90022 2.98791 0
M  V30 654 H 63.1341 -5.16689 1.37611 0
M  V30 655 H 63.4771 -4.16298 -0.0112774 0
M  V30 656 H 64.0101 -3.63987 1.60495 0
M  V30 657 H 60.7491 -4.94408 4.30396 0
M  V30 658 H 60.2691 -5.38172 2.64823 0
M  V30 659 H 61.9481 -5.62987 3.18834 0
M  V30 660 N 62.0802 -0.821533 -1.34494 0
M  V30 661 C 63.0282 -0.230702 -2.31453 0
M  V30 662 C 64.0222 0.627793 -1.57338 0
M  V30 663 O 65.2282 0.519288 -1.72347 0
M  V30 664 H 61.6032 -0.0558577 -0.749923 0
M  V30 665 H 63.5742 -1.06332 -2.78812 0
M  V30 666 C 62.3232 0.59391 -3.4259 0
M  V30 667 H 61.6462 -0.0573588 -3.99759 0
M  V30 668 H 63.0862 0.973446 -4.12674 0
M  V30 669 C 61.5452 1.76568 -2.86924 0
M  V30 670 O 62.0752 2.8638 -2.81691 0
M  V30 671 N 60.2812 1.58198 -2.43766 0
M  V30 672 H 59.8282 0.68872 -2.48222 0
M  V30 673 H 59.7862 2.36752 -2.06871 0
M  V30 674 N 63.5583 1.46682 -0.576371 0
M  V30 675 C 64.5063 2.31953 0.17335 0
M  V30 676 C 65.5003 1.44098 0.89062 0
M  V30 677 O 66.7063 1.60759 0.809728 0
M  V30 678 H 63.0813 0.748273 0.0747727 0
M  V30 679 H 65.0523 2.93007 -0.564738 0
M  V30 680 C 63.8013 3.27142 1.17786 0
M  V30 681 H 63.1243 3.94719 0.635361 0
M  V30 682 H 64.5643 3.896 1.67296 0
M  V30 683 C 63.0233 2.52036 2.23561 0
M  V30 684 O 63.5533 2.27877 3.3081 0
M  V30 685 N 61.7593 2.12709 1.97998 0
M  V30 686 H 61.3063 2.32557 1.10792 0
M  V30 687 H 61.2643 1.62776 2.68982 0
M  V30 688 N 65.0364 0.313813 1.54444 0
M  V30 689 C 65.9464 -0.565714 2.27677 0
M  V30 690 C 66.9624 -1.13754 1.31666 0
M  V30 691 O 68.1384 -1.15959 1.64668 0
M  V30 692 C 65.2034 -1.71528 3.01296 0
M  V30 693 C 64.2644 -1.17624 4.12872 0
M  V30 694 C 63.4974 -2.27102 4.8297 0
M  V30 695 O 63.7204 -3.47256 4.52514 0
M  V30 696 O 62.6544 -1.9307 5.70094 0
M  V30 697 H 66.4804 0.0287296 3.03686 0
M  V30 698 H 64.0654 0.0798312 1.49187 0
M  V30 699 H 65.9474 -2.38476 3.4743 0
M  V30 700 H 64.6224 -2.29608 2.2817 0
M  V30 701 H 63.5294 -0.472124 3.71109 0
M  V30 702 H 64.8624 -0.640695 4.88012 0
M  V30 703 N 66.5145 -1.57545 0.0417849 0
M  V30 704 C 67.7605 -1.93424 -0.629168 0
M  V30 705 C 68.1155 -0.919564 -1.69002 0
M  V30 706 O 67.4085 0.0626178 -1.91498 0
M  V30 707 C 67.6025 -3.33794 -1.27735 0
M  V30 708 C 67.4315 -4.48822 -0.280806 0
M  V30 709 C 66.2015 -5.05148 0.123869 0
M  V30 710 C 68.3995 -5.12148 0.470012 0
M  V30 711 N 66.3815 -6.03703 1.11426 0
M  V30 712 C 67.7525 -6.05921 1.31377 0
M  V30 713 C 69.8075 -4.95078 0.529343 0
M  V30 714 C 68.5105 -6.84459 2.21152 0
M  V30 715 C 70.5365 -5.74235 1.41448 0
M  V30 716 C 69.8985 -6.67634 2.24598 0
M  V30 717 H 65.9975 -0.755418 -0.202158 0
M  V30 718 H 68.5815 -1.94378 0.111923 0
M  V30 719 H 66.7525 -3.33635 -1.98852 0
M  V30 720 H 68.4845 -3.56988 -1.90635 0
M  V30 721 H 65.2395 -4.72923 -0.253178 0
M  V30 722 H 65.6635 -6.57674 1.60607 0
M  V30 723 H 70.3055 -4.22683 -0.0992798 0
M  V30 724 H 68.0235 -7.56151 2.85063 0
M  V30 725 H 71.6095 -5.63057 1.46484 0
M  V30 726 H 70.4895 -7.27817 2.9198 0
M  V30 727 N 67.9926 0.231505 -1.5589 0
M  V30 728 C 68.9246 1.31006 -1.8807 0
M  V30 729 C 69.9376 1.43539 -0.768145 0
M  V30 730 O 71.1266 1.44614 -1.04638 0
M  V30 731 C 68.2266 2.68688 -2.06543 0
M  V30 732 C 67.3996 2.78228 -3.37502 0
M  V30 733 C 66.4586 3.96857 -3.4553 0
M  V30 734 O 65.4846 3.85662 -4.18633 0
M  V30 735 N 66.6866 5.1072 -2.75944 0
M  V30 736 H 69.4516 1.03731 -2.81176 0
M  V30 737 H 67.0126 0.421573 -1.56315 0
M  V30 738 H 69.0046 3.46412 -2.09239 0
M  V30 739 H 67.5746 2.88605 -1.20109 0
M  V30 740 H 66.7946 1.87059 -3.46991 0
M  V30 741 H 68.0826 2.81564 -4.23791 0
M  V30 742 H 67.4806 5.2271 -2.16311 0
M  V30 743 H 66.0376 5.86523 -2.84314 0
M  V30 744 N 69.4707 1.49531 0.497807 0
M  V30 745 C 70.4187 1.66926 1.61983 0
M  V30 746 C 71.4127 0.535167 1.60724 0
M  V30 747 O 72.6187 0.714896 1.65195 0
M  V30 748 H 68.9937 0.526415 0.537021 0
M  V30 749 H 70.9647 2.61098 1.44465 0
M  V30 750 C 69.7137 1.75602 3.00099 0
M  V30 751 H 69.0367 2.62244 3.01775 0
M  V30 752 H 70.4767 1.91807 3.78135 0
M  V30 753 C 68.9357 0.501543 3.33146 0
M  V30 754 O 69.4657 -0.371342 3.9998 0
M  V30 755 N 67.6717 0.363531 2.88317 0
M  V30 756 H 67.2187 1.07485 2.34104 0
M  V30 757 H 67.1767 -0.474728 3.10795 0
M  V30 758 N 70.9488 -0.749086 1.3866 0
M  V30 759 C 72.1738 -1.54344 1.38538 0
M  V30 760 C 72.5988 -1.88088 -0.0216655 0
M  V30 761 O 71.9568 -1.50899 -1.00494 0
M  V30 762 C 72.0048 -2.8164 2.25192 0
M  V30 763 O 71.1088 -3.7698 1.67212 0
M  V30 764 H 70.4498 -0.466654 0.472367 0
M  V30 765 H 72.9798 -0.925355 1.82478 0
M  V30 766 H 72.9898 -3.30519 2.3921 0
M  V30 767 H 71.6648 -2.56411 3.27454 0
M  V30 768 H 70.2418 -3.35699 1.6236 0
M  V30 769 N 72.4269 -1.23603 -0.977757 0
M  V30 770 C 73.3369 -1.03632 -2.1047 0
M  V30 771 C 74.3529 0.0199435 -1.73989 0
M  V30 772 O 75.5289 -0.176076 -2.00629 0
M  V30 773 C 72.5939 -0.63276 -3.40877 0
M  V30 774 C 71.6549 -1.76437 -3.91367 0
M  V30 775 C 70.8879 -1.37997 -5.15551 0
M  V30 776 O 71.1109 -0.265357 -5.69782 0
M  V30 777 O 70.0449 -2.20201 -5.60174 0
M  V30 778 H 73.8709 -1.98086 -2.30208 0
M  V30 779 H 71.4559 -1.02332 -1.08851 0
M  V30 780 H 73.3379 -0.418761 -4.19314 0
M  V30 781 H 72.0129 0.282754 -3.22463 0
M  V30 782 H 70.9199 -2.03304 -3.14036 0
M  V30 783 H 72.2529 -2.6583 -4.14241 0
M  V30 784 N 73.905 1.17692 -1.04816 0
M  V30 785 C 75.13 1.92327 -0.776207 0
M  V30 786 C 75.555 1.76082 0.661581 0
M  V30 787 O 74.913 1.076 1.45917 0
M  V30 788 C 74.961 3.41539 -1.15687 0
M  V30 789 O 74.065 4.11402 -0.286775 0
M  V30 790 H 73.406 0.599735 -0.284981 0
M  V30 791 H 75.936 1.49201 -1.4 0
M  V30 792 H 75.946 3.92269 -1.12202 0
M  V30 793 H 74.621 3.52684 -2.20425 0
M  V30 794 H 73.198 3.70939 -0.381903 0
M  V30 795 N 75.3831 0.828654 1.34056 0
M  V30 796 C 76.6311 0.41863 1.97717 0
M  V30 797 C 76.9521 -1.02314 1.66002 0
M  V30 798 O 76.2221 -1.71119 0.953683 0
M  V30 799 H 74.8021 0.151809 0.731412 0
M  V30 800 H 77.4641 1.05936 1.63596 0
M  V30 801 H 76.5601 0.542318 3.07352 0
M  V30 802 N 76.8612 -1.46375 0.584142 0
M  V30 803 C 78.2772 -1.57694 0.245929 0
M  V30 804 C 78.4772 -1.57903 -1.25175 0
M  V30 805 O 77.5332 -1.49676 -2.03355 0
M  V30 806 C 78.8462 -2.87028 0.896402 0
M  V30 807 C 80.3942 -3.00662 0.870127 0
M  V30 808 C 80.8692 -4.32734 1.50017 0
M  V30 809 N 82.3602 -4.39436 1.46458 0
M  V30 810 C 83.0952 -5.40248 1.92144 0
M  V30 811 N 82.5912 -6.47726 2.4581 0
M  V30 812 N 84.3842 -5.31459 1.83052 0
M  V30 813 H 76.5352 -1.44483 1.55687 0
M  V30 814 H 78.7982 -0.689291 0.650831 0
M  V30 815 H 78.5042 -2.9269 1.95002 0
M  V30 816 H 78.3782 -3.75014 0.405486 0
M  V30 817 H 80.7652 -2.94581 -0.174871 0
M  V30 818 H 80.8462 -2.14148 1.39908 0
M  V30 819 H 80.4902 -4.39573 2.54437 0
M  V30 820 H 80.4202 -5.18025 0.946432 0
M  V30 821 H 82.9112 -3.62367 1.07231 0
M  V30 822 H 83.2242 -7.20863 2.78525 0
M  V30 823 H 81.5692 -6.48542 2.49836 0
M  V30 824 H 84.7602 -4.46396 1.40883 0
M  V30 825 H 84.9332 -6.09881 2.18973 0
M  V30 826 N 78.3393 -0.321999 -1.54275 0
M  V30 827 C 79.5853 0.281461 -2.00837 0
M  V30 828 C 79.9183 1.51909 -1.20985 0
M  V30 829 O 79.1933 1.923 -0.291733 0
M  V30 830 C 79.4763 0.617162 -3.54772 0
M  V30 831 C 79.3293 -0.631064 -4.45351 0
M  V30 832 C 80.6483 1.43542 -4.16033 0
M  V30 833 H 77.7673 0.100826 -0.730071 0
M  V30 834 H 80.4093 -0.438268 -1.84876 0
M  V30 835 H 78.5593 1.23034 -3.68504 0
M  V30 836 H 80.2313 -1.26934 -4.43492 0
M  V30 837 H 78.4743 -1.26025 -4.15091 0
M  V30 838 H 79.1453 -0.351735 -5.50878 0
M  V30 839 H 81.6213 0.917134 -4.05867 0
M  V30 840 H 80.4973 1.63907 -5.23856 0
M  V30 841 H 80.7583 2.43108 -3.69257 0
M  V30 842 N 79.8174 1.5752 -0.0501392 0
M  V30 843 C 81.0644 1.9265 0.623874 0
M  V30 844 C 81.3924 0.928411 1.70912 0
M  V30 845 O 80.6474 -0.0594525 1.9561 0
M  V30 846 C 80.9464 3.34467 1.25963 0
M  V30 847 C 80.6124 4.49883 0.302689 0
M  V30 848 C 79.2744 4.81184 0.0393636 0
M  V30 849 C 81.6264 5.20002 -0.353205 0
M  V30 850 C 78.9544 5.79951 -0.887308 0
M  V30 851 C 81.3064 6.1976 -1.26806 0
M  V30 852 C 79.9704 6.49491 -1.54007 0
M  V30 853 H 79.2404 0.704957 0.228292 0
M  V30 854 H 81.8874 1.91146 -0.116398 0
M  V30 855 H 80.1924 3.32333 2.07514 0
M  V30 856 H 81.8894 3.58928 1.78806 0
M  V30 857 H 78.4794 4.25457 0.518109 0
M  V30 858 H 82.6634 4.96033 -0.162854 0
M  V30 859 H 77.9194 6.01322 -1.10553 0
M  V30 860 H 82.0934 6.73205 -1.78236 0
M  V30 861 H 79.7204 7.25837 -2.25976 0
M  V30 862 N 81.2955 -0.223234 1.56011 0
M  V30 863 C 82.7065 -0.790368 1.69145 0
M  V30 864 C 83.0575 -1.85055 0.651845 0
M  V30 865 O 82.1825 -2.15498 -0.197359 0
M  V30 866 C 82.7775 -1.4404 3.06656 0
M  V30 867 C 81.3365 -1.95494 3.2165 0
M  V30 868 C 80.4835 -0.814506 2.65068 0
M  V30 869 H 83.4345 0.00139011 1.587 0
M  V30 870 H 83.4555 -2.30916 3.0242 0
M  V30 871 H 82.9675 -0.668543 3.82298 0
M  V30 872 H 81.0685 -2.75487 2.50874 0
M  V30 873 H 81.1815 -2.13607 4.28846 0
M  V30 874 H 79.5455 -1.22137 2.23505 0
M  V30 875 H 80.3285 -0.0553515 3.43255 0
M  V30 876 N 82.7736 -1.49793 -0.48987 0
M  V30 877 C 84.0196 -1.60078 -1.24511 0
M  V30 878 C 84.3526 -0.291608 -1.91998 0
M  V30 879 O 83.6276 0.705647 -1.81248 0
M  V30 880 C 83.9106 -2.76791 -2.30345 0
M  V30 881 C 83.7636 -4.17535 -1.67286 0
M  V30 882 C 85.0826 -2.89111 -3.31817 0
M  V30 883 H 82.2016 -0.582645 -0.451324 0
M  V30 884 H 84.8436 -1.82117 -0.541612 0
M  V30 885 H 82.9936 -2.5813 -2.90346 0
M  V30 886 H 84.6656 -4.4774 -1.11026 0
M  V30 887 H 82.9086 -4.22665 -0.976577 0
M  V30 888 H 83.5796 -4.95094 -2.44103 0
M  V30 889 H 86.0556 -3.06133 -2.81819 0
M  V30 890 H 84.9316 -3.72433 -4.03219 0
M  V30 891 H 85.1926 -1.9893 -3.94815 0
M  V30 892 N 84.2517 0.741722 -1.39055 0
M  V30 893 C 85.4817 1.52876 -1.3897 0
M  V30 894 C 85.8897 1.8919 0.0193266 0
M  V30 895 O 85.2327 1.54138 0.999356 0
M  V30 896 C 85.2947 2.84929 -2.19216 0
M  V30 897 C 84.9587 2.71086 -3.67915 0
M  V30 898 C 85.9557 2.40084 -4.61146 0
M  V30 899 C 83.6407 2.88168 -4.11418 0
M  V30 900 C 85.6347 2.26335 -5.95862 0
M  V30 901 C 83.3217 2.74037 -5.46211 0
M  V30 902 C 84.3197 2.43166 -6.38247 0
M  V30 903 O 84.0077 2.29115 -7.70559 0
M  V30 904 H 83.7397 0.479252 -0.476753 0
M  V30 905 H 86.2937 0.924751 -1.83405 0
M  V30 906 H 84.5237 3.47564 -1.69518 0
M  V30 907 H 86.2127 3.46509 -2.11392 0
M  V30 908 H 86.9787 2.26545 -4.28838 0
M  V30 909 H 82.8577 3.11191 -3.40119 0
M  V30 910 H 86.4017 2.0216 -6.67665 0
M  V30 911 H 82.2987 2.87153 -5.78112 0
M  V30 912 H 83.0667 2.44237 -7.81211 0
M  V30 913 N 85.7298 1.2412 0.971189 0
M  V30 914 C 86.6778 1.02812 2.08644 0
M  V30 915 C 87.6718 -0.0358403 1.69362 0
M  V30 916 O 88.8778 0.118429 1.7961 0
M  V30 917 H 85.2528 0.315428 0.682649 0
M  V30 918 H 87.2238 1.97397 2.23779 0
M  V30 919 C 85.9728 0.645874 3.41649 0
M  V30 920 H 85.2958 1.45632 3.72332 0
M  V30 921 H 86.7358 0.536366 4.20594 0
M  V30 922 C 85.1948 -0.646713 3.30635 0
M  V30 923 O 85.7248 -1.69338 3.64263 0
M  V30 924 N 83.9308 -0.626115 2.83775 0
M  V30 925 H 83.4778 0.225988 2.56607 0
M  V30 926 H 83.4358 -1.49117 2.76788 0
M  V30 927 N 87.2079 -1.17134 1.05439 0
M  V30 928 C 88.6189 -1.69084 0.791676 0
M  V30 929 C 88.9699 -1.83822 -0.685839 0
M  V30 930 O 88.0949 -1.52757 -1.53278 0
M  V30 931 C 88.6899 -3.07119 1.4305 0
M  V30 932 C 87.2489 -3.56225 1.21577 0
M  V30 933 C 86.3959 -2.32421 1.51247 0
M  V30 934 H 89.3469 -1.01617 1.219 0
M  V30 935 H 89.3679 -3.71087 0.84112 0
M  V30 936 H 88.8799 -2.9636 2.50584 0
M  V30 937 H 86.9809 -3.72257 0.159787 0
M  V30 938 H 87.0939 -4.38837 1.92246 0
M  V30 939 H 85.4579 -2.3701 0.932653 0
M  V30 940 H 86.2409 -2.24268 2.5992 0
M  V30 941 N 88.686 -0.835752 -1.33615 0
M  V30 942 C 89.649 -0.272 -2.2758 0
M  V30 943 C 90.649 0.557487 -1.50827 0
M  V30 944 O 91.839 0.37173 -1.70188 0
M  V30 945 C 88.971 0.617173 -3.35267 0
M  V30 946 H 90.164 -1.10111 -2.78954 0
M  V30 947 H 87.717 -0.608594 -1.43965 0
M  V30 948 H 88.452 1.46884 -2.89129 0
M  V30 949 H 88.237 0.0237066 -3.92093 0
M  V30 950 H 89.727 1.005 -4.05326 0
M  V30 951 N 90.1641 1.46063 -0.591896 0
M  V30 952 C 91.3921 2.06717 -0.0868936 0
M  V30 953 C 91.8071 1.43916 1.22203 0
M  V30 954 O 91.1641 0.547698 1.74088 0
M  V30 955 C 91.2151 3.6142 0.0758725 0
M  V30 956 O 90.9361 4.21874 -1.18126 0
M  V30 957 C 92.4371 4.39025 0.61416 0
M  V30 958 H 89.6571 0.668162 -0.0616518 0
M  V30 959 H 92.2011 1.8755 -0.815175 0
M  V30 960 H 90.3561 3.79983 0.754413 0
M  V30 961 H 90.7701 5.14861 -1.00092 0
M  V30 962 H 92.2441 5.4783 0.677193 0
M  V30 963 H 92.7211 4.07708 1.63312 0
M  V30 964 H 93.3271 4.2529 -0.0298142 0
M  V30 965 N 91.6422 0.330177 1.54103 0
M  V30 966 C 92.8902 -0.269871 2.0029 0
M  V30 967 C 93.2112 -1.52133 1.21986 0
M  V30 968 O 92.4812 -1.93212 0.323438 0
M  V30 969 H 91.0612 -0.10271 0.739905 0
M  V30 970 H 93.7232 0.448249 1.89675 0
M  V30 971 H 92.8192 -0.52166 3.07709 0
M  V30 972 N 93.1203 -1.57491 0.0584922 0
M  V30 973 C 94.0303 -2.15448 -0.928414 0
M  V30 974 C 95.0463 -1.11416 -1.3365 0
M  V30 975 O 96.2223 -1.4362 -1.41193 0
M  V30 976 C 93.2873 -2.69393 -2.18239 0
M  V30 977 C 92.3483 -3.88249 -1.83196 0
M  V30 978 C 91.5813 -4.39613 -3.02616 0
M  V30 979 O 91.8043 -3.90023 -4.16219 0
M  V30 980 O 90.7383 -5.31111 -2.83204 0
M  V30 981 H 94.5643 -3.00112 -0.465483 0
M  V30 982 H 92.1493 -1.48499 -0.163826 0
M  V30 983 H 94.0313 -3.04026 -2.91798 0
M  V30 984 H 92.7063 -1.87796 -2.63656 0
M  V30 985 H 91.6133 -3.58492 -1.06931 0
M  V30 986 H 92.9463 -4.71098 -1.42573 0
M  V30 987 N 94.5984 0.214957 -1.56127 0
M  V30 988 C 95.5304 1.29004 -1.89448 0
M  V30 989 C 96.5434 1.42716 -0.783326 0
M  V30 990 O 97.7324 1.43496 -1.06166 0
M  V30 991 C 94.8324 2.66482 -2.09381 0
M  V30 992 C 94.0054 2.74633 -3.40434 0
M  V30 993 C 93.0644 3.9317 -3.49719 0
M  V30 994 O 92.0904 3.812 -4.227 0
M  V30 995 N 93.2924 5.07765 -2.81346 0
M  V30 996 H 96.0574 1.00743 -2.82261 0
M  V30 997 H 93.6184 0.40497 -1.56753 0
M  V30 998 H 95.6104 3.44173 -2.12901 0
M  V30 999 H 94.1804 2.87314 -1.23163 0
M  V30 1000 H 93.4004 1.83368 -3.48955 0
M  V30 1001 H 94.6884 2.77054 -4.26754 0
M  V30 1002 H 94.0864 5.20386 -2.21843 0
M  V30 1003 H 92.6434 5.83474 -2.90519 0
M  V30 1004 N 96.0765 1.50051 0.48192 0
M  V30 1005 C 97.3225 1.60736 1.2366 0
M  V30 1006 C 97.6555 0.301786 1.91841 0
M  V30 1007 O 96.9305 -0.696025 1.8162 0
M  V30 1008 C 97.2135 2.78009 2.28874 0
M  V30 1009 C 97.0665 4.18416 1.65069 0
M  V30 1010 C 98.3855 2.90867 3.30279 0
M  V30 1011 H 95.5045 0.585031 0.448228 0
M  V30 1012 H 98.1465 1.82402 0.531946 0
M  V30 1013 H 96.2965 2.59667 2.88973 0
M  V30 1014 H 97.9685 4.48322 1.0865 0
M  V30 1015 H 96.2115 4.23177 0.954148 0
M  V30 1016 H 96.8825 4.96381 2.41474 0
M  V30 1017 H 99.3585 3.07623 2.80191 0
M  V30 1018 H 98.2345 3.74566 4.01238 0
M  V30 1019 H 98.4955 2.01021 3.93755 0
M  V30 1020 N 97.5546 -0.734337 1.39446 0
M  V30 1021 C 98.7946 -1.50655 1.38139 0
M  V30 1022 C 99.1586 -1.91986 -0.0228701 0
M  V30 1023 O 100.36 -2.68318 -0.160947 0
M  V30 1024 C 98.6306 -2.71251 2.32718 0
M  V30 1025 S 100.19 -3.60892 2.49605 0
M  V30 1026 H 97.0076 -0.515315 0.489869 0
M  V30 1027 H 99.6096 -0.860392 1.75549 0
M  V30 1028 H 98.3136 -2.39027 3.33608 0
M  V30 1029 H 97.8446 -3.40795 1.96526 0
M  V30 1030 H 99.8596 -4.64899 1.73446 0
M  V30 1031 N 99.0327 -1.24633 -0.964593 0
M  V30 1032 C 99.9427 -1.05859 -2.09359 0
M  V30 1033 C 100.959 0.00148855 -1.74 0
M  V30 1034 O 102.135 -0.197346 -2.00431 0
M  V30 1035 C 99.1997 -0.668879 -3.40187 0
M  V30 1036 C 98.2607 -1.80578 -3.89474 0
M  V30 1037 C 97.4937 -1.43457 -5.14058 0
M  V30 1038 O 97.7167 -0.325775 -5.69469 0
M  V30 1039 O 96.6507 -2.2613 -5.57807 0
M  V30 1040 H 100.477 -2.00516 -2.28094 0
M  V30 1041 H 98.0617 -1.03481 -1.0776 0
M  V30 1042 H 99.9437 -0.463211 -4.18846 0
M  V30 1043 H 98.6187 0.248536 -3.22744 0
M  V30 1044 H 97.5257 -2.06623 -3.11862 0
M  V30 1045 H 98.8587 -2.70208 -4.11398 0
M  V30 1046 N 100.511 1.16574 -1.06058 0
M  V30 1047 C 101.757 1.87324 -0.777022 0
M  V30 1048 C 102.09 1.81351 0.694645 0
M  V30 1049 O 101.365 1.22753 1.50871 0
M  V30 1050 C 101.648 3.36991 -1.26922 0
M  V30 1051 C 101.501 3.51667 -2.80447 0
M  V30 1052 C 102.82 4.3131 -0.87521 0
M  V30 1053 H 99.9388 0.680191 -0.28374 0
M  V30 1054 H 102.581 1.37036 -1.3161 0
M  V30 1055 H 100.731 3.79949 -0.81063 0
M  V30 1056 H 102.403 3.17664 -3.34495 0
M  V30 1057 H 100.646 2.93656 -3.19294 0
M  V30 1058 H 101.317 4.56766 -3.0995 0
M  V30 1059 H 103.793 3.9624 -1.27014 0
M  V30 1060 H 102.669 5.34545 -1.2471 0
M  V30 1061 H 102.93 4.41552 0.220071 0
M  V30 1062 N 101.989 0.842826 1.3317 0
M  V30 1063 C 102.921 0.236245 2.27979 0
M  V30 1064 C 103.934 -0.585282 1.51915 0
M  V30 1065 O 105.123 -0.411705 1.73687 0
M  V30 1066 C 102.223 -0.685717 3.3189 0
M  V30 1067 C 101.396 0.0973448 4.37292 0
M  V30 1068 C 100.455 -0.748565 5.20848 0
M  V30 1069 O 99.4809 -0.186339 5.68895 0
M  V30 1070 N 100.683 -2.06527 5.42519 0
M  V30 1071 H 103.448 1.05088 2.80672 0
M  V30 1072 H 101.009 0.701667 1.45905 0
M  V30 1073 H 103.001 -1.25669 3.84694 0
M  V30 1074 H 101.571 -1.40105 2.79445 0
M  V30 1075 H 100.791 0.849706 3.84933 0
M  V30 1076 H 102.079 0.635643 5.04814 0
M  V30 1077 H 101.477 -2.54554 5.05192 0
M  V30 1078 H 100.034 -2.58464 5.98364 0
M  V30 1079 N 103.467 -1.45747 0.599634 0
M  V30 1080 C 104.377 -2.34262 -0.125888 0
M  V30 1081 C 105.393 -1.50768 -0.868625 0
M  V30 1082 O 106.569 -1.83592 -0.828003 0
M  V30 1083 C 103.634 -3.28252 -1.11587 0
M  V30 1084 C 102.695 -4.27651 -0.375956 0
M  V30 1085 C 101.928 -5.1715 -1.31877 0
M  V30 1086 O 102.151 -5.09916 -2.55621 0
M  V30 1087 O 101.085 -5.96286 -0.820157 0
M  V30 1088 H 104.911 -2.97688 0.601315 0
M  V30 1089 H 102.496 -1.44999 0.359934 0
M  V30 1090 H 104.378 -3.86191 -1.68626 0
M  V30 1091 H 103.053 -2.67401 -1.82424 0
M  V30 1092 H 101.96 -3.7335 0.236698 0
M  V30 1093 H 103.293 -4.91334 0.29177 0
M  V30 1094 N 104.945 -0.338344 -1.53925 0
M  V30 1095 C 105.908 0.508299 -2.23493 0
M  V30 1096 C 106.908 1.03175 -1.23335 0
M  V30 1097 O 108.098 0.921826 -1.47811 0
M  V30 1098 C 105.23 1.70754 -2.95052 0
M  V30 1099 H 106.423 -0.100058 -2.99733 0
M  V30 1100 H 103.976 -0.0896198 -1.56043 0
M  V30 1101 H 104.711 2.35474 -2.22986 0
M  V30 1102 H 104.496 1.33946 -3.68512 0
M  V30 1103 H 105.986 2.30818 -3.48013 0
M  V30 1104 N 106.423 1.57458 -0.0668435 0
M  V30 1105 C 107.7 1.8469 0.644132 0
M  V30 1106 C 108.08 0.958343 1.88093 0
M  V30 1107 O 107.428 0.0233579 2.28488 0
M  V30 1108 C 107.638 3.34767 0.986509 0
M  V30 1109 C 108.986 4.02159 1.36212 0
M  V30 1110 O 110.01 3.39484 1.07839 0
M  V30 1111 O 108.869 5.12694 1.89227 0
M  V30 1112 H 105.963 0.762816 0.319437 0
M  V30 1113 H 108.509 1.6942 -0.0973986 0
M  V30 1114 H 107.281 3.91151 0.107883 0
M  V30 1115 H 106.904 3.55281 1.78497 0
M  V30 1116 N 107.901 -0.206675 1.56239 0
M  V30 1117 C 108.848 -1.25617 1.93621 0
M  V30 1118 C 109.818 -1.45824 0.795274 0
M  V30 1119 O 111.003 -1.59148 1.05245 0
M  V30 1120 C 108.143 -2.59839 2.27107 0
M  V30 1121 C 107.256 -2.47308 3.54207 0
M  V30 1122 C 106.391 -3.74155 3.7707 0
M  V30 1123 C 105.43 -3.56407 4.97635 0
M  V30 1124 N 104.567 -4.75238 5.1681 0
M  V30 1125 H 109.407 -0.930383 2.83104 0
M  V30 1126 H 106.944 -0.448065 1.4011 0
M  V30 1127 H 108.902 -3.38021 2.44535 0
M  V30 1128 H 107.532 -2.90485 1.40778 0
M  V30 1129 H 106.584 -1.60483 3.4489 0
M  V30 1130 H 107.896 -2.30122 4.42544 0
M  V30 1131 H 107.05 -4.60778 3.94675 0
M  V30 1132 H 105.789 -3.94282 2.87042 0
M  V30 1133 H 104.794 -2.68168 4.79964 0
M  V30 1134 H 106.019 -3.37736 5.89161 0
M  V30 1135 H 103.965 -4.95651 4.29728 0
M  V30 1136 H 103.882 -4.60835 5.99306 0
M  V30 1137 H 105.15 -5.63246 5.38864 0
M  V30 1138 N 109.379 -1.50304 -0.473955 0
M  V30 1139 C 110.342 -1.6841 -1.55469 0
M  V30 1140 C 111.342 -0.554905 -1.50922 0
M  V30 1141 O 112.532 -0.821882 -1.53593 0
M  V30 1142 C 109.664 -1.70667 -2.95102 0
M  V30 1143 H 110.857 -2.64828 -1.40733 0
M  V30 1144 H 108.41 -1.39742 -0.700132 0
M  V30 1145 H 109.145 -0.75932 -3.15285 0
M  V30 1146 H 108.93 -2.52698 -2.9981 0
M  V30 1147 H 110.42 -1.8664 -3.73571 0
M  V30 1148 N 110.857 0.726932 -1.39834 0
M  V30 1149 C 112.134 1.47902 -1.28001 0
M  V30 1150 C 112.514 2.1083 0.106789 0
M  V30 1151 O 111.862 1.99242 1.11869 0
M  V30 1152 C 112.072 2.52392 -2.41038 0
M  V30 1153 C 113.42 3.18546 -2.80737 0
M  V30 1154 O 114.444 2.62708 -2.40547 0
M  V30 1155 O 113.303 4.19604 -3.50135 0
M  V30 1156 H 110.397 0.657163 -0.502062 0
M  V30 1157 H 112.943 0.760071 -1.51727 0
M  V30 1158 H 111.715 2.04329 -3.33715 0
M  V30 1159 H 111.338 3.31837 -2.19021 0
M  V30 1160 N 112.336 1.25143 0.95797 0
M  V30 1161 C 113.585 1.0909 1.69654 0
M  V30 1162 C 113.898 -0.368548 1.92097 0
M  V30 1163 O 115.104 -0.649455 2.63618 0
M  V30 1164 C 113.56 1.90395 3.05414 0
M  V30 1165 C 113.168 3.4081 2.90779 0
M  V30 1166 C 114.912 1.82901 3.83076 0
M  V30 1167 C 112.819 4.14423 4.21909 0
M  V30 1168 H 111.749 0.404625 0.636235 0
M  V30 1169 H 114.4 1.4931 1.06672 0
M  V30 1170 H 112.782 1.42996 3.69281 0
M  V30 1171 H 113.956 3.95859 2.35865 0
M  V30 1172 H 112.271 3.49361 2.26575 0
M  V30 1173 H 114.868 2.35196 4.80195 0
M  V30 1174 H 115.211 0.796224 4.08615 0
M  V30 1175 H 115.744 2.28033 3.25954 0
M  V30 1176 H 112.483 5.18102 4.01561 0
M  V30 1177 H 112.003 3.64159 4.76601 0
M  V30 1178 H 113.682 4.21956 4.90471 0
M  V30 1179 N 113.814 -1.1601 1.06675 0
M  V30 1180 C 115.091 -1.82679 0.699114 0
M  V30 1181 C 115.471 -1.94559 -0.819137 0
M  V30 1182 O 114.819 -1.49169 -1.73092 0
M  V30 1183 C 115.029 -3.19445 1.40555 0
M  V30 1184 C 116.377 -3.95171 1.55323 0
M  V30 1185 O 117.401 -3.28976 1.36577 0
M  V30 1186 O 116.26 -5.13833 1.86112 0
M  V30 1187 H 113.354 -0.788954 0.247951 0
M  V30 1188 H 115.9 -1.23179 1.16726 0
M  V30 1189 H 114.672 -3.05856 2.44065 0
M  V30 1190 H 114.295 -3.86625 0.927733 0
M  V30 1191 N 115.292 -0.849877 -1.32721 0
M  V30 1192 C 116.239 -0.289033 -2.28983 0
M  V30 1193 C 117.209 0.601324 -1.54833 0
M  V30 1194 O 118.394 0.537253 -1.8308 0
M  V30 1195 C 115.534 0.520623 -3.4115 0
M  V30 1196 C 114.647 -0.394989 -4.3019 0
M  V30 1197 C 113.782 0.426834 -5.29482 0
M  V30 1198 C 112.821 -0.486476 -6.10164 0
M  V30 1199 N 111.958 0.297879 -7.01468 0
M  V30 1200 H 116.798 -1.11519 -2.76347 0
M  V30 1201 H 114.335 -0.56138 -1.35967 0
M  V30 1202 H 116.293 1.00563 -4.04899 0
M  V30 1203 H 114.923 1.31165 -2.9495 0
M  V30 1204 H 113.975 -0.99836 -3.67065 0
M  V30 1205 H 115.287 -1.09612 -4.86607 0
M  V30 1206 H 114.441 0.975205 -5.98811 0
M  V30 1207 H 113.18 1.16136 -4.73671 0
M  V30 1208 H 112.185 -1.04677 -5.39743 0
M  V30 1209 H 113.41 -1.21953 -6.6806 0
M  V30 1210 H 111.356 1.01558 -6.48091 0
M  V30 1211 H 111.273 -0.344318 -7.55216 0
M  V30 1212 H 112.541 0.828131 -7.75089 0
M  V30 1213 N 116.77 1.45427 -0.607355 0
M  V30 1214 C 117.733 2.28974 0.101693 0
M  V30 1215 C 118.733 1.39754 0.795329 0
M  V30 1216 O 119.923 1.61878 0.643527 0
M  V30 1217 C 117.055 3.20768 1.15414 0
M  V30 1218 H 118.248 2.93147 -0.632844 0
M  V30 1219 H 115.801 1.51945 -0.366391 0
M  V30 1220 H 116.536 2.61395 1.91945 0
M  V30 1221 H 116.321 3.86489 0.66098 0
M  V30 1222 H 117.811 3.83589 1.65073 0
M  V30 1223 N 118.248 0.346503 1.53744 0
M  V30 1224 C 119.494 -0.249473 2.0126 0
M  V30 1225 C 119.827 -1.49965 1.23386 0
M  V30 1226 O 119.102 -1.91811 0.32229 0
M  V30 1227 C 119.385 -0.560643 3.55709 0
M  V30 1228 C 119.238 0.701836 4.44291 0
M  V30 1229 C 120.557 -1.36905 4.18264 0
M  V30 1230 H 117.676 -0.0891987 0.731582 0
M  V30 1231 H 120.318 0.467624 1.84156 0
M  V30 1232 H 118.468 -1.17156 3.70414 0
M  V30 1233 H 120.14 1.33974 4.41417 0
M  V30 1234 H 118.383 1.32612 4.13033 0
M  V30 1235 H 119.054 0.43933 5.50249 0
M  V30 1236 H 121.53 -0.852448 4.07275 0
M  V30 1237 H 120.406 -1.55553 5.26398 0
M  V30 1238 H 120.667 -2.37203 3.73078 0
M  V30 1239 N 119.726 -1.57421 0.075193 0
M  V30 1240 C 120.658 -2.09904 -0.920483 0
M  V30 1241 C 121.671 -1.03191 -1.25918 0
M  V30 1242 O 122.86 -1.30695 -1.21577 0
M  V30 1243 C 119.96 -2.54726 -2.23534 0
M  V30 1244 C 119.133 -3.8505 -2.07498 0
M  V30 1245 C 118.192 -4.15929 -3.22319 0
M  V30 1246 O 117.218 -4.85474 -2.9716 0
M  V30 1247 N 118.42 -3.69745 -4.47514 0
M  V30 1248 H 121.185 -2.95954 -0.472359 0
M  V30 1249 H 118.746 -1.61523 -0.110444 0
M  V30 1250 H 120.738 -2.72443 -2.9926 0
M  V30 1251 H 119.308 -1.73795 -2.59835 0
M  V30 1252 H 118.528 -3.76679 -1.16219 0
M  V30 1253 H 119.816 -4.70348 -1.94038 0
M  V30 1254 H 119.214 -3.13569 -4.7084 0
M  V30 1255 H 117.771 -3.92655 -5.20255 0
M  V30 1256 N 121.204 0.198386 -1.56346 0
M  V30 1257 C 122.167 1.22952 -1.93431 0
M  V30 1258 C 123.167 1.38611 -0.815092 0
M  V30 1259 O 124.357 1.36479 -1.08255 0
M  V30 1260 C 121.489 2.59946 -2.20546 0
M  V30 1261 H 122.682 0.912626 -2.85677 0
M  V30 1262 H 120.235 0.43977 -1.49986 0
M  V30 1263 H 120.97 2.96696 -1.30927 0
M  V30 1264 H 120.755 2.49953 -3.02102 0
M  V30 1265 H 122.245 3.3431 -2.50253 0
M  V30 1266 N 122.682 1.50554 0.465978 0
M  V30 1267 C 123.645 1.69233 1.54574 0
M  V30 1268 C 124.645 0.562901 1.50626 0
M  V30 1269 O 125.835 0.830016 1.53155 0
M  V30 1270 C 122.967 1.7223 2.94193 0
M  V30 1271 H 124.16 2.65571 1.39327 0
M  V30 1272 H 121.713 1.40111 0.692711 0
M  V30 1273 H 122.448 0.77603 3.14878 0
M  V30 1274 H 122.233 2.54285 2.98466 0
M  V30 1275 H 123.723 1.88618 3.72576 0
M  V30 1276 N 124.16 -0.719506 1.40217 0
M  V30 1277 C 125.576 -1.02707 1.22161 0
M  V30 1278 C 125.776 -2.0128 0.0940557 0
M  V30 1279 O 124.832 -2.46452 -0.549318 0
M  V30 1280 C 126.145 -1.57454 2.56181 0
M  V30 1281 C 127.693 -1.69458 2.63159 0
M  V30 1282 C 128.168 -2.27611 3.97438 0
M  V30 1283 N 129.659 -2.35002 3.99159 0
M  V30 1284 C 130.394 -2.80972 4.99842 0
M  V30 1285 N 129.89 -3.26723 6.10921 0
M  V30 1286 N 131.683 -2.80321 4.87213 0
M  V30 1287 H 123.834 -0.0660492 2.12297 0
M  V30 1288 H 126.097 -0.0919077 0.943534 0
M  V30 1289 H 125.803 -0.924873 3.39321 0
M  V30 1290 H 125.677 -2.56036 2.76993 0
M  V30 1291 H 128.064 -2.33543 1.80393 0
M  V30 1292 H 128.145 -0.694867 2.46181 0
M  V30 1293 H 127.789 -1.6415 4.80643 0
M  V30 1294 H 127.719 -3.2829 4.11744 0
M  V30 1295 H 130.21 -2.02685 3.18947 0
M  V30 1296 H 130.523 -3.60355 6.8364 0
M  V30 1297 H 128.868 -3.24692 6.14492 0
M  V30 1298 H 132.059 -2.43912 3.9953 0
M  V30 1299 H 132.232 -3.15831 5.65822 0
M  V30 1300 N 125.638 -1.25649 -0.95132 0
M  V30 1301 C 126.568 -1.08808 -2.06599 0
M  V30 1302 C 127.549 0.00382547 -1.701 0
M  V30 1303 O 128.734 -0.166325 -1.93486 0
M  V30 1304 C 125.864 -0.709542 -3.39975 0
M  V30 1305 C 124.818 -1.75206 -3.90496 0
M  V30 1306 C 124.144 -1.22811 -5.20405 0
M  V30 1307 C 125.444 -3.15153 -4.16504 0
M  V30 1308 H 127.138 -2.02048 -2.20946 0
M  V30 1309 H 124.684 -0.972835 -1.06169 0
M  V30 1310 H 126.637 -0.578649 -4.17408 0
M  V30 1311 H 125.361 0.258556 -3.25575 0
M  V30 1312 H 124.02 -1.87145 -3.15234 0
M  V30 1313 H 123.668 -0.250145 -5.02378 0
M  V30 1314 H 123.368 -1.92492 -5.55176 0
M  V30 1315 H 124.892 -1.10968 -6.00432 0
M  V30 1316 H 126.306 -3.06349 -4.84586 0
M  V30 1317 H 124.703 -3.82333 -4.62538 0
M  V30 1318 H 125.773 -3.61966 -3.22658 0
M  V30 1319 N 127.117 1.15442 -1.07289 0
M  V30 1320 C 128.08 2.18358 -0.696591 0
M  V30 1321 C 129.08 1.58637 0.262837 0
M  V30 1322 O 130.27 1.74145 0.0438809 0
M  V30 1323 C 127.402 3.4089 -0.0266151 0
M  V30 1324 H 128.595 2.53162 -1.60776 0
M  V30 1325 H 126.148 1.29893 -0.869342 0
M  V30 1326 H 126.883 3.11653 0.896822 0
M  V30 1327 H 126.668 3.85495 -0.716657 0
M  V30 1328 H 128.158 4.17009 0.222028 0
M  V30 1329 N 128.595 0.856903 1.32268 0
M  V30 1330 C 129.842 0.461386 1.97174 0
M  V30 1331 C 130.17 -0.983491 1.67803 0
M  V30 1332 O 129.425 -1.70541 0.959903 0
M  V30 1333 C 129.724 0.649919 3.51441 0
M  V30 1334 C 129.39 2.0656 4.00804 0
M  V30 1335 C 128.052 2.45279 4.13995 0
M  V30 1336 C 130.404 2.98947 4.26943 0
M  V30 1337 C 127.732 3.75653 4.50668 0
M  V30 1338 C 130.084 4.28822 4.65075 0
M  V30 1339 C 128.748 4.67472 4.76472 0
M  V30 1340 H 128.018 0.168833 0.72151 0
M  V30 1341 H 130.665 1.08739 1.57633 0
M  V30 1342 H 128.97 -0.0593018 3.91755 0
M  V30 1343 H 130.667 0.32391 3.9969 0
M  V30 1344 H 127.257 1.75495 3.91024 0
M  V30 1345 H 131.441 2.70265 4.16258 0
M  V30 1346 H 126.697 4.05379 4.57688 0
M  V30 1347 H 130.871 5.0047 4.84255 0
M  V30 1348 H 128.498 5.68539 5.04646 0
M  V30 1349 N 130.073 -1.45103 0.615059 0
M  V30 1350 C 131.298 -2.07064 0.117988 0
M  V30 1351 C 131.723 -1.4554 -1.19163 0
M  V30 1352 O 131.081 -0.550855 -1.72729 0
M  V30 1353 C 131.129 -3.606 -0.000288387 0
M  V30 1354 O 130.233 -3.98847 -1.04856 0
M  V30 1355 H 129.574 -0.659467 0.0774581 0
M  V30 1356 H 132.104 -1.86236 0.847186 0
M  V30 1357 H 132.114 -4.07529 -0.196091 0
M  V30 1358 H 130.789 -4.04765 0.955932 0
M  V30 1359 H 129.366 -3.63577 -0.828619 0
M  V30 1360 N 131.551 -0.354651 -1.53558 0
M  V30 1361 C 132.481 0.489091 -2.2832 0
M  V30 1362 C 133.462 1.09324 -1.30316 0
M  V30 1363 O 134.647 1.11255 -1.59173 0
M  V30 1364 C 131.777 1.63456 -3.0643 0
M  V30 1365 C 130.731 1.1582 -4.12031 0
M  V30 1366 C 130.057 2.39305 -4.7816 0
M  V30 1367 C 131.357 0.250731 -5.21698 0
M  V30 1368 H 133.051 -0.134614 -2.99097 0
M  V30 1369 H 130.597 -0.0661826 -1.43848 0
M  V30 1370 H 132.55 2.23136 -3.57475 0
M  V30 1371 H 131.274 2.28533 -2.33325 0
M  V30 1372 H 129.933 0.584146 -3.61916 0
M  V30 1373 H 129.581 3.02814 -4.01637 0
M  V30 1374 H 129.281 2.08109 -5.49513 0
M  V30 1375 H 130.805 2.99691 -5.31994 0
M  V30 1376 H 132.219 0.754695 -5.68311 0
M  V30 1377 H 130.616 0.0301468 -6.00092 0
M  V30 1378 H 131.686 -0.710125 -4.79672 0
M  V30 1379 N 133.029 1.57378 -0.0835403 0
M  V30 1380 C 134.277 1.93547 0.581718 0
M  V30 1381 C 134.598 0.96524 1.69435 0
M  V30 1382 O 133.868 0.0153369 1.95894 0
M  V30 1383 H 132.448 0.714521 0.217874 0
M  V30 1384 H 135.11 1.94366 -0.144158 0
M  V30 1385 H 134.206 2.95665 0.999423 0
M  V30 1386 N 134.507 -0.190092 1.56449 0
M  V30 1387 C 135.732 -0.929864 1.85387 0
M  V30 1388 C 136.157 -1.7585 0.667704 0
M  V30 1389 O 135.515 -1.77198 -0.383459 0
M  V30 1390 C 135.563 -1.79773 3.12593 0
M  V30 1391 O 134.667 -2.89713 2.93496 0
M  V30 1392 H 134.008 -0.261574 0.610307 0
M  V30 1393 H 136.538 -0.193896 2.03679 0
M  V30 1394 H 136.548 -2.20139 3.43515 0
M  V30 1395 H 135.223 -1.18892 3.98544 0
M  V30 1396 H 133.8 -2.53065 2.73884 0
M  V30 1397 N 135.985 -1.50799 -0.457987 0
M  V30 1398 C 137.231 -1.62683 -1.21088 0
M  V30 1399 C 137.564 -0.332268 -1.91336 0
M  V30 1400 O 136.839 0.667043 -1.82704 0
M  V30 1401 C 137.122 -2.81615 -2.24422 0
M  V30 1402 C 136.975 -4.20989 -1.58392 0
M  V30 1403 C 138.294 -2.96085 -3.2561 0
M  V30 1404 H 135.413 -0.592087 -0.438864 0
M  V30 1405 H 138.055 -1.83225 -0.50286 0
M  V30 1406 H 136.205 -2.64231 -2.84806 0
M  V30 1407 H 137.877 -4.49994 -1.01504 0
M  V30 1408 H 136.12 -4.24641 -0.886704 0
M  V30 1409 H 136.791 -5.0016 -2.33547 0
M  V30 1410 H 139.267 -3.12042 -2.75262 0
M  V30 1411 H 138.143 -3.80902 -3.95228 0
M  V30 1412 H 138.404 -2.0726 -3.90507 0
M  V30 1413 N 137.463 0.71206 -1.40597 0
M  V30 1414 C 138.709 1.47292 -1.40274 0
M  V30 1415 C 139.064 1.92399 -0.00576812 0
M  V30 1416 O 138.357 1.65507 0.965297 0
M  V30 1417 C 138.551 2.71039 -2.32965 0
M  V30 1418 C 138.38 2.38035 -3.81536 0
M  V30 1419 C 137.15 2.29203 -4.50327 0
M  V30 1420 C 139.348 2.02076 -4.72938 0
M  V30 1421 N 137.33 1.88911 -5.84111 0
M  V30 1422 C 138.701 1.72412 -5.95545 0
M  V30 1423 C 140.756 1.88742 -4.60739 0
M  V30 1424 C 139.459 1.30756 -7.07316 0
M  V30 1425 C 141.485 1.4849 -5.72455 0
M  V30 1426 C 140.847 1.19726 -6.94151 0
M  V30 1427 H 136.946 0.536919 -0.568544 0
M  V30 1428 H 139.53 0.825424 -1.76337 0
M  V30 1429 H 137.701 3.33533 -1.99023 0
M  V30 1430 H 139.433 3.37404 -2.23474 0
M  V30 1431 H 136.188 2.47059 -4.04053 0
M  V30 1432 H 136.612 1.71293 -6.54972 0
M  V30 1433 H 141.254 2.0964 -3.67166 0
M  V30 1434 H 138.972 1.08601 -8.00769 0
M  V30 1435 H 142.558 1.38747 -5.65014 0
M  V30 1436 H 141.438 0.890482 -7.79128 0
M  V30 1437 N 138.941 1.26152 0.944643 0
M  V30 1438 C 140.357 1.03189 1.21754 0
M  V30 1439 C 140.557 -0.245112 2.00004 0
M  V30 1440 O 139.613 -0.955176 2.33736 0
M  V30 1441 C 140.926 2.26119 1.98219 0
M  V30 1442 C 142.474 2.30984 2.11224 0
M  V30 1443 C 142.949 3.53597 2.91089 0
M  V30 1444 N 144.44 3.54053 2.98664 0
M  V30 1445 C 145.175 4.45593 3.60881 0
M  V30 1446 N 144.671 5.47416 4.24626 0
M  V30 1447 N 146.464 4.33252 3.58119 0
M  V30 1448 H 138.615 2.08177 0.421437 0
M  V30 1449 H 140.878 0.914723 0.248969 0
M  V30 1450 H 140.584 3.18984 1.48128 0
M  V30 1451 H 140.458 2.3009 2.98895 0
M  V30 1452 H 142.845 1.38635 2.60508 0
M  V30 1453 H 142.926 2.31026 1.09821 0
M  V30 1454 H 142.57 4.46273 2.42493 0
M  V30 1455 H 142.5 3.50802 3.92741 0
M  V30 1456 H 144.991 2.80403 2.53343 0
M  V30 1457 H 145.304 6.13459 4.69987 0
M  V30 1458 H 143.649 5.51278 4.23223 0
M  V30 1459 H 146.84 3.52924 3.0751 0
M  V30 1460 H 147.013 5.04786 4.06319 0
M  V30 1461 N 140.419 -1.14872 1.07899 0
M  V30 1462 C 141.835 -1.37776 0.805606 0
M  V30 1463 C 142.035 -1.92743 -0.587555 0
M  V30 1464 O 141.091 -2.13678 -1.34528 0
M  V30 1465 C 142.404 -2.34361 1.88402 0
M  V30 1466 C 143.952 -2.48012 1.90942 0
M  V30 1467 C 144.427 -3.47893 2.97883 0
M  V30 1468 N 145.918 -3.55433 2.97021 0
M  V30 1469 C 146.653 -4.32553 3.76412 0
M  V30 1470 N 146.149 -5.12959 4.65666 0
M  V30 1471 N 147.942 -4.27697 3.64735 0
M  V30 1472 H 140.093 -0.775365 1.97742 0
M  V30 1473 H 142.356 -0.403521 0.857831 0
M  V30 1474 H 142.062 -2.01098 2.88535 0
M  V30 1475 H 141.936 -3.34206 1.74889 0
M  V30 1476 H 144.323 -2.8057 0.914579 0
M  V30 1477 H 144.404 -1.48147 2.08534 0
M  V30 1478 H 144.048 -3.16069 3.97571 0
M  V30 1479 H 143.978 -4.47527 2.77538 0
M  V30 1480 H 146.469 -2.98048 2.32326 0
M  V30 1481 H 146.782 -5.69065 5.22862 0
M  V30 1482 H 145.127 -5.12245 4.69712 0
M  V30 1483 H 148.318 -3.63949 2.94378 0
M  V30 1484 H 148.491 -4.8755 4.26848 0
M  V30 1485 N 141.898 -0.863906 -1.31812 0
M  V30 1486 C 142.831 -0.259963 -2.26714 0
M  V30 1487 C 143.809 0.607392 -1.50829 0
M  V30 1488 O 144.993 0.562155 -1.79922 0
M  V30 1489 C 142.12 0.632456 -3.32743 0
M  V30 1490 C 141.166 -0.162743 -4.26189 0
M  V30 1491 S 141.999 -1.53726 -5.12961 0
M  V30 1492 C 143.155 -0.650803 -6.22507 0
M  V30 1493 H 143.388 -1.06445 -2.77591 0
M  V30 1494 H 140.921 -0.662071 -1.39485 0
M  V30 1495 H 142.879 1.14167 -3.94305 0
M  V30 1496 H 141.54 1.41083 -2.80632 0
M  V30 1497 H 140.733 0.517366 -5.01338 0
M  V30 1498 H 140.335 -0.60385 -3.69093 0
M  V30 1499 H 142.627 0.141134 -6.77353 0
M  V30 1500 H 143.57 -1.37322 -6.94657 0
M  V30 1501 H 143.978 -0.221041 -5.64067 0
M  V30 1502 N 143.376 1.44774 -0.622745 0
M  V30 1503 C 144.653 1.95522 -0.0551974 0
M  V30 1504 C 145.033 1.5649 1.41683 0
M  V30 1505 O 144.381 0.834848 2.12703 0
M  V30 1506 C 144.591 3.4796 -0.269242 0
M  V30 1507 C 145.939 4.24306 -0.158014 0
M  V30 1508 O 146.963 3.55637 -0.200162 0
M  V30 1509 O 145.822 5.46471 -0.0558693 0
M  V30 1510 H 142.916 0.826556 0.0271015 0
M  V30 1511 H 145.462 1.54866 -0.693864 0
M  V30 1512 H 144.234 3.6939 -1.29099 0
M  V30 1513 H 143.857 3.95543 0.403966 0
M  V30 1514 N 144.854 0.36279 1.53368 0
M  V30 1515 C 145.817 -0.472679 2.24273 0
M  V30 1516 C 146.817 -1.012 1.24961 0
M  V30 1517 O 148.007 -0.898194 1.49259 0
M  V30 1518 C 145.139 -1.66039 2.97731 0
M  V30 1519 H 146.332 0.14773 2.99536 0
M  V30 1520 H 143.885 0.114434 1.55881 0
M  V30 1521 H 144.62 -2.31896 2.26704 0
M  V30 1522 H 144.405 -1.28066 3.70596 0
M  V30 1523 H 145.895 -2.25252 3.51641 0
M  V30 1524 N 146.332 -1.57332 0.0918853 0
M  V30 1525 C 147.557 -1.98995 -0.584442 0
M  V30 1526 C 147.982 -0.970528 -1.61128 0
M  V30 1527 O 147.34 0.0613904 -1.81196 0
M  V30 1528 C 147.388 -3.39636 -1.21161 0
M  V30 1529 O 146.492 -3.40447 -2.32744 0
M  V30 1530 H 145.833 -0.647165 -0.148572 0
M  V30 1531 H 148.363 -2.03873 0.172347 0
M  V30 1532 H 148.373 -3.7726 -1.55367 0
M  V30 1533 H 147.048 -4.13356 -0.459313 0
M  V30 1534 H 145.625 -3.14614 -2.0018 0
M  V30 1535 N 147.81 0.181792 -1.56548 0
M  V30 1536 C 148.72 1.24538 -1.98815 0
M  V30 1537 C 149.736 1.49045 -0.897861 0
M  V30 1538 O 150.912 1.61399 -1.20467 0
M  V30 1539 C 147.977 2.56683 -2.33055 0
M  V30 1540 C 147.038 2.40131 -3.55859 0
M  V30 1541 C 146.271 3.65975 -3.88456 0
M  V30 1542 O 146.494 4.70711 -3.22161 0
M  V30 1543 O 145.428 3.6071 -4.81842 0
M  V30 1544 H 149.254 0.916647 -2.89536 0
M  V30 1545 H 146.839 0.387842 -1.44278 0
M  V30 1546 H 148.721 3.34655 -2.56094 0
M  V30 1547 H 147.396 2.89157 -1.45498 0
M  V30 1548 H 146.303 1.60226 -3.38051 0
M  V30 1549 H 147.636 2.12585 -4.43924 0
M  V30 1550 N 149.288 1.51039 0.449983 0
M  V30 1551 C 150.704 1.38934 0.785462 0
M  V30 1552 C 150.904 0.461817 1.96136 0
M  V30 1553 O 149.96 -0.0877389 2.52348 0
M  V30 1554 C 151.273 2.80724 1.0777 0
M  V30 1555 C 152.821 2.89787 1.1829 0
M  V30 1556 C 153.296 4.32457 1.50815 0
M  V30 1557 N 154.787 4.35505 1.57764 0
M  V30 1558 C 155.522 5.42914 1.84477 0
M  V30 1559 N 155.018 6.60502 2.09068 0
M  V30 1560 N 156.811 5.3038 1.86155 0
M  V30 1561 H 148.962 2.09904 -0.324647 0
M  V30 1562 H 151.225 0.944378 -0.0827957 0
M  V30 1563 H 150.931 3.50531 0.286498 0
M  V30 1564 H 150.805 3.19273 2.00859 0
M  V30 1565 H 153.192 2.20186 1.96474 0
M  V30 1566 H 153.273 2.54752 0.231314 0
M  V30 1567 H 152.917 5.02603 0.731622 0
M  V30 1568 H 152.847 4.64995 2.47158 0
M  V30 1569 H 155.338 3.50724 1.40715 0
M  V30 1570 H 155.651 7.38158 2.28785 0
M  V30 1571 H 153.996 6.63639 2.06416 0
M  V30 1572 H 157.187 4.37505 1.66454 0
M  V30 1573 H 157.36 6.1417 2.06637 0
M  V30 1574 N 150.766 -0.704594 1.40972 0
M  V30 1575 C 152.014 -1.46169 1.39568 0
M  V30 1576 C 152.335 -1.95 0.00253745 0
M  V30 1577 O 151.605 -1.71095 -0.954114 0
M  V30 1578 H 150.185 -0.542326 0.513704 0
M  V30 1579 H 152.847 -0.834553 1.76128 0
M  V30 1580 H 151.943 -2.32922 2.07735 0
M  V30 1581 N 152.244 -1.26651 -0.937939 0
M  V30 1582 C 153.66 -1.03834 -1.21205 0
M  V30 1583 C 153.86 0.234502 -2.00131 0
M  V30 1584 O 152.916 0.942767 -2.3424 0
M  V30 1585 C 154.229 -2.27167 -1.97017 0
M  V30 1586 C 155.777 -2.32101 -2.09996 0
M  V30 1587 C 156.252 -3.55136 -2.8921 0
M  V30 1588 N 157.743 -3.55632 -2.96783 0
M  V30 1589 C 158.478 -4.475 -3.58512 0
M  V30 1590 N 157.974 -5.4966 -4.21717 0
M  V30 1591 N 159.767 -4.35145 -3.55816 0
M  V30 1592 H 151.918 -2.08398 -0.410391 0
M  V30 1593 H 154.181 -0.916031 -0.244114 0
M  V30 1594 H 153.887 -3.19765 -1.46434 0
M  V30 1595 H 153.761 -2.31672 -2.97671 0
M  V30 1596 H 156.148 -1.40015 -2.59769 0
M  V30 1597 H 156.229 -2.31605 -1.08594 0
M  V30 1598 H 155.873 -4.47553 -2.40123 0
M  V30 1599 H 155.803 -3.5288 -3.90875 0
M  V30 1600 H 158.294 -2.81743 -2.51852 0
M  V30 1601 H 158.607 -6.15943 -4.66727 0
M  V30 1602 H 156.952 -5.53514 -4.20294 0
M  V30 1603 H 160.143 -3.5455 -3.05634 0
M  V30 1604 H 160.316 -5.06934 -4.03636 0
M  V30 1605 N 153.722 1.14298 -1.08507 0
M  V30 1606 C 154.652 2.21542 -0.737646 0
M  V30 1607 C 155.633 1.67773 0.280377 0
M  V30 1608 O 156.818 1.93616 0.150521 0
M  V30 1609 C 153.948 3.46988 -0.147259 0
M  V30 1610 C 152.902 4.13789 -1.09374 0
M  V30 1611 C 152.228 5.33449 -0.365524 0
M  V30 1612 C 153.528 4.62208 -2.4323 0
M  V30 1613 H 155.222 2.5086 -1.6343 0
M  V30 1614 H 152.768 1.20576 -0.787243 0
M  V30 1615 H 154.721 4.21262 0.107808 0
M  V30 1616 H 153.445 3.17037 0.784538 0
M  V30 1617 H 152.104 3.4147 -1.33393 0
M  V30 1618 H 151.752 4.99759 0.57011 0
M  V30 1619 H 151.452 5.79088 -0.996512 0
M  V30 1620 H 152.976 6.10485 -0.118534 0
M  V30 1621 H 154.39 5.27952 -2.23472 0
M  V30 1622 H 152.787 5.18553 -3.02031 0
M  V30 1623 H 153.857 3.77224 -3.04681 0
M  V30 1624 N 155.201 0.870884 1.31352 0
M  V30 1625 C 156.131 0.343096 2.30966 0
M  V30 1626 C 157.112 -0.566507 1.60389 0
M  V30 1627 O 158.297 -0.483336 1.88089 0
M  V30 1628 C 155.427 -0.455487 3.443 0
M  V30 1629 C 154.381 0.361103 4.26474 0
M  V30 1630 C 153.707 -0.563221 5.31725 0
M  V30 1631 C 155.007 1.59566 4.97329 0
M  V30 1632 H 156.701 1.17548 2.75359 0
M  V30 1633 H 154.247 0.566686 1.32381 0
M  V30 1634 H 156.2 -0.83525 4.13039 0
M  V30 1635 H 154.924 -1.32139 2.98675 0
M  V30 1636 H 153.583 0.722825 3.59403 0
M  V30 1637 H 153.231 -1.42643 4.82351 0
M  V30 1638 H 152.931 -0.0207409 5.87596 0
M  V30 1639 H 154.455 -0.939808 6.03324 0
M  V30 1640 H 155.869 1.28728 5.58661 0
M  V30 1641 H 154.266 2.07728 5.63 0
M  V30 1642 H 155.336 2.34798 4.24262 0
M  V30 1643 N 156.679 -1.44442 0.630414 0
M  V30 1644 C 157.956 -1.9549 0.0655657 0
M  V30 1645 C 158.336 -1.5724 -1.40851 0
M  V30 1646 O 157.684 -0.846116 -2.12257 0
M  V30 1647 C 157.894 -3.47812 0.287691 0
M  V30 1648 C 159.242 -4.24216 0.180513 0
M  V30 1649 O 160.266 -3.55526 0.219019 0
M  V30 1650 O 159.125 -5.46434 0.0848493 0
M  V30 1651 H 156.219 -0.826688 -0.0227177 0
M  V30 1652 H 158.765 -1.54496 0.702068 0
M  V30 1653 H 157.537 -3.687 1.31056 0
M  V30 1654 H 157.16 -3.95751 -0.382984 0
M  V30 1655 N 158.157 -0.370918 -1.53173 0
M  V30 1656 C 159.104 0.473035 -2.259 0
M  V30 1657 C 160.074 1.07311 -1.26781 0
M  V30 1658 O 161.259 1.1046 -1.55574 0
M  V30 1659 C 158.399 1.60405 -3.05556 0
M  V30 1660 C 157.512 1.02863 -4.19575 0
M  V30 1661 C 156.647 2.12918 -4.86661 0
M  V30 1662 C 155.686 1.52869 -5.92704 0
M  V30 1663 N 154.823 2.56779 -6.53459 0
M  V30 1664 H 159.663 -0.153649 -2.97604 0
M  V30 1665 H 157.2 -0.0875946 -1.46839 0
M  V30 1666 H 159.158 2.27034 -3.50016 0
M  V30 1667 H 157.788 2.20131 -2.36097 0
M  V30 1668 H 156.84 0.252465 -3.79561 0
M  V30 1669 H 158.152 0.549642 -4.95762 0
M  V30 1670 H 157.306 2.87356 -5.34333 0
M  V30 1671 H 156.045 2.6417 -4.09958 0
M  V30 1672 H 155.05 0.769479 -5.44389 0
M  V30 1673 H 156.275 1.02435 -6.7133 0
M  V30 1674 H 154.221 3.07235 -5.79606 0
M  V30 1675 H 154.138 2.13583 -7.25202 0
M  V30 1676 H 155.406 3.30903 -7.05779 0
M  V30 1677 N 159.635 1.57281 -0.100228 0
M  V30 1678 C 160.565 2.17328 0.853857 0
M  V30 1679 C 161.546 1.10804 1.2906 0
M  V30 1680 O 162.731 1.38963 1.35657 0
M  V30 1681 C 159.861 2.75772 2.11109 0
M  V30 1682 C 158.815 3.87713 1.81279 0
M  V30 1683 C 158.141 4.32882 3.13874 0
M  V30 1684 C 159.441 5.10677 1.09574 0
M  V30 1685 H 161.135 2.97305 0.353545 0
M  V30 1686 H 158.681 1.43009 0.168612 0
M  V30 1687 H 160.634 3.16433 2.78296 0
M  V30 1688 H 159.358 1.93057 2.63432 0
M  V30 1689 H 158.017 3.476 1.16489 0
M  V30 1690 H 157.665 3.47051 3.64095 0
M  V30 1691 H 157.365 5.08358 2.94696 0
M  V30 1692 H 158.889 4.7618 3.82211 0
M  V30 1693 H 160.303 5.48474 1.66879 0
M  V30 1694 H 158.7 5.91615 1.00557 0
M  V30 1695 H 159.77 4.84835 0.0793299 0
M  V30 1696 N 161.113 -0.173488 1.56642 0
M  V30 1697 C 162.076 -1.19859 1.95362 0
M  V30 1698 C 163.076 -1.37296 0.83704 0
M  V30 1699 O 164.266 -1.34739 1.10413 0
M  V30 1700 C 161.398 -2.56405 2.24654 0
M  V30 1701 H 162.591 -0.867062 2.87092 0
M  V30 1702 H 160.144 -0.415853 1.50666 0
M  V30 1703 H 160.879 -2.94576 1.35631 0
M  V30 1704 H 160.664 -2.45115 3.06041 0
M  V30 1705 H 162.154 -3.30287 2.5554 0
M  V30 1706 N 162.591 -1.51276 -0.441967 0
M  V30 1707 C 163.868 -1.54252 -1.20273 0
M  V30 1708 C 164.248 -0.30408 -2.08898 0
M  V30 1709 O 163.596 0.711084 -2.17154 0
M  V30 1710 C 163.806 -2.85406 -2.00859 0
M  V30 1711 C 165.154 -3.37181 -2.58059 0
M  V30 1712 O 166.178 -2.86925 -2.11074 0
M  V30 1713 O 165.037 -4.24858 -3.43741 0
M  V30 1714 H 162.131 -0.619969 -0.547328 0
M  V30 1715 H 164.677 -1.63586 -0.451413 0
M  V30 1716 H 163.449 -3.67003 -1.35736 0
M  V30 1717 H 163.072 -2.79213 -2.83065 0
M  V30 1718 N 164.069 0.697108 -1.41344 0
M  V30 1719 C 164.999 1.82353 -1.45841 0
M  V30 1720 C 165.98 1.67115 -0.317247 0
M  V30 1721 O 167.165 1.86871 -0.528474 0
M  V30 1722 C 164.295 3.20476 -1.33838 0
M  V30 1723 C 163.249 3.50415 -2.4575 0
M  V30 1724 C 162.575 4.87878 -2.18813 0
M  V30 1725 C 163.875 3.49546 -3.88091 0
M  V30 1726 H 165.569 1.78846 -2.40113 0
M  V30 1727 H 163.115 0.859028 -1.15571 0
M  V30 1728 H 165.068 3.98988 -1.35596 0
M  V30 1729 H 163.792 3.24604 -0.360498 0
M  V30 1730 H 162.451 2.74253 -2.43271 0
M  V30 1731 H 162.099 4.8863 -1.19371 0
M  V30 1732 H 161.799 5.08875 -2.93803 0
M  V30 1733 H 163.323 5.68702 -2.22284 0
M  V30 1734 H 164.737 4.18066 -3.92293 0
M  V30 1735 H 163.134 3.82075 -4.62751 0
M  V30 1736 H 164.204 2.48552 -4.16353 0
M  V30 1737 N 165.547 1.27147 0.931209 0
M  V30 1738 C 166.793 1.13446 1.68101 0
M  V30 1739 C 167.126 -0.319628 1.91552 0
M  V30 1740 O 166.401 -1.23407 1.50336 0
M  V30 1741 C 166.684 1.91482 3.0497 0
M  V30 1742 C 166.537 3.44855 2.88782 0
M  V30 1743 C 167.856 1.71651 4.05246 0
M  V30 1744 H 164.975 0.413498 0.610072 0
M  V30 1745 H 167.617 1.56261 1.08086 0
M  V30 1746 H 165.767 1.55095 3.56199 0
M  V30 1747 H 167.439 3.9105 2.44698 0
M  V30 1748 H 165.682 3.71373 2.24198 0
M  V30 1749 H 166.353 3.94694 3.85902 0
M  V30 1750 H 168.829 2.0337 3.63015 0
M  V30 1751 H 167.705 2.28651 4.99009 0
M  V30 1752 H 167.966 0.663555 4.37092 0
M  V30 1753 N 167.025 -1.13721 1.09112 0
M  V30 1754 C 167.935 -2.22638 0.73957 0
M  V30 1755 C 168.951 -1.72091 -0.257068 0
M  V30 1756 O 170.127 -2.01155 -0.0992154 0
M  V30 1757 C 167.192 -3.46322 0.16191 0
M  V30 1758 C 166.253 -4.11775 1.21408 0
M  V30 1759 C 165.486 -5.29555 0.663891 0
M  V30 1760 O 165.709 -5.68077 -0.514274 0
M  V30 1761 O 164.643 -5.84973 1.41738 0
M  V30 1762 H 168.469 -2.55074 1.64836 0
M  V30 1763 H 166.054 -1.21791 0.865289 0
M  V30 1764 H 167.936 -4.21107 -0.157073 0
M  V30 1765 H 166.611 -3.15593 -0.719932 0
M  V30 1766 H 165.518 -3.3883 1.58571 0
M  V30 1767 H 166.851 -4.46627 2.06845 0
M  V30 1768 N 168.503 -0.877838 -1.30888 0
M  V30 1769 C 169.919 -0.570844 -1.49042 0
M  V30 1770 C 170.119 0.893159 -1.80624 0
M  V30 1771 O 169.175 1.67485 -1.88958 0
M  V30 1772 C 170.488 -1.47784 -2.61878 0
M  V30 1773 C 172.036 -1.48071 -2.75761 0
M  V30 1774 C 172.511 -2.37347 -3.91702 0
M  V30 1775 N 174.002 -2.35271 -3.99001 0
M  V30 1776 C 174.737 -3.01063 -4.88004 0
M  V30 1777 N 174.233 -3.76055 -5.81854 0
M  V30 1778 N 176.026 -2.90332 -4.81315 0
M  V30 1779 H 168.177 -1.82502 -1.0866 0
M  V30 1780 H 170.44 -0.780797 -0.537644 0
M  V30 1781 H 170.146 -2.51993 -2.45341 0
M  V30 1782 H 170.02 -1.18215 -3.58197 0
M  V30 1783 H 172.407 -0.446166 -2.91708 0
M  V30 1784 H 172.488 -1.81668 -1.80085 0
M  V30 1785 H 172.132 -3.40883 -3.76512 0
M  V30 1786 H 172.062 -2.01071 -4.86701 0
M  V30 1787 H 174.553 -1.80768 -3.3186 0
M  V30 1788 H 174.866 -4.23366 -6.46514 0
M  V30 1789 H 173.211 -3.80163 -5.81808 0
M  V30 1790 H 176.402 -2.31278 -4.06974 0
M  V30 1791 H 176.575 -3.41885 -5.50471 0
M  V30 1792 N 169.982 1.44106 -0.638065 0
M  V30 1793 C 171.259 1.95453 -0.0759321 0
M  V30 1794 C 171.639 1.57984 1.40015 0
M  V30 1795 O 170.987 0.857361 2.11806 0
M  V30 1796 C 171.197 3.47655 -0.306132 0
M  V30 1797 C 172.545 4.24114 -0.203008 0
M  V30 1798 O 173.569 3.55405 -0.237871 0
M  V30 1799 O 172.428 5.46381 -0.113827 0
M  V30 1800 H 169.522 0.826797 0.0183332 0
M  V30 1801 H 172.068 1.54122 -0.710251 0
M  V30 1802 H 170.84 3.68 -1.3301 0
M  V30 1803 H 170.463 3.95949 0.361991 0
M  V30 1804 N 171.46 0.379036 1.52974 0
M  V30 1805 C 172.876 0.0285448 1.59574 0
M  V30 1806 C 173.076 -1.45542 1.39355 0
M  V30 1807 O 172.132 -2.2187 1.20541 0
M  V30 1808 C 173.445 0.496535 2.96572 0
M  V30 1809 C 174.993 0.451909 3.0972 0
M  V30 1810 C 175.468 0.895924 4.49152 0
M  V30 1811 N 176.959 0.851522 4.55306 0
M  V30 1812 C 177.694 1.16661 5.61407 0
M  V30 1813 N 177.19 1.55166 6.752 0
M  V30 1814 N 178.983 1.08853 5.51459 0
M  V30 1815 H 171.134 1.34525 1.64367 0
M  V30 1816 H 173.397 0.550733 0.771619 0
M  V30 1817 H 173.103 1.53258 3.16552 0
M  V30 1818 H 172.977 -0.109802 3.7704 0
M  V30 1819 H 175.364 -0.575029 2.89443 0
M  V30 1820 H 175.445 1.09392 2.3123 0
M  V30 1821 H 175.089 1.92104 4.70168 0
M  V30 1822 H 175.019 0.23103 5.26093 0
M  V30 1823 H 177.51 0.568038 3.73606 0
M  V30 1824 H 177.823 1.776 7.52116 0
M  V30 1825 H 176.168 1.59044 6.76557 0
M  V30 1826 H 179.359 0.786803 4.6144 0
M  V30 1827 H 179.532 1.33742 6.34048 0
M  V30 1828 N 172.938 -1.57226 0.108567 0
M  V30 1829 C 173.901 -2.13602 -0.831082 0
M  V30 1830 C 174.901 -1.06841 -1.20173 0
M  V30 1831 O 176.091 -1.32666 -1.12895 0
M  V30 1832 C 173.223 -2.66769 -2.12243 0
M  V30 1833 H 174.416 -2.97951 -0.341317 0
M  V30 1834 H 171.969 -1.55667 -0.14057 0
M  V30 1835 H 172.704 -1.85977 -2.65675 0
M  V30 1836 H 172.489 -3.44839 -1.86625 0
M  V30 1837 H 173.979 -3.10332 -2.79435 0
M  V30 1838 N 174.416 0.165178 -1.56732 0
M  V30 1839 C 175.662 0.882112 -1.82611 0
M  V30 1840 C 175.995 1.81628 -0.687378 0
M  V30 1841 O 175.27 1.92009 0.310267 0
M  V30 1842 C 175.553 1.67245 -3.18906 0
M  V30 1843 C 175.406 0.760987 -4.43316 0
M  V30 1844 C 176.725 2.63884 -3.52212 0
M  V30 1845 H 173.844 0.319242 -0.664269 0
M  V30 1846 H 176.486 0.148052 -1.89422 0
M  V30 1847 H 174.636 2.29824 -3.1323 0
M  V30 1848 H 176.308 0.147596 -4.61064 0
M  V30 1849 H 174.551 0.0694102 -4.33744 0
M  V30 1850 H 175.222 1.34962 -5.35247 0
M  V30 1851 H 177.698 2.11429 -3.58381 0
M  V30 1852 H 176.574 3.16245 -4.48643 0
M  V30 1853 H 176.835 3.44377 -2.77231 0
M  V30 1854 N 175.894 1.51508 0.433938 0
M  V30 1855 C 176.824 1.76016 1.53429 0
M  V30 1856 C 177.805 0.610112 1.58782 0
M  V30 1857 O 178.99 0.853177 1.74455 0
M  V30 1858 C 176.12 1.88831 2.9148 0
M  V30 1859 C 175.074 3.04288 3.00987 0
M  V30 1860 C 174.4 3.0229 4.4105 0
M  V30 1861 C 175.7 4.44193 2.74754 0
M  V30 1862 H 177.394 2.68152 1.33171 0
M  V30 1863 H 174.94 1.29035 0.639214 0
M  V30 1864 H 176.893 2.04559 3.6842 0
M  V30 1865 H 175.617 0.933455 3.12976 0
M  V30 1866 H 174.276 2.8827 2.26486 0
M  V30 1867 H 173.924 2.04576 4.59519 0
M  V30 1868 H 173.624 3.79822 4.4834 0
M  V30 1869 H 175.148 3.20116 5.1996 0
M  V30 1870 H 176.562 4.60544 3.41426 0
M  V30 1871 H 174.959 5.23457 2.9345 0
M  V30 1872 H 176.029 4.53996 1.70339 0
M  V30 1873 N 177.372 -0.689602 1.41712 0
M  V30 1874 C 178.335 -1.78521 1.43746 0
M  V30 1875 C 179.335 -1.57436 0.327191 0
M  V30 1876 O 180.525 -1.64 0.587348 0
M  V30 1877 C 177.657 -3.16971 1.25467 0
M  V30 1878 H 178.85 -1.78108 2.41283 0
M  V30 1879 H 176.403 -0.89781 1.27942 0
M  V30 1880 H 177.138 -3.23019 0.287948 0
M  V30 1881 H 176.923 -3.33678 2.05917 0
M  V30 1882 H 178.413 -3.96935 1.2974 0
M  V30 1883 N 178.85 -1.27639 -0.924453 0
M  V30 1884 C 180.078 -1.16989 -1.70649 0
M  V30 1885 C 180.493 0.272869 -1.86818 0
M  V30 1886 O 179.85 1.18549 -1.38753 0
M  V30 1887 C 179.901 -1.85229 -3.10439 0
M  V30 1888 O 179.622 -3.23868 -2.95028 0
M  V30 1889 C 181.123 -1.80746 -4.04779 0
M  V30 1890 H 178.343 -0.406595 -0.53378 0
M  V30 1891 H 180.887 -1.68569 -1.15778 0
M  V30 1892 H 179.042 -1.37545 -3.6216 0
M  V30 1893 H 179.456 -3.57889 -3.83426 0
M  V30 1894 H 180.93 -2.33101 -5.00368 0
M  V30 1895 H 181.407 -0.777499 -4.32263 0
M  V30 1896 H 182.013 -2.28059 -3.58984 0
M  V30 1897 N 180.328 1.1314 -1.09713 0
M  V30 1898 C 181.261 2.17735 -0.683137 0
M  V30 1899 C 182.239 1.59582 0.311841 0
M  V30 1900 O 183.423 1.87298 0.212514 0
M  V30 1901 C 180.55 3.38699 -0.00684324 0
M  V30 1902 C 179.596 4.1546 -0.964102 0
M  V30 1903 S 180.429 4.74733 -2.47767 0
M  V30 1904 C 181.585 5.9904 -1.81387 0
M  V30 1905 H 181.818 2.52515 -1.56918 0
M  V30 1906 H 179.351 1.24484 -0.913404 0
M  V30 1907 H 181.309 4.08765 0.377044 0
M  V30 1908 H 179.97 3.02214 0.85589 0
M  V30 1909 H 179.163 5.02093 -0.43803 0
M  V30 1910 H 178.765 3.51066 -1.28953 0
M  V30 1911 H 181.057 6.67846 -1.13967 0
M  V30 1912 H 182 6.56261 -2.65947 0
M  V30 1913 H 182.408 5.4976 -1.28155 0
M  V30 1914 N 181.806 0.884767 1.30421 0
M  V30 1915 C 182.716 0.355398 2.31892 0
M  V30 1916 C 183.732 -0.542261 1.65335 0
M  V30 1917 O 184.908 -0.435432 1.96637 0
M  V30 1918 C 181.973 -0.421661 3.44126 0
M  V30 1919 C 181.034 0.505727 4.26311 0
M  V30 1920 C 180.267 -0.234343 5.33185 0
M  V30 1921 O 180.49 -1.46045 5.51386 0
M  V30 1922 O 179.424 0.415443 6.00465 0
M  V30 1923 H 183.25 1.19685 2.79122 0
M  V30 1924 H 180.835 0.648596 1.34587 0
M  V30 1925 H 182.717 -0.861641 4.12497 0
M  V30 1926 H 181.392 -1.23942 2.99032 0
M  V30 1927 H 180.299 0.994513 3.60639 0
M  V30 1928 H 181.632 1.28948 4.75009 0
M  V30 1929 N 183.284 -1.43765 0.645699 0
M  V30 1930 C 184.509 -2.06767 0.161883 0
M  V30 1931 C 184.934 -1.48034 -1.16049 0
M  V30 1932 O 184.292 -0.587369 -1.71522 0
M  V30 1933 C 184.34 -3.60519 0.0762003 0
M  V30 1934 O 183.444 -4.00982 -0.963721 0
M  V30 1935 H 182.785 -0.657675 0.091429 0
M  V30 1936 H 185.315 -1.84397 0.886499 0
M  V30 1937 H 185.325 -4.07853 -0.109604 0
M  V30 1938 H 184 -4.02646 1.04157 0
M  V30 1939 H 182.577 -3.65253 -0.751312 0
M  V30 1940 N 184.763 -0.387143 -1.52771 0
M  V30 1941 C 185.693 0.440551 -2.29306 0
M  V30 1942 C 186.674 1.06535 -1.32606 0
M  V30 1943 O 187.859 1.07853 -1.61497 0
M  V30 1944 C 184.989 1.56919 -3.09829 0
M  V30 1945 C 183.943 1.07054 -4.14395 0
M  V30 1946 C 183.269 2.29109 -4.83129 0
M  V30 1947 C 184.569 0.140015 -5.22112 0
M  V30 1948 H 186.263 -0.198026 -2.98744 0
M  V30 1949 H 183.809 -0.09668 -1.43675 0
M  V30 1950 H 185.762 2.15503 -3.62128 0
M  V30 1951 H 184.486 2.23532 -2.3812 0
M  V30 1952 H 183.145 0.507247 -3.63074 0
M  V30 1953 H 182.793 2.94227 -4.0797 0
M  V30 1954 H 182.493 1.96406 -5.53804 0
M  V30 1955 H 184.017 2.88339 -5.38231 0
M  V30 1956 H 185.431 0.633978 -5.69784 0
M  V30 1957 H 183.828 -0.0971485 -6.00021 0
M  V30 1958 H 184.898 -0.811711 -4.78058 0
M  V30 1959 N 186.241 1.57166 -0.116904 0
M  V30 1960 C 187.189 2.16457 0.851418 0
M  V30 1961 C 188.183 1.11323 1.27686 0
M  V30 1962 O 189.389 1.2963 1.24884 0
M  V30 1963 H 185.764 0.69271 0.292672 0
M  V30 1964 H 187.735 2.96605 0.32685 0
M  V30 1965 C 186.484 2.77689 2.09246 0
M  V30 1966 H 185.807 3.58285 1.77402 0
M  V30 1967 H 187.247 3.22716 2.7501 0
M  V30 1968 C 185.706 1.74667 2.88085 0
M  V30 1969 O 186.236 1.19877 3.83396 0
M  V30 1970 N 184.442 1.44656 2.52038 0
M  V30 1971 H 183.989 1.89402 1.74599 0
M  V30 1972 H 183.947 0.759675 3.05084 0
M  V30 1973 N 187.719 -0.156864 1.56817 0
M  V30 1974 C 188.967 -0.869404 1.82444 0
M  V30 1975 C 189.288 -1.82147 0.69623 0
M  V30 1976 O 188.558 -1.93847 -0.28287 0
M  V30 1977 H 187.138 -0.324043 0.673056 0
M  V30 1978 H 189.8 -0.153224 1.94297 0
M  V30 1979 H 188.896 -1.43761 2.77019 0
M  V30 1980 N 189.197 -1.51736 -0.425897 0
M  V30 1981 C 190.445 -1.64644 -1.17204 0
M  V30 1982 C 190.766 -0.370486 -1.91448 0
M  V30 1983 O 190.036 0.614088 -1.86026 0
M  V30 1984 H 188.616 -0.606819 -0.435638 0
M  V30 1985 H 191.278 -1.88713 -0.487177 0
M  V30 1986 H 190.374 -2.47958 -1.89534 0
M  V30 1987 N 190.675 0.682077 -1.42076 0
M  V30 1988 C 191.622 1.79578 -1.44984 0
M  V30 1989 C 192.592 1.6332 -0.302614 0
M  V30 1990 O 193.777 1.83978 -0.505633 0
M  V30 1991 C 190.917 3.1756 -1.35091 0
M  V30 1992 C 190.03 3.45156 -2.59791 0
M  V30 1993 C 189.165 4.72826 -2.42093 0
M  V30 1994 C 188.204 4.93433 -3.62202 0
M  V30 1995 N 187.341 6.12338 -3.43491 0
M  V30 1996 H 192.181 1.76427 -2.40161 0
M  V30 1997 H 189.718 0.861376 -1.19242 0
M  V30 1998 H 191.676 3.97287 -1.27354 0
M  V30 1999 H 190.306 3.19854 -0.435133 0
M  V30 2000 H 189.358 2.59736 -2.77923 0
M  V30 2001 H 190.67 3.5628 -3.49094 0
M  V30 2002 H 189.824 5.60631 -2.319 0
M  V30 2003 H 188.563 4.63973 -1.50268 0
M  V30 2004 H 187.568 4.04073 -3.72834 0
M  V30 2005 H 188.793 5.04136 -4.54998 0
M  V30 2006 H 186.739 6.04672 -2.54377 0
M  V30 2007 H 186.656 6.2429 -4.26377 0
M  V30 2008 H 187.924 7.02841 -3.37097 0
M  V30 2009 N 192.153 1.28127 0.917671 0
M  V30 2010 C 193.564 1.13622 1.48145 0
M  V30 2011 C 193.915 -0.275207 1.9426 0
M  V30 2012 O 193.04 -1.1691 1.82102 0
M  V30 2013 C 193.635 2.05648 2.69248 0
M  V30 2014 C 192.194 1.95219 3.21818 0
M  V30 2015 C 191.341 1.97618 1.94532 0
M  V30 2016 H 194.292 1.40874 0.730772 0
M  V30 2017 H 194.313 1.61818 3.44377 0
M  V30 2018 H 193.825 3.08365 2.35653 0
M  V30 2019 H 191.926 0.955244 3.60147 0
M  V30 2020 H 192.039 2.81976 3.87333 0
M  V30 2021 H 190.403 1.41973 2.11461 0
M  V30 2022 H 191.186 3.02007 1.63238 0
M  V30 2023 N 193.631 -1.12557 1.10312 0
M  V30 2024 C 194.878 -1.84038 0.844759 0
M  V30 2025 C 195.206 -1.84026 -0.629668 0
M  V30 2026 O 194.461 -1.28026 -1.48013 0
M  V30 2027 C 194.76 -3.31462 1.33669 0
M  V30 2028 C 194.426 -3.51647 2.82232 0
M  V30 2029 C 193.088 -3.56864 3.22802 0
M  V30 2030 C 195.44 -3.58867 3.77974 0
M  V30 2031 C 192.768 -3.66844 4.57867 0
M  V30 2032 C 195.12 -3.70375 5.1284 0
M  V30 2033 C 193.784 -3.73848 5.52986 0
M  V30 2034 H 193.054 -0.673444 0.309119 0
M  V30 2035 H 195.701 -1.32824 1.37949 0
M  V30 2036 H 194.006 -3.85091 0.721949 0
M  V30 2037 H 195.703 -3.85236 1.11329 0
M  V30 2038 H 192.293 -3.48249 2.49842 0
M  V30 2039 H 196.477 -3.54107 3.47738 0
M  V30 2040 H 191.733 -3.67804 4.88396 0
M  V30 2041 H 195.907 -3.74904 5.86873 0
M  V30 2042 H 193.534 -3.81333 6.57639 0
M  V30 2043 N 195.109 -0.891671 -1.2995 0
M  V30 2044 C 196.039 -0.379797 -2.30391 0
M  V30 2045 C 197.02 0.540919 -1.6127 0
M  V30 2046 O 198.205 0.453352 -1.88834 0
M  V30 2047 C 195.335 0.400654 -3.44981 0
M  V30 2048 C 194.289 -0.428905 -4.25846 0
M  V30 2049 C 193.615 0.478557 -5.32554 0
M  V30 2050 C 194.915 -1.67458 -4.94727 0
M  V30 2051 H 196.609 -1.21914 -2.73454 0
M  V30 2052 H 194.155 -0.587675 -1.31462 0
M  V30 2053 H 196.108 0.769434 -4.14316 0
M  V30 2054 H 194.832 1.27371 -3.0074 0
M  V30 2055 H 193.491 -0.779911 -3.58208 0
M  V30 2056 H 193.139 1.34951 -4.84559 0
M  V30 2057 H 192.839 -0.0727433 -5.87555 0
M  V30 2058 H 194.363 0.843705 -6.04743 0
M  V30 2059 H 195.777 -1.376 -5.56542 0
M  V30 2060 H 194.174 -2.16659 -5.59624 0
M  V30 2061 H 195.244 -2.41518 -4.20473 0
M  V30 2062 N 196.587 1.43421 -0.653314 0
M  V30 2063 C 197.519 2.29071 0.0769134 0
M  V30 2064 C 198.532 1.42513 0.787017 0
M  V30 2065 O 199.721 1.66449 0.644757 0
M  V30 2066 C 196.821 3.19436 1.13199 0
M  V30 2067 C 195.994 4.34533 0.500006 0
M  V30 2068 C 195.053 5.05771 1.45198 0
M  V30 2069 O 194.079 5.61037 0.960538 0
M  V30 2070 N 195.281 5.0928 2.78594 0
M  V30 2071 H 198.046 2.92382 -0.658235 0
M  V30 2072 H 195.607 1.54112 -0.496104 0
M  V30 2073 H 197.599 3.63958 1.76964 0
M  V30 2074 H 196.169 2.57724 1.7691 0
M  V30 2075 H 195.389 3.92925 -0.316738 0
M  V30 2076 H 196.677 5.08766 0.0588345 0
M  V30 2077 H 196.075 4.65751 3.2108 0
M  V30 2078 H 194.632 5.57519 3.37662 0
M  V30 2079 N 198.065 0.39524 1.52563 0
M  V30 2080 C 199.028 -0.425001 2.25225 0
M  V30 2081 C 200.028 -0.985266 1.27079 0
M  V30 2082 O 201.218 -0.866332 1.5113 0
M  V30 2083 C 198.35 -1.59686 3.01186 0
M  V30 2084 H 199.543 0.211233 2.99155 0
M  V30 2085 H 197.096 0.147472 1.55603 0
M  V30 2086 H 197.831 -2.27035 2.31572 0
M  V30 2087 H 197.616 -1.20176 3.73229 0
M  V30 2088 H 199.106 -2.17743 3.5634 0
M  V30 2089 N 199.544 -1.57102 0.125237 0
M  V30 2090 C 200.791 -1.95407 -0.531248 0
M  V30 2091 C 201.119 -1.0089 -1.66287 0
M  V30 2092 O 200.374 -0.0339431 -1.95671 0
M  V30 2093 C 200.673 -3.40096 -1.09862 0
M  V30 2094 C 200.339 -4.50815 -0.0876989 0
M  V30 2095 C 199.001 -4.80824 0.19026 0
M  V30 2096 C 201.353 -5.17724 0.600902 0
M  V30 2097 C 198.681 -5.75058 1.163 0
M  V30 2098 C 201.033 -6.13005 1.56231 0
M  V30 2099 C 199.697 -6.41403 1.8482 0
M  V30 2100 H 198.967 -0.715046 -0.194397 0
M  V30 2101 H 201.614 -1.90373 0.207463 0
M  V30 2102 H 199.919 -3.41855 -1.91422 0
M  V30 2103 H 201.616 -3.6705 -1.61478 0
M  V30 2104 H 198.206 -4.27444 -0.314528 0
M  V30 2105 H 202.39 -4.94691 0.399333 0
M  V30 2106 H 197.646 -5.95362 1.39117 0
M  V30 2107 H 201.82 -6.63934 2.10153 0
M  V30 2108 H 199.447 -7.14229 2.60349 0
M  V30 2109 N 201.022 0.148545 -1.56898 0
M  V30 2110 C 202.252 0.875118 -1.8715 0
M  V30 2111 C 202.66 1.75322 -0.711262 0
M  V30 2112 O 202.003 1.80745 0.328151 0
M  V30 2113 C 202.065 1.7844 -3.12089 0
M  V30 2114 C 201.729 1.08361 -4.43967 0
M  V30 2115 C 202.726 0.438247 -5.1805 0
M  V30 2116 C 200.411 1.07358 -4.90693 0
M  V30 2117 C 202.405 -0.20779 -6.37061 0
M  V30 2118 C 200.092 0.42373 -6.09629 0
M  V30 2119 C 201.09 -0.215829 -6.82659 0
M  V30 2120 O 200.778 -0.855378 -7.99336 0
M  V30 2121 H 200.51 0.258504 -0.624621 0
M  V30 2122 H 203.064 0.14652 -2.04877 0
M  V30 2123 H 201.294 2.55389 -2.90367 0
M  V30 2124 H 202.983 2.38279 -3.286 0
M  V30 2125 H 203.749 0.437817 -4.8302 0
M  V30 2126 H 199.628 1.5608 -4.33774 0
M  V30 2127 H 203.172 -0.70758 -6.94002 0
M  V30 2128 H 199.069 0.421822 -6.4412 0
M  V30 2129 H 199.837 -0.756892 -8.14993 0
M  V30 2130 N 202.5 1.5196 0.417844 0
M  V30 2131 C 203.746 1.65836 1.16732 0
M  V30 2132 C 204.079 0.382881 1.90388 0
M  V30 2133 O 203.354 -0.618368 1.84408 0
M  V30 2134 C 203.637 2.87466 2.16876 0
M  V30 2135 C 203.49 4.25041 1.47174 0
M  V30 2136 C 204.809 3.04613 3.17646 0
M  V30 2137 H 201.928 0.603515 0.423011 0
M  V30 2138 H 204.57 1.84494 0.454105 0
M  V30 2139 H 202.72 2.71689 2.777 0
M  V30 2140 H 204.392 4.52527 0.895376 0
M  V30 2141 H 202.635 4.26843 0.773806 0
M  V30 2142 H 203.306 5.06176 2.20204 0
M  V30 2143 H 205.782 3.1923 2.66892 0
M  V30 2144 H 204.658 3.91247 3.8499 0
M  V30 2145 H 204.919 2.17541 3.84874 0
M  V30 2146 N 203.978 -0.674533 1.42435 0
M  V30 2147 C 205.255 -1.4305 1.33402 0
M  V30 2148 C 205.635 -2.11081 -0.0284674 0
M  V30 2149 O 204.983 -2.03257 -1.04397 0
M  V30 2150 C 205.193 -2.43272 2.50239 0
M  V30 2151 C 206.541 -3.07907 2.92367 0
M  V30 2152 O 207.565 -2.53599 2.50132 0
M  V30 2153 O 206.424 -4.0632 3.65467 0
M  V30 2154 H 203.518 -0.638076 0.526106 0
M  V30 2155 H 206.064 -0.703235 1.54443 0
M  V30 2156 H 204.836 -1.91803 3.41068 0
M  V30 2157 H 204.459 -3.23479 2.31186 0
M  V30 2158 N 205.456 -1.28612 -0.910864 0
M  V30 2159 C 206.386 -1.15326 -2.03032 0
M  V30 2160 C 207.367 -0.0502924 -1.70026 0
M  V30 2161 O 208.552 -0.227797 -1.92859 0
M  V30 2162 C 205.682 -0.817343 -3.37545 0
M  V30 2163 C 204.636 -1.8754 -3.84724 0
M  V30 2164 C 203.962 -1.39305 -5.16235 0
M  V30 2165 C 205.262 -3.28244 -4.06267 0
M  V30 2166 H 206.956 -2.08975 -2.14406 0
M  V30 2167 H 204.502 -1.00612 -1.03021 0
M  V30 2168 H 206.455 -0.711151 -4.15356 0
M  V30 2169 H 205.179 0.154846 -3.26233 0
M  V30 2170 H 203.838 -1.97079 -3.09121 0
M  V30 2171 H 203.486 -0.409846 -5.01328 0
M  V30 2172 H 203.186 -2.10057 -5.48771 0
M  V30 2173 H 204.71 -1.30014 -5.96598 0
M  V30 2174 H 206.124 -3.21611 -4.74594 0
M  V30 2175 H 204.521 -3.96855 -4.5014 0
M  V30 2176 H 205.591 -3.72048 -3.10979 0
M  V30 2177 N 206.934 1.1197 -1.10907 0
M  V30 2178 C 207.866 2.17592 -0.720175 0
M  V30 2179 C 208.879 1.60938 0.245495 0
M  V30 2180 O 210.068 1.78476 0.0292245 0
M  V30 2181 C 207.168 3.38873 -0.0427917 0
M  V30 2182 C 206.341 4.25006 -1.03388 0
M  V30 2183 C 205.4 5.24774 -0.387075 0
M  V30 2184 O 204.426 5.59631 -1.03934 0
M  V30 2185 N 205.628 5.74208 0.852407 0
M  V30 2186 H 208.393 2.51567 -1.62893 0
M  V30 2187 H 205.954 1.27439 -0.998543 0
M  V30 2188 H 207.946 4.02703 0.401501 0
M  V30 2189 H 206.516 3.03007 0.768456 0
M  V30 2190 H 205.736 3.57716 -1.65629 0
M  V30 2191 H 207.024 4.79397 -1.70458 0
M  V30 2192 H 206.422 5.48062 1.40161 0
M  V30 2193 H 204.979 6.39901 1.23977 0
M  V30 2194 N 208.412 0.89855 1.29475 0
M  V30 2195 C 209.66 0.522847 1.9522 0
M  V30 2196 C 209.981 -0.93371 1.71192 0
M  V30 2197 O 209.251 -1.65823 1.04305 0
M  V30 2198 H 207.831 0.190366 0.722336 0
M  V30 2199 H 210.493 1.14459 1.5775 0
M  V30 2200 H 209.589 0.704476 3.04045 0
M  V30 2201 N 209.89 -1.43072 0.660911 0
M  V30 2202 C 211.136 -2.0202 0.177708 0
M  V30 2203 C 211.469 -1.52066 -1.20787 0
M  V30 2204 O 210.744 -0.716987 -1.80802 0
M  V30 2205 C 211.027 -3.59561 0.197019 0
M  V30 2206 C 210.88 -4.19727 1.61706 0
M  V30 2207 C 212.199 -4.37664 -0.462396 0
M  V30 2208 H 209.318 -0.734034 0.0660494 0
M  V30 2209 H 211.96 -1.70272 0.843058 0
M  V30 2210 H 210.11 -3.86739 -0.369527 0
M  V30 2211 H 211.782 -4.03553 2.23479 0
M  V30 2212 H 210.025 -3.76084 2.16201 0
M  V30 2213 H 210.696 -5.28834 1.58237 0
M  V30 2214 H 213.172 -4.16095 0.0197215 0
M  V30 2215 H 212.048 -5.47305 -0.418188 0
M  V30 2216 H 212.309 -4.14493 -1.53778 0
M  V30 2217 N 211.368 -0.403325 -1.52352 0
M  V30 2218 C 212.617 0.175668 -2.00934 0
M  V30 2219 C 212.93 1.46718 -1.29356 0
M  V30 2220 O 214.136 2.12708 -1.68724 0
M  V30 2221 C 212.592 0.363612 -3.58058 0
M  V30 2222 C 212.2 -0.915472 -4.38547 0
M  V30 2223 C 213.944 0.89821 -4.14888 0
M  V30 2224 C 211.851 -0.695035 -5.87302 0
M  V30 2225 H 210.781 0.0694234 -0.750797 0
M  V30 2226 H 213.432 -0.527879 -1.75743 0
M  V30 2227 H 211.814 1.12935 -3.79555 0
M  V30 2228 H 212.988 -1.68691 -4.28812 0
M  V30 2229 H 211.303 -1.37606 -3.93006 0
M  V30 2230 H 213.9 1.07907 -5.23699 0
M  V30 2231 H 214.243 1.87126 -3.71873 0
M  V30 2232 H 214.776 0.191681 -3.97338 0
M  V30 2233 H 211.515 -1.63948 -6.34666 0
M  V30 2234 H 211.035 0.0372116 -5.99788 0
M  V30 2235 H 212.714 -0.33497 -6.46132 0
M  V30 2236 N 212.846 1.57033 -0.133567 0
M  V30 2237 C 213.793 2.16074 0.811208 0
M  V30 2238 C 214.763 1.08979 1.2535 0
M  V30 2239 O 215.948 1.36958 1.32843 0
M  V30 2240 C 213.088 2.77595 2.05024 0
M  V30 2241 C 212.201 3.99042 1.65498 0
M  V30 2242 C 211.336 4.48603 2.84479 0
M  V30 2243 C 210.375 5.62547 2.41262 0
M  V30 2244 N 209.512 6.06787 3.53206 0
M  V30 2245 H 214.352 2.96477 0.300906 0
M  V30 2246 H 211.889 1.46462 0.136822 0
M  V30 2247 H 213.847 3.11402 2.77642 0
M  V30 2248 H 212.477 1.99859 2.53488 0
M  V30 2249 H 211.529 3.71302 0.826981 0
M  V30 2250 H 212.841 4.81629 1.29748 0
M  V30 2251 H 211.995 4.84395 3.65303 0
M  V30 2252 H 210.734 3.64995 3.23465 0
M  V30 2253 H 209.739 5.26345 1.58874 0
M  V30 2254 H 210.964 6.47931 2.03377 0
M  V30 2255 H 208.91 5.26117 3.91838 0
M  V30 2256 H 208.827 6.84266 3.21427 0
M  V30 2257 H 210.095 6.4722 4.34427 0
M  V30 2258 N 214.325 -0.140222 1.56975 0
M  V30 2259 C 215.553 -0.866437 1.87884 0
M  V30 2260 C 215.968 -1.74428 0.722517 0
M  V30 2261 O 215.325 -1.79891 -0.30749 0
M  V30 2262 C 215.376 -1.71753 3.18093 0
M  V30 2263 O 215.097 -0.875056 4.29272 0
M  V30 2264 C 216.598 -2.55074 3.62563 0
M  V30 2265 H 213.818 -0.25019 0.622612 0
M  V30 2266 H 216.362 -0.130977 2.0408 0
M  V30 2267 H 214.517 -2.40598 3.03631 0
M  V30 2268 H 214.931 -1.46002 5.03769 0
M  V30 2269 H 216.405 -3.10356 4.5649 0
M  V30 2270 H 216.882 -3.31434 2.88181 0
M  V30 2271 H 217.488 -1.91509 3.79743 0
M  V30 2272 N 215.803 -1.52179 -0.40978 0
M  V30 2273 C 217.05 -1.66206 -1.15679 0
M  V30 2274 C 217.378 -0.391674 -1.90516 0
M  V30 2275 O 216.633 0.62533 -1.8544 0
M  V30 2276 C 216.932 -2.83428 -2.17723 0
M  V30 2277 C 216.598 -4.21672 -1.59699 0
M  V30 2278 C 215.26 -4.59274 -1.43599 0
M  V30 2279 C 217.612 -5.07825 -1.17317 0
M  V30 2280 C 214.94 -5.80709 -0.836328 0
M  V30 2281 C 217.292 -6.29864 -0.587691 0
M  V30 2282 C 215.956 -6.66216 -0.413818 0
M  V30 2283 H 215.226 -0.608192 -0.423301 0
M  V30 2284 H 217.873 -1.86279 -0.444097 0
M  V30 2285 H 216.178 -2.57687 -2.95135 0
M  V30 2286 H 217.875 -2.91477 -2.75394 0
M  V30 2287 H 214.465 -3.9204 -1.73213 0
M  V30 2288 H 218.649 -4.79359 -1.28565 0
M  V30 2289 H 213.905 -6.07498 -0.689626 0
M  V30 2290 H 218.079 -6.95948 -0.250894 0
M  V30 2291 H 215.706 -7.60182 0.0529471 0
M  V30 2292 N 217.281 0.66697 -1.42791 0
M  V30 2293 C 218.697 0.981027 -1.25889 0
M  V30 2294 C 218.897 2.00793 -0.168695 0
M  V30 2295 O 217.953 2.48321 0.45747 0
M  V30 2296 C 219.266 1.47838 -2.61848 0
M  V30 2297 C 220.814 1.59575 -2.69267 0
M  V30 2298 C 221.289 2.12704 -4.05612 0
M  V30 2299 N 222.78 2.20026 -4.07606 0
M  V30 2300 C 223.515 2.62227 -5.09926 0
M  V30 2301 N 223.011 3.03824 -6.22626 0
M  V30 2302 N 224.804 2.62045 -4.97281 0
M  V30 2303 H 216.955 -0.0127891 -2.12396 0
M  V30 2304 H 219.218 0.0568258 -0.946295 0
M  V30 2305 H 218.924 0.798299 -3.4252 0
M  V30 2306 H 218.798 2.45579 -2.86305 0
M  V30 2307 H 221.185 2.26687 -1.88936 0
M  V30 2308 H 221.266 0.60302 -2.48591 0
M  V30 2309 H 220.91 1.46198 -4.86404 0
M  V30 2310 H 220.84 3.12782 -4.23645 0
M  V30 2311 H 223.331 1.90708 -3.2625 0
M  V30 2312 H 223.644 3.34734 -6.96544 0
M  V30 2313 H 221.989 3.01662 -6.26119 0
M  V30 2314 H 225.18 2.28916 -4.08308 0
M  V30 2315 H 225.353 2.94613 -5.77154 0
M  V30 2316 N 218.759 1.29093 0.90403 0
M  V30 2317 C 219.989 1.19516 1.68522 0
M  V30 2318 C 220.397 -0.24738 1.87576 0
M  V30 2319 O 219.74 -1.17798 1.40959 0
M  V30 2320 C 219.802 1.83249 3.0929 0
M  V30 2321 C 219.466 3.32531 3.13484 0
M  V30 2322 C 220.463 4.28821 2.93953 0
M  V30 2323 C 218.148 3.73656 3.35688 0
M  V30 2324 C 220.142 5.64212 2.96553 0
M  V30 2325 C 217.829 5.0917 3.37919 0
M  V30 2326 C 218.827 6.04258 3.18373 0
M  V30 2327 O 218.515 7.37298 3.20385 0
M  V30 2328 H 218.247 0.415467 0.533257 0
M  V30 2329 H 220.801 1.70912 1.13922 0
M  V30 2330 H 219.031 1.26358 3.65473 0
M  V30 2331 H 220.72 1.68054 3.69476 0
M  V30 2332 H 221.486 3.98382 2.76616 0
M  V30 2333 H 217.365 3.00101 3.49943 0
M  V30 2334 H 220.909 6.38407 2.81216 0
M  V30 2335 H 216.806 5.39256 3.54787 0
M  V30 2336 H 217.574 7.46048 3.36681 0
M  V30 2337 N 220.237 -1.11381 1.11499 0
M  V30 2338 C 221.467 -1.86663 0.885464 0
M  V30 2339 C 221.875 -1.80464 -0.568281 0
M  V30 2340 O 221.218 -1.18445 -1.40415 0
M  V30 2341 C 221.28 -3.36337 1.26956 0
M  V30 2342 C 220.944 -3.66304 2.73259 0
M  V30 2343 C 221.941 -3.63733 3.71476 0
M  V30 2344 C 219.626 -3.9529 3.09921 0
M  V30 2345 C 221.62 -3.89725 5.04374 0
M  V30 2346 C 219.307 -4.20941 4.43004 0
M  V30 2347 C 220.305 -4.18147 5.40039 0
M  V30 2348 O 219.993 -4.43153 6.70724 0
M  V30 2349 H 219.725 -0.597114 0.316908 0
M  V30 2350 H 222.279 -1.41782 1.48617 0
M  V30 2351 H 220.509 -3.81826 0.611999 0
M  V30 2352 H 222.198 -3.92986 1.01573 0
M  V30 2353 H 222.964 -3.41389 3.44498 0
M  V30 2354 H 218.843 -3.966 2.35009 0
M  V30 2355 H 222.387 -3.8746 5.80104 0
M  V30 2356 H 218.284 -4.42761 4.69716 0
M  V30 2357 H 219.052 -4.60717 6.76522 0
M  V30 2358 N 221.715 -0.905404 -1.28997 0
M  V30 2359 C 222.678 -0.392253 -2.25819 0
M  V30 2360 C 223.678 0.476753 -1.5357 0
M  V30 2361 O 224.868 0.280994 -1.71919 0
M  V30 2362 C 222 0.438588 -3.38067 0
M  V30 2363 H 223.193 -1.24743 -2.72725 0
M  V30 2364 H 220.746 -0.684051 -1.40536 0
M  V30 2365 H 221.481 1.31352 -2.96508 0
M  V30 2366 H 221.266 -0.184167 -3.91667 0
M  V30 2367 H 222.756 0.78873 -4.10084 0
M  V30 2368 N 223.193 1.4272 -0.668489 0
M  V30 2369 C 224.441 2.01226 -0.187769 0
M  V30 2370 C 224.762 1.53092 1.2078 0
M  V30 2371 O 224.032 0.74993 1.80977 0
M  V30 2372 H 222.612 0.744041 -0.0664272 0
M  V30 2373 H 225.274 1.74723 -0.863583 0
M  V30 2374 H 224.37 3.11556 -0.184166 0
M  V30 2375 N 224.671 0.411399 1.52136 0
M  V30 2376 C 225.917 -0.156262 2.02799 0
M  V30 2377 C 226.272 -1.42613 1.29149 0
M  V30 2378 O 225.565 -1.87592 0.389839 0
M  V30 2379 C 225.759 -0.455872 3.54481 0
M  V30 2380 C 225.588 0.783404 4.42824 0
M  V30 2381 C 224.358 1.30928 4.88043 0
M  V30 2382 C 226.556 1.66217 4.86699 0
M  V30 2383 N 224.538 2.5038 5.6052 0
M  V30 2384 C 225.909 2.70292 5.5798 0
M  V30 2385 C 227.964 1.67966 4.68713 0
M  V30 2386 C 226.667 3.7603 6.13184 0
M  V30 2387 C 228.693 2.72624 5.24815 0
M  V30 2388 C 228.055 3.7542 5.9602 0
M  V30 2389 H 224.154 -0.0186886 0.781777 0
M  V30 2390 H 226.738 0.566255 1.86284 0
M  V30 2391 H 224.909 -1.14743 3.71064 0
M  V30 2392 H 226.641 -1.01261 3.91827 0
M  V30 2393 H 223.396 0.866977 4.65597 0
M  V30 2394 H 223.82 3.10881 6.014 0
M  V30 2395 H 228.462 0.898312 4.13147 0
M  V30 2396 H 226.18 4.55019 6.6782 0
M  V30 2397 H 229.766 2.74887 5.12765 0
M  V30 2398 H 228.646 4.55073 6.38654 0
M  V30 2399 N 226.149 -1.5696 0.141893 0
M  V30 2400 C 227.112 -2.15316 -0.785587 0
M  V30 2401 C 228.112 -1.09366 -1.1788 0
M  V30 2402 O 229.302 -1.35031 -1.10056 0
M  V30 2403 C 226.434 -2.71211 -2.06537 0
M  V30 2404 H 227.627 -2.98608 -0.278041 0
M  V30 2405 H 225.18 -1.5593 -0.107519 0
M  V30 2406 H 225.915 -1.91571 -2.6167 0
M  V30 2407 H 225.7 -3.4872 -1.79268 0
M  V30 2408 H 227.19 -3.16189 -2.72789 0
M  V30 2409 N 227.627 0.131896 -1.57047 0
M  V30 2410 C 228.904 0.871495 -1.75112 0
M  V30 2411 C 229.284 1.9866 -0.713949 0
M  V30 2412 O 228.632 2.26965 0.264447 0
M  V30 2413 C 228.842 1.40007 -3.19686 0
M  V30 2414 C 230.19 1.85752 -3.81813 0
M  V30 2415 O 231.214 1.49715 -3.23209 0
M  V30 2416 O 230.073 2.5226 -4.84796 0
M  V30 2417 H 227.167 0.412919 -0.716538 0
M  V30 2418 H 229.713 0.116641 -1.69299 0
M  V30 2419 H 228.485 0.599404 -3.86682 0
M  V30 2420 H 228.108 2.218 -3.29986 0
M  V30 2421 N 229.106 1.52395 0.401703 0
M  V30 2422 C 230.053 1.76268 1.48991 0
M  V30 2423 C 231.023 0.605386 1.54675 0
M  V30 2424 O 232.208 0.843742 1.7113 0
M  V30 2425 C 229.348 1.92592 2.86361 0
M  V30 2426 C 228.461 3.20259 2.89928 0
M  V30 2427 C 227.596 3.26972 4.18644 0
M  V30 2428 C 226.635 4.48812 4.16214 0
M  V30 2429 N 225.772 4.52877 5.36514 0
M  V30 2430 H 230.612 2.6914 1.27935 0
M  V30 2431 H 228.149 1.33355 0.620871 0
M  V30 2432 H 230.107 2.0004 3.66115 0
M  V30 2433 H 228.737 1.03093 3.05895 0
M  V30 2434 H 227.789 3.21945 2.02621 0
M  V30 2435 H 229.101 4.10056 2.83999 0
M  V30 2436 H 228.255 3.33533 5.06794 0
M  V30 2437 H 226.994 2.35126 4.27278 0
M  V30 2438 H 225.999 4.4239 3.26453 0
M  V30 2439 H 227.224 5.41961 4.09213 0
M  V30 2440 H 225.17 3.63917 5.45802 0
M  V30 2441 H 225.087 5.36529 5.32609 0
M  V30 2442 H 226.355 4.63676 6.26597 0
M  V30 2443 N 230.584 -0.659388 1.43143 0
M  V30 2444 C 231.833 -1.41518 1.43721 0
M  V30 2445 C 232.146 -1.95499 0.0628176 0
M  V30 2446 O 233.352 -2.71446 -0.0539683 0
M  V30 2447 C 231.808 -2.5608 2.52885 0
M  V30 2448 C 231.416 -2.08733 3.96402 0
M  V30 2449 C 233.16 -3.3349 2.62649 0
M  V30 2450 C 231.067 -3.20469 4.97045 0
M  V30 2451 H 229.997 -0.531705 0.534608 0
M  V30 2452 H 232.648 -0.712343 1.69109 0
M  V30 2453 H 231.03 -3.28805 2.20688 0
M  V30 2454 H 232.204 -1.43059 4.3803 0
M  V30 2455 H 230.519 -1.44219 3.90627 0
M  V30 2456 H 233.116 -4.16734 3.35017 0
M  V30 2457 H 233.459 -3.8111 1.67513 0
M  V30 2458 H 233.992 -2.67842 2.94118 0
M  V30 2459 H 230.731 -2.77824 5.93712 0
M  V30 2460 H 230.251 -3.84874 4.60034 0
M  V30 2461 H 231.93 -3.85698 5.19467 0
M  V30 2462 N 232.062 -1.29571 -0.897171 0
M  V30 2463 C 233.012 -1.11539 -1.98855 0
M  V30 2464 C 233.996 -0.0340716 -1.60864 0
M  V30 2465 O 235.188 -0.256062 -1.75138 0
M  V30 2466 C 232.317 -0.796603 -3.3393 0
M  V30 2467 C 231.403 -1.91758 -3.78272 0
M  V30 2468 N 231.794 -3.16143 -3.94826 0
M  V30 2469 C 230.092 -1.81119 -4.07568 0
M  V30 2470 C 230.793 -3.89293 -4.32233 0
M  V30 2471 N 229.769 -3.17255 -4.41419 0
M  V30 2472 H 233.571 -2.05894 -2.09726 0
M  V30 2473 H 231.085 -1.20732 -1.08616 0
M  V30 2474 H 233.082 -0.648459 -4.11826 0
M  V30 2475 H 231.742 0.139003 -3.24402 0
M  V30 2476 H 232.753 -3.5157 -3.80288 0
M  V30 2477 H 229.43 -0.948461 -4.06584 0
M  V30 2478 H 230.82 -4.9635 -4.52865 0
M  V30 2479 N 233.54 1.10788 -1.12088 0
M  V30 2480 C 234.788 1.8231 -0.872205 0
M  V30 2481 C 235.109 1.85419 0.603709 0
M  V30 2482 O 234.379 1.32963 1.43867 0
M  V30 2483 H 232.959 0.675137 -0.319686 0
M  V30 2484 H 235.621 1.34068 -1.41463 0
M  V30 2485 H 234.717 2.85955 -1.25045 0
M  V30 2486 N 235.018 0.912232 1.28515 0
M  V30 2487 C 235.951 0.343928 2.25593 0
M  V30 2488 C 236.929 -0.550994 1.5298 0
M  V30 2489 O 238.113 -0.494991 1.81885 0
M  V30 2490 C 235.24 -0.508525 3.34861 0
M  V30 2491 C 234.286 0.320808 4.25292 0
M  V30 2492 S 235.119 1.72658 5.06902 0
M  V30 2493 C 236.275 0.881394 6.19663 0
M  V30 2494 H 236.508 1.16674 2.73449 0
M  V30 2495 H 234.041 0.713384 1.36931 0
M  V30 2496 H 235.999 -0.994539 3.9827 0
M  V30 2497 H 234.66 -1.30571 2.85675 0
M  V30 2498 H 233.853 -0.330941 5.02912 0
M  V30 2499 H 233.455 0.74042 3.66598 0
M  V30 2500 H 235.747 0.110359 6.7741 0
M  V30 2501 H 236.69 1.63009 6.89082 0
M  V30 2502 H 237.098 0.430239 5.62858 0
M  V30 2503 N 236.496 -1.42363 0.676048 0
M  V30 2504 C 237.724 -2.05859 0.207268 0
M  V30 2505 C 238.139 -1.50796 -1.13605 0
M  V30 2506 O 237.496 -0.648265 -1.70598 0
M  V30 2507 C 237.547 -3.61248 0.134975 0
M  V30 2508 O 237.268 -4.1427 1.42521 0
M  V30 2509 C 238.769 -4.41859 -0.357151 0
M  V30 2510 H 235.989 -0.663431 0.100503 0
M  V30 2511 H 238.533 -1.82479 0.923136 0
M  V30 2512 H 236.688 -3.83735 -0.531588 0
M  V30 2513 H 237.102 -5.0815 1.29939 0
M  V30 2514 H 238.576 -5.50847 -0.356641 0
M  V30 2515 H 239.053 -4.16536 -1.39264 0
M  V30 2516 H 239.659 -4.24392 0.27772 0
M  V30 2517 N 237.974 -0.419461 -1.51915 0
M  V30 2518 C 239.223 0.154346 -2.01109 0
M  V30 2519 C 239.536 1.45338 -1.30905 0
M  V30 2520 O 240.742 2.10906 -1.7097 0
M  V30 2521 C 239.198 0.325615 -3.58424 0
M  V30 2522 C 238.806 -0.961934 -4.37551 0
M  V30 2523 C 240.55 0.854155 -4.15818 0
M  V30 2524 C 238.457 -0.757287 -5.86531 0
M  V30 2525 H 237.387 0.0614563 -0.751491 0
M  V30 2526 H 240.038 -0.54649 -1.75173 0
M  V30 2527 H 238.42 1.08903 -3.80731 0
M  V30 2528 H 239.594 -1.7323 -4.26999 0
M  V30 2529 H 237.909 -1.41766 -3.91524 0
M  V30 2530 H 240.506 1.02346 -5.24814 0
M  V30 2531 H 240.849 1.83172 -3.73837 0
M  V30 2532 H 241.382 0.149528 -3.97519 0
M  V30 2533 H 238.121 -1.70671 -6.32892 0
M  V30 2534 H 237.641 -0.0264061 -5.99794 0
M  V30 2535 H 239.32 -0.403482 -6.45741 0
M  V30 2536 N 239.452 1.56882 -0.150215 0
M  V30 2537 C 240.863 1.82995 0.370076 0
M  V30 2538 C 241.214 1.06907 1.64515 0
M  V30 2539 O 240.339 0.315369 2.1409 0
M  V30 2540 C 240.934 3.31942 0.678208 0
M  V30 2541 C 239.493 3.58625 1.14301 0
M  V30 2542 C 238.64 2.76792 0.167778 0
M  V30 2543 H 241.591 1.54209 -0.374858 0
M  V30 2544 H 241.612 3.48272 1.53254 0
M  V30 2545 H 241.124 3.87294 -0.249991 0
M  V30 2546 H 239.225 3.08664 2.08704 0
M  V30 2547 H 239.338 4.67073 1.06676 0
M  V30 2548 H 237.702 2.45972 0.661037 0
M  V30 2549 H 238.485 3.34916 -0.754069 0
M  V30 2550 N 240.93 -0.123565 1.57115 0
M  V30 2551 C 242.176 -0.833386 1.84885 0
M  V30 2552 C 242.509 -1.79742 0.735292 0
M  V30 2553 O 241.784 -1.92764 -0.25925 0
M  V30 2554 C 242.067 -1.5873 3.23228 0
M  V30 2555 C 241.92 -0.643183 4.45178 0
M  V30 2556 C 243.239 -2.54453 3.59085 0
M  V30 2557 H 240.358 -0.301518 0.6725 0
M  V30 2558 H 243 -0.097778 1.89748 0
M  V30 2559 H 241.15 -2.21438 3.19214 0
M  V30 2560 H 242.822 -0.0253015 4.61293 0
M  V30 2561 H 241.065 0.0456139 4.33776 0
M  V30 2562 H 241.736 -1.20724 5.38637 0
M  V30 2563 H 244.212 -2.01853 3.63861 0
M  V30 2564 H 243.088 -3.04238 4.5687 0
M  V30 2565 H 243.349 -3.36906 2.86264 0
M  V30 2566 N 242.408 -1.52605 -0.393616 0
M  V30 2567 C 243.685 -1.58001 -1.15304 0
M  V30 2568 C 244.065 -0.370385 -2.07825 0
M  V30 2569 O 243.413 0.641638 -2.19306 0
M  V30 2570 C 243.623 -2.91652 -1.91677 0
M  V30 2571 C 244.971 -3.4522 -2.47201 0
M  V30 2572 O 245.995 -2.93495 -2.01839 0
M  V30 2573 O 244.854 -4.35579 -3.3005 0
M  V30 2574 H 241.948 -0.637068 -0.527327 0
M  V30 2575 H 244.494 -1.64939 -0.399141 0
M  V30 2576 H 243.266 -3.71136 -1.23992 0
M  V30 2577 H 242.889 -2.88077 -2.74039 0
M  V30 2578 N 243.887 0.651787 -1.4349 0
M  V30 2579 C 245.135 1.40888 -1.44897 0
M  V30 2580 C 245.456 1.94856 -0.0749086 0
M  V30 2581 O 244.726 1.74518 0.889956 0
M  V30 2582 H 243.306 0.522887 -0.533478 0
M  V30 2583 H 245.968 0.768609 -1.79104 0
M  V30 2584 H 245.064 2.25052 -2.16236 0
M  V30 2585 N 245.365 1.30045 0.890287 0
M  V30 2586 C 246.642 1.09227 1.62262 0
M  V30 2587 C 247.022 -0.360305 2.08002 0
M  V30 2588 O 246.37 -1.35084 1.84295 0
M  V30 2589 C 246.58 2.08835 2.79623 0
M  V30 2590 C 247.928 2.40266 3.50082 0
M  V30 2591 O 248.952 2.07104 2.89804 0
M  V30 2592 O 247.811 2.96967 4.58773 0
M  V30 2593 H 244.905 0.419132 0.712922 0
M  V30 2594 H 247.451 1.41451 0.937529 0
M  V30 2595 H 246.223 3.06633 2.43089 0
M  V30 2596 H 245.846 1.77397 3.55832 0
M  V30 2597 N 246.843 -1.10192 1.12674 0
M  V30 2598 C 248.073 -1.85713 0.905213 0
M  V30 2599 C 248.481 -1.81056 -0.549108 0
M  V30 2600 O 247.824 -1.19927 -1.39151 0
M  V30 2601 C 247.886 -3.34972 1.30516 0
M  V30 2602 C 247.55 -3.63385 2.77129 0
M  V30 2603 C 248.547 -3.59772 3.75313 0
M  V30 2604 C 246.232 -3.91981 3.14096 0
M  V30 2605 C 248.226 -3.84354 5.08479 0
M  V30 2606 C 245.913 -4.16218 4.47443 0
M  V30 2607 C 246.911 -4.12395 5.44444 0
M  V30 2608 O 246.599 -4.36014 6.75387 0
M  V30 2609 H 246.331 -0.593719 0.323223 0
M  V30 2610 H 248.885 -1.40198 1.50112 0
M  V30 2611 H 247.115 -3.81156 0.652463 0
M  V30 2612 H 248.804 -3.91886 1.05736 0
M  V30 2613 H 249.57 -3.37716 3.48099 0
M  V30 2614 H 245.449 -3.94085 2.39202 0
M  V30 2615 H 248.993 -3.81285 5.84181 0
M  V30 2616 H 244.89 -4.37754 4.74386 0
M  V30 2617 H 245.658 -4.53516 6.8137 0
M  V30 2618 N 248.321 -0.919034 -1.28029 0
M  V30 2619 C 249.568 -0.554934 -1.94748 0
M  V30 2620 C 249.896 0.90231 -1.72304 0
M  V30 2621 O 249.151 1.65767 -1.04018 0
M  V30 2622 C 249.45 -0.816855 -3.4794 0
M  V30 2623 C 249.116 -2.25448 -3.90492 0
M  V30 2624 C 247.778 -2.64752 -4.01821 0
M  V30 2625 C 250.13 -3.18977 -4.12193 0
M  V30 2626 C 247.458 -3.96727 -4.32232 0
M  V30 2627 C 249.81 -4.50523 -4.44086 0
M  V30 2628 C 248.474 -4.89673 -4.53626 0
M  V30 2629 H 247.744 -0.203065 -0.712633 0
M  V30 2630 H 250.391 -1.16136 -1.52265 0
M  V30 2631 H 248.696 -0.127677 -3.91592 0
M  V30 2632 H 250.393 -0.514238 -3.97689 0
M  V30 2633 H 246.983 -1.93952 -3.82205 0
M  V30 2634 H 251.167 -2.89817 -4.02889 0
M  V30 2635 H 246.423 -4.26754 -4.37825 0
M  V30 2636 H 250.597 -5.23005 -4.59825 0
M  V30 2637 H 248.224 -5.91969 -4.76946 0
M  V30 2638 N 249.799 1.42003 -0.683588 0
M  V30 2639 C 251.027 2.05746 -0.218182 0
M  V30 2640 C 251.442 1.51396 1.12804 0
M  V30 2641 O 250.799 0.657303 1.70252 0
M  V30 2642 C 250.85 3.61171 -0.154131 0
M  V30 2643 O 250.571 4.13508 -1.44716 0
M  V30 2644 C 252.072 4.42042 0.333713 0
M  V30 2645 H 249.292 0.662888 -0.10402 0
M  V30 2646 H 251.836 1.81987 -0.9328 0
M  V30 2647 H 249.991 3.84012 0.511231 0
M  V30 2648 H 250.405 5.07453 -1.32632 0
M  V30 2649 H 251.879 5.51028 0.327423 0
M  V30 2650 H 252.356 4.17269 1.37053 0
M  V30 2651 H 252.962 4.24239 -0.300222 0
M  V30 2652 N 251.277 0.427512 1.51691 0
M  V30 2653 C 252.524 -0.142229 2.02 0
M  V30 2654 C 252.852 -1.43566 1.31221 0
M  V30 2655 O 252.107 -1.91298 0.412744 0
M  V30 2656 C 252.406 -0.418249 3.54944 0
M  V30 2657 C 252.072 0.788187 4.43958 0
M  V30 2658 C 250.734 1.11906 4.68007 0
M  V30 2659 C 253.086 1.59347 4.96244 0
M  V30 2660 C 250.414 2.25608 5.41588 0
M  V30 2661 C 252.766 2.7214 5.71072 0
M  V30 2662 C 251.43 3.05692 5.93387 0
M  V30 2663 H 250.7 -0.0520451 0.73917 0
M  V30 2664 H 253.347 0.572697 1.82736 0
M  V30 2665 H 251.652 -1.21496 3.72486 0
M  V30 2666 H 253.349 -0.872339 3.91397 0
M  V30 2667 H 249.939 0.520344 4.2543 0
M  V30 2668 H 254.123 1.35106 4.77556 0
M  V30 2669 H 249.379 2.51929 5.57083 0
M  V30 2670 H 253.553 3.34914 6.10578 0
M  V30 2671 H 251.18 3.9391 6.50184 0
M  V30 2672 N 252.755 -1.56801 0.158532 0
M  V30 2673 C 253.983 -2.00859 -0.496303 0
M  V30 2674 C 254.398 -1.03871 -1.57659 0
M  V30 2675 O 253.755 -0.0375165 -1.82461 0
M  V30 2676 C 253.806 -3.4479 -1.08638 0
M  V30 2677 O 253.527 -4.38072 -0.0492322 0
M  V30 2678 C 255.028 -4.04185 -1.8207 0
M  V30 2679 H 252.248 -0.65864 -0.128199 0
M  V30 2680 H 254.792 -2.02885 0.256506 0
M  V30 2681 H 252.947 -3.43579 -1.78975 0
M  V30 2682 H 253.361 -5.2227 -0.483102 0
M  V30 2683 H 254.835 -5.06857 -2.18633 0
M  V30 2684 H 255.312 -3.45549 -2.71095 0
M  V30 2685 H 255.918 -4.0906 -1.16405 0
M  V30 2686 N 254.233 0.115231 -1.57178 0
M  V30 2687 C 255.649 0.468877 -1.52557 0
M  V30 2688 C 255.849 1.81649 -0.872125 0
M  V30 2689 O 254.905 2.48347 -0.45606 0
M  V30 2690 C 256.218 0.4499 -2.97315 0
M  V30 2691 C 257.766 0.533185 -3.08425 0
M  V30 2692 C 258.241 0.54456 -4.54751 0
M  V30 2693 N 259.732 0.605892 -4.5922 0
M  V30 2694 C 260.467 0.636203 -5.6986 0
M  V30 2695 N 259.963 0.623931 -6.89985 0
M  V30 2696 N 261.756 0.679496 -5.57978 0
M  V30 2697 H 253.907 -0.767712 -1.9804 0
M  V30 2698 H 256.17 -0.283609 -0.904583 0
M  V30 2699 H 255.876 -0.472721 -3.48509 0
M  V30 2700 H 255.75 1.27632 -3.5495 0
M  V30 2701 H 258.137 1.44623 -2.57232 0
M  V30 2702 H 258.218 -0.320995 -2.53778 0
M  V30 2703 H 257.862 -0.364452 -5.06591 0
M  V30 2704 H 257.792 1.41568 -5.07214 0
M  V30 2705 H 260.283 0.621386 -3.72756 0
M  V30 2706 H 260.596 0.649787 -7.70063 0
M  V30 2707 H 258.941 0.591296 -6.9248 0
M  V30 2708 H 262.132 0.686472 -4.63039 0
M  V30 2709 H 262.305 0.69965 -6.44212 0
M  V30 2710 N 255.711 1.52812 0.385517 0
M  V30 2711 C 256.661 1.74219 1.47078 0
M  V30 2712 C 257.645 0.59632 1.49442 0
M  V30 2713 O 258.837 0.85428 1.5502 0
M  V30 2714 C 255.966 1.9176 2.84751 0
M  V30 2715 C 255.052 3.12289 2.86943 0
M  V30 2716 N 255.443 4.34575 2.58802 0
M  V30 2717 C 253.741 3.12605 3.1811 0
M  V30 2718 C 254.442 5.162 2.68166 0
M  V30 2719 N 253.418 4.51964 3.02043 0
M  V30 2720 H 257.22 2.6639 1.24152 0
M  V30 2721 H 254.734 1.51166 0.593504 0
M  V30 2722 H 256.731 2.05218 3.62893 0
M  V30 2723 H 255.391 1.00805 3.08656 0
M  V30 2724 H 256.402 4.62649 2.32759 0
M  V30 2725 H 253.079 2.31472 3.47458 0
M  V30 2726 H 254.469 6.23689 2.49923 0
M  V30 2727 N 257.189 -0.644168 1.43834 0
M  V30 2728 C 258.099 -1.78563 1.52159 0
M  V30 2729 C 259.115 -1.69147 0.408069 0
M  V30 2730 O 260.291 -1.90156 0.663524 0
M  V30 2731 C 257.356 -3.14888 1.45073 0
M  V30 2732 C 256.417 -3.36034 2.6717 0
M  V30 2733 C 255.65 -4.65855 2.60413 0
M  V30 2734 O 255.873 -5.45805 1.65689 0
M  V30 2735 O 254.807 -4.88918 3.5106 0
M  V30 2736 H 258.633 -1.74494 2.48567 0
M  V30 2737 H 256.218 -0.80378 1.25935 0
M  V30 2738 H 258.1 -3.96179 1.43597 0
M  V30 2739 H 256.775 -3.19528 0.518037 0
M  V30 2740 H 255.682 -2.54472 2.74217 0
M  V30 2741 H 257.015 -3.36247 3.59442 0
M  V30 2742 N 258.668 -1.30515 -0.883378 0
M  V30 2743 C 260.079 -1.17509 -1.45081 0
M  V30 2744 C 260.43 0.223605 -1.94922 0
M  V30 2745 O 259.555 1.12041 -1.85137 0
M  V30 2746 C 260.15 -2.12715 -2.63701 0
M  V30 2747 C 258.709 -2.03682 -3.16529 0
M  V30 2748 C 257.856 -2.02706 -1.89224 0
M  V30 2749 H 260.807 -1.42762 -0.693165 0
M  V30 2750 H 260.828 -1.70891 -3.39965 0
M  V30 2751 H 260.34 -3.14505 -2.27395 0
M  V30 2752 H 258.441 -1.05039 -3.57488 0
M  V30 2753 H 258.554 -2.92146 -3.7972 0
M  V30 2754 H 256.918 -1.4753 -2.07622 0
M  V30 2755 H 257.701 -3.06229 -1.55174 0
M  V30 2756 N 260.146 1.09593 -1.13257 0
M  V30 2757 C 261.395 1.81105 -0.887917 0
M  V30 2758 C 261.708 1.86563 0.587672 0
M  V30 2759 O 262.914 2.54367 0.949204 0
M  V30 2760 C 261.37 3.25338 -1.53895 0
M  V30 2761 C 260.978 3.28151 -3.04994 0
M  V30 2762 C 262.722 4.01617 -1.37492 0
M  V30 2763 C 260.629 4.66897 -3.6299 0
M  V30 2764 H 259.559 0.678661 -0.328534 0
M  V30 2765 H 262.21 1.23183 -1.36008 0
M  V30 2766 H 260.592 3.8331 -0.994446 0
M  V30 2767 H 261.766 2.79953 -3.66009 0
M  V30 2768 H 260.081 2.65361 -3.20893 0
M  V30 2769 H 262.678 5.04119 -1.78235 0
M  V30 2770 H 263.021 4.15072 -0.31957 0
M  V30 2771 H 263.554 3.50082 -1.88912 0
M  V30 2772 H 260.293 4.58643 -4.68323 0
M  V30 2773 H 259.813 5.15426 -3.06752 0
M  V30 2774 H 261.492 5.3587 -3.62563 0
M  V30 2775 N 261.624 0.925811 1.2754 0
M  V30 2776 C 262.872 0.564138 1.94067 0
M  V30 2777 C 263.193 -0.897188 1.73134 0
M  V30 2778 O 262.463 -1.63573 1.07799 0
M  V30 2779 H 261.043 0.205645 0.718136 0
M  V30 2780 H 263.705 1.1778 1.55287 0
M  V30 2781 H 262.801 0.76881 3.02483 0
M  V30 2782 N 263.102 -1.41638 0.69111 0
M  V30 2783 C 264.348 -2.01598 0.220519 0
M  V30 2784 C 264.681 -1.54594 -1.17535 0
M  V30 2785 O 263.956 -0.755177 -1.79241 0
M  V30 2786 C 264.239 -3.59062 0.273243 0
M  V30 2787 C 264.092 -4.16203 1.70573 0
M  V30 2788 C 265.411 -4.38546 -0.369457 0
M  V30 2789 H 262.53 -0.732468 0.0816045 0
M  V30 2790 H 265.172 -1.68445 0.878986 0
M  V30 2791 H 263.322 -3.87435 -0.287411 0
M  V30 2792 H 264.994 -3.98722 2.31989 0
M  V30 2793 H 263.237 -3.71414 2.2413 0
M  V30 2794 H 263.908 -5.25358 1.69419 0
M  V30 2795 H 266.384 -4.1596 0.107977 0
M  V30 2796 H 265.26 -5.48069 -0.302002 0
M  V30 2797 H 265.521 -4.17662 -1.44951 0
M  V30 2798 N 264.58 -0.43555 -1.51462 0
M  V30 2799 C 265.82 0.130708 -2.03982 0
M  V30 2800 C 266.184 1.40117 -1.31268 0
M  V30 2801 O 267.385 2.04755 -1.74152 0
M  V30 2802 C 265.656 0.346102 -3.5572 0
M  V30 2803 S 267.215 0.876022 -4.29967 0
M  V30 2804 H 264.033 0.0326881 -0.710248 0
M  V30 2805 H 266.635 -0.594544 -1.8624 0
M  V30 2806 H 265.339 -0.584911 -4.0621 0
M  V30 2807 H 264.87 1.09849 -3.77752 0
M  V30 2808 H 266.885 2.15379 -4.47019 0
M  V30 2809 N 266.058 1.56714 -0.166846 0
M  V30 2810 C 267.306 1.96358 0.478305 0
M  V30 2811 C 267.627 1.0537 1.6408 0
M  V30 2812 O 266.897 0.119154 1.95537 0
M  V30 2813 H 265.477 0.725065 0.179692 0
M  V30 2814 H 268.139 1.93329 -0.246985 0
M  V30 2815 H 267.235 3.00547 0.841292 0
M  V30 2816 N 267.536 -0.106894 1.57237 0
M  V30 2817 C 268.468 -1.15646 1.97885 0
M  V30 2818 C 269.481 -1.36981 0.879779 0
M  V30 2819 O 270.67 -1.35841 1.15799 0
M  V30 2820 C 267.77 -2.51425 2.27241 0
M  V30 2821 C 266.943 -2.50529 3.58545 0
M  V30 2822 C 266.002 -3.68145 3.75973 0
M  V30 2823 O 265.028 -3.51176 4.47956 0
M  V30 2824 N 266.23 -4.87177 3.15656 0
M  V30 2825 H 268.995 -0.81059 2.8853 0
M  V30 2826 H 266.556 -0.296024 1.59171 0
M  V30 2827 H 268.548 -3.28689 2.36105 0
M  V30 2828 H 267.118 -2.78147 1.42663 0
M  V30 2829 H 266.338 -1.58894 3.60758 0
M  V30 2830 H 267.626 -2.46997 4.44826 0
M  V30 2831 H 267.024 -5.03868 2.57165 0
M  V30 2832 H 265.581 -5.62075 3.30023 0
M  V30 2833 N 269.014 -1.53014 -0.377408 0
M  V30 2834 C 270.263 -1.67845 -1.11853 0
M  V30 2835 C 270.576 -0.430625 -1.90801 0
M  V30 2836 O 271.782 -0.459261 -2.67587 0
M  V30 2837 C 270.238 -2.96668 -2.03756 0
M  V30 2838 C 269.846 -4.28671 -1.30175 0
M  V30 2839 C 271.59 -3.20865 -2.77932 0
M  V30 2840 C 269.497 -5.48591 -2.20911 0
M  V30 2841 H 268.427 -0.625343 -0.421263 0
M  V30 2842 H 271.078 -1.79514 -0.380409 0
M  V30 2843 H 269.46 -2.78773 -2.8125 0
M  V30 2844 H 270.634 -4.57157 -0.578259 0
M  V30 2845 H 268.949 -4.10825 -0.679108 0
M  V30 2846 H 271.546 -4.07642 -3.46024 0
M  V30 2847 H 271.889 -2.36424 -3.4265 0
M  V30 2848 H 272.422 -3.39379 -2.07525 0
M  V30 2849 H 269.161 -6.35474 -1.6079 0
M  V30 2850 H 268.681 -5.244 -2.91144 0
M  V30 2851 H 270.36 -5.8292 -2.80736 0
M  V30 2852 N 270.492 0.636531 -1.44174 0
M  V30 2853 C 271.741 1.39213 -1.45954 0
M  V30 2854 C 272.054 1.95374 -0.0939119 0
M  V30 2855 O 273.26 2.71498 0.0107767 0
M  V30 2856 C 271.716 2.52025 -2.56927 0
M  V30 2857 C 271.324 2.024 -3.99673 0
M  V30 2858 C 273.068 3.29269 -2.67922 0
M  V30 2859 C 270.975 3.12521 -5.0208 0
M  V30 2860 H 269.905 0.523132 -0.542999 0
M  V30 2861 H 272.556 0.685349 -1.70221 0
M  V30 2862 H 270.938 3.25253 -2.25891 0
M  V30 2863 H 272.112 1.36073 -4.40251 0
M  V30 2864 H 270.427 1.37987 -3.92872 0
M  V30 2865 H 273.024 4.11352 -3.41605 0
M  V30 2866 H 273.367 3.78397 -1.73555 0
M  V30 2867 H 273.9 2.63129 -2.98342 0
M  V30 2868 H 270.639 2.68343 -5.98057 0
M  V30 2869 H 270.159 3.77507 -4.66099 0
M  V30 2870 H 271.838 3.77385 -5.25538 0
M  V30 2871 N 271.97 1.30982 0.876444 0
M  V30 2872 C 273.381 1.18277 1.44456 0
M  V30 2873 C 273.732 -0.213265 1.95037 0
M  V30 2874 O 272.857 -1.11057 1.85729 0
M  V30 2875 C 273.452 2.1411 2.62569 0
M  V30 2876 C 272.011 2.05358 3.15444 0
M  V30 2877 C 271.158 2.03706 1.88146 0
M  V30 2878 H 274.109 1.43127 0.685584 0
M  V30 2879 H 274.13 1.72692 3.39054 0
M  V30 2880 H 273.642 3.15706 2.25724 0
M  V30 2881 H 271.743 1.06934 3.56926 0
M  V30 2882 H 271.856 2.94156 3.78166 0
M  V30 2883 H 270.22 1.48629 2.06837 0
M  V30 2884 H 271.003 3.07047 1.53547 0
M  V30 2885 N 273.449 -1.08991 1.13837 0
M  V30 2886 C 274.695 -1.81699 0.91417 0
M  V30 2887 C 275.05 -1.84264 -0.553594 0
M  V30 2888 O 274.343 -1.30313 -1.4046 0
M  V30 2889 C 274.537 -3.27042 1.44147 0
M  V30 2890 C 274.366 -3.38637 2.95897 0
M  V30 2891 C 273.136 -3.50177 3.64286 0
M  V30 2892 C 275.334 -3.30791 3.93804 0
M  V30 2893 N 273.316 -3.50501 5.04006 0
M  V30 2894 C 274.687 -3.38037 5.19741 0
M  V30 2895 C 276.742 -3.14488 3.86007 0
M  V30 2896 C 275.445 -3.30659 6.38793 0
M  V30 2897 C 277.471 -3.08438 5.04599 0
M  V30 2898 C 276.833 -3.1628 6.29402 0
M  V30 2899 H 272.932 -0.678967 0.387979 0
M  V30 2900 H 275.516 -1.30224 1.4474 0
M  V30 2901 H 273.687 -3.76976 0.935091 0
M  V30 2902 H 275.419 -3.87785 1.1578 0
M  V30 2903 H 272.174 -3.53815 3.1482 0
M  V30 2904 H 272.598 -3.54236 5.76928 0
M  V30 2905 H 277.24 -3.07291 2.90399 0
M  V30 2906 H 274.958 -3.36618 7.34652 0
M  V30 2907 H 278.544 -2.96952 5.0031 0
M  V30 2908 H 277.424 -3.1162 7.19627 0
M  V30 2909 N 274.927 -0.932562 -1.27047 0
M  V30 2910 C 275.875 -0.42603 -2.28665 0
M  V30 2911 C 276.869 0.49219 -1.62092 0
M  V30 2912 O 278.075 0.371355 -1.76128 0
M  V30 2913 H 274.45 -0.119213 -0.742491 0
M  V30 2914 H 276.421 -1.29579 -2.68797 0
M  V30 2915 C 275.17 0.301426 -3.46391 0
M  V30 2916 H 274.493 -0.39595 -3.97834 0
M  V30 2917 H 275.933 0.6202 -4.1944 0
M  V30 2918 C 274.392 1.51616 -3.00856 0
M  V30 2919 O 274.922 2.61476 -3.04948 0
M  V30 2920 N 273.128 1.36969 -2.56296 0
M  V30 2921 H 272.675 0.475873 -2.53166 0
M  V30 2922 H 272.633 2.18368 -2.26192 0
M  V30 2923 N 276.405 1.4127 -0.698611 0
M  V30 2924 C 277.652 2.0118 -0.230865 0
M  V30 2925 C 277.98 1.55338 1.17049 0
M  V30 2926 O 277.235 0.756775 1.80475 0
M  V30 2927 C 277.534 3.56592 -0.240192 0
M  V30 2928 C 277.2 4.21955 -1.58948 0
M  V30 2929 C 275.862 4.39524 -1.95887 0
M  V30 2930 C 278.214 4.58576 -2.47704 0
M  V30 2931 C 275.542 4.90992 -3.2116 0
M  V30 2932 C 277.894 5.11435 -3.72313 0
M  V30 2933 C 276.558 5.27215 -4.0939 0
M  V30 2934 H 275.828 0.736169 -0.0844796 0
M  V30 2935 H 278.475 1.69124 -0.8983 0
M  V30 2936 H 276.78 3.88456 0.510797 0
M  V30 2937 H 278.477 4.00758 0.139296 0
M  V30 2938 H 275.067 4.08657 -1.29219 0
M  V30 2939 H 279.251 4.44654 -2.20445 0
M  V30 2940 H 274.507 5.01393 -3.49878 0
M  V30 2941 H 278.681 5.38752 -4.4127 0
M  V30 2942 H 276.308 5.66859 -5.06533 0
M  V30 2943 N 277.883 0.443576 1.51229 0
M  V30 2944 C 279.294 -0.0180867 1.86691 0
M  V30 2945 C 279.645 -1.41384 1.36033 0
M  V30 2946 O 278.77 -2.04291 0.713722 0
M  V30 2947 C 279.365 -0.039597 3.38777 0
M  V30 2948 C 277.924 -0.445692 3.73752 0
M  V30 2949 C 277.071 0.357584 2.74985 0
M  V30 2950 H 280.022 0.659138 1.44364 0
M  V30 2951 H 280.043 -0.847761 3.70936 0
M  V30 2952 H 279.555 0.976382 3.75617 0
M  V30 2953 H 277.656 -1.46704 3.42503 0
M  V30 2954 H 277.769 -0.166155 4.78812 0
M  V30 2955 H 276.133 -0.184973 2.54027 0
M  V30 2956 H 276.916 1.37256 3.14668 0
M  V30 2957 N 279.361 -1.56624 0.175154 0
M  V30 2958 C 280.291 -2.21155 -0.749195 0
M  V30 2959 C 281.272 -1.16836 -1.23626 0
M  V30 2960 O 282.457 -1.45277 -1.28873 0
M  V30 2961 C 279.587 -2.8553 -1.97711 0
M  V30 2962 C 278.541 -3.95921 -1.62575 0
M  V30 2963 C 277.867 -4.47365 -2.92864 0
M  V30 2964 C 279.167 -5.15323 -0.850838 0
M  V30 2965 H 280.861 -2.98653 -0.211295 0
M  V30 2966 H 278.407 -1.43651 -0.100188 0
M  V30 2967 H 280.36 -3.2935 -2.62881 0
M  V30 2968 H 279.084 -2.05406 -2.53921 0
M  V30 2969 H 277.743 -3.52762 -0.997719 0
M  V30 2970 H 277.391 -3.64027 -3.47122 0
M  V30 2971 H 277.091 -5.21839 -2.70106 0
M  V30 2972 H 278.615 -4.93873 -3.59056 0
M  V30 2973 H 280.029 -5.55812 -1.40521 0
M  V30 2974 H 278.426 -5.95739 -0.722154 0
M  V30 2975 H 279.496 -4.84661 0.152082 0
M  V30 2976 N 280.839 0.0985539 -1.57292 0
M  V30 2977 C 281.769 1.12064 -2.04851 0
M  V30 2978 C 282.75 1.41981 -0.936767 0
M  V30 2979 O 283.935 1.52071 -1.20781 0
M  V30 2980 C 281.065 2.44144 -2.47004 0
M  V30 2981 C 280.019 2.28643 -3.6181 0
M  V30 2982 C 279.345 3.65869 -3.89929 0
M  V30 2983 C 280.645 1.72986 -4.92822 0
M  V30 2984 H 282.339 0.724979 -2.9049 0
M  V30 2985 H 279.885 0.34729 -1.39749 0
M  V30 2986 H 281.838 3.15914 -2.78884 0
M  V30 2987 H 280.562 2.85639 -1.5836 0
M  V30 2988 H 279.221 1.59318 -3.30172 0
M  V30 2989 H 278.869 4.04885 -2.98458 0
M  V30 2990 H 278.569 3.56344 -4.67218 0
M  V30 2991 H 280.093 4.39112 -4.2428 0
M  V30 2992 H 281.507 2.34593 -5.23105 0
M  V30 2993 H 279.904 1.74229 -5.74251 0
M  V30 2994 H 280.974 0.689007 -4.7998 0
M  V30 2995 N 282.317 1.53212 0.369288 0
M  V30 2996 C 283.25 1.74166 1.4745 0
M  V30 2997 C 284.228 0.589923 1.51521 0
M  V30 2998 O 285.412 0.822078 1.69629 0
M  V30 2999 C 282.539 1.81711 2.8583 0
M  V30 3000 C 281.585 3.03649 2.99499 0
M  V30 3001 S 282.418 4.63242 2.6864 0
M  V30 3002 C 283.574 4.7363 4.09177 0
M  V30 3003 H 283.807 2.67636 1.29454 0
M  V30 3004 H 281.34 1.43754 0.563396 0
M  V30 3005 H 283.298 1.86743 3.65564 0
M  V30 3006 H 281.959 0.89299 3.01139 0
M  V30 3007 H 281.152 3.05526 4.00836 0
M  V30 3008 H 280.754 2.9671 2.27683 0
M  V30 3009 H 283.046 4.53456 5.03372 0
M  V30 3010 H 283.989 5.75682 4.12306 0
M  V30 3011 H 284.397 4.02295 3.96004 0
M  V30 3012 N 283.795 -0.628877 1.44509 0
M  V30 3013 C 285.042 -1.38839 1.47411 0
M  V30 3014 C 285.37 -1.94202 0.10757 0
M  V30 3015 O 284.625 -1.74243 -0.890947 0
M  V30 3016 C 284.924 -2.56995 2.48371 0
M  V30 3017 C 284.59 -2.19908 3.93639 0
M  V30 3018 C 283.252 -2.09506 4.33198 0
M  V30 3019 C 285.604 -1.9064 4.85083 0
M  V30 3020 C 282.932 -1.68028 5.62124 0
M  V30 3021 C 285.284 -1.50655 6.14399 0
M  V30 3022 C 283.948 -1.38796 6.5291 0
M  V30 3023 H 283.218 -0.508048 0.539414 0
M  V30 3024 H 285.865 -0.712913 1.77735 0
M  V30 3025 H 284.17 -3.29786 2.11538 0
M  V30 3026 H 285.867 -3.15223 2.47861 0
M  V30 3027 H 282.457 -2.28922 3.62343 0
M  V30 3028 H 286.641 -1.97585 4.55273 0
M  V30 3029 H 281.897 -1.57452 5.90778 0
M  V30 3030 H 286.071 -1.27048 6.84713 0
M  V30 3031 H 283.698 -1.06429 7.52713 0
M  V30 3032 N 285.273 -1.31445 -0.869486 0
M  V30 3033 C 286.236 -1.19094 -1.9583 0
M  V30 3034 C 287.236 -0.117906 -1.60367 0
M  V30 3035 O 288.426 -0.367208 -1.70286 0
M  V30 3036 C 285.558 -0.828165 -3.30688 0
M  V30 3037 H 286.751 -2.15842 -2.08212 0
M  V30 3038 H 284.304 -1.15063 -1.05784 0
M  V30 3039 H 285.039 0.138142 -3.24006 0
M  V30 3040 H 284.824 -1.6038 -3.578 0
M  V30 3041 H 286.314 -0.765658 -4.10521 0
M  V30 3042 N 286.751 1.08385 -1.14413 0
M  V30 3043 C 287.997 1.81212 -0.923793 0
M  V30 3044 C 288.352 1.84555 0.543814 0
M  V30 3045 O 287.645 1.31056 1.39767 0
M  V30 3046 C 287.839 3.26273 -1.45879 0
M  V30 3047 C 287.668 3.37063 -2.97689 0
M  V30 3048 C 286.438 3.4824 -3.66138 0
M  V30 3049 C 288.636 3.28698 -3.95553 0
M  V30 3050 N 286.618 3.47824 -5.05858 0
M  V30 3051 C 287.989 3.35276 -5.21527 0
M  V30 3052 C 290.044 3.12437 -3.8767 0
M  V30 3053 C 288.747 3.27267 -6.40538 0
M  V30 3054 C 290.773 3.05757 -5.06228 0
M  V30 3055 C 290.135 3.12938 -6.3107 0
M  V30 3056 H 286.234 0.6769 -0.391574 0
M  V30 3057 H 288.818 1.29455 -1.45429 0
M  V30 3058 H 286.989 3.76474 -0.95507 0
M  V30 3059 H 288.721 3.87165 -1.17835 0
M  V30 3060 H 285.476 3.52141 -3.16692 0
M  V30 3061 H 285.9 3.51171 -5.78798 0
M  V30 3062 H 290.542 3.05747 -2.92025 0
M  V30 3063 H 288.26 3.32718 -7.36427 0
M  V30 3064 H 291.846 2.94295 -5.01878 0
M  V30 3065 H 290.726 3.078 -7.21269 0
M  V30 3066 N 288.23 0.939286 1.26551 0
M  V30 3067 C 289.177 0.446088 2.26448 0
M  V30 3068 C 290.147 -0.493234 1.58608 0
M  V30 3069 O 291.332 -0.409857 1.86346 0
M  V30 3070 C 288.472 -0.284375 3.43926 0
M  V30 3071 C 287.585 0.690399 4.26448 0
M  V30 3072 C 286.72 -0.0610712 5.31165 0
M  V30 3073 C 285.759 0.905649 6.05363 0
M  V30 3074 N 284.896 0.186055 7.01853 0
M  V30 3075 H 289.736 1.30291 2.68008 0
M  V30 3076 H 287.273 0.65371 1.31776 0
M  V30 3077 H 289.231 -0.724313 4.10864 0
M  V30 3078 H 287.861 -1.10535 3.03285 0
M  V30 3079 H 286.913 1.24885 3.59316 0
M  V30 3080 H 288.225 1.42873 4.779 0
M  V30 3081 H 287.379 -0.56038 6.04106 0
M  V30 3082 H 286.118 -0.832297 4.80546 0
M  V30 3083 H 285.123 1.4161 5.3125 0
M  V30 3084 H 286.348 1.67685 6.58072 0
M  V30 3085 H 284.294 -0.566714 6.53548 0
M  V30 3086 H 284.211 0.863752 7.51049 0
M  V30 3087 H 285.479 -0.292221 7.78952 0
M  V30 3088 N 289.708 -1.40897 0.706093 0
M  V30 3089 C 290.957 -2.00284 0.238574 0
M  V30 3090 C 291.27 -1.56604 -1.17194 0
M  V30 3091 O 292.476 -2.08624 -1.73748 0
M  V30 3092 C 290.932 -3.57934 0.375623 0
M  V30 3093 C 290.54 -4.10591 1.79217 0
M  V30 3094 C 292.284 -4.24488 -0.0315857 0
M  V30 3095 C 290.191 -5.60712 1.88032 0
M  V30 3096 H 289.121 -0.749144 0.0854398 0
M  V30 3097 H 291.772 -1.61251 0.875813 0
M  V30 3098 H 290.154 -3.94622 -0.330042 0
M  V30 3099 H 291.328 -3.85301 2.52745 0
M  V30 3100 H 289.643 -3.56601 2.15 0
M  V30 3101 H 292.24 -5.34698 0.0136842 0
M  V30 3102 H 292.583 -4.02261 -1.072 0
M  V30 3103 H 293.116 -3.92873 0.624181 0
M  V30 3104 H 289.855 -5.87781 2.90161 0
M  V30 3105 H 289.375 -5.87896 1.18903 0
M  V30 3106 H 291.054 -6.25658 1.64805 0
M  V30 3107 N 291.186 -0.45159 -1.50991 0
M  V30 3108 C 292.149 0.341117 -2.26647 0
M  V30 3109 C 293.149 0.937422 -1.30649 0
M  V30 3110 O 294.339 0.809644 -1.54241 0
M  V30 3111 C 291.471 1.48398 -3.06905 0
M  V30 3112 H 292.664 -0.322117 -2.98165 0
M  V30 3113 H 290.217 -0.205122 -1.54948 0
M  V30 3114 H 290.952 2.18284 -2.39838 0
M  V30 3115 H 290.737 1.06241 -3.77432 0
M  V30 3116 H 292.227 2.04367 -3.64176 0
M  V30 3117 N 292.664 1.56529 -0.183458 0
M  V30 3118 C 294.075 1.83739 0.331177 0
M  V30 3119 C 294.426 1.10373 1.62211 0
M  V30 3120 O 293.551 0.36071 2.13373 0
M  V30 3121 C 294.146 3.33306 0.607646 0
M  V30 3122 C 292.705 3.60969 1.06668 0
M  V30 3123 C 291.852 2.77086 0.109029 0
M  V30 3124 H 294.803 1.53379 -0.407484 0
M  V30 3125 H 294.824 3.51444 1.45832 0
M  V30 3126 H 294.336 3.86677 -0.332086 0
M  V30 3127 H 292.437 3.13021 2.0211 0
M  V30 3128 H 292.55 4.69231 0.967447 0
M  V30 3129 H 290.914 2.47319 0.608714 0
M  V30 3130 H 291.697 3.33241 -0.82494 0
M  V30 3131 N 294.142 -0.090211 1.57342 0
M  V30 3132 C 295.105 -1.09335 2.01441 0
M  V30 3133 C 296.105 -1.32666 0.908641 0
M  V30 3134 O 297.295 -1.28697 1.174 0
M  V30 3135 C 294.427 -2.44136 2.3793 0
M  V30 3136 H 295.62 -0.713662 2.91285 0
M  V30 3137 H 293.173 -0.335404 1.52659 0
M  V30 3138 H 293.908 -2.86972 1.51055 0
M  V30 3139 H 293.693 -2.28548 3.18603 0
M  V30 3140 H 295.183 -3.16277 2.72688 0
M  V30 3141 N 295.62 -1.53406 -0.361157 0
M  V30 3142 C 296.55 -1.83136 -1.44857 0
M  V30 3143 C 297.531 -0.685174 -1.5569 0
M  V30 3144 O 298.716 -0.93544 -1.70186 0
M  V30 3145 C 295.846 -2.02522 -2.82138 0
M  V30 3146 C 294.8 -3.18302 -2.86126 0
M  V30 3147 C 294.126 -3.22989 -4.26125 0
M  V30 3148 C 295.426 -4.56796 -2.53248 0
M  V30 3149 H 297.12 -2.74201 -1.20226 0
M  V30 3150 H 294.666 -1.31938 -0.576922 0
M  V30 3151 H 296.619 -2.21904 -3.58241 0
M  V30 3152 H 295.343 -1.08172 -3.08166 0
M  V30 3153 H 294.002 -2.98747 -2.12475 0
M  V30 3154 H 293.65 -2.26267 -4.49235 0
M  V30 3155 H 293.35 -4.00781 -4.29708 0
M  V30 3156 H 294.874 -3.44559 -5.04094 0
M  V30 3157 H 296.288 -4.7631 -3.19064 0
M  V30 3158 H 294.685 -5.36862 -2.68141 0
M  V30 3159 H 295.755 -4.61606 -1.48484 0
M  V30 3160 N 297.098 0.621204 -1.44841 0
M  V30 3161 C 298.338 1.39201 -1.49674 0
M  V30 3162 C 298.702 1.91561 -0.129764 0
M  V30 3163 O 299.903 2.68748 -0.0527814 0
M  V30 3164 C 298.174 2.519 -2.53537 0
M  V30 3165 S 299.733 3.39916 -2.77494 0
M  V30 3166 H 296.551 0.474758 -0.529269 0
M  V30 3167 H 299.153 0.718171 -1.81831 0
M  V30 3168 H 297.857 2.11761 -3.51547 0
M  V30 3169 H 297.388 3.241 -2.22986 0
M  V30 3170 H 299.403 4.49646 -2.0984 0
M  V30 3171 N 298.576 1.31904 0.862503 0
M  V30 3172 C 299.816 1.23324 1.63004 0
M  V30 3173 C 300.18 -0.203724 1.90916 0
M  V30 3174 O 301.381 -0.413132 2.65606 0
M  V30 3175 C 299.652 2.06116 2.91978 0
M  V30 3176 S 301.211 2.14478 3.82812 0
M  V30 3177 H 298.029 0.439117 0.559193 0
M  V30 3178 H 300.631 1.66658 1.02202 0
M  V30 3179 H 299.335 3.09593 2.69407 0
M  V30 3180 H 298.866 1.6353 3.57801 0
M  V30 3181 H 300.881 1.28855 4.79177 0
M  V30 3182 N 300.054 -1.07777 1.14986 0
M  V30 3183 C 301.302 -1.79934 0.920235 0
M  V30 3184 C 301.623 -1.86955 -0.554336 0
M  V30 3185 O 300.893 -1.36731 -1.40291 0
M  V30 3186 H 299.473 -0.666424 0.337473 0
M  V30 3187 H 302.135 -1.3027 1.44968 0
M  V30 3188 H 301.231 -2.82539 1.32583 0
M  V30 3189 N 301.532 -0.945985 -1.26051 0
M  V30 3190 C 302.48 -0.450259 -2.282 0
M  V30 3191 C 303.474 0.47497 -1.62605 0
M  V30 3192 O 304.68 0.352653 -1.76512 0
M  V30 3193 H 301.055 -0.127081 -0.741184 0
M  V30 3194 H 303.026 -1.32422 -2.67408 0
M  V30 3195 C 301.775 0.26467 -3.46691 0
M  V30 3196 H 301.098 -0.438123 -3.97392 0
M  V30 3197 H 302.538 0.575678 -4.20074 0
M  V30 3198 C 300.997 1.48416 -3.02447 0
M  V30 3199 O 301.527 2.58227 -3.07704 0
M  V30 3200 N 299.733 1.34243 -2.57735 0
M  V30 3201 H 299.28 0.448994 -2.53657 0
M  V30 3202 H 299.238 2.15957 -2.28495 0
M  V30 3203 N 303.011 1.40521 -0.713556 0
M  V30 3204 C 304.239 2.05237 -0.261775 0
M  V30 3205 C 304.654 1.53755 1.09567 0
M  V30 3206 O 304.011 0.693268 1.6882 0
M  V30 3207 C 304.062 3.60763 -0.230706 0
M  V30 3208 O 303.783 4.10345 -1.53455 0
M  V30 3209 C 305.284 4.42651 0.239874 0
M  V30 3210 H 302.504 0.660533 -0.118057 0
M  V30 3211 H 305.048 1.79967 -0.971192 0
M  V30 3212 H 303.203 3.8501 0.429661 0
M  V30 3213 H 303.617 5.04526 -1.43366 0
M  V30 3214 H 305.091 5.51599 0.210468 0
M  V30 3215 H 305.568 4.20082 1.28171 0
M  V30 3216 H 306.174 4.23507 -0.390142 0
M  V30 3217 N 304.489 0.459591 1.5075 0
M  V30 3218 C 305.735 -0.0994966 2.02556 0
M  V30 3219 C 306.068 -1.40399 1.3417 0
M  V30 3220 O 305.343 -1.88892 0.463683 0
M  V30 3221 C 305.626 -0.295242 3.58888 0
M  V30 3222 C 305.479 1.02947 4.37861 0
M  V30 3223 C 306.798 -1.05502 4.27267 0
M  V30 3224 H 303.917 -0.034686 0.736183 0
M  V30 3225 H 306.559 0.602938 1.8018 0
M  V30 3226 H 304.709 -0.893563 3.78084 0
M  V30 3227 H 306.381 1.66348 4.30263 0
M  V30 3228 H 304.624 1.62885 4.02058 0
M  V30 3229 H 305.295 0.846281 5.45474 0
M  V30 3230 H 307.771 -0.547993 4.12476 0
M  V30 3231 H 306.647 -1.16077 5.36486 0
M  V30 3232 H 306.908 -2.08875 3.89645 0
M  V30 3233 N 305.967 -1.56429 0.191757 0
M  V30 3234 C 307.213 -1.97777 -0.448554 0
M  V30 3235 C 307.546 -1.07847 -1.61501 0
M  V30 3236 O 306.821 -0.129774 -1.94067 0
M  V30 3237 C 307.104 -3.48362 -0.911906 0
M  V30 3238 C 306.957 -4.4907 0.256136 0
M  V30 3239 C 308.276 -4.02561 -1.77857 0
M  V30 3240 H 305.395 -0.719071 -0.161572 0
M  V30 3241 H 308.037 -1.87896 0.282007 0
M  V30 3242 H 306.187 -3.56914 -1.53442 0
M  V30 3243 H 307.859 -4.5256 0.893733 0
M  V30 3244 H 306.102 -4.24181 0.908436 0
M  V30 3245 H 306.773 -5.51889 -0.11053 0
M  V30 3246 H 309.249 -3.96767 -1.25359 0
M  V30 3247 H 308.125 -5.08301 -2.07174 0
M  V30 3248 H 308.386 -3.47616 -2.73158 0
M  V30 3249 N 307.445 0.0818655 -1.57387 0
M  V30 3250 C 308.694 0.781681 -1.85937 0
M  V30 3251 C 309.007 1.79246 -0.782957 0
M  V30 3252 O 310.213 2.54112 -0.955987 0
M  V30 3253 C 308.669 1.44109 -3.29789 0
M  V30 3254 C 308.277 0.469396 -4.45534 0
M  V30 3255 C 310.021 2.12386 -3.67549 0
M  V30 3256 C 307.928 1.13415 -5.80423 0
M  V30 3257 H 306.858 0.295682 -0.693605 0
M  V30 3258 H 309.509 0.0348051 -1.83467 0
M  V30 3259 H 307.891 2.23588 -3.2684 0
M  V30 3260 H 309.065 -0.294856 -4.59856 0
M  V30 3261 H 307.38 -0.108383 -4.16259 0
M  V30 3262 H 309.977 2.62878 -4.65617 0
M  V30 3263 H 310.32 2.91877 -2.96839 0
M  V30 3264 H 310.853 1.39751 -3.72444 0
M  V30 3265 H 307.592 0.379771 -6.54399 0
M  V30 3266 H 307.112 1.8695 -5.69921 0
M  V30 3267 H 308.791 1.65686 -6.25426 0
M  V30 3268 N 308.923 1.53595 0.353017 0
M  V30 3269 C 309.87 1.80919 1.43308 0
M  V30 3270 C 310.84 0.654288 1.5267 0
M  V30 3271 O 312.025 0.897759 1.6836 0
M  V30 3272 C 309.165 2.01605 2.80089 0
M  V30 3273 C 308.278 3.29321 2.79593 0
M  V30 3274 C 307.413 3.40125 4.0803 0
M  V30 3275 C 306.452 4.61826 4.01725 0
M  V30 3276 N 305.589 4.69716 5.21834 0
M  V30 3277 H 310.429 2.73074 1.19308 0
M  V30 3278 H 307.966 1.35263 0.578131 0
M  V30 3279 H 309.924 2.11586 3.59565 0
M  V30 3280 H 308.554 1.12772 3.0246 0
M  V30 3281 H 307.606 3.28229 1.92276 0
M  V30 3282 H 308.918 4.18884 2.70809 0
M  V30 3283 H 308.072 3.49488 4.95927 0
M  V30 3284 H 306.811 2.48601 4.19582 0
M  V30 3285 H 305.816 4.52552 3.12213 0
M  V30 3286 H 307.041 5.54705 3.91764 0
M  V30 3287 H 304.987 3.81097 5.33948 0
M  V30 3288 H 304.904 5.53202 5.1527 0
M  V30 3289 H 306.172 4.83376 6.11529 0
M  V30 3290 N 310.401 -0.613514 1.45168 0
M  V30 3291 C 311.812 -1.19539 1.43413 0
M  V30 3292 C 312.163 -1.95558 0.158632 0
M  V30 3293 O 311.288 -2.0335 -0.740119 0
M  V30 3294 C 311.883 -2.17445 2.59813 0
M  V30 3295 C 310.442 -2.71022 2.61197 0
M  V30 3296 C 309.589 -1.46323 2.35552 0
M  V30 3297 H 312.54 -0.403163 1.53494 0
M  V30 3298 H 312.561 -3.00373 2.33574 0
M  V30 3299 H 312.073 -1.62089 3.52631 0
M  V30 3300 H 310.174 -3.30332 1.7237 0
M  V30 3301 H 310.287 -3.15859 3.60236 0
M  V30 3302 H 308.651 -1.75072 1.84992 0
M  V30 3303 H 309.434 -0.92844 3.30507 0
M  V30 3304 N 311.879 -1.3236 -0.855495 0
M  V30 3305 C 312.842 -1.21164 -1.94556 0
M  V30 3306 C 313.842 -0.134908 -1.60233 0
M  V30 3307 O 315.032 -0.385249 -1.69887 0
M  V30 3308 C 312.164 -0.863192 -3.29791 0
M  V30 3309 H 313.357 -2.18038 -2.05911 0
M  V30 3310 H 310.91 -1.16179 -1.04557 0
M  V30 3311 H 311.645 0.103769 -3.24134 0
M  V30 3312 H 311.43 -1.64166 -3.56078 0
M  V30 3313 H 312.92 -0.809156 -4.09686 0
M  V30 3314 N 313.357 1.07166 -1.15556 0
M  V30 3315 C 314.267 2.17947 -0.868116 0
M  V30 3316 C 315.283 1.73297 0.156297 0
M  V30 3317 O 316.459 2.01392 -0.0182327 0
M  V30 3318 C 313.524 3.44789 -0.36355 0
M  V30 3319 C 312.585 4.03996 -1.45209 0
M  V30 3320 C 311.818 5.24783 -0.971508 0
M  V30 3321 O 312.041 5.70109 0.182194 0
M  V30 3322 O 310.975 5.75715 -1.75603 0
M  V30 3323 H 314.801 2.4503 -1.79427 0
M  V30 3324 H 312.386 1.16539 -0.934824 0
M  V30 3325 H 314.268 4.21307 -0.0887113 0
M  V30 3326 H 312.943 3.19253 0.534708 0
M  V30 3327 H 311.85 3.29009 -1.78056 0
M  V30 3328 H 313.183 4.33808 -2.32533 0
M  V30 3329 N 314.835 0.952656 1.25548 0
M  V30 3330 C 315.767 0.428609 2.25157 0
M  V30 3331 C 316.78 -0.454428 1.56329 0
M  V30 3332 O 317.969 -0.263023 1.76552 0
M  V30 3333 C 315.069 -0.401972 3.36508 0
M  V30 3334 C 314.242 0.467601 4.34893 0
M  V30 3335 C 313.301 -0.30445 5.25319 0
M  V30 3336 O 312.327 0.296473 5.68427 0
M  V30 3337 N 313.529 -1.59805 5.5807 0
M  V30 3338 H 316.294 1.28497 2.70756 0
M  V30 3339 H 313.855 0.822798 1.39433 0
M  V30 3340 H 315.847 -0.926134 3.9396 0
M  V30 3341 H 314.417 -1.15918 2.90313 0
M  V30 3342 H 313.637 1.17288 3.76347 0
M  V30 3343 H 314.925 1.06119 4.97611 0
M  V30 3344 H 314.323 -2.10823 5.24948 0
M  V30 3345 H 312.88 -2.06822 6.18116 0
M  V30 3346 N 316.313 -1.40141 0.720998 0
M  V30 3347 C 317.541 -2.05096 0.272656 0
M  V30 3348 C 317.956 -1.54334 -1.0875 0
M  V30 3349 O 317.313 -0.702211 -1.6845 0
M  V30 3350 C 317.364 -3.60636 0.249835 0
M  V30 3351 O 317.085 -4.09526 1.55629 0
M  V30 3352 C 318.586 -4.42772 -0.216396 0
M  V30 3353 H 315.806 -0.659897 0.121558 0
M  V30 3354 H 318.35 -1.79449 0.980723 0
M  V30 3355 H 316.505 -3.85232 -0.409237 0
M  V30 3356 H 316.919 -5.03758 1.4604 0
M  V30 3357 H 318.393 -5.51702 -0.181212 0
M  V30 3358 H 318.87 -4.20756 -1.25941 0
M  V30 3359 H 319.476 -4.23294 0.412596 0
M  V30 3360 N 317.792 -0.46758 -1.50504 0
M  V30 3361 C 319.203 -0.0116166 -1.86696 0
M  V30 3362 C 319.554 1.39202 -1.38265 0
M  V30 3363 O 318.679 2.0313 -0.746132 0
M  V30 3364 C 319.274 -0.0143044 -3.38797 0
M  V30 3365 C 317.833 0.386175 -3.74414 0
M  V30 3366 C 316.98 -0.401287 -2.74381 0
M  V30 3367 H 319.931 -0.682022 -1.43297 0
M  V30 3368 H 319.952 0.788641 -3.72237 0
M  V30 3369 H 319.464 -1.03602 -3.74016 0
M  V30 3370 H 317.565 1.41237 -3.44794 0
M  V30 3371 H 317.678 0.0899596 -4.79016 0
M  V30 3372 H 316.042 0.144536 -2.5429 0
M  V30 3373 H 316.825 -1.42244 -3.12444 0
M  V30 3374 N 319.27 1.56325 -0.20005 0
M  V30 3375 C 320.2 2.22318 0.713916 0
M  V30 3376 C 321.181 1.18788 1.21752 0
M  V30 3377 O 322.366 1.47309 1.26545 0
M  V30 3378 C 319.496 2.88639 1.93144 0
M  V30 3379 C 318.45 3.98457 1.56255 0
M  V30 3380 C 317.776 4.51967 2.85709 0
M  V30 3381 C 319.076 5.16612 0.768747 0
M  V30 3382 H 320.77 2.98952 0.163755 0
M  V30 3383 H 318.316 1.43792 0.0773219 0
M  V30 3384 H 320.269 3.33491 2.57608 0
M  V30 3385 H 318.993 2.09419 2.50621 0
M  V30 3386 H 317.652 3.54305 0.941471 0
M  V30 3387 H 317.3 3.69503 3.41287 0
M  V30 3388 H 317 5.26071 2.6177 0
M  V30 3389 H 318.524 4.99523 3.51154 0
M  V30 3390 H 319.938 5.57977 1.3166 0
M  V30 3391 H 318.335 5.96812 0.627286 0
M  V30 3392 H 319.405 4.84358 -0.229168 0
M  V30 3393 N 320.748 -0.0735177 1.57428 0
M  V30 3394 C 321.973 -0.789787 1.91774 0
M  V30 3395 C 322.398 -1.70413 0.796306 0
M  V30 3396 O 321.756 -1.79555 -0.250961 0
M  V30 3397 C 321.804 -1.5609 3.25067 0
M  V30 3398 O 320.908 -2.67144 3.14178 0
M  V30 3399 H 320.249 -0.215582 0.628029 0
M  V30 3400 H 322.779 -0.0422781 2.04556 0
M  V30 3401 H 322.789 -1.94052 3.58898 0
M  V30 3402 H 321.464 -0.890015 4.06265 0
M  V30 3403 H 320.041 -2.32052 2.91901 0
M  V30 3404 N 322.226 -1.5378 -0.344866 0
M  V30 3405 C 323.189 -1.80981 -1.40637 0
M  V30 3406 C 324.189 -0.680816 -1.45676 0
M  V30 3407 O 325.379 -0.949095 -1.46075 0
M  V30 3408 C 322.511 -1.95063 -2.79577 0
M  V30 3409 H 323.704 -2.75803 -1.17783 0
M  V30 3410 H 321.257 -1.45173 -0.579181 0
M  V30 3411 H 321.992 -1.02379 -3.07716 0
M  V30 3412 H 321.777 -2.77198 -2.77315 0
M  V30 3413 H 323.267 -2.17629 -3.56409 0
M  V30 3414 N 323.704 0.605807 -1.45491 0
M  V30 3415 C 324.634 1.72709 -1.57143 0
M  V30 3416 C 325.615 1.6476 -0.422884 0
M  V30 3417 O 326.8 1.83132 -0.646247 0
M  V30 3418 C 323.93 3.11316 -1.53948 0
M  V30 3419 C 322.884 3.34077 -2.67537 0
M  V30 3420 C 322.21 4.72975 -2.49397 0
M  V30 3421 C 323.51 3.24158 -4.09535 0
M  V30 3422 H 325.204 1.63214 -2.51001 0
M  V30 3423 H 322.75 0.78379 -1.208 0
M  V30 3424 H 324.703 3.89557 -1.60696 0
M  V30 3425 H 323.427 3.21655 -0.566205 0
M  V30 3426 H 322.086 2.58227 -2.6022 0
M  V30 3427 H 321.734 4.8005 -1.50205 0
M  V30 3428 H 321.434 4.8916 -3.25571 0
M  V30 3429 H 322.958 5.53414 -2.58002 0
M  V30 3430 H 324.372 3.92271 -4.18086 0
M  V30 3431 H 322.769 3.51872 -4.86113 0
M  V30 3432 H 323.839 2.2157 -4.31317 0
M  V30 3433 N 325.182 1.32811 0.848464 0
M  V30 3434 C 326.412 1.26556 1.63301 0
M  V30 3435 C 326.82 -0.1676 1.88456 0
M  V30 3436 O 326.163 -1.11713 1.45828 0
M  V30 3437 C 326.225 1.96202 3.01239 0
M  V30 3438 C 325.889 3.45528 2.99098 0
M  V30 3439 C 326.886 4.40903 2.75501 0
M  V30 3440 C 324.571 3.87558 3.19537 0
M  V30 3441 C 326.565 5.76282 2.72356 0
M  V30 3442 C 324.252 5.23044 3.16019 0
M  V30 3443 C 325.25 6.17217 2.92458 0
M  V30 3444 O 324.938 7.50223 2.88825 0
M  V30 3445 H 324.67 0.43771 0.515156 0
M  V30 3446 H 327.224 1.7559 1.0657 0
M  V30 3447 H 325.454 1.41746 3.59785 0
M  V30 3448 H 327.143 1.83573 3.62016 0
M  V30 3449 H 327.909 4.09756 2.5947 0
M  V30 3450 H 323.788 3.14674 3.369 0
M  V30 3451 H 327.332 6.4976 2.53886 0
M  V30 3452 H 323.229 5.53818 3.31596 0
M  V30 3453 H 323.997 7.59657 3.04735 0
M  V30 3454 N 326.66 -1.06551 1.16123 0
M  V30 3455 C 327.593 -2.13382 0.80892 0
M  V30 3456 C 328.571 -1.61128 -0.21827 0
M  V30 3457 O 329.755 -1.88219 -0.102952 0
M  V30 3458 C 326.882 -3.38083 0.204303 0
M  V30 3459 C 325.928 -4.09133 1.20469 0
M  V30 3460 S 326.761 -4.5948 2.75024 0
M  V30 3461 C 327.917 -5.87446 2.16005 0
M  V30 3462 H 328.15 -2.42937 1.71373 0
M  V30 3463 H 325.683 -1.18947 0.984428 0
M  V30 3464 H 327.641 -4.10268 -0.138081 0
M  V30 3465 H 326.302 -3.0669 -0.678234 0
M  V30 3466 H 325.495 -4.98685 0.730019 0
M  V30 3467 H 325.097 -3.4295 1.49202 0
M  V30 3468 H 327.389 -6.60065 1.5271 0
M  V30 3469 H 328.332 -6.39639 3.03756 0
M  V30 3470 H 328.74 -5.41354 1.59989 0
M  V30 3471 N 328.138 -0.959301 -1.25041 0
M  V30 3472 C 329.386 -0.615393 -1.92503 0
M  V30 3473 C 329.707 0.850969 -1.75452 0
M  V30 3474 O 328.977 1.60658 -1.12098 0
M  V30 3475 H 327.557 -0.224613 -0.712431 0
M  V30 3476 H 330.219 -1.21855 -1.5211 0
M  V30 3477 H 329.315 -0.848738 -3.00338 0
M  V30 3478 N 329.616 1.39756 -0.72842 0
M  V30 3479 C 330.579 2.29012 -0.0927297 0
M  V30 3480 C 331.579 1.45992 0.674025 0
M  V30 3481 O 332.769 1.66749 0.50402 0
M  V30 3482 C 329.901 3.29396 0.878137 0
M  V30 3483 H 331.094 2.86729 -0.879011 0
M  V30 3484 H 328.647 1.48293 -0.493847 0
M  V30 3485 H 329.382 2.76722 1.69101 0
M  V30 3486 H 329.167 3.907 0.331051 0
M  V30 3487 H 330.657 3.96199 1.3197 0
M  V30 3488 N 331.094 0.475555 1.50254 0
M  V30 3489 C 332.024 -0.30611 2.31485 0
M  V30 3490 C 333.005 -0.986228 1.38591 0
M  V30 3491 O 334.19 -0.982541 1.67511 0
M  V30 3492 C 331.32 -1.38588 3.1845 0
M  V30 3493 C 330.274 -0.827115 4.19932 0
M  V30 3494 C 329.6 -2.00551 4.95665 0
M  V30 3495 C 330.9 0.16463 5.2204 0
M  V30 3496 H 332.594 0.371866 2.97082 0
M  V30 3497 H 330.14 0.180282 1.42867 0
M  V30 3498 H 332.093 -1.94023 3.74076 0
M  V30 3499 H 330.817 -2.09269 2.50747 0
M  V30 3500 H 329.476 -0.294702 3.65414 0
M  V30 3501 H 329.124 -2.6994 4.2443 0
M  V30 3502 H 328.824 -1.63784 5.64313 0
M  V30 3503 H 330.348 -2.56468 5.54127 0
M  V30 3504 H 331.762 -0.300699 5.72511 0
M  V30 3505 H 330.159 0.446813 5.98434 0
M  V30 3506 H 331.229 1.08905 4.72512 0
M  V30 3507 N 332.573 -1.56217 0.208337 0
M  V30 3508 C 333.822 -1.97124 -0.427204 0
M  V30 3509 C 334.135 -1.09859 -1.61835 0
M  V30 3510 O 335.341 -1.40606 -2.32255 0
M  V30 3511 C 333.797 -3.50633 -0.811442 0
M  V30 3512 C 333.405 -4.46582 0.35615 0
M  V30 3513 C 335.149 -4.00282 -1.41332 0
M  V30 3514 C 333.056 -5.91379 -0.0497852 0
M  V30 3515 H 331.986 -0.736086 -0.163381 0
M  V30 3516 H 334.637 -1.8099 0.302456 0
M  V30 3517 H 333.019 -3.62319 -1.59815 0
M  V30 3518 H 334.193 -4.46636 1.1337 0
M  V30 3519 H 332.508 -4.07202 0.870396 0
M  V30 3520 H 335.105 -5.0595 -1.72972 0
M  V30 3521 H 335.448 -3.45359 -2.32449 0
M  V30 3522 H 335.981 -3.91764 -0.690323 0
M  V30 3523 H 332.72 -6.50255 0.827529 0
M  V30 3524 H 332.24 -5.94549 -0.791926 0
M  V30 3525 H 333.919 -6.45209 -0.481042 0
M  V30 3526 N 334.051 0.0651679 -1.57465 0
M  V30 3527 C 334.998 1.07675 -2.04144 0
M  V30 3528 C 335.968 1.38071 -0.923335 0
M  V30 3529 O 337.153 1.49026 -1.19146 0
M  V30 3530 C 334.293 2.38337 -2.49579 0
M  V30 3531 C 333.406 2.14413 -3.75035 0
M  V30 3532 C 332.541 3.38686 -4.09225 0
M  V30 3533 C 331.58 3.10156 -5.27702 0
M  V30 3534 N 330.717 4.26778 -5.57499 0
M  V30 3535 H 335.557 0.671716 -2.90331 0
M  V30 3536 H 333.094 0.3201 -1.43575 0
M  V30 3537 H 335.052 3.14632 -2.73975 0
M  V30 3538 H 333.682 2.7663 -1.6636 0
M  V30 3539 H 332.734 1.2878 -3.57939 0
M  V30 3540 H 334.046 1.89344 -4.61466 0
M  V30 3541 H 333.2 4.23373 -4.34558 0
M  V30 3542 H 331.939 3.66837 -3.21374 0
M  V30 3543 H 330.944 2.23866 -5.02159 0
M  V30 3544 H 332.169 2.8332 -6.17176 0
M  V30 3545 H 330.115 4.54948 -4.72608 0
M  V30 3546 H 330.032 4.05005 -6.38362 0
M  V30 3547 H 331.3 5.12443 -5.87386 0
M  V30 3548 N 335.529 1.53961 0.336706 0
M  V30 3549 C 336.439 1.85432 1.43708 0
M  V30 3550 C 337.455 0.745053 1.57242 0
M  V30 3551 O 338.631 1.03804 1.72588 0
M  V30 3552 C 335.696 2.06349 2.78605 0
M  V30 3553 C 334.757 3.30191 2.74358 0
M  V30 3554 C 333.99 3.50101 4.02822 0
M  V30 3555 O 334.213 2.7371 5.00439 0
M  V30 3556 O 333.147 4.43547 4.06878 0
M  V30 3557 H 336.973 2.78975 1.20028 0
M  V30 3558 H 334.558 1.39701 0.52952 0
M  V30 3559 H 336.44 2.21513 3.58483 0
M  V30 3560 H 335.115 1.15995 3.02203 0
M  V30 3561 H 334.022 3.20425 1.93078 0
M  V30 3562 H 335.355 4.2056 2.55715 0
M  V30 3563 N 337.007 -0.598083 1.45811 0
M  V30 3564 C 337.97 -1.69018 1.54808 0
M  V30 3565 C 338.97 -1.55037 0.426652 0
M  V30 3566 O 340.16 -1.59932 0.690456 0
M  V30 3567 C 337.292 -3.0835 1.45371 0
M  V30 3568 H 338.485 -1.62403 2.52121 0
M  V30 3569 H 336.038 -0.814626 1.33392 0
M  V30 3570 H 336.773 -3.20534 0.492793 0
M  V30 3571 H 336.558 -3.19907 2.26721 0
M  V30 3572 H 338.048 -3.8788 1.54721 0
M  V30 3573 N 338.485 -1.33259 -0.841409 0
M  V30 3574 C 339.733 -1.24326 -1.59334 0
M  V30 3575 C 340.054 0.191564 -1.94057 0
M  V30 3576 O 339.324 1.11967 -1.60749 0
M  V30 3577 H 337.904 -0.457174 -0.590763 0
M  V30 3578 H 340.566 -1.66947 -1.00571 0
M  V30 3579 H 339.662 -1.8352 -2.52442 0
M  V30 3580 N 339.963 1.05934 -1.16686 0
M  V30 3581 C 341.21 1.788 -0.950622 0
M  V30 3582 C 341.538 1.87384 0.521305 0
M  V30 3583 O 340.793 1.36438 1.40297 0
M  V30 3584 C 341.092 3.23105 -1.52767 0
M  V30 3585 C 340.758 3.34594 -3.02254 0
M  V30 3586 C 339.42 3.37437 -3.43059 0
M  V30 3587 C 341.772 3.36219 -3.98254 0
M  V30 3588 C 339.1 3.39525 -4.78477 0
M  V30 3589 C 341.452 3.39845 -5.33562 0
M  V30 3590 C 340.116 3.40971 -5.73842 0
M  V30 3591 H 339.386 0.654275 -0.347857 0
M  V30 3592 H 342.033 1.24555 -1.45459 0
M  V30 3593 H 340.338 3.80227 -0.94524 0
M  V30 3594 H 342.035 3.7809 -1.336 0
M  V30 3595 H 338.625 3.3309 -2.6972 0
M  V30 3596 H 342.809 3.33231 -3.67792 0
M  V30 3597 H 338.065 3.38703 -5.09009 0
M  V30 3598 H 342.239 3.4005 -6.07733 0
M  V30 3599 H 339.866 3.42342 -6.78753 0
M  V30 3600 N 341.441 0.965919 1.2453 0
M  V30 3601 C 342.852 0.665929 1.7442 0
M  V30 3602 C 343.203 -0.818407 1.78316 0
M  V30 3603 O 342.328 -1.64037 1.41141 0
M  V30 3604 C 342.923 1.20211 3.16757 0
M  V30 3605 C 341.482 0.952059 3.6416 0
M  V30 3606 C 340.629 1.33848 2.42858 0
M  V30 3607 H 343.58 1.14144 1.10258 0
M  V30 3608 H 343.601 0.567544 3.76244 0
M  V30 3609 H 343.113 2.28244 3.13889 0
M  V30 3610 H 341.214 -0.112821 3.72429 0
M  V30 3611 H 341.327 1.59645 4.51719 0
M  V30 3612 H 339.691 0.756864 2.43195 0
M  V30 3613 H 340.474 2.42827 2.42673 0
M  V30 3614 N 342.919 -1.39368 0.735821 0
M  V30 3615 C 344.33 -1.83313 0.354015 0
M  V30 3616 C 344.681 -1.61461 -1.11466 0
M  V30 3617 O 343.806 -1.10621 -1.85989 0
M  V30 3618 C 344.401 -3.32781 0.635769 0
M  V30 3619 C 342.96 -3.75142 0.307448 0
M  V30 3620 C 342.107 -2.62358 0.897974 0
M  V30 3621 H 345.058 -1.28349 0.933398 0
M  V30 3622 H 345.079 -3.80388 -0.0921773 0
M  V30 3623 H 344.591 -3.48654 1.70476 0
M  V30 3624 H 342.692 -3.64857 -0.755674 0
M  V30 3625 H 342.805 -4.72532 0.790583 0
M  V30 3626 H 341.169 -2.52624 0.324551 0
M  V30 3627 H 341.952 -2.81036 1.97164 0
M  V30 3628 N 344.397 -0.483516 -1.5 0
M  V30 3629 C 345.645 0.067027 -2.01989 0
M  V30 3630 C 345.966 1.3909 -1.36671 0
M  V30 3631 O 345.236 1.88978 -0.516152 0
M  V30 3632 H 343.816 0.0277606 -0.746484 0
M  V30 3633 H 346.478 -0.636773 -1.84204 0
M  V30 3634 H 345.574 0.209484 -3.11396 0
M  V30 3635 N 345.875 1.56104 -0.216619 0
M  V30 3636 C 347.121 1.98466 0.417033 0
M  V30 3637 C 347.454 1.10403 1.59765 0
M  V30 3638 O 346.729 0.160632 1.93836 0
M  V30 3639 C 347.012 3.49769 0.85637 0
M  V30 3640 C 346.865 4.48606 -0.327546 0
M  V30 3641 C 348.184 4.05339 1.7143 0
M  V30 3642 H 345.303 0.721551 0.150112 0
M  V30 3643 H 347.945 1.87423 -0.311864 0
M  V30 3644 H 346.095 3.5931 1.47745 0
M  V30 3645 H 347.767 4.5108 -0.965618 0
M  V30 3646 H 346.01 4.22682 -0.975805 0
M  V30 3647 H 346.681 5.51995 0.0227149 0
M  V30 3648 H 349.157 3.98712 1.19031 0
M  V30 3649 H 348.033 5.11533 1.99061 0
M  V30 3650 H 348.294 3.51918 2.67593 0
M  V30 3651 N 347.353 -0.0568162 1.57498 0
M  V30 3652 C 348.602 -0.752001 1.87157 0
M  V30 3653 C 348.915 -1.77978 0.811375 0
M  V30 3654 O 350.121 -2.52559 0.996293 0
M  V30 3655 C 348.577 -1.38844 3.3204 0
M  V30 3656 C 348.185 -0.398456 4.46225 0
M  V30 3657 C 349.929 -2.06512 3.70882 0
M  V30 3658 C 347.836 -1.04166 5.82154 0
M  V30 3659 H 346.766 -0.28461 0.698222 0
M  V30 3660 H 349.417 -0.00561272 1.83499 0
M  V30 3661 H 347.799 -2.1836 3.30356 0
M  V30 3662 H 348.973 0.367977 4.59328 0
M  V30 3663 H 347.288 0.174592 4.16034 0
M  V30 3664 H 349.885 -2.55437 4.6974 0
M  V30 3665 H 350.228 -2.87117 3.01445 0
M  V30 3666 H 350.761 -1.33808 3.7462 0
M  V30 3667 H 347.5 -0.275614 6.5492 0
M  V30 3668 H 347.02 -1.7786 5.72823 0
M  V30 3669 H 348.699 -1.55715 6.27982 0
M  V30 3670 N 348.832 -1.54138 -0.328536 0
M  V30 3671 C 349.78 -1.83894 -1.42428 0
M  V30 3672 C 350.774 -0.710478 -1.53781 0
M  V30 3673 O 351.98 -0.894062 -1.56226 0
M  V30 3674 H 348.355 -0.582837 -0.475189 0
M  V30 3675 H 350.326 -2.75537 -1.14552 0
M  V30 3676 C 349.075 -2.07866 -2.78724 0
M  V30 3677 H 348.398 -2.94158 -2.7076 0
M  V30 3678 H 349.838 -2.32644 -3.54476 0
M  V30 3679 C 348.297 -0.868689 -3.25508 0
M  V30 3680 O 348.827 -0.0754908 -4.01629 0
M  V30 3681 N 347.033 -0.681711 -2.82491 0
M  V30 3682 H 346.58 -1.32838 -2.20708 0
M  V30 3683 H 346.538 0.126374 -3.14146 0
M  V30 3684 N 350.31 0.590341 -1.46126 0
M  V30 3685 C 351.559 1.34499 -1.50309 0
M  V30 3686 C 351.872 1.94977 -0.156021 0
M  V30 3687 O 353.078 2.71395 -0.0756037 0
M  V30 3688 C 351.534 2.43723 -2.64815 0
M  V30 3689 C 351.142 1.89582 -4.0591 0
M  V30 3690 C 352.886 3.20579 -2.78262 0
M  V30 3691 C 350.793 2.9639 -5.11769 0
M  V30 3692 H 349.723 0.505593 -0.559368 0
M  V30 3693 H 352.374 0.630848 -1.72315 0
M  V30 3694 H 350.756 3.17902 -2.36124 0
M  V30 3695 H 351.93 1.21997 -4.44357 0
M  V30 3696 H 350.245 1.25418 -3.97063 0
M  V30 3697 H 352.842 4.00276 -3.54519 0
M  V30 3698 H 353.185 3.72684 -1.85505 0
M  V30 3699 H 353.718 2.53505 -3.06562 0
M  V30 3700 H 350.457 2.49181 -6.06291 0
M  V30 3701 H 349.977 3.62487 -4.77873 0
M  V30 3702 H 351.656 3.60474 -5.37278 0
M  V30 3703 N 351.788 1.33704 0.83433 0
M  V30 3704 C 352.718 1.26967 1.95963 0
M  V30 3705 C 353.699 0.149337 1.69443 0
M  V30 3706 O 354.884 0.339852 1.91203 0
M  V30 3707 C 352.014 1.01275 3.32206 0
M  V30 3708 C 350.968 2.09652 3.73136 0
M  V30 3709 C 350.294 1.69166 5.07235 0
M  V30 3710 C 351.594 3.51372 3.86439 0
M  V30 3711 H 353.288 2.2112 2.01857 0
M  V30 3712 H 350.834 1.06447 0.969793 0
M  V30 3713 H 352.787 0.952106 4.10503 0
M  V30 3714 H 351.511 0.0356203 3.26581 0
M  V30 3715 H 350.17 2.14766 2.97104 0
M  V30 3716 H 349.818 0.701437 4.98085 0
M  V30 3717 H 349.518 2.41694 5.35591 0
M  V30 3718 H 351.042 1.64576 5.88003 0
M  V30 3719 H 352.456 3.48734 4.55036 0
M  V30 3720 H 350.853 4.22425 4.26236 0
M  V30 3721 H 351.923 3.89546 2.88759 0
M  V30 3722 N 353.266 -1.05314 1.17247 0
M  V30 3723 C 354.677 -1.59753 0.96623 0
M  V30 3724 C 355.028 -1.9005 -0.487378 0
M  V30 3725 O 354.153 -1.68126 -1.36245 0
M  V30 3726 C 354.748 -2.90249 1.74759 0
M  V30 3727 C 353.307 -3.41352 1.58606 0
M  V30 3728 C 352.454 -2.15103 1.75002 0
M  V30 3729 H 355.405 -0.881406 1.31973 0
M  V30 3730 H 355.426 -3.60097 1.22925 0
M  V30 3731 H 354.938 -2.68166 2.8055 0
M  V30 3732 H 353.039 -3.68474 0.552985 0
M  V30 3733 H 353.152 -4.16019 2.37624 0
M  V30 3734 H 351.516 -2.25804 1.17833 0
M  V30 3735 H 352.299 -1.95491 2.82202 0
M  V30 3736 N 354.744 -0.972509 -1.24016 0
M  V30 3737 C 355.992 -0.635776 -1.91839 0
M  V30 3738 C 356.313 0.832312 -1.76345 0
M  V30 3739 O 355.583 1.5946 -1.13795 0
M  V30 3740 H 354.163 -0.232157 -0.710009 0
M  V30 3741 H 356.825 -1.23462 -1.50809 0
M  V30 3742 H 355.921 -0.880545 -2.99421 0
M  V30 3743 N 356.222 1.38976 -0.743202 0
M  V30 3744 C 357.452 2.04339 -0.304807 0
M  V30 3745 C 357.86 1.56162 1.06819 0
M  V30 3746 O 357.203 0.725284 1.68776 0
M  V30 3747 C 357.265 3.58716 -0.237369 0
M  V30 3748 C 356.929 4.29905 -1.55018 0
M  V30 3749 C 357.926 4.55987 -2.49744 0
M  V30 3750 C 355.611 4.68294 -1.81675 0
M  V30 3751 C 357.605 5.19478 -3.69353 0
M  V30 3752 C 355.292 5.31512 -3.0156 0
M  V30 3753 C 356.29 5.57037 -3.9522 0
M  V30 3754 O 355.978 6.18941 -5.12998 0
M  V30 3755 H 355.71 0.663439 -0.12971 0
M  V30 3756 H 358.264 1.78852 -1.01001 0
M  V30 3757 H 356.494 3.83133 0.524003 0
M  V30 3758 H 358.183 4.05543 0.170121 0
M  V30 3759 H 358.949 4.26767 -2.30423 0
M  V30 3760 H 354.828 4.47779 -1.09615 0
M  V30 3761 H 358.372 5.39318 -4.42473 0
M  V30 3762 H 354.269 5.60153 -3.20778 0
M  V30 3763 H 355.037 6.37433 -5.13441 0
M  V30 3764 N 357.7 0.491464 1.49741 0
M  V30 3765 C 358.948 -0.0563141 2.02022 0
M  V30 3766 C 359.269 -1.38363 1.37407 0
M  V30 3767 O 358.539 -1.88702 0.526166 0
M  V30 3768 H 357.119 -0.0238014 0.746621 0
M  V30 3769 H 359.781 0.646533 1.83864 0
M  V30 3770 H 358.877 -0.192967 3.11503 0
M  V30 3771 N 359.178 -1.55987 0.224894 0
M  V30 3772 C 360.589 -1.84553 -0.282345 0
M  V30 3773 C 360.94 -1.14634 -1.59227 0
M  V30 3774 O 360.065 -0.417155 -2.12341 0
M  V30 3775 C 360.66 -3.348 -0.519062 0
M  V30 3776 C 359.219 -3.63671 -0.970604 0
M  V30 3777 C 358.366 -2.77277 -0.0355261 0
M  V30 3778 H 361.317 -1.52245 0.448006 0
M  V30 3779 H 361.338 -3.55187 -1.36463 0
M  V30 3780 H 360.85 -3.8566 0.43449 0
M  V30 3781 H 358.951 -3.1827 -1.9374 0
M  V30 3782 H 359.064 -4.71631 -0.842698 0
M  V30 3783 H 357.428 -2.48846 -0.542927 0
M  V30 3784 H 358.211 -3.30937 0.913003 0
M  V30 3785 N 360.656 0.0484629 -1.57525 0
M  V30 3786 C 361.884 0.755421 -1.92616 0
M  V30 3787 C 362.299 1.69919 -0.822984 0
M  V30 3788 O 361.656 1.81378 0.202085 0
M  V30 3789 C 361.707 1.52915 -3.27566 0
M  V30 3790 O 361.428 0.62329 -4.33644 0
M  V30 3791 C 362.929 2.33502 -3.76818 0
M  V30 3792 H 360.149 0.213465 -0.63614 0
M  V30 3793 H 362.693 0.0117698 -2.04497 0
M  V30 3794 H 360.848 2.22486 -3.17142 0
M  V30 3795 H 361.262 1.16383 -5.11425 0
M  V30 3796 H 362.736 2.83214 -4.73808 0
M  V30 3797 H 363.213 3.14068 -3.07014 0
M  V30 3798 H 363.819 1.69043 -3.90262 0
M  V30 3799 N 362.134 1.5431 0.320358 0
M  V30 3800 C 363.097 1.83195 1.3774 0
M  V30 3801 C 364.097 0.703906 1.44575 0
M  V30 3802 O 365.287 0.972214 1.44546 0
M  V30 3803 C 362.419 1.99487 2.76438 0
M  V30 3804 H 363.612 2.77642 1.1338 0
M  V30 3805 H 361.165 1.46076 0.556012 0
M  V30 3806 H 361.9 1.07262 3.06048 0
M  V30 3807 H 361.685 2.81575 2.7287 0
M  V30 3808 H 363.175 2.23271 3.52902 0
M  V30 3809 N 363.613 -0.582584 1.46437 0
M  V30 3810 C 364.861 -1.33814 1.51453 0
M  V30 3811 C 365.182 -1.94277 0.167792 0
M  V30 3812 O 364.452 -1.78566 -0.805677 0
M  V30 3813 H 363.032 -0.496838 0.557818 0
M  V30 3814 H 365.694 -0.682281 1.82568 0
M  V30 3815 H 364.79 -2.14479 2.26728 0
M  V30 3816 N 365.091 -1.34144 -0.827227 0
M  V30 3817 C 366.054 -1.25264 -1.91942 0
M  V30 3818 C 367.054 -0.168866 -1.59911 0
M  V30 3819 O 368.244 -0.421198 -1.69031 0
M  V30 3820 C 365.376 -0.932952 -3.27885 0
M  V30 3821 H 366.569 -2.22357 -2.0124 0
M  V30 3822 H 364.122 -1.1837 -1.0207 0
M  V30 3823 H 364.857 0.0349917 -3.24281 0
M  V30 3824 H 364.642 -1.71682 -3.52516 0
M  V30 3825 H 366.132 -0.895874 -4.07877 0
M  V30 3826 N 366.569 1.04691 -1.17803 0
M  V30 3827 C 367.532 2.10724 -0.901545 0
M  V30 3828 C 368.532 1.6042 0.110437 0
M  V30 3829 O 369.722 1.7377 -0.122303 0
M  V30 3830 C 366.854 3.39084 -0.351409 0
M  V30 3831 H 368.047 2.36686 -1.84174 0
M  V30 3832 H 365.6 1.21015 -0.98919 0
M  V30 3833 H 366.335 3.18782 0.59569 0
M  V30 3834 H 366.12 3.76909 -1.08083 0
M  V30 3835 H 367.61 4.17227 -0.176451 0
M  V30 3836 N 368.047 0.979072 1.23499 0
M  V30 3837 C 369.296 0.642751 1.91185 0
M  V30 3838 C 369.609 -0.827253 1.77245 0
M  V30 3839 O 370.815 -1.27458 2.39722 0
M  V30 3840 C 369.271 1.09901 3.42709 0
M  V30 3841 C 368.879 2.59327 3.65313 0
M  V30 3842 C 370.623 0.836371 4.16179 0
M  V30 3843 C 368.53 2.98627 5.10467 0
M  V30 3844 H 367.46 0.236698 0.715884 0
M  V30 3845 H 370.111 1.1868 1.39955 0
M  V30 3846 H 368.493 0.48319 3.93041 0
M  V30 3847 H 369.667 3.26136 3.25533 0
M  V30 3848 H 367.982 2.83323 3.05151 0
M  V30 3849 H 370.579 1.10586 5.23139 0
M  V30 3850 H 370.922 -0.227509 4.15678 0
M  V30 3851 H 371.455 1.41371 3.71832 0
M  V30 3852 H 368.194 4.04133 5.16098 0
M  V30 3853 H 367.714 2.3651 5.51201 0
M  V30 3854 H 369.393 2.89159 5.78788 0
M  V30 3855 N 369.525 -1.3858 0.750561 0
M  V30 3856 C 370.488 -2.28836 0.129152 0
M  V30 3857 C 371.488 -1.47045 -0.650714 0
M  V30 3858 O 372.678 -1.6753 -0.477428 0
M  V30 3859 C 369.81 -3.30751 -0.825622 0
M  V30 3860 H 371.003 -2.85294 0.924516 0
M  V30 3861 H 368.556 -1.47489 0.517376 0
M  V30 3862 H 369.291 -2.79378 -1.64677 0
M  V30 3863 H 369.076 -3.91177 -0.268852 0
M  V30 3864 H 370.566 -3.98249 -1.2565 0
M  V30 3865 N 371.003 -0.499398 -1.49478 0
M  V30 3866 C 372.228 0.044722 -2.07352 0
M  V30 3867 C 372.653 1.30207 -1.35749 0
M  V30 3868 O 372.011 1.76516 -0.413732 0
M  V30 3869 C 372.059 0.283013 -3.59488 0
M  V30 3870 O 371.163 1.35804 -3.89398 0
M  V30 3871 H 370.504 -0.0255147 -0.66351 0
M  V30 3872 H 373.034 -0.698561 -1.92305 0
M  V30 3873 H 373.044 0.515007 -4.04737 0
M  V30 3874 H 371.719 -0.635636 -4.11014 0
M  V30 3875 H 370.296 1.11113 -3.55961 0
M  V30 3876 N 372.481 1.55866 -0.233164 0
M  V30 3877 C 373.431 2.17442 0.685774 0
M  V30 3878 C 374.415 1.12617 1.14918 0
M  V30 3879 O 375.607 1.3857 1.10124 0
M  V30 3880 C 372.736 2.86685 1.88856 0
M  V30 3881 C 371.822 3.98749 1.4443 0
M  V30 3882 N 372.213 5.00744 0.713364 0
M  V30 3883 C 370.511 4.11052 1.73068 0
M  V30 3884 C 371.212 5.79673 0.485205 0
M  V30 3885 N 370.188 5.33454 1.04536 0
M  V30 3886 H 373.99 2.93659 0.119022 0
M  V30 3887 H 371.504 1.62362 -0.0348995 0
M  V30 3888 H 373.501 3.29218 2.55776 0
M  V30 3889 H 372.161 2.11967 2.45967 0
M  V30 3890 H 373.172 5.16613 0.364861 0
M  V30 3891 H 369.849 3.47495 2.31416 0
M  V30 3892 H 371.239 6.71829 -0.097365 0
M  V30 3893 N 373.959 -0.0401083 1.57549 0
M  V30 3894 C 375.208 -0.732108 1.87944 0
M  V30 3895 C 375.521 -1.77107 0.830206 0
M  V30 3896 O 376.727 -2.51488 1.02302 0
M  V30 3897 C 375.183 -1.35315 3.33494 0
M  V30 3898 C 374.791 -0.351105 4.46622 0
M  V30 3899 C 376.535 -2.02566 3.73051 0
M  V30 3900 C 374.442 -0.979859 5.83226 0
M  V30 3901 H 373.372 -0.277188 0.701201 0
M  V30 3902 H 376.023 0.0138501 1.83495 0
M  V30 3903 H 374.405 -2.14844 3.32653 0
M  V30 3904 H 375.579 0.416674 4.58912 0
M  V30 3905 H 373.894 0.218708 4.15825 0
M  V30 3906 H 376.491 -2.50441 4.72423 0
M  V30 3907 H 376.834 -2.83904 3.04474 0
M  V30 3908 H 377.367 -1.29827 3.76018 0
M  V30 3909 H 374.106 -0.206135 6.55176 0
M  V30 3910 H 373.626 -1.71774 5.74677 0
M  V30 3911 H 375.305 -1.49046 6.29599 0
M  V30 3912 N 375.437 -1.54477 -0.31217 0
M  V30 3913 C 376.685 -1.72884 -1.04668 0
M  V30 3914 C 377.006 -0.511477 -1.88173 0
M  V30 3915 O 376.276 0.474407 -1.90069 0
M  V30 3916 H 374.856 -0.637461 -0.389425 0
M  V30 3917 H 377.518 -1.91807 -0.345852 0
M  V30 3918 H 376.614 -2.61334 -1.70619 0
M  V30 3919 N 376.915 0.57481 -1.46744 0
M  V30 3920 C 378.164 1.32898 -1.51727 0
M  V30 3921 C 378.477 1.948 -0.176692 0
M  V30 3922 O 379.683 2.71299 -0.104385 0
M  V30 3923 C 378.139 2.40901 -2.67385 0
M  V30 3924 C 377.747 1.85266 -4.07898 0
M  V30 3925 C 379.491 3.17609 -2.81646 0
M  V30 3926 C 377.398 2.90945 -5.14883 0
M  V30 3927 H 376.328 0.499631 -0.564699 0
M  V30 3928 H 378.979 0.612536 -1.72975 0
M  V30 3929 H 377.361 3.15379 -2.39483 0
M  V30 3930 H 378.535 1.17278 -4.45626 0
M  V30 3931 H 376.85 1.21199 -3.98371 0
M  V30 3932 H 379.447 3.96493 -3.58744 0
M  V30 3933 H 379.79 3.70696 -1.89448 0
M  V30 3934 H 380.323 2.50239 -3.09233 0
M  V30 3935 H 377.062 2.42736 -6.089 0
M  V30 3936 H 376.582 3.57398 -4.81691 0
M  V30 3937 H 378.261 3.54755 -5.41071 0
M  V30 3938 N 378.394 1.34581 0.820102 0
M  V30 3939 C 379.671 1.17675 1.56244 0
M  V30 3940 C 380.051 -0.249541 2.0962 0
M  V30 3941 O 379.399 -1.25125 1.91196 0
M  V30 3942 C 379.609 2.23364 2.6816 0
M  V30 3943 C 380.957 2.58485 3.36854 0
M  V30 3944 O 381.981 2.22175 2.78418 0
M  V30 3945 O 380.84 3.20868 4.42386 0
M  V30 3946 H 377.934 0.456333 0.689702 0
M  V30 3947 H 380.48 1.46222 0.861231 0
M  V30 3948 H 379.252 3.19087 2.26493 0
M  V30 3949 H 378.875 1.96009 3.45928 0
M  V30 3950 N 379.872 -1.04064 1.18357 0
M  V30 3951 C 380.819 -2.12077 0.910603 0
M  V30 3952 C 381.789 -1.65421 -0.15 0
M  V30 3953 O 382.974 -1.90797 -0.0103614 0
M  V30 3954 C 380.114 -3.42252 0.442472 0
M  V30 3955 C 379.227 -4.0252 1.5685 0
M  V30 3956 C 378.362 -5.20657 1.05309 0
M  V30 3957 C 377.401 -5.72955 2.1538 0
M  V30 3958 N 376.538 -6.8238 1.65233 0
M  V30 3959 H 381.378 -2.34764 1.83548 0
M  V30 3960 H 378.915 -1.15157 0.915279 0
M  V30 3961 H 380.873 -4.16921 0.152534 0
M  V30 3962 H 379.503 -3.19712 -0.445428 0
M  V30 3963 H 378.555 -3.25178 1.97391 0
M  V30 3964 H 379.867 -4.37362 2.39824 0
M  V30 3965 H 379.021 -6.0244 0.717677 0
M  V30 3966 H 377.76 -4.87318 0.19293 0
M  V30 3967 H 376.765 -4.89793 2.49766 0
M  V30 3968 H 377.99 -6.08337 3.01832 0
M  V30 3969 H 375.936 -6.50917 0.815064 0
M  V30 3970 H 375.853 -7.16286 2.41805 0
M  V30 3971 H 377.121 -7.67788 1.34619 0
M  V30 3972 N 381.35 -0.985608 -1.22978 0
M  V30 3973 C 382.599 -0.652881 -1.90841 0
M  V30 3974 C 382.912 0.817842 -1.77681 0
M  V30 3975 O 384.118 1.26185 -2.40395 0
M  V30 3976 C 382.574 -1.11717 -3.42122 0
M  V30 3977 C 382.182 -2.6126 -3.63933 0
M  V30 3978 C 383.926 -0.85843 -4.1573 0
M  V30 3979 C 381.833 -3.0133 -5.08876 0
M  V30 3980 H 380.763 -0.240491 -0.714619 0
M  V30 3981 H 383.414 -1.1942 -1.39324 0
M  V30 3982 H 381.796 -0.504027 -3.92779 0
M  V30 3983 H 382.97 -3.27858 -3.23799 0
M  V30 3984 H 381.285 -2.84937 -3.03644 0
M  V30 3985 H 383.882 -1.13359 -5.22546 0
M  V30 3986 H 384.225 0.205461 -4.15793 0
M  V30 3987 H 384.758 -1.43341 -3.71077 0
M  V30 3988 H 381.497 -4.06864 -5.13947 0
M  V30 3989 H 381.017 -2.3943 -5.49939 0
M  V30 3990 H 382.696 -2.92224 -5.77247 0
M  V30 3991 N 382.828 1.3818 -0.7579 0
M  V30 3992 C 383.791 2.28764 -0.141286 0
M  V30 3993 C 384.791 1.47388 0.642907 0
M  V30 3994 O 385.981 1.67781 0.468536 0
M  V30 3995 C 383.113 3.31184 0.808069 0
M  V30 3996 H 384.306 2.848 -0.939633 0
M  V30 3997 H 381.859 1.47212 -0.525191 0
M  V30 3998 H 382.594 2.80247 1.63193 0
M  V30 3999 H 382.379 3.91314 0.248104 0
M  V30 4000 H 383.869 3.98909 1.23536 0
M  V30 4001 N 384.306 0.507319 1.49211 0
M  V30 4002 C 385.553 -0.0349529 2.0247 0
M  V30 4003 C 385.881 -1.36409 1.38647 0
M  V30 4004 O 385.136 -1.88841 0.513566 0
M  V30 4005 C 385.435 -0.229513 3.56662 0
M  V30 4006 C 385.101 1.02241 4.39156 0
M  V30 4007 C 383.763 1.36557 4.61417 0
M  V30 4008 C 386.115 1.85428 4.871 0
M  V30 4009 C 383.443 2.53999 5.28868 0
M  V30 4010 C 385.795 3.02028 5.55843 0
M  V30 4011 C 384.459 3.36717 5.76349 0
M  V30 4012 H 383.729 -0.0127902 0.74089 0
M  V30 4013 H 386.376 0.668756 1.79443 0
M  V30 4014 H 384.681 -1.0158 3.78403 0
M  V30 4015 H 386.378 -0.663641 3.9547 0
M  V30 4016 H 382.968 0.745124 4.22073 0
M  V30 4017 H 387.152 1.6023 4.69723 0
M  V30 4018 H 382.408 2.81105 5.42946 0
M  V30 4019 H 386.582 3.66808 5.91967 0
M  V30 4020 H 384.209 4.27821 6.28389 0
M  V30 4021 N 385.784 -1.5574 0.241426 0
M  V30 4022 C 387.012 -2.03208 -0.389134 0
M  V30 4023 C 387.427 -1.12082 -1.51931 0
M  V30 4024 O 386.784 -0.134183 -1.82006 0
M  V30 4025 C 386.835 -3.50064 -0.902087 0
M  V30 4026 O 386.556 -4.37717 0.18305 0
M  V30 4027 C 388.057 -4.13268 -1.60389 0
M  V30 4028 H 385.277 -0.664509 -0.0931053 0
M  V30 4029 H 387.821 -2.0124 0.36369 0
M  V30 4030 H 385.976 -3.52583 -1.60511 0
M  V30 4031 H 386.39 -5.24097 -0.205579 0
M  V30 4032 H 387.864 -5.17733 -1.91458 0
M  V30 4033 H 388.341 -3.59434 -2.52397 0
M  V30 4034 H 388.947 -4.14655 -0.945576 0
M  V30 4035 N 387.262 0.0317525 -1.57568 0
M  V30 4036 C 388.51 0.721676 -1.88776 0
M  V30 4037 C 388.831 1.76039 -0.838772 0
M  V30 4038 O 388.101 1.95482 0.127935 0
M  V30 4039 H 386.681 0.269534 -0.696678 0
M  V30 4040 H 389.343 -0.00165879 -1.949 0
M  V30 4041 H 388.439 1.21293 -2.87566 0
M  V30 4042 N 388.74 1.54641 0.303973 0
M  V30 4043 C 389.965 1.78092 1.06292 0
M  V30 4044 C 390.39 0.537342 1.80262 0
M  V30 4045 O 389.748 -0.511993 1.7392 0
M  V30 4046 C 389.796 2.98612 2.02147 0
M  V30 4047 O 388.9 2.71528 3.10397 0
M  V30 4048 H 388.241 0.589548 0.305497 0
M  V30 4049 H 390.771 2.01716 0.3423 0
M  V30 4050 H 390.781 3.265 2.44667 0
M  V30 4051 H 389.456 3.88785 1.47714 0
M  V30 4052 H 388.033 2.54648 2.72413 0
M  V30 4053 N 390.218 -0.567019 1.47046 0
M  V30 4054 C 391.446 -1.35027 1.56765 0
M  V30 4055 C 391.861 -1.8758 0.214316 0
M  V30 4056 O 391.218 -1.64471 -0.790919 0
M  V30 4057 C 391.269 -2.52698 2.58507 0
M  V30 4058 O 390.99 -2.0232 3.88585 0
M  V30 4059 C 392.491 -3.45043 2.78316 0
M  V30 4060 H 389.711 -0.41195 0.529658 0
M  V30 4061 H 392.255 -0.687832 1.92585 0
M  V30 4062 H 390.41 -3.149 2.25648 0
M  V30 4063 H 390.824 -2.79068 4.44096 0
M  V30 4064 H 392.298 -4.2405 3.53391 0
M  V30 4065 H 392.775 -3.97971 1.85784 0
M  V30 4066 H 393.381 -2.88665 3.12334 0
M  V30 4067 N 391.696 -1.35014 -0.812953 0
M  V30 4068 C 392.606 -1.2951 -1.95613 0
M  V30 4069 C 393.622 -0.20107 -1.72834 0
M  V30 4070 O 394.798 -0.42932 -1.96771 0
M  V30 4071 C 391.863 -1.06033 -3.30088 0
M  V30 4072 C 390.924 -2.24688 -3.65805 0
M  V30 4073 C 390.157 -2.02322 -4.93864 0
M  V30 4074 O 390.38 -0.986464 -5.61805 0
M  V30 4075 O 389.314 -2.89525 -5.27692 0
M  V30 4076 H 393.14 -2.25705 -2.03202 0
M  V30 4077 H 390.725 -1.15321 -0.949811 0
M  V30 4078 H 392.607 -0.94763 -4.10607 0
M  V30 4079 H 391.282 -0.128852 -3.23443 0
M  V30 4080 H 390.189 -2.41521 -2.85689 0
M  V30 4081 H 391.522 -3.16261 -3.77147 0
M  V30 4082 N 393.175 1.03435 -1.18907 0
M  V30 4083 C 394.421 1.77005 -0.989798 0
M  V30 4084 C 394.754 1.88205 0.478816 0
M  V30 4085 O 394.029 1.39481 1.35556 0
M  V30 4086 C 394.312 3.19925 -1.65287 0
M  V30 4087 C 394.165 3.1663 -3.19477 0
M  V30 4088 C 395.484 4.18189 -1.37134 0
M  V30 4089 H 392.603 0.642538 -0.360991 0
M  V30 4090 H 395.245 1.20784 -1.46667 0
M  V30 4091 H 393.395 3.67929 -1.24741 0
M  V30 4092 H 395.067 2.76567 -3.692 0
M  V30 4093 H 393.31 2.54491 -3.51307 0
M  V30 4094 H 393.981 4.1758 -3.61013 0
M  V30 4095 H 396.457 3.78761 -1.72276 0
M  V30 4096 H 395.333 5.16394 -1.86087 0
M  V30 4097 H 395.594 4.41112 -0.295424 0
M  V30 4098 N 394.653 0.992116 1.22453 0
M  V30 4099 C 395.901 0.666215 1.90804 0
M  V30 4100 C 396.222 -0.804152 1.77647 0
M  V30 4101 O 395.492 -1.57629 1.16318 0
M  V30 4102 H 394.072 0.243423 0.706225 0
M  V30 4103 H 396.734 1.25845 1.48825 0
M  V30 4104 H 395.83 0.928069 2.97982 0
M  V30 4105 N 396.131 -1.37776 0.765217 0
M  V30 4106 C 397.078 -2.30342 0.145274 0
M  V30 4107 C 398.048 -1.5077 -0.696971 0
M  V30 4108 O 399.233 -1.79362 -0.650689 0
M  V30 4109 C 396.373 -3.37227 -0.732939 0
M  V30 4110 C 395.486 -4.31819 0.125199 0
M  V30 4111 C 394.621 -5.25777 -0.757107 0
M  V30 4112 C 393.66 -6.12012 0.103963 0
M  V30 4113 N 392.797 -6.98232 -0.735953 0
M  V30 4114 H 397.637 -2.8278 0.940195 0
M  V30 4115 H 395.174 -1.39211 0.475255 0
M  V30 4116 H 397.132 -3.97818 -1.25686 0
M  V30 4117 H 395.762 -2.86171 -1.49353 0
M  V30 4118 H 394.814 -3.7259 0.766865 0
M  V30 4119 H 396.126 -4.92509 0.789683 0
M  V30 4120 H 395.28 -5.91541 -1.34776 0
M  V30 4121 H 394.019 -4.65481 -1.45529 0
M  V30 4122 H 393.024 -5.45233 0.707197 0
M  V30 4123 H 394.249 -6.74379 0.799381 0
M  V30 4124 H 392.195 -6.40472 -1.41887 0
M  V30 4125 H 392.112 -7.55891 -0.128624 0
M  V30 4126 H 393.38 -7.68393 -1.31121 0
M  V30 4127 N 397.609 -0.515225 -1.4894 0
M  V30 4128 C 398.539 0.244628 -2.32215 0
M  V30 4129 C 399.52 0.949136 -1.41157 0
M  V30 4130 O 400.705 0.937783 -1.70057 0
M  V30 4131 C 397.835 1.30096 -3.22013 0
M  V30 4132 C 396.789 0.715486 -4.21977 0
M  V30 4133 C 396.115 1.87339 -5.00808 0
M  V30 4134 C 397.415 -0.302982 -5.2142 0
M  V30 4135 H 399.109 -0.450501 -2.95991 0
M  V30 4136 H 396.655 -0.218098 -1.42339 0
M  V30 4137 H 398.608 1.84037 -3.79089 0
M  V30 4138 H 397.332 2.02547 -2.56207 0
M  V30 4139 H 395.991 0.197715 -3.66066 0
M  V30 4140 H 395.639 2.58592 -4.31438 0
M  V30 4141 H 395.339 1.48764 -5.68457 0
M  V30 4142 H 396.863 2.41686 -5.60732 0
M  V30 4143 H 398.277 0.148802 -5.73107 0
M  V30 4144 H 396.674 -0.60532 -5.97039 0
M  V30 4145 H 397.744 -1.21395 -4.69459 0
M  V30 4146 N 399.087 1.5561 -0.249682 0
M  V30 4147 C 400.336 1.98187 0.37479 0
M  V30 4148 C 400.649 1.14111 1.58865 0
M  V30 4149 O 401.855 1.46714 2.28445 0
M  V30 4150 C 400.311 3.52661 0.718192 0
M  V30 4151 C 399.919 4.45481 -0.474428 0
M  V30 4152 C 401.663 4.03888 1.3067 0
M  V30 4153 C 399.57 5.91303 -0.107026 0
M  V30 4154 H 398.5 0.740159 0.143808 0
M  V30 4155 H 401.151 1.80125 -0.350336 0
M  V30 4156 H 399.533 3.66429 1.50152 0
M  V30 4157 H 400.707 4.43473 -1.25172 0
M  V30 4158 H 399.022 4.04751 -0.978052 0
M  V30 4159 H 401.619 5.10358 1.59496 0
M  V30 4160 H 401.962 3.51401 2.23211 0
M  V30 4161 H 402.495 3.93457 0.586211 0
M  V30 4162 H 399.234 6.47833 -0.999642 0
M  V30 4163 H 398.754 5.9644 0.634013 0
M  V30 4164 H 400.433 6.46258 0.309807 0
M  V30 4165 N 400.565 -0.0233959 1.57583 0
M  V30 4166 C 401.497 -1.04994 2.03737 0
M  V30 4167 C 402.51 -1.32125 0.951152 0
M  V30 4168 O 403.699 -1.29512 1.22837 0
M  V30 4169 C 400.799 -2.39026 2.40249 0
M  V30 4170 C 399.972 -2.31171 3.7132 0
M  V30 4171 C 399.031 -3.47698 3.94959 0
M  V30 4172 O 398.057 -3.26937 4.65941 0
M  V30 4173 N 399.259 -4.6976 3.41037 0
M  V30 4174 H 402.024 -0.656507 2.92421 0
M  V30 4175 H 399.585 -0.211235 1.60516 0
M  V30 4176 H 401.577 -3.15712 2.53196 0
M  V30 4177 H 400.147 -2.70194 1.57207 0
M  V30 4178 H 399.367 -1.39547 3.68674 0
M  V30 4179 H 400.655 -2.23071 4.57293 0
M  V30 4180 H 400.053 -4.89528 2.83512 0
M  V30 4181 H 398.61 -5.43791 3.59353 0
M  V30 4182 N 402.043 -1.548 -0.295768 0
M  V30 4183 C 402.953 -1.89177 -1.38742 0
M  V30 4184 C 403.969 -0.786481 -1.55211 0
M  V30 4185 O 405.145 -1.08344 -1.69775 0
M  V30 4186 C 402.21 -2.13663 -2.73036 0
M  V30 4187 C 401.271 -3.37349 -2.65508 0
M  V30 4188 C 400.504 -3.60658 -3.93398 0
M  V30 4189 O 400.727 -2.86882 -4.93006 0
M  V30 4190 O 399.661 -4.54179 -3.94975 0
M  V30 4191 H 403.487 -2.82059 -1.12589 0
M  V30 4192 H 401.072 -1.41056 -0.492295 0
M  V30 4193 H 402.954 -2.3094 -3.52484 0
M  V30 4194 H 401.629 -1.23967 -2.99022 0
M  V30 4195 H 400.536 -3.25431 -1.84514 0
M  V30 4196 H 401.869 -4.27192 -2.44474 0
M  V30 4197 N 403.521 0.559213 -1.47345 0
M  V30 4198 C 404.484 1.64854 -1.59235 0
M  V30 4199 C 405.484 1.53851 -0.467607 0
M  V30 4200 O 406.674 1.58045 -0.732617 0
M  V30 4201 C 403.806 3.04388 -1.53496 0
M  V30 4202 H 404.999 1.55662 -2.56339 0
M  V30 4203 H 402.552 0.778973 -1.35505 0
M  V30 4204 H 403.287 3.19115 -0.577604 0
M  V30 4205 H 403.072 3.13783 -2.35123 0
M  V30 4206 H 404.562 3.83642 -1.6495 0
M  V30 4207 N 404.999 1.35443 0.805782 0
M  V30 4208 C 405.962 1.28301 1.89925 0
M  V30 4209 C 406.962 0.194285 1.59622 0
M  V30 4210 O 408.152 0.448036 1.6834 0
M  V30 4211 C 405.284 0.984997 3.2636 0
M  V30 4212 H 406.477 2.2553 1.97677 0
M  V30 4213 H 404.03 1.19979 1.00173 0
M  V30 4214 H 404.765 0.016603 3.24296 0
M  V30 4215 H 404.55 1.77269 3.4974 0
M  V30 4216 H 406.04 0.960651 4.064 0
M  V30 4217 N 406.477 -1.02803 1.19454 0
M  V30 4218 C 407.725 -1.75869 0.995722 0
M  V30 4219 C 408.046 -1.89138 -0.474543 0
M  V30 4220 O 407.316 -1.42558 -1.34366 0
M  V30 4221 H 405.896 -0.651511 0.365435 0
M  V30 4222 H 408.558 -1.24004 1.50363 0
M  V30 4223 H 407.654 -2.76661 1.44447 0
M  V30 4224 N 407.956 -0.998596 -1.21925 0
M  V30 4225 C 409.372 -0.710303 -1.42923 0
M  V30 4226 C 409.572 0.716933 -1.88314 0
M  V30 4227 O 408.628 1.48712 -2.04062 0
M  V30 4228 C 409.941 -1.72072 -2.466 0
M  V30 4229 C 411.489 -1.73681 -2.60392 0
M  V30 4230 C 411.964 -2.73601 -3.67296 0
M  V30 4231 N 413.455 -2.7223 -3.7476 0
M  V30 4232 C 414.19 -3.46206 -4.57087 0
M  V30 4233 N 413.686 -4.29802 -5.43362 0
M  V30 4234 N 415.479 -3.34886 -4.51451 0
M  V30 4235 H 407.63 -1.92028 -0.9077 0
M  V30 4236 H 409.893 -0.828487 -0.460775 0
M  V30 4237 H 409.599 -2.74231 -2.20206 0
M  V30 4238 H 409.473 -1.51818 -3.45299 0
M  V30 4239 H 411.86 -0.722173 -2.86127 0
M  V30 4240 H 411.941 -1.98005 -1.61949 0
M  V30 4241 H 411.585 -3.75217 -3.42307 0
M  V30 4242 H 411.515 -2.46545 -4.65321 0
M  V30 4243 H 414.006 -2.11576 -3.1312 0
M  V30 4244 H 414.319 -4.83061 -6.03218 0
M  V30 4245 H 412.664 -4.33887 -5.42925 0
M  V30 4246 H 415.855 -2.69015 -3.83078 0
M  V30 4247 H 416.028 -3.92796 -5.15379 0
M  V30 4248 N 409.434 1.37368 -0.772513 0
M  V30 4249 C 410.659 2.0447 -0.347386 0
M  V30 4250 C 411.084 1.57882 1.0225 0
M  V30 4251 O 410.442 0.73941 1.65537 0
M  V30 4252 C 410.49 3.58369 -0.400479 0
M  V30 4253 O 409.594 4.0803 0.598789 0
M  V30 4254 H 408.935 0.646773 -0.15027 0
M  V30 4255 H 411.465 1.75667 -1.04892 0
M  V30 4256 H 411.475 4.07183 -0.258045 0
M  V30 4257 H 410.15 3.91633 -1.39986 0
M  V30 4258 H 408.727 3.70534 0.419411 0
M  V30 4259 N 410.912 0.523116 1.48665 0
M  V30 4260 C 411.86 -0.256859 2.31177 0
M  V30 4261 C 412.854 -0.94199 1.40794 0
M  V30 4262 O 414.06 -0.867157 1.57735 0
M  V30 4263 H 410.435 -0.1017 0.745091 0
M  V30 4264 H 412.406 0.458739 2.94853 0
M  V30 4265 C 411.155 -1.29503 3.22683 0
M  V30 4266 H 410.478 -0.777248 3.92172 0
M  V30 4267 H 411.918 -1.81233 3.83315 0
M  V30 4268 C 410.377 -2.32501 2.43813 0
M  V30 4269 O 410.907 -3.3881 2.15803 0
M  V30 4270 N 409.113 -2.05538 2.05432 0
M  V30 4271 H 408.66 -1.19104 2.28412 0
M  V30 4272 H 408.618 -2.74676 1.52973 0
M  V30 4273 N 412.39 -1.55475 0.257931 0
M  V30 4274 C 413.32 -2.24815 -0.630912 0
M  V30 4275 C 414.301 -1.23224 -1.17259 0
M  V30 4276 O 415.486 -1.51904 -1.20991 0
M  V30 4277 C 412.616 -2.95609 -1.82298 0
M  V30 4278 C 411.57 -4.03982 -1.41359 0
M  V30 4279 C 410.896 -4.6226 -2.68738 0
M  V30 4280 C 412.196 -5.19109 -0.57648 0
M  V30 4281 H 413.89 -2.99354 -0.0526878 0
M  V30 4282 H 411.436 -1.4398 -0.023901 0
M  V30 4283 H 413.389 -3.42822 -2.45054 0
M  V30 4284 H 412.113 -2.18577 -2.42676 0
M  V30 4285 H 410.772 -3.57555 -0.809324 0
M  V30 4286 H 410.42 -3.81915 -3.27338 0
M  V30 4287 H 410.12 -5.35424 -2.42065 0
M  V30 4288 H 411.644 -5.12212 -3.32372 0
M  V30 4289 H 413.058 -5.62479 -1.10861 0
M  V30 4290 H 411.455 -5.98729 -0.405351 0
M  V30 4291 H 412.525 -4.83174 0.408776 0
M  V30 4292 N 413.868 0.0150385 -1.57593 0
M  V30 4293 C 414.815 1.01126 -2.07466 0
M  V30 4294 C 415.785 1.35064 -0.966794 0
M  V30 4295 O 416.97 1.4516 -1.23827 0
M  V30 4296 C 414.11 2.30276 -2.57035 0
M  V30 4297 C 413.223 2.02373 -3.81666 0
M  V30 4298 C 412.358 3.25496 -4.19793 0
M  V30 4299 C 411.397 2.93211 -5.37303 0
M  V30 4300 N 410.534 4.08826 -5.70794 0
M  V30 4301 H 415.374 0.57901 -2.92321 0
M  V30 4302 H 412.911 0.27426 -1.44521 0
M  V30 4303 H 414.869 3.05757 -2.83846 0
M  V30 4304 H 413.499 2.71197 -1.75077 0
M  V30 4305 H 412.551 1.17327 -3.61854 0
M  V30 4306 H 413.863 1.74567 -4.67256 0
M  V30 4307 H 413.017 4.09333 -4.47807 0
M  V30 4308 H 411.756 3.56428 -3.32882 0
M  V30 4309 H 410.761 2.07777 -5.09027 0
M  V30 4310 H 411.986 2.63542 -6.25877 0
M  V30 4311 H 409.932 4.39682 -4.86842 0
M  V30 4312 H 409.849 3.84491 -6.50924 0
M  V30 4313 H 411.117 4.93496 -6.03392 0
M  V30 4314 N 415.346 1.54954 0.287554 0
M  V30 4315 C 416.762 1.46469 0.633964 0
M  V30 4316 C 416.962 0.666865 1.90145 0
M  V30 4317 O 416.018 0.179906 2.51858 0
M  V30 4318 C 417.331 2.90556 0.774454 0
M  V30 4319 C 418.879 3.00681 0.869462 0
M  V30 4320 C 419.354 4.45993 1.04184 0
M  V30 4321 N 420.845 4.4976 1.10772 0
M  V30 4322 C 421.58 5.59393 1.25964 0
M  V30 4323 N 421.076 6.78923 1.37968 0
M  V30 4324 N 422.869 5.47107 1.28959 0
M  V30 4325 H 415.02 2.05288 -0.545041 0
M  V30 4326 H 417.283 0.930305 -0.182308 0
M  V30 4327 H 416.989 3.51594 -0.086207 0
M  V30 4328 H 416.863 3.38743 1.6593 0
M  V30 4329 H 419.25 2.39749 1.7206 0
M  V30 4330 H 419.331 2.55769 -0.0396831 0
M  V30 4331 H 418.975 5.07524 0.195422 0
M  V30 4332 H 418.905 4.88548 1.96542 0
M  V30 4333 H 421.396 3.63651 1.02794 0
M  V30 4334 H 421.709 7.58231 1.49353 0
M  V30 4335 H 420.054 6.81763 1.34999 0
M  V30 4336 H 423.245 4.52668 1.19202 0
M  V30 4337 H 423.418 6.32595 1.40455 0
M  V30 4338 N 416.824 -0.551391 1.4764 0
M  V30 4339 C 418.07 -1.31024 1.54792 0
M  V30 4340 C 418.403 -1.9304 0.211967 0
M  V30 4341 O 417.678 -1.78175 -0.77999 0
M  V30 4342 C 417.961 -2.41593 2.67029 0
M  V30 4343 C 417.814 -1.84408 4.10261 0
M  V30 4344 C 419.133 -3.43488 2.75143 0
M  V30 4345 H 416.252 -0.475031 0.563485 0
M  V30 4346 H 418.894 -0.616454 1.79722 0
M  V30 4347 H 417.044 -3.00772 2.45904 0
M  V30 4348 H 418.716 -1.29445 4.42766 0
M  V30 4349 H 416.959 -1.15051 4.18265 0
M  V30 4350 H 417.63 -2.64367 4.84576 0
M  V30 4351 H 420.106 -2.94236 2.94218 0
M  V30 4352 H 418.982 -4.18274 3.55441 0
M  V30 4353 H 419.243 -4.02703 1.82435 0
M  V30 4354 N 418.302 -1.35869 -0.798587 0
M  V30 4355 C 419.53 -1.32722 -1.58722 0
M  V30 4356 C 419.945 0.0935631 -1.88568 0
M  V30 4357 O 419.302 1.04784 -1.49421 0
M  V30 4358 C 419.353 -2.13974 -2.91371 0
M  V30 4359 O 419.074 -3.50514 -2.62815 0
M  V30 4360 C 420.575 -2.18504 -3.85708 0
M  V30 4361 H 417.795 -0.45562 -0.492596 0
M  V30 4362 H 420.339 -1.78837 -0.991843 0
M  V30 4363 H 418.494 -1.71438 -3.47402 0
M  V30 4364 H 418.908 -3.92806 -3.47568 0
M  V30 4365 H 420.382 -2.79732 -4.75872 0
M  V30 4366 H 420.859 -1.18597 -4.22885 0
M  V30 4367 H 421.465 -2.61236 -3.35612 0
M  V30 4368 N 419.78 1.02168 -1.19998 0
M  V30 4369 C 420.71 2.12488 -0.96804 0
M  V30 4370 C 421.691 1.69799 0.101185 0
M  V30 4371 O 422.876 1.94121 -0.0552993 0
M  V30 4372 C 420.006 3.43479 -0.513776 0
M  V30 4373 C 418.96 3.99884 -1.52566 0
M  V30 4374 C 418.286 5.26582 -0.928214 0
M  V30 4375 C 419.586 4.33861 -2.90795 0
M  V30 4376 H 421.28 2.32149 -1.89069 0
M  V30 4377 H 418.826 1.11564 -0.910468 0
M  V30 4378 H 420.779 4.20036 -0.338774 0
M  V30 4379 H 419.503 3.23561 0.444493 0
M  V30 4380 H 418.162 3.25429 -1.68794 0
M  V30 4381 H 417.81 5.02986 0.0378289 0
M  V30 4382 H 417.51 5.65284 -1.60397 0
M  V30 4383 H 419.034 6.05799 -0.764167 0
M  V30 4384 H 420.448 5.01327 -2.78109 0
M  V30 4385 H 418.845 4.83664 -3.55231 0
M  V30 4386 H 419.915 3.42848 -3.42904 0
M  V30 4387 N 421.258 1.00505 1.21394 0
M  V30 4388 C 422.168 0.574806 2.27449 0
M  V30 4389 C 423.184 -0.382206 1.6975 0
M  V30 4390 O 424.36 -0.246027 1.99892 0
M  V30 4391 C 421.425 -0.0917414 3.46579 0
M  V30 4392 C 420.486 0.909758 4.1955 0
M  V30 4393 C 419.719 0.274924 5.32991 0
M  V30 4394 O 419.942 -0.928254 5.62796 0
M  V30 4395 O 418.876 0.985877 5.93771 0
M  V30 4396 H 422.702 1.45744 2.66444 0
M  V30 4397 H 420.287 0.773923 1.27792 0
M  V30 4398 H 422.169 -0.464551 4.18832 0
M  V30 4399 H 420.844 -0.948755 3.09484 0
M  V30 4400 H 419.751 1.33372 3.49518 0
M  V30 4401 H 421.084 1.73636 4.60555 0
M  V30 4402 N 422.737 -1.36956 0.779787 0
M  V30 4403 C 423.667 -2.32761 0.185651 0
M  V30 4404 C 424.648 -1.56177 -0.673989 0
M  V30 4405 O 425.833 -1.84378 -0.609797 0
M  V30 4406 C 422.963 -3.40418 -0.687964 0
M  V30 4407 C 421.917 -4.27941 0.0710102 0
M  V30 4408 C 421.243 -5.26681 -0.922573 0
M  V30 4409 C 422.543 -5.07006 1.25467 0
M  V30 4410 H 424.237 -2.82698 0.986008 0
M  V30 4411 H 421.783 -1.3592 0.475592 0
M  V30 4412 H 423.736 -4.06423 -1.11348 0
M  V30 4413 H 422.46 -2.89025 -1.52093 0
M  V30 4414 H 421.119 -3.63478 0.47739 0
M  V30 4415 H 420.767 -4.71565 -1.7503 0
M  V30 4416 H 420.467 -5.86103 -0.419237 0
M  V30 4417 H 421.991 -5.9556 -1.34686 0
M  V30 4418 H 423.405 -5.66105 0.905401 0
M  V30 4419 H 421.802 -5.75793 1.69063 0
M  V30 4420 H 422.872 -4.3921 2.05481 0
M  V30 4421 N 424.215 -0.530993 -1.48385 0
M  V30 4422 C 425.463 0.00273189 -2.021 0
M  V30 4423 C 425.784 1.34672 -1.41027 0
M  V30 4424 O 425.054 1.8724 -0.576012 0
M  V30 4425 H 423.634 0.00399774 -0.746989 0
M  V30 4426 H 426.296 -0.695054 -1.82085 0
M  V30 4427 H 425.392 0.11031 -3.11905 0
M  V30 4428 N 425.693 1.55336 -0.266172 0
M  V30 4429 C 426.941 1.99003 0.35246 0
M  V30 4430 C 427.262 1.15591 1.57047 0
M  V30 4431 O 426.532 0.243268 1.94384 0
M  V30 4432 H 425.112 0.735025 0.133217 0
M  V30 4433 H 427.774 1.91367 -0.369434 0
M  V30 4434 H 426.87 3.05289 0.648453 0
M  V30 4435 N 427.171 -0.0066808 1.57599 0
M  V30 4436 C 428.118 -1.00024 2.08 0
M  V30 4437 C 429.088 -1.34549 0.973943 0
M  V30 4438 O 430.273 -1.44502 1.24595 0
M  V30 4439 C 427.413 -2.2891 2.58252 0
M  V30 4440 C 426.526 -2.00346 3.82734 0
M  V30 4441 C 425.661 -3.23265 4.21513 0
M  V30 4442 C 424.7 -2.90357 5.3885 0
M  V30 4443 N 423.837 -4.05793 5.72954 0
M  V30 4444 H 428.677 -0.563499 2.92624 0
M  V30 4445 H 426.214 -0.266592 1.44664 0
M  V30 4446 H 428.172 -3.04247 2.85464 0
M  V30 4447 H 426.802 -2.70265 1.76512 0
M  V30 4448 H 425.854 -1.15406 3.62471 0
M  V30 4449 H 427.166 -1.72086 4.68175 0
M  V30 4450 H 426.32 -4.06953 4.49971 0
M  V30 4451 H 425.059 -3.54657 3.34768 0
M  V30 4452 H 424.064 -2.05075 5.10122 0
M  V30 4453 H 425.289 -2.60219 6.27266 0
M  V30 4454 H 423.235 -4.37094 4.89167 0
M  V30 4455 H 423.152 -3.81034 6.52954 0
M  V30 4456 H 424.42 -4.90289 6.06001 0
M  V30 4457 N 428.649 -1.55105 -0.279332 0
M  V30 4458 C 429.874 -1.7976 -1.03446 0
M  V30 4459 C 430.299 -0.565952 -1.79384 0
M  V30 4460 O 429.657 0.484259 -1.74713 0
M  V30 4461 C 429.705 -3.0179 -1.97371 0
M  V30 4462 O 428.809 -2.76432 -3.06038 0
M  V30 4463 H 428.15 -0.594334 -0.29608 0
M  V30 4464 H 430.68 -2.02235 -0.310165 0
M  V30 4465 H 430.69 -3.30351 -2.39441 0
M  V30 4466 H 429.365 -3.91085 -1.4151 0
M  V30 4467 H 427.942 -2.58949 -2.68328 0
M  V30 4468 N 430.127 0.543554 -1.4793 0
M  V30 4469 C 431.538 1.12561 -1.48953 0
M  V30 4470 C 431.889 1.94578 -0.251754 0
M  V30 4471 O 431.014 2.0665 0.642255 0
M  V30 4472 C 431.609 2.04801 -2.69892 0
M  V30 4473 C 430.168 2.58251 -2.73831 0
M  V30 4474 C 429.315 1.34918 -2.42265 0
M  V30 4475 H 432.266 0.32947 -1.55242 0
M  V30 4476 H 432.287 2.88886 -2.47639 0
M  V30 4477 H 431.799 1.4508 -3.59963 0
M  V30 4478 H 429.9 3.21732 -1.87934 0
M  V30 4479 H 430.013 2.98312 -3.74895 0
M  V30 4480 H 428.377 1.66046 -1.93134 0
M  V30 4481 H 429.16 0.769693 -3.3456 0
M  V30 4482 N 431.605 1.3629 0.791371 0
M  V30 4483 C 432.553 1.30514 1.92533 0
M  V30 4484 C 433.547 0.197285 1.68247 0
M  V30 4485 O 434.753 0.364176 1.76278 0
M  V30 4486 H 431.128 0.406263 0.632815 0
M  V30 4487 H 433.099 2.26282 1.94523 0
M  V30 4488 C 431.848 1.10933 3.29529 0
M  V30 4489 H 431.171 1.95427 3.48781 0
M  V30 4490 H 432.611 1.10937 4.0923 0
M  V30 4491 C 431.07 -0.186123 3.36385 0
M  V30 4492 O 431.6 -1.17664 3.84081 0
M  V30 4493 N 429.806 -0.230128 2.89687 0
M  V30 4494 H 429.353 0.576545 2.51065 0
M  V30 4495 H 429.311 -1.09658 2.94657 0
M  V30 4496 N 433.083 -1.0153 1.20538 0
M  V30 4497 C 434.332 -1.74558 1.01057 0
M  V30 4498 C 434.645 -1.90168 -0.457756 0
M  V30 4499 O 435.851 -2.60301 -0.771722 0
M  V30 4500 C 434.307 -3.13963 1.75941 0
M  V30 4501 C 433.915 -3.06361 3.26875 0
M  V30 4502 C 435.659 -3.91191 1.64832 0
M  V30 4503 C 433.566 -4.40782 3.94291 0
M  V30 4504 H 432.496 -0.654417 0.374505 0
M  V30 4505 H 435.147 -1.13521 1.44171 0
M  V30 4506 H 433.529 -3.75549 1.25614 0
M  V30 4507 H 434.703 -2.54074 3.84425 0
M  V30 4508 H 433.018 -2.42625 3.38411 0
M  V30 4509 H 435.615 -4.90644 2.12539 0
M  V30 4510 H 435.958 -4.11884 0.604745 0
M  V30 4511 H 436.491 -3.36236 2.12579 0
M  V30 4512 H 433.23 -4.25292 4.98805 0
M  V30 4513 H 432.75 -4.9307 3.41529 0
M  V30 4514 H 434.429 -5.09621 3.98617 0
M  V30 4515 N 434.561 -1.01147 -1.20859 0
M  V30 4516 C 435.81 -0.693214 -1.89413 0
M  V30 4517 C 436.123 0.779969 -1.79376 0
M  V30 4518 O 437.329 1.21057 -2.43017 0
M  V30 4519 C 435.785 -1.18949 -3.39675 0
M  V30 4520 C 435.393 -2.68921 -3.58309 0
M  V30 4521 C 437.137 -0.94642 -4.13815 0
M  V30 4522 C 435.044 -3.12056 -5.0237 0
M  V30 4523 H 433.974 -0.255595 -0.709357 0
M  V30 4524 H 436.625 -1.22349 -1.36759 0
M  V30 4525 H 435.007 -0.587228 -3.91622 0
M  V30 4526 H 436.181 -3.34652 -3.16772 0
M  V30 4527 H 434.496 -2.91314 -2.97532 0
M  V30 4528 H 437.093 -1.24417 -5.20023 0
M  V30 4529 H 437.436 0.117219 -4.16135 0
M  V30 4530 H 437.969 -1.5118 -3.67953 0
M  V30 4531 H 434.708 -4.17674 -5.05202 0
M  V30 4532 H 434.228 -2.51041 -5.44737 0
M  V30 4533 H 435.907 -3.04403 -5.70918 0
M  V30 4534 N 436.039 1.36541 -0.78704 0
M  V30 4535 C 437.286 1.99304 -0.358341 0
M  V30 4536 C 437.614 1.62467 1.06933 0
M  V30 4537 O 436.869 0.870019 1.75297 0
M  V30 4538 C 437.168 3.54343 -0.466485 0
M  V30 4539 C 436.834 4.10993 -1.85461 0
M  V30 4540 C 435.496 4.26177 -2.23443 0
M  V30 4541 C 437.848 4.41895 -2.76366 0
M  V30 4542 C 435.176 4.69573 -3.51736 0
M  V30 4543 C 437.528 4.86722 -4.04084 0
M  V30 4544 C 436.192 5.00112 -4.42091 0
M  V30 4545 H 435.462 0.729306 -0.131126 0
M  V30 4546 H 438.109 1.63068 -1.00404 0
M  V30 4547 H 436.414 3.90918 0.262719 0
M  V30 4548 H 438.111 4.00833 -0.115854 0
M  V30 4549 H 434.701 3.99612 -1.54946 0
M  V30 4550 H 438.885 4.29735 -2.48277 0
M  V30 4551 H 434.141 4.78127 -3.81057 0
M  V30 4552 H 438.315 5.09598 -4.7464 0
M  V30 4553 H 435.942 5.33498 -5.41557 0
M  V30 4554 N 437.518 0.538854 1.48102 0
M  V30 4555 C 438.481 -0.208395 2.28251 0
M  V30 4556 C 439.481 -0.859656 1.35892 0
M  V30 4557 O 440.671 -0.71834 1.58699 0
M  V30 4558 C 437.803 -1.30252 3.15035 0
M  V30 4559 H 438.996 0.495407 2.9578 0
M  V30 4560 H 436.549 0.295112 1.53489 0
M  V30 4561 H 437.284 -2.0393 2.52157 0
M  V30 4562 H 437.069 -0.840551 3.82985 0
M  V30 4563 H 438.559 -1.82787 3.75471 0
M  V30 4564 N 438.996 -1.55193 0.274407 0
M  V30 4565 C 440.273 -1.91584 -0.394331 0
M  V30 4566 C 440.653 -1.19858 -1.73774 0
M  V30 4567 O 440.001 -0.3252 -2.26174 0
M  V30 4568 C 440.211 -3.4487 -0.535311 0
M  V30 4569 C 441.559 -4.16636 -0.818534 0
M  V30 4570 O 442.583 -3.5076 -0.620146 0
M  V30 4571 O 441.442 -5.33209 -1.19792 0
M  V30 4572 H 438.536 -0.798349 -0.215794 0
M  V30 4573 H 441.082 -1.66646 0.320507 0
M  V30 4574 H 439.854 -3.89145 0.410141 0
M  V30 4575 H 439.477 -3.75759 -1.29964 0
M  V30 4576 N 440.474 -0.00167713 -1.576 0
M  V30 4577 C 441.437 0.974046 -2.07473 0
M  V30 4578 C 442.437 1.27143 -0.984444 0
M  V30 4579 O 443.627 1.21633 -1.24703 0
M  V30 4580 C 440.759 2.29849 -2.51759 0
M  V30 4581 H 441.952 0.54262 -2.9495 0
M  V30 4582 H 439.505 0.245829 -1.54355 0
M  V30 4583 H 440.24 2.77677 -1.67529 0
M  V30 4584 H 440.025 2.09584 -3.31386 0
M  V30 4585 H 441.515 2.9984 -2.90664 0
M  V30 4586 N 441.952 1.55251 0.271103 0
M  V30 4587 C 443.229 1.66664 1.02384 0
M  V30 4588 C 443.609 0.534363 2.04225 0
M  V30 4589 O 442.957 -0.465337 2.23712 0
M  V30 4590 C 443.167 3.05961 1.67895 0
M  V30 4591 C 444.515 3.63772 2.18986 0
M  V30 4592 O 445.539 3.08606 1.77878 0
M  V30 4593 O 444.398 4.60429 2.94393 0
M  V30 4594 H 441.492 0.676957 0.475035 0
M  V30 4595 H 444.038 1.67589 0.26681 0
M  V30 4596 H 442.81 3.79815 0.941071 0
M  V30 4597 H 442.433 3.08943 2.5028 0
M  V30 4598 N 443.43 -0.535701 1.48216 0
M  V30 4599 C 444.36 -1.65014 1.65204 0
M  V30 4600 C 445.341 -1.62554 0.501011 0
M  V30 4601 O 446.526 -1.7984 0.732886 0
M  V30 4602 C 443.656 -3.03616 1.68626 0
M  V30 4603 C 442.61 -3.20932 2.83172 0
M  V30 4604 C 441.936 -4.60537 2.71679 0
M  V30 4605 C 443.236 -3.04249 4.24535 0
M  V30 4606 H 444.93 -1.51053 2.58502 0
M  V30 4607 H 442.476 -0.725262 1.24402 0
M  V30 4608 H 444.429 -3.81446 1.79099 0
M  V30 4609 H 443.153 -3.18587 0.719026 0
M  V30 4610 H 441.812 -2.45517 2.72244 0
M  V30 4611 H 441.46 -4.72336 1.72937 0
M  V30 4612 H 441.16 -4.73069 3.48538 0
M  V30 4613 H 442.684 -5.40475 2.84112 0
M  V30 4614 H 444.098 -3.71877 4.36326 0
M  V30 4615 H 442.495 -3.28278 5.02348 0
M  V30 4616 H 443.565 -2.00739 4.41397 0
M  V30 4617 N 444.908 -1.36708 -0.784132 0
M  V30 4618 C 446.185 -1.21776 -1.53069 0
M  V30 4619 C 446.565 0.193876 -2.10208 0
M  V30 4620 O 445.913 1.20012 -1.94446 0
M  V30 4621 C 446.123 -2.30395 -2.62143 0
M  V30 4622 C 447.471 -2.67325 -3.29882 0
M  V30 4623 O 448.495 -2.29478 -2.7243 0
M  V30 4624 O 447.354 -3.32485 -4.33724 0
M  V30 4625 H 444.448 -0.474459 -0.677361 0
M  V30 4626 H 446.994 -1.48454 -0.82216 0
M  V30 4627 H 445.766 -3.2498 -2.17953 0
M  V30 4628 H 445.389 -2.05112 -3.40609 0
M  V30 4629 N 446.386 1.0089 -1.21074 0
M  V30 4630 C 447.616 1.77933 -1.04993 0
M  V30 4631 C 448.024 1.84847 0.403495 0
M  V30 4632 O 447.367 1.30606 1.29181 0
M  V30 4633 C 447.429 3.23541 -1.56722 0
M  V30 4634 C 447.093 3.40214 -3.05129 0
M  V30 4635 C 448.09 3.2881 -4.02716 0
M  V30 4636 C 445.775 3.65781 -3.44252 0
M  V30 4637 C 447.769 3.42732 -5.37414 0
M  V30 4638 C 445.456 3.79346 -4.79103 0
M  V30 4639 C 446.454 3.67827 -5.75493 0
M  V30 4640 O 446.142 3.80965 -7.07899 0
M  V30 4641 H 445.874 0.566157 -0.369381 0
M  V30 4642 H 448.428 1.27826 -1.60779 0
M  V30 4643 H 446.658 3.74766 -0.953285 0
M  V30 4644 H 448.347 3.82245 -1.36543 0
M  V30 4645 H 449.113 3.08986 -3.73835 0
M  V30 4646 H 444.992 3.73831 -2.69762 0
M  V30 4647 H 448.536 3.33658 -6.12632 0
M  V30 4648 H 444.433 3.98672 -5.07672 0
M  V30 4649 H 445.201 3.97937 -7.15254 0
M  V30 4650 N 447.864 1.01787 1.20321 0
M  V30 4651 C 448.827 0.593972 2.2137 0
M  V30 4652 C 449.827 -0.336553 1.57239 0
M  V30 4653 O 451.017 -0.125069 1.7375 0
M  V30 4654 C 448.149 -0.132433 3.40643 0
M  V30 4655 H 449.342 1.48791 2.60387 0
M  V30 4656 H 446.895 0.807803 1.33807 0
M  V30 4657 H 447.63 -1.04123 3.0713 0
M  V30 4658 H 447.415 0.53605 3.88418 0
M  V30 4659 H 448.905 -0.416314 4.1552 0
M  V30 4660 N 449.342 -1.36122 0.79427 0
M  V30 4661 C 450.588 -1.99406 0.369452 0
M  V30 4662 C 450.921 -1.62886 -1.05743 0
M  V30 4663 O 450.196 -0.886053 -1.73145 0
M  V30 4664 C 450.479 -3.56046 0.538833 0
M  V30 4665 C 450.332 -4.02404 2.00976 0
M  V30 4666 C 451.651 -4.40079 -0.0431359 0
M  V30 4667 H 448.77 -0.724397 0.135712 0
M  V30 4668 H 451.412 -1.61461 1.00151 0
M  V30 4669 H 449.562 -3.885 0.000771004 0
M  V30 4670 H 451.234 -3.80415 2.60926 0
M  V30 4671 H 449.477 -3.53765 2.51063 0
M  V30 4672 H 450.148 -5.11344 2.07922 0
M  V30 4673 H 452.624 -4.14013 0.416228 0
M  V30 4674 H 451.5 -5.48799 0.105374 0
M  V30 4675 H 451.761 -4.27264 -1.13571 0
M  V30 4676 N 450.82 -0.546701 -1.47814 0
M  V30 4677 C 451.73 0.21026 -2.33656 0
M  V30 4678 C 452.746 0.922413 -1.47538 0
M  V30 4679 O 453.922 0.893652 -1.80488 0
M  V30 4680 C 450.987 1.23348 -3.24016 0
M  V30 4681 C 450.048 0.529883 -4.26017 0
M  V30 4682 C 449.281 1.50435 -5.12059 0
M  V30 4683 O 449.504 2.73837 -5.00369 0
M  V30 4684 O 448.438 1.03459 -5.92942 0
M  V30 4685 H 452.264 -0.493605 -2.99662 0
M  V30 4686 H 449.849 -0.307427 -1.46203 0
M  V30 4687 H 451.731 1.82438 -3.79861 0
M  V30 4688 H 450.406 1.91945 -2.60651 0
M  V30 4689 H 449.313 -0.101948 -3.73961 0
M  V30 4690 H 450.646 -0.11445 -4.92067 0
M  V30 4691 N 452.299 1.55045 -0.282633 0
M  V30 4692 C 453.231 2.2023 0.634924 0
M  V30 4693 C 454.244 1.18931 1.11172 0
M  V30 4694 O 455.433 1.4562 1.03233 0
M  V30 4695 C 452.533 2.82041 1.87899 0
M  V30 4696 C 451.706 4.091 1.54776 0
M  V30 4697 C 450.765 4.54887 2.64507 0
M  V30 4698 O 449.791 5.20496 2.30375 0
M  V30 4699 N 450.993 4.25659 3.94709 0
M  V30 4700 H 453.758 2.99601 0.0769811 0
M  V30 4701 H 451.319 1.61565 -0.104048 0
M  V30 4702 H 453.311 3.09613 2.60619 0
M  V30 4703 H 451.881 2.06618 2.3458 0
M  V30 4704 H 451.101 3.88736 0.654049 0
M  V30 4705 H 452.389 4.9187 1.30158 0
M  V30 4706 H 451.787 3.7306 4.25256 0
M  V30 4707 H 450.344 4.57984 4.63782 0
M  V30 4708 N 453.777 0.010035 1.57597 0
M  V30 4709 C 454.74 -0.963029 2.07986 0
M  V30 4710 C 455.74 -1.26619 0.991173 0
M  V30 4711 O 456.93 -1.2097 1.25347 0
M  V30 4712 C 454.062 -2.2851 2.52974 0
M  V30 4713 H 455.255 -0.526971 2.95234 0
M  V30 4714 H 452.808 -0.237639 1.54483 0
M  V30 4715 H 453.543 -2.76784 1.69 0
M  V30 4716 H 453.328 -2.07824 3.32493 0
M  V30 4717 H 454.818 -2.98294 2.9225 0
M  V30 4718 N 455.255 -1.55392 -0.262866 0
M  V30 4719 C 456.205 -1.85355 -1.32768 0
M  V30 4720 C 457.189 -0.713188 -1.44231 0
M  V30 4721 O 458.381 -0.974765 -1.47741 0
M  V30 4722 C 455.51 -2.13781 -2.68612 0
M  V30 4723 C 454.596 -3.34104 -2.61219 0
M  V30 4724 N 454.987 -4.53766 -2.2345 0
M  V30 4725 C 453.285 -3.36895 -2.92263 0
M  V30 4726 C 453.986 -5.35877 -2.26298 0
M  V30 4727 N 452.962 -4.74536 -2.65172 0
M  V30 4728 H 456.764 -2.75413 -1.02591 0
M  V30 4729 H 454.278 -1.55405 -0.471503 0
M  V30 4730 H 456.275 -2.33407 -3.45437 0
M  V30 4731 H 454.935 -1.25013 -2.99669 0
M  V30 4732 H 455.946 -4.79682 -1.95258 0
M  V30 4733 H 452.623 -2.58351 -3.27965 0
M  V30 4734 H 454.013 -6.41577 -1.99572 0
M  V30 4735 N 456.733 0.527833 -1.48498 0
M  V30 4736 C 457.665 1.6482 -1.5927 0
M  V30 4737 C 458.678 1.55659 -0.476869 0
M  V30 4738 O 459.867 1.62081 -0.747806 0
M  V30 4739 C 456.967 3.0348 -1.50842 0
M  V30 4740 C 456.14 3.381 -2.77502 0
M  V30 4741 C 455.199 4.5605 -2.62497 0
M  V30 4742 O 454.225 4.59165 -3.36387 0
M  V30 4743 N 455.427 5.54353 -1.72257 0
M  V30 4744 H 458.192 1.56015 -2.55889 0
M  V30 4745 H 455.753 0.715152 -1.45249 0
M  V30 4746 H 457.745 3.80264 -1.38496 0
M  V30 4747 H 456.315 3.06352 -0.621887 0
M  V30 4748 H 455.535 2.50473 -3.04396 0
M  V30 4749 H 456.823 3.58017 -3.61527 0
M  V30 4750 H 456.221 5.54617 -1.11431 0
M  V30 4751 H 454.778 6.30347 -1.65849 0
M  V30 4752 N 458.211 1.37122 0.776871 0
M  V30 4753 C 459.459 1.31787 1.53221 0
M  V30 4754 C 459.78 -0.0987589 1.9475 0
M  V30 4755 O 459.05 -1.0417 1.65908 0
M  V30 4756 H 457.63 0.484839 0.568278 0
M  V30 4757 H 460.292 1.71556 0.924917 0
M  V30 4758 H 459.388 1.95355 2.43398 0
M  V30 4759 N 459.689 -1.00246 1.21608 0
M  V30 4760 C 460.935 -1.74319 1.03638 0
M  V30 4761 C 461.268 -1.89408 -0.428749 0
M  V30 4762 O 460.543 -1.43026 -1.3181 0
M  V30 4763 C 460.826 -3.15431 1.73711 0
M  V30 4764 C 460.679 -3.08049 3.27759 0
M  V30 4765 C 461.998 -4.14407 1.48173 0
M  V30 4766 H 459.117 -0.632741 0.377899 0
M  V30 4767 H 461.759 -1.16853 1.49818 0
M  V30 4768 H 459.909 -3.64493 1.34452 0
M  V30 4769 H 461.581 -2.66681 3.76403 0
M  V30 4770 H 459.824 -2.45088 3.57931 0
M  V30 4771 H 460.495 -4.07862 3.71958 0
M  V30 4772 H 462.971 -3.74061 1.82258 0
M  V30 4773 H 461.847 -5.11279 1.99713 0
M  V30 4774 H 462.108 -4.40174 0.412273 0
M  V30 4775 N 461.167 -1.02423 -1.1978 0
M  V30 4776 C 462.414 -0.717988 -1.89344 0
M  V30 4777 C 462.742 0.753036 -1.79331 0
M  V30 4778 O 461.997 1.56355 -1.17692 0
M  V30 4779 C 462.296 -1.1088 -3.39765 0
M  V30 4780 C 461.962 -2.57731 -3.6998 0
M  V30 4781 C 460.624 -2.97854 -3.77937 0
M  V30 4782 C 462.976 -3.52763 -3.83677 0
M  V30 4783 C 460.304 -4.31931 -3.97054 0
M  V30 4784 C 462.656 -4.86538 -4.04306 0
M  V30 4785 C 461.32 -5.26356 -4.10494 0
M  V30 4786 H 460.59 -0.26273 -0.692859 0
M  V30 4787 H 463.237 -1.28623 -1.41875 0
M  V30 4788 H 461.542 -0.459094 -3.89101 0
M  V30 4789 H 463.239 -0.849432 -3.919 0
M  V30 4790 H 459.829 -2.25646 -3.64393 0
M  V30 4791 H 464.013 -3.2292 -3.76877 0
M  V30 4792 H 459.269 -4.62324 -4.00083 0
M  V30 4793 H 463.443 -5.60093 -4.13846 0
M  V30 4794 H 461.07 -6.3026 -4.2506 0
M  V30 4795 N 462.645 1.35699 -0.801477 0
M  V30 4796 C 463.892 1.98913 -0.379459 0
M  V30 4797 C 464.22 1.63592 1.05204 0
M  V30 4798 O 463.475 0.888563 1.74365 0
M  V30 4799 C 463.774 3.53828 -0.504041 0
M  V30 4800 C 463.44 4.09002 -1.8981 0
M  V30 4801 C 462.102 4.23783 -2.27951 0
M  V30 4802 C 464.454 4.38939 -2.81038 0
M  V30 4803 C 461.782 4.65816 -3.56696 0
M  V30 4804 C 464.134 4.82409 -4.09224 0
M  V30 4805 C 462.798 4.95395 -4.4737 0
M  V30 4806 H 462.068 0.727874 -0.138854 0
M  V30 4807 H 464.715 1.61994 -1.02128 0
M  V30 4808 H 463.02 3.91175 0.221242 0
M  V30 4809 H 464.717 4.00687 -0.158361 0
M  V30 4810 H 461.307 3.97946 -1.59176 0
M  V30 4811 H 465.491 4.27077 -2.52821 0
M  V30 4812 H 460.747 4.74059 -3.86106 0
M  V30 4813 H 464.921 5.04535 -4.80018 0
M  V30 4814 H 462.548 5.27724 -5.47185 0
M  V30 4815 N 464.123 0.554532 1.47522 0
M  V30 4816 C 465.071 -0.207765 2.3167 0
M  V30 4817 C 466.065 -0.911914 1.4276 0
M  V30 4818 O 467.271 -0.833504 1.59539 0
M  V30 4819 H 463.646 -0.0858726 0.747081 0
M  V30 4820 H 465.617 0.521178 2.93813 0
M  V30 4821 C 464.366 -1.2263 3.25357 0
M  V30 4822 H 463.689 -0.693887 3.93732 0
M  V30 4823 H 465.129 -1.73062 3.87073 0
M  V30 4824 C 463.588 -2.27278 2.4869 0
M  V30 4825 O 464.118 -3.34156 2.22941 0
M  V30 4826 N 462.324 -2.01134 2.09746 0
M  V30 4827 H 461.871 -1.14232 2.30887 0
M  V30 4828 H 461.829 -2.71369 1.58765 0
M  V30 4829 N 465.601 -1.54893 0.290851 0
M  V30 4830 C 466.533 -2.20564 -0.623236 0
M  V30 4831 C 467.546 -1.19519 -1.1054 0
M  V30 4832 O 468.735 -1.46165 -1.02459 0
M  V30 4833 C 465.835 -2.83033 -1.86401 0
M  V30 4834 C 465.008 -4.09916 -1.52604 0
M  V30 4835 C 464.067 -4.56284 -2.62091 0
M  V30 4836 O 463.093 -5.2171 -2.27612 0
M  V30 4837 N 464.295 -4.27746 -3.92446 0
M  V30 4838 H 467.06 -2.99638 -0.0610915 0
M  V30 4839 H 464.621 -1.61508 0.112615 0
M  V30 4840 H 466.613 -3.1099 -2.58973 0
M  V30 4841 H 465.183 -2.0786 -2.33481 0
M  V30 4842 H 464.403 -3.89078 -0.633424 0
M  V30 4843 H 465.691 -4.92554 -1.27547 0
M  V30 4844 H 465.089 -3.7531 -4.23272 0
M  V30 4845 H 463.646 -4.60437 -4.61347 0
M  V30 4846 N 467.08 -0.0183926 -1.57589 0
M  V30 4847 C 468.328 0.661253 -1.90976 0
M  V30 4848 C 468.649 1.73281 -0.894353 0
M  V30 4849 O 467.919 1.9579 0.0656788 0
M  V30 4850 H 466.499 0.247233 -0.704901 0
M  V30 4851 H 469.161 -0.0636639 -1.94796 0
M  V30 4852 H 468.257 1.12083 -2.9128 0
M  V30 4853 N 468.558 1.5553 0.254621 0
M  V30 4854 C 469.49 1.86104 1.33783 0
M  V30 4855 C 470.503 0.746752 1.44663 0
M  V30 4856 O 471.692 1.0248 1.46151 0
M  V30 4857 C 468.792 2.02532 2.71724 0
M  V30 4858 C 467.965 3.33335 2.83208 0
M  V30 4859 C 467.024 3.396 4.01943 0
M  V30 4860 O 466.05 4.12862 3.91834 0
M  V30 4861 N 467.252 2.68332 5.1476 0
M  V30 4862 H 470.017 2.79605 1.07893 0
M  V30 4863 H 467.578 1.55672 0.444732 0
M  V30 4864 H 469.57 2.04074 3.4948 0
M  V30 4865 H 468.14 1.15811 2.90356 0
M  V30 4866 H 467.36 3.44176 1.92189 0
M  V30 4867 H 468.648 4.19565 2.87824 0
M  V30 4868 H 468.046 2.08528 5.25864 0
M  V30 4869 H 466.603 2.75575 5.90679 0
M  V30 4870 N 470.036 -0.519951 1.48776 0
M  V30 4871 C 471.276 -1.2856 1.58908 0
M  V30 4872 C 471.64 -1.90212 0.261418 0
M  V30 4873 O 472.841 -2.67746 0.237791 0
M  V30 4874 C 471.112 -2.33836 2.70288 0
M  V30 4875 S 472.671 -3.19992 3.0025 0
M  V30 4876 H 469.489 -0.43717 0.560717 0
M  V30 4877 H 472.091 -0.591205 1.86346 0
M  V30 4878 H 470.795 -1.87041 3.653 0
M  V30 4879 H 470.326 -3.07969 2.44783 0
M  V30 4880 H 472.341 -4.34122 2.40317 0
M  V30 4881 N 471.514 -1.37532 -0.769588 0
M  V30 4882 C 472.754 -1.34261 -1.54122 0
M  V30 4883 C 473.118 0.0717222 -1.91866 0
M  V30 4884 O 474.319 0.22918 -2.67821 0
M  V30 4885 C 472.59 -2.2574 -2.77086 0
M  V30 4886 S 474.149 -2.40339 -3.67127 0
M  V30 4887 H 470.967 -0.476595 -0.527615 0
M  V30 4888 H 473.569 -1.73303 -0.90479 0
M  V30 4889 H 472.273 -3.27417 -2.4744 0
M  V30 4890 H 471.804 -1.87789 -3.45686 0
M  V30 4891 H 473.819 -1.61558 -4.69163 0
M  V30 4892 N 472.992 0.995999 -1.22138 0
M  V30 4893 C 474.22 1.77066 -1.07029 0
M  V30 4894 C 474.635 1.8495 0.379357 0
M  V30 4895 O 473.992 1.3174 1.26297 0
M  V30 4896 C 474.043 3.20533 -1.67155 0
M  V30 4897 O 473.764 3.13082 -3.06449 0
M  V30 4898 C 475.265 4.14461 -1.5728 0
M  V30 4899 H 472.485 0.556179 -0.375374 0
M  V30 4900 H 475.029 1.25238 -1.61666 0
M  V30 4901 H 473.184 3.6944 -1.16589 0
M  V30 4902 H 473.598 4.03283 -3.35355 0
M  V30 4903 H 475.072 5.1289 -2.04078 0
M  V30 4904 H 475.549 4.36005 -0.528795 0
M  V30 4905 H 476.155 3.71449 -2.07136 0
M  V30 4906 N 474.47 1.03057 1.19235 0
M  V30 4907 C 475.433 0.617418 2.20727 0
M  V30 4908 C 476.433 -0.319856 1.57587 0
M  V30 4909 O 477.623 -0.106633 1.73873 0
M  V30 4910 C 474.755 -0.096296 3.40764 0
M  V30 4911 H 475.948 1.51544 2.58794 0
M  V30 4912 H 473.501 0.821949 1.32942 0
M  V30 4913 H 474.236 -1.00859 3.08217 0
M  V30 4914 H 474.021 0.577217 3.87828 0
M  V30 4915 H 475.511 -0.372219 4.15938 0
M  V30 4916 N 475.948 -1.35272 0.808662 0
M  V30 4917 C 477.196 -1.98316 0.389233 0
M  V30 4918 C 477.517 -1.64465 -1.04767 0
M  V30 4919 O 476.787 -0.928175 -1.72516 0
M  V30 4920 H 475.367 -0.733585 0.140935 0
M  V30 4921 H 478.029 -1.6515 1.03496 0
M  V30 4922 H 477.125 -3.08123 0.496631 0
M  V30 4923 N 477.426 -0.562348 -1.47226 0
M  V30 4924 C 478.651 -0.0432632 -2.07355 0
M  V30 4925 C 479.076 1.24332 -1.41149 0
M  V30 4926 O 478.434 1.74603 -0.488226 0
M  V30 4927 C 478.482 0.130288 -3.60365 0
M  V30 4928 O 477.586 1.19166 -3.94808 0
M  V30 4929 H 476.927 -0.0536334 -0.66183 0
M  V30 4930 H 479.457 -0.779495 -1.89169 0
M  V30 4931 H 479.467 0.342881 -4.06557 0
M  V30 4932 H 478.142 -0.809389 -4.07948 0
M  V30 4933 H 476.719 0.959153 -3.60354 0
M  V30 4934 N 478.904 1.54736 -0.299062 0
M  V30 4935 C 480.32 1.59507 0.0543849 0
M  V30 4936 C 480.52 1.31606 1.52585 0
M  V30 4937 O 479.576 1.08853 2.27832 0
M  V30 4938 C 480.889 2.98751 -0.34181 0
M  V30 4939 C 482.437 3.1165 -0.290414 0
M  V30 4940 C 482.912 4.53199 -0.661402 0
M  V30 4941 N 484.403 4.59114 -0.613863 0
M  V30 4942 C 485.138 5.66709 -0.873417 0
M  V30 4943 N 484.634 6.82349 -1.19884 0
M  V30 4944 N 486.427 5.56369 -0.800608 0
M  V30 4945 H 478.578 1.71133 -1.25806 0
M  V30 4946 H 480.841 0.799186 -0.509908 0
M  V30 4947 H 480.547 3.24085 -1.36608 0
M  V30 4948 H 480.421 3.75961 0.305508 0
M  V30 4949 H 482.808 2.86066 0.724605 0
M  V30 4950 H 482.889 2.366 -0.972327 0
M  V30 4951 H 482.533 4.79513 -1.67422 0
M  V30 4952 H 482.463 5.26583 0.0425612 0
M  V30 4953 H 484.954 3.76053 -0.3732 0
M  V30 4954 H 485.267 7.60326 -1.38291 0
M  V30 4955 H 483.612 6.83906 -1.23685 0
M  V30 4956 H 486.803 4.64904 -0.546045 0
M  V30 4957 H 486.976 6.40139 -1.00626 0
M  V30 4958 N 480.382 0.0267497 1.57577 0
M  V30 4959 C 481.631 -0.651736 1.9088 0
M  V30 4960 C 481.944 -1.73427 0.904576 0
M  V30 4961 O 483.15 -2.46923 1.12877 0
M  V30 4962 C 481.606 -1.21048 3.38933 0
M  V30 4963 C 481.214 -0.161362 4.47709 0
M  V30 4964 C 482.958 -1.86562 3.81307 0
M  V30 4965 C 480.865 -0.731611 5.86857 0
M  V30 4966 H 479.795 -0.247198 0.712326 0
M  V30 4967 H 482.446 0.0916641 1.83271 0
M  V30 4968 H 480.828 -2.00542 3.41466 0
M  V30 4969 H 482.002 0.61094 4.56732 0
M  V30 4970 H 480.317 0.394877 4.14523 0
M  V30 4971 H 482.914 -2.30178 4.8262 0
M  V30 4972 H 483.257 -2.70735 3.16241 0
M  V30 4973 H 483.79 -1.13762 3.81186 0
M  V30 4974 H 480.529 0.0719329 6.55461 0
M  V30 4975 H 480.049 -1.47245 5.81445 0
M  V30 4976 H 481.728 -1.22208 6.35354 0
M  V30 4977 N 481.861 -1.55662 -0.24637 0
M  V30 4978 C 483.108 -1.77519 -0.974335 0
M  V30 4979 C 483.436 -0.591165 -1.85298 0
M  V30 4980 O 482.691 0.425497 -1.91018 0
M  V30 4981 C 482.99 -3.04885 -1.86494 0
M  V30 4982 C 482.656 -4.36209 -1.14161 0
M  V30 4983 C 481.318 -4.71896 -0.941701 0
M  V30 4984 C 483.67 -5.17391 -0.628957 0
M  V30 4985 C 480.998 -5.86299 -0.216852 0
M  V30 4986 C 483.35 -6.32546 0.0824273 0
M  V30 4987 C 482.014 -6.66853 0.293807 0
M  V30 4988 H 481.284 -0.649588 -0.356535 0
M  V30 4989 H 483.931 -1.89934 -0.244394 0
M  V30 4990 H 482.236 -2.87484 -2.66196 0
M  V30 4991 H 483.933 -3.18994 -2.42989 0
M  V30 4992 H 480.523 -4.08174 -1.30736 0
M  V30 4993 H 484.707 -4.90276 -0.770943 0
M  V30 4994 H 479.963 -6.11385 -0.0426124 0
M  V30 4995 H 484.137 -6.94693 0.487292 0
M  V30 4996 H 481.764 -7.55349 0.857428 0
M  V30 4997 N 483.339 0.512053 -1.4905 0
M  V30 4998 C 484.585 1.26874 -1.58212 0
M  V30 4999 C 484.918 1.9241 -0.263073 0
M  V30 5000 O 484.193 1.80181 0.732476 0
M  V30 5001 C 484.476 2.34428 -2.73341 0
M  V30 5002 C 484.329 1.73466 -4.15006 0
M  V30 5003 C 485.648 3.36073 -2.84154 0
M  V30 5004 H 482.767 0.459924 -0.575881 0
M  V30 5005 H 485.409 0.568587 -1.81293 0
M  V30 5006 H 483.559 2.94146 -2.53792 0
M  V30 5007 H 485.231 1.17661 -4.46042 0
M  V30 5008 H 483.474 1.03921 -4.21168 0
M  V30 5009 H 484.145 2.51426 -4.91415 0
M  V30 5010 H 486.621 2.86332 -3.01916 0
M  V30 5011 H 485.497 4.08703 -3.66406 0
M  V30 5012 H 485.758 3.97725 -1.93048 0
M  V30 5013 N 484.817 1.37938 0.762283 0
M  V30 5014 C 485.727 1.36681 1.90671 0
M  V30 5015 C 486.743 0.265078 1.71969 0
M  V30 5016 O 487.919 0.502055 1.95042 0
M  V30 5017 C 484.984 1.18211 3.25925 0
M  V30 5018 C 484.045 2.3811 3.57214 0
M  V30 5019 C 483.278 2.20512 4.86014 0
M  V30 5020 O 483.501 1.19429 5.57757 0
M  V30 5021 O 482.435 3.08911 5.16583 0
M  V30 5022 H 486.261 2.33091 1.94685 0
M  V30 5023 H 483.846 1.18767 0.906356 0
M  V30 5024 H 485.728 1.09937 4.06807 0
M  V30 5025 H 484.403 0.248807 3.22742 0
M  V30 5026 H 483.31 2.51958 2.76529 0
M  V30 5027 H 484.643 3.30041 3.65149 0
M  V30 5028 N 486.295 -0.989507 1.22664 0
M  V30 5029 C 487.205 -2.11449 1.01619 0
M  V30 5030 C 488.221 -1.73962 -0.036545 0
M  V30 5031 O 489.397 -2.00788 0.156924 0
M  V30 5032 C 486.462 -3.41465 0.600204 0
M  V30 5033 C 485.523 -3.93033 1.72695 0
M  V30 5034 C 484.756 -5.16844 1.33071 0
M  V30 5035 O 484.979 -5.7001 0.210975 0
M  V30 5036 O 483.913 -5.6225 2.14845 0
M  V30 5037 H 487.739 -2.32088 1.9588 0
M  V30 5038 H 485.324 -1.09823 1.01289 0
M  V30 5039 H 487.206 -4.19695 0.37873 0
M  V30 5040 H 485.881 -3.22178 -0.313511 0
M  V30 5041 H 484.788 -3.15961 2.00298 0
M  V30 5042 H 486.121 -4.16758 2.61865 0
M  V30 5043 N 487.773 -1.03688 -1.18687 0
M  V30 5044 C 488.998 -0.757819 -1.93059 0
M  V30 5045 C 489.423 0.678353 -1.75442 0
M  V30 5046 O 488.781 1.46938 -1.06203 0
M  V30 5047 C 488.829 -1.12423 -3.42627 0
M  V30 5048 O 487.933 -0.247505 -4.11657 0
M  V30 5049 H 487.274 -0.279245 -0.602427 0
M  V30 5050 H 489.804 -1.3857 -1.5053 0
M  V30 5051 H 489.814 -1.08454 -3.93322 0
M  V30 5052 H 488.489 -2.17049 -3.54771 0
M  V30 5053 H 487.066 -0.34649 -3.71287 0
M  V30 5054 N 489.251 1.34841 -0.815825 0
M  V30 5055 C 490.5 1.97755 -0.396976 0
M  V30 5056 C 490.813 1.65422 1.04379 0
M  V30 5057 O 492.019 2.21771 1.5662 0
M  V30 5058 C 490.475 3.53818 -0.658869 0
M  V30 5059 C 490.083 3.95051 -2.11278 0
M  V30 5060 C 491.827 4.23397 -0.305834 0
M  V30 5061 C 489.734 5.43997 -2.31994 0
M  V30 5062 H 488.664 0.739985 -0.1447 0
M  V30 5063 H 491.315 1.53781 -1.00118 0
M  V30 5064 H 489.697 3.95997 0.0154112 0
M  V30 5065 H 490.871 3.63998 -2.82564 0
M  V30 5066 H 489.186 3.38388 -2.42657 0
M  V30 5067 H 491.783 5.32899 -0.43854 0
M  V30 5068 H 492.126 4.09508 0.748952 0
M  V30 5069 H 492.659 3.8667 -0.934403 0
M  V30 5070 H 489.398 5.62865 -3.35952 0
M  V30 5071 H 488.918 5.76589 -1.65244 0
M  V30 5072 H 490.597 6.10584 -2.14001 0
M  V30 5073 N 490.729 0.570148 1.46925 0
M  V30 5074 C 491.959 0.0561151 2.06524 0
M  V30 5075 C 492.367 -1.24874 1.42137 0
M  V30 5076 O 491.71 -1.76292 0.516417 0
M  V30 5077 C 491.772 -0.197035 3.5896 0
M  V30 5078 C 491.436 1.02033 4.45464 0
M  V30 5079 C 492.433 1.92921 4.82781 0
M  V30 5080 C 490.118 1.23864 4.86788 0
M  V30 5081 C 492.112 3.03999 5.60235 0
M  V30 5082 C 489.799 2.35249 5.64004 0
M  V30 5083 C 490.797 3.25146 6.0064 0
M  V30 5084 O 490.485 4.34598 6.76299 0
M  V30 5085 H 490.217 0.0487409 0.674241 0
M  V30 5086 H 492.771 0.786915 1.89728 0
M  V30 5087 H 491.001 -0.982299 3.74016 0
M  V30 5088 H 492.69 -0.658032 4.00531 0
M  V30 5089 H 493.456 1.77265 4.51444 0
M  V30 5090 H 489.335 0.54805 4.57731 0
M  V30 5091 H 492.879 3.74192 5.8875 0
M  V30 5092 H 488.776 2.50873 5.94755 0
M  V30 5093 H 489.544 4.32808 6.94708 0
M  V30 5094 N 492.207 -1.54576 0.307264 0
M  V30 5095 C 493.117 -2.27435 -0.57536 0
M  V30 5096 C 494.133 -1.31183 -1.14311 0
M  V30 5097 O 495.309 -1.64175 -1.16656 0
M  V30 5098 C 492.374 -3.00566 -1.72803 0
M  V30 5099 C 491.435 -4.12369 -1.19373 0
M  V30 5100 C 490.668 -4.82003 -2.29147 0
M  V30 5101 O 490.891 -4.51038 -3.49171 0
M  V30 5102 O 489.825 -5.69271 -1.95485 0
M  V30 5103 H 493.651 -3.03696 0.0158558 0
M  V30 5104 H 491.236 -1.49219 0.0735064 0
M  V30 5105 H 493.118 -3.46416 -2.39946 0
M  V30 5106 H 491.793 -2.27195 -2.30574 0
M  V30 5107 H 490.7 -3.70905 -0.487851 0
M  V30 5108 H 492.033 -4.87736 -0.661376 0
M  V30 5109 N 493.685 -0.035106 -1.57561 0
M  V30 5110 C 494.595 0.960295 -2.14046 0
M  V30 5111 C 495.611 1.3529 -1.0942 0
M  V30 5112 O 496.787 1.43309 -1.41508 0
M  V30 5113 C 493.852 2.22214 -2.66124 0
M  V30 5114 C 492.913 1.8894 -3.85487 0
M  V30 5115 C 492.146 3.09109 -4.35072 0
M  V30 5116 O 492.369 4.21963 -3.83802 0
M  V30 5117 O 491.303 2.91058 -5.26848 0
M  V30 5118 H 495.129 0.509983 -2.99387 0
M  V30 5119 H 492.714 0.185853 -1.48239 0
M  V30 5120 H 494.596 2.96279 -2.99661 0
M  V30 5121 H 493.271 2.66414 -1.83862 0
M  V30 5122 H 492.178 1.12241 -3.56865 0
M  V30 5123 H 493.511 1.49551 -4.6893 0
M  V30 5124 N 495.163 1.55791 0.238111 0
M  V30 5125 C 496.41 1.78033 0.964907 0
M  V30 5126 C 496.738 0.600984 1.84982 0
M  V30 5127 O 495.993 -0.41536 1.91241 0
M  V30 5128 C 496.292 3.05869 1.84875 0
M  V30 5129 C 495.958 4.36808 1.11846 0
M  V30 5130 C 494.62 4.72388 0.916662 0
M  V30 5131 C 496.972 5.17717 0.60151 0
M  V30 5132 C 494.3 5.86406 0.185756 0
M  V30 5133 C 496.652 6.32494 -0.115972 0
M  V30 5134 C 495.316 6.66688 -0.329168 0
M  V30 5135 H 494.586 0.651469 0.353085 0
M  V30 5136 H 497.233 1.90061 0.234318 0
M  V30 5137 H 495.538 2.88891 2.64668 0
M  V30 5138 H 497.235 3.20278 2.41294 0
M  V30 5139 H 493.825 4.08862 1.28569 0
M  V30 5140 H 498.009 4.90678 0.744932 0
M  V30 5141 H 493.265 6.11399 0.0101886 0
M  V30 5142 H 497.439 6.94425 -0.524127 0
M  V30 5143 H 495.066 7.54884 -0.897474 0
M  V30 5144 N 496.642 -0.504142 1.49319 0
M  V30 5145 C 497.888 -1.26033 1.58882 0
M  V30 5146 C 498.221 -1.92268 0.273274 0
M  V30 5147 O 497.496 -1.80567 -0.72291 0
M  V30 5148 C 497.779 -2.32976 2.7458 0
M  V30 5149 C 497.632 -1.71263 4.1592 0
M  V30 5150 C 498.951 -3.34561 2.85932 0
M  V30 5151 H 496.07 -0.456863 0.578312 0
M  V30 5152 H 498.712 -0.558965 1.81592 0
M  V30 5153 H 496.862 -2.92796 2.55348 0
M  V30 5154 H 498.534 -1.15294 4.4666 0
M  V30 5155 H 496.777 -1.01686 4.21714 0
M  V30 5156 H 497.448 -2.48816 4.92742 0
M  V30 5157 H 499.924 -2.84727 3.0343 0
M  V30 5158 H 498.8 -4.06754 3.68568 0
M  V30 5159 H 499.061 -3.96695 1.95154 0
M  V30 5160 N 498.12 -1.38341 -0.754957 0
M  V30 5161 C 499.536 -1.19508 -1.05783 0
M  V30 5162 C 499.736 -0.0428005 -2.01455 0
M  V30 5163 O 498.792 0.611861 -2.44975 0
M  V30 5164 C 500.105 -2.52091 -1.63923 0
M  V30 5165 C 501.653 -2.58762 -1.76101 0
M  V30 5166 C 502.128 -3.91517 -2.37652 0
M  V30 5167 N 503.619 -3.93049 -2.45085 0
M  V30 5168 C 504.354 -4.9253 -2.93602 0
M  V30 5169 N 503.85 -6.02408 -3.42165 0
M  V30 5170 N 505.643 -4.79921 -2.92629 0
M  V30 5171 H 497.794 -2.1206 -0.120056 0
M  V30 5172 H 500.057 -0.94089 -0.11589 0
M  V30 5173 H 499.763 -3.36858 -1.01093 0
M  V30 5174 H 499.637 -2.70388 -2.63003 0
M  V30 5175 H 502.024 -1.74391 -2.38058 0
M  V30 5176 H 502.105 -2.44333 -0.757294 0
M  V30 5177 H 501.749 -4.76309 -1.76329 0
M  V30 5178 H 501.679 -4.03256 -3.38662 0
M  V30 5179 H 504.17 -3.13685 -2.10736 0
M  V30 5180 H 504.483 -6.74248 -3.77637 0
M  V30 5181 H 502.828 -6.0603 -3.40225 0
M  V30 5182 H 506.019 -3.93194 -2.54001 0
M  V30 5183 H 506.192 -5.57601 -3.30128 0
M  V30 5184 N 499.598 0.982988 -1.23187 0
M  V30 5185 C 501.014 1.2487 -0.993967 0
M  V30 5186 C 501.214 1.99155 0.306498 0
M  V30 5187 O 500.27 2.30688 1.0266 0
M  V30 5188 C 501.583 2.05078 -2.19917 0
M  V30 5189 C 503.131 2.18227 -2.2438 0
M  V30 5190 C 503.606 3.01825 -3.44479 0
M  V30 5191 N 505.097 3.09411 -3.44702 0
M  V30 5192 C 505.832 3.74412 -4.34285 0
M  V30 5193 N 505.328 4.41259 -5.341 0
M  V30 5194 N 507.121 3.71273 -4.22035 0
M  V30 5195 H 499.272 0.485253 -2.06783 0
M  V30 5196 H 501.535 0.276979 -0.906635 0
M  V30 5197 H 501.241 1.57867 -3.14279 0
M  V30 5198 H 501.115 3.05829 -2.2079 0
M  V30 5199 H 503.502 2.64648 -1.30559 0
M  V30 5200 H 503.583 1.16873 -2.2754 0
M  V30 5201 H 503.227 2.56102 -4.38605 0
M  V30 5202 H 503.157 4.03342 -3.38559 0
M  V30 5203 H 505.648 2.61845 -2.7248 0
M  V30 5204 H 505.961 4.88629 -5.98717 0
M  V30 5205 H 504.306 4.39975 -5.38002 0
M  V30 5206 H 507.497 3.18217 -3.43301 0
M  V30 5207 H 507.67 4.21649 -4.92053 0
M  V30 5208 N 501.076 1.04316 1.18135 0
M  V30 5209 C 502.301 0.768047 1.92655 0
M  V30 5210 C 502.726 -0.66904 1.758 0
M  V30 5211 O 502.084 -1.46372 1.06981 0
M  V30 5212 C 502.132 1.14239 3.42026 0
M  V30 5213 O 501.236 0.269333 4.1152 0
M  V30 5214 H 500.577 0.282436 0.600937 0
M  V30 5215 H 503.107 1.39367 1.49793 0
M  V30 5216 H 503.117 1.10538 3.92741 0
M  V30 5217 H 501.792 2.18928 3.53615 0
M  V30 5218 H 500.369 0.366175 3.71098 0
M  V30 5219 N 502.554 -1.34406 0.822964 0
M  V30 5220 C 503.8 -1.98578 0.411666 0
M  V30 5221 C 504.133 -1.65093 -1.02264 0
M  V30 5222 O 503.408 -0.92258 -1.71227 0
M  V30 5223 C 503.691 -3.54823 0.614235 0
M  V30 5224 C 503.544 -3.9805 2.09466 0
M  V30 5225 C 504.863 -4.40071 0.050221 0
M  V30 5226 H 501.982 -0.721355 0.151047 0
M  V30 5227 H 504.624 -1.59301 1.03554 0
M  V30 5228 H 502.774 -3.88411 0.0831774 0
M  V30 5229 H 504.446 -3.74795 2.68936 0
M  V30 5230 H 502.689 -3.4836 2.5851 0
M  V30 5231 H 503.36 -5.06819 2.18721 0
M  V30 5232 H 505.836 -4.13037 0.503953 0
M  V30 5233 H 504.712 -5.48452 0.221759 0
M  V30 5234 H 504.973 -4.29576 -1.04482 0
M  V30 5235 N 504.032 -0.577932 -1.46621 0
M  V30 5236 C 504.942 0.160651 -2.34049 0
M  V30 5237 C 505.958 0.890911 -1.49462 0
M  V30 5238 O 507.134 0.855166 -1.82343 0
M  V30 5239 C 504.199 1.16447 -3.26559 0
M  V30 5240 C 503.26 0.4394 -4.27045 0
M  V30 5241 C 502.493 1.3954 -5.15135 0
M  V30 5242 O 502.716 2.63162 -5.06065 0
M  V30 5243 O 501.65 0.908585 -5.95003 0
M  V30 5244 H 505.476 -0.557057 -2.98547 0
M  V30 5245 H 503.061 -0.338369 -1.45518 0
M  V30 5246 H 504.943 1.7434 -3.83645 0
M  V30 5247 H 503.618 1.86373 -2.64663 0
M  V30 5248 H 502.525 -0.181247 -3.73661 0
M  V30 5249 H 503.858 -0.218799 -4.91713 0
M  V30 5250 N 505.51 1.54411 -0.315457 0
M  V30 5251 C 506.926 1.59556 0.037464 0
M  V30 5252 C 507.126 1.33217 1.5118 0
M  V30 5253 O 506.182 1.11264 2.26664 0
M  V30 5254 C 507.495 2.98372 -0.373477 0
M  V30 5255 C 509.043 3.11324 -0.323452 0
M  V30 5256 C 509.518 4.52472 -0.709433 0
M  V30 5257 N 511.009 4.58437 -0.662524 0
M  V30 5258 C 511.744 5.65751 -0.933474 0
M  V30 5259 N 511.24 6.81039 -1.27114 0
M  V30 5260 N 513.033 5.55489 -0.859573 0
M  V30 5261 H 505.184 1.6979 -1.27614 0
M  V30 5262 H 507.447 0.793732 -0.518356 0
M  V30 5263 H 507.153 3.22618 -1.40037 0
M  V30 5264 H 507.027 3.76264 0.265615 0
M  V30 5265 H 509.414 2.86818 0.694223 0
M  V30 5266 H 509.495 2.35555 -0.997367 0
M  V30 5267 H 509.139 4.7771 -1.72498 0
M  V30 5268 H 509.069 5.26598 -0.0132923 0
M  V30 5269 H 511.56 3.75636 -0.413065 0
M  V30 5270 H 511.873 7.58816 -1.46348 0
M  V30 5271 H 510.218 6.82555 -1.30932 0
M  V30 5272 H 513.409 4.64299 -0.595324 0
M  V30 5273 H 513.582 6.39036 -1.0741 0
M  V30 5274 N 506.988 0.0434614 1.5754 0
M  V30 5275 C 507.951 -0.918696 2.09982 0
M  V30 5276 C 508.951 -1.24488 1.01781 0
M  V30 5277 O 510.141 -1.18284 1.27885 0
M  V30 5278 C 507.273 -2.23093 2.57764 0
M  V30 5279 H 508.466 -0.464229 2.96285 0
M  V30 5280 H 506.019 -0.204818 1.54952 0
M  V30 5281 H 506.754 -2.73137 1.74832 0
M  V30 5282 H 506.539 -2.00724 3.36827 0
M  V30 5283 H 508.029 -2.92028 2.98512 0
M  V30 5284 N 508.466 -1.55915 -0.229846 0
M  V30 5285 C 509.413 -1.91734 -1.28478 0
M  V30 5286 C 510.383 -0.773539 -1.46988 0
M  V30 5287 O 511.568 -1.02871 -1.60693 0
M  V30 5288 C 508.708 -2.23224 -2.63182 0
M  V30 5289 C 507.821 -3.50497 -2.52539 0
M  V30 5290 C 506.956 -3.71474 -3.79711 0
M  V30 5291 C 505.995 -4.92289 -3.63755 0
M  V30 5292 N 505.132 -5.09698 -4.82858 0
M  V30 5293 H 509.972 -2.81692 -0.972308 0
M  V30 5294 H 507.509 -1.39429 -0.468815 0
M  V30 5295 H 509.467 -2.3949 -3.41614 0
M  V30 5296 H 508.097 -1.36451 -2.92542 0
M  V30 5297 H 507.149 -3.4247 -1.65585 0
M  V30 5298 H 508.461 -4.39079 -2.36666 0
M  V30 5299 H 507.615 -3.87791 -4.66586 0
M  V30 5300 H 506.354 -2.81157 -3.985 0
M  V30 5301 H 505.359 -4.7593 -2.75264 0
M  V30 5302 H 506.584 -5.84083 -3.46445 0
M  V30 5303 H 504.53 -4.22322 -5.01976 0
M  V30 5304 H 504.447 -5.92399 -4.69681 0
M  V30 5305 H 505.715 -5.30443 -5.71183 0
M  V30 5306 N 509.944 0.496216 -1.49584 0
M  V30 5307 C 511.36 0.827814 -1.36453 0
M  V30 5308 C 511.56 1.97464 -0.401285 0
M  V30 5309 O 510.616 2.51958 0.165296 0
M  V30 5310 C 511.929 1.16352 -2.77277 0
M  V30 5311 C 513.477 1.27145 -2.86013 0
M  V30 5312 C 513.952 1.64042 -4.27615 0
M  V30 5313 N 515.443 1.71082 -4.30448 0
M  V30 5314 C 516.178 2.01085 -5.36984 0
M  V30 5315 N 515.674 2.2928 -6.5376 0
M  V30 5316 N 517.467 2.02376 -5.24405 0
M  V30 5317 H 509.618 -0.259947 -2.10803 0
M  V30 5318 H 511.881 -0.0537163 -0.946477 0
M  V30 5319 H 511.587 0.394153 -3.49484 0
M  V30 5320 H 511.461 2.10582 -3.12946 0
M  V30 5321 H 513.848 2.03152 -2.1404 0
M  V30 5322 H 513.929 0.309542 -2.5392 0
M  V30 5323 H 513.573 0.88583 -5.00115 0
M  V30 5324 H 513.503 2.6134 -4.57175 0
M  V30 5325 H 515.994 1.51434 -3.46232 0
M  V30 5326 H 516.307 2.51376 -7.30774 0
M  V30 5327 H 514.652 2.26726 -6.56978 0
M  V30 5328 H 517.843 1.79829 -4.32179 0
M  V30 5329 H 518.016 2.25425 -6.07526 0
M  V30 5330 N 511.423 1.38739 0.74761 0
M  V30 5331 C 512.839 1.20067 1.05148 0
M  V30 5332 C 513.039 0.0534835 2.01429 0
M  V30 5333 O 512.095 -0.59886 2.45296 0
M  V30 5334 C 513.408 2.52957 1.62584 0
M  V30 5335 C 514.956 2.59692 1.74726 0
M  V30 5336 C 515.431 3.92772 2.35573 0
M  V30 5337 N 516.922 3.94343 2.42997 0
M  V30 5338 C 517.657 4.9408 2.90985 0
M  V30 5339 N 517.153 6.04214 3.38965 0
M  V30 5340 N 518.946 4.81466 2.9008 0
M  V30 5341 H 511.097 2.12121 0.108808 0
M  V30 5342 H 513.36 0.941491 0.110899 0
M  V30 5343 H 513.066 3.37389 0.993051 0
M  V30 5344 H 512.94 2.71779 2.61565 0
M  V30 5345 H 515.327 1.75651 2.3713 0
M  V30 5346 H 515.408 2.44731 0.744326 0
M  V30 5347 H 515.052 4.77238 1.738 0
M  V30 5348 H 514.982 4.05046 3.36519 0
M  V30 5349 H 517.473 3.14799 2.0907 0
M  V30 5350 H 517.786 6.76241 3.74056 0
M  V30 5351 H 516.131 6.07825 3.37007 0
M  V30 5352 H 519.322 3.94535 2.51912 0
M  V30 5353 H 519.495 5.59344 3.27166 0
M  V30 5354 N 512.901 -0.976442 1.23707 0
M  V30 5355 C 514.147 -1.72081 1.07312 0
M  V30 5356 C 514.48 -1.90275 -0.388476 0
M  V30 5357 O 513.755 -1.4579 -1.28746 0
M  V30 5358 C 514.038 -3.11675 1.80363 0
M  V30 5359 C 513.891 -3.01027 3.3422 0
M  V30 5360 C 515.21 -4.1117 1.5693 0
M  V30 5361 H 512.329 -0.624583 0.391236 0
M  V30 5362 H 514.971 -1.13649 1.52263 0
M  V30 5363 H 513.121 -3.61559 1.42153 0
M  V30 5364 H 514.793 -2.58637 3.81975 0
M  V30 5365 H 513.036 -2.3744 3.63049 0
M  V30 5366 H 513.707 -3.9988 3.80525 0
M  V30 5367 H 516.183 -3.7011 1.90151 0
M  V30 5368 H 515.059 -5.06928 2.10513 0
M  V30 5369 H 515.32 -4.392 0.505548 0
M  V30 5370 N 514.379 -1.04941 -1.1758 0
M  V30 5371 C 515.625 -0.759112 -1.88057 0
M  V30 5372 C 515.958 0.711918 -1.8068 0
M  V30 5373 O 515.233 1.52035 -1.21308 0
M  V30 5374 C 515.516 -1.237 -3.38187 0
M  V30 5375 C 515.369 -2.77078 -3.54327 0
M  V30 5376 C 516.688 -0.834014 -4.32125 0
M  V30 5377 H 513.807 -0.277237 -0.682868 0
M  V30 5378 H 516.449 -1.30296 -1.38286 0
M  V30 5379 H 514.599 -0.774337 -3.80705 0
M  V30 5380 H 516.271 -3.31449 -3.20842 0
M  V30 5381 H 514.514 -3.16477 -2.96689 0
M  V30 5382 H 515.185 -3.05577 -4.59703 0
M  V30 5383 H 517.661 -1.23228 -3.97434 0
M  V30 5384 H 516.537 -1.19603 -5.35711 0
M  V30 5385 H 516.798 0.262195 -4.41322 0
M  V30 5386 N 515.857 1.33968 -0.830081 0
M  V30 5387 C 517.105 1.97672 -0.420734 0
M  V30 5388 C 517.426 1.66111 1.02138 0
M  V30 5389 O 516.696 0.955503 1.71017 0
M  V30 5390 H 515.276 0.73125 -0.152587 0
M  V30 5391 H 517.938 1.63483 -1.0611 0
M  V30 5392 H 517.034 3.07294 -0.545588 0
M  V30 5393 N 517.335 0.585699 1.46312 0
M  V30 5394 C 518.56 0.0762461 2.0726 0
M  V30 5395 C 518.985 -1.22071 1.43109 0
M  V30 5396 O 518.343 -1.73804 0.515942 0
M  V30 5397 C 518.391 -0.0729404 3.60526 0
M  V30 5398 O 517.495 -1.1287 3.96654 0
M  V30 5399 H 516.836 0.0641558 0.660893 0
M  V30 5400 H 519.366 0.809492 1.87905 0
M  V30 5401 H 519.376 -0.278158 4.07051 0
M  V30 5402 H 518.051 0.874188 4.06609 0
M  V30 5403 H 516.628 -0.901703 3.61834 0
M  V30 5404 N 518.813 -1.54241 0.323641 0
M  V30 5405 C 520.224 -1.85975 -0.164405 0
M  V30 5406 C 520.575 -1.24529 -1.51615 0
M  V30 5407 O 519.7 -0.551351 -2.09258 0
M  V30 5408 C 520.295 -3.37424 -0.305091 0
M  V30 5409 C 518.854 -3.69107 -0.737358 0
M  V30 5410 C 518.001 -2.76942 0.140884 0
M  V30 5411 H 520.952 -1.49088 0.543922 0
M  V30 5412 H 520.973 -3.63147 -1.13598 0
M  V30 5413 H 520.485 -3.82116 0.678876 0
M  V30 5414 H 518.586 -3.29947 -1.73107 0
M  V30 5415 H 518.699 -4.76035 -0.541053 0
M  V30 5416 H 517.063 -2.51795 -0.383572 0
M  V30 5417 H 517.846 -3.24461 1.12162 0
M  V30 5418 N 520.291 -0.0518155 -1.57515 0
M  V30 5419 C 521.538 0.621823 -1.92716 0
M  V30 5420 C 521.866 1.70813 -0.930229 0
M  V30 5421 O 521.121 1.95616 0.0573708 0
M  V30 5422 C 521.42 1.25607 -3.34601 0
M  V30 5423 C 521.086 0.297901 -4.49915 0
M  V30 5424 C 519.748 0.034243 -4.81188 0
M  V30 5425 C 522.1 -0.358738 -5.19964 0
M  V30 5426 C 519.428 -0.893479 -5.79857 0
M  V30 5427 C 521.78 -1.27466 -6.19625 0
M  V30 5428 C 520.444 -1.54698 -6.49326 0
M  V30 5429 H 519.714 0.227541 -0.705199 0
M  V30 5430 H 522.361 -0.118432 -1.91133 0
M  V30 5431 H 520.666 2.07161 -3.32553 0
M  V30 5432 H 522.363 1.78424 -3.59118 0
M  V30 5433 H 518.953 0.513581 -4.25512 0
M  V30 5434 H 523.137 -0.168133 -4.96015 0
M  V30 5435 H 518.393 -1.11193 -6.01204 0
M  V30 5436 H 522.567 -1.78953 -6.73015 0
M  V30 5437 H 520.194 -2.26748 -7.25596 0
M  V30 5438 N 521.769 1.56035 0.221574 0
M  V30 5439 C 523.046 1.69837 0.970301 0
M  V30 5440 C 523.426 0.599065 2.02421 0
M  V30 5441 O 522.774 -0.393929 2.25079 0
M  V30 5442 C 522.984 3.11148 1.58076 0
M  V30 5443 C 524.332 3.70555 2.07302 0
M  V30 5444 O 525.356 3.14109 1.6797 0
M  V30 5445 O 524.215 4.69562 2.79596 0
M  V30 5446 H 521.309 0.691727 0.453257 0
M  V30 5447 H 523.855 1.68353 0.213358 0
M  V30 5448 H 522.627 3.82617 0.819759 0
M  V30 5449 H 522.25 3.16749 2.40324 0
M  V30 5450 N 523.247 -0.488276 1.49845 0
M  V30 5451 C 524.658 -1.06955 1.53028 0
M  V30 5452 C 525.009 -1.9351 0.323797 0
M  V30 5453 O 524.134 -2.08891 -0.565116 0
M  V30 5454 C 524.729 -1.94643 2.77307 0
M  V30 5455 C 523.288 -2.4791 2.83227 0
M  V30 5456 C 522.435 -1.25833 2.47106 0
M  V30 5457 H 525.386 -0.271626 1.56358 0
M  V30 5458 H 525.407 -2.79496 2.5819 0
M  V30 5459 H 524.919 -1.31621 3.65099 0
M  V30 5460 H 523.02 -3.14535 1.99745 0
M  V30 5461 H 523.133 -2.84193 3.85709 0
M  V30 5462 H 521.497 -1.58764 1.99163 0
M  V30 5463 H 522.28 -0.644993 3.37186 0
M  V30 5464 N 524.725 -1.39134 -0.740242 0
M  V30 5465 C 525.953 -1.39334 -1.5295 0
M  V30 5466 C 526.368 0.0135008 -1.88795 0
M  V30 5467 O 525.725 0.983524 -1.5373 0
M  V30 5468 C 525.776 -2.2614 -2.82034 0
M  V30 5469 O 525.497 -3.61345 -2.47712 0
M  V30 5470 C 526.998 -2.34666 -3.76094 0
M  V30 5471 H 524.218 -0.476103 -0.472828 0
M  V30 5472 H 526.762 -1.82883 -0.9151 0
M  V30 5473 H 524.917 -1.86018 -3.39818 0
M  V30 5474 H 525.331 -4.07194 -3.30595 0
M  V30 5475 H 526.805 -2.99663 -4.63579 0
M  V30 5476 H 527.282 -1.36426 -4.17474 0
M  V30 5477 H 527.888 -2.75236 -3.2423 0
M  V30 5478 N 526.204 0.969867 -1.24223 0
M  V30 5479 C 527.432 1.74756 -1.10761 0
M  V30 5480 C 527.847 1.85713 0.340041 0
M  V30 5481 O 527.204 1.34389 1.23474 0
M  V30 5482 C 527.255 3.16915 -1.73917 0
M  V30 5483 O 526.976 3.06511 -3.13021 0
M  V30 5484 C 528.477 4.11032 -1.66036 0
M  V30 5485 H 525.697 0.548092 -0.387087 0
M  V30 5486 H 528.241 1.2178 -1.64286 0
M  V30 5487 H 526.396 3.66884 -1.244 0
M  V30 5488 H 526.81 3.96079 -3.43834 0
M  V30 5489 H 528.284 5.08446 -2.14911 0
M  V30 5490 H 528.761 4.34785 -0.621159 0
M  V30 5491 H 529.367 3.66972 -2.14969 0
M  V30 5492 N 527.682 1.05563 1.17022 0
M  V30 5493 C 528.592 0.670758 2.24807 0
M  V30 5494 C 529.608 -0.309865 1.71219 0
M  V30 5495 O 530.784 -0.161025 2.00755 0
M  V30 5496 C 527.849 0.055337 3.46656 0
M  V30 5497 C 526.91 1.08688 4.15314 0
M  V30 5498 C 526.143 0.500736 5.31346 0
M  V30 5499 O 526.366 -0.688718 5.66227 0
M  V30 5500 O 525.3 1.23683 5.89055 0
M  V30 5501 H 529.126 1.56914 2.60023 0
M  V30 5502 H 526.711 0.827428 1.24395 0
M  V30 5503 H 528.593 -0.286492 4.20425 0
M  V30 5504 H 527.268 -0.816638 3.13229 0
M  V30 5505 H 526.175 1.48077 3.43546 0
M  V30 5506 H 527.508 1.93014 4.52777 0
M  V30 5507 N 529.16 -1.33526 0.837174 0
M  V30 5508 C 530.092 -2.28077 0.226579 0
M  V30 5509 C 531.105 -1.51666 -0.591717 0
M  V30 5510 O 532.294 -1.73511 -0.419064 0
M  V30 5511 C 529.394 -3.31597 -0.69978 0
M  V30 5512 C 528.567 -4.37329 0.0788067 0
M  V30 5513 C 527.626 -5.20526 -0.770637 0
M  V30 5514 O 526.652 -5.68811 -0.210453 0
M  V30 5515 N 527.854 -5.41639 -2.08825 0
M  V30 5516 H 530.619 -2.81115 1.03897 0
M  V30 5517 H 528.18 -1.46201 0.695476 0
M  V30 5518 H 530.172 -3.84158 -1.27298 0
M  V30 5519 H 528.742 -2.78848 -1.41288 0
M  V30 5520 H 527.962 -3.8529 0.833381 0
M  V30 5521 H 529.25 -5.05079 0.614238 0
M  V30 5522 H 528.648 -5.04108 -2.56693 0
M  V30 5523 H 527.205 -5.97263 -2.60998 0
M  V30 5524 N 530.638 -0.59345 -1.46 0
M  V30 5525 C 531.886 -0.082988 -2.0193 0
M  V30 5526 C 532.207 1.28569 -1.46612 0
M  V30 5527 O 531.477 1.84629 -0.654909 0
M  V30 5528 H 530.057 -0.0276882 -0.746487 0
M  V30 5529 H 532.719 -0.771657 -1.78973 0
M  V30 5530 H 531.815 -0.022079 -3.12092 0
M  V30 5531 N 532.116 1.54067 -0.331816 0
M  V30 5532 C 533.527 1.86059 0.15454 0
M  V30 5533 C 533.878 1.25331 1.50952 0
M  V30 5534 O 533.003 0.562441 2.08963 0
M  V30 5535 C 533.598 3.37581 0.287192 0
M  V30 5536 C 532.157 3.69493 0.717773 0
M  V30 5537 C 531.304 2.76863 -0.155569 0
M  V30 5538 H 534.255 1.48797 -0.55182 0
M  V30 5539 H 534.276 3.63744 1.11671 0
M  V30 5540 H 533.788 3.81751 -0.699131 0
M  V30 5541 H 531.889 3.3086 1.71354 0
M  V30 5542 H 532.002 4.76315 0.5158 0
M  V30 5543 H 530.366 2.51995 0.370213 0
M  V30 5544 H 531.149 3.23861 -1.13881 0
M  V30 5545 N 533.594 0.0601682 1.57485 0
M  V30 5546 C 534.526 -0.94047 2.09016 0
M  V30 5547 C 535.539 -1.26897 1.01985 0
M  V30 5548 O 536.728 -1.22819 1.29529 0
M  V30 5549 C 533.828 -2.25955 2.52582 0
M  V30 5550 C 533.001 -2.11163 3.83052 0
M  V30 5551 C 532.06 -3.26273 4.12835 0
M  V30 5552 O 531.086 -3.01779 4.82616 0
M  V30 5553 N 532.288 -4.51022 3.65458 0
M  V30 5554 H 535.053 -0.500578 2.9549 0
M  V30 5555 H 532.614 -0.125852 1.6141 0
M  V30 5556 H 534.606 -3.01846 2.69575 0
M  V30 5557 H 533.176 -2.61481 1.71308 0
M  V30 5558 H 532.396 -1.19808 3.75552 0
M  V30 5559 H 533.684 -1.98517 4.68475 0
M  V30 5560 H 533.082 -4.73811 3.09062 0
M  V30 5561 H 531.639 -5.23978 3.87673 0
M  V30 5562 N 535.072 -1.5615 -0.213296 0
M  V30 5563 C 536.321 -1.78743 -0.93455 0
M  V30 5564 C 536.634 -0.630199 -1.8517 0
M  V30 5565 O 537.84 -0.739966 -2.61222 0
M  V30 5566 C 536.296 -3.16571 -1.71203 0
M  V30 5567 C 535.904 -4.40043 -0.840617 0
M  V30 5568 C 537.648 -3.48485 -2.42401 0
M  V30 5569 C 535.555 -5.68895 -1.61592 0
M  V30 5570 H 534.485 -0.666426 -0.352692 0
M  V30 5571 H 537.136 -1.82532 -0.188227 0
M  V30 5572 H 535.518 -3.06981 -2.50157 0
M  V30 5573 H 536.692 -4.6071 -0.0910326 0
M  V30 5574 H 535.007 -4.15706 -0.240365 0
M  V30 5575 H 537.604 -4.41983 -3.00924 0
M  V30 5576 H 537.947 -2.71371 -3.15695 0
M  V30 5577 H 538.48 -3.59442 -1.7043 0
M  V30 5578 H 535.219 -6.48925 -0.926106 0
M  V30 5579 H 534.739 -5.52275 -2.33991 0
M  V30 5580 H 536.418 -6.09365 -2.17447 0
M  V30 5581 N 536.55 0.480323 -1.50102 0
M  V30 5582 C 537.827 1.24159 -1.51142 0
M  V30 5583 C 538.207 2.09605 -0.250818 0
M  V30 5584 O 537.555 2.15274 0.766118 0
M  V30 5585 C 537.765 2.08057 -2.80202 0
M  V30 5586 C 539.113 2.66556 -3.30504 0
M  V30 5587 O 540.137 2.18308 -2.81461 0
M  V30 5588 O 538.996 3.54442 -4.15973 0
M  V30 5589 H 536.09 0.562928 -0.605839 0
M  V30 5590 H 538.636 0.492899 -1.62384 0
M  V30 5591 H 537.408 1.45032 -3.6343 0
M  V30 5592 H 537.031 2.90079 -2.71919 0
M  V30 5593 N 538.028 1.39524 0.732853 0
M  V30 5594 C 538.975 1.38416 1.84688 0
M  V30 5595 C 539.945 0.243539 1.64305 0
M  V30 5596 O 541.13 0.438979 1.85681 0
M  V30 5597 C 538.27 1.23555 3.22224 0
M  V30 5598 C 537.383 2.47179 3.54298 0
M  V30 5599 C 536.518 2.2489 4.81246 0
M  V30 5600 C 535.557 3.44178 5.0617 0
M  V30 5601 N 534.694 3.21192 6.24323 0
M  V30 5602 H 539.534 2.33645 1.84971 0
M  V30 5603 H 537.071 1.16059 0.903804 0
M  V30 5604 H 539.029 1.12949 4.0162 0
M  V30 5605 H 537.659 0.31954 3.21215 0
M  V30 5606 H 536.711 2.68379 2.69587 0
M  V30 5607 H 538.023 3.36022 3.68633 0
M  V30 5608 H 537.177 2.11538 5.68627 0
M  V30 5609 H 535.916 1.33443 4.69089 0
M  V30 5610 H 534.921 3.58025 4.17251 0
M  V30 5611 H 536.146 4.36528 5.20212 0
M  V30 5612 H 534.092 2.32413 6.1345 0
M  V30 5613 H 534.009 4.03594 6.39256 0
M  V30 5614 H 535.277 3.1154 7.14537 0
M  V30 5615 N 539.506 -0.963266 1.24736 0
M  V30 5616 C 540.453 -2.05857 1.04363 0
M  V30 5617 C 541.423 -1.6604 -0.0444951 0
M  V30 5618 O 542.608 -1.90477 0.110999 0
M  V30 5619 C 539.748 -3.38745 0.659235 0
M  V30 5620 C 538.861 -3.9173 1.82131 0
M  V30 5621 C 537.996 -5.12906 1.38208 0
M  V30 5622 C 537.035 -5.58098 2.51382 0
M  V30 5623 N 536.172 -6.7049 2.08295 0
M  V30 5624 H 541.012 -2.22616 1.98107 0
M  V30 5625 H 538.549 -1.09103 0.986661 0
M  V30 5626 H 540.507 -4.15107 0.417371 0
M  V30 5627 H 539.137 -3.21898 -0.241201 0
M  V30 5628 H 538.189 -3.11966 2.17672 0
M  V30 5629 H 539.501 -4.21225 2.67153 0
M  V30 5630 H 538.655 -5.96657 1.09935 0
M  V30 5631 H 537.394 -4.85105 0.502456 0
M  V30 5632 H 536.399 -4.72917 2.80409 0
M  V30 5633 H 537.624 -5.87911 3.39909 0
M  V30 5634 H 535.57 -6.44416 1.22737 0
M  V30 5635 H 535.487 -6.99458 2.86869 0
M  V30 5636 H 536.755 -7.57672 1.83175 0
M  V30 5637 N 540.985 -1.06182 -1.16461 0
M  V30 5638 C 541.917 -0.629584 -2.20383 0
M  V30 5639 C 542.93 0.311834 -1.59786 0
M  V30 5640 O 544.119 0.103 -1.78203 0
M  V30 5641 C 541.219 0.0973695 -3.3876 0
M  V30 5642 C 540.392 -0.857252 -4.28917 0
M  V30 5643 C 539.451 -0.169749 -5.25926 0
M  V30 5644 O 538.477 -0.807044 -5.6345 0
M  V30 5645 N 539.679 1.08911 -5.70192 0
M  V30 5646 H 542.444 -1.52352 -2.58087 0
M  V30 5647 H 540.005 -0.944993 -1.31459 0
M  V30 5648 H 541.997 0.567676 -4.00699 0
M  V30 5649 H 540.567 0.893093 -2.99571 0
M  V30 5650 H 539.787 -1.50696 -3.64259 0
M  V30 5651 H 541.075 -1.50489 -4.86035 0
M  V30 5652 H 540.473 1.62703 -5.41797 0
M  V30 5653 H 539.03 1.50331 -6.34227 0
M  V30 5654 N 542.463 1.3308 -0.844243 0
M  V30 5655 C 543.693 2.01515 -0.455541 0
M  V30 5656 C 544.101 1.63655 0.949406 0
M  V30 5657 O 543.444 0.84848 1.62931 0
M  V30 5658 C 543.506 3.55967 -0.502801 0
M  V30 5659 C 543.17 4.17222 -1.86481 0
M  V30 5660 C 544.167 4.36205 -2.8288 0
M  V30 5661 C 541.852 4.53528 -2.15911 0
M  V30 5662 C 543.846 4.90649 -4.06869 0
M  V30 5663 C 541.533 5.07679 -3.40155 0
M  V30 5664 C 542.531 5.26186 -4.35451 0
M  V30 5665 O 542.219 5.79183 -5.57496 0
M  V30 5666 H 541.951 0.65199 -0.178565 0
M  V30 5667 H 544.505 1.70867 -1.1399 0
M  V30 5668 H 542.735 3.85965 0.23836 0
M  V30 5669 H 544.424 4.05688 -0.131169 0
M  V30 5670 H 545.19 4.085 -2.61444 0
M  V30 5671 H 541.069 4.38414 -1.42528 0
M  V30 5672 H 544.613 5.0501 -4.81259 0
M  V30 5673 H 540.51 5.34815 -3.61446 0
M  V30 5674 H 541.278 5.97591 -5.5931 0
M  V30 5675 N 543.941 0.601185 1.45683 0
M  V30 5676 C 544.889 -0.133955 2.32214 0
M  V30 5677 C 545.883 -0.866034 1.45589 0
M  V30 5678 O 547.089 -0.782326 1.6211 0
M  V30 5679 H 543.464 -0.0620613 0.749435 0
M  V30 5680 H 545.435 0.614389 2.92007 0
M  V30 5681 C 544.184 -1.12216 3.29094 0
M  V30 5682 H 543.507 -0.568273 3.95741 0
M  V30 5683 H 544.947 -1.60659 3.92383 0
M  V30 5684 C 543.406 -2.19251 2.55794 0
M  V30 5685 O 543.936 -3.26894 2.33459 0
M  V30 5686 N 542.142 -1.9436 2.16039 0
M  V30 5687 H 541.689 -1.06829 2.34404 0
M  V30 5688 H 541.647 -2.66181 1.67318 0
M  V30 5689 N 545.419 -1.53889 0.339982 0
M  V30 5690 C 546.366 -2.24902 -0.518452 0
M  V30 5691 C 547.336 -1.24593 -1.09844 0
M  V30 5692 O 548.521 -1.53317 -1.13572 0
M  V30 5693 C 545.661 -3.02262 -1.66529 0
M  V30 5694 C 544.774 -4.17418 -1.11295 0
M  V30 5695 C 543.909 -4.82273 -2.2268 0
M  V30 5696 C 542.948 -5.89503 -1.6478 0
M  V30 5697 N 542.085 -6.48153 -2.69893 0
M  V30 5698 H 546.925 -2.97853 0.0936579 0
M  V30 5699 H 544.462 -1.46986 0.0579924 0
M  V30 5700 H 546.42 -3.45371 -2.3404 0
M  V30 5701 H 545.05 -2.31614 -2.24844 0
M  V30 5702 H 544.102 -3.78976 -0.328886 0
M  V30 5703 H 545.414 -4.94554 -0.649414 0
M  V30 5704 H 544.568 -5.28435 -2.98063 0
M  V30 5705 H 543.307 -4.04552 -2.72376 0
M  V30 5706 H 542.312 -5.42728 -0.879004 0
M  V30 5707 H 543.537 -6.6913 -1.1594 0
M  V30 5708 H 541.483 -5.73298 -3.1885 0
M  V30 5709 H 541.4 -7.20752 -2.28151 0
M  V30 5710 H 542.668 -6.98968 -3.45056 0
M  V30 5711 N 546.897 -0.0685191 -1.57451 0
M  V30 5712 C 548.146 0.600898 -1.92541 0
M  V30 5713 C 548.459 1.70967 -0.950239 0
M  V30 5714 O 549.665 2.43844 -1.19384 0
M  V30 5715 C 548.121 1.12019 -3.42023 0
M  V30 5716 C 547.729 0.0426028 -4.4798 0
M  V30 5717 C 549.473 1.76386 -3.86119 0
M  V30 5718 C 547.38 0.575759 -5.88591 0
M  V30 5719 H 546.31 0.228225 -0.71863 0
M  V30 5720 H 548.961 -0.140223 -1.82963 0
M  V30 5721 H 547.343 1.91418 -3.46663 0
M  V30 5722 H 548.517 -0.73182 -4.54952 0
M  V30 5723 H 546.832 -0.504642 -4.13331 0
M  V30 5724 H 549.429 2.17302 -4.88553 0
M  V30 5725 H 549.772 2.62255 -3.23308 0
M  V30 5726 H 550.305 1.03615 -3.84069 0
M  V30 5727 H 547.044 -0.245691 -6.55039 0
M  V30 5728 H 546.564 1.31778 -5.85145 0
M  V30 5729 H 548.243 1.0532 -6.3837 0
M  V30 5730 N 548.375 1.56261 0.205012 0
M  V30 5731 C 549.305 1.96779 1.257 0
M  V30 5732 C 550.286 0.838309 1.48008 0
M  V30 5733 O 551.471 1.10189 1.59913 0
M  V30 5734 C 548.601 2.29876 2.60335 0
M  V30 5735 C 547.555 3.45469 2.52656 0
M  V30 5736 C 546.881 3.64215 3.91473 0
M  V30 5737 C 548.181 4.79954 2.06014 0
M  V30 5738 H 549.875 2.84904 0.920338 0
M  V30 5739 H 547.421 1.37072 0.441277 0
M  V30 5740 H 549.374 2.56814 3.34102 0
M  V30 5741 H 548.098 1.38622 2.95722 0
M  V30 5742 H 546.757 3.18605 1.81345 0
M  V30 5743 H 546.405 2.70309 4.24196 0
M  V30 5744 H 546.105 4.41973 3.87213 0
M  V30 5745 H 547.629 3.93519 4.66878 0
M  V30 5746 H 549.043 5.05989 2.69533 0
M  V30 5747 H 547.44 5.61111 2.12777 0
M  V30 5748 H 548.51 4.74201 1.01297 0
M  V30 5749 N 549.853 -0.472356 1.50355 0
M  V30 5750 C 550.763 -1.59637 1.7191 0
M  V30 5751 C 551.779 -1.63247 0.602195 0
M  V30 5752 O 552.955 -1.81139 0.880369 0
M  V30 5753 C 550.02 -2.9586 1.80742 0
M  V30 5754 C 549.081 -3.02649 3.04471 0
M  V30 5755 C 548.314 -4.32374 3.12872 0
M  V30 5756 O 548.537 -5.22807 2.28099 0
M  V30 5757 O 547.471 -4.44728 4.05587 0
M  V30 5758 H 551.297 -1.44373 2.67189 0
M  V30 5759 H 548.882 -0.651717 1.34436 0
M  V30 5760 H 550.764 -3.7677 1.88739 0
M  V30 5761 H 549.439 -3.11325 0.88647 0
M  V30 5762 H 548.346 -2.20821 3.01975 0
M  V30 5763 H 549.679 -2.92119 3.9614 0
M  V30 5764 N 551.331 -1.39911 -0.725443 0
M  V30 5765 C 552.261 -1.42138 -1.85254 0
M  V30 5766 C 553.242 -0.283513 -1.67721 0
M  V30 5767 O 554.427 -0.490717 -1.87898 0
M  V30 5768 C 551.557 -1.27354 -3.23107 0
M  V30 5769 C 550.511 -2.3864 -3.55296 0
M  V30 5770 C 549.837 -2.08939 -4.92188 0
M  V30 5771 C 551.137 -3.8097 -3.57295 0
M  V30 5772 H 552.831 -2.36461 -1.83648 0
M  V30 5773 H 550.377 -1.13817 -0.882138 0
M  V30 5774 H 552.33 -1.2753 -4.01639 0
M  V30 5775 H 551.054 -0.295025 -3.25265 0
M  V30 5776 H 549.713 -2.37696 -2.79099 0
M  V30 5777 H 549.361 -1.09502 -4.90936 0
M  V30 5778 H 549.061 -2.83491 -5.14691 0
M  V30 5779 H 550.585 -2.10781 -5.73065 0
M  V30 5780 H 551.999 -3.8379 -4.25885 0
M  V30 5781 H 550.396 -4.5496 -3.9132 0
M  V30 5782 H 551.466 -4.11261 -2.5689 0
M  V30 5783 N 552.809 0.956637 -1.25245 0
M  V30 5784 C 554.058 1.69537 -1.0927 0
M  V30 5785 C 554.371 1.92136 0.366503 0
M  V30 5786 O 555.577 2.63687 0.64665 0
M  V30 5787 C 554.033 3.05211 -1.9072 0
M  V30 5788 C 553.641 2.90416 -3.41119 0
M  V30 5789 C 555.385 3.82882 -1.83308 0
M  V30 5790 C 553.292 4.21468 -4.14872 0
M  V30 5791 H 552.222 0.635804 -0.405302 0
M  V30 5792 H 554.873 1.06513 -1.49423 0
M  V30 5793 H 553.255 3.69128 -1.43389 0
M  V30 5794 H 554.429 2.35444 -3.9611 0
M  V30 5795 H 552.744 2.26203 -3.49602 0
M  V30 5796 H 555.341 4.79944 -2.35706 0
M  V30 5797 H 555.684 4.0853 -0.800572 0
M  V30 5798 H 556.217 3.25711 -2.28379 0
M  V30 5799 H 552.956 4.01009 -5.18529 0
M  V30 5800 H 552.476 4.76213 -3.64665 0
M  V30 5801 H 554.155 4.90022 -4.22478 0
M  V30 5802 N 554.287 1.06798 1.15896 0
M  V30 5803 C 555.219 0.641263 2.20046 0
M  V30 5804 C 556.232 -0.303355 1.59949 0
M  V30 5805 O 557.421 -0.0935478 1.78255 0
M  V30 5806 C 554.521 -0.0794029 3.38807 0
M  V30 5807 C 553.694 0.879986 4.28457 0
M  V30 5808 C 552.753 0.197638 5.25829 0
M  V30 5809 O 551.779 0.836913 5.63014 0
M  V30 5810 N 552.981 -1.05886 5.70761 0
M  V30 5811 H 555.746 1.53718 2.57276 0
M  V30 5812 H 553.307 0.951951 1.30956 0
M  V30 5813 H 555.299 -0.546418 4.00994 0
M  V30 5814 H 553.869 -0.877193 3.0004 0
M  V30 5815 H 553.089 1.52625 3.63454 0
M  V30 5816 H 554.377 1.53065 4.8523 0
M  V30 5817 H 553.775 -1.59828 5.42652 0
M  V30 5818 H 552.332 -1.46965 6.35015 0
M  V30 5819 N 555.766 -1.3263 0.851289 0
M  V30 5820 C 556.991 -2.02097 0.466006 0
M  V30 5821 C 557.416 -1.63574 -0.928709 0
M  V30 5822 O 556.774 -0.834665 -1.60944 0
M  V30 5823 C 556.822 -3.55425 0.608737 0
M  V30 5824 O 555.926 -4.10827 -0.359878 0
M  V30 5825 H 555.267 -0.636911 0.187724 0
M  V30 5826 H 557.797 -1.69253 1.14955 0
M  V30 5827 H 557.807 -4.04986 0.495006 0
M  V30 5828 H 556.482 -3.82806 1.62581 0
M  V30 5829 H 555.059 -3.72349 -0.202666 0
M  V30 5830 N 557.244 -0.608902 -1.45362 0
M  V30 5831 C 558.492 -0.104401 -2.0183 0
M  V30 5832 C 558.813 1.27007 -1.47967 0
M  V30 5833 O 558.083 1.83924 -0.674455 0
M  V30 5834 H 556.663 -0.0356042 -0.746151 0
M  V30 5835 H 559.325 -0.790596 -1.78145 0
M  V30 5836 H 558.421 -0.0551793 -3.12051 0
M  V30 5837 N 558.722 1.53707 -0.348139 0
M  V30 5838 C 559.968 2.01286 0.247332 0
M  V30 5839 C 560.301 1.23546 1.49834 0
M  V30 5840 O 559.576 0.324331 1.91777 0
M  V30 5841 C 559.859 3.55768 0.556858 0
M  V30 5842 C 559.712 4.44216 -0.706564 0
M  V30 5843 C 561.031 4.1841 1.3646 0
M  V30 5844 H 558.15 0.731677 0.0884201 0
M  V30 5845 H 560.792 1.84106 -0.469584 0
M  V30 5846 H 558.942 3.70539 1.16761 0
M  V30 5847 H 560.614 4.41274 -1.34444 0
M  V30 5848 H 558.857 4.12892 -1.33052 0
M  V30 5849 H 559.528 5.50202 -0.445186 0
M  V30 5850 H 562.004 4.07365 0.848113 0
M  V30 5851 H 560.88 5.26563 1.54992 0
M  V30 5852 H 561.141 3.7333 2.36805 0
M  V30 5853 N 560.2 0.0768682 1.57412 0
M  V30 5854 C 561.163 -0.873949 2.11884 0
M  V30 5855 C 562.163 -1.22301 1.04398 0
M  V30 5856 O 563.353 -1.15545 1.30365 0
M  V30 5857 C 560.485 -2.17575 2.62438 0
M  V30 5858 H 561.678 -0.401278 2.97203 0
M  V30 5859 H 559.231 -0.171904 1.55352 0
M  V30 5860 H 559.966 -2.69368 1.80587 0
M  V30 5861 H 559.751 -1.93534 3.41009 0
M  V30 5862 H 561.241 -2.85631 3.04639 0
M  V30 5863 N 561.678 -1.56367 -0.196722 0
M  V30 5864 C 562.588 -1.97617 -1.2643 0
M  V30 5865 C 563.604 -0.883598 -1.49895 0
M  V30 5866 O 564.78 -1.18921 -1.62541 0
M  V30 5867 C 561.845 -2.30595 -2.58895 0
M  V30 5868 C 560.906 -3.53551 -2.43516 0
M  V30 5869 C 560.139 -3.84946 -3.69665 0
M  V30 5870 O 560.362 -3.17655 -4.73763 0
M  V30 5871 O 559.296 -4.78379 -3.65291 0
M  V30 5872 H 563.122 -2.88648 -0.944233 0
M  V30 5873 H 560.707 -1.43901 -0.401592 0
M  V30 5874 H 562.589 -2.52889 -3.37083 0
M  V30 5875 H 561.264 -1.42732 -2.90533 0
M  V30 5876 H 560.171 -3.36507 -1.63445 0
M  V30 5877 H 561.504 -4.41875 -2.16812 0
M  V30 5878 N 563.156 0.464375 -1.50603 0
M  V30 5879 C 564.404 1.21356 -1.61608 0
M  V30 5880 C 564.725 1.92329 -0.321643 0
M  V30 5881 O 563.995 1.84403 0.661232 0
M  V30 5882 H 562.575 0.45094 -0.595535 0
M  V30 5883 H 565.237 0.535046 -1.87412 0
M  V30 5884 H 564.333 1.95783 -2.43054 0
M  V30 5885 N 564.634 1.40294 0.718013 0
M  V30 5886 C 565.597 1.4012 1.81381 0
M  V30 5887 C 566.597 0.295405 1.58063 0
M  V30 5888 O 567.787 0.554187 1.6515 0
M  V30 5889 C 564.919 1.19056 3.19435 0
M  V30 5890 H 566.112 2.37645 1.82933 0
M  V30 5891 H 563.665 1.26107 0.923405 0
M  V30 5892 H 564.4 0.222809 3.23534 0
M  V30 5893 H 564.185 1.99152 3.37758 0
M  V30 5894 H 565.675 1.21716 3.99468 0
M  V30 5895 N 566.112 -0.949982 1.2575 0
M  V30 5896 C 567.059 -2.04738 1.06541 0
M  V30 5897 C 568.029 -1.66078 -0.0268818 0
M  V30 5898 O 569.214 -1.90348 0.131196 0
M  V30 5899 C 566.354 -3.38027 0.695127 0
M  V30 5900 C 565.467 -3.89776 1.86276 0
M  V30 5901 C 564.602 -5.11411 1.4364 0
M  V30 5902 C 563.641 -5.554 2.57287 0
M  V30 5903 N 562.778 -6.68244 2.15395 0
M  V30 5904 H 567.618 -2.20502 2.00457 0
M  V30 5905 H 565.155 -1.0805 0.998178 0
M  V30 5906 H 567.113 -4.14641 0.461375 0
M  V30 5907 H 565.743 -3.22135 -0.207046 0
M  V30 5908 H 564.795 -3.0964 2.20969 0
M  V30 5909 H 566.107 -4.18368 2.71606 0
M  V30 5910 H 565.261 -5.95457 1.16257 0
M  V30 5911 H 564 -4.84545 0.553879 0
M  V30 5912 H 563.005 -4.69916 2.85409 0
M  V30 5913 H 564.23 -5.84272 3.46125 0
M  V30 5914 H 562.176 -6.43078 1.29565 0
M  V30 5915 H 562.093 -6.96377 2.94272 0
M  V30 5916 H 563.361 -7.55687 1.91201 0
M  V30 5917 N 567.59 -1.07411 -1.15328 0
M  V30 5918 C 568.52 -0.716472 -2.22236 0
M  V30 5919 C 569.501 0.296373 -1.67498 0
M  V30 5920 O 570.686 0.168989 -1.93463 0
M  V30 5921 C 567.816 -0.114142 -3.47112 0
M  V30 5922 C 566.77 -1.05421 -4.14814 0
M  V30 5923 C 566.096 -0.314604 -5.33774 0
M  V30 5924 C 567.396 -2.38808 -4.64508 0
M  V30 5925 H 569.09 -1.61029 -2.52408 0
M  V30 5926 H 566.636 -0.775702 -1.21321 0
M  V30 5927 H 568.589 0.148001 -4.2114 0
M  V30 5928 H 567.313 0.814755 -3.16274 0
M  V30 5929 H 565.972 -1.30128 -3.42728 0
M  V30 5930 H 565.62 0.617772 -4.99192 0
M  V30 5931 H 565.32 -0.941209 -5.80013 0
M  V30 5932 H 566.844 -0.0602747 -6.1057 0
M  V30 5933 H 568.258 -2.18424 -5.3006 0
M  V30 5934 H 566.655 -2.97069 -5.21412 0
M  V30 5935 H 567.725 -3.01067 -3.80114 0
M  V30 5936 N 569.068 1.32177 -0.85831 0
M  V30 5937 C 569.978 2.32561 -0.308606 0
M  V30 5938 C 570.994 1.64209 0.575462 0
M  V30 5939 O 572.17 1.95719 0.474961 0
M  V30 5940 C 569.235 3.43207 0.490909 0
M  V30 5941 C 568.296 4.27243 -0.419733 0
M  V30 5942 C 567.529 5.32605 0.341719 0
M  V30 5943 O 567.752 5.48332 1.57125 0
M  V30 5944 O 566.686 6.0118 -0.294379 0
M  V30 5945 H 570.512 2.81477 -1.14037 0
M  V30 5946 H 568.097 1.35866 -0.621349 0
M  V30 5947 H 569.979 4.10677 0.944574 0
M  V30 5948 H 568.654 2.96474 1.29941 0
M  V30 5949 H 567.561 3.62569 -0.921652 0
M  V30 5950 H 568.894 4.7751 -1.19352 0
M  V30 5951 N 570.547 0.616602 1.45037 0
M  V30 5952 C 571.787 0.118453 2.04056 0
M  V30 5953 C 572.151 -1.23104 1.47341 0
M  V30 5954 O 573.352 -1.82044 1.97771 0
M  V30 5955 C 571.623 0.0892842 3.57288 0
M  V30 5956 S 573.182 -0.346361 4.37431 0
M  V30 5957 H 570 0.0539728 0.708948 0
M  V30 5958 H 572.602 0.816731 1.77623 0
M  V30 5959 H 571.306 1.07481 3.96076 0
M  V30 5960 H 570.837 -0.630703 3.88311 0
M  V30 5961 H 572.852 -1.59389 4.69904 0
M  V30 5962 N 572.025 -1.5352 0.356285 0
M  V30 5963 C 573.273 -2.00719 -0.235837 0
M  V30 5964 C 573.594 -1.24551 -1.5004 0
M  V30 5965 O 572.864 -0.356185 -1.92635 0
M  V30 5966 H 571.444 -0.741542 -0.0901366 0
M  V30 5967 H 574.106 -1.88887 0.480378 0
M  V30 5968 H 573.202 -3.08551 -0.469357 0
M  V30 5969 N 573.503 -0.0852151 -1.57369 0
M  V30 5970 C 574.751 0.579658 -1.93609 0
M  V30 5971 C 575.072 1.69332 -0.967043 0
M  V30 5972 O 574.342 1.95892 -0.0174215 0
M  V30 5973 H 572.922 0.217113 -0.714752 0
M  V30 5974 H 575.584 -0.146226 -1.94351 0
M  V30 5975 H 574.68 0.996276 -2.95771 0
M  V30 5976 N 574.981 1.5647 0.188427 0
M  V30 5977 C 575.928 1.95073 1.23349 0
M  V30 5978 C 576.898 0.812238 1.44886 0
M  V30 5979 O 578.083 1.07095 1.57909 0
M  V30 5980 C 575.223 2.30124 2.57171 0
M  V30 5981 C 574.336 3.57069 2.43157 0
M  V30 5982 C 573.471 3.81411 3.69729 0
M  V30 5983 C 572.51 5.0176 3.50575 0
M  V30 5984 N 571.647 5.22321 4.69175 0
M  V30 5985 H 576.487 2.84171 0.89728 0
M  V30 5986 H 574.024 1.40623 0.431683 0
M  V30 5987 H 575.982 2.48463 3.35145 0
M  V30 5988 H 574.612 1.44159 2.88822 0
M  V30 5989 H 573.664 3.4674 1.56447 0
M  V30 5990 H 574.976 4.452 2.24942 0
M  V30 5991 H 574.13 4.00026 4.56141 0
M  V30 5992 H 572.869 2.91624 3.90905 0
M  V30 5993 H 571.874 4.83061 2.62549 0
M  V30 5994 H 573.099 5.93063 3.30837 0
M  V30 5995 H 571.045 4.35483 4.90602 0
M  V30 5996 H 570.962 6.04643 4.53809 0
M  V30 5997 H 572.23 5.45401 5.56919 0
M  V30 5998 N 576.459 -0.456382 1.50847 0
M  V30 5999 C 577.707 -1.20497 1.62249 0
M  V30 6000 C 578.028 -1.92156 0.331839 0
M  V30 6001 O 577.298 -1.84751 -0.651443 0
M  V30 6002 H 575.878 -0.447775 0.597918 0
M  V30 6003 H 578.54 -0.525099 1.87693 0
M  V30 6004 H 577.636 -1.94492 2.44089 0
M  V30 6005 N 577.937 -1.40673 -0.710563 0
M  V30 6006 C 578.867 -1.44095 -1.83736 0
M  V30 6007 C 579.848 -0.301286 -1.67411 0
M  V30 6008 O 581.033 -0.510618 -1.87367 0
M  V30 6009 C 578.163 -1.30773 -3.21738 0
M  V30 6010 C 577.117 -2.42395 -3.52745 0
M  V30 6011 C 576.443 -2.14147 -4.89944 0
M  V30 6012 C 577.743 -3.84738 -3.53234 0
M  V30 6013 H 579.437 -2.38396 -1.81129 0
M  V30 6014 H 576.983 -1.14746 -0.870017 0
M  V30 6015 H 578.936 -1.31783 -4.00264 0
M  V30 6016 H 577.66 -0.329507 -3.24934 0
M  V30 6017 H 576.319 -2.40643 -2.76562 0
M  V30 6018 H 575.967 -1.14703 -4.89747 0
M  V30 6019 H 575.667 -2.88934 -5.11655 0
M  V30 6020 H 577.191 -2.16848 -5.70797 0
M  V30 6021 H 578.605 -3.88286 -4.2179 0
M  V30 6022 H 577.002 -4.59085 -3.86473 0
M  V30 6023 H 578.072 -4.13962 -2.52514 0
M  V30 6024 N 579.415 0.9433 -1.26252 0
M  V30 6025 C 580.663 1.68592 -1.11451 0
M  V30 6026 C 580.984 1.91957 0.343123 0
M  V30 6027 O 580.254 1.51475 1.24226 0
M  V30 6028 H 578.834 0.624789 -0.409448 0
M  V30 6029 H 581.496 1.13351 -1.58548 0
M  V30 6030 H 580.592 2.66054 -1.63162 0
M  V30 6031 N 580.893 1.08022 1.14757 0
M  V30 6032 C 582.309 0.807072 1.3769 0
M  V30 6033 C 582.509 -0.585504 1.92806 0
M  V30 6034 O 581.565 -1.34301 2.13821 0
M  V30 6035 C 582.878 1.88651 2.34161 0
M  V30 6036 C 584.426 1.91206 2.47809 0
M  V30 6037 C 584.901 2.98253 3.47576 0
M  V30 6038 N 586.392 2.974 3.55117 0
M  V30 6039 C 587.127 3.76872 4.32152 0
M  V30 6040 N 586.623 4.66212 5.12463 0
M  V30 6041 N 588.416 3.6519 4.27309 0
M  V30 6042 H 580.567 1.97824 0.77326 0
M  V30 6043 H 582.83 0.85826 0.402608 0
M  V30 6044 H 582.536 2.88749 2.00791 0
M  V30 6045 H 582.41 1.75244 3.3402 0
M  V30 6046 H 584.797 0.917564 2.80472 0
M  V30 6047 H 584.878 2.08691 1.47925 0
M  V30 6048 H 584.522 3.97907 3.15646 0
M  V30 6049 H 584.452 2.78014 4.47231 0
M  V30 6050 H 586.943 2.32643 2.97801 0
M  V30 6051 H 587.256 5.23468 5.68508 0
M  V30 6052 H 585.601 4.70257 5.11745 0
M  V30 6053 H 588.792 2.94765 3.63636 0
M  V30 6054 H 588.965 4.27366 4.87095 0
M  V30 6055 N 582.371 -1.3172 0.865308 0
M  V30 6056 C 583.318 -2.2863 0.315736 0
M  V30 6057 C 584.288 -1.55524 -0.583213 0
M  V30 6058 O 585.473 -1.83694 -0.51585 0
M  V30 6059 C 582.613 -3.41735 -0.480773 0
M  V30 6060 C 581.726 -4.297 0.445167 0
M  V30 6061 C 580.861 -5.29944 -0.365012 0
M  V30 6062 C 579.9 -6.09554 0.557651 0
M  V30 6063 N 579.037 -7.01768 -0.215994 0
M  V30 6064 H 583.877 -2.75026 1.14736 0
M  V30 6065 H 581.414 -1.35302 0.577209 0
M  V30 6066 H 583.372 -4.06045 -0.958306 0
M  V30 6067 H 582.002 -2.96461 -1.27714 0
M  V30 6068 H 581.054 -3.65875 1.04113 0
M  V30 6069 H 582.366 -4.85295 1.15284 0
M  V30 6070 H 581.52 -5.99908 -0.905255 0
M  V30 6071 H 580.259 -4.74994 -1.106 0
M  V30 6072 H 579.264 -5.38485 1.10969 0
M  V30 6073 H 580.489 -6.66591 1.29742 0
M  V30 6074 H 578.435 -6.49232 -0.939878 0
M  V30 6075 H 578.352 -7.54762 0.432431 0
M  V30 6076 H 579.62 -7.76002 -0.737618 0
M  V30 6077 N 583.85 -0.624285 -1.44708 0
M  V30 6078 C 585.098 -0.125802 -2.01708 0
M  V30 6079 C 585.418 1.2543 -1.49306 0
M  V30 6080 O 584.689 1.83198 -0.693924 0
M  V30 6081 H 583.269 -0.0435161 -0.745731 0
M  V30 6082 H 585.931 -0.809446 -1.77296 0
M  V30 6083 H 585.027 -0.0882734 -3.11975 0
M  V30 6084 N 585.328 1.53329 -0.364422 0
M  V30 6085 C 586.575 2.01239 0.225634 0
M  V30 6086 C 586.903 1.25172 1.48869 0
M  V30 6087 O 586.158 0.333289 1.92841 0
M  V30 6088 C 586.457 3.52911 0.564661 0
M  V30 6089 C 586.123 4.46837 -0.603936 0
M  V30 6090 C 584.785 4.72234 -0.924585 0
M  V30 6091 C 587.137 5.02409 -1.38691 0
M  V30 6092 C 584.465 5.50454 -2.0302 0
M  V30 6093 C 586.817 5.81836 -2.48293 0
M  V30 6094 C 585.481 6.0552 -2.80894 0
M  V30 6095 H 584.751 0.736386 0.0825654 0
M  V30 6096 H 587.398 1.84948 -0.496645 0
M  V30 6097 H 585.703 3.67144 1.36794 0
M  V30 6098 H 587.4 3.87455 1.03344 0
M  V30 6099 H 583.99 4.27217 -0.343983 0
M  V30 6100 H 588.174 4.82735 -1.15243 0
M  V30 6101 H 583.43 5.67024 -2.28678 0
M  V30 6102 H 587.604 6.23905 -3.0938 0
M  V30 6103 H 585.231 6.65916 -3.66688 0
M  V30 6104 N 586.806 0.0935595 1.57322 0
M  V30 6105 C 588.053 -0.570509 1.94297 0
M  V30 6106 C 588.381 -1.68286 0.97519 0
M  V30 6107 O 587.636 -1.95699 -0.00548655 0
M  V30 6108 C 587.935 -1.16692 3.37813 0
M  V30 6109 C 587.601 -0.178509 4.50547 0
M  V30 6110 C 586.263 0.0933475 4.81109 0
M  V30 6111 C 588.615 0.496472 5.1883 0
M  V30 6112 C 585.943 1.0469 5.77284 0
M  V30 6113 C 588.295 1.43849 6.16028 0
M  V30 6114 C 586.959 1.71859 6.44997 0
M  V30 6115 H 586.229 -0.208764 0.710984 0
M  V30 6116 H 588.876 0.169066 1.90752 0
M  V30 6117 H 587.181 -1.98271 3.37929 0
M  V30 6118 H 588.878 -1.6884 3.63722 0
M  V30 6119 H 585.468 -0.400584 4.26724 0
M  V30 6120 H 589.652 0.299584 4.95395 0
M  V30 6121 H 584.908 1.27094 5.98044 0
M  V30 6122 H 589.082 1.96734 6.68034 0
M  V30 6123 H 586.709 2.45906 7.19329 0
M  V30 6124 N 588.284 -1.56567 -0.180126 0
M  V30 6125 C 589.533 -1.80685 -0.896426 0
M  V30 6126 C 589.846 -0.669335 -1.83791 0
M  V30 6127 O 591.052 -0.795209 -2.59593 0
M  V30 6128 C 589.508 -3.20132 -1.6445 0
M  V30 6129 C 589.116 -4.41727 -0.747088 0
M  V30 6130 C 590.86 -3.53549 -2.34955 0
M  V30 6131 C 588.767 -5.72195 -1.49489 0
M  V30 6132 H 587.697 -0.673758 -0.338477 0
M  V30 6133 H 590.348 -1.8289 -0.149467 0
M  V30 6134 H 588.73 -3.12218 -2.43589 0
M  V30 6135 H 589.904 -4.608 0.00671129 0
M  V30 6136 H 588.219 -4.16122 -0.152134 0
M  V30 6137 H 590.816 -4.48267 -2.91481 0
M  V30 6138 H 591.159 -2.78006 -3.09868 0
M  V30 6139 H 591.692 -3.62976 -1.62768 0
M  V30 6140 H 588.431 -6.50743 -0.788251 0
M  V30 6141 H 587.951 -5.57115 -2.22224 0
M  V30 6142 H 589.63 -6.1384 -2.04472 0
M  V30 6143 N 589.762 0.448376 -1.51087 0
M  V30 6144 C 590.672 1.56882 -1.74428 0
M  V30 6145 C 591.688 1.62268 -0.62809 0
M  V30 6146 O 592.864 1.79716 -0.909075 0
M  V30 6147 C 589.929 2.92947 -1.85426 0
M  V30 6148 C 588.99 2.97766 -3.09247 0
M  V30 6149 C 588.223 4.27341 -3.19711 0
M  V30 6150 O 588.446 5.19112 -2.36387 0
M  V30 6151 O 587.38 4.38219 -4.12611 0
M  V30 6152 H 591.206 1.40104 -2.69452 0
M  V30 6153 H 588.791 0.630247 -1.35456 0
M  V30 6154 H 590.673 3.73719 -1.94709 0
M  V30 6155 H 589.348 3.09876 -0.935887 0
M  V30 6156 H 588.255 2.15989 -3.0545 0
M  V30 6157 H 589.588 2.8578 -4.00738 0
M  V30 6158 N 591.24 1.41047 0.703093 0
M  V30 6159 C 592.651 1.35657 1.28274 0
M  V30 6160 C 593.002 0.0360309 1.96167 0
M  V30 6161 O 592.127 -0.865833 1.98324 0
M  V30 6162 C 592.722 2.45707 2.33267 0
M  V30 6163 C 591.281 2.43738 2.86825 0
M  V30 6164 C 590.428 2.25941 1.60767 0
M  V30 6165 H 593.379 1.50672 0.49836 0
M  V30 6166 H 593.4 2.14333 3.14391 0
M  V30 6167 H 592.912 3.41805 1.83824 0
M  V30 6168 H 591.013 1.51375 3.40465 0
M  V30 6169 H 591.126 3.39779 3.37768 0
M  V30 6170 H 589.49 1.73681 1.86298 0
M  V30 6171 H 590.273 3.24054 1.1333 0
M  V30 6172 N 592.718 -0.936591 1.26751 0
M  V30 6173 C 593.946 -1.71758 1.15355 0
M  V30 6174 C 594.361 -1.86549 -0.290683 0
M  V30 6175 O 593.718 -1.37616 -1.19868 0
M  V30 6176 C 593.769 -3.12193 1.82258 0
M  V30 6177 O 593.49 -2.98105 3.21038 0
M  V30 6178 C 594.991 -4.06485 1.76875 0
M  V30 6179 H 592.211 -0.537636 0.401483 0
M  V30 6180 H 594.755 -1.17382 1.67457 0
M  V30 6181 H 592.91 -3.63456 1.34083 0
M  V30 6182 H 593.324 -3.86824 3.54214 0
M  V30 6183 H 594.798 -5.02569 2.28316 0
M  V30 6184 H 595.275 -4.32986 0.736216 0
M  V30 6185 H 595.881 -3.61144 2.24623 0
M  V30 6186 N 594.196 -1.08629 -1.14182 0
M  V30 6187 C 595.442 -0.818556 -1.85546 0
M  V30 6188 C 595.775 0.654076 -1.82854 0
M  V30 6189 O 595.05 1.48099 -1.26083 0
M  V30 6190 C 595.333 -1.34397 -3.3408 0
M  V30 6191 C 595.186 -2.8821 -3.45333 0
M  V30 6192 C 596.505 -0.971069 -4.29253 0
M  V30 6193 H 593.624 -0.298821 -0.673702 0
M  V30 6194 H 596.266 -1.34629 -1.34071 0
M  V30 6195 H 594.416 -0.895064 -3.78049 0
M  V30 6196 H 596.088 -3.41488 -3.10134 0
M  V30 6197 H 594.331 -3.25756 -2.86471 0
M  V30 6198 H 595.002 -3.20047 -4.49749 0
M  V30 6199 H 597.478 -1.35809 -3.93313 0
M  V30 6200 H 596.354 -1.36586 -5.31635 0
M  V30 6201 H 596.615 0.121659 -4.41933 0
M  V30 6202 N 595.674 1.31259 -0.872281 0
M  V30 6203 C 596.921 1.96622 -0.484365 0
M  V30 6204 C 597.249 1.68939 0.963841 0
M  V30 6205 O 596.504 0.97974 1.6941 0
M  V30 6206 C 596.803 3.50659 -0.690889 0
M  V30 6207 C 596.469 3.98366 -2.11224 0
M  V30 6208 C 595.131 4.11104 -2.50094 0
M  V30 6209 C 597.483 4.23425 -3.0391 0
M  V30 6210 C 594.811 4.46254 -3.80887 0
M  V30 6211 C 597.163 4.60039 -4.3422 0
M  V30 6212 C 595.827 4.70984 -4.73001 0
M  V30 6213 H 595.097 0.71949 -0.177242 0
M  V30 6214 H 597.744 1.56353 -1.10571 0
M  V30 6215 H 596.049 3.91798 0.0135782 0
M  V30 6216 H 597.746 3.99284 -0.370534 0
M  V30 6217 H 594.336 3.88949 -1.80047 0
M  V30 6218 H 598.52 4.13075 -2.75104 0
M  V30 6219 H 593.776 4.52926 -4.10692 0
M  V30 6220 H 597.95 4.78381 -5.06088 0
M  V30 6221 H 595.577 4.97977 -5.7439 0
M  V30 6222 N 597.152 0.631951 1.44375 0
M  V30 6223 C 598.377 0.142146 2.06912 0
M  V30 6224 C 598.802 -1.17456 1.4692 0
M  V30 6225 O 598.16 -1.72074 0.570975 0
M  V30 6226 C 598.208 0.0417952 3.60576 0
M  V30 6227 O 597.312 -1.00194 4.00044 0
M  V30 6228 H 596.653 0.0851491 0.658518 0
M  V30 6229 H 599.183 0.868863 1.85235 0
M  V30 6230 H 599.193 -0.148517 4.0773 0
M  V30 6231 H 597.868 1.0031 4.03622 0
M  V30 6232 H 596.445 -0.786131 3.64519 0
M  V30 6233 N 598.631 -1.53133 0.372548 0
M  V30 6234 C 599.579 -2.27473 -0.485681 0
M  V30 6235 C 600.573 -1.30719 -1.07745 0
M  V30 6236 O 601.779 -1.48321 -1.01985 0
M  V30 6237 H 598.154 -0.731269 -0.175356 0
M  V30 6238 H 600.125 -2.97955 0.162986 0
M  V30 6239 C 598.874 -3.08191 -1.60978 0
M  V30 6240 H 598.197 -3.82488 -1.16373 0
M  V30 6241 H 599.637 -3.63373 -2.18485 0
M  V30 6242 C 598.096 -2.19461 -2.55614 0
M  V30 6243 O 598.626 -1.81008 -3.58607 0
M  V30 6244 N 596.832 -1.83955 -2.24965 0
M  V30 6245 H 596.379 -2.15423 -1.41247 0
M  V30 6246 H 596.337 -1.24874 -2.88538 0
M  V30 6247 N 600.109 -0.101901 -1.5727 0
M  V30 6248 C 601.355 0.561027 -1.94885 0
M  V30 6249 C 601.688 1.6741 -0.984258 0
M  V30 6250 O 600.963 1.94491 -0.0184767 0
M  V30 6251 C 601.246 1.10982 -3.42571 0
M  V30 6252 C 601.099 0.00133418 -4.498 0
M  V30 6253 C 602.418 2.00608 -3.9172 0
M  V30 6254 H 599.537 0.202467 -0.708644 0
M  V30 6255 H 602.179 -0.173992 -1.89202 0
M  V30 6256 H 600.329 1.73621 -3.47546 0
M  V30 6257 H 602.001 -0.63322 -4.56933 0
M  V30 6258 H 600.244 -0.664143 -4.28686 0
M  V30 6259 H 600.915 0.426253 -5.50352 0
M  V30 6260 H 603.391 1.47864 -3.88941 0
M  V30 6261 H 602.267 2.3593 -4.95609 0
M  V30 6262 H 602.528 2.92608 -3.3141 0
M  V30 6263 N 601.587 1.56661 0.17182 0
M  V30 6264 C 602.815 1.861 0.904115 0
M  V30 6265 C 603.23 0.687227 1.75848 0
M  V30 6266 O 602.587 -0.343671 1.79235 0
M  V30 6267 C 602.638 3.14568 1.78127 0
M  V30 6268 O 602.359 4.27422 0.961366 0
M  V30 6269 C 603.86 3.5735 2.62327 0
M  V30 6270 H 601.08 0.617445 0.262684 0
M  V30 6271 H 603.624 2.03775 0.172068 0
M  V30 6272 H 601.779 2.98721 2.46666 0
M  V30 6273 H 602.193 5.00725 1.56123 0
M  V30 6274 H 603.667 4.50144 3.1949 0
M  V30 6275 H 604.144 2.81445 3.37173 0
M  V30 6276 H 604.75 3.75807 1.99121 0
M  V30 6277 N 603.065 -0.440357 1.51323 0
M  V30 6278 C 604.342 -1.20109 1.5438 0
M  V30 6279 C 604.722 -2.08866 0.306303 0
M  V30 6280 O 604.07 -2.1723 -0.708773 0
M  V30 6281 C 604.28 -2.00555 2.8562 0
M  V30 6282 C 605.628 -2.577 3.37455 0
M  V30 6283 O 606.652 -2.10769 2.8715 0
M  V30 6284 O 605.511 -3.43289 4.25224 0
M  V30 6285 H 602.605 -0.546668 0.620551 0
M  V30 6286 H 605.151 -0.449672 1.63634 0
M  V30 6287 H 603.923 -1.35346 3.67147 0
M  V30 6288 H 603.546 -2.82768 2.79514 0
M  V30 6289 N 604.543 -1.41418 -0.695603 0
M  V30 6290 C 605.82 -1.31264 -1.45014 0
M  V30 6291 C 606.2 0.0597994 -2.11015 0
M  V30 6292 O 605.548 1.07403 -2.01685 0
M  V30 6293 C 605.758 -2.466 -2.4696 0
M  V30 6294 C 607.106 -2.87763 -3.12214 0
M  V30 6295 O 608.13 -2.46339 -2.57285 0
M  V30 6296 O 606.989 -3.59395 -4.11701 0
M  V30 6297 H 604.083 -0.516576 -0.645816 0
M  V30 6298 H 606.629 -1.53382 -0.726084 0
M  V30 6299 H 605.401 -3.38183 -1.96845 0
M  V30 6300 H 605.024 -2.26358 -3.26876 0
M  V30 6301 N 606.021 0.929856 -1.27246 0
M  V30 6302 C 606.954 2.03069 -1.04106 0
M  V30 6303 C 607.932 1.62556 0.0378417 0
M  V30 6304 O 609.116 1.88197 -0.106869 0
M  V30 6305 C 606.243 3.33718 -0.578778 0
M  V30 6306 C 605.289 3.93209 -1.65193 0
M  V30 6307 S 606.122 4.26068 -3.24386 0
M  V30 6308 C 607.278 5.598 -2.79954 0
M  V30 6309 H 607.511 2.22386 -1.97311 0
M  V30 6310 H 605.044 1.07269 -1.11053 0
M  V30 6311 H 607.002 4.09261 -0.31874 0
M  V30 6312 H 605.663 3.12328 0.333182 0
M  V30 6313 H 604.856 4.87482 -1.27973 0
M  V30 6314 H 604.458 3.24243 -1.86393 0
M  V30 6315 H 606.75 6.39004 -2.25123 0
M  V30 6316 H 607.693 6.01917 -3.72963 0
M  V30 6317 H 608.101 5.20219 -2.19164 0
M  V30 6318 N 607.499 1.09233 1.13605 0
M  V30 6319 C 608.915 0.82163 1.36826 0
M  V30 6320 C 609.115 -0.565021 1.93416 0
M  V30 6321 O 608.171 -1.32026 2.15234 0
M  V30 6322 C 609.484 1.91124 2.32147 0
M  V30 6323 C 611.032 1.93824 2.45767 0
M  V30 6324 C 611.507 3.01923 3.44393 0
M  V30 6325 N 612.998 3.01149 3.51942 0
M  V30 6326 C 613.733 3.81434 4.2813 0
M  V30 6327 N 613.229 4.71621 5.07489 0
M  V30 6328 N 615.022 3.69702 4.23411 0
M  V30 6329 H 607.173 1.98633 0.752234 0
M  V30 6330 H 609.436 0.862482 0.393482 0
M  V30 6331 H 609.142 2.90862 1.97717 0
M  V30 6332 H 609.016 1.78777 3.32142 0
M  V30 6333 H 611.403 0.94726 2.79483 0
M  V30 6334 H 611.484 2.10248 1.45703 0
M  V30 6335 H 611.128 4.01232 3.11408 0
M  V30 6336 H 611.058 2.82742 4.44257 0
M  V30 6337 H 613.549 2.35789 2.95317 0
M  V30 6338 H 613.862 5.29468 5.62924 0
M  V30 6339 H 612.207 4.75658 5.06729 0
M  V30 6340 H 615.398 2.98606 3.60489 0
M  V30 6341 H 615.571 4.32509 4.82535 0
M  V30 6342 N 608.977 -1.30795 0.87923 0
M  V30 6343 C 610.226 -1.95636 0.490875 0
M  V30 6344 C 610.539 -1.70214 -0.963674 0
M  V30 6345 O 611.745 -2.28991 -1.45861 0
M  V30 6346 C 610.201 -3.50271 0.826929 0
M  V30 6347 C 609.809 -3.84521 2.29886 0
M  V30 6348 C 611.553 -4.21456 0.507494 0
M  V30 6349 C 609.46 -5.32309 2.57685 0
M  V30 6350 H 608.39 -0.732238 0.179841 0
M  V30 6351 H 611.041 -1.48829 1.07341 0
M  V30 6352 H 609.423 -3.9562 0.173542 0
M  V30 6353 H 610.597 -3.50102 2.99609 0
M  V30 6354 H 608.912 -3.26425 2.58526 0
M  V30 6355 H 611.509 -5.30199 0.692293 0
M  V30 6356 H 611.852 -4.12614 -0.552718 0
M  V30 6357 H 612.385 -3.81772 1.11782 0
M  V30 6358 H 609.124 -5.46195 3.62424 0
M  V30 6359 H 608.644 -5.68048 1.92566 0
M  V30 6360 H 610.323 -5.99678 2.42889 0
M  V30 6361 N 610.455 -0.639598 -1.44038 0
M  V30 6362 C 611.418 0.0506628 -2.29144 0
M  V30 6363 C 612.418 0.764001 -1.41491 0
M  V30 6364 O 613.608 0.607309 -1.63271 0
M  V30 6365 C 610.74 1.0824 -3.2326 0
M  V30 6366 H 611.933 -0.697987 -2.91664 0
M  V30 6367 H 609.486 -0.400146 -1.51091 0
M  V30 6368 H 610.221 1.86075 -2.65606 0
M  V30 6369 H 610.006 0.574725 -3.87865 0
M  V30 6370 H 611.496 1.56487 -3.87171 0
M  V30 6371 N 611.933 1.52934 -0.380664 0
M  V30 6372 C 612.88 2.26197 0.458641 0
M  V30 6373 C 613.85 1.27462 1.06502 0
M  V30 6374 O 615.035 1.56274 1.09467 0
M  V30 6375 C 612.175 3.06571 1.58456 0
M  V30 6376 C 611.288 4.20222 1.00189 0
M  V30 6377 C 610.423 4.88007 2.09815 0
M  V30 6378 C 609.462 5.93665 1.49092 0
M  V30 6379 N 608.599 6.55081 2.52613 0
M  V30 6380 H 613.439 2.975 -0.172595 0
M  V30 6381 H 610.976 1.4678 -0.0969426 0
M  V30 6382 H 612.934 3.51455 2.24801 0
M  V30 6383 H 611.564 2.37494 2.18624 0
M  V30 6384 H 610.616 3.79714 0.228292 0
M  V30 6385 H 611.928 4.96102 0.518064 0
M  V30 6386 H 611.082 5.36151 2.83948 0
M  V30 6387 H 609.821 4.11632 2.61555 0
M  V30 6388 H 608.826 5.44868 0.7348 0
M  V30 6389 H 610.051 6.71969 0.981582 0
M  V30 6390 H 607.997 5.8155 3.03538 0
M  V30 6391 H 607.914 7.26548 2.08961 0
M  V30 6392 H 609.182 7.07871 3.26402 0
M  V30 6393 N 613.412 0.11024 1.57214 0
M  V30 6394 C 614.322 -0.857077 2.18383 0
M  V30 6395 C 615.338 -1.29915 1.1575 0
M  V30 6396 O 616.514 -1.36394 1.48184 0
M  V30 6397 C 613.579 -2.09264 2.76423 0
M  V30 6398 C 612.64 -1.70333 3.94063 0
M  V30 6399 C 611.873 -2.87999 4.49324 0
M  V30 6400 O 612.096 -4.0317 4.03497 0
M  V30 6401 O 611.03 -2.6559 5.40135 0
M  V30 6402 H 614.856 -0.366561 3.0148 0
M  V30 6403 H 612.441 -0.114914 1.48957 0
M  V30 6404 H 614.323 -2.81644 3.13456 0
M  V30 6405 H 612.998 -2.57339 1.96363 0
M  V30 6406 H 611.905 -0.950864 3.61814 0
M  V30 6407 H 613.238 -1.27007 4.75531 0
M  V30 6408 N 614.89 -1.56749 -0.16351 0
M  V30 6409 C 615.8 -2.00255 -1.2221 0
M  V30 6410 C 616.816 -0.915194 -1.47987 0
M  V30 6411 O 617.992 -1.22342 -1.59982 0
M  V30 6412 C 615.057 -2.36035 -2.53946 0
M  V30 6413 C 614.118 -3.58637 -2.35962 0
M  V30 6414 C 613.351 -3.92701 -3.61416 0
M  V30 6415 O 613.574 -3.27632 -4.66919 0
M  V30 6416 O 612.508 -4.86019 -3.55062 0
M  V30 6417 H 616.334 -2.90586 -0.882794 0
M  V30 6418 H 613.919 -1.44721 -0.370978 0
M  V30 6419 H 615.801 -2.59982 -3.31643 0
M  V30 6420 H 614.476 -1.48863 -2.8744 0
M  V30 6421 H 613.383 -3.39898 -1.5627 0
M  V30 6422 H 614.716 -4.46374 -2.0739 0
M  V30 6423 N 616.368 0.432326 -1.51554 0
M  V30 6424 C 617.617 1.17831 -1.63703 0
M  V30 6425 C 617.93 1.92229 -0.36156 0
M  V30 6426 O 619.136 2.69069 -0.362495 0
M  V30 6427 C 617.592 2.14318 -2.89129 0
M  V30 6428 C 617.2 1.45544 -4.23699 0
M  V30 6429 C 618.944 2.89319 -3.10636 0
M  V30 6430 C 616.851 2.40545 -5.4027 0
M  V30 6431 H 615.781 0.443533 -0.60975 0
M  V30 6432 H 618.432 0.444878 -1.78026 0
M  V30 6433 H 616.814 2.91117 -2.68452 0
M  V30 6434 H 617.988 0.742693 -4.54775 0
M  V30 6435 H 616.303 0.826772 -4.0811 0
M  V30 6436 H 618.9 3.60495 -3.94902 0
M  V30 6437 H 619.243 3.50951 -2.23918 0
M  V30 6438 H 619.776 2.19625 -3.31677 0
M  V30 6439 H 616.515 1.83594 -6.29264 0
M  V30 6440 H 616.035 3.09859 -5.13563 0
M  V30 6441 H 617.714 3.01569 -5.72421 0
M  V30 6442 N 617.846 1.41785 0.688094 0
M  V30 6443 C 619.093 1.41544 1.44816 0
M  V30 6444 C 619.421 0.0271746 1.94481 0
M  V30 6445 O 618.676 -0.962235 1.7041 0
M  V30 6446 C 618.975 2.37532 2.67046 0
M  V30 6447 C 618.641 3.84209 2.35996 0
M  V30 6448 C 617.303 4.24165 2.27239 0
M  V30 6449 C 619.655 4.76785 2.10536 0
M  V30 6450 C 616.983 5.54695 1.91128 0
M  V30 6451 C 619.335 6.07644 1.75931 0
M  V30 6452 C 617.999 6.46613 1.65675 0
M  V30 6453 H 617.269 0.517945 0.529919 0
M  V30 6454 H 619.916 1.74635 0.785797 0
M  V30 6455 H 618.221 1.9772 3.38251 0
M  V30 6456 H 619.918 2.34615 3.25203 0
M  V30 6457 H 616.508 3.52567 2.4371 0
M  V30 6458 H 620.692 4.46714 2.16242 0
M  V30 6459 H 615.948 5.83762 1.81746 0
M  V30 6460 H 620.122 6.78874 1.55252 0
M  V30 6461 H 617.749 7.47668 1.37463 0
M  V30 6462 N 619.324 -0.923095 1.27737 0
M  V30 6463 C 620.572 -1.66797 1.14119 0
M  V30 6464 C 620.893 -1.92479 -0.312541 0
M  V30 6465 O 620.163 -1.53432 -1.218 0
M  V30 6466 H 618.743 -0.618196 0.419336 0
M  V30 6467 H 621.405 -1.10815 1.60331 0
M  V30 6468 H 620.501 -2.63424 1.67374 0
M  V30 6469 N 620.802 -1.09834 -1.13024 0
M  V30 6470 C 622.213 -0.855651 -1.65938 0
M  V30 6471 C 622.564 0.615159 -1.86307 0
M  V30 6472 O 621.689 1.47335 -1.58497 0
M  V30 6473 C 622.284 -1.5467 -3.01434 0
M  V30 6474 C 620.843 -1.35088 -3.51323 0
M  V30 6475 C 619.99 -1.6001 -2.26478 0
M  V30 6476 H 622.941 -1.25691 -0.968889 0
M  V30 6477 H 622.962 -0.982179 -3.67605 0
M  V30 6478 H 622.474 -2.61715 -2.86578 0
M  V30 6479 H 620.575 -0.30179 -3.71376 0
M  V30 6480 H 620.688 -2.0886 -4.31178 0
M  V30 6481 H 619.052 -1.02246 -2.33276 0
M  V30 6482 H 619.835 -2.68293 -2.14182 0
M  V30 6483 N 622.28 1.30327 -0.886154 0
M  V30 6484 C 623.526 1.96388 -0.505941 0
M  V30 6485 C 623.859 1.69784 0.942712 0
M  V30 6486 O 623.134 1.00322 1.6663 0
M  V30 6487 C 623.417 3.51488 -0.782826 0
M  V30 6488 C 623.27 3.87603 -2.28219 0
M  V30 6489 C 624.589 4.39331 -0.260128 0
M  V30 6490 H 621.708 0.713327 -0.185292 0
M  V30 6491 H 624.35 1.54178 -1.11036 0
M  V30 6492 H 622.5 3.87572 -0.268399 0
M  V30 6493 H 624.172 3.61537 -2.86512 0
M  V30 6494 H 622.415 3.3563 -2.74837 0
M  V30 6495 H 623.086 4.95806 -2.42653 0
M  V30 6496 H 625.562 4.10162 -0.700444 0
M  V30 6497 H 624.438 5.46769 -0.483179 0
M  V30 6498 H 624.699 4.34072 0.838674 0
M  V30 6499 N 623.758 0.647228 1.43697 0
M  V30 6500 C 624.69 -0.0866232 2.29036 0
M  V30 6501 C 625.703 -0.793051 1.42178 0
M  V30 6502 O 626.892 -0.651807 1.66174 0
M  V30 6503 C 623.992 -1.14552 3.18953 0
M  V30 6504 C 623.165 -0.518422 4.34317 0
M  V30 6505 C 622.224 -1.4734 5.05151 0
M  V30 6506 O 621.25 -0.984312 5.60625 0
M  V30 6507 N 622.452 -2.8075 5.08094 0
M  V30 6508 H 625.217 0.645834 2.92659 0
M  V30 6509 H 622.778 0.489567 1.54321 0
M  V30 6510 H 624.77 -1.78505 3.63205 0
M  V30 6511 H 623.34 -1.78001 2.56971 0
M  V30 6512 H 622.56 0.300079 3.93056 0
M  V30 6513 H 623.848 -0.080401 5.08736 0
M  V30 6514 H 623.246 -3.23052 4.64386 0
M  V30 6515 H 621.803 -3.40022 5.56083 0
M  V30 6516 N 625.236 -1.5273 0.388769 0
M  V30 6517 C 626.146 -2.30165 -0.453993 0
M  V30 6518 C 627.162 -1.37058 -1.07197 0
M  V30 6519 O 628.338 -1.70127 -1.0779 0
M  V30 6520 C 625.403 -3.09303 -1.56628 0
M  V30 6521 C 624.464 -4.18117 -0.973467 0
M  V30 6522 C 623.697 -4.93472 -2.03275 0
M  V30 6523 O 623.92 -4.68913 -3.24772 0
M  V30 6524 O 622.854 -5.78833 -1.65034 0
M  V30 6525 H 626.68 -3.03185 0.176816 0
M  V30 6526 H 624.265 -1.4862 0.152501 0
M  V30 6527 H 626.147 -3.58648 -2.21246 0
M  V30 6528 H 624.822 -2.39098 -2.18206 0
M  V30 6529 H 623.729 -3.7297 -0.290556 0
M  V30 6530 H 625.062 -4.90556 -0.401908 0
M  V30 6531 N 626.714 -0.118576 -1.57153 0
M  V30 6532 C 627.963 0.539339 -1.94355 0
M  V30 6533 C 628.276 1.67858 -1.00415 0
M  V30 6534 O 629.482 2.39922 -1.27081 0
M  V30 6535 C 627.938 1.01082 -3.45414 0
M  V30 6536 C 627.546 -0.0999402 -4.47889 0
M  V30 6537 C 629.29 1.64013 -3.91535 0
M  V30 6538 C 627.197 0.388212 -5.90124 0
M  V30 6539 H 626.127 0.205247 -0.725527 0
M  V30 6540 H 628.778 -0.19836 -1.82425 0
M  V30 6541 H 627.16 1.80292 -3.52577 0
M  V30 6542 H 628.334 -0.876189 -4.52393 0
M  V30 6543 H 626.649 -0.635885 -4.11516 0
M  V30 6544 H 629.246 2.01649 -4.95219 0
M  V30 6545 H 629.589 2.51836 -3.31488 0
M  V30 6546 H 630.122 0.913439 -3.87171 0
M  V30 6547 H 626.861 -0.453963 -6.53926 0
M  V30 6548 H 626.381 1.13095 -5.89041 0
M  V30 6549 H 628.06 0.849574 -6.41398 0
M  V30 6550 N 628.193 1.56834 0.155195 0
M  V30 6551 C 629.123 2.00678 1.19376 0
M  V30 6552 C 630.104 0.884973 1.45266 0
M  V30 6553 O 631.289 1.1522 1.56326 0
M  V30 6554 C 628.419 2.38042 2.5289 0
M  V30 6555 C 627.373 3.53332 2.41538 0
M  V30 6556 C 626.699 3.76485 3.79688 0
M  V30 6557 C 627.999 4.86265 1.9064 0
M  V30 6558 H 629.693 2.87688 0.829232 0
M  V30 6559 H 627.239 1.38407 0.397445 0
M  V30 6560 H 629.192 2.67314 3.25763 0
M  V30 6561 H 627.916 1.4796 2.91162 0
M  V30 6562 H 626.575 3.24213 1.71117 0
M  V30 6563 H 626.223 2.83667 4.15382 0
M  V30 6564 H 625.923 4.54068 3.72956 0
M  V30 6565 H 627.447 4.08174 4.54122 0
M  V30 6566 H 628.861 5.14308 2.53299 0
M  V30 6567 H 627.258 5.67597 1.94818 0
M  V30 6568 H 628.328 4.77184 0.861596 0
M  V30 6569 N 629.671 -0.424282 1.51781 0
M  V30 6570 C 631.087 -0.761768 1.40247 0
M  V30 6571 C 631.287 -1.95324 0.495041 0
M  V30 6572 O 630.343 -2.5246 -0.0448949 0
M  V30 6573 C 631.656 -1.0299 2.82513 0
M  V30 6574 C 633.204 -1.13354 2.91753 0
M  V30 6575 C 633.679 -1.43453 4.34954 0
M  V30 6576 N 635.17 -1.5035 4.3812 0
M  V30 6577 C 635.905 -1.75236 5.45967 0
M  V30 6578 N 635.401 -1.97827 6.63955 0
M  V30 6579 N 637.194 -1.77126 5.33463 0
M  V30 6580 H 629.345 0.360228 2.09323 0
M  V30 6581 H 631.608 0.0988128 0.942836 0
M  V30 6582 H 631.314 -0.226961 3.50967 0
M  V30 6583 H 631.188 -1.95411 3.22637 0
M  V30 6584 H 633.575 -1.92709 2.23489 0
M  V30 6585 H 633.656 -0.188041 2.55108 0
M  V30 6586 H 633.3 -0.646209 5.03772 0
M  V30 6587 H 633.23 -2.3923 4.69123 0
M  V30 6588 H 635.721 -1.34742 3.53062 0
M  V30 6589 H 636.034 -2.16223 7.41935 0
M  V30 6590 H 634.379 -1.95123 6.67047 0
M  V30 6591 H 637.57 -1.59005 4.40267 0
M  V30 6592 H 637.743 -1.96182 6.17589 0
M  V30 6593 N 631.149 -1.42148 -0.680565 0
M  V30 6594 C 632.396 -1.4231 -1.44063 0
M  V30 6595 C 632.724 -0.037488 -1.94464 0
M  V30 6596 O 631.979 0.953184 -1.70918 0
M  V30 6597 C 632.278 -2.38945 -2.65782 0
M  V30 6598 C 631.944 -3.85455 -2.33956 0
M  V30 6599 C 630.606 -4.25364 -2.24987 0
M  V30 6600 C 632.958 -4.77895 -2.08004 0
M  V30 6601 C 630.286 -5.55701 -1.88184 0
M  V30 6602 C 632.638 -6.08568 -1.72706 0
M  V30 6603 C 631.302 -6.47482 -1.62244 0
M  V30 6604 H 630.572 -0.520748 -0.527164 0
M  V30 6605 H 633.219 -1.7505 -0.776524 0
M  V30 6606 H 631.524 -1.99511 -3.37198 0
M  V30 6607 H 633.221 -2.36336 -3.23954 0
M  V30 6608 H 629.811 -3.53855 -2.41836 0
M  V30 6609 H 633.995 -4.47854 -2.1387 0
M  V30 6610 H 629.251 -5.84718 -1.78648 0
M  V30 6611 H 633.425 -6.79688 -1.5165 0
M  V30 6612 H 631.052 -7.48387 -1.33496 0
M  V30 6613 N 632.627 0.916307 -1.28225 0
M  V30 6614 C 633.574 2.01841 -1.11932 0
M  V30 6615 C 634.544 1.66091 -0.0171604 0
M  V30 6616 O 635.729 1.89934 -0.181617 0
M  V30 6617 C 632.869 3.36065 -0.784504 0
M  V30 6618 C 631.982 3.847 -1.96544 0
M  V30 6619 C 631.117 5.07423 -1.57149 0
M  V30 6620 C 630.156 5.48384 -2.71922 0
M  V30 6621 N 629.293 6.62298 -2.33037 0
M  V30 6622 H 634.133 2.1511 -2.06232 0
M  V30 6623 H 631.67 1.05366 -1.02647 0
M  V30 6624 H 633.628 4.13272 -0.571148 0
M  V30 6625 H 632.258 3.22571 0.121565 0
M  V30 6626 H 631.31 3.03673 -2.291 0
M  V30 6627 H 632.622 4.1102 -2.82603 0
M  V30 6628 H 631.776 5.92165 -1.32004 0
M  V30 6629 H 630.515 4.82906 -0.682153 0
M  V30 6630 H 629.52 4.62184 -2.97768 0
M  V30 6631 H 630.745 5.7489 -3.61494 0
M  V30 6632 H 628.691 6.39416 -1.4657 0
M  V30 6633 H 628.608 6.8833 -3.12631 0
M  V30 6634 H 629.876 7.50352 -2.11169 0
M  V30 6635 N 634.105 1.10431 1.1244 0
M  V30 6636 C 635.333 0.868872 1.87772 0
M  V30 6637 C 635.748 -0.580645 1.7965 0
M  V30 6638 O 635.105 -1.40031 1.17036 0
M  V30 6639 C 635.156 1.30855 3.36986 0
M  V30 6640 O 634.877 2.70123 3.44914 0
M  V30 6641 C 636.378 1.107 4.29256 0
M  V30 6642 H 633.598 0.311868 0.59412 0
M  V30 6643 H 636.142 1.46897 1.42273 0
M  V30 6644 H 634.297 0.752126 3.80029 0
M  V30 6645 H 634.711 2.88923 4.37748 0
M  V30 6646 H 636.185 1.46378 5.32238 0
M  V30 6647 H 636.662 0.0456228 4.39176 0
M  V30 6648 H 637.268 1.64988 3.91994 0
M  V30 6649 N 635.583 -1.29855 0.893053 0
M  V30 6650 C 636.516 -2.26079 0.3104 0
M  V30 6651 C 637.494 -1.52145 -0.573644 0
M  V30 6652 O 638.678 -1.8113 -0.521937 0
M  V30 6653 C 635.805 -3.34069 -0.558179 0
M  V30 6654 C 634.851 -4.25721 0.257638 0
M  V30 6655 S 635.684 -5.09409 1.65114 0
M  V30 6656 C 636.84 -6.20903 0.789307 0
M  V30 6657 H 637.073 -2.75151 1.12602 0
M  V30 6658 H 634.606 -1.37975 0.692978 0
M  V30 6659 H 636.564 -3.9675 -1.05355 0
M  V30 6660 H 635.225 -2.83705 -1.34797 0
M  V30 6661 H 634.418 -5.02366 -0.405562 0
M  V30 6662 H 634.02 -3.67656 0.685917 0
M  V30 6663 H 636.312 -6.77499 0.00978451 0
M  V30 6664 H 637.255 -6.91426 1.52762 0
M  V30 6665 H 637.663 -5.63435 0.346634 0
M  V30 6666 N 637.061 -0.65484 -1.43351 0
M  V30 6667 C 638.338 -0.0987371 -1.95351 0
M  V30 6668 C 638.718 1.38161 -1.59608 0
M  V30 6669 O 638.066 2.10791 -0.882021 0
M  V30 6670 C 638.276 -0.346684 -3.47274 0
M  V30 6671 C 639.624 -0.25249 -4.23849 0
M  V30 6672 O 640.648 -0.279332 -3.55103 0
M  V30 6673 O 639.507 -0.177584 -5.46211 0
M  V30 6674 H 636.601 0.0086829 -0.826954 0
M  V30 6675 H 639.147 -0.728189 -1.53282 0
M  V30 6676 H 637.919 -1.37296 -3.66423 0
M  V30 6677 H 637.542 0.315757 -3.96344 0
M  V30 6678 N 638.539 1.52521 -0.396863 0
M  V30 6679 C 639.449 2.30403 0.44178 0
M  V30 6680 C 640.465 1.37625 1.06468 0
M  V30 6681 O 641.641 1.70697 1.06886 0
M  V30 6682 C 638.706 3.1013 1.54986 0
M  V30 6683 C 637.767 4.18628 0.951279 0
M  V30 6684 C 637 4.94543 2.00655 0
M  V30 6685 O 637.223 4.70629 3.22281 0
M  V30 6686 O 636.157 5.797 1.61962 0
M  V30 6687 H 639.983 3.03087 -0.192892 0
M  V30 6688 H 637.568 1.48537 -0.16038 0
M  V30 6689 H 639.45 3.59816 2.19341 0
M  V30 6690 H 638.125 2.40251 2.16935 0
M  V30 6691 H 637.032 3.73119 0.270773 0
M  V30 6692 H 638.365 4.90763 0.375887 0
M  V30 6693 N 640.017 0.126909 1.57088 0
M  V30 6694 C 641.263 -0.529952 1.95753 0
M  V30 6695 C 641.596 -1.65823 1.01077 0
M  V30 6696 O 640.871 -1.94437 0.0494162 0
M  V30 6697 C 641.154 -1.05517 3.44294 0
M  V30 6698 C 641.007 0.0702253 4.49745 0
M  V30 6699 C 642.326 -1.9435 3.94862 0
M  V30 6700 H 639.445 -0.191168 0.711775 0
M  V30 6701 H 642.087 0.204071 1.88901 0
M  V30 6702 H 640.237 -1.68069 3.50264 0
M  V30 6703 H 641.909 0.705834 4.55868 0
M  V30 6704 H 640.152 0.732259 4.27575 0
M  V30 6705 H 640.823 -0.338642 5.5096 0
M  V30 6706 H 643.299 -1.41658 3.91244 0
M  V30 6707 H 642.175 -2.28015 4.993 0
M  V30 6708 H 642.436 -2.87299 3.36024 0
M  V30 6709 N 641.495 -1.56914 -0.146875 0
M  V30 6710 C 642.744 -1.82546 -0.857898 0
M  V30 6711 C 643.057 -0.708169 -1.8233 0
M  V30 6712 O 644.263 -0.850093 -2.57848 0
M  V30 6713 C 642.719 -3.23548 -1.57623 0
M  V30 6714 C 642.327 -4.43212 -0.653224 0
M  V30 6715 C 644.071 -3.58453 -2.27402 0
M  V30 6716 C 641.978 -5.75237 -1.37318 0
M  V30 6717 H 640.908 -0.680786 -0.32411 0
M  V30 6718 H 643.559 -1.83166 -0.110639 0
M  V30 6719 H 641.941 -3.17315 -2.36912 0
M  V30 6720 H 643.115 -4.60682 0.104452 0
M  V30 6721 H 641.43 -4.16351 -0.0638336 0
M  V30 6722 H 644.027 -4.54349 -2.81907 0
M  V30 6723 H 644.37 -2.84516 -3.03901 0
M  V30 6724 H 644.903 -3.66347 -1.55032 0
M  V30 6725 H 641.642 -6.52269 -0.650041 0
M  V30 6726 H 641.162 -5.61703 -2.10357 0
M  V30 6727 H 642.841 -6.18039 -1.91406 0
M  V30 6728 N 642.974 0.416227 -1.52004 0
M  V30 6729 C 643.884 1.53147 -1.77717 0
M  V30 6730 C 644.9 1.609 -0.662368 0
M  V30 6731 O 646.076 1.77747 -0.946991 0
M  V30 6732 C 643.141 2.88948 -1.91598 0
M  V30 6733 C 642.202 2.9114 -3.15493 0
M  V30 6734 C 641.435 4.20464 -3.28703 0
M  V30 6735 O 641.658 5.13981 -2.47345 0
M  V30 6736 O 640.592 4.29368 -4.21813 0
M  V30 6737 H 644.418 1.34357 -2.72363 0
M  V30 6738 H 642.003 0.601373 -1.36762 0
M  V30 6739 H 643.885 3.69505 -2.02593 0
M  V30 6740 H 642.56 3.07821 -1.00141 0
M  V30 6741 H 641.467 2.09461 -3.09962 0
M  V30 6742 H 642.8 2.77216 -4.06709 0
M  V30 6743 N 644.452 1.42507 0.673017 0
M  V30 6744 C 645.868 1.25472 0.986355 0
M  V30 6745 C 646.068 0.160181 2.00862 0
M  V30 6746 O 645.124 -0.467993 2.48125 0
M  V30 6747 C 646.437 2.61219 1.48947 0
M  V30 6748 C 647.985 2.68589 1.60715 0
M  V30 6749 C 648.46 4.04707 2.14422 0
M  V30 6750 N 649.951 4.0667 2.21752 0
M  V30 6751 C 650.686 5.0881 2.64386 0
M  V30 6752 N 650.182 6.21332 3.0646 0
M  V30 6753 N 651.975 4.96166 2.64151 0
M  V30 6754 H 644.126 2.124 -0.00378532 0
M  V30 6755 H 646.389 0.946046 0.0608367 0
M  V30 6756 H 646.095 3.42179 0.812812 0
M  V30 6757 H 645.969 2.85261 2.46791 0
M  V30 6758 H 648.356 1.87974 2.27486 0
M  V30 6759 H 648.437 2.48333 0.613552 0
M  V30 6760 H 648.081 4.8578 1.48258 0
M  V30 6761 H 648.011 4.22315 3.14575 0
M  V30 6762 H 650.502 3.25438 1.92089 0
M  V30 6763 H 650.815 6.95118 3.37684 0
M  V30 6764 H 649.16 6.24835 3.04313 0
M  V30 6765 H 652.351 4.07334 2.30644 0
M  V30 6766 H 652.524 5.759 2.97057 0
M  V30 6767 N 645.93 -0.909495 1.28709 0
M  V30 6768 C 646.893 -1.99399 1.13016 0
M  V30 6769 C 647.893 -1.60654 0.068536 0
M  V30 6770 O 649.083 -1.71334 0.314671 0
M  V30 6771 C 646.215 -3.33078 0.726085 0
M  V30 6772 H 647.408 -2.14751 2.09338 0
M  V30 6773 H 644.961 -1.09272 1.11756 0
M  V30 6774 H 645.696 -3.23428 -0.23771 0
M  V30 6775 H 645.481 -3.62562 1.49302 0
M  V30 6776 H 646.971 -4.12681 0.639058 0
M  V30 6777 N 647.408 -1.11026 -1.11852 0
M  V30 6778 C 648.356 -0.759643 -2.19846 0
M  V30 6779 C 649.35 0.246964 -1.6759 0
M  V30 6780 O 650.556 0.106693 -1.79684 0
M  V30 6781 H 646.931 -0.22775 -0.716683 0
M  V30 6782 H 648.902 -1.6792 -2.46669 0
M  V30 6783 C 647.651 -0.214364 -3.47039 0
M  V30 6784 H 646.974 -0.980175 -3.87599 0
M  V30 6785 H 648.414 -0.00717047 -4.23999 0
M  V30 6786 C 646.873 1.05436 -3.19976 0
M  V30 6787 O 647.403 2.13483 -3.40276 0
M  V30 6788 N 645.609 0.975436 -2.7374 0
M  V30 6789 H 645.156 0.0960853 -2.57421 0
M  V30 6790 H 645.114 1.82501 -2.5601 0
M  V30 6791 N 648.886 1.2938 -0.899927 0
M  V30 6792 C 649.834 2.29675 -0.367698 0
M  V30 6793 C 650.828 1.60787 0.533282 0
M  V30 6794 O 652.034 1.75126 0.416058 0
M  V30 6795 H 648.409 0.745284 -0.100279 0
M  V30 6796 H 650.38 2.72008 -1.22696 0
M  V30 6797 C 649.129 3.45512 0.389483 0
M  V30 6798 H 648.452 3.98713 -0.294575 0
M  V30 6799 H 649.892 4.17725 0.726744 0
M  V30 6800 C 648.351 2.969 1.59223 0
M  V30 6801 O 648.881 2.98195 2.69152 0
M  V30 6802 N 647.087 2.52728 1.43447 0
M  V30 6803 H 646.634 2.51873 0.540148 0
M  V30 6804 H 646.592 2.20561 2.24054 0
M  V30 6805 N 650.364 0.662433 1.43002 0
M  V30 6806 C 651.589 0.186003 2.06564 0
M  V30 6807 C 652.014 -1.14314 1.49379 0
M  V30 6808 O 651.372 -1.70824 0.607346 0
M  V30 6809 C 651.42 0.118269 3.60406 0
M  V30 6810 O 650.524 -0.916859 4.02079 0
M  V30 6811 H 649.865 0.0990981 0.656563 0
M  V30 6812 H 652.395 0.907958 1.8335 0
M  V30 6813 H 652.405 -0.0619981 4.07953 0
M  V30 6814 H 651.08 1.08849 4.01403 0
M  V30 6815 H 649.657 -0.708635 3.66105 0
M  V30 6816 N 651.842 -1.52309 0.404946 0
M  V30 6817 C 653.119 -1.94237 -0.230544 0
M  V30 6818 C 653.499 -1.34154 -1.6299 0
M  V30 6819 O 652.847 -0.515713 -2.22604 0
M  V30 6820 C 653.057 -3.48166 -0.241106 0
M  V30 6821 C 654.405 -4.22074 -0.462488 0
M  V30 6822 O 655.429 -3.54754 -0.320644 0
M  V30 6823 O 654.288 -5.41443 -0.741708 0
M  V30 6824 H 651.382 -0.813766 -0.147358 0
M  V30 6825 H 653.928 -1.6333 0.460587 0
M  V30 6826 H 652.7 -3.84269 0.738467 0
M  V30 6827 H 652.323 -3.85422 -0.97651 0
M  V30 6828 N 653.32 -0.135238 -1.57019 0
M  V30 6829 C 654.567 0.518794 -1.95742 0
M  V30 6830 C 654.895 1.65642 -1.01947 0
M  V30 6831 O 654.15 1.95645 -0.0464016 0
M  V30 6832 C 654.449 1.07694 -3.40788 0
M  V30 6833 C 654.115 0.058992 -4.50861 0
M  V30 6834 C 652.777 -0.220872 -4.80693 0
M  V30 6835 C 655.129 -0.633856 -5.17331 0
M  V30 6836 C 652.457 -1.19959 -5.74305 0
M  V30 6837 C 654.809 -1.60131 -6.11997 0
M  V30 6838 C 653.473 -1.889 -6.40213 0
M  V30 6839 H 652.743 0.18984 -0.716269 0
M  V30 6840 H 655.39 -0.219581 -1.90237 0
M  V30 6841 H 653.695 1.89241 -3.43067 0
M  V30 6842 H 655.392 1.59137 -3.68071 0
M  V30 6843 H 651.982 0.287304 -4.27636 0
M  V30 6844 H 656.166 -0.430823 -4.94427 0
M  V30 6845 H 651.422 -1.42905 -5.94465 0
M  V30 6846 H 655.596 -2.14376 -6.62583 0
M  V30 6847 H 653.223 -2.64891 -7.12556 0
M  V30 6848 N 654.798 1.5699 0.138552 0
M  V30 6849 C 656.046 1.83446 0.848053 0
M  V30 6850 C 656.367 0.71744 1.81322 0
M  V30 6851 O 655.637 -0.260228 1.94164 0
M  V30 6852 H 654.217 0.676792 0.316166 0
M  V30 6853 H 656.879 1.94462 0.130538 0
M  V30 6854 H 655.975 2.78677 1.40518 0
M  V30 6855 N 656.276 -0.40816 1.52223 0
M  V30 6856 C 657.206 -1.5042 1.78595 0
M  V30 6857 C 658.187 -1.57723 0.636974 0
M  V30 6858 O 659.372 -1.72982 0.882664 0
M  V30 6859 C 656.502 -2.88232 1.93751 0
M  V30 6860 C 655.456 -2.95779 3.09352 0
M  V30 6861 C 654.782 -4.35855 3.09732 0
M  V30 6862 C 656.082 -2.67175 4.48793 0
M  V30 6863 H 657.776 -1.28601 2.70374 0
M  V30 6864 H 655.322 -0.617221 1.30101 0
M  V30 6865 H 657.275 -3.64895 2.10783 0
M  V30 6866 H 655.999 -3.11347 0.986443 0
M  V30 6867 H 654.658 -2.21561 2.92072 0
M  V30 6868 H 654.306 -4.55981 2.12346 0
M  V30 6869 H 654.006 -4.41829 3.87377 0
M  V30 6870 H 655.53 -5.14451 3.28895 0
M  V30 6871 H 656.944 -3.3356 4.66273 0
M  V30 6872 H 655.341 -2.84523 5.28362 0
M  V30 6873 H 656.411 -1.62609 4.56822 0
M  V30 6874 N 657.755 -1.42862 -0.66545 0
M  V30 6875 C 659.001 -1.44043 -1.42757 0
M  V30 6876 C 659.334 -0.0599629 -1.94107 0
M  V30 6877 O 658.609 0.917286 -1.71511 0
M  V30 6878 C 658.892 -2.47266 -2.61786 0
M  V30 6879 C 658.745 -3.94539 -2.16007 0
M  V30 6880 C 660.064 -2.47365 -3.64003 0
M  V30 6881 H 657.183 -0.524506 -0.517748 0
M  V30 6882 H 659.825 -1.74335 -0.755466 0
M  V30 6883 H 657.975 -2.21565 -3.19126 0
M  V30 6884 H 659.647 -4.31254 -1.63762 0
M  V30 6885 H 657.89 -4.07957 -1.47491 0
M  V30 6886 H 658.561 -4.62357 -3.01546 0
M  V30 6887 H 661.037 -2.70243 -3.16399 0
M  V30 6888 H 659.913 -3.21552 -4.44854 0
M  V30 6889 H 660.174 -1.50299 -4.15767 0
M  V30 6890 N 659.233 0.902656 -1.29189 0
M  V30 6891 C 660.196 1.98797 -1.14071 0
M  V30 6892 C 661.196 1.60615 -0.0770549 0
M  V30 6893 O 662.386 1.71165 -0.323753 0
M  V30 6894 C 659.518 3.32688 -0.743739 0
M  V30 6895 H 660.711 2.13637 -2.10473 0
M  V30 6896 H 658.264 1.08678 -1.12334 0
M  V30 6897 H 658.999 3.23549 0.220554 0
M  V30 6898 H 658.784 3.61765 -1.51223 0
M  V30 6899 H 660.274 4.12337 -0.660935 0
M  V30 6900 N 660.711 1.11618 1.11262 0
M  V30 6901 C 661.674 0.779447 2.15539 0
M  V30 6902 C 662.674 -0.202081 1.59525 0
M  V30 6903 O 663.864 0.0226356 1.74185 0
M  V30 6904 C 660.996 0.15674 3.40539 0
M  V30 6905 H 662.189 1.70324 2.4684 0
M  V30 6906 H 659.742 0.918298 1.26479 0
M  V30 6907 H 660.477 -0.777186 3.1485 0
M  V30 6908 H 660.262 0.863308 3.82478 0
M  V30 6909 H 661.752 -0.062661 4.17553 0
M  V30 6910 N 662.189 -1.289 0.906776 0
M  V30 6911 C 663.435 -1.95558 0.53712 0
M  V30 6912 C 663.768 -1.71262 -0.915582 0
M  V30 6913 O 663.043 -1.02961 -1.65013 0
M  V30 6914 C 663.326 -3.50198 0.838645 0
M  V30 6915 C 663.179 -3.83923 2.34357 0
M  V30 6916 C 664.498 -4.38861 0.329988 0
M  V30 6917 H 661.617 -0.710289 0.196617 0
M  V30 6918 H 664.259 -1.52392 1.13475 0
M  V30 6919 H 662.409 -3.87096 0.330024 0
M  V30 6920 H 664.081 -3.56933 2.92227 0
M  V30 6921 H 662.324 -3.31215 2.80141 0
M  V30 6922 H 662.995 -4.91883 2.5051 0
M  V30 6923 H 665.471 -4.08996 0.765609 0
M  V30 6924 H 664.347 -5.45931 0.570105 0
M  V30 6925 H 664.608 -4.35352 -0.769511 0
M  V30 6926 N 663.667 -0.670007 -1.42649 0
M  V30 6927 C 664.914 -0.190286 -2.01604 0
M  V30 6928 C 665.242 1.20155 -1.52948 0
M  V30 6929 O 664.497 1.81964 -0.72026 0
M  V30 6930 C 664.796 -0.168298 -3.57004 0
M  V30 6931 C 664.462 -1.50415 -4.25072 0
M  V30 6932 C 663.124 -1.86992 -4.43382 0
M  V30 6933 C 665.476 -2.38414 -4.63474 0
M  V30 6934 C 662.804 -3.11203 -4.97363 0
M  V30 6935 C 665.156 -3.61933 -5.18833 0
M  V30 6936 C 663.82 -3.98685 -5.35356 0
M  V30 6937 H 663.09 -0.0696305 -0.737721 0
M  V30 6938 H 665.737 -0.864044 -1.70899 0
M  V30 6939 H 664.042 0.588958 -3.87348 0
M  V30 6940 H 665.739 0.22001 -4.00396 0
M  V30 6941 H 662.329 -1.20959 -4.11177 0
M  V30 6942 H 666.513 -2.11442 -4.49006 0
M  V30 6943 H 661.769 -3.39705 -5.08341 0
M  V30 6944 H 665.943 -4.30326 -5.47533 0
M  V30 6945 H 663.57 -4.95009 -5.76949 0
M  V30 6946 N 665.145 1.52092 -0.413018 0
M  V30 6947 C 666.373 2.06274 0.160881 0
M  V30 6948 C 666.788 1.28273 1.38533 0
M  V30 6949 O 666.145 0.33563 1.79387 0
M  V30 6950 C 666.196 3.57921 0.507443 0
M  V30 6951 O 665.917 4.32971 -0.668388 0
M  V30 6952 C 667.418 4.28533 1.13465 0
M  V30 6953 H 664.638 0.67074 0.0186759 0
M  V30 6954 H 667.182 1.95951 -0.585092 0
M  V30 6955 H 665.337 3.68238 1.20331 0
M  V30 6956 H 665.751 5.23135 -0.378169 0
M  V30 6957 H 667.225 5.35804 1.32732 0
M  V30 6958 H 667.702 3.85258 2.10886 0
M  V30 6959 H 668.308 4.22595 0.478876 0
M  V30 6960 N 666.623 0.143563 1.56945 0
M  V30 6961 C 667.571 -0.814556 2.17871 0
M  V30 6962 C 668.565 -1.25778 1.13474 0
M  V30 6963 O 669.771 -1.22666 1.31731 0
M  V30 6964 H 666.146 -0.280873 0.697578 0
M  V30 6965 H 668.117 -0.276459 2.97117 0
M  V30 6966 C 666.866 -2.04503 2.81201 0
M  V30 6967 H 666.189 -1.71296 3.61245 0
M  V30 6968 H 667.629 -2.69493 3.27337 0
M  V30 6969 C 666.088 -2.85079 1.79532 0
M  V30 6970 O 666.618 -3.81306 1.26368 0
M  V30 6971 N 664.824 -2.49546 1.48913 0
M  V30 6972 H 664.371 -1.71359 1.92338 0
M  V30 6973 H 664.329 -3.03751 0.811348 0
M  V30 6974 N 668.101 -1.57061 -0.130224 0
M  V30 6975 C 669.378 -1.75205 -0.869631 0
M  V30 6976 C 669.758 -0.716063 -1.98584 0
M  V30 6977 O 669.106 0.262032 -2.26993 0
M  V30 6978 C 669.316 -3.19835 -1.39666 0
M  V30 6979 C 670.664 -3.82011 -1.85345 0
M  V30 6980 O 671.688 -3.23368 -1.49371 0
M  V30 6981 O 670.547 -4.85064 -2.51744 0
M  V30 6982 H 667.641 -0.716977 -0.412157 0
M  V30 6983 H 670.187 -1.69311 -0.11484 0
M  V30 6984 H 668.959 -3.86745 -0.595288 0
M  V30 6985 H 668.582 -3.30222 -2.21448 0
M  V30 6986 N 669.579 0.400081 -1.52437 0
M  V30 6987 C 670.828 1.14332 -1.66166 0
M  V30 6988 C 671.141 1.91419 -0.402253 0
M  V30 6989 O 672.347 2.6824 -0.419487 0
M  V30 6990 C 670.803 2.08137 -2.9361 0
M  V30 6991 C 670.411 1.36524 -4.26691 0
M  V30 6992 C 672.155 2.82664 -3.16703 0
M  V30 6993 C 670.062 2.29031 -5.45251 0
M  V30 6994 H 668.992 0.430499 -0.61902 0
M  V30 6995 H 671.643 0.407017 -1.78929 0
M  V30 6996 H 670.025 2.85358 -2.74567 0
M  V30 6997 H 671.199 0.646061 -4.56249 0
M  V30 6998 H 669.514 0.74002 -4.09771 0
M  V30 6999 H 672.111 3.52037 -4.0246 0
M  V30 7000 H 672.454 3.46122 -2.31312 0
M  V30 7001 H 672.987 2.12541 -3.36261 0
M  V30 7002 H 669.726 1.70206 -6.33017 0
M  V30 7003 H 669.246 2.98896 -5.2002 0
M  V30 7004 H 670.925 2.89359 -5.78689 0
M  V30 7005 N 671.057 1.43213 0.657864 0
M  V30 7006 C 672.005 1.48271 1.79216 0
M  V30 7007 C 672.999 0.35675 1.65601 0
M  V30 7008 O 674.205 0.530535 1.72004 0
M  V30 7009 H 670.58 0.464729 0.591211 0
M  V30 7010 H 672.551 2.43792 1.7207 0
M  V30 7011 C 671.3 1.41837 3.17455 0
M  V30 7012 H 670.623 2.27781 3.28567 0
M  V30 7013 H 672.063 1.49438 3.96793 0
M  V30 7014 C 670.522 0.135347 3.36628 0
M  V30 7015 O 671.052 -0.805199 3.93547 0
M  V30 7016 N 669.258 0.0470316 2.90562 0
M  V30 7017 H 668.805 0.813221 2.44427 0
M  V30 7018 H 668.763 -0.810737 3.03767 0
M  V30 7019 N 672.536 -0.895792 1.29666 0
M  V30 7020 C 673.483 -2.00035 1.15129 0
M  V30 7021 C 674.453 -1.66043 0.0435819 0
M  V30 7022 O 675.638 -1.89621 0.211811 0
M  V30 7023 C 672.778 -3.34774 0.83787 0
M  V30 7024 C 671.891 -3.81525 2.0264 0
M  V30 7025 C 671.026 -5.04858 1.65201 0
M  V30 7026 C 670.065 -5.43988 2.80612 0
M  V30 7027 N 669.202 -6.58507 2.43544 0
M  V30 7028 H 674.042 -2.11802 2.09628 0
M  V30 7029 H 671.579 -1.03719 1.04311 0
M  V30 7030 H 673.537 -4.12311 0.636824 0
M  V30 7031 H 672.167 -3.22724 -0.0702314 0
M  V30 7032 H 671.219 -2.9999 2.33903 0
M  V30 7033 H 672.531 -4.06472 2.89106 0
M  V30 7034 H 671.685 -5.8999 1.41408 0
M  V30 7035 H 670.424 -4.81759 0.758893 0
M  V30 7036 H 669.429 -4.57388 3.05083 0
M  V30 7037 H 670.654 -5.69066 3.70595 0
M  V30 7038 H 668.6 -6.37004 1.56724 0
M  V30 7039 H 668.517 -6.83269 3.23542 0
M  V30 7040 H 669.785 -7.46897 2.2308 0
M  V30 7041 N 674.014 -1.12206 -1.10668 0
M  V30 7042 C 674.977 -0.790867 -2.15123 0
M  V30 7043 C 675.977 0.193618 -1.5963 0
M  V30 7044 O 677.167 -0.0318728 -1.74171 0
M  V30 7045 C 674.299 -0.174797 -3.40452 0
M  V30 7046 H 675.492 -1.7163 -2.45933 0
M  V30 7047 H 673.045 -0.924993 -1.2599 0
M  V30 7048 H 673.78 0.760478 -3.15257 0
M  V30 7049 H 673.565 -0.88358 -3.82015 0
M  V30 7050 H 675.055 0.0405162 -4.1758 0
M  V30 7051 N 675.492 1.28418 -0.913599 0
M  V30 7052 C 676.422 2.29713 -0.418847 0
M  V30 7053 C 677.403 1.62165 0.513469 0
M  V30 7054 O 678.588 1.89576 0.421235 0
M  V30 7055 C 675.718 3.45612 0.342042 0
M  V30 7056 C 674.672 4.25056 -0.501123 0
M  V30 7057 C 673.998 5.3329 0.388097 0
M  V30 7058 C 675.298 4.91814 -1.75831 0
M  V30 7059 H 676.992 2.71346 -1.26538 0
M  V30 7060 H 674.538 1.30446 -0.609903 0
M  V30 7061 H 676.491 4.15562 0.699 0
M  V30 7062 H 675.215 3.02858 1.22248 0
M  V30 7063 H 673.874 3.56833 -0.840598 0
M  V30 7064 H 673.522 4.8678 1.26707 0
M  V30 7065 H 673.222 5.87347 -0.172459 0
M  V30 7066 H 674.746 6.06088 0.74094 0
M  V30 7067 H 676.16 5.54126 -1.47026 0
M  V30 7068 H 674.557 5.55866 -2.26126 0
M  V30 7069 H 675.627 4.16313 -2.4862 0
M  V30 7070 N 676.97 0.677563 1.42291 0
M  V30 7071 C 678.198 0.209459 2.05837 0
M  V30 7072 C 678.613 -1.13444 1.50917 0
M  V30 7073 O 677.97 -1.70529 0.65008 0
M  V30 7074 C 678.021 0.138819 3.61233 0
M  V30 7075 O 677.742 1.42962 4.14118 0
M  V30 7076 C 679.243 -0.352449 4.41897 0
M  V30 7077 H 676.463 0.101209 0.663323 0
M  V30 7078 H 679.007 0.925077 1.8238 0
M  V30 7079 H 677.162 -0.527505 3.83792 0
M  V30 7080 H 677.576 1.3048 5.08011 0
M  V30 7081 H 679.05 -0.350778 5.50884 0
M  V30 7082 H 679.527 -1.3882 4.16684 0
M  V30 7083 H 680.133 0.282236 4.24362 0
M  V30 7084 N 678.448 -1.51871 0.421078 0
M  V30 7085 C 679.694 -2.02237 -0.151014 0
M  V30 7086 C 680.027 -1.30554 -1.43768 0
M  V30 7087 O 679.302 -0.41546 -1.90011 0
M  V30 7088 C 679.585 -3.5802 -0.386482 0
M  V30 7089 C 679.438 -4.40339 0.9177 0
M  V30 7090 C 680.757 -4.24444 -1.16342 0
M  V30 7091 H 677.876 -0.735062 -0.0534102 0
M  V30 7092 H 680.518 -1.81656 0.556888 0
M  V30 7093 H 678.668 -3.75688 -0.989494 0
M  V30 7094 H 680.34 -4.34357 1.55344 0
M  V30 7095 H 678.583 -4.06073 1.526 0
M  V30 7096 H 679.254 -5.47451 0.707187 0
M  V30 7097 H 681.73 -4.10948 -0.652788 0
M  V30 7098 H 680.606 -5.33358 -1.29693 0
M  V30 7099 H 680.867 -3.84204 -2.18724 0
M  V30 7100 N 679.926 -0.151884 -1.56866 0
M  V30 7101 C 681.151 0.508044 -2.01081 0
M  V30 7102 C 681.576 1.57306 -1.03134 0
M  V30 7103 O 680.934 1.81298 -0.0078309 0
M  V30 7104 C 680.982 1.08106 -3.44014 0
M  V30 7105 O 680.086 2.19577 -3.49084 0
M  V30 7106 H 679.427 0.123757 -0.652365 0
M  V30 7107 H 681.957 -0.250055 -2.03066 0
M  V30 7108 H 681.967 1.40851 -3.82916 0
M  V30 7109 H 680.642 0.301168 -4.14808 0
M  V30 7110 H 679.219 1.88023 -3.22027 0
M  V30 7111 N 681.404 1.57128 0.121893 0
M  V30 7112 C 682.629 1.89254 0.848385 0
M  V30 7113 C 683.054 0.743527 1.72781 0
M  V30 7114 O 682.412 -0.306056 1.78698 0
M  V30 7115 C 682.46 3.20113 1.66012 0
M  V30 7116 O 681.564 3.05815 2.76679 0
M  V30 7117 H 680.905 0.621103 0.234793 0
M  V30 7118 H 683.435 2.0433 0.10516 0
M  V30 7119 H 683.445 3.52761 2.04996 0
M  V30 7120 H 682.12 4.03336 1.01452 0
M  V30 7121 H 680.697 2.84627 2.40918 0
M  V30 7122 N 682.882 -0.391992 1.52647 0
M  V30 7123 C 683.845 -1.46135 1.7657 0
M  V30 7124 C 684.845 -1.47701 0.635698 0
M  V30 7125 O 686.035 -1.48924 0.903728 0
M  V30 7126 C 683.167 -2.85443 1.86374 0
M  V30 7127 H 684.36 -1.26208 2.72051 0
M  V30 7128 H 681.913 -0.623549 1.43323 0
M  V30 7129 H 682.648 -3.10718 0.928685 0
M  V30 7130 H 682.433 -2.85708 2.68539 0
M  V30 7131 H 683.923 -3.62933 2.06566 0
M  V30 7132 N 684.36 -1.4356 -0.65026 0
M  V30 7133 C 685.293 -1.434 -1.77515 0
M  V30 7134 C 686.271 -0.295082 -1.599 0
M  V30 7135 O 687.455 -0.489128 -1.82043 0
M  V30 7136 C 684.582 -1.2484 -3.14853 0
M  V30 7137 C 683.628 -2.42046 -3.51163 0
M  V30 7138 S 684.461 -4.04595 -3.50803 0
M  V30 7139 C 685.617 -3.88424 -4.90793 0
M  V30 7140 H 685.85 -2.38586 -1.77381 0
M  V30 7141 H 683.383 -1.30627 -0.823169 0
M  V30 7142 H 685.341 -1.14819 -3.94115 0
M  V30 7143 H 684.002 -0.311977 -3.12547 0
M  V30 7144 H 683.195 -2.24873 -4.51052 0
M  V30 7145 H 682.797 -2.48708 -2.79321 0
M  V30 7146 H 685.089 -3.50932 -5.79528 0
M  V30 7147 H 686.032 -4.88076 -5.13018 0
M  V30 7148 H 686.44 -3.20829 -4.64467 0
M  V30 7149 N 685.838 0.888903 -1.30139 0
M  V30 7150 C 686.77 1.99972 -1.11999 0
M  V30 7151 C 687.783 1.62673 -0.0643619 0
M  V30 7152 O 688.972 1.75788 -0.309983 0
M  V30 7153 C 686.072 3.31904 -0.685059 0
M  V30 7154 C 685.245 3.97665 -1.82158 0
M  V30 7155 C 684.304 5.07894 -1.37585 0
M  V30 7156 O 683.33 5.2974 -2.08241 0
M  V30 7157 N 684.532 5.7995 -0.252697 0
M  V30 7158 H 687.297 2.16085 -2.07671 0
M  V30 7159 H 684.858 1.06175 -1.22223 0
M  V30 7160 H 686.85 4.03005 -0.369964 0
M  V30 7161 H 685.42 3.12084 0.179507 0
M  V30 7162 H 684.64 3.19787 -2.305 0
M  V30 7163 H 685.928 4.3834 -2.58332 0
M  V30 7164 H 685.326 5.647 0.336141 0
M  V30 7165 H 683.883 6.518 0.00296813 0
M  V30 7166 N 687.317 1.12792 1.10072 0
M  V30 7167 C 688.28 0.802264 2.14701 0
M  V30 7168 C 689.28 -0.18515 1.59731 0
M  V30 7169 O 690.47 0.041109 1.74151 0
M  V30 7170 C 687.602 0.19285 3.40354 0
M  V30 7171 H 688.795 1.72932 2.45019 0
M  V30 7172 H 686.348 0.931662 1.25498 0
M  V30 7173 H 687.083 -0.743748 3.15656 0
M  V30 7174 H 686.868 0.903827 3.81541 0
M  V30 7175 H 688.358 -0.0183704 4.17596 0
M  V30 7176 N 688.795 -1.27931 0.920396 0
M  V30 7177 C 690.043 -1.94304 0.555906 0
M  V30 7178 C 690.364 -1.72753 -0.904519 0
M  V30 7179 O 689.634 -1.07104 -1.64029 0
M  V30 7180 H 688.214 -0.719001 0.202599 0
M  V30 7181 H 690.876 -1.55785 1.1712 0
M  V30 7182 H 689.972 -3.02806 0.755981 0
M  V30 7183 N 690.273 -0.685099 -1.4193 0
M  V30 7184 C 691.501 -0.220372 -2.05723 0
M  V30 7185 C 691.916 1.12642 -1.51516 0
M  V30 7186 O 691.273 1.70182 -0.659114 0
M  V30 7187 C 691.324 -0.157974 -3.61155 0
M  V30 7188 O 691.045 -1.45156 -4.13354 0
M  V30 7189 C 692.546 0.329009 -4.42077 0
M  V30 7190 H 689.766 -0.104725 -0.662777 0
M  V30 7191 H 692.31 -0.934736 -1.81887 0
M  V30 7192 H 690.465 0.507144 -3.84066 0
M  V30 7193 H 690.879 -1.33172 -5.07312 0
M  V30 7194 H 692.353 0.321559 -5.51063 0
M  V30 7195 H 692.83 1.36608 -4.17414 0
M  V30 7196 H 693.436 -0.304737 -4.24207 0
M  V30 7197 N 691.751 1.51645 -0.429126 0
M  V30 7198 C 692.997 2.02314 0.140286 0
M  V30 7199 C 693.33 1.31314 1.43074 0
M  V30 7200 O 692.605 0.425531 1.89788 0
M  V30 7201 C 692.888 3.5822 0.36749 0
M  V30 7202 C 692.741 4.39846 -0.941039 0
M  V30 7203 C 694.06 4.25055 1.14089 0
M  V30 7204 H 691.179 0.735335 0.0495112 0
M  V30 7205 H 693.821 1.81358 -0.566514 0
M  V30 7206 H 691.971 3.76207 0.969556 0
M  V30 7207 H 693.643 4.33527 -1.57646 0
M  V30 7208 H 691.886 4.05259 -1.54751 0
M  V30 7209 H 692.557 5.47069 -0.73621 0
M  V30 7210 H 695.033 4.11288 0.630986 0
M  V30 7211 H 693.909 5.34038 1.26863 0
M  V30 7212 H 694.17 3.85358 2.16683 0
M  V30 7213 N 693.229 0.160201 1.56784 0
M  V30 7214 C 694.475 -0.481855 1.9761 0
M  V30 7215 C 694.83 -1.61605 1.04411 0
M  V30 7216 O 694.123 -1.91426 0.0816402 0
M  V30 7217 C 694.317 -1.02259 3.42459 0
M  V30 7218 C 694.146 0.0576781 4.49663 0
M  V30 7219 C 692.916 0.503585 5.02784 0
M  V30 7220 C 695.114 0.854013 5.0716 0
M  V30 7221 N 693.096 1.56532 5.93608 0
M  V30 7222 C 694.467 1.76593 5.94319 0
M  V30 7223 C 696.522 0.900333 4.89692 0
M  V30 7224 C 695.225 2.72023 6.6588 0
M  V30 7225 C 697.251 1.84252 5.61965 0
M  V30 7226 C 696.613 2.74194 6.48843 0
M  V30 7227 H 692.712 -0.144748 0.768487 0
M  V30 7228 H 695.296 0.257853 1.92985 0
M  V30 7229 H 693.467 -1.73186 3.47651 0
M  V30 7230 H 695.199 -1.63235 3.70319 0
M  V30 7231 H 691.954 0.103361 4.73487 0
M  V30 7232 H 692.378 2.09634 6.43726 0
M  V30 7233 H 697.02 0.219023 4.22232 0
M  V30 7234 H 694.738 3.41147 7.3256 0
M  V30 7235 H 698.324 1.88433 5.5044 0
M  V30 7236 H 697.204 3.45912 7.03786 0
M  V30 7237 N 694.707 -1.5719 -0.113559 0
M  V30 7238 C 695.956 -1.84325 -0.818984 0
M  V30 7239 C 696.269 -0.746685 -1.80787 0
M  V30 7240 O 697.475 -0.904596 -2.55987 0
M  V30 7241 C 695.931 -3.26818 -1.50724 0
M  V30 7242 C 695.539 -4.44498 -0.559065 0
M  V30 7243 C 697.283 -3.63196 -2.19748 0
M  V30 7244 C 695.19 -5.7802 -1.25086 0
M  V30 7245 H 694.12 -0.687507 -0.309596 0
M  V30 7246 H 696.771 -1.8336 -0.0717621 0
M  V30 7247 H 695.153 -3.22269 -2.30128 0
M  V30 7248 H 696.327 -4.60356 0.202146 0
M  V30 7249 H 694.642 -4.16393 0.024495 0
M  V30 7250 H 697.239 -4.60226 -2.72206 0
M  V30 7251 H 697.582 -2.90899 -2.97798 0
M  V30 7252 H 698.115 -3.69553 -1.47226 0
M  V30 7253 H 694.854 -6.53501 -0.511539 0
M  V30 7254 H 694.374 -5.66038 -1.98395 0
M  V30 7255 H 696.053 -6.2196 -1.78253 0
M  V30 7256 N 696.185 0.383891 -1.52853 0
M  V30 7257 C 697.133 1.48965 -1.7864 0
M  V30 7258 C 698.127 1.56242 -0.654577 0
M  V30 7259 O 699.333 1.59347 -0.83716 0
M  V30 7260 H 695.708 0.495892 -0.565328 0
M  V30 7261 H 697.679 1.24411 -2.71228 0
M  V30 7262 C 696.428 2.86036 -1.97683 0
M  V30 7263 H 695.751 2.81188 -2.84206 0
M  V30 7264 H 697.191 3.62632 -2.19713 0
M  V30 7265 C 695.65 3.28428 -0.750776 0
M  V30 7266 O 696.18 4.0164 0.0693491 0
M  V30 7267 N 694.386 2.84765 -0.579427 0
M  V30 7268 H 693.933 2.25353 -1.24795 0
M  V30 7269 H 693.891 3.13486 0.239544 0
M  V30 7270 N 697.663 1.43903 0.642637 0
M  V30 7271 C 698.903 1.47591 1.41408 0
M  V30 7272 C 699.267 0.101313 1.91733 0
M  V30 7273 O 700.468 0.0128797 2.68797 0
M  V30 7274 C 698.739 2.4977 2.55636 0
M  V30 7275 S 700.298 2.72417 3.43998 0
M  V30 7276 H 697.116 0.522163 0.482563 0
M  V30 7277 H 699.718 1.80745 0.745085 0
M  V30 7278 H 698.422 3.48365 2.16956 0
M  V30 7279 H 697.953 2.1815 3.27375 0
M  V30 7280 H 699.968 2.03142 4.52712 0
M  V30 7281 N 699.141 -0.881989 1.30609 0
M  V30 7282 C 700.371 -1.66469 1.22359 0
M  V30 7283 C 700.779 -1.87969 -0.215507 0
M  V30 7284 O 700.122 -1.42938 -1.15388 0
M  V30 7285 C 700.184 -3.06135 1.88472 0
M  V30 7286 C 699.848 -3.07795 3.37804 0
M  V30 7287 C 700.845 -2.86633 4.33749 0
M  V30 7288 C 698.53 -3.29297 3.793 0
M  V30 7289 C 700.524 -2.86934 5.69164 0
M  V30 7290 C 698.211 -3.29228 5.14832 0
M  V30 7291 C 699.209 -3.08071 6.09574 0
M  V30 7292 O 698.897 -3.07824 7.4263 0
M  V30 7293 H 698.629 -0.526129 0.424458 0
M  V30 7294 H 701.183 -1.11004 1.72821 0
M  V30 7295 H 699.413 -3.63276 1.32543 0
M  V30 7296 H 701.102 -3.66571 1.74301 0
M  V30 7297 H 701.868 -2.69814 4.0302 0
M  V30 7298 H 697.747 -3.44799 3.05998 0
M  V30 7299 H 701.291 -2.70339 6.43088 0
M  V30 7300 H 697.188 -3.45583 5.452 0
M  V30 7301 H 697.956 -3.2397 7.51656 0
M  V30 7302 N 700.619 -1.13374 -1.09472 0
M  V30 7303 C 701.567 -0.806105 -2.18185 0
M  V30 7304 C 702.561 0.21136 -1.68076 0
M  V30 7305 O 703.767 0.0685558 -1.79869 0
M  V30 7306 H 700.142 -0.242901 -0.71169 0
M  V30 7307 H 702.113 -1.73115 -2.43051 0
M  V30 7308 C 700.862 -0.287928 -3.46506 0
M  V30 7309 H 700.185 -1.06217 -3.85432 0
M  V30 7310 H 701.625 -0.0971054 -4.23889 0
M  V30 7311 C 700.084 0.986256 -3.22141 0
M  V30 7312 O 700.614 2.06217 -3.44728 0
M  V30 7313 N 698.82 0.917153 -2.75747 0
M  V30 7314 H 698.367 0.0414609 -2.57567 0
M  V30 7315 H 698.325 1.77029 -2.59823 0
M  V30 7316 N 702.098 1.27442 -0.927168 0
M  V30 7317 C 703.061 2.2512 -0.430525 0
M  V30 7318 C 704.061 1.54357 0.450619 0
M  V30 7319 O 705.251 1.72371 0.251774 0
M  V30 7320 C 702.383 3.38763 0.381144 0
M  V30 7321 H 703.576 2.70569 -1.29354 0
M  V30 7322 H 701.129 1.39355 -0.707806 0
M  V30 7323 H 701.864 2.98695 1.263 0
M  V30 7324 H 701.649 3.91298 -0.250618 0
M  V30 7325 H 703.139 4.11364 0.719012 0
M  V30 7326 N 703.576 0.692616 1.41565 0
M  V30 7327 C 704.506 0.0397325 2.33466 0
M  V30 7328 C 705.487 -0.770334 1.51657 0
M  V30 7329 O 706.672 -0.723903 1.80203 0
M  V30 7330 C 703.802 -0.899495 3.3545 0
M  V30 7331 C 702.756 -0.196738 4.27548 0
M  V30 7332 C 702.082 -1.25012 5.19881 0
M  V30 7333 C 703.382 0.935158 5.1386 0
M  V30 7334 H 705.076 0.807296 2.88311 0
M  V30 7335 H 702.622 0.389665 1.38628 0
M  V30 7336 H 704.575 -1.36545 3.98665 0
M  V30 7337 H 703.299 -1.69869 2.78948 0
M  V30 7338 H 701.958 0.249158 3.65752 0
M  V30 7339 H 701.606 -2.04177 4.59696 0
M  V30 7340 H 701.306 -0.784931 5.82334 0
M  V30 7341 H 702.83 -1.71665 5.85972 0
M  V30 7342 H 704.244 0.549619 5.70659 0
M  V30 7343 H 702.641 1.32726 5.85238 0
M  V30 7344 H 703.711 1.77613 4.512 0
M  V30 7345 N 705.054 -1.51416 0.437162 0
M  V30 7346 C 706.002 -2.29328 -0.388765 0
M  V30 7347 C 706.996 -1.35171 -1.02104 0
M  V30 7348 O 708.202 -1.52513 -0.956024 0
M  V30 7349 H 704.577 -0.738048 -0.144183 0
M  V30 7350 H 706.548 -2.96995 0.289212 0
M  V30 7351 C 705.297 -3.14741 -1.47761 0
M  V30 7352 H 704.62 -3.8708 -1.00045 0
M  V30 7353 H 706.06 -3.72313 -2.02877 0
M  V30 7354 C 704.519 -2.30105 -2.46076 0
M  V30 7355 O 705.049 -1.96055 -3.50607 0
M  V30 7356 N 703.255 -1.93331 -2.1696 0
M  V30 7357 H 702.802 -2.2122 -1.31983 0
M  V30 7358 H 702.76 -1.36999 -2.82982 0
M  V30 7359 N 706.532 -0.168513 -1.56696 0
M  V30 7360 C 707.495 0.748928 -2.16619 0
M  V30 7361 C 708.495 1.16007 -1.11351 0
M  V30 7362 O 709.685 1.07748 -1.3688 0
M  V30 7363 C 706.817 2.01904 -2.74677 0
M  V30 7364 H 708.01 0.227317 -2.99037 0
M  V30 7365 H 705.563 0.0810372 -1.5609 0
M  V30 7366 H 706.298 2.58381 -1.95985 0
M  V30 7367 H 706.083 1.73323 -3.51712 0
M  V30 7368 H 707.573 2.67383 -3.20774 0
M  V30 7369 N 708.01 1.57248 0.105221 0
M  V30 7370 C 708.942 1.98008 1.15436 0
M  V30 7371 C 709.955 0.881236 1.36887 0
M  V30 7372 O 711.144 1.15943 1.35718 0
M  V30 7373 C 708.244 2.27509 2.51183 0
M  V30 7374 C 707.417 3.58811 2.50147 0
M  V30 7375 C 706.476 3.76365 3.67745 0
M  V30 7376 O 705.502 4.48329 3.50699 0
M  V30 7377 N 706.704 3.16174 4.86841 0
M  V30 7378 H 709.469 2.88616 0.807519 0
M  V30 7379 H 707.03 1.59202 0.29433 0
M  V30 7380 H 709.022 2.36455 3.28438 0
M  V30 7381 H 707.592 1.42959 2.77995 0
M  V30 7382 H 706.812 3.60927 1.5851 0
M  V30 7383 H 708.1 4.45088 2.46524 0
M  V30 7384 H 707.498 2.57701 5.03594 0
M  V30 7385 H 706.055 3.30621 5.61723 0
M  V30 7386 N 709.488 -0.375779 1.53054 0
M  V30 7387 C 710.713 -1.14484 1.7294 0
M  V30 7388 C 711.138 -1.82572 0.452668 0
M  V30 7389 O 710.496 -1.71343 -0.592567 0
M  V30 7390 C 710.544 -2.15857 2.88857 0
M  V30 7391 O 709.648 -3.22725 2.56753 0
M  V30 7392 H 708.989 -0.332666 0.574656 0
M  V30 7393 H 711.519 -0.436025 1.999 0
M  V30 7394 H 711.529 -2.59631 3.14731 0
M  V30 7395 H 710.204 -1.65689 3.81471 0
M  V30 7396 H 708.781 -2.83996 2.41663 0
M  V30 7397 N 710.966 -1.44241 -0.634997 0
M  V30 7398 C 712.377 -1.41622 -1.21655 0
M  V30 7399 C 712.728 -0.129584 -1.95772 0
M  V30 7400 O 711.853 0.770225 -2.02229 0
M  V30 7401 C 712.448 -2.56557 -2.21278 0
M  V30 7402 C 711.007 -2.57145 -2.7487 0
M  V30 7403 C 710.154 -2.33354 -1.49804 0
M  V30 7404 H 713.105 -1.52878 -0.425905 0
M  V30 7405 H 713.126 -2.29089 -3.03807 0
M  V30 7406 H 712.638 -3.50186 -1.67306 0
M  V30 7407 H 710.739 -1.67447 -3.32855 0
M  V30 7408 H 710.852 -3.55507 -3.21172 0
M  V30 7409 H 709.216 -1.82372 -1.77799 0
M  V30 7410 H 709.999 -3.29092 -0.977402 0
M  V30 7411 N 712.444 0.87505 -1.31075 0
M  V30 7412 C 713.691 1.62768 -1.20469 0
M  V30 7413 C 714.019 1.93034 0.23834 0
M  V30 7414 O 713.274 1.55693 1.18567 0
M  V30 7415 C 713.573 2.96948 -1.98888 0
M  V30 7416 C 713.239 2.86195 -3.4843 0
M  V30 7417 C 711.901 2.82969 -3.89207 0
M  V30 7418 C 714.253 2.73599 -4.43614 0
M  V30 7419 C 711.581 2.64999 -5.23443 0
M  V30 7420 C 713.933 2.57166 -5.77969 0
M  V30 7421 C 712.597 2.52321 -6.17973 0
M  V30 7422 H 711.867 0.595611 -0.440827 0
M  V30 7423 H 714.514 1.01665 -1.62285 0
M  V30 7424 H 712.819 3.62058 -1.49737 0
M  V30 7425 H 714.516 3.54164 -1.88067 0
M  V30 7426 H 711.106 2.8952 -3.16032 0
M  V30 7427 H 715.29 2.7515 -4.13045 0
M  V30 7428 H 710.546 2.5967 -5.53517 0
M  V30 7429 H 714.72 2.46396 -6.51354 0
M  V30 7430 H 712.347 2.38156 -7.21932 0
M  V30 7431 N 713.922 1.13953 1.08869 0
M  V30 7432 C 715.17 0.903023 1.80803 0
M  V30 7433 C 715.491 -0.572151 1.86417 0
M  V30 7434 O 714.761 -1.41589 1.35386 0
M  V30 7435 H 713.341 0.331099 0.669614 0
M  V30 7436 H 716.003 1.43719 1.31647 0
M  V30 7437 H 715.099 1.29881 2.83791 0
M  V30 7438 N 715.4 -1.26948 0.933913 0
M  V30 7439 C 716.648 -1.93704 0.576484 0
M  V30 7440 C 716.969 -1.73702 -0.886145 0
M  V30 7441 O 716.239 -1.08838 -1.62884 0
M  V30 7442 H 714.819 -0.716812 0.210214 0
M  V30 7443 H 717.481 -1.54534 1.18766 0
M  V30 7444 H 716.577 -3.01987 0.788055 0
M  V30 7445 N 716.879 -0.700114 -1.41195 0
M  V30 7446 C 718.126 -0.233006 -2.01155 0
M  V30 7447 C 718.454 1.16883 -1.55462 0
M  V30 7448 O 717.709 1.80395 -0.758695 0
M  V30 7449 C 718.008 -0.243986 -3.56566 0
M  V30 7450 C 717.674 -1.59397 -4.21786 0
M  V30 7451 C 716.336 -1.96355 -4.39316 0
M  V30 7452 C 718.688 -2.48192 -4.58312 0
M  V30 7453 C 716.016 -3.21683 -4.9065 0
M  V30 7454 C 718.368 -3.72857 -5.11039 0
M  V30 7455 C 717.032 -4.09951 -5.26779 0
M  V30 7456 H 716.302 -0.085263 -0.736078 0
M  V30 7457 H 718.949 -0.9001 -1.69028 0
M  V30 7458 H 717.254 0.506663 -3.8851 0
M  V30 7459 H 718.951 0.135031 -4.00773 0
M  V30 7460 H 715.541 -1.29654 -4.08519 0
M  V30 7461 H 719.725 -2.20918 -4.4442 0
M  V30 7462 H 714.981 -3.50412 -5.01021 0
M  V30 7463 H 719.155 -4.41844 -5.38282 0
M  V30 7464 H 716.782 -5.07136 -5.66319 0
M  V30 7465 N 718.357 1.51182 -0.445186 0
M  V30 7466 C 719.304 2.27939 0.362291 0
M  V30 7467 C 720.274 1.31864 1.01 0
M  V30 7468 O 721.459 1.60776 1.02741 0
M  V30 7469 C 718.599 3.13016 1.45311 0
M  V30 7470 C 717.712 4.24093 0.822757 0
M  V30 7471 C 716.847 4.96467 1.88928 0
M  V30 7472 C 715.886 5.99454 1.23778 0
M  V30 7473 N 715.023 6.65206 2.24602 0
M  V30 7474 H 719.863 2.965 -0.29862 0
M  V30 7475 H 717.4 1.46237 -0.15911 0
M  V30 7476 H 719.358 3.60673 2.09692 0
M  V30 7477 H 717.988 2.46553 2.08354 0
M  V30 7478 H 717.04 3.80341 0.0670364 0
M  V30 7479 H 718.352 4.97853 0.307184 0
M  V30 7480 H 717.506 5.47712 2.60953 0
M  V30 7481 H 716.245 4.22355 2.4386 0
M  V30 7482 H 715.25 5.47494 0.503042 0
M  V30 7483 H 716.475 6.75527 0.695694 0
M  V30 7484 H 714.421 5.93901 2.78599 0
M  V30 7485 H 714.338 7.34756 1.77958 0
M  V30 7486 H 715.606 7.21078 2.96085 0
M  V30 7487 N 719.835 0.176821 1.56605 0
M  V30 7488 C 720.768 -0.790135 2.14084 0
M  V30 7489 C 721.746 -1.22219 1.07244 0
M  V30 7490 O 722.93 -1.31298 1.35252 0
M  V30 7491 C 720.057 -2.06475 2.68488 0
M  V30 7492 C 719.103 -1.77628 3.87751 0
M  V30 7493 S 719.936 -0.940612 5.27174 0
M  V30 7494 C 721.092 -2.22577 5.84988 0
M  V30 7495 H 721.325 -0.30144 2.95768 0
M  V30 7496 H 718.858 -0.0379279 1.54353 0
M  V30 7497 H 720.816 -2.79683 3.00479 0
M  V30 7498 H 719.477 -2.52457 1.8688 0
M  V30 7499 H 718.67 -2.72215 4.24164 0
M  V30 7500 H 718.272 -1.12512 3.56675 0
M  V30 7501 H 720.564 -3.17992 5.98237 0
M  V30 7502 H 721.507 -1.90624 6.81959 0
M  V30 7503 H 721.915 -2.34588 5.13448 0
M  V30 7504 N 721.313 -1.57302 -0.09688 0
M  V30 7505 C 722.538 -1.9058 -0.818169 0
M  V30 7506 C 722.963 -0.770921 -1.71576 0
M  V30 7507 O 722.321 0.277588 -1.79162 0
M  V30 7508 C 722.369 -3.22714 -1.60898 0
M  V30 7509 O 721.473 -3.10178 -2.71779 0
M  V30 7510 H 720.814 -0.624759 -0.224882 0
M  V30 7511 H 723.344 -2.04471 -0.07264 0
M  V30 7512 H 723.354 -3.55978 -1.99358 0
M  V30 7513 H 722.029 -4.04899 -0.950227 0
M  V30 7514 H 720.606 -2.88424 -2.3636 0
M  V30 7515 N 722.791 0.367657 -1.53252 0
M  V30 7516 C 724.039 1.10832 -1.68999 0
M  V30 7517 C 724.36 1.89894 -0.443306 0
M  V30 7518 O 723.63 1.88235 0.54262 0
M  V30 7519 H 722.21 0.412153 -0.623008 0
M  V30 7520 H 724.872 0.414775 -1.90435 0
M  V30 7521 H 723.968 1.7993 -2.55013 0
M  V30 7522 N 724.269 1.44576 0.627338 0
M  V30 7523 C 725.217 1.52039 1.76031 0
M  V30 7524 C 726.211 0.391796 1.64807 0
M  V30 7525 O 727.417 0.5669 1.7084 0
M  V30 7526 H 723.792 0.477165 0.581221 0
M  V30 7527 H 725.763 2.47387 1.6686 0
M  V30 7528 C 724.512 1.48539 3.14375 0
M  V30 7529 H 723.835 2.34699 3.23661 0
M  V30 7530 H 725.275 1.57821 3.93534 0
M  V30 7531 C 723.734 0.20672 3.36265 0
M  V30 7532 O 724.264 -0.72154 3.95167 0
M  V30 7533 N 722.47 0.108654 2.90397 0
M  V30 7534 H 722.017 0.864884 2.42647 0
M  V30 7535 H 721.975 -0.746121 3.05418 0
M  V30 7536 N 725.747 -0.868086 1.31537 0
M  V30 7537 C 726.995 -1.61807 1.21091 0
M  V30 7538 C 727.316 -1.93631 -0.230623 0
M  V30 7539 O 726.586 -1.5846 -1.15183 0
M  V30 7540 H 725.166 -0.599854 0.445178 0
M  V30 7541 H 727.828 -1.03915 1.64887 0
M  V30 7542 H 726.924 -2.56088 1.78396 0
M  V30 7543 N 727.225 -1.14528 -1.08264 0
M  V30 7544 C 728.641 -0.885976 -1.3275 0
M  V30 7545 C 728.841 0.472096 -1.95892 0
M  V30 7546 O 727.897 1.21606 -2.21288 0
M  V30 7547 C 729.21 -2.01982 -2.22764 0
M  V30 7548 C 730.758 -2.05329 -2.36239 0
M  V30 7549 C 731.233 -3.1801 -3.29596 0
M  V30 7550 N 732.724 -3.17598 -3.37173 0
M  V30 7551 C 733.459 -4.01426 -4.09444 0
M  V30 7552 N 732.955 -4.95297 -4.8441 0
M  V30 7553 N 734.748 -3.89482 -4.0529 0
M  V30 7554 H 726.899 -2.01996 -0.656607 0
M  V30 7555 H 729.162 -0.880274 -0.351884 0
M  V30 7556 H 728.868 -2.99964 -1.83615 0
M  V30 7557 H 728.742 -1.94421 -3.23234 0
M  V30 7558 H 731.129 -1.07953 -2.74646 0
M  V30 7559 H 731.21 -2.1696 -1.35506 0
M  V30 7560 H 730.854 -4.15633 -2.9191 0
M  V30 7561 H 730.784 -3.03616 -4.30261 0
M  V30 7562 H 733.275 -2.4961 -2.83731 0
M  V30 7563 H 733.588 -5.55723 -5.37021 0
M  V30 7564 H 731.933 -4.99293 -4.83457 0
M  V30 7565 H 735.124 -3.15465 -3.45832 0
M  V30 7566 H 735.297 -4.55039 -4.6135 0
M  V30 7567 N 728.703 1.26451 -0.940633 0
M  V30 7568 C 729.613 2.30128 -0.455881 0
M  V30 7569 C 730.629 1.67536 0.469867 0
M  V30 7570 O 731.805 1.98344 0.349529 0
M  V30 7571 C 728.87 3.45634 0.271648 0
M  V30 7572 C 727.931 4.23709 -0.690594 0
M  V30 7573 C 727.164 5.337 0.00231047 0
M  V30 7574 O 727.387 5.57215 1.21935 0
M  V30 7575 O 726.321 5.98091 -0.676111 0
M  V30 7576 H 730.147 2.73655 -1.31707 0
M  V30 7577 H 727.732 1.3164 -0.706497 0
M  V30 7578 H 729.614 4.15853 0.681486 0
M  V30 7579 H 728.289 3.04138 1.10824 0
M  V30 7580 H 727.196 3.55974 -1.15037 0
M  V30 7581 H 728.529 4.68953 -1.49478 0
M  V30 7582 N 730.181 0.707592 1.40822 0
M  V30 7583 C 731.114 -0.000859377 2.282 0
M  V30 7584 C 732.092 -0.7758 1.42899 0
M  V30 7585 O 733.276 -0.76411 1.72318 0
M  V30 7586 C 730.403 -1.00861 3.23334 0
M  V30 7587 C 729.449 -0.32543 4.25257 0
M  V30 7588 S 730.282 0.940908 5.27169 0
M  V30 7589 C 731.438 -0.0649459 6.25866 0
M  V30 7590 H 731.671 0.740207 2.87938 0
M  V30 7591 H 729.204 0.498311 1.46138 0
M  V30 7592 H 731.162 -1.58485 3.78672 0
M  V30 7593 H 729.823 -1.72233 2.62668 0
M  V30 7594 H 729.016 -1.08697 4.92139 0
M  V30 7595 H 728.618 0.178044 3.73576 0
M  V30 7596 H 730.91 -0.914377 6.71301 0
M  V30 7597 H 731.853 0.570276 7.058 0
M  V30 7598 H 732.261 -0.425098 5.62897 0
M  V30 7599 N 731.66 -1.50943 0.453197 0
M  V30 7600 C 732.908 -2.01813 -0.107709 0
M  V30 7601 C 733.229 -1.33841 -1.41816 0
M  V30 7602 O 732.499 -0.477973 -1.8998 0
M  V30 7603 H 731.079 -0.745773 -0.0427948 0
M  V30 7604 H 733.741 -1.8545 0.599531 0
M  V30 7605 H 732.837 -3.10911 -0.27218 0
M  V30 7606 N 733.138 -0.185124 -1.56509 0
M  V30 7607 C 734.048 0.751908 -2.22224 0
M  V30 7608 C 735.064 1.24244 -1.21817 0
M  V30 7609 O 736.24 1.29169 -1.54523 0
M  V30 7610 C 733.305 1.95837 -2.86092 0
M  V30 7611 C 732.366 1.51337 -4.01741 0
M  V30 7612 C 731.599 2.66233 -4.62554 0
M  V30 7613 O 731.822 3.8346 -4.22273 0
M  V30 7614 O 730.756 2.39517 -5.52191 0
M  V30 7615 H 734.582 0.222304 -3.02885 0
M  V30 7616 H 732.167 0.0437141 -1.49336 0
M  V30 7617 H 734.049 2.66368 -3.26536 0
M  V30 7618 H 732.724 2.47677 -2.08417 0
M  V30 7619 H 731.631 0.777155 -3.65939 0
M  V30 7620 H 732.964 1.04175 -4.81049 0
M  V30 7621 N 734.616 1.57351 0.0885366 0
M  V30 7622 C 735.863 1.86419 0.790824 0
M  V30 7623 C 736.191 0.774561 1.78412 0
M  V30 7624 O 735.446 -0.23119 1.9433 0
M  V30 7625 C 735.745 3.22098 1.5488 0
M  V30 7626 C 735.411 4.4548 0.697025 0
M  V30 7627 C 734.073 4.78975 0.462237 0
M  V30 7628 C 736.425 5.21094 0.105315 0
M  V30 7629 C 733.753 5.85507 -0.374016 0
M  V30 7630 C 736.105 6.28509 -0.718298 0
M  V30 7631 C 734.769 6.60515 -0.963116 0
M  V30 7632 H 734.039 0.682157 0.289383 0
M  V30 7633 H 736.686 1.91429 0.0520961 0
M  V30 7634 H 734.991 3.12803 2.35927 0
M  V30 7635 H 736.688 3.41819 2.09669 0
M  V30 7636 H 733.278 4.19255 0.890137 0
M  V30 7637 H 737.462 4.95544 0.273856 0
M  V30 7638 H 732.718 6.08713 -0.572606 0
M  V30 7639 H 736.892 6.86268 -1.18362 0
M  V30 7640 H 734.519 7.42893 -1.6129 0
M  V30 7641 N 736.094 -0.359525 1.53444 0
M  V30 7642 C 737.342 -1.09935 1.69584 0
M  V30 7643 C 737.663 -1.89656 0.453371 0
M  V30 7644 O 736.933 -1.8852 -0.53263 0
M  V30 7645 H 735.513 -0.408843 0.625185 0
M  V30 7646 H 738.175 -0.40467 1.90653 0
M  V30 7647 H 737.271 -1.78575 2.55964 0
M  V30 7648 N 737.572 -1.44907 -0.619662 0
M  V30 7649 C 738.502 -1.55488 -1.742 0
M  V30 7650 C 739.483 -0.407143 -1.65156 0
M  V30 7651 O 740.668 -0.628743 -1.8374 0
M  V30 7652 C 737.798 -1.5097 -3.1277 0
M  V30 7653 C 736.752 -2.64337 -3.36615 0
M  V30 7654 C 736.078 -2.44872 -4.75333 0
M  V30 7655 C 737.378 -4.06423 -3.28051 0
M  V30 7656 H 739.072 -2.49432 -1.65602 0
M  V30 7657 H 736.618 -1.20047 -0.795281 0
M  V30 7658 H 738.571 -1.56971 -3.91073 0
M  V30 7659 H 737.295 -0.535486 -3.2218 0
M  V30 7660 H 735.954 -2.57744 -2.60698 0
M  V30 7661 H 735.602 -1.45617 -4.81461 0
M  V30 7662 H 735.302 -3.20888 -4.92244 0
M  V30 7663 H 736.826 -2.52709 -5.55851 0
M  V30 7664 H 738.24 -4.14324 -3.96243 0
M  V30 7665 H 736.637 -4.82733 -3.56495 0
M  V30 7666 H 737.707 -4.29183 -2.25676 0
M  V30 7667 N 739.05 0.861098 -1.31996 0
M  V30 7668 C 740.466 1.14827 -1.10846 0
M  V30 7669 C 740.666 2.0117 0.11528 0
M  V30 7670 O 739.722 2.39423 0.802048 0
M  V30 7671 C 741.035 1.83183 -2.38462 0
M  V30 7672 C 742.583 1.95847 -2.44158 0
M  V30 7673 C 743.058 2.67617 -3.71679 0
M  V30 7674 N 744.549 2.75147 -3.72624 0
M  V30 7675 C 745.284 3.31314 -4.67994 0
M  V30 7676 N 744.78 3.88343 -5.73726 0
M  V30 7677 N 746.573 3.29356 -4.55501 0
M  V30 7678 H 738.724 0.285951 -2.10466 0
M  V30 7679 H 740.987 0.189303 -0.928907 0
M  V30 7680 H 740.693 1.27193 -3.27895 0
M  V30 7681 H 740.567 2.83393 -2.48935 0
M  V30 7682 H 742.954 2.50999 -1.55189 0
M  V30 7683 H 743.035 0.94653 -2.37644 0
M  V30 7684 H 742.679 2.13131 -4.61018 0
M  V30 7685 H 742.609 3.69237 -3.75462 0
M  V30 7686 H 745.1 2.34682 -2.96197 0
M  V30 7687 H 745.413 4.29338 -6.42564 0
M  V30 7688 H 743.758 3.86693 -5.77489 0
M  V30 7689 H 746.949 2.84047 -3.72069 0
M  V30 7690 H 747.122 3.7283 -5.30001 0
M  V30 7691 N 740.528 1.15101 1.07655 0
M  V30 7692 C 741.438 0.858869 2.18313 0
M  V30 7693 C 742.454 -0.163641 1.73229 0
M  V30 7694 O 743.63 0.00969541 2.01398 0
M  V30 7695 C 740.695 0.34893 3.4494 0
M  V30 7696 C 739.756 1.43495 4.04608 0
M  V30 7697 C 738.989 0.949253 5.2519 0
M  V30 7698 O 739.212 -0.20636 5.70027 0
M  V30 7699 O 738.146 1.73161 5.76454 0
M  V30 7700 H 741.972 1.78386 2.45788 0
M  V30 7701 H 739.557 0.929876 1.16934 0
M  V30 7702 H 741.439 0.070851 4.2134 0
M  V30 7703 H 740.114 -0.548237 3.19024 0
M  V30 7704 H 739.021 1.7666 3.29761 0
M  V30 7705 H 740.354 2.30692 4.3479 0
M  V30 7706 N 742.006 -1.2595 0.947325 0
M  V30 7707 C 743.236 -1.97258 0.614235 0
M  V30 7708 C 743.644 -1.70682 -0.816355 0
M  V30 7709 O 742.987 -0.97527 -1.55673 0
M  V30 7710 C 743.049 -3.50845 0.784081 0
M  V30 7711 C 742.713 -4.01084 2.19045 0
M  V30 7712 C 743.71 -4.12347 3.16648 0
M  V30 7713 C 741.395 -4.34936 2.51268 0
M  V30 7714 C 743.389 -4.56766 4.44572 0
M  V30 7715 C 741.076 -4.79043 3.79422 0
M  V30 7716 C 742.074 -4.89919 4.75887 0
M  V30 7717 O 741.762 -5.3305 6.01758 0
M  V30 7718 H 741.494 -0.635738 0.22981 0
M  V30 7719 H 744.048 -1.61268 1.27207 0
M  V30 7720 H 742.278 -3.86638 0.069101 0
M  V30 7721 H 743.967 -4.03363 0.453135 0
M  V30 7722 H 744.733 -3.86432 2.93079 0
M  V30 7723 H 740.612 -4.25702 1.76916 0
M  V30 7724 H 744.156 -4.6517 5.19868 0
M  V30 7725 H 740.053 -5.04402 4.02802 0
M  V30 7726 H 740.821 -5.51255 6.05029 0
M  V30 7727 N 743.484 -0.715051 -1.40445 0
M  V30 7728 C 744.709 -0.26254 -2.05732 0
M  V30 7729 C 745.134 1.08691 -1.53519 0
M  V30 7730 O 744.492 1.68453 -0.670328 0
M  V30 7731 C 744.54 -0.25195 -3.59719 0
M  V30 7732 O 743.644 0.766998 -4.05205 0
M  V30 7733 H 742.985 -0.123398 -0.652433 0
M  V30 7734 H 745.515 -0.975382 -1.79854 0
M  V30 7735 H 745.525 -0.0894537 -4.07902 0
M  V30 7736 H 744.2 -1.23672 -3.97087 0
M  V30 7737 H 742.777 0.572269 -3.68483 0
M  V30 7738 N 744.962 1.50701 -0.461195 0
M  V30 7739 C 745.872 2.32069 0.343661 0
M  V30 7740 C 746.888 1.42016 1.00535 0
M  V30 7741 O 748.064 1.75077 0.995498 0
M  V30 7742 C 745.129 3.16424 1.41692 0
M  V30 7743 C 744.19 4.22286 0.772869 0
M  V30 7744 C 743.423 5.02609 1.79499 0
M  V30 7745 O 743.646 4.83874 3.0203 0
M  V30 7746 O 742.58 5.86047 1.3723 0
M  V30 7747 H 746.406 3.01996 -0.321268 0
M  V30 7748 H 743.991 1.47723 -0.223235 0
M  V30 7749 H 745.873 3.68795 2.03883 0
M  V30 7750 H 744.548 2.49236 2.0655 0
M  V30 7751 H 743.455 3.73931 0.112277 0
M  V30 7752 H 744.788 4.91915 0.167399 0
M  V30 7753 N 746.441 0.193421 1.56409 0
M  V30 7754 C 747.687 -0.446449 1.97825 0
M  V30 7755 C 748.02 -1.61386 1.08019 0
M  V30 7756 O 747.295 -1.94053 0.131839 0
M  V30 7757 C 747.578 -0.908199 3.48459 0
M  V30 7758 C 747.431 0.260914 4.49043 0
M  V30 7759 C 748.75 -1.77428 4.0275 0
M  V30 7760 H 745.869 -0.160807 0.719243 0
M  V30 7761 H 748.511 0.284006 1.87865 0
M  V30 7762 H 746.661 -1.53062 3.57077 0
M  V30 7763 H 748.333 0.898548 4.52464 0
M  V30 7764 H 746.576 0.912949 4.24085 0
M  V30 7765 H 747.247 -0.104657 5.51901 0
M  V30 7766 H 749.723 -1.24936 3.96901 0
M  V30 7767 H 748.599 -2.06633 5.08521 0
M  V30 7768 H 748.86 -2.72788 3.47907 0
M  V30 7769 N 747.919 -1.57396 -0.0801906 0
M  V30 7770 C 748.866 -2.03107 -1.09618 0
M  V30 7771 C 749.836 -0.910118 -1.38946 0
M  V30 7772 O 751.021 -1.17719 -1.50156 0
M  V30 7773 C 748.161 -2.47293 -2.40708 0
M  V30 7774 C 747.274 -3.72972 -2.17982 0
M  V30 7775 C 746.409 -4.05975 -3.42576 0
M  V30 7776 C 745.448 -5.24719 -3.15177 0
M  V30 7777 N 744.585 -5.53401 -4.32078 0
M  V30 7778 H 749.425 -2.89677 -0.69939 0
M  V30 7779 H 746.962 -1.43263 -0.333785 0
M  V30 7780 H 748.92 -2.7096 -3.17232 0
M  V30 7781 H 747.55 -1.63713 -2.78205 0
M  V30 7782 H 746.602 -3.56693 -1.32189 0
M  V30 7783 H 747.914 -4.59638 -1.93738 0
M  V30 7784 H 747.068 -4.30498 -4.275 0
M  V30 7785 H 745.807 -3.17859 -3.69887 0
M  V30 7786 H 744.812 -5 -2.28648 0
M  V30 7787 H 746.037 -6.14445 -2.89197 0
M  V30 7788 H 743.983 -4.68245 -4.59437 0
M  V30 7789 H 743.9 -6.34469 -4.11078 0
M  V30 7790 H 745.168 -5.8247 -5.18024 0
M  V30 7791 N 749.397 0.351382 -1.53633 0
M  V30 7792 C 750.625 1.11275 -1.74429 0
M  V30 7793 C 751.04 1.82602 -0.479798 0
M  V30 7794 O 750.397 1.74074 0.548125 0
M  V30 7795 C 750.448 2.13223 -2.91921 0
M  V30 7796 O 750.169 1.44798 -4.13479 0
M  V30 7797 C 751.67 3.01797 -3.24706 0
M  V30 7798 H 748.89 0.332153 -0.583023 0
M  V30 7799 H 751.434 0.405974 -2.0043 0
M  V30 7800 H 749.589 2.79477 -2.68274 0
M  V30 7801 H 750.003 2.12839 -4.79374 0
M  V30 7802 H 751.477 3.69282 -4.10286 0
M  V30 7803 H 751.954 3.67387 -2.40673 0
M  V30 7804 H 752.56 2.41141 -3.5033 0
M  V30 7805 N 750.875 1.45233 0.611969 0
M  V30 7806 C 752.121 1.49242 1.37312 0
M  V30 7807 C 752.454 0.131963 1.93751 0
M  V30 7808 O 751.729 -0.852999 1.74798 0
M  V30 7809 C 752.012 2.56811 2.52428 0
M  V30 7810 C 751.865 4.02284 2.01215 0
M  V30 7811 C 753.184 2.60705 3.54572 0
M  V30 7812 H 750.303 0.54336 0.497925 0
M  V30 7813 H 752.945 1.77019 0.690242 0
M  V30 7814 H 751.095 2.33256 3.10683 0
M  V30 7815 H 752.767 4.37035 1.47643 0
M  V30 7816 H 751.01 4.1315 1.32248 0
M  V30 7817 H 751.681 4.7323 2.84178 0
M  V30 7818 H 754.157 2.81799 3.06151 0
M  V30 7819 H 753.033 3.37841 4.32614 0
M  V30 7820 H 753.294 1.65627 4.09903 0
M  V30 7821 N 752.353 -0.854086 1.3245 0
M  V30 7822 C 753.581 -1.64074 1.26045 0
M  V30 7823 C 753.996 -1.8802 -0.171456 0
M  V30 7824 O 753.353 -1.4496 -1.10873 0
M  V30 7825 C 753.404 -2.9997 2.01743 0
M  V30 7826 O 753.125 -2.77084 3.39346 0
M  V30 7827 C 754.626 -3.94414 2.02368 0
M  V30 7828 H 751.846 -0.511015 0.434862 0
M  V30 7829 H 754.39 -1.06494 1.74583 0
M  V30 7830 H 752.545 -3.54193 1.56926 0
M  V30 7831 H 752.959 -3.63514 3.78098 0
M  V30 7832 H 754.433 -4.87032 2.59815 0
M  V30 7833 H 754.91 -4.27427 1.01009 0
M  V30 7834 H 755.516 -3.46127 2.47135 0
M  V30 7835 N 753.831 -1.1567 -1.07043 0
M  V30 7836 C 755.077 -0.9349 -1.79965 0
M  V30 7837 C 755.41 0.536464 -1.86643 0
M  V30 7838 O 754.685 1.39781 -1.35247 0
M  V30 7839 C 754.968 -1.55371 -3.24857 0
M  V30 7840 C 754.821 -3.09589 -3.26305 0
M  V30 7841 C 756.14 -1.24209 -4.22209 0
M  V30 7842 H 753.259 -0.341061 -0.653335 0
M  V30 7843 H 755.901 -1.42883 -1.25237 0
M  V30 7844 H 754.051 -1.13368 -3.71591 0
M  V30 7845 H 755.723 -3.60521 -2.87789 0
M  V30 7846 H 753.966 -3.43315 -2.65174 0
M  V30 7847 H 754.637 -3.48002 -4.28484 0
M  V30 7848 H 757.113 -1.60548 -3.8388 0
M  V30 7849 H 755.989 -1.70119 -5.21872 0
M  V30 7850 H 756.25 -0.15964 -4.41812 0
M  V30 7851 N 755.309 1.25446 -0.953992 0
M  V30 7852 C 756.256 2.25912 -0.472485 0
M  V30 7853 C 757.226 1.59173 0.47469 0
M  V30 7854 O 758.411 1.86812 0.388082 0
M  V30 7855 C 755.551 3.44235 0.244218 0
M  V30 7856 C 754.664 4.25613 -0.740121 0
M  V30 7857 C 753.799 5.312 -0.000922267 0
M  V30 7858 C 752.838 6.04265 -0.976236 0
M  V30 7859 N 751.975 7.01589 -0.267952 0
M  V30 7860 H 756.815 2.66469 -1.3341 0
M  V30 7861 H 754.352 1.31005 -0.669045 0
M  V30 7862 H 756.31 4.11682 0.676314 0
M  V30 7863 H 754.94 3.04554 1.06988 0
M  V30 7864 H 753.992 3.57834 -1.2907 0
M  V30 7865 H 755.304 4.762 -1.48441 0
M  V30 7866 H 754.458 6.04719 0.48984 0
M  V30 7867 H 753.197 4.81484 0.776159 0
M  V30 7868 H 752.202 5.29561 -1.478 0
M  V30 7869 H 753.427 6.5607 -1.75354 0
M  V30 7870 H 751.373 6.54164 0.490403 0
M  V30 7871 H 751.29 7.4999 -0.951344 0
M  V30 7872 H 752.558 7.7924 0.201294 0
M  V30 7873 N 756.787 0.722489 1.40064 0
M  V30 7874 C 758.036 0.261932 1.99992 0
M  V30 7875 C 758.349 -1.15358 1.57961 0
M  V30 7876 O 759.555 -1.71301 2.10637 0
M  V30 7877 C 758.011 0.41737 3.57472 0
M  V30 7878 C 757.619 1.83997 4.08472 0
M  V30 7879 C 759.363 0.0179561 4.24496 0
M  V30 7880 C 757.27 1.94563 5.5848 0
M  V30 7881 H 756.2 0.0941768 0.748095 0
M  V30 7882 H 758.851 0.894572 1.60218 0
M  V30 7883 H 757.233 -0.283965 3.94981 0
M  V30 7884 H 758.407 2.57224 3.82325 0
M  V30 7885 H 756.722 2.19147 3.54067 0
M  V30 7886 H 759.319 0.076085 5.34646 0
M  V30 7887 H 759.662 -1.02498 4.03485 0
M  V30 7888 H 760.195 0.669988 3.92117 0
M  V30 7889 H 756.934 2.97001 5.84355 0
M  V30 7890 H 756.454 1.25756 5.86469 0
M  V30 7891 H 758.133 1.72095 6.23692 0
M  V30 7892 N 758.265 -1.50454 0.469181 0
M  V30 7893 C 759.676 -1.86695 0.0136034 0
M  V30 7894 C 760.027 -1.38413 -1.39055 0
M  V30 7895 O 759.152 -0.748294 -2.03051 0
M  V30 7896 C 759.747 -3.38795 0.0179098 0
M  V30 7897 C 758.306 -3.74455 -0.382191 0
M  V30 7898 C 757.453 -2.74338 0.404207 0
M  V30 7899 H 760.404 -1.43225 0.683547 0
M  V30 7900 H 760.425 -3.72321 -0.78468 0
M  V30 7901 H 759.937 -3.73906 1.04 0
M  V30 7902 H 758.038 -3.44944 -1.4087 0
M  V30 7903 H 758.151 -4.79025 -0.084862 0
M  V30 7904 H 756.515 -2.54305 -0.141829 0
M  V30 7905 H 757.298 -3.12293 1.42577 0
M  V30 7906 N 759.743 -0.201713 -1.56304 0
M  V30 7907 C 760.675 0.748466 -2.16635 0
M  V30 7908 C 761.688 1.172 -1.12996 0
M  V30 7909 O 762.877 1.10658 -1.40061 0
M  V30 7910 C 759.977 2.02296 -2.719 0
M  V30 7911 C 759.15 1.75818 -4.00508 0
M  V30 7912 C 758.209 2.87779 -4.40533 0
M  V30 7913 O 757.235 2.57101 -5.07826 0
M  V30 7914 N 758.437 4.16287 -4.04581 0
M  V30 7915 H 761.202 0.232505 -2.98797 0
M  V30 7916 H 758.763 -0.0199822 -1.61888 0
M  V30 7917 H 760.755 2.7635 -2.95657 0
M  V30 7918 H 759.325 2.44996 -1.94154 0
M  V30 7919 H 758.545 0.855095 -3.84814 0
M  V30 7920 H 759.833 1.55532 -4.84445 0
M  V30 7921 H 759.231 4.44061 -3.50466 0
M  V30 7922 H 757.788 4.86946 -4.33274 0
M  V30 7923 N 761.222 1.57436 0.0718424 0
M  V30 7924 C 762.169 2.03686 1.08539 0
M  V30 7925 C 763.139 0.917474 1.38462 0
M  V30 7926 O 764.324 1.18513 1.4953 0
M  V30 7927 C 761.464 2.48566 2.39393 0
M  V30 7928 C 760.577 3.74122 2.16001 0
M  V30 7929 C 759.712 4.07786 3.40418 0
M  V30 7930 C 758.751 5.26383 3.1239 0
M  V30 7931 N 757.888 5.55685 4.29138 0
M  V30 7932 H 762.728 2.90043 0.684018 0
M  V30 7933 H 760.265 1.43438 0.326183 0
M  V30 7934 H 762.223 2.72639 3.15791 0
M  V30 7935 H 760.853 1.65186 2.77333 0
M  V30 7936 H 759.905 3.57389 1.30296 0
M  V30 7937 H 761.217 4.60659 1.91298 0
M  V30 7938 H 760.371 4.32759 4.25211 0
M  V30 7939 H 759.11 3.19817 3.68197 0
M  V30 7940 H 758.115 5.01206 2.25993 0
M  V30 7941 H 759.34 6.1597 2.85934 0
M  V30 7942 H 757.286 4.70675 4.56948 0
M  V30 7943 H 757.203 6.3664 4.07708 0
M  V30 7944 H 758.471 5.85209 5.14928 0
M  V30 7945 N 762.7 -0.34323 1.53817 0
M  V30 7946 C 763.648 -1.44176 1.82527 0
M  V30 7947 C 764.642 -1.54452 0.695772 0
M  V30 7948 O 765.848 -1.57072 0.879114 0
M  V30 7949 H 762.223 -0.480729 0.578277 0
M  V30 7950 H 764.194 -1.17176 2.74431 0
M  V30 7951 C 762.943 -2.80695 2.05197 0
M  V30 7952 H 762.266 -2.73554 2.91561 0
M  V30 7953 H 763.706 -3.56679 2.29251 0
M  V30 7954 C 762.165 -3.26322 0.837589 0
M  V30 7955 O 762.695 -4.01683 0.0371631 0
M  V30 7956 N 760.901 -2.83128 0.654724 0
M  V30 7957 H 760.448 -2.21965 1.30725 0
M  V30 7958 H 760.406 -3.14011 -0.156345 0
M  V30 7959 N 764.178 -1.45556 -0.604258 0
M  V30 7960 C 765.403 -1.53509 -1.39462 0
M  V30 7961 C 765.828 -0.169638 -1.87333 0
M  V30 7962 O 765.186 0.846346 -1.60333 0
M  V30 7963 C 765.234 -2.52654 -2.5729 0
M  V30 7964 O 764.338 -2.04666 -3.5803 0
M  V30 7965 H 763.679 -0.517355 -0.416221 0
M  V30 7966 H 766.209 -1.90939 -0.735072 0
M  V30 7967 H 766.219 -2.71568 -3.04491 0
M  V30 7968 H 764.894 -3.51823 -2.21797 0
M  V30 7969 H 763.471 -1.95643 -3.17456 0
M  V30 7970 O 765.695 0.748196 -1.43123 0
M  V30 7971 H 766.386 1.39718 -1.34159 0
M  V30 END ATOM
M  V30 BEGIN BOND
M  V30 END BOND
M  V30 END CTAB
M  END
$$$$
