drugbank_target|O14874 [3-methyl-2-oxobutanoate dehydrogenase [lipoamide]] kinase, mitochondrial (DB02930)
 OpenBabel12092120553D

  0  0  0     0  0            999 V3000
M  V30 BEGIN CTAB
M  V30 COUNTS 6562 6635 0 0 0
M  V30 BEGIN ATOM
M  V30 1 H -0.908 1.98254 -0.117106 0
M  V30 2 N 0 1.576 0 0
M  V30 3 C 0.933 2.03868 1.02534 0
M  V30 4 C 1.911 0.928543 1.3348 0
M  V30 5 O 3.095 1.19667 1.45644 0
M  V30 6 C 0.222 2.43627 2.35294 0
M  V30 7 C -0.732 3.65373 2.2001 0
M  V30 8 S 0.101 5.13292 1.52614 0
M  V30 9 C 1.257 5.56322 2.86805 0
M  V30 10 H 1.49 2.90518 0.631377 0
M  V30 11 H -0.977 1.52953 0.210867 0
M  V30 12 H 0.981 2.67203 3.11629 0
M  V30 13 H -0.358 1.57376 2.7183 0
M  V30 14 H -1.165 3.90944 3.18086 0
M  V30 15 H -1.563 3.418 1.51819 0
M  V30 16 H 0.729 5.58782 3.83104 0
M  V30 17 H 1.672 6.56266 2.65933 0
M  V30 18 H 2.08 4.83886 2.90714 0
M  V30 19 N 1.4781 -0.272755 1.55222 0
M  V30 20 C 2.7271 -1.00211 1.75045 0
M  V30 21 C 3.0401 -1.87441 0.559046 0
M  V30 22 O 4.2461 -2.63856 0.639698 0
M  V30 23 C 2.7021 -1.83165 3.09804 0
M  V30 24 C 2.3101 -1.008 4.36513 0
M  V30 25 C 4.0541 -2.55529 3.38977 0
M  V30 26 C 1.9611 -1.83194 5.62311 0
M  V30 27 H 0.8911 -0.377878 0.652476 0
M  V30 28 H 3.5421 -0.257776 1.8168 0
M  V30 29 H 1.9241 -2.61694 2.97207 0
M  V30 30 H 3.0981 -0.266855 4.60027 0
M  V30 31 H 1.4131 -0.398897 4.14485 0
M  V30 32 H 4.0101 -3.17578 4.30172 0
M  V30 33 H 4.3531 -3.25825 2.59121 0
M  V30 34 H 4.8861 -1.84029 3.52673 0
M  V30 35 H 1.6251 -1.17318 6.44916 0
M  V30 36 H 1.1451 -2.54905 5.4294 0
M  V30 37 H 2.8241 -2.40552 6.00619 0
M  V30 38 N 2.9562 -1.48159 -0.537278 0
M  V30 39 C 3.8862 -1.65029 -1.6519 0
M  V30 40 C 4.8672 -0.499281 -1.62607 0
M  V30 41 O 6.0522 -0.730972 -1.79918 0
M  V30 42 C 3.1822 -1.68303 -3.03795 0
M  V30 43 C 2.1362 -2.8283 -3.21234 0
M  V30 44 C 1.4622 -2.71189 -4.60826 0
M  V30 45 C 2.7622 -4.24211 -3.04701 0
M  V30 46 H 4.4562 -2.58341 -1.51328 0
M  V30 47 H 2.0022 -1.24325 -0.726585 0
M  V30 48 H 3.9552 -1.78693 -3.81637 0
M  V30 49 H 2.6792 -0.715635 -3.18663 0
M  V30 50 H 1.3382 -2.71983 -2.45807 0
M  V30 51 H 0.9862 -1.72435 -4.7252 0
M  V30 52 H 0.6862 -3.48035 -4.7344 0
M  V30 53 H 2.2102 -2.83537 -5.40777 0
M  V30 54 H 3.6242 -4.3593 -3.72341 0
M  V30 55 H 2.0212 -5.01998 -3.28813 0
M  V30 56 H 3.0912 -4.41184 -2.01209 0
M  V30 57 N 4.4343 0.785586 -1.36625 0
M  V30 58 C 5.3973 1.87999 -1.31107 0
M  V30 59 C 6.3973 1.59316 -0.217959 0
M  V30 60 O 7.5873 1.67656 -0.472977 0
M  V30 61 C 4.7193 3.24861 -1.03334 0
M  V30 62 H 5.9123 1.94307 -2.2844 0
M  V30 63 H 3.4653 0.983813 -1.21453 0
M  V30 64 H 4.2003 3.24235 -0.0647432 0
M  V30 65 H 3.9853 3.4707 -1.82441 0
M  V30 66 H 5.4753 4.04929 -1.02088 0
M  V30 67 N 5.9124 1.20967 1.01018 0
M  V30 68 C 7.1374 1.0503 1.78839 0
M  V30 69 C 7.5624 -0.395752 1.8389 0
M  V30 70 O 6.9204 -1.28529 1.27867 0
M  V30 71 C 6.9684 1.64602 3.2084 0
M  V30 72 O 6.0724 0.887988 4.02726 0
M  V30 73 H 5.4134 0.369987 0.551367 0
M  V30 74 H 7.9434 1.60399 1.27018 0
M  V30 75 H 7.9534 1.68607 3.71532 0
M  V30 76 H 6.6284 2.69841 3.16479 0
M  V30 77 H 5.2054 0.922648 3.61305 0
M  V30 78 N 7.3905 -1.2043 1.01659 0
M  V30 79 C 8.6365 -1.90079 0.706963 0
M  V30 80 C 8.9695 -1.78648 -0.761474 0
M  V30 81 O 8.2445 -1.17069 -1.55323 0
M  V30 82 C 8.5275 -3.41469 1.14327 0
M  V30 83 C 8.3805 -3.61833 2.67201 0
M  V30 84 C 9.6995 -4.34261 0.714529 0
M  V30 85 H 6.8185 -0.690254 0.2583 0
M  V30 86 H 9.4605 -1.41826 1.26433 0
M  V30 87 H 7.6105 -3.82696 0.669056 0
M  V30 88 H 9.2825 -3.2986 3.22475 0
M  V30 89 H 7.5255 -3.05304 3.08175 0
M  V30 90 H 8.1965 -4.67955 2.92783 0
M  V30 91 H 10.6725 -4.00682 1.12221 0
M  V30 92 H 9.5485 -5.38806 1.04784 0
M  V30 93 H 9.8095 -4.40431 -0.383799 0
M  V30 94 N 8.8686 -0.792821 -1.36206 0
M  V30 95 C 9.7986 -0.207853 -2.32573 0
M  V30 96 C 10.7796 0.659055 -1.56813 0
M  V30 97 O 11.9646 0.592176 -1.84951 0
M  V30 98 C 9.0946 0.655449 -3.41059 0
M  V30 99 C 8.0486 -0.111842 -4.27854 0
M  V30 100 C 7.3746 0.872274 -5.27537 0
M  V30 101 C 8.6746 -1.30299 -5.05786 0
M  V30 102 H 10.3686 -1.01294 -2.81744 0
M  V30 103 H 7.9146 -0.48854 -1.3546 0
M  V30 104 H 9.8676 1.07464 -4.07467 0
M  V30 105 H 8.5916 1.49328 -2.90463 0
M  V30 106 H 7.2506 -0.512053 -3.63006 0
M  V30 107 H 6.8986 1.70523 -4.73214 0
M  V30 108 H 6.5986 0.363291 -5.86476 0
M  V30 109 H 8.1226 1.28996 -5.96818 0
M  V30 110 H 9.5366 -0.959379 -5.65216 0
M  V30 111 H 7.9336 -1.7455 -5.74154 0
M  V30 112 H 9.0036 -2.09663 -4.37229 0
M  V30 113 N 10.3467 1.47872 -0.545128 0
M  V30 114 C 11.7627 1.5829 -0.204032 0
M  V30 115 C 11.9627 1.54529 1.29317 0
M  V30 116 O 11.0187 1.44232 2.07252 0
M  V30 117 C 12.3317 2.89304 -0.819987 0
M  V30 118 C 13.8797 3.02864 -0.790105 0
M  V30 119 C 14.3547 4.3656 -1.38491 0
M  V30 120 N 15.8457 4.43165 -1.34755 0
M  V30 121 C 16.5807 5.45153 -1.77753 0
M  V30 122 N 16.0767 6.54016 -2.2855 0
M  V30 123 N 17.8697 5.36125 -1.68897 0
M  V30 124 H 10.0207 1.4856 -1.51802 0
M  V30 125 H 12.2837 0.706305 -0.632327 0
M  V30 126 H 11.9897 2.97757 -1.87173 0
M  V30 127 H 11.8637 3.75957 -0.305915 0
M  V30 128 H 14.2507 2.94014 0.252913 0
M  V30 129 H 14.3317 2.17782 -1.34181 0
M  V30 130 H 13.9757 4.46164 -2.42693 0
M  V30 131 H 13.9057 5.20353 -0.808754 0
M  V30 132 H 16.3967 3.65083 -0.975855 0
M  V30 133 H 16.7097 7.27994 -2.59314 0
M  V30 134 H 15.0547 6.54938 -2.32553 0
M  V30 135 H 18.2457 4.49975 -1.28998 0
M  V30 136 H 18.4187 6.15472 -2.02726 0
M  V30 137 N 11.8248 0.280983 1.55075 0
M  V30 138 C 13.0498 -0.340154 2.04592 0
M  V30 139 C 13.4748 -1.48246 1.15779 0
M  V30 140 O 12.8328 -1.80614 0.15761 0
M  V30 141 C 12.8808 -0.793104 3.5177 0
M  V30 142 O 11.9848 -1.89981 3.66034 0
M  V30 143 H 11.3258 -0.0694289 0.66036 0
M  V30 144 H 13.8558 0.416993 2.00306 0
M  V30 145 H 13.8658 -1.08729 3.93245 0
M  V30 146 H 12.5408 0.0426163 4.15878 0
M  V30 147 H 11.1178 -1.60771 3.36463 0
M  V30 148 N 13.3029 -1.57598 0.00835791 0
M  V30 149 C 14.5509 -1.90551 -0.6734 0
M  V30 150 C 14.8719 -0.883301 -1.73847 0
M  V30 151 O 14.1419 0.0781442 -1.95744 0
M  V30 152 H 12.7219 -0.703312 -0.251717 0
M  V30 153 H 15.3839 -1.94833 0.0512592 0
M  V30 154 H 14.4799 -2.9056 -1.13935 0
M  V30 155 N 14.781 0.264519 -1.55364 0
M  V30 156 C 16.192 0.834936 -1.6699 0
M  V30 157 C 16.543 1.86718 -0.602552 0
M  V30 158 O 15.668 2.14899 0.254425 0
M  V30 159 C 16.263 1.5212 -3.02729 0
M  V30 160 C 14.822 2.03954 -3.16354 0
M  V30 161 C 13.969 0.884498 -2.62815 0
M  V30 162 H 16.92 0.0406869 -1.58648 0
M  V30 163 H 16.941 2.38853 -2.96191 0
M  V30 164 H 16.453 0.769668 -3.80392 0
M  V30 165 H 14.554 2.82041 -2.43482 0
M  V30 166 H 14.667 2.24902 -4.23032 0
M  V30 167 H 13.031 1.2802 -2.20188 0
M  V30 168 H 13.814 0.14634 -3.42988 0
M  V30 169 N 16.2591 1.48442 0.529413 0
M  V30 170 C 17.5071 1.56179 1.28267 0
M  V30 171 C 17.8281 0.237721 1.93546 0
M  V30 172 O 17.0981 -0.740779 1.81354 0
M  V30 173 H 15.6781 0.575367 0.476405 0
M  V30 174 H 18.3401 1.84909 0.61602 0
M  V30 175 H 17.4361 2.34312 2.06165 0
M  V30 176 N 17.7372 -0.778329 1.37039 0
M  V30 177 C 18.9852 -1.53361 1.31623 0
M  V30 178 C 19.3062 -1.94739 -0.100831 0
M  V30 179 O 18.5762 -1.65797 -1.04347 0
M  V30 180 H 17.1562 -0.568794 0.484234 0
M  V30 181 H 19.8182 -0.926742 1.71457 0
M  V30 182 H 18.9142 -2.43606 1.95096 0
M  V30 183 N 19.2153 -1.21501 -1.00376 0
M  V30 184 C 20.4633 -1.03095 -1.73827 0
M  V30 185 C 20.7843 0.436341 -1.90055 0
M  V30 186 O 20.0543 1.31466 -1.45236 0
M  V30 187 H 18.6343 -0.378487 -0.644016 0
M  V30 188 H 21.2963 -1.52831 -1.20949 0
M  V30 189 H 20.3923 -1.49991 -2.73695 0
M  V30 190 N 20.6934 1.19889 -1.02296 0
M  V30 191 C 21.6234 2.25141 -0.619174 0
M  V30 192 C 22.6044 1.66051 0.368915 0
M  V30 193 O 23.7894 1.92546 0.252941 0
M  V30 194 C 20.9194 3.4728 0.0368783 0
M  V30 195 C 19.8734 4.19005 -0.872865 0
M  V30 196 C 19.1994 5.34637 -0.0822402 0
M  V30 197 C 20.4994 4.74452 -2.18387 0
M  V30 198 H 22.1934 2.59171 -1.49903 0
M  V30 199 H 19.7394 1.24579 -0.722222 0
M  V30 200 H 21.6924 4.20098 0.330958 0
M  V30 201 H 20.4164 3.12433 0.95149 0
M  V30 202 H 19.0754 3.48061 -1.15105 0
M  V30 203 H 18.7234 4.96034 0.83422 0
M  V30 204 H 18.4234 5.83557 -0.688149 0
M  V30 205 H 19.9474 6.10255 0.205238 0
M  V30 206 H 21.3614 5.39055 -1.95172 0
M  V30 207 H 19.7584 5.33834 -2.74119 0
M  V30 208 H 20.8284 3.92844 -2.84257 0
M  V30 209 N 22.1715 0.800033 1.35784 0
M  V30 210 C 23.5825 0.439142 1.81462 0
M  V30 211 C 23.9335 -1.03813 1.66485 0
M  V30 212 O 23.0585 -1.80626 1.19177 0
M  V30 213 C 23.6535 0.790314 3.29453 0
M  V30 214 C 22.2125 0.482111 3.733 0
M  V30 215 C 21.3595 1.01938 2.57883 0
M  V30 216 H 24.3105 0.992254 1.23855 0
M  V30 217 H 24.3315 0.0853677 3.80404 0
M  V30 218 H 23.8435 1.86554 3.40322 0
M  V30 219 H 21.9445 -0.584652 3.67984 0
M  V30 220 H 22.0575 1.01015 4.6833 0
M  V30 221 H 20.4215 0.442043 2.50835 0
M  V30 222 H 21.2045 2.10059 2.71533 0
M  V30 223 N 23.6496 -1.47581 0.552962 0
M  V30 224 C 24.5796 -2.32762 -0.185451 0
M  V30 225 C 25.5606 -1.43527 -0.912905 0
M  V30 226 O 26.7456 -1.72388 -0.894201 0
M  V30 227 C 23.8756 -3.25219 -1.21859 0
M  V30 228 C 22.8296 -4.23661 -0.607864 0
M  V30 229 C 22.1556 -5.05413 -1.74533 0
M  V30 230 C 23.4556 -5.20481 0.435582 0
M  V30 231 H 25.1496 -2.94749 0.525684 0
M  V30 232 H 22.6956 -1.41738 0.254251 0
M  V30 233 H 24.6486 -3.8365 -1.7433 0
M  V30 234 H 23.3726 -2.61279 -1.95961 0
M  V30 235 H 22.0316 -3.66451 -0.104489 0
M  V30 236 H 21.6796 -4.3788 -2.47529 0
M  V30 237 H 21.3796 -5.72059 -1.34249 0
M  V30 238 H 22.9036 -5.66701 -2.27338 0
M  V30 239 H 24.3176 -5.733 -0.00290157 0
M  V30 240 H 22.7146 -5.95305 0.757067 0
M  V30 241 H 23.7846 -4.66217 1.33303 0
M  V30 242 N 25.1277 -0.289203 -1.54924 0
M  V30 243 C 26.5437 0.0645403 -1.59469 0
M  V30 244 C 26.7437 1.53419 -1.30632 0
M  V30 245 O 25.7997 2.2852 -1.074 0
M  V30 246 C 27.1127 -0.32278 -2.98963 0
M  V30 247 C 28.6607 -0.270564 -3.11828 0
M  V30 248 C 29.1357 -0.632532 -4.53611 0
M  V30 249 N 30.6267 -0.584617 -4.59496 0
M  V30 250 C 31.3617 -0.837314 -5.67254 0
M  V30 251 N 30.8577 -1.15536 -6.83098 0
M  V30 252 N 32.6507 -0.765166 -5.56868 0
M  V30 253 H 24.8017 -1.24714 -1.71931 0
M  V30 254 H 27.0647 -0.504809 -0.802416 0
M  V30 255 H 26.7707 -1.34541 -3.24948 0
M  V30 256 H 26.6447 0.32944 -3.75759 0
M  V30 257 H 29.0317 0.742805 -2.85598 0
M  V30 258 H 29.1127 -0.957242 -2.37214 0
M  V30 259 H 28.7567 -1.64365 -4.80569 0
M  V30 260 H 28.6867 0.07609 -5.26545 0
M  V30 261 H 31.1777 -0.349248 -3.76283 0
M  V30 262 H 31.4907 -1.33447 -7.61191 0
M  V30 263 H 29.8357 -1.19328 -6.84679 0
M  V30 264 H 33.0267 -0.516432 -4.65243 0
M  V30 265 H 33.1997 -0.965477 -6.40767 0
M  V30 266 N 26.6058 1.57591 -0.0167156 0
M  V30 267 C 28.0168 1.79201 0.523834 0
M  V30 268 C 28.3678 0.925796 1.72984 0
M  V30 269 O 27.4928 0.132792 2.15992 0
M  V30 270 C 28.0878 3.25 0.957091 0
M  V30 271 C 26.6468 3.47648 1.44283 0
M  V30 272 C 25.7938 2.74374 0.401757 0
M  V30 273 H 28.7448 1.56831 -0.242816 0
M  V30 274 H 28.7658 3.34031 1.82219 0
M  V30 275 H 28.2778 3.88019 0.0791415 0
M  V30 276 H 26.3788 2.89866 2.34113 0
M  V30 277 H 26.4918 4.56352 1.45877 0
M  V30 278 H 24.8558 2.39485 0.867121 0
M  V30 279 H 25.6388 3.40102 -0.467513 0
M  V30 280 N 28.0839 -0.256276 1.55502 0
M  V30 281 C 29.0139 -1.32102 1.92539 0
M  V30 282 C 29.9949 -1.50684 0.789194 0
M  V30 283 O 31.1799 -1.63449 1.04872 0
M  V30 284 C 28.3099 -2.67752 2.21192 0
M  V30 285 C 27.2639 -2.63878 3.36975 0
M  V30 286 C 26.5899 -4.03236 3.51147 0
M  V30 287 C 27.8899 -2.21682 4.72921 0
M  V30 288 H 29.5839 -1.01351 2.81724 0
M  V30 289 H 27.1299 -0.486105 1.35547 0
M  V30 290 H 29.0829 -3.42365 2.45691 0
M  V30 291 H 27.8069 -3.0012 1.28824 0
M  V30 292 H 26.4659 -1.91722 3.12471 0
M  V30 293 H 26.1139 -4.32854 2.56216 0
M  V30 294 H 25.8139 -4.01535 4.29003 0
M  V30 295 H 27.3379 -4.79563 3.77957 0
M  V30 296 H 28.7519 -2.86023 4.96854 0
M  V30 297 H 27.1489 -2.3111 5.53812 0
M  V30 298 H 28.2189 -1.16833 4.70615 0
M  V30 299 N 29.562 -1.4872 -0.521534 0
M  V30 300 C 30.492 -1.66771 -1.63431 0
M  V30 301 C 31.473 -0.516499 -1.62069 0
M  V30 302 O 32.658 -0.750013 -1.79132 0
M  V30 303 C 29.788 -1.71515 -3.01993 0
M  V30 304 C 28.742 -2.86222 -3.18216 0
M  V30 305 C 28.068 -2.76061 -4.57924 0
M  V30 306 C 29.368 -4.27419 -3.00184 0
M  V30 307 H 31.062 -2.59932 -1.48579 0
M  V30 308 H 28.608 -1.25089 -0.713358 0
M  V30 309 H 30.561 -1.82731 -3.7972 0
M  V30 310 H 29.285 -0.749393 -3.17886 0
M  V30 311 H 27.944 -2.74575 -2.42908 0
M  V30 312 H 27.592 -1.77437 -4.70665 0
M  V30 313 H 27.292 -3.53037 -4.69722 0
M  V30 314 H 28.816 -2.89256 -5.37739 0
M  V30 315 H 30.23 -4.39855 -3.67697 0
M  V30 316 H 28.627 -5.05458 -3.2347 0
M  V30 317 H 29.697 -4.43293 -1.96518 0
M  V30 318 N 31.0401 0.771051 -1.3745 0
M  V30 319 C 32.2881 1.52661 -1.32435 0
M  V30 320 C 32.6091 1.9479 0.0905024 0
M  V30 321 O 31.8791 1.66348 1.03466 0
M  V30 322 H 30.4591 0.566218 -0.487244 0
M  V30 323 H 33.1211 0.917636 -1.71946 0
M  V30 324 H 32.2171 2.42568 -1.96385 0
M  V30 325 N 32.5182 1.22032 0.997298 0
M  V30 326 C 33.9292 1.0397 1.55071 0
M  V30 327 C 34.2802 -0.398192 1.92117 0
M  V30 328 O 33.4052 -1.28254 1.74298 0
M  V30 329 C 34.0002 1.88109 2.81781 0
M  V30 330 C 32.5592 1.74357 3.33581 0
M  V30 331 C 31.7062 1.84846 2.06706 0
M  V30 332 H 34.6572 1.35941 0.818883 0
M  V30 333 H 34.6782 1.39589 3.53971 0
M  V30 334 H 34.1902 2.92754 2.54787 0
M  V30 335 H 32.2912 0.72427 3.65493 0
M  V30 336 H 32.4042 2.56772 4.04481 0
M  V30 337 H 30.7682 1.28238 2.20062 0
M  V30 338 H 31.5512 2.91014 1.82114 0
M  V30 339 N 33.9963 -1.19345 1.0293 0
M  V30 340 C 34.9593 -2.20793 0.615069 0
M  V30 341 C 35.9593 -1.57553 -0.321533 0
M  V30 342 O 37.1493 -1.73862 -0.108483 0
M  V30 343 C 34.2813 -3.40754 -0.0999222 0
M  V30 344 H 35.4743 -2.58955 1.51269 0
M  V30 345 H 33.0273 -1.3303 0.820534 0
M  V30 346 H 33.7623 -3.0811 -1.01187 0
M  V30 347 H 33.5473 -3.87889 0.57309 0
M  V30 348 H 35.0373 -4.15898 -0.376645 0
M  V30 349 N 35.4744 -0.807222 -1.35358 0
M  V30 350 C 36.4044 -0.232509 -2.3234 0
M  V30 351 C 37.3854 0.642386 -1.57504 0
M  V30 352 O 38.5704 0.572526 -1.85569 0
M  V30 353 C 35.7004 0.619238 -3.41735 0
M  V30 354 C 34.6544 -0.157215 -4.27711 0
M  V30 355 C 33.9804 0.816273 -5.28433 0
M  V30 356 C 35.2804 -1.35656 -5.04376 0
M  V30 357 H 36.9744 -1.04276 -2.80654 0
M  V30 358 H 34.5204 -0.50288 -1.34934 0
M  V30 359 H 36.4734 1.03137 -4.08584 0
M  V30 360 H 35.1974 1.46239 -2.92031 0
M  V30 361 H 33.8564 -0.550525 -3.62443 0
M  V30 362 H 33.5044 1.65494 -4.74996 0
M  V30 363 H 33.2044 0.301067 -5.86828 0
M  V30 364 H 34.7284 1.22659 -5.98153 0
M  V30 365 H 36.1424 -1.01927 -5.64166 0
M  V30 366 H 34.5394 -1.8063 -5.7227 0
M  V30 367 H 35.6094 -2.14288 -4.34981 0
M  V30 368 N 36.9525 1.47285 -0.560781 0
M  V30 369 C 37.9155 2.28535 0.174488 0
M  V30 370 C 38.9155 1.37153 0.839388 0
M  V30 371 O 40.1055 1.59748 0.694702 0
M  V30 372 C 37.2375 3.16934 1.25561 0
M  V30 373 H 38.4305 2.95012 -0.539262 0
M  V30 374 H 35.9835 1.53034 -0.317865 0
M  V30 375 H 36.7185 2.55157 2.00164 0
M  V30 376 H 36.5035 3.8419 0.783604 0
M  V30 377 H 37.9935 3.78143 1.77193 0
M  V30 378 N 38.4306 0.297415 1.54768 0
M  V30 379 C 39.3606 -0.573494 2.26348 0
M  V30 380 C 40.3416 -1.14085 1.26169 0
M  V30 381 O 41.5266 -1.17086 1.54934 0
M  V30 382 C 38.6566 -1.74716 3.00153 0
M  V30 383 C 37.6106 -1.31032 4.07449 0
M  V30 384 C 36.9366 -2.56887 4.68949 0
M  V30 385 C 38.2366 -0.444183 5.20408 0
M  V30 386 H 39.9306 0.0235131 2.99391 0
M  V30 387 H 37.4766 0.0127488 1.43994 0
M  V30 388 H 39.4296 -2.3625 3.48947 0
M  V30 389 H 38.1536 -2.37035 2.24682 0
M  V30 390 H 36.8126 -0.718066 3.59499 0
M  V30 391 H 36.4606 -3.17512 3.90122 0
M  V30 392 H 36.1606 -2.2836 5.41411 0
M  V30 393 H 37.6846 -3.19229 5.20505 0
M  V30 394 H 39.0986 -0.9651 5.65118 0
M  V30 395 H 37.4956 -0.252846 5.99567 0
M  V30 396 H 38.5656 0.531609 4.81977 0
M  V30 397 N 39.9087 -1.5758 0.0250728 0
M  V30 398 C 41.3247 -1.56124 -0.331282 0
M  V30 399 C 41.5247 -1.03029 -1.73169 0
M  V30 400 O 40.5807 -0.675215 -2.43305 0
M  V30 401 C 41.8937 -3.00139 -0.183584 0
M  V30 402 C 43.4417 -3.11946 -0.256654 0
M  V30 403 C 43.9167 -4.57793 -0.137792 0
M  V30 404 N 45.4077 -4.6279 -0.194904 0
M  V30 405 C 46.1427 -5.7326 -0.126655 0
M  V30 406 N 45.6387 -6.928 -0.00755288 0
M  V30 407 N 47.4317 -5.61811 -0.180348 0
M  V30 408 H 39.5827 -1.90424 0.94087 0
M  V30 409 H 41.8457 -0.875761 0.362968 0
M  V30 410 H 41.5517 -3.4292 0.780927 0
M  V30 411 H 41.4257 -3.64899 -0.955448 0
M  V30 412 H 43.8127 -2.69079 -1.21162 0
M  V30 413 H 43.8937 -2.49915 0.545517 0
M  V30 414 H 43.5377 -5.01339 0.813739 0
M  V30 415 H 43.4677 -5.17798 -0.958775 0
M  V30 416 H 45.9587 -3.76807 -0.287267 0
M  V30 417 H 46.2717 -7.72791 0.0379428 0
M  V30 418 H 44.6167 -6.94995 0.0271731 0
M  V30 419 H 47.8077 -4.6731 -0.271767 0
M  V30 420 H 47.9807 -6.47882 -0.123697 0
M  V30 421 N 41.3868 0.248026 -1.55636 0
M  V30 422 C 42.3498 1.29044 -1.89421 0
M  V30 423 C 43.3498 1.41134 -0.770581 0
M  V30 424 O 44.5398 1.39854 -1.03858 0
M  V30 425 C 41.6718 2.66831 -2.12165 0
M  V30 426 H 42.8648 1.00305 -2.82629 0
M  V30 427 H 40.4178 0.487265 -1.48511 0
M  V30 428 H 41.1528 3.00711 -1.21422 0
M  V30 429 H 40.9378 2.59438 -2.93997 0
M  V30 430 H 42.4278 3.42103 -2.3949 0
M  V30 431 N 42.8649 1.48995 0.513639 0
M  V30 432 C 44.2809 1.35478 0.843682 0
M  V30 433 C 44.4809 0.378213 1.97919 0
M  V30 434 O 43.5369 -0.194689 2.51748 0
M  V30 435 C 44.8499 2.75901 1.1958 0
M  V30 436 C 46.3979 2.84509 1.30474 0
M  V30 437 C 46.8729 4.25671 1.69021 0
M  V30 438 N 48.3639 4.28422 1.76094 0
M  V30 439 C 49.0989 5.34601 2.07338 0
M  V30 440 N 48.5949 6.5104 2.36894 0
M  V30 441 N 50.3879 5.22007 2.08483 0
M  V30 442 H 42.5389 2.11092 -0.235328 0
M  V30 443 H 44.8019 0.947039 -0.0426669 0
M  V30 444 H 44.5079 3.49001 0.434913 0
M  V30 445 H 44.3819 3.10467 2.1422 0
M  V30 446 H 46.7689 2.11655 2.05637 0
M  V30 447 H 46.8499 2.53542 0.339155 0
M  V30 448 H 46.4939 4.99048 0.944135 0
M  V30 449 H 46.4239 4.54094 2.66658 0
M  V30 450 H 48.9149 3.44441 1.55464 0
M  V30 451 H 49.2279 7.2779 2.59887 0
M  V30 452 H 47.5729 6.54287 2.34378 0
M  V30 453 H 50.7639 4.30051 1.84861 0
M  V30 454 H 50.9369 6.04854 2.325 0
M  V30 455 N 44.343 -0.763751 1.37857 0
M  V30 456 C 45.568 -1.55805 1.36893 0
M  V30 457 C 45.993 -1.88054 -0.0416135 0
M  V30 458 O 45.351 -1.49825 -1.02089 0
M  V30 459 C 45.399 -2.84012 2.22192 0
M  V30 460 O 44.503 -3.78732 1.63204 0
M  V30 461 H 43.844 -0.471638 0.46739 0
M  V30 462 H 46.374 -0.944657 1.81487 0
M  V30 463 H 46.384 -3.33037 2.35691 0
M  V30 464 H 45.059 -2.59869 3.24716 0
M  V30 465 H 43.636 -3.37402 1.58791 0
M  V30 466 N 45.8211 -1.22559 -0.990812 0
M  V30 467 C 47.0491 -1.07779 -1.76611 0
M  V30 468 C 47.4641 0.371513 -1.85109 0
M  V30 469 O 46.8211 1.25737 -1.32274 0
M  V30 470 C 46.8721 -1.68512 -3.19822 0
M  V30 471 O 46.5931 -3.07774 -3.1178 0
M  V30 472 C 48.0941 -1.59035 -4.13791 0
M  V30 473 H 45.3141 -0.377729 -0.554583 0
M  V30 474 H 47.8581 -1.62195 -1.24551 0
M  V30 475 H 46.0131 -1.18154 -3.68942 0
M  V30 476 H 46.4271 -3.37062 -4.01858 0
M  V30 477 H 47.9011 -2.0625 -5.1202 0
M  V30 478 H 48.3781 -0.547273 -4.35777 0
M  V30 479 H 48.9841 -2.08709 -3.70568 0
M  V30 480 N 47.2992 1.18797 -1.03562 0
M  V30 481 C 48.5242 1.9314 -0.755764 0
M  V30 482 C 48.9492 1.7537 0.68022 0
M  V30 483 O 48.3072 1.06046 1.47051 0
M  V30 484 C 48.3552 3.42747 -1.12058 0
M  V30 485 O 47.4592 4.11683 -0.243124 0
M  V30 486 H 46.8002 0.602724 -0.278604 0
M  V30 487 H 49.3302 1.50678 -1.3841 0
M  V30 488 H 49.3402 3.93437 -1.08035 0
M  V30 489 H 48.0152 3.55002 -2.16672 0
M  V30 490 H 46.5922 3.71323 -0.342539 0
M  V30 491 N 48.7773 0.814389 1.34928 0
M  V30 492 C 49.7403 0.235759 2.27984 0
M  V30 493 C 50.7403 -0.581412 1.49921 0
M  V30 494 O 51.9303 -0.398758 1.69575 0
M  V30 495 C 49.0623 -0.670433 3.34242 0
M  V30 496 H 50.2553 1.05659 2.80671 0
M  V30 497 H 47.8083 0.585614 1.44915 0
M  V30 498 H 48.5433 -1.51466 2.86755 0
M  V30 499 H 48.3283 -0.0860822 3.92005 0
M  V30 500 H 49.8183 -1.06935 4.03676 0
M  V30 501 N 50.2554 -1.46986 0.568584 0
M  V30 502 C 51.4834 -2.0683 0.0539956 0
M  V30 503 C 51.8984 -1.41953 -1.24478 0
M  V30 504 O 51.2554 -0.519933 -1.74937 0
M  V30 505 C 51.3064 -3.61254 -0.133362 0
M  V30 506 O 51.0274 -4.237 1.11399 0
M  V30 507 C 52.5284 -4.37992 -0.683927 0
M  V30 508 H 49.7484 -0.669058 0.0510141 0
M  V30 509 H 52.2924 -1.88824 0.785234 0
M  V30 510 H 50.4474 -3.78735 -0.81477 0
M  V30 511 H 50.8614 -5.16388 0.91888 0
M  V30 512 H 52.3354 -5.46684 -0.764263 0
M  V30 513 H 52.8124 -4.05058 -1.69778 0
M  V30 514 H 53.4184 -4.25283 -0.0378494 0
M  V30 515 N 51.7335 -0.305618 -1.54608 0
M  V30 516 C 53.0105 0.355652 -1.92339 0
M  V30 517 C 53.3905 1.71324 -1.23335 0
M  V30 518 O 52.7385 2.25473 -0.370702 0
M  V30 519 C 52.9485 0.46572 -3.45879 0
M  V30 520 C 54.2965 0.734426 -4.182 0
M  V30 521 O 55.3205 0.54935 -3.51938 0
M  V30 522 O 54.1795 1.09024 -5.35515 0
M  V30 523 H 51.2735 0.199666 -0.802535 0
M  V30 524 H 53.8195 -0.354017 -1.65966 0
M  V30 525 H 52.5915 -0.488461 -3.88239 0
M  V30 526 H 52.2145 1.22367 -3.78301 0
M  V30 527 N 53.2116 1.57565 -0.0334293 0
M  V30 528 C 54.4396 1.9628 0.654347 0
M  V30 529 C 54.8546 0.910138 1.65414 0
M  V30 530 O 54.2116 -0.107595 1.82183 0
M  V30 531 C 54.2626 3.35067 1.35693 0
M  V30 532 O 53.9836 4.36296 0.397191 0
M  V30 533 C 55.4846 3.88439 2.13613 0
M  V30 534 H 52.7046 0.646369 0.180132 0
M  V30 535 H 55.2486 2.04282 -0.0944721 0
M  V30 536 H 53.4036 3.2827 2.05712 0
M  V30 537 H 53.8176 5.1678 0.896597 0
M  V30 538 H 55.2916 4.8788 2.58219 0
M  V30 539 H 55.7686 3.22914 2.97696 0
M  V30 540 H 56.3746 3.98516 1.48543 0
M  V30 541 N 54.6897 -0.239769 1.55765 0
M  V30 542 C 55.6397 -1.30002 1.87306 0
M  V30 543 C 56.6237 -1.43156 0.73452 0
M  V30 544 O 57.8157 -1.46277 0.99659 0
M  V30 545 C 54.9447 -2.65409 2.17745 0
M  V30 546 C 54.0307 -2.56231 3.37945 0
M  V30 547 N 54.4217 -2.16689 4.57033 0
M  V30 548 C 52.7197 -2.87229 3.41197 0
M  V30 549 C 53.4207 -2.18318 5.39177 0
M  V30 550 N 52.3967 -2.58098 4.78421 0
M  V30 551 H 56.1987 -0.984912 2.76906 0
M  V30 552 H 53.7127 -0.448381 1.56087 0
M  V30 553 H 55.7097 -3.41934 2.38509 0
M  V30 554 H 54.3697 -2.97781 1.29448 0
M  V30 555 H 55.3807 -1.88116 4.82528 0
M  V30 556 H 52.0577 -3.24094 2.63191 0
M  V30 557 H 53.4477 -1.90025 6.44469 0
M  V30 558 N 56.1678 -1.49265 -0.50573 0
M  V30 559 C 57.1178 -1.6198 -1.60457 0
M  V30 560 C 58.1018 -0.47568 -1.53708 0
M  V30 561 O 59.2938 -0.728392 -1.61318 0
M  V30 562 C 56.4228 -1.68526 -2.99089 0
M  V30 563 C 55.5088 -2.885 -3.10852 0
M  V30 564 N 55.8998 -4.12635 -2.92517 0
M  V30 565 C 54.1978 -2.86338 -3.41945 0
M  V30 566 C 54.8988 -4.93258 -3.08337 0
M  V30 567 N 53.8748 -4.26533 -3.37003 0
M  V30 568 H 57.6768 -2.55681 -1.44928 0
M  V30 569 H 55.1908 -1.45972 -0.711752 0
M  V30 570 H 57.1878 -1.75732 -3.78053 0
M  V30 571 H 55.8478 -0.759584 -3.1569 0
M  V30 572 H 56.8588 -4.42689 -2.68787 0
M  V30 573 H 53.5358 -2.03129 -3.64753 0
M  V30 574 H 54.9258 -6.01856 -2.98695 0
M  V30 575 N 57.6459 0.756429 -1.3826 0
M  V30 576 C 58.8919 1.51772 -1.34511 0
M  V30 577 C 59.2249 1.94089 0.0656691 0
M  V30 578 O 58.4999 1.65221 1.02626 0
M  V30 579 C 58.7829 2.77226 -2.29821 0
M  V30 580 C 58.6359 2.41065 -3.79747 0
M  V30 581 C 59.9549 3.79236 -2.23312 0
M  V30 582 H 57.0739 0.550578 -0.489931 0
M  V30 583 H 59.7159 0.866607 -1.69086 0
M  V30 584 H 57.8659 3.32784 -2.00467 0
M  V30 585 H 59.5379 1.91303 -4.19763 0
M  V30 586 H 57.7809 1.7356 -3.97567 0
M  V30 587 H 58.4519 3.3081 -4.41892 0
M  V30 588 H 60.9279 3.3321 -2.49219 0
M  V30 589 H 59.8039 4.64714 -2.92116 0
M  V30 590 H 60.0649 4.24615 -1.23102 0
M  V30 591 N 59.124 1.23083 0.984299 0
M  V30 592 C 60.034 1.02515 2.11016 0
M  V30 593 C 61.05 -0.0291702 1.73976 0
M  V30 594 O 62.226 0.165434 2.00719 0
M  V30 595 C 59.291 0.614673 3.41208 0
M  V30 596 C 58.352 1.74359 3.92297 0
M  V30 597 C 57.585 1.35261 5.16275 0
M  V30 598 O 57.808 0.235136 5.69915 0
M  V30 599 O 56.742 2.17227 5.61334 0
M  V30 600 H 60.568 1.96862 2.31255 0
M  V30 601 H 58.153 1.01753 1.09392 0
M  V30 602 H 60.035 0.396518 4.1953 0
M  V30 603 H 58.71 -0.299851 3.22308 0
M  V30 604 H 57.617 2.01635 3.1511 0
M  V30 605 H 58.95 2.63629 4.15645 0
M  V30 606 N 60.6021 -1.18246 1.0419 0
M  V30 607 C 61.5351 -2.20746 0.578474 0
M  V30 608 C 62.5131 -1.57912 -0.387624 0
M  V30 609 O 63.6971 -1.86071 -0.301634 0
M  V30 610 C 60.8241 -3.38346 -0.154762 0
M  V30 611 C 59.8701 -4.19587 0.764782 0
M  V30 612 S 60.7031 -4.86014 2.24835 0
M  V30 613 C 61.8591 -6.07012 1.526 0
M  V30 614 H 62.0921 -2.59715 1.44691 0
M  V30 615 H 59.6251 -1.287 0.85297 0
M  V30 616 H 61.5831 -4.065 -0.571641 0
M  V30 617 H 60.2441 -2.97786 -0.999105 0
M  V30 618 H 59.4371 -5.03611 0.197976 0
M  V30 619 H 59.0391 -3.56818 1.12057 0
M  V30 620 H 61.3311 -6.72523 0.819733 0
M  V30 621 H 62.2741 -6.68202 2.34333 0
M  V30 622 H 62.6821 -5.55249 1.01779 0
M  V30 623 N 62.0802 -0.821533 -1.34494 0
M  V30 624 C 63.0432 -0.247847 -2.27856 0
M  V30 625 C 64.0432 0.573453 -1.50227 0
M  V30 626 O 65.2332 0.389759 -1.69784 0
M  V30 627 C 62.3652 0.652698 -3.34593 0
M  V30 628 H 63.5582 -1.07146 -2.80107 0
M  V30 629 H 61.1112 -0.593291 -1.44602 0
M  V30 630 H 61.8462 1.49943 -2.87555 0
M  V30 631 H 61.6312 0.065292 -3.92046 0
M  V30 632 H 63.1212 1.04793 -4.04238 0
M  V30 633 N 63.5583 1.46682 -0.576371 0
M  V30 634 C 64.9743 1.57822 -0.237562 0
M  V30 635 C 65.1743 1.57237 1.26011 0
M  V30 636 O 64.2303 1.48596 2.04146 0
M  V30 637 C 65.5433 2.87499 -0.881168 0
M  V30 638 C 67.0913 3.01119 -0.85417 0
M  V30 639 C 67.5663 4.33524 -1.4772 0
M  V30 640 N 69.0573 4.40207 -1.44125 0
M  V30 641 C 69.7923 5.4126 -1.89276 0
M  V30 642 N 69.2883 6.49021 -2.42371 0
M  V30 643 N 71.0813 5.32422 -1.80231 0
M  V30 644 H 63.2323 1.45306 -1.54919 0
M  V30 645 H 65.4953 0.692733 -0.647167 0
M  V30 646 H 65.2013 2.9372 -1.93447 0
M  V30 647 H 65.0753 3.75224 -0.385592 0
M  V30 648 H 67.4623 2.94485 0.190491 0
M  V30 649 H 67.5433 2.14887 -1.3877 0
M  V30 650 H 67.1873 4.40916 -2.52103 0
M  V30 651 H 67.1173 5.1852 -0.918947 0
M  V30 652 H 69.6083 3.62931 -1.05307 0
M  V30 653 H 69.9213 7.2233 -2.74698 0
M  V30 654 H 68.2663 6.49858 -2.46393 0
M  V30 655 H 71.4573 4.47137 -1.38514 0
M  V30 656 H 71.6303 6.11034 -2.15735 0
M  V30 657 N 65.0364 0.313813 1.54444 0
M  V30 658 C 65.9464 -0.565714 2.27677 0
M  V30 659 C 66.9624 -1.13754 1.31666 0
M  V30 660 O 68.1384 -1.15959 1.64668 0
M  V30 661 C 65.2034 -1.71528 3.01296 0
M  V30 662 C 64.2644 -1.17624 4.12872 0
M  V30 663 C 63.4974 -2.27102 4.8297 0
M  V30 664 O 63.7204 -3.47256 4.52514 0
M  V30 665 O 62.6544 -1.9307 5.70094 0
M  V30 666 H 66.4804 0.0287296 3.03686 0
M  V30 667 H 64.0654 0.0798312 1.49187 0
M  V30 668 H 65.9474 -2.38476 3.4743 0
M  V30 669 H 64.6224 -2.29608 2.2817 0
M  V30 670 H 63.5294 -0.472124 3.71109 0
M  V30 671 H 64.8624 -0.640695 4.88012 0
M  V30 672 N 66.5145 -1.57545 0.0417849 0
M  V30 673 C 67.9305 -1.56467 -0.314704 0
M  V30 674 C 68.1305 -1.04859 -1.72066 0
M  V30 675 O 67.1865 -0.700983 -2.42575 0
M  V30 676 C 68.4995 -3.00317 -0.15174 0
M  V30 677 C 70.0475 -3.12201 -0.223553 0
M  V30 678 C 70.5225 -4.57913 -0.0892295 0
M  V30 679 N 72.0135 -4.6297 -0.145808 0
M  V30 680 C 72.7485 -5.73362 -0.0658459 0
M  V30 681 N 72.2445 -6.92769 0.0659282 0
M  V30 682 N 74.0375 -5.6197 -0.12075 0
M  V30 683 H 66.1885 -1.89416 0.961014 0
M  V30 684 H 68.4515 -0.871862 0.372237 0
M  V30 685 H 68.1575 -3.42073 0.817254 0
M  V30 686 H 68.0315 -3.65892 -0.916692 0
M  V30 687 H 70.4185 -2.70349 -1.18301 0
M  V30 688 H 70.4995 -2.49323 0.571994 0
M  V30 689 H 70.1435 -5.00448 0.866867 0
M  V30 690 H 70.0735 -5.18786 -0.903802 0
M  V30 691 H 72.5645 -3.7709 -0.247286 0
M  V30 692 H 72.8775 -7.72707 0.119905 0
M  V30 693 H 71.2225 -6.94927 0.100885 0
M  V30 694 H 74.4135 -4.67572 -0.222187 0
M  V30 695 H 74.5865 -6.47977 -0.0549735 0
M  V30 696 N 67.9926 0.231505 -1.5589 0
M  V30 697 C 69.2176 0.978689 -1.82856 0
M  V30 698 C 69.6426 1.77559 -0.620846 0
M  V30 699 O 69.0006 1.76119 0.430305 0
M  V30 700 C 69.0486 1.87997 -3.07716 0
M  V30 701 O 68.1526 2.97393 -2.85712 0
M  V30 702 H 67.4936 0.277663 -0.603158 0
M  V30 703 H 70.0236 0.24783 -2.03093 0
M  V30 704 H 70.0336 2.2917 -3.37558 0
M  V30 705 H 68.7086 1.29417 -3.95252 0
M  V30 706 H 67.2856 2.60238 -2.67078 0
M  V30 707 N 69.4707 1.49531 0.497807 0
M  V30 708 C 70.4177 1.66436 1.59899 0
M  V30 709 C 71.3877 0.505793 1.58212 0
M  V30 710 O 72.5727 0.733202 1.7615 0
M  V30 711 C 69.7127 1.7399 2.98029 0
M  V30 712 C 68.8257 3.01172 3.09708 0
M  V30 713 C 67.9607 2.99686 4.38591 0
M  V30 714 C 66.9997 4.21434 4.43914 0
M  V30 715 N 66.1367 4.1784 5.64229 0
M  V30 716 H 70.9767 2.60459 1.44793 0
M  V30 717 H 68.5137 1.29137 0.704423 0
M  V30 718 H 70.4717 1.76352 3.78095 0
M  V30 719 H 69.1017 0.834301 3.11832 0
M  V30 720 H 68.1537 3.08408 2.22685 0
M  V30 721 H 69.4657 3.91165 3.09502 0
M  V30 722 H 68.6197 3.00628 5.2698 0
M  V30 723 H 67.3587 2.07477 4.41367 0
M  V30 724 H 66.3637 4.20733 3.53926 0
M  V30 725 H 67.5887 5.14839 4.42851 0
M  V30 726 H 65.5347 3.28469 5.67841 0
M  V30 727 H 65.4517 5.01571 5.65652 0
M  V30 728 H 66.7197 4.22889 6.54817 0
M  V30 729 N 70.9488 -0.749086 1.3866 0
M  V30 730 C 72.1768 -1.53834 1.38358 0
M  V30 731 C 72.5918 -1.88783 -0.0255219 0
M  V30 732 O 71.9488 -1.53101 -0.993292 0
M  V30 733 C 71.9998 -2.83468 2.2434 0
M  V30 734 O 71.7208 -2.50008 3.5976 0
M  V30 735 C 73.2218 -3.7758 2.32267 0
M  V30 736 H 70.4418 -0.47585 0.473083 0
M  V30 737 H 72.9858 -0.926726 1.82297 0
M  V30 738 H 71.1408 -3.40995 1.83851 0
M  V30 739 H 71.5548 -3.33182 4.05081 0
M  V30 740 H 73.0288 -4.65478 2.96706 0
M  V30 741 H 73.5058 -4.18334 1.33765 0
M  V30 742 H 74.1118 -3.25976 2.73166 0
M  V30 743 N 72.4269 -1.23603 -0.977757 0
M  V30 744 C 73.6729 -1.07129 -1.72195 0
M  V30 745 C 74.0059 0.390501 -1.90233 0
M  V30 746 O 73.2809 1.28902 -1.45653 0
M  V30 747 C 73.5639 -1.80031 -3.11867 0
M  V30 748 C 73.4169 -3.33899 -3.01383 0
M  V30 749 C 74.7359 -1.56492 -4.11337 0
M  V30 750 H 71.8549 -0.390571 -0.624999 0
M  V30 751 H 74.4969 -1.52142 -1.13811 0
M  V30 752 H 72.6469 -1.41768 -3.6171 0
M  V30 753 H 74.3189 -3.81699 -2.59043 0
M  V30 754 H 72.5619 -3.62796 -2.37827 0
M  V30 755 H 73.2329 -3.801 -4.00285 0
M  V30 756 H 75.7089 -1.89757 -3.70313 0
M  V30 757 H 74.5849 -2.09973 -5.07151 0
M  V30 758 H 74.8459 -0.500874 -4.39254 0
M  V30 759 N 73.905 1.17692 -1.04816 0
M  V30 760 C 75.133 1.91786 -0.776254 0
M  V30 761 C 75.548 1.76604 0.667577 0
M  V30 762 O 74.905 1.10067 1.45573 0
M  V30 763 C 74.956 3.42967 -1.14263 0
M  V30 764 O 74.677 3.57678 -2.52978 0
M  V30 765 C 76.178 4.34144 -0.896311 0
M  V30 766 H 73.398 0.608624 -0.282519 0
M  V30 767 H 75.942 1.49268 -1.39783 0
M  V30 768 H 74.097 3.83245 -0.565874 0
M  V30 769 H 74.511 4.51319 -2.67229 0
M  V30 770 H 75.985 5.38744 -1.20244 0
M  V30 771 H 76.462 4.38876 0.168636 0
M  V30 772 H 77.068 3.99574 -1.45672 0
M  V30 773 N 75.3831 0.828654 1.34056 0
M  V30 774 C 76.6081 0.431637 2.02859 0
M  V30 775 C 77.0331 -0.956339 1.61975 0
M  V30 776 O 76.3911 -1.62338 0.807228 0
M  V30 777 C 76.4391 0.548323 3.56407 0
M  V30 778 O 75.5431 -0.429556 4.10157 0
M  V30 779 H 74.8841 0.176886 0.640006 0
M  V30 780 H 77.4141 1.12066 1.71179 0
M  V30 781 H 77.4241 0.426196 4.05768 0
M  V30 782 H 76.0991 1.5606 3.8551 0
M  V30 783 H 74.6761 -0.265836 3.71951 0
M  V30 784 N 76.8612 -1.46375 0.584142 0
M  V30 785 C 78.1082 -2.02378 0.0702675 0
M  V30 786 C 78.4362 -1.45545 -1.29023 0
M  V30 787 O 77.6912 -0.610967 -1.85918 0
M  V30 788 C 77.9902 -3.57373 -0.0439342 0
M  V30 789 C 77.6562 -4.33252 1.24915 0
M  V30 790 C 76.3182 -4.53701 1.60341 0
M  V30 791 C 78.6702 -4.7681 2.1048 0
M  V30 792 C 75.9982 -5.1496 2.81128 0
M  V30 793 C 78.3502 -5.39404 3.30494 0
M  V30 794 C 77.0142 -5.5808 3.66201 0
M  V30 795 H 76.2842 -0.740554 0.0257127 0
M  V30 796 H 78.9312 -1.75727 0.761065 0
M  V30 797 H 77.2362 -3.83169 -0.817869 0
M  V30 798 H 78.9332 -3.98384 -0.457318 0
M  V30 799 H 75.5232 -4.17633 0.963364 0
M  V30 800 H 79.7072 -4.60766 1.84414 0
M  V30 801 H 74.9632 -5.27611 3.08928 0
M  V30 802 H 79.1372 -5.72114 3.97063 0
M  V30 803 H 76.7642 -6.05318 4.59885 0
M  V30 804 N 78.3393 -0.321999 -1.54275 0
M  V30 805 C 79.5693 0.282642 -2.04658 0
M  V30 806 C 79.9773 1.46453 -1.19784 0
M  V30 807 O 79.3203 1.82367 -0.220932 0
M  V30 808 C 79.3823 0.781857 -3.50895 0
M  V30 809 C 79.0463 -0.277517 -4.56157 0
M  V30 810 C 80.0433 -1.11307 -5.07845 0
M  V30 811 C 77.7283 -0.425256 -5.00497 0
M  V30 812 C 79.7223 -2.08211 -6.02434 0
M  V30 813 C 77.4093 -1.39771 -5.94901 0
M  V30 814 C 78.4073 -2.2246 -6.45756 0
M  V30 815 O 78.0953 -3.18054 -7.38307 0
M  V30 816 H 77.8273 0.0622636 -0.673126 0
M  V30 817 H 80.3813 -0.465792 -2.00049 0
M  V30 818 H 78.6113 1.58118 -3.52896 0
M  V30 819 H 80.3003 1.30467 -3.84361 0
M  V30 820 H 81.0663 -1.00991 -4.74369 0
M  V30 821 H 76.9453 0.20847 -4.60528 0
M  V30 822 H 80.4893 -2.72791 -6.42052 0
M  V30 823 H 76.3863 -1.50152 -6.27794 0
M  V30 824 H 77.1543 -3.13275 -7.56175 0
M  V30 825 N 79.8174 1.5752 -0.0501392 0
M  V30 826 C 80.7654 2.12651 0.942459 0
M  V30 827 C 81.7594 1.05807 1.32292 0
M  V30 828 O 82.9654 1.24217 1.3027 0
M  V30 829 H 79.3404 0.679673 0.321789 0
M  V30 830 H 81.3114 2.94951 0.452356 0
M  V30 831 C 80.0604 2.68565 2.20836 0
M  V30 832 H 79.3834 3.50439 1.92439 0
M  V30 833 H 80.8234 3.10761 2.8845 0
M  V30 834 C 79.2824 1.62291 2.95234 0
M  V30 835 O 79.8124 1.03508 3.88135 0
M  V30 836 N 78.0184 1.33836 2.57946 0
M  V30 837 H 77.5654 1.81826 1.82475 0
M  V30 838 H 77.5234 0.629595 3.08032 0
M  V30 839 N 81.2955 -0.223234 1.56011 0
M  V30 840 C 82.2275 -1.30006 1.88762 0
M  V30 841 C 83.2405 -1.43129 0.775746 0
M  V30 842 O 84.4295 -1.44057 1.05403 0
M  V30 843 C 81.5295 -2.67589 2.07965 0
M  V30 844 C 80.7025 -2.76434 3.38973 0
M  V30 845 C 79.7615 -3.95019 3.47629 0
M  V30 846 O 78.7875 -3.83436 4.20672 0
M  V30 847 N 79.9895 -5.09249 2.78649 0
M  V30 848 H 82.7545 -1.02238 2.81722 0
M  V30 849 H 80.3155 -0.413278 1.56536 0
M  V30 850 H 82.3075 -3.45297 2.11073 0
M  V30 851 H 80.8775 -2.87964 1.21638 0
M  V30 852 H 80.0975 -1.85216 3.47978 0
M  V30 853 H 81.3855 -2.79313 4.25278 0
M  V30 854 H 80.7835 -5.21556 2.19081 0
M  V30 855 H 79.3405 -5.85007 2.8742 0
M  V30 856 N 82.7736 -1.49793 -0.48987 0
M  V30 857 C 83.9986 -1.63836 -1.27172 0
M  V30 858 C 84.4236 -0.31402 -1.8546 0
M  V30 859 O 83.7816 0.719803 -1.66399 0
M  V30 860 C 83.8296 -2.71797 -2.36978 0
M  V30 861 O 82.9336 -2.31744 -3.41128 0
M  V30 862 H 82.2746 -0.547997 -0.37496 0
M  V30 863 H 84.8046 -1.96053 -0.585191 0
M  V30 864 H 84.8146 -2.94305 -2.82575 0
M  V30 865 H 83.4896 -3.67923 -1.93921 0
M  V30 866 H 82.0666 -2.1961 -3.01373 0
M  V30 867 N 84.2517 0.741722 -1.39055 0
M  V30 868 C 85.2147 1.83733 -1.37021 0
M  V30 869 C 86.2147 1.58542 -0.268534 0
M  V30 870 O 87.4047 1.66067 -0.526076 0
M  V30 871 C 84.5367 3.2141 -1.13617 0
M  V30 872 H 85.7297 1.86941 -2.34506 0
M  V30 873 H 83.2827 0.944676 -1.24521 0
M  V30 874 H 84.0177 3.23865 -0.167863 0
M  V30 875 H 83.8027 3.4109 -1.93391 0
M  V30 876 H 85.2927 4.01477 -1.14918 0
M  V30 877 N 85.7298 1.2412 0.971189 0
M  V30 878 C 86.9788 1.07284 1.70801 0
M  V30 879 C 87.2918 -0.388902 1.91695 0
M  V30 880 O 88.4978 -0.677379 2.62914 0
M  V30 881 C 86.9538 1.87145 3.07416 0
M  V30 882 C 86.5618 3.37707 2.94377 0
M  V30 883 C 88.3058 1.78828 3.84995 0
M  V30 884 C 86.2128 4.09925 4.26281 0
M  V30 885 H 85.1428 0.397854 0.64049 0
M  V30 886 H 87.7938 1.4817 1.0825 0
M  V30 887 H 86.1758 1.39071 3.70777 0
M  V30 888 H 87.3498 3.93335 2.4005 0
M  V30 889 H 85.6648 3.46938 2.30267 0
M  V30 890 H 88.2618 2.30089 4.82662 0
M  V30 891 H 88.6048 0.75284 4.09436 0
M  V30 892 H 89.1378 2.24563 3.28354 0
M  V30 893 H 85.8768 5.13813 4.07033 0
M  V30 894 H 85.3968 3.59083 4.80437 0
M  V30 895 H 87.0758 4.1673 4.94919 0
M  V30 896 N 87.2079 -1.17134 1.05439 0
M  V30 897 C 88.4849 -1.83411 0.679699 0
M  V30 898 C 88.8649 -1.9368 -0.839726 0
M  V30 899 O 88.2129 -1.47325 -1.74664 0
M  V30 900 C 88.4229 -3.20918 1.37159 0
M  V30 901 C 89.7709 -3.96796 1.51123 0
M  V30 902 O 90.7949 -3.30406 1.3308 0
M  V30 903 O 89.6539 -5.15778 1.80651 0
M  V30 904 H 86.7479 -0.79154 0.239569 0
M  V30 905 H 89.2939 -1.24411 1.15413 0
M  V30 906 H 88.0659 -3.08428 2.40807 0
M  V30 907 H 87.6889 -3.87587 0.886674 0
M  V30 908 N 88.686 -0.835752 -1.33615 0
M  V30 909 C 89.649 -0.272 -2.2758 0
M  V30 910 C 90.649 0.557487 -1.50827 0
M  V30 911 O 91.839 0.37173 -1.70188 0
M  V30 912 C 88.971 0.617173 -3.35267 0
M  V30 913 H 90.164 -1.10111 -2.78954 0
M  V30 914 H 87.717 -0.608594 -1.43965 0
M  V30 915 H 88.452 1.46884 -2.89129 0
M  V30 916 H 88.237 0.0237066 -3.92093 0
M  V30 917 H 89.727 1.005 -4.05326 0
M  V30 918 N 90.1641 1.46063 -0.591896 0
M  V30 919 C 91.1271 2.28854 0.125973 0
M  V30 920 C 92.1271 1.38903 0.810107 0
M  V30 921 O 93.3171 1.61186 0.66066 0
M  V30 922 C 90.4491 3.19526 1.1881 0
M  V30 923 H 91.6421 2.93802 -0.601717 0
M  V30 924 H 89.1951 1.52325 -0.350254 0
M  V30 925 H 89.9301 2.59345 1.94707 0
M  V30 926 H 89.7151 3.85766 0.701936 0
M  V30 927 H 91.2051 3.81817 1.69132 0
M  V30 928 N 91.6422 0.330177 1.54103 0
M  V30 929 C 92.6052 -0.520144 2.2322 0
M  V30 930 C 93.6052 -1.03828 1.22786 0
M  V30 931 O 94.7952 -0.929652 1.4732 0
M  V30 932 C 91.9272 -1.72317 2.94142 0
M  V30 933 H 93.1202 0.0841605 2.99782 0
M  V30 934 H 90.6732 0.0813433 1.56088 0
M  V30 935 H 91.4082 -2.36653 2.21734 0
M  V30 936 H 91.1932 -1.35898 3.67796 0
M  V30 937 H 92.6832 -2.3266 3.46784 0
M  V30 938 N 93.1203 -1.57491 0.0584922 0
M  V30 939 C 94.0303 -2.15448 -0.928414 0
M  V30 940 C 95.0463 -1.11416 -1.3365 0
M  V30 941 O 96.2223 -1.4362 -1.41193 0
M  V30 942 C 93.2873 -2.69393 -2.18239 0
M  V30 943 C 92.3483 -3.88249 -1.83196 0
M  V30 944 C 91.5813 -4.39613 -3.02616 0
M  V30 945 O 91.8043 -3.90023 -4.16219 0
M  V30 946 O 90.7383 -5.31111 -2.83204 0
M  V30 947 H 94.5643 -3.00112 -0.465483 0
M  V30 948 H 92.1493 -1.48499 -0.163826 0
M  V30 949 H 94.0313 -3.04026 -2.91798 0
M  V30 950 H 92.7063 -1.87796 -2.63656 0
M  V30 951 H 91.6133 -3.58492 -1.06931 0
M  V30 952 H 92.9463 -4.71098 -1.42573 0
M  V30 953 N 94.5984 0.214957 -1.56127 0
M  V30 954 C 95.5454 1.26642 -1.92952 0
M  V30 955 C 96.5154 1.46244 -0.78753 0
M  V30 956 O 97.7004 1.59704 -1.04399 0
M  V30 957 C 94.8404 2.6104 -2.25726 0
M  V30 958 C 93.9534 2.49183 -3.52891 0
M  V30 959 C 93.0884 3.76149 -3.7508 0
M  V30 960 C 92.1274 3.59041 -4.95738 0
M  V30 961 N 91.2644 4.77972 -5.14283 0
M  V30 962 H 96.1044 0.945384 -2.82607 0
M  V30 963 H 93.6414 0.455489 -1.3987 0
M  V30 964 H 95.5994 3.39313 -2.42739 0
M  V30 965 H 94.2294 2.91227 -1.39236 0
M  V30 966 H 93.2814 1.6231 -3.44034 0
M  V30 967 H 94.5934 2.32466 -4.41318 0
M  V30 968 H 93.7474 4.62865 -3.92226 0
M  V30 969 H 92.4864 3.95799 -2.84947 0
M  V30 970 H 91.4914 2.7071 -4.78535 0
M  V30 971 H 92.7164 3.40856 -5.87362 0
M  V30 972 H 90.6624 4.97923 -4.27093 0
M  V30 973 H 90.5794 4.64006 -5.96853 0
M  V30 974 H 91.8474 5.66096 -5.35869 0
M  V30 975 N 96.0765 1.50051 0.48192 0
M  V30 976 C 97.4875 1.5348 1.06305 0
M  V30 977 C 97.8385 0.331997 1.93371 0
M  V30 978 O 96.9635 -0.556256 2.09129 0
M  V30 979 C 97.5585 2.7813 1.93466 0
M  V30 980 C 96.1175 2.84275 2.46707 0
M  V30 981 C 95.2645 2.47637 1.24785 0
M  V30 982 H 98.2155 1.56472 0.264995 0
M  V30 983 H 98.2365 2.59372 2.78399 0
M  V30 984 H 97.7485 3.65654 1.30072 0
M  V30 985 H 95.8495 2.01077 3.13686 0
M  V30 986 H 95.9625 3.8691 2.82555 0
M  V30 987 H 94.3265 1.99835 1.57918 0
M  V30 988 H 95.1095 3.37457 0.630694 0
M  V30 989 N 97.5546 -0.734337 1.39446 0
M  V30 990 C 98.7796 -1.52866 1.40167 0
M  V30 991 C 99.2046 -1.881 -0.00171513 0
M  V30 992 O 98.5626 -1.51957 -0.988879 0
M  V30 993 C 98.6106 -2.79235 2.28167 0
M  V30 994 O 97.7146 -3.75185 1.71201 0
M  V30 995 H 97.0556 -0.461618 0.477289 0
M  V30 996 H 99.5856 -0.905949 1.8345 0
M  V30 997 H 99.5956 -3.27963 2.42702 0
M  V30 998 H 98.2706 -2.52923 3.30156 0
M  V30 999 H 96.8476 -3.33958 1.65912 0
M  V30 1000 N 99.0327 -1.24633 -0.964593 0
M  V30 1001 C 100.279 -1.08949 -1.71049 0
M  V30 1002 C 100.612 0.370302 -1.90637 0
M  V30 1003 O 99.8867 1.27349 -1.47011 0
M  V30 1004 C 100.17 -1.83329 -3.0994 0
M  V30 1005 C 100.023 -3.37077 -2.97824 0
M  V30 1006 C 101.342 -1.60846 -4.09654 0
M  V30 1007 H 98.4607 -0.397178 -0.620821 0
M  V30 1008 H 101.103 -1.5334 -1.12191 0
M  V30 1009 H 99.2527 -1.45597 -3.60186 0
M  V30 1010 H 100.925 -3.84425 -2.5498 0
M  V30 1011 H 99.1677 -3.65298 -2.33965 0
M  V30 1012 H 99.8387 -3.84324 -3.96231 0
M  V30 1013 H 102.315 -1.93674 -3.68279 0
M  V30 1014 H 101.191 -2.1534 -5.04896 0
M  V30 1015 H 101.452 -0.547434 -4.38698 0
M  V30 1016 N 100.511 1.16574 -1.06058 0
M  V30 1017 C 101.927 1.3904 -0.783585 0
M  V30 1018 C 102.127 1.91784 0.618145 0
M  V30 1019 O 101.183 2.11511 1.37911 0
M  V30 1020 C 102.496 2.37329 -1.84649 0
M  V30 1021 C 104.044 2.51018 -1.86973 0
M  V30 1022 C 104.519 3.52588 -2.92311 0
M  V30 1023 N 106.01 3.60113 -2.91329 0
M  V30 1024 C 106.745 4.38486 -3.69482 0
M  V30 1025 N 106.241 5.20302 -4.57447 0
M  V30 1026 N 108.034 4.33446 -3.57885 0
M  V30 1027 H 100.185 0.806725 -1.96483 0
M  V30 1028 H 102.448 0.417117 -0.851303 0
M  V30 1029 H 102.154 2.05663 -2.85299 0
M  V30 1030 H 102.028 3.36946 -1.6955 0
M  V30 1031 H 104.415 2.81989 -0.869827 0
M  V30 1032 H 104.496 1.51445 -2.0615 0
M  V30 1033 H 104.14 3.22354 -3.92492 0
M  V30 1034 H 104.07 4.51886 -2.70383 0
M  V30 1035 H 106.561 3.01707 -2.27555 0
M  V30 1036 H 106.874 5.77311 -5.13743 0
M  V30 1037 H 105.219 5.19653 -4.61503 0
M  V30 1038 H 108.41 3.68586 -2.88551 0
M  V30 1039 H 108.583 4.94279 -4.19037 0
M  V30 1040 N 101.989 0.842826 1.3317 0
M  V30 1041 C 102.919 0.294028 2.31641 0
M  V30 1042 C 103.9 -0.600401 1.59151 0
M  V30 1043 O 105.085 -0.523124 1.87022 0
M  V30 1044 C 102.215 -0.528416 3.43257 0
M  V30 1045 C 101.169 0.27056 4.27144 0
M  V30 1046 C 100.495 -0.675881 5.30411 0
M  V30 1047 C 101.795 1.48981 5.00602 0
M  V30 1048 H 103.489 1.11681 2.77791 0
M  V30 1049 H 101.035 0.538478 1.33553 0
M  V30 1050 H 102.988 -0.922674 4.11175 0
M  V30 1051 H 101.712 -1.38445 2.95805 0
M  V30 1052 H 100.371 0.646427 3.60856 0
M  V30 1053 H 100.019 -1.52842 4.79216 0
M  V30 1054 H 99.7189 -0.145374 5.8742 0
M  V30 1055 H 101.243 -1.06757 6.01195 0
M  V30 1056 H 102.657 1.16849 5.61266 0
M  V30 1057 H 101.054 1.95739 5.6728 0
M  V30 1058 H 102.124 2.25746 4.29147 0
M  V30 1059 N 103.467 -1.45747 0.599634 0
M  V30 1060 C 104.695 -2.06668 0.0978551 0
M  V30 1061 C 105.11 -1.44562 -1.21439 0
M  V30 1062 O 104.467 -0.556923 -1.73795 0
M  V30 1063 C 104.518 -3.61456 -0.0567044 0
M  V30 1064 O 104.239 -4.21242 1.20361 0
M  V30 1065 C 105.74 -4.39345 -0.590869 0
M  V30 1066 H 102.96 -0.667825 0.0651943 0
M  V30 1067 H 105.504 -1.87115 0.82511 0
M  V30 1068 H 103.659 -3.80378 -0.734251 0
M  V30 1069 H 104.073 -5.14323 1.02821 0
M  V30 1070 H 105.547 -5.48182 -0.648131 0
M  V30 1071 H 106.024 -4.08568 -1.61147 0
M  V30 1072 H 106.63 -4.25268 0.0523679 0
M  V30 1073 N 104.945 -0.338344 -1.53925 0
M  V30 1074 C 106.356 0.146651 -1.86123 0
M  V30 1075 C 106.707 1.5042 -1.2597 0
M  V30 1076 O 105.832 2.08723 -0.571294 0
M  V30 1077 C 106.427 0.272879 -3.37699 0
M  V30 1078 C 104.986 0.702103 -3.69794 0
M  V30 1079 C 104.133 -0.167304 -2.76795 0
M  V30 1080 H 107.084 -0.558123 -1.48562 0
M  V30 1081 H 107.105 1.10128 -3.64214 0
M  V30 1082 H 106.617 -0.715307 -3.81451 0
M  V30 1083 H 104.718 1.6995 -3.31584 0
M  V30 1084 H 104.831 0.495604 -4.7653 0
M  V30 1085 H 103.195 0.359527 -2.5215 0
M  V30 1086 H 103.978 -1.15253 -3.23375 0
M  V30 1087 N 106.423 1.57458 -0.0668435 0
M  V30 1088 C 107.651 1.97624 0.612565 0
M  V30 1089 C 108.066 0.94502 1.63447 0
M  V30 1090 O 107.423 -0.0689276 1.8237 0
M  V30 1091 C 107.474 3.37869 1.28555 0
M  V30 1092 O 107.195 4.3704 0.304557 0
M  V30 1093 C 108.696 3.92882 2.05325 0
M  V30 1094 H 105.916 0.650045 0.166381 0
M  V30 1095 H 108.46 2.04035 -0.137782 0
M  V30 1096 H 106.615 3.3256 1.98702 0
M  V30 1097 H 107.029 5.18565 0.786779 0
M  V30 1098 H 108.503 4.93247 2.47812 0
M  V30 1099 H 108.98 3.29156 2.9078 0
M  V30 1100 H 109.586 4.01577 1.40056 0
M  V30 1101 N 107.901 -0.206675 1.56239 0
M  V30 1102 C 108.834 -1.28383 1.88661 0
M  V30 1103 C 109.812 -1.44504 0.745481 0
M  V30 1104 O 110.996 -1.60079 0.995336 0
M  V30 1105 C 108.123 -2.65211 2.10667 0
M  V30 1106 C 107.169 -2.66025 3.33366 0
M  V30 1107 S 108.002 -2.18609 4.88846 0
M  V30 1108 C 109.158 -3.57283 5.13906 0
M  V30 1109 H 109.391 -1.00691 2.7973 0
M  V30 1110 H 106.924 -0.409627 1.48867 0
M  V30 1111 H 108.882 -3.43979 2.24029 0
M  V30 1112 H 107.543 -2.90121 1.20369 0
M  V30 1113 H 106.736 -3.66607 3.45855 0
M  V30 1114 H 106.338 -1.95331 3.18938 0
M  V30 1115 H 108.63 -4.53074 5.03717 0
M  V30 1116 H 109.573 -3.49699 6.15724 0
M  V30 1117 H 109.981 -3.51659 4.41583 0
M  V30 1118 N 109.379 -1.50304 -0.473955 0
M  V30 1119 C 110.312 -1.63595 -1.59097 0
M  V30 1120 C 111.29 -0.484142 -1.55225 0
M  V30 1121 O 112.474 -0.703271 -1.7489 0
M  V30 1122 C 109.601 -1.61589 -2.97669 0
M  V30 1123 C 108.647 -2.82295 -3.19705 0
M  V30 1124 S 109.48 -4.43635 -2.99913 0
M  V30 1125 C 110.636 -4.44317 -4.40832 0
M  V30 1126 H 110.869 -2.58082 -1.47583 0
M  V30 1127 H 108.402 -1.39531 -0.661087 0
M  V30 1128 H 110.36 -1.61116 -3.7756 0
M  V30 1129 H 109.021 -0.683421 -3.06575 0
M  V30 1130 H 108.214 -2.77188 -4.20931 0
M  V30 1131 H 107.816 -2.8032 -2.47582 0
M  V30 1132 H 110.108 -4.17703 -5.33414 0
M  V30 1133 H 111.051 -5.45911 -4.50984 0
M  V30 1134 H 111.459 -3.74059 -4.22777 0
M  V30 1135 N 110.857 0.726932 -1.39834 0
M  V30 1136 C 111.787 1.85405 -1.41941 0
M  V30 1137 C 112.768 1.67751 -0.281728 0
M  V30 1138 O 113.953 1.8795 -0.488717 0
M  V30 1139 C 111.083 3.23243 -1.2701 0
M  V30 1140 C 110.037 3.55549 -2.38262 0
M  V30 1141 C 109.363 4.9241 -2.08415 0
M  V30 1142 C 110.663 3.577 -3.80589 0
M  V30 1143 H 112.357 1.83899 -2.36266 0
M  V30 1144 H 109.903 0.883349 -1.13723 0
M  V30 1145 H 111.856 4.01775 -1.27103 0
M  V30 1146 H 110.58 3.25296 -0.291564 0
M  V30 1147 H 109.239 2.79351 -2.37399 0
M  V30 1148 H 108.887 4.91052 -1.0898 0
M  V30 1149 H 108.587 5.14992 -2.82943 0
M  V30 1150 H 110.111 5.73289 -2.10171 0
M  V30 1151 H 111.525 4.26293 -3.83337 0
M  V30 1152 H 109.922 3.91804 -4.54543 0
M  V30 1153 H 110.992 2.57328 -4.10987 0
M  V30 1154 N 112.336 1.25143 0.95797 0
M  V30 1155 C 113.566 1.12261 1.73439 0
M  V30 1156 C 113.974 -0.326715 1.86358 0
M  V30 1157 O 113.317 -1.2367 1.35836 0
M  V30 1158 C 113.379 1.69966 3.16784 0
M  V30 1159 C 113.043 3.18936 3.27305 0
M  V30 1160 C 114.04 4.15968 3.11877 0
M  V30 1161 C 111.725 3.59083 3.51234 0
M  V30 1162 C 113.719 5.51126 3.20217 0
M  V30 1163 C 111.406 4.9438 3.5921 0
M  V30 1164 C 112.404 5.90211 3.43716 0
M  V30 1165 O 112.092 7.23046 3.51368 0
M  V30 1166 H 111.824 0.392476 0.550399 0
M  V30 1167 H 114.378 1.65927 1.21068 0
M  V30 1168 H 112.608 1.10744 3.70503 0
M  V30 1169 H 114.297 1.52232 3.76272 0
M  V30 1170 H 115.063 3.86292 2.93264 0
M  V30 1171 H 110.942 2.84989 3.62356 0
M  V30 1172 H 114.486 6.25905 3.0804 0
M  V30 1173 H 110.383 5.23723 3.77339 0
M  V30 1174 H 111.151 7.31097 3.6802 0
M  V30 1175 N 113.814 -1.1601 1.06675 0
M  V30 1176 C 114.777 -2.18724 0.685001 0
M  V30 1177 C 115.777 -1.58496 -0.271246 0
M  V30 1178 O 116.967 -1.74119 -0.0531156 0
M  V30 1179 C 114.099 -3.40899 0.00853648 0
M  V30 1180 H 115.292 -2.54011 1.59431 0
M  V30 1181 H 112.845 -1.30352 0.862441 0
M  V30 1182 H 113.58 -3.11173 -0.913337 0
M  V30 1183 H 113.365 -3.8587 0.696204 0
M  V30 1184 H 114.855 -4.16886 -0.24414 0
M  V30 1185 N 115.292 -0.849877 -1.32721 0
M  V30 1186 C 116.54 -0.450032 -1.97026 0
M  V30 1187 C 116.861 0.996604 -1.67609 0
M  V30 1188 O 116.131 1.6958 -0.980786 0
M  V30 1189 H 114.711 -0.163426 -0.728904 0
M  V30 1190 H 117.373 -1.08526 -1.6189 0
M  V30 1191 H 116.469 -0.591146 -3.0645 0
M  V30 1192 N 116.77 1.45427 -0.607355 0
M  V30 1193 C 118.186 1.57283 -0.270985 0
M  V30 1194 C 118.386 1.59875 1.22647 0
M  V30 1195 O 117.442 1.52893 2.00948 0
M  V30 1196 C 118.755 2.85566 -0.941952 0
M  V30 1197 C 120.303 2.9924 -0.917849 0
M  V30 1198 C 120.778 4.30293 -1.56882 0
M  V30 1199 N 122.269 4.37051 -1.5343 0
M  V30 1200 C 123.004 5.37123 -2.00715 0
M  V30 1201 N 122.5 6.43734 -2.56084 0
M  V30 1202 N 124.293 5.28479 -1.91484 0
M  V30 1203 H 116.444 1.41988 -1.57966 0
M  V30 1204 H 118.707 0.67885 -0.661715 0
M  V30 1205 H 118.413 2.8955 -1.99633 0
M  V30 1206 H 118.287 3.74322 -0.465096 0
M  V30 1207 H 120.674 2.94822 0.127984 0
M  V30 1208 H 120.755 2.11895 -1.43297 0
M  V30 1209 H 120.399 4.35469 -2.61398 0
M  V30 1210 H 120.329 5.16454 -1.02873 0
M  V30 1211 H 122.82 3.60615 -1.12982 0
M  V30 1212 H 123.133 7.16341 -2.89958 0
M  V30 1213 H 121.478 6.44485 -2.60122 0
M  V30 1214 H 124.669 4.44098 -1.47967 0
M  V30 1215 H 124.842 6.0632 -2.28648 0
M  V30 1216 N 118.248 0.346503 1.53744 0
M  V30 1217 C 119.473 -0.253074 2.0585 0
M  V30 1218 C 119.898 -1.43202 1.21962 0
M  V30 1219 O 119.256 -1.79783 0.234073 0
M  V30 1220 C 119.304 -0.643193 3.54817 0
M  V30 1221 O 118.408 -1.74286 3.73762 0
M  V30 1222 H 117.749 -0.0413583 0.662711 0
M  V30 1223 H 120.279 0.501574 1.98357 0
M  V30 1224 H 120.289 -0.919526 3.97503 0
M  V30 1225 H 118.964 0.218966 4.15323 0
M  V30 1226 H 117.541 -1.46356 3.42979 0
M  V30 1227 N 119.726 -1.57421 0.075193 0
M  V30 1228 C 120.658 -2.09904 -0.920483 0
M  V30 1229 C 121.671 -1.03191 -1.25918 0
M  V30 1230 O 122.86 -1.30695 -1.21577 0
M  V30 1231 C 119.96 -2.54726 -2.23534 0
M  V30 1232 C 119.133 -3.8505 -2.07498 0
M  V30 1233 C 118.192 -4.15929 -3.22319 0
M  V30 1234 O 117.218 -4.85474 -2.9716 0
M  V30 1235 N 118.42 -3.69745 -4.47514 0
M  V30 1236 H 121.185 -2.95954 -0.472359 0
M  V30 1237 H 118.746 -1.61523 -0.110444 0
M  V30 1238 H 120.738 -2.72443 -2.9926 0
M  V30 1239 H 119.308 -1.73795 -2.59835 0
M  V30 1240 H 118.528 -3.76679 -1.16219 0
M  V30 1241 H 119.816 -4.70348 -1.94038 0
M  V30 1242 H 119.214 -3.13569 -4.7084 0
M  V30 1243 H 117.771 -3.92655 -5.20255 0
M  V30 1244 N 121.204 0.198386 -1.56346 0
M  V30 1245 C 122.481 0.944982 -1.71258 0
M  V30 1246 C 122.861 2.0151 -0.629048 0
M  V30 1247 O 122.209 2.25639 0.360473 0
M  V30 1248 C 122.419 1.5344 -3.1346 0
M  V30 1249 C 123.767 2.01778 -3.73591 0
M  V30 1250 O 124.791 1.63288 -3.16568 0
M  V30 1251 O 123.65 2.72594 -4.73661 0
M  V30 1252 H 120.744 0.442939 -0.69838 0
M  V30 1253 H 123.29 0.188342 -1.68652 0
M  V30 1254 H 122.062 0.762869 -3.83792 0
M  V30 1255 H 121.685 2.35596 -3.20282 0
M  V30 1256 N 122.682 1.50554 0.465978 0
M  V30 1257 C 123.93 1.61479 1.21528 0
M  V30 1258 C 124.251 0.319596 1.92363 0
M  V30 1259 O 123.521 -0.663194 1.84333 0
M  V30 1260 H 122.101 0.595055 0.451573 0
M  V30 1261 H 124.763 1.87355 0.53704 0
M  V30 1262 H 123.859 2.42846 1.96042 0
M  V30 1263 N 124.16 -0.719506 1.40217 0
M  V30 1264 C 125.385 -1.51371 1.4178 0
M  V30 1265 C 125.81 -1.88091 0.0182355 0
M  V30 1266 O 125.168 -1.52997 -0.972707 0
M  V30 1267 C 125.216 -2.768 2.31115 0
M  V30 1268 O 124.32 -3.73349 1.7517 0
M  V30 1269 H 123.661 -0.456529 0.482159 0
M  V30 1270 H 126.191 -0.88644 1.844 0
M  V30 1271 H 126.201 -3.25371 2.46167 0
M  V30 1272 H 124.876 -2.49407 3.3282 0
M  V30 1273 H 123.453 -3.32179 1.69444 0
M  V30 1274 N 125.638 -1.25649 -0.95132 0
M  V30 1275 C 126.588 -1.03004 -2.03406 0
M  V30 1276 C 127.572 0.034187 -1.60864 0
M  V30 1277 O 128.764 -0.181549 -1.76066 0
M  V30 1278 C 125.893 -0.654255 -3.37008 0
M  V30 1279 C 124.979 -1.75542 -3.86065 0
M  V30 1280 N 125.37 -2.99113 -4.07879 0
M  V30 1281 C 123.668 -1.63669 -4.14884 0
M  V30 1282 C 124.369 -3.70611 -4.48356 0
M  V30 1283 N 123.345 -2.98247 -4.54477 0
M  V30 1284 H 127.147 -1.96813 -2.1827 0
M  V30 1285 H 124.661 -1.16017 -1.13639 0
M  V30 1286 H 126.658 -0.473206 -4.14206 0
M  V30 1287 H 125.318 0.276468 -3.23521 0
M  V30 1288 H 126.329 -3.35124 -3.94857 0
M  V30 1289 H 123.006 -0.775161 -4.10241 0
M  V30 1290 H 124.396 -4.76695 -4.73509 0
M  V30 1291 N 127.117 1.15442 -1.07289 0
M  V30 1292 C 128.047 2.22312 -0.714107 0
M  V30 1293 C 129.028 1.67467 0.298155 0
M  V30 1294 O 130.213 1.93445 0.171048 0
M  V30 1295 C 127.343 3.47124 -0.110448 0
M  V30 1296 C 126.297 4.14926 -1.04979 0
M  V30 1297 C 125.623 5.33807 -0.308924 0
M  V30 1298 C 126.923 4.64762 -2.38314 0
M  V30 1299 H 128.617 2.5258 -1.6076 0
M  V30 1300 H 126.163 1.21404 -0.77441 0
M  V30 1301 H 128.116 4.21124 0.152482 0
M  V30 1302 H 126.84 3.16187 0.81812 0
M  V30 1303 H 125.499 3.42866 -1.29764 0
M  V30 1304 H 125.147 4.99126 0.623084 0
M  V30 1305 H 124.847 5.80113 -0.935036 0
M  V30 1306 H 126.371 6.10576 -0.0537771 0
M  V30 1307 H 127.785 5.30292 -2.1786 0
M  V30 1308 H 126.182 5.21728 -2.96514 0
M  V30 1309 H 127.252 3.80434 -3.00663 0
M  V30 1310 N 128.595 0.856903 1.32268 0
M  V30 1311 C 129.525 0.31858 2.31316 0
M  V30 1312 C 130.506 -0.583487 1.59779 0
M  V30 1313 O 131.691 -0.503259 1.87566 0
M  V30 1314 C 128.821 -0.491979 3.43798 0
M  V30 1315 C 127.775 0.315849 4.26833 0
M  V30 1316 C 127.101 -0.619586 5.31098 0
M  V30 1317 C 128.401 1.54282 4.98993 0
M  V30 1318 H 130.095 1.14621 2.76591 0
M  V30 1319 H 127.641 0.552613 1.32974 0
M  V30 1320 H 129.594 -0.879012 4.1213 0
M  V30 1321 H 128.318 -1.35299 2.97257 0
M  V30 1322 H 126.977 0.684664 3.6015 0
M  V30 1323 H 126.625 -1.47751 4.8081 0
M  V30 1324 H 126.325 -0.0830621 5.87541 0
M  V30 1325 H 127.849 -1.00375 6.02293 0
M  V30 1326 H 129.263 1.22796 5.59995 0
M  V30 1327 H 127.66 2.01745 5.65172 0
M  V30 1328 H 128.73 2.30285 4.26728 0
M  V30 1329 N 130.073 -1.45103 0.615059 0
M  V30 1330 C 131.02 -2.30586 -0.0993978 0
M  V30 1331 C 131.99 -1.42544 -0.852669 0
M  V30 1332 O 133.175 -1.71465 -0.836917 0
M  V30 1333 C 130.315 -3.27572 -1.08583 0
M  V30 1334 C 129.428 -4.30717 -0.332656 0
M  V30 1335 C 128.563 -5.14807 -1.30947 0
M  V30 1336 C 127.602 -6.09673 -0.544538 0
M  V30 1337 N 126.739 -6.86517 -1.47101 0
M  V30 1338 H 131.579 -2.91144 0.635542 0
M  V30 1339 H 129.116 -1.4346 0.325206 0
M  V30 1340 H 131.074 -3.82276 -1.67095 0
M  V30 1341 H 129.704 -2.68751 -1.78809 0
M  V30 1342 H 128.756 -3.78615 0.368107 0
M  V30 1343 H 130.068 -4.98102 0.263842 0
M  V30 1344 H 129.222 -5.73948 -1.96643 0
M  V30 1345 H 127.961 -4.47458 -1.9399 0
M  V30 1346 H 126.966 -5.49656 0.126003 0
M  V30 1347 H 128.191 -6.79052 0.080947 0
M  V30 1348 H 126.137 -6.21851 -2.08895 0
M  V30 1349 H 126.054 -7.50281 -0.928137 0
M  V30 1350 H 127.322 -7.50194 -2.11731 0
M  V30 1351 N 131.551 -0.354651 -1.53558 0
M  V30 1352 C 132.776 0.242153 -2.05981 0
M  V30 1353 C 133.201 1.42553 -1.2272 0
M  V30 1354 O 132.559 1.79656 -0.243604 0
M  V30 1355 C 132.607 0.624367 -3.55154 0
M  V30 1356 O 131.711 1.72301 -3.74681 0
M  V30 1357 H 131.052 0.0378432 -0.662921 0
M  V30 1358 H 133.582 -0.512087 -1.98088 0
M  V30 1359 H 133.592 0.898433 -3.97985 0
M  V30 1360 H 132.267 -0.240989 -4.15201 0
M  V30 1361 H 130.844 1.44535 -3.4375 0
M  V30 1362 N 133.029 1.57378 -0.0835403 0
M  V30 1363 C 133.992 2.12252 0.864959 0
M  V30 1364 C 134.992 1.04916 1.21858 0
M  V30 1365 O 136.182 1.30853 1.14991 0
M  V30 1366 C 133.314 2.63358 2.16461 0
M  V30 1367 H 134.507 2.97371 0.388676 0
M  V30 1368 H 132.06 1.55423 0.165317 0
M  V30 1369 H 132.795 1.81727 2.686 0
M  V30 1370 H 132.58 3.41826 1.92087 0
M  V30 1371 H 134.07 3.05847 2.84337 0
M  V30 1372 N 134.507 -0.190092 1.56449 0
M  V30 1373 C 135.923 -0.54113 1.50146 0
M  V30 1374 C 136.123 -1.85603 0.784465 0
M  V30 1375 O 135.179 -2.5024 0.337051 0
M  V30 1376 C 136.492 -0.591241 2.9483 0
M  V30 1377 C 138.04 -0.679732 3.0553 0
M  V30 1378 C 138.515 -0.760908 4.51635 0
M  V30 1379 N 140.006 -0.824302 4.55806 0
M  V30 1380 C 140.741 -0.907365 5.66175 0
M  V30 1381 N 140.237 -0.952422 6.86222 0
M  V30 1382 N 142.03 -0.94494 5.541 0
M  V30 1383 H 134.181 0.67235 2.01478 0
M  V30 1384 H 136.444 0.240127 0.917084 0
M  V30 1385 H 136.15 0.305905 3.50367 0
M  V30 1386 H 136.024 -1.44422 3.48457 0
M  V30 1387 H 138.411 -1.56731 2.50039 0
M  V30 1388 H 138.492 0.199549 2.5502 0
M  V30 1389 H 138.136 0.122336 5.07753 0
M  V30 1390 H 138.066 -1.65606 4.99882 0
M  V30 1391 H 140.557 -0.798526 3.69367 0
M  V30 1392 H 140.87 -1.01645 7.66086 0
M  V30 1393 H 139.215 -0.921014 6.8887 0
M  V30 1394 H 142.406 -0.906612 4.59236 0
M  V30 1395 H 142.579 -1.00622 6.4014 0
M  V30 1396 N 135.985 -1.50799 -0.457987 0
M  V30 1397 C 137.215 -1.65977 -1.23025 0
M  V30 1398 C 137.623 -0.347918 -1.85974 0
M  V30 1399 O 136.966 0.68148 -1.70592 0
M  V30 1400 C 137.028 -2.70309 -2.3701 0
M  V30 1401 C 136.692 -4.135 -1.94594 0
M  V30 1402 C 137.689 -4.98949 -1.46101 0
M  V30 1403 C 135.374 -4.5949 -2.02915 0
M  V30 1404 C 137.368 -6.28442 -1.06489 0
M  V30 1405 C 135.055 -5.88984 -1.62914 0
M  V30 1406 C 136.053 -6.73286 -1.1478 0
M  V30 1407 O 135.741 -8.00362 -0.75339 0
M  V30 1408 H 135.473 -0.56064 -0.377702 0
M  V30 1409 H 138.027 -1.97857 -0.551537 0
M  V30 1410 H 136.257 -2.337 -3.08093 0
M  V30 1411 H 137.946 -2.74574 -2.98938 0
M  V30 1412 H 138.712 -4.6463 -1.39084 0
M  V30 1413 H 134.591 -3.94009 -2.39328 0
M  V30 1414 H 138.135 -6.94194 -0.688488 0
M  V30 1415 H 134.032 -6.22822 -1.69595 0
M  V30 1416 H 134.8 -8.13744 -0.88108 0
M  V30 1417 N 137.463 0.71206 -1.40597 0
M  V30 1418 C 138.393 1.83889 -1.43899 0
M  V30 1419 C 139.374 1.67442 -0.299504 0
M  V30 1420 O 140.559 1.87421 -0.508624 0
M  V30 1421 C 137.689 3.21877 -1.30431 0
M  V30 1422 C 136.643 3.53002 -2.42019 0
M  V30 1423 C 135.969 4.90172 -2.13626 0
M  V30 1424 C 137.269 3.53643 -3.84362 0
M  V30 1425 H 138.963 1.81383 -2.38203 0
M  V30 1426 H 136.509 0.871237 -1.14654 0
M  V30 1427 H 138.462 4.00404 -1.31357 0
M  V30 1428 H 137.186 3.24968 -0.326049 0
M  V30 1429 H 135.845 2.76818 -2.40349 0
M  V30 1430 H 135.493 4.89869 -1.14182 0
M  V30 1431 H 135.193 5.11962 -2.88389 0
M  V30 1432 H 136.717 5.71028 -2.1624 0
M  V30 1433 H 138.131 4.22203 -3.87837 0
M  V30 1434 H 136.528 3.86961 -4.58673 0
M  V30 1435 H 137.598 2.52954 -4.13693 0
M  V30 1436 N 138.941 1.26152 0.944643 0
M  V30 1437 C 139.873 1.03199 2.04652 0
M  V30 1438 C 140.886 -0.00642356 1.62799 0
M  V30 1439 O 142.075 0.233263 1.76969 0
M  V30 1440 C 139.175 0.540111 3.34568 0
M  V30 1441 C 138.348 1.64697 4.05208 0
M  V30 1442 C 137.407 1.15374 5.13396 0
M  V30 1443 O 136.433 1.85013 5.38293 0
M  V30 1444 N 137.635 0.00031529 5.805 0
M  V30 1445 H 140.4 1.9808 2.2491 0
M  V30 1446 H 137.961 1.17491 1.11389 0
M  V30 1447 H 139.953 0.194401 4.04233 0
M  V30 1448 H 138.523 -0.315021 3.11009 0
M  V30 1449 H 137.743 2.16379 3.29506 0
M  V30 1450 H 139.031 2.3903 4.49157 0
M  V30 1451 H 138.429 -0.581336 5.62705 0
M  V30 1452 H 136.986 -0.286346 6.51171 0
M  V30 1453 N 140.419 -1.14872 1.07899 0
M  V30 1454 C 141.351 -2.19425 0.662231 0
M  V30 1455 C 142.364 -1.60231 -0.288079 0
M  V30 1456 O 143.553 -1.78336 -0.076534 0
M  V30 1457 C 140.653 -3.38867 -0.0470695 0
M  V30 1458 C 139.826 -4.27597 0.920831 0
M  V30 1459 C 138.885 -5.25616 0.247805 0
M  V30 1460 O 137.911 -5.62189 0.890599 0
M  V30 1461 N 139.113 -5.71746 -1.00435 0
M  V30 1462 H 141.878 -2.55797 1.56166 0
M  V30 1463 H 139.439 -1.30042 0.964404 0
M  V30 1464 H 141.431 -4.01497 -0.50813 0
M  V30 1465 H 140.001 -3.00864 -0.848523 0
M  V30 1466 H 139.221 -3.61982 1.56087 0
M  V30 1467 H 140.509 -4.83748 1.57688 0
M  V30 1468 H 139.907 -5.44153 -1.54642 0
M  V30 1469 H 138.464 -6.36389 -1.40899 0
M  V30 1470 N 141.898 -0.863906 -1.31812 0
M  V30 1471 C 142.808 -0.318461 -2.32428 0
M  V30 1472 C 143.824 0.568496 -1.64451 0
M  V30 1473 O 145 0.46666 -1.95919 0
M  V30 1474 C 142.065 0.476355 -3.43412 0
M  V30 1475 C 141.126 -0.43784 -4.27061 0
M  V30 1476 C 140.359 0.319138 -5.32745 0
M  V30 1477 O 140.582 1.54799 -5.48993 0
M  V30 1478 O 139.516 -0.319861 -6.01049 0
M  V30 1479 H 143.342 -1.15229 -2.80991 0
M  V30 1480 H 140.927 -0.627103 -1.35602 0
M  V30 1481 H 142.809 0.927156 -4.11074 0
M  V30 1482 H 141.484 1.28683 -2.97022 0
M  V30 1483 H 140.391 -0.937013 -3.62175 0
M  V30 1484 H 141.724 -1.21375 -4.77 0
M  V30 1485 N 143.376 1.44774 -0.622745 0
M  V30 1486 C 144.306 2.33382 0.0741861 0
M  V30 1487 C 145.287 1.47719 0.843387 0
M  V30 1488 O 146.472 1.76458 0.810934 0
M  V30 1489 C 143.602 3.30663 1.06204 0
M  V30 1490 C 142.556 4.26079 0.405037 0
M  V30 1491 C 141.882 5.13165 1.5022 0
M  V30 1492 C 143.182 5.1781 -0.683414 0
M  V30 1493 H 144.876 2.91905 -0.665713 0
M  V30 1494 H 142.422 1.40363 -0.321587 0
M  V30 1495 H 144.375 3.9153 1.55827 0
M  V30 1496 H 143.099 2.70331 1.83272 0
M  V30 1497 H 141.758 3.66532 -0.0704683 0
M  V30 1498 H 141.406 4.49191 2.26355 0
M  V30 1499 H 141.106 5.77812 1.06803 0
M  V30 1500 H 142.63 5.76902 2.00041 0
M  V30 1501 H 144.044 5.72661 -0.270631 0
M  V30 1502 H 142.441 5.91015 -1.04023 0
M  V30 1503 H 143.511 4.59326 -1.55395 0
M  V30 1504 N 144.854 0.36279 1.53368 0
M  V30 1505 C 146.265 -0.117022 1.86333 0
M  V30 1506 C 146.616 -1.48397 1.28347 0
M  V30 1507 O 145.741 -2.07787 0.604428 0
M  V30 1508 C 146.336 -0.21912 3.38091 0
M  V30 1509 C 144.895 -0.643184 3.70864 0
M  V30 1510 C 144.042 0.211318 2.76494 0
M  V30 1511 H 146.993 0.581687 1.47655 0
M  V30 1512 H 147.014 -1.04319 3.6592 0
M  V30 1513 H 146.526 0.775902 3.80265 0
M  V30 1514 H 144.627 -1.64654 3.34245 0
M  V30 1515 H 144.74 -0.41973 4.77258 0
M  V30 1516 H 143.104 -0.319367 2.5269 0
M  V30 1517 H 143.887 1.20383 3.21501 0
M  V30 1518 N 146.332 -1.57332 0.0918853 0
M  V30 1519 C 147.578 -1.94524 -0.573425 0
M  V30 1520 C 147.911 -0.973578 -1.68033 0
M  V30 1521 O 147.186 -0.00609226 -1.94499 0
M  V30 1522 C 147.469 -3.41858 -1.13161 0
M  V30 1523 C 147.322 -4.4979 -0.0299747 0
M  V30 1524 C 148.641 -3.90435 -2.03098 0
M  V30 1525 H 145.76 -0.70734 -0.206975 0
M  V30 1526 H 148.402 -1.89309 0.161942 0
M  V30 1527 H 146.552 -3.46433 -1.7583 0
M  V30 1528 H 148.224 -4.57327 0.604112 0
M  V30 1529 H 146.467 -4.291 0.636833 0
M  V30 1530 H 147.138 -5.50069 -0.461287 0
M  V30 1531 H 149.614 -3.87992 -1.50338 0
M  V30 1532 H 148.49 -4.94097 -2.39081 0
M  V30 1533 H 148.751 -3.29541 -2.94712 0
M  V30 1534 N 147.81 0.181792 -1.56548 0
M  V30 1535 C 149.226 0.53316 -1.50431 0
M  V30 1536 C 149.426 1.85184 -0.794297 0
M  V30 1537 O 148.482 2.50058 -0.350318 0
M  V30 1538 C 149.795 0.575597 -2.9514 0
M  V30 1539 C 151.343 0.663519 -3.05886 0
M  V30 1540 C 151.818 0.736946 -4.52032 0
M  V30 1541 N 153.309 0.800118 -4.56237 0
M  V30 1542 C 154.044 0.877327 -5.66649 0
M  V30 1543 N 153.54 0.916016 -6.86718 0
M  V30 1544 N 155.333 0.915542 -5.54594 0
M  V30 1545 H 147.484 -0.683025 -2.01118 0
M  V30 1546 H 149.747 -0.244988 -0.915797 0
M  V30 1547 H 149.453 -0.324482 -3.502 0
M  V30 1548 H 149.327 1.42572 -3.49218 0
M  V30 1549 H 151.714 1.55403 -2.50867 0
M  V30 1550 H 151.795 -0.21307 -2.54911 0
M  V30 1551 H 151.439 -0.149262 -5.07681 0
M  V30 1552 H 151.369 1.62953 -5.00753 0
M  V30 1553 H 153.86 0.778926 -3.69785 0
M  V30 1554 H 154.173 0.975813 -7.66614 0
M  V30 1555 H 152.518 0.884469 -6.89349 0
M  V30 1556 H 155.709 0.882245 -4.59711 0
M  V30 1557 H 155.882 0.972253 -6.40665 0
M  V30 1558 N 149.288 1.51039 0.449983 0
M  V30 1559 C 150.537 1.62317 1.19733 0
M  V30 1560 C 150.85 0.339101 1.92638 0
M  V30 1561 O 152.056 0.331069 2.69474 0
M  V30 1562 C 150.512 2.86608 2.17678 0
M  V30 1563 C 150.12 4.21972 1.50479 0
M  V30 1564 C 151.864 3.07239 2.92924 0
M  V30 1565 C 149.771 5.37426 2.46834 0
M  V30 1566 H 148.701 0.604532 0.450619 0
M  V30 1567 H 151.352 1.77494 0.465625 0
M  V30 1568 H 149.734 2.65037 2.94231 0
M  V30 1569 H 150.908 4.53878 0.795716 0
M  V30 1570 H 149.223 4.07117 0.874344 0
M  V30 1571 H 151.82 3.90668 3.65079 0
M  V30 1572 H 152.163 2.19807 3.5354 0
M  V30 1573 H 152.696 3.29091 2.23481 0
M  V30 1574 H 149.435 6.27079 1.90926 0
M  V30 1575 H 148.955 5.09912 3.15832 0
M  V30 1576 H 150.634 5.68862 3.08228 0
M  V30 1577 N 150.766 -0.704594 1.40972 0
M  V30 1578 C 151.729 -1.80035 1.41845 0
M  V30 1579 C 152.729 -1.57774 0.310474 0
M  V30 1580 O 153.919 -1.64613 0.56992 0
M  V30 1581 C 151.051 -3.18284 1.22098 0
M  V30 1582 H 152.244 -1.80658 2.3938 0
M  V30 1583 H 149.797 -0.911329 1.26982 0
M  V30 1584 H 150.532 -3.23306 0.253672 0
M  V30 1585 H 150.317 -3.35843 2.02366 0
M  V30 1586 H 151.807 -3.98289 1.25522 0
M  V30 1587 N 152.244 -1.26651 -0.937939 0
M  V30 1588 C 153.194 -1.05156 -2.02302 0
M  V30 1589 C 154.178 0.0171233 -1.60891 0
M  V30 1590 O 155.37 -0.200213 -1.75864 0
M  V30 1591 C 152.499 -0.689962 -3.36295 0
M  V30 1592 C 151.585 -1.79626 -3.84181 0
M  V30 1593 N 151.976 -3.03422 -4.04684 0
M  V30 1594 C 150.274 -1.6806 -4.13124 0
M  V30 1595 C 150.975 -3.75345 -4.444 0
M  V30 1596 N 149.951 -3.03051 -4.51288 0
M  V30 1597 H 153.753 -1.99117 -2.1617 0
M  V30 1598 H 151.267 -1.17216 -1.12402 0
M  V30 1599 H 153.264 -0.517112 -4.13681 0
M  V30 1600 H 151.924 0.242139 -3.23796 0
M  V30 1601 H 152.935 -3.39293 -3.91281 0
M  V30 1602 H 149.612 -0.818629 -4.09396 0
M  V30 1603 H 151.002 -4.81691 -4.68427 0
M  V30 1604 N 153.722 1.14298 -1.08507 0
M  V30 1605 C 155.138 1.37347 -0.812901 0
M  V30 1606 C 155.338 1.93052 0.577325 0
M  V30 1607 O 154.394 2.14389 1.33393 0
M  V30 1608 C 155.707 2.33359 -1.89642 0
M  V30 1609 C 157.255 2.46996 -1.92255 0
M  V30 1610 C 157.73 3.46309 -2.99724 0
M  V30 1611 N 159.221 3.53853 -2.98902 0
M  V30 1612 C 159.956 4.3055 -3.787 0
M  V30 1613 N 159.452 5.10482 -4.6838 0
M  V30 1614 N 161.245 4.25757 -3.66998 0
M  V30 1615 H 153.396 0.764867 -1.9815 0
M  V30 1616 H 155.659 0.398966 -0.859959 0
M  V30 1617 H 155.365 1.99565 -2.89597 0
M  V30 1618 H 155.239 3.33274 -1.76659 0
M  V30 1619 H 157.626 2.80081 -0.929445 0
M  V30 1620 H 157.707 1.47039 -2.09316 0
M  V30 1621 H 157.351 3.13957 -3.99241 0
M  V30 1622 H 157.281 4.46049 -2.79907 0
M  V30 1623 H 159.772 2.96812 -2.33904 0
M  V30 1624 H 160.085 5.66284 -5.25873 0
M  V30 1625 H 158.43 5.09747 -4.72422 0
M  V30 1626 H 161.621 3.62383 -2.96304 0
M  V30 1627 H 161.794 4.85279 -4.29427 0
M  V30 1628 N 155.201 0.870884 1.31352 0
M  V30 1629 C 156.45 0.478408 1.95944 0
M  V30 1630 C 156.763 -0.974493 1.69597 0
M  V30 1631 O 157.969 -1.47316 2.28058 0
M  V30 1632 C 156.425 0.804609 3.50791 0
M  V30 1633 C 156.033 2.27433 3.85977 0
M  V30 1634 C 157.777 0.480648 4.2177 0
M  V30 1635 C 155.684 2.5429 5.33939 0
M  V30 1636 H 154.614 0.175175 0.733369 0
M  V30 1637 H 157.265 1.06391 1.4951 0
M  V30 1638 H 155.647 0.148347 3.95722 0
M  V30 1639 H 156.821 2.97373 3.52002 0
M  V30 1640 H 155.136 2.56442 3.28065 0
M  V30 1641 H 157.733 0.658519 5.30629 0
M  V30 1642 H 158.076 -0.578979 4.12254 0
M  V30 1643 H 158.609 1.09349 3.82476 0
M  V30 1644 H 155.348 3.58939 5.48491 0
M  V30 1645 H 154.868 1.88945 5.69263 0
M  V30 1646 H 156.547 2.39066 6.01212 0
M  V30 1647 N 156.679 -1.44442 0.630414 0
M  V30 1648 C 157.626 -2.30678 -0.0749355 0
M  V30 1649 C 158.596 -1.4344 -0.837502 0
M  V30 1650 O 159.781 -1.72343 -0.818684 0
M  V30 1651 C 156.921 -3.28706 -1.05103 0
M  V30 1652 C 156.034 -4.31046 -0.286954 0
M  V30 1653 C 155.169 -5.16167 -1.2548 0
M  V30 1654 C 154.208 -6.10216 -0.479843 0
M  V30 1655 N 153.345 -6.88039 -1.39811 0
M  V30 1656 H 158.185 -2.90454 0.666386 0
M  V30 1657 H 155.722 -1.43107 0.340404 0
M  V30 1658 H 157.68 -3.84027 -1.63031 0
M  V30 1659 H 156.31 -2.70632 -1.75949 0
M  V30 1660 H 155.362 -3.78203 0.408243 0
M  V30 1661 H 156.674 -4.97794 0.316657 0
M  V30 1662 H 155.828 -5.76002 -1.90544 0
M  V30 1663 H 154.567 -4.49491 -1.89233 0
M  V30 1664 H 153.572 -5.49491 0.184295 0
M  V30 1665 H 154.797 -6.78928 0.152965 0
M  V30 1666 H 152.743 -6.24032 -2.02287 0
M  V30 1667 H 152.66 -7.51223 -0.848508 0
M  V30 1668 H 153.928 -7.52397 -2.03762 0
M  V30 1669 N 158.157 -0.370918 -1.53173 0
M  V30 1670 C 159.405 0.216673 -2.00935 0
M  V30 1671 C 159.726 1.48845 -1.25977 0
M  V30 1672 O 158.996 1.92286 -0.374551 0
M  V30 1673 H 157.576 0.0830565 -0.742368 0
M  V30 1674 H 160.238 -0.49838 -1.8842 0
M  V30 1675 H 159.334 0.439893 -3.08984 0
M  V30 1676 N 159.635 1.57281 -0.100228 0
M  V30 1677 C 160.882 1.94537 0.562268 0
M  V30 1678 C 161.21 0.982315 1.67871 0
M  V30 1679 O 160.465 0.00280936 1.957 0
M  V30 1680 C 160.764 3.38305 1.15259 0
M  V30 1681 C 160.43 4.50618 0.159409 0
M  V30 1682 C 159.092 4.81066 -0.113741 0
M  V30 1683 C 161.444 5.18615 -0.518461 0
M  V30 1684 C 158.772 5.76835 -1.07137 0
M  V30 1685 C 161.124 6.15412 -1.46459 0
M  V30 1686 C 159.788 6.44262 -1.74592 0
M  V30 1687 H 159.058 0.711863 0.205748 0
M  V30 1688 H 161.705 1.90679 -0.17715 0
M  V30 1689 H 160.01 3.38766 1.96836 0
M  V30 1690 H 161.707 3.64435 1.67297 0
M  V30 1691 H 158.297 4.2689 0.382491 0
M  V30 1692 H 162.481 4.95264 -0.320581 0
M  V30 1693 H 157.737 5.975 -1.29628 0
M  V30 1694 H 161.911 6.67194 -1.99564 0
M  V30 1695 H 159.538 7.1828 -2.48953 0
M  V30 1696 N 161.113 -0.173488 1.56642 0
M  V30 1697 C 162.529 -0.525174 1.50712 0
M  V30 1698 C 162.729 -1.8476 0.804107 0
M  V30 1699 O 161.785 -2.49869 0.363574 0
M  V30 1700 C 163.098 -0.559937 2.95441 0
M  V30 1701 C 164.646 -0.647288 3.06234 0
M  V30 1702 C 165.121 -0.712963 4.52417 0
M  V30 1703 N 166.612 -0.775911 4.56655 0
M  V30 1704 C 167.347 -0.847264 5.67106 0
M  V30 1705 N 166.843 -0.879585 6.87194 0
M  V30 1706 N 168.636 -0.886117 5.55071 0
M  V30 1707 H 160.787 0.693681 2.00753 0
M  V30 1708 H 163.05 0.249841 0.914485 0
M  V30 1709 H 162.756 0.343049 3.50023 0
M  V30 1710 H 162.63 -1.40718 3.49969 0
M  V30 1711 H 165.017 -1.5407 2.51687 0
M  V30 1712 H 165.098 0.226586 2.54794 0
M  V30 1713 H 164.742 0.176183 5.07594 0
M  V30 1714 H 164.672 -1.60295 5.0161 0
M  V30 1715 H 167.163 -0.759304 3.70193 0
M  V30 1716 H 167.476 -0.935144 7.67121 0
M  V30 1717 H 165.821 -0.847898 6.89808 0
M  V30 1718 H 169.012 -0.857853 4.60172 0
M  V30 1719 H 169.185 -0.938263 6.41171 0
M  V30 1720 N 162.591 -1.51276 -0.441967 0
M  V30 1721 C 163.831 -1.65372 -1.20132 0
M  V30 1722 C 164.195 -0.359871 -1.88597 0
M  V30 1723 O 165.396 -0.376551 -2.66149 0
M  V30 1724 C 163.667 -2.8207 -2.1948 0
M  V30 1725 S 165.226 -3.16467 -3.03964 0
M  V30 1726 H 162.044 -0.582669 -0.407453 0
M  V30 1727 H 164.646 -1.89166 -0.493609 0
M  V30 1728 H 163.35 -3.74523 -1.67812 0
M  V30 1729 H 162.881 -2.6045 -2.94838 0
M  V30 1730 H 164.896 -2.62543 -4.21053 0
M  V30 1731 N 164.069 0.697108 -1.41344 0
M  V30 1732 C 164.999 1.82353 -1.45841 0
M  V30 1733 C 165.98 1.67115 -0.317247 0
M  V30 1734 O 167.165 1.86871 -0.528474 0
M  V30 1735 C 164.295 3.20476 -1.33838 0
M  V30 1736 C 163.249 3.50415 -2.4575 0
M  V30 1737 C 162.575 4.87878 -2.18813 0
M  V30 1738 C 163.875 3.49546 -3.88091 0
M  V30 1739 H 165.569 1.78846 -2.40113 0
M  V30 1740 H 163.115 0.859028 -1.15571 0
M  V30 1741 H 165.068 3.98988 -1.35596 0
M  V30 1742 H 163.792 3.24604 -0.360498 0
M  V30 1743 H 162.451 2.74253 -2.43271 0
M  V30 1744 H 162.099 4.8863 -1.19371 0
M  V30 1745 H 161.799 5.08875 -2.93803 0
M  V30 1746 H 163.323 5.68702 -2.22284 0
M  V30 1747 H 164.737 4.18066 -3.92293 0
M  V30 1748 H 163.134 3.82075 -4.62751 0
M  V30 1749 H 164.204 2.48552 -4.16353 0
M  V30 1750 N 165.547 1.27147 0.931209 0
M  V30 1751 C 166.958 1.12044 1.49342 0
M  V30 1752 C 167.309 -0.295795 1.93957 0
M  V30 1753 O 166.434 -1.18835 1.80852 0
M  V30 1754 C 167.029 2.02781 2.71414 0
M  V30 1755 C 165.588 1.91794 3.2387 0
M  V30 1756 C 164.735 1.95543 1.96617 0
M  V30 1757 H 167.686 1.40091 0.745672 0
M  V30 1758 H 167.707 1.58156 3.46074 0
M  V30 1759 H 167.219 3.05848 2.38911 0
M  V30 1760 H 165.32 0.916992 3.6114 0
M  V30 1761 H 165.433 2.77852 3.90302 0
M  V30 1762 H 163.797 1.39722 2.12955 0
M  V30 1763 H 164.58 3.00259 1.66432 0
M  V30 1764 N 167.025 -1.13721 1.09112 0
M  V30 1765 C 168.272 -1.84924 0.825192 0
M  V30 1766 C 168.6 -1.83347 -0.649151 0
M  V30 1767 O 167.855 -1.26449 -1.49362 0
M  V30 1768 C 168.154 -3.32861 1.30146 0
M  V30 1769 C 167.82 -3.54621 2.78486 0
M  V30 1770 C 166.482 -3.60268 3.18999 0
M  V30 1771 C 168.834 -3.62855 3.74146 0
M  V30 1772 C 166.162 -3.71679 4.53951 0
M  V30 1773 C 168.514 -3.75793 5.08883 0
M  V30 1774 C 167.178 -3.79692 5.4899 0
M  V30 1775 H 166.448 -0.676684 0.301959 0
M  V30 1776 H 169.095 -1.3428 1.36533 0
M  V30 1777 H 167.4 -3.85835 0.681064 0
M  V30 1778 H 169.097 -3.86395 1.07236 0
M  V30 1779 H 165.687 -3.50879 2.46134 0
M  V30 1780 H 169.871 -3.57775 3.43963 0
M  V30 1781 H 165.127 -3.72963 4.84467 0
M  V30 1782 H 169.301 -3.81107 5.82864 0
M  V30 1783 H 166.928 -3.88287 6.53558 0
M  V30 1784 N 168.503 -0.877838 -1.30888 0
M  V30 1785 C 169.752 -0.488793 -1.95688 0
M  V30 1786 C 170.065 0.965485 -1.70111 0
M  V30 1787 O 171.271 1.46104 -2.28836 0
M  V30 1788 C 169.727 -0.823201 -3.50359 0
M  V30 1789 C 169.335 -2.29477 -3.84765 0
M  V30 1790 C 171.079 -0.503009 -4.21509 0
M  V30 1791 C 168.986 -2.57118 -5.32583 0
M  V30 1792 H 167.916 -0.179062 -0.732429 0
M  V30 1793 H 170.567 -1.07183 -1.48943 0
M  V30 1794 H 168.949 -0.169331 -3.95638 0
M  V30 1795 H 170.123 -2.99236 -3.5042 0
M  V30 1796 H 168.438 -2.58178 -3.267 0
M  V30 1797 H 171.035 -0.68665 -5.30273 0
M  V30 1798 H 171.378 0.557109 -4.12555 0
M  V30 1799 H 171.911 -1.11376 -3.8189 0
M  V30 1800 H 168.65 -3.61843 -5.4658 0
M  V30 1801 H 168.17 -1.91961 -5.68253 0
M  V30 1802 H 169.849 -2.42251 -5.99936 0
M  V30 1803 N 169.982 1.44106 -0.638065 0
M  V30 1804 C 171.231 2.01194 -0.142744 0
M  V30 1805 C 171.544 1.50835 1.24532 0
M  V30 1806 O 172.75 2.00096 1.83504 0
M  V30 1807 C 171.206 3.59319 -0.20442 0
M  V30 1808 C 170.814 4.18674 -1.59423 0
M  V30 1809 C 172.558 4.23854 0.234079 0
M  V30 1810 C 170.465 5.69045 -1.61065 0
M  V30 1811 H 169.395 0.752367 -0.0495998 0
M  V30 1812 H 172.046 1.65246 -0.797881 0
M  V30 1813 H 170.428 3.92598 0.517946 0
M  V30 1814 H 171.602 3.96921 -2.34074 0
M  V30 1815 H 169.917 3.66453 -1.97741 0
M  V30 1816 H 172.514 5.34155 0.241443 0
M  V30 1817 H 172.857 3.96688 1.2627 0
M  V30 1818 H 173.39 3.95403 -0.436025 0
M  V30 1819 H 170.129 6.00956 -2.61787 0
M  V30 1820 H 169.649 5.929 -0.90718 0
M  V30 1821 H 171.328 6.32809 -1.34766 0
M  V30 1822 N 171.46 0.379036 1.52974 0
M  V30 1823 C 172.708 -0.206014 2.01047 0
M  V30 1824 C 173.029 -1.48175 1.26765 0
M  V30 1825 O 172.299 -1.92085 0.384743 0
M  V30 1826 H 170.879 -0.0791184 0.742798 0
M  V30 1827 H 173.541 0.508366 1.88153 0
M  V30 1828 H 172.637 -0.423501 3.09213 0
M  V30 1829 N 172.938 -1.57226 0.108567 0
M  V30 1830 C 174.178 -1.96717 -0.555155 0
M  V30 1831 C 174.542 -0.990003 -1.64508 0
M  V30 1832 O 175.743 -1.2739 -2.36696 0
M  V30 1833 C 174.014 -3.40575 -1.08367 0
M  V30 1834 S 175.573 -4.02072 -1.75737 0
M  V30 1835 H 172.391 -0.687638 -0.180762 0
M  V30 1836 H 174.993 -1.94563 0.191172 0
M  V30 1837 H 173.697 -4.0945 -0.279092 0
M  V30 1838 H 173.228 -3.46356 -1.86551 0
M  V30 1839 H 175.243 -3.91977 -3.04251 0
M  V30 1840 N 174.416 0.165178 -1.56732 0
M  V30 1841 C 175.364 1.22369 -1.97809 0
M  V30 1842 C 176.358 1.45488 -0.867741 0
M  V30 1843 O 177.564 1.45995 -1.05288 0
M  V30 1844 H 173.939 0.411486 -0.629431 0
M  V30 1845 H 175.91 0.850425 -2.86025 0
M  V30 1846 C 174.659 2.55403 -2.35934 0
M  V30 1847 H 173.982 2.38438 -3.20916 0
M  V30 1848 H 175.422 3.2814 -2.68514 0
M  V30 1849 C 173.881 3.14611 -1.20506 0
M  V30 1850 O 174.411 3.98626 -0.496016 0
M  V30 1851 N 172.617 2.7379 -0.97403 0
M  V30 1852 H 172.164 2.0557 -1.55238 0
M  V30 1853 H 172.122 3.1374 -0.203573 0
M  V30 1854 N 175.894 1.51508 0.433938 0
M  V30 1855 C 177.305 1.56784 1.01369 0
M  V30 1856 C 177.656 0.393349 1.92217 0
M  V30 1857 O 176.781 -0.489441 2.10792 0
M  V30 1858 C 177.376 2.84144 1.8452 0
M  V30 1859 C 175.935 2.9198 2.37539 0
M  V30 1860 C 175.082 2.51482 1.16843 0
M  V30 1861 H 178.033 1.57236 0.215081 0
M  V30 1862 H 178.054 2.68098 2.70007 0
M  V30 1863 H 177.566 3.69607 1.18373 0
M  V30 1864 H 175.667 2.10955 3.0713 0
M  V30 1865 H 175.78 3.95704 2.70103 0
M  V30 1866 H 174.144 2.04758 1.51481 0
M  V30 1867 H 174.927 3.39293 0.523015 0
M  V30 1868 N 177.372 -0.689602 1.41712 0
M  V30 1869 C 178.6 -1.47827 1.44758 0
M  V30 1870 C 179.015 -1.88721 0.0545703 0
M  V30 1871 O 178.372 -1.57176 -0.927463 0
M  V30 1872 C 178.423 -2.73698 2.3616 0
M  V30 1873 O 178.144 -2.34524 3.7004 0
M  V30 1874 C 179.645 -3.67389 2.48072 0
M  V30 1875 H 176.865 -0.455357 0.49284 0
M  V30 1876 H 179.409 -0.848574 1.86063 0
M  V30 1877 H 177.564 -3.32891 1.98148 0
M  V30 1878 H 177.978 -3.15701 4.18847 0
M  V30 1879 H 179.452 -4.52475 3.16181 0
M  V30 1880 H 179.929 -4.12284 1.51388 0
M  V30 1881 H 180.535 -3.14097 2.86746 0
M  V30 1882 N 178.85 -1.27639 -0.924453 0
M  V30 1883 C 180.099 -1.13549 -1.66702 0
M  V30 1884 C 180.412 0.317487 -1.93006 0
M  V30 1885 O 181.618 0.579333 -2.65247 0
M  V30 1886 C 180.074 -1.98426 -3.00259 0
M  V30 1887 C 179.682 -3.484 -2.81641 0
M  V30 1888 C 181.426 -1.92993 -3.78092 0
M  V30 1889 C 179.333 -4.25464 -4.10773 0
M  V30 1890 H 178.263 -0.421351 -0.625283 0
M  V30 1891 H 180.914 -1.52085 -1.02676 0
M  V30 1892 H 179.296 -1.52736 -3.6536 0
M  V30 1893 H 180.47 -4.01973 -2.25287 0
M  V30 1894 H 178.785 -3.55245 -2.17232 0
M  V30 1895 H 181.382 -2.47844 -4.7379 0
M  V30 1896 H 181.725 -0.904281 -4.0636 0
M  V30 1897 H 182.258 -2.36595 -3.19793 0
M  V30 1898 H 178.997 -5.28566 -3.87683 0
M  V30 1899 H 178.517 -3.76667 -4.66779 0
M  V30 1900 H 180.196 -4.34812 -4.79111 0
M  V30 1901 N 180.328 1.1314 -1.09713 0
M  V30 1902 C 181.258 2.20748 -0.761102 0
M  V30 1903 C 182.239 1.68061 0.262566 0
M  V30 1904 O 183.424 1.93765 0.129977 0
M  V30 1905 C 180.554 3.46812 -0.184054 0
M  V30 1906 C 179.508 4.12606 -1.13757 0
M  V30 1907 C 178.834 5.33031 -0.422083 0
M  V30 1908 C 180.134 4.59603 -2.48118 0
M  V30 1909 H 181.828 2.49113 -1.66082 0
M  V30 1910 H 179.374 1.19734 -0.799987 0
M  V30 1911 H 181.327 4.21353 0.0631215 0
M  V30 1912 H 180.051 3.17851 0.750868 0
M  V30 1913 H 178.71 3.40036 -1.37007 0
M  V30 1914 H 178.358 5.00335 0.517072 0
M  V30 1915 H 178.058 5.77999 -1.05788 0
M  V30 1916 H 179.582 6.10325 -0.183277 0
M  V30 1917 H 180.996 5.25552 -2.29059 0
M  V30 1918 H 179.393 5.15321 -3.07514 0
M  V30 1919 H 180.463 3.73971 -3.08665 0
M  V30 1920 N 181.806 0.884767 1.30421 0
M  V30 1921 C 182.756 0.322846 2.25703 0
M  V30 1922 C 183.74 -0.548582 1.51259 0
M  V30 1923 O 184.932 -0.39304 1.72581 0
M  V30 1924 C 182.061 -0.461787 3.4018 0
M  V30 1925 C 181.147 0.423717 4.21978 0
M  V30 1926 N 181.538 1.52408 4.82292 0
M  V30 1927 C 179.836 0.218795 4.45463 0
M  V30 1928 C 180.537 2.07136 5.43571 0
M  V30 1929 N 179.513 1.36635 5.26148 0
M  V30 1930 H 183.315 1.16363 2.69883 0
M  V30 1931 H 180.829 0.73415 1.44859 0
M  V30 1932 H 182.826 -0.880985 4.07485 0
M  V30 1933 H 181.486 -1.30001 2.9754 0
M  V30 1934 H 182.497 1.90693 4.81515 0
M  V30 1935 H 179.174 -0.582275 4.1342 0
M  V30 1936 H 180.564 2.99538 6.01437 0
M  V30 1937 N 183.284 -1.43765 0.645699 0
M  V30 1938 C 184.53 -2.02197 0.156271 0
M  V30 1939 C 184.863 -1.50776 -1.22393 0
M  V30 1940 O 184.138 -0.697771 -1.81553 0
M  V30 1941 C 184.421 -3.59749 0.158872 0
M  V30 1942 C 184.274 -4.21419 1.57245 0
M  V30 1943 C 185.593 -4.37149 -0.50879 0
M  V30 1944 H 182.712 -0.734694 0.0582602 0
M  V30 1945 H 185.354 -1.71157 0.824951 0
M  V30 1946 H 183.504 -3.86325 -0.410525 0
M  V30 1947 H 185.176 -4.059 2.19186 0
M  V30 1948 H 183.419 -3.78356 2.122 0
M  V30 1949 H 184.09 -5.30482 1.52619 0
M  V30 1950 H 186.566 -4.16093 -0.024412 0
M  V30 1951 H 185.442 -5.4683 -0.476213 0
M  V30 1952 H 185.703 -4.12839 -1.58165 0
M  V30 1953 N 184.763 -0.387143 -1.52771 0
M  V30 1954 C 185.713 0.465942 -2.23188 0
M  V30 1955 C 186.697 1.03138 -1.23496 0
M  V30 1956 O 187.889 0.957845 -1.48843 0
M  V30 1957 C 185.018 1.59384 -3.04059 0
M  V30 1958 C 184.104 1.04024 -4.11144 0
M  V30 1959 N 184.495 0.211416 -5.05358 0
M  V30 1960 C 182.793 1.31295 -4.26237 0
M  V30 1961 C 183.494 -0.0941698 -5.81624 0
M  V30 1962 N 182.47 0.509207 -5.4121 0
M  V30 1963 H 186.272 -0.173856 -2.93385 0
M  V30 1964 H 183.786 -0.19633 -1.61209 0
M  V30 1965 H 185.783 2.21738 -3.53041 0
M  V30 1966 H 184.443 2.23648 -2.35397 0
M  V30 1967 H 185.454 -0.151151 -5.17679 0
M  V30 1968 H 182.131 1.95679 -3.68803 0
M  V30 1969 H 183.521 -0.765572 -6.67524 0
M  V30 1970 N 186.241 1.57166 -0.116904 0
M  V30 1971 C 187.151 2.18745 0.847812 0
M  V30 1972 C 188.167 1.163 1.29423 0
M  V30 1973 O 189.343 1.48761 1.35765 0
M  V30 1974 C 186.408 2.77307 2.0809 0
M  V30 1975 C 185.469 3.94781 1.68661 0
M  V30 1976 C 184.702 4.50541 2.86091 0
M  V30 1977 O 184.925 4.05202 4.01456 0
M  V30 1978 O 183.859 5.41256 2.63298 0
M  V30 1979 H 187.685 3.01632 0.353778 0
M  V30 1980 H 185.27 1.49005 0.108599 0
M  V30 1981 H 187.152 3.14647 2.80313 0
M  V30 1982 H 185.827 1.97452 2.56504 0
M  V30 1983 H 184.734 3.62214 0.935518 0
M  V30 1984 H 186.067 4.76065 1.24991 0
M  V30 1985 N 187.719 -0.156864 1.56817 0
M  V30 1986 C 188.649 -1.19589 2.00551 0
M  V30 1987 C 189.63 -1.4536 0.883426 0
M  V30 1988 O 190.815 -1.56449 1.15054 0
M  V30 1989 C 187.945 -2.53143 2.37773 0
M  V30 1990 C 186.899 -2.41913 3.53075 0
M  V30 1991 C 186.225 -3.80088 3.76081 0
M  V30 1992 C 187.525 -1.91157 4.86062 0
M  V30 1993 H 189.219 -0.832293 2.87599 0
M  V30 1994 H 186.765 -0.398918 1.38364 0
M  V30 1995 H 188.718 -3.26047 2.66967 0
M  V30 1996 H 187.442 -2.91319 1.4765 0
M  V30 1997 H 186.101 -1.71462 3.24031 0
M  V30 1998 H 185.749 -4.15683 2.83225 0
M  V30 1999 H 185.449 -3.73439 4.53671 0
M  V30 2000 H 186.973 -4.54556 4.0769 0
M  V30 2001 H 188.387 -2.53846 5.14038 0
M  V30 2002 H 186.784 -1.95422 5.67389 0
M  V30 2003 H 187.854 -0.866673 4.77092 0
M  V30 2004 N 189.197 -1.51736 -0.425897 0
M  V30 2005 C 190.427 -1.68549 -1.19476 0
M  V30 2006 C 190.835 -0.387288 -1.85194 0
M  V30 2007 O 190.178 0.645142 -1.71999 0
M  V30 2008 C 190.24 -2.75275 -2.31223 0
M  V30 2009 C 189.904 -4.17534 -1.8578 0
M  V30 2010 C 190.901 -5.01936 -1.35485 0
M  V30 2011 C 188.586 -4.6369 -1.93123 0
M  V30 2012 C 190.58 -6.30559 -0.931347 0
M  V30 2013 C 188.267 -5.92307 -1.50384 0
M  V30 2014 C 189.265 -6.75569 -1.00473 0
M  V30 2015 O 188.953 -8.0178 -0.583452 0
M  V30 2016 H 188.685 -0.568525 -0.365725 0
M  V30 2017 H 191.239 -1.98982 -0.509444 0
M  V30 2018 H 189.469 -2.40182 -3.03067 0
M  V30 2019 H 191.158 -2.80853 -2.93047 0
M  V30 2020 H 191.924 -4.67475 -1.29197 0
M  V30 2021 H 187.803 -3.98997 -2.30916 0
M  V30 2022 H 191.347 -6.95498 -0.541084 0
M  V30 2023 H 187.244 -6.2628 -1.56346 0
M  V30 2024 H 188.012 -8.1543 -0.708275 0
M  V30 2025 N 190.675 0.682077 -1.42076 0
M  V30 2026 C 191.924 1.43786 -1.41451 0
M  V30 2027 C 192.237 1.95574 -0.0317074 0
M  V30 2028 O 193.443 2.71326 0.0971462 0
M  V30 2029 C 191.899 2.60071 -2.48779 0
M  V30 2030 C 191.507 2.15013 -3.93031 0
M  V30 2031 C 193.251 3.37626 -2.57311 0
M  V30 2032 C 191.158 3.28336 -4.91883 0
M  V30 2033 H 190.088 0.540143 -0.526082 0
M  V30 2034 H 192.739 0.739157 -1.67955 0
M  V30 2035 H 191.121 3.32275 -2.15429 0
M  V30 2036 H 192.295 1.5001 -4.35699 0
M  V30 2037 H 190.61 1.50416 -3.88284 0
M  V30 2038 H 193.207 4.22012 -3.28345 0
M  V30 2039 H 193.55 3.83727 -1.61429 0
M  V30 2040 H 194.083 2.72488 -2.89819 0
M  V30 2041 H 190.822 2.87234 -5.89217 0
M  V30 2042 H 190.342 3.92145 -4.53853 0
M  V30 2043 H 192.021 3.93913 -5.13265 0
M  V30 2044 N 192.153 1.28127 0.917671 0
M  V30 2045 C 193.569 1.05749 1.19538 0
M  V30 2046 C 193.769 -0.202633 2.00479 0
M  V30 2047 O 192.825 -0.905382 2.3571 0
M  V30 2048 C 194.138 2.30273 1.93378 0
M  V30 2049 C 195.686 2.35412 2.06277 0
M  V30 2050 C 196.161 3.59692 2.83524 0
M  V30 2051 N 197.652 3.60309 2.91087 0
M  V30 2052 C 198.387 4.53147 3.51348 0
M  V30 2053 N 197.883 5.563 4.12919 0
M  V30 2054 N 199.676 4.40751 3.48849 0
M  V30 2055 H 191.827 2.09024 0.377184 0
M  V30 2056 H 194.09 0.919798 0.22951 0
M  V30 2057 H 193.796 3.22055 1.41328 0
M  V30 2058 H 193.67 2.36378 2.93947 0
M  V30 2059 H 196.057 1.4413 2.57508 0
M  V30 2060 H 196.138 2.33304 1.04895 0
M  V30 2061 H 195.782 4.51316 2.32973 0
M  V30 2062 H 195.712 3.59054 3.85211 0
M  V30 2063 H 198.203 2.85714 2.47338 0
M  V30 2064 H 198.516 6.2329 4.56869 0
M  V30 2065 H 196.861 5.60131 4.11435 0
M  V30 2066 H 200.052 3.59367 2.99955 0
M  V30 2067 H 200.225 5.13291 3.9552 0
M  V30 2068 N 193.631 -1.12557 1.10312 0
M  V30 2069 C 194.594 -2.16434 0.75424 0
M  V30 2070 C 195.594 -1.59278 -0.220685 0
M  V30 2071 O 196.784 -1.742 0.00230591 0
M  V30 2072 C 193.916 -3.40699 0.116987 0
M  V30 2073 H 195.109 -2.48811 1.67431 0
M  V30 2074 H 192.662 -1.27542 0.903475 0
M  V30 2075 H 193.397 -3.13921 -0.813877 0
M  V30 2076 H 193.182 -3.83459 0.818613 0
M  V30 2077 H 194.672 -4.17451 -0.111387 0
M  V30 2078 N 195.109 -0.891671 -1.2995 0
M  V30 2079 C 196.356 -0.513501 -1.95881 0
M  V30 2080 C 196.684 0.938655 -1.70351 0
M  V30 2081 O 195.939 1.67936 -1.00478 0
M  V30 2082 C 196.238 -0.742868 -3.49594 0
M  V30 2083 C 195.904 -2.17114 -3.95186 0
M  V30 2084 C 194.566 -2.56169 -4.07346 0
M  V30 2085 C 196.918 -3.10162 -4.18866 0
M  V30 2086 C 194.246 -3.87469 -4.4055 0
M  V30 2087 C 196.598 -4.41001 -4.53542 0
M  V30 2088 C 195.262 -4.79941 -4.63911 0
M  V30 2089 H 194.532 -0.187903 -0.71678 0
M  V30 2090 H 197.179 -1.1288 -1.54694 0
M  V30 2091 H 195.484 -0.044586 -3.91775 0
M  V30 2092 H 197.181 -0.429767 -3.9869 0
M  V30 2093 H 193.771 -1.85801 -3.86233 0
M  V30 2094 H 197.955 -2.81206 -4.08946 0
M  V30 2095 H 193.211 -4.17371 -4.46779 0
M  V30 2096 H 197.385 -5.13133 -4.70815 0
M  V30 2097 H 195.012 -5.81719 -4.89395 0
M  V30 2098 N 196.587 1.43421 -0.653314 0
M  V30 2099 C 197.519 2.29071 0.0769134 0
M  V30 2100 C 198.532 1.42513 0.787017 0
M  V30 2101 O 199.721 1.66449 0.644757 0
M  V30 2102 C 196.821 3.19436 1.13199 0
M  V30 2103 C 195.994 4.34533 0.500006 0
M  V30 2104 C 195.053 5.05771 1.45198 0
M  V30 2105 O 194.079 5.61037 0.960538 0
M  V30 2106 N 195.281 5.0928 2.78594 0
M  V30 2107 H 198.046 2.92382 -0.658235 0
M  V30 2108 H 195.607 1.54112 -0.496104 0
M  V30 2109 H 197.599 3.63958 1.76964 0
M  V30 2110 H 196.169 2.57724 1.7691 0
M  V30 2111 H 195.389 3.92925 -0.316738 0
M  V30 2112 H 196.677 5.08766 0.0588345 0
M  V30 2113 H 196.075 4.65751 3.2108 0
M  V30 2114 H 194.632 5.57519 3.37662 0
M  V30 2115 N 198.065 0.39524 1.52563 0
M  V30 2116 C 199.012 -0.437036 2.26624 0
M  V30 2117 C 199.982 -1.05281 1.28472 0
M  V30 2118 O 201.167 -1.07971 1.57311 0
M  V30 2119 C 198.307 -1.55524 3.08069 0
M  V30 2120 C 197.42 -0.961745 4.21158 0
M  V30 2121 C 196.555 -2.05149 4.89987 0
M  V30 2122 C 195.594 -1.4342 5.95061 0
M  V30 2123 N 194.731 -2.46351 6.57462 0
M  V30 2124 H 199.571 0.200976 2.97322 0
M  V30 2125 H 197.108 0.110944 1.46681 0
M  V30 2126 H 199.066 -2.21437 3.53584 0
M  V30 2127 H 197.696 -2.16348 2.3957 0
M  V30 2128 H 196.748 -0.192048 3.79915 0
M  V30 2129 H 198.06 -0.470701 4.96574 0
M  V30 2130 H 197.214 -2.78819 5.38837 0
M  V30 2131 H 195.953 -2.57615 4.14109 0
M  V30 2132 H 194.958 -0.682774 5.45544 0
M  V30 2133 H 196.183 -0.917416 6.72875 0
M  V30 2134 H 194.129 -2.97975 5.8442 0
M  V30 2135 H 194.046 -2.02019 7.28508 0
M  V30 2136 H 195.314 -3.19633 7.10954 0
M  V30 2137 N 199.544 -1.57102 0.125237 0
M  V30 2138 C 200.474 -2.18659 -0.819174 0
M  V30 2139 C 201.455 -1.12843 -1.27281 0
M  V30 2140 O 202.64 -1.41104 -1.33429 0
M  V30 2141 C 199.77 -2.79096 -2.06695 0
M  V30 2142 C 198.724 -3.90548 -1.75088 0
M  V30 2143 C 198.05 -4.37821 -3.06948 0
M  V30 2144 C 199.35 -5.12356 -1.01435 0
M  V30 2145 H 201.044 -2.9783 -0.306202 0
M  V30 2146 H 198.59 -1.4326 -0.145839 0
M  V30 2147 H 200.543 -3.2082 -2.73226 0
M  V30 2148 H 199.267 -1.97223 -2.60328 0
M  V30 2149 H 197.926 -3.49409 -1.10944 0
M  V30 2150 H 197.574 -3.52799 -3.58527 0
M  V30 2151 H 197.274 -5.12982 -2.86571 0
M  V30 2152 H 198.798 -4.822 -3.74587 0
M  V30 2153 H 200.212 -5.5106 -1.58132 0
M  V30 2154 H 198.609 -5.9314 -0.911319 0
M  V30 2155 H 199.679 -4.849 -0.00218681 0
M  V30 2156 N 201.022 0.148545 -1.56898 0
M  V30 2157 C 202.25 0.876389 -1.87422 0
M  V30 2158 C 202.665 1.74809 -0.713256 0
M  V30 2159 O 202.022 1.79725 0.317025 0
M  V30 2160 C 202.073 1.73438 -3.17178 0
M  V30 2161 O 201.794 0.897809 -4.28802 0
M  V30 2162 C 203.295 2.56993 -3.61205 0
M  V30 2163 H 200.515 0.253489 -0.621277 0
M  V30 2164 H 203.059 0.141798 -2.04008 0
M  V30 2165 H 201.214 2.42205 -3.0235 0
M  V30 2166 H 201.628 1.48672 -5.02988 0
M  V30 2167 H 203.102 3.12773 -4.54838 0
M  V30 2168 H 203.579 3.32958 -2.86419 0
M  V30 2169 H 204.185 1.9352 -3.78722 0
M  V30 2170 N 202.5 1.5196 0.417844 0
M  V30 2171 C 203.777 1.56146 1.17803 0
M  V30 2172 C 204.157 0.337275 2.08388 0
M  V30 2173 O 203.505 -0.676447 2.18258 0
M  V30 2174 C 203.715 2.88566 1.96293 0
M  V30 2175 C 205.063 3.41244 2.52662 0
M  V30 2176 O 206.087 2.90247 2.06483 0
M  V30 2177 O 204.946 4.30273 3.36938 0
M  V30 2178 H 202.04 0.628598 0.537395 0
M  V30 2179 H 204.586 1.64283 0.425331 0
M  V30 2180 H 203.358 3.69116 1.2988 0
M  V30 2181 H 202.981 2.83681 2.78587 0
M  V30 2182 N 203.978 -0.674533 1.42435 0
M  V30 2183 C 205.225 -1.43459 1.42919 0
M  V30 2184 C 205.553 -1.94446 0.0457312 0
M  V30 2185 O 204.808 -1.7132 -0.94593 0
M  V30 2186 C 205.107 -2.64767 2.40069 0
M  V30 2187 C 204.773 -2.3232 3.86443 0
M  V30 2188 C 203.435 -2.23182 4.26314 0
M  V30 2189 C 205.787 -2.05977 4.78773 0
M  V30 2190 C 203.115 -1.85827 5.56494 0
M  V30 2191 C 205.467 -1.70125 6.09295 0
M  V30 2192 C 204.131 -1.59498 6.48164 0
M  V30 2193 H 203.401 -0.524952 0.522978 0
M  V30 2194 H 206.048 -0.769097 1.75377 0
M  V30 2195 H 204.353 -3.36349 2.00939 0
M  V30 2196 H 206.05 -3.22949 2.37707 0
M  V30 2197 H 202.64 -2.40334 3.54877 0
M  V30 2198 H 206.824 -2.11969 4.48757 0
M  V30 2199 H 202.08 -1.76168 5.8547 0
M  V30 2200 H 206.254 -1.48767 6.80324 0
M  V30 2201 H 203.881 -1.30322 7.48946 0
M  V30 2202 N 205.456 -1.28612 -0.910864 0
M  V30 2203 C 206.867 -1.14406 -1.47541 0
M  V30 2204 C 207.218 0.264901 -1.94403 0
M  V30 2205 O 206.343 1.15942 -1.82719 0
M  V30 2206 C 206.938 -2.07073 -2.68153 0
M  V30 2207 C 205.497 -1.96923 -3.20778 0
M  V30 2208 C 204.644 -1.98646 -1.93481 0
M  V30 2209 H 207.595 -1.41259 -0.723291 0
M  V30 2210 H 207.616 -1.63642 -3.43514 0
M  V30 2211 H 207.128 -3.09611 -2.34015 0
M  V30 2212 H 205.229 -0.97433 -3.59635 0
M  V30 2213 H 205.342 -2.84026 -3.85832 0
M  V30 2214 H 203.706 -1.43093 -2.10705 0
M  V30 2215 H 204.489 -3.02868 -1.61634 0
M  V30 2216 N 206.934 1.1197 -1.10907 0
M  V30 2217 C 208.345 1.65114 -0.871446 0
M  V30 2218 C 208.696 1.86885 0.597353 0
M  V30 2219 O 207.821 1.59896 1.45816 0
M  V30 2220 C 208.416 2.99944 -1.5754 0
M  V30 2221 C 206.975 3.50018 -1.38435 0
M  V30 2222 C 206.122 2.24941 -1.62164 0
M  V30 2223 H 209.073 0.956851 -1.2661 0
M  V30 2224 H 209.094 3.66651 -1.01721 0
M  V30 2225 H 208.606 2.84067 -2.64438 0
M  V30 2226 H 206.707 3.71071 -0.337214 0
M  V30 2227 H 206.82 4.29165 -2.12965 0
M  V30 2228 H 205.184 2.3229 -1.04467 0
M  V30 2229 H 205.967 2.11612 -2.70324 0
M  V30 2230 N 208.412 0.89855 1.29475 0
M  V30 2231 C 209.661 0.519863 1.94885 0
M  V30 2232 C 209.974 -0.9383 1.71625 0
M  V30 2233 O 211.18 -1.42445 2.31131 0
M  V30 2234 C 209.636 0.878836 3.49005 0
M  V30 2235 C 209.244 2.35569 3.81066 0
M  V30 2236 C 210.988 0.570004 4.20656 0
M  V30 2237 C 208.895 2.65558 5.28425 0
M  V30 2238 H 207.825 0.190692 0.729488 0
M  V30 2239 H 210.476 1.09539 1.47219 0
M  V30 2240 H 208.858 0.232253 3.95318 0
M  V30 2241 H 210.032 3.04773 3.45616 0
M  V30 2242 H 208.347 2.63343 3.22552 0
M  V30 2243 H 210.944 0.770925 5.29113 0
M  V30 2244 H 211.287 -0.491404 4.1339 0
M  V30 2245 H 211.82 1.17438 3.8007 0
M  V30 2246 H 208.559 3.70493 5.40754 0
M  V30 2247 H 208.079 2.00977 5.65127 0
M  V30 2248 H 209.758 2.51765 5.96006 0
M  V30 2249 N 209.89 -1.43072 0.660911 0
M  V30 2250 C 210.837 -2.30785 -0.0259884 0
M  V30 2251 C 211.807 -1.45184 -0.806888 0
M  V30 2252 O 212.992 -1.74041 -0.781943 0
M  V30 2253 C 210.132 -3.30861 -0.981067 0
M  V30 2254 C 209.245 -4.31558 -0.195458 0
M  V30 2255 C 208.38 -5.18712 -1.14503 0
M  V30 2256 C 207.419 -6.11097 -0.350299 0
M  V30 2257 N 206.556 -6.90849 -1.25186 0
M  V30 2258 H 211.396 -2.88975 0.727846 0
M  V30 2259 H 208.933 -1.42353 0.370682 0
M  V30 2260 H 210.891 -3.87399 -1.54849 0
M  V30 2261 H 209.521 -2.74304 -1.70169 0
M  V30 2262 H 208.573 -3.77252 0.488374 0
M  V30 2263 H 209.885 -4.9701 0.422176 0
M  V30 2264 H 209.039 -5.79914 -1.78284 0
M  V30 2265 H 207.778 -4.53404 -1.79656 0
M  V30 2266 H 206.783 -5.48976 0.300808 0
M  V30 2267 H 208.008 -6.7845 0.296941 0
M  V30 2268 H 205.954 -6.28182 -1.89005 0
M  V30 2269 H 205.871 -7.52854 -0.688971 0
M  V30 2270 H 207.139 -7.5655 -1.87757 0
M  V30 2271 N 211.368 -0.403325 -1.52352 0
M  V30 2272 C 212.645 0.232611 -1.94212 0
M  V30 2273 C 213.025 1.63133 -1.33981 0
M  V30 2274 O 212.373 2.22659 -0.513344 0
M  V30 2275 C 212.583 0.244811 -3.4814 0
M  V30 2276 C 213.931 0.46698 -4.22024 0
M  V30 2277 O 214.955 0.324419 -3.5472 0
M  V30 2278 O 213.814 0.74747 -5.41364 0
M  V30 2279 H 210.908 0.148223 -0.813609 0
M  V30 2280 H 213.454 -0.458848 -1.63379 0
M  V30 2281 H 212.226 -0.734378 -3.84347 0
M  V30 2282 H 211.849 0.980611 -3.85318 0
M  V30 2283 N 212.846 1.57033 -0.133567 0
M  V30 2284 C 213.778 2.13176 0.841944 0
M  V30 2285 C 214.791 1.07794 1.22001 0
M  V30 2286 O 215.98 1.35117 1.16643 0
M  V30 2287 C 213.08 2.62847 2.13926 0
M  V30 2288 C 212.253 3.92486 1.93064 0
M  V30 2289 C 211.312 4.27605 3.0666 0
M  V30 2290 O 210.338 4.96168 2.78937 0
M  V30 2291 N 211.54 3.861 4.33483 0
M  V30 2292 H 214.305 2.97503 0.362192 0
M  V30 2293 H 211.866 1.61821 0.05042 0
M  V30 2294 H 213.858 2.83363 2.88942 0
M  V30 2295 H 212.428 1.83319 2.53205 0
M  V30 2296 H 211.648 3.80732 1.02159 0
M  V30 2297 H 212.936 4.77225 1.76447 0
M  V30 2298 H 212.334 3.30828 4.58878 0
M  V30 2299 H 210.891 4.11694 5.05323 0
M  V30 2300 N 214.325 -0.140222 1.56975 0
M  V30 2301 C 215.288 -1.15689 1.97861 0
M  V30 2302 C 216.288 -1.3549 0.865974 0
M  V30 2303 O 217.478 -1.32367 1.13246 0
M  V30 2304 C 214.61 -2.51582 2.30042 0
M  V30 2305 H 215.803 -0.805971 2.88867 0
M  V30 2306 H 213.356 -0.383801 1.51515 0
M  V30 2307 H 214.091 -2.91632 1.41849 0
M  V30 2308 H 213.876 -2.38569 3.11171 0
M  V30 2309 H 215.366 -3.24792 2.62488 0
M  V30 2310 N 215.803 -1.52179 -0.40978 0
M  V30 2311 C 217.08 -1.56769 -1.16974 0
M  V30 2312 C 217.46 -0.348322 -2.08206 0
M  V30 2313 O 216.808 0.664862 -2.18613 0
M  V30 2314 C 217.018 -2.89603 -1.9476 0
M  V30 2315 C 218.366 -3.42579 -2.50849 0
M  V30 2316 O 219.39 -2.91338 -2.04941 0
M  V30 2317 O 218.249 -4.32054 -3.34652 0
M  V30 2318 H 215.343 -0.631439 -0.534054 0
M  V30 2319 H 217.889 -1.64507 -0.416613 0
M  V30 2320 H 216.661 -3.698 -1.27921 0
M  V30 2321 H 216.284 -2.85155 -2.77079 0
M  V30 2322 N 217.281 0.66697 -1.42791 0
M  V30 2323 C 218.191 1.80962 -1.49299 0
M  V30 2324 C 219.207 1.69775 -0.381108 0
M  V30 2325 O 220.383 1.91188 -0.633188 0
M  V30 2326 C 217.448 3.17156 -1.40045 0
M  V30 2327 C 216.509 3.40242 -2.6179 0
M  V30 2328 C 215.742 4.69939 -2.52969 0
M  V30 2329 O 215.965 5.48372 -1.56985 0
M  V30 2330 O 214.899 4.94441 -3.43237 0
M  V30 2331 H 218.725 1.78427 -2.45759 0
M  V30 2332 H 216.31 0.823713 -1.24641 0
M  V30 2333 H 218.192 3.98413 -1.37276 0
M  V30 2334 H 216.867 3.20312 -0.467138 0
M  V30 2335 H 215.774 2.58802 -2.70134 0
M  V30 2336 H 217.107 3.41923 -3.54047 0
M  V30 2337 N 218.759 1.29093 0.90403 0
M  V30 2338 C 219.722 1.1386 1.98919 0
M  V30 2339 C 220.722 0.0753457 1.60623 0
M  V30 2340 O 221.912 0.321931 1.71199 0
M  V30 2341 C 219.044 0.740198 3.32767 0
M  V30 2342 H 220.237 2.10246 2.13861 0
M  V30 2343 H 217.79 1.12218 1.08797 0
M  V30 2344 H 218.525 -0.223997 3.23525 0
M  V30 2345 H 218.31 1.50838 3.61926 0
M  V30 2346 H 219.8 0.656546 4.12407 0
M  V30 2347 N 220.237 -1.11381 1.11499 0
M  V30 2348 C 221.169 -2.17207 0.731704 0
M  V30 2349 C 222.182 -1.61066 -0.236957 0
M  V30 2350 O 223.371 -1.78489 -0.0197591 0
M  V30 2351 C 220.471 -3.38846 0.0607624 0
M  V30 2352 C 219.644 -4.24451 1.0564 0
M  V30 2353 C 218.703 -5.24562 0.4149 0
M  V30 2354 O 217.729 -5.59071 1.069 0
M  V30 2355 N 218.931 -5.74651 -0.821943 0
M  V30 2356 H 221.696 -2.50699 1.64225 0
M  V30 2357 H 219.257 -1.26908 1.00529 0
M  V30 2358 H 221.249 -4.02911 -0.380139 0
M  V30 2359 H 219.819 -3.03411 -0.752376 0
M  V30 2360 H 219.039 -3.56833 1.67524 0
M  V30 2361 H 220.327 -4.78486 1.72998 0
M  V30 2362 H 219.725 -5.48797 -1.37252 0
M  V30 2363 H 218.282 -6.40549 -1.20582 0
M  V30 2364 N 221.715 -0.905404 -1.28997 0
M  V30 2365 C 222.945 -0.549049 -1.99171 0
M  V30 2366 C 223.353 0.87203 -1.67906 0
M  V30 2367 O 222.696 1.58796 -0.923561 0
M  V30 2368 C 222.758 -0.668306 -3.53234 0
M  V30 2369 C 222.422 -2.0574 -4.08069 0
M  V30 2370 C 223.419 -3.0292 -4.22534 0
M  V30 2371 C 221.104 -2.36833 -4.42962 0
M  V30 2372 C 223.098 -4.29314 -4.71135 0
M  V30 2373 C 220.785 -3.63467 -4.91258 0
M  V30 2374 C 221.783 -4.59522 -5.053 0
M  V30 2375 O 221.471 -5.83907 -5.52546 0
M  V30 2376 H 221.203 -0.208784 -0.64295 0
M  V30 2377 H 223.757 -1.21836 -1.65363 0
M  V30 2378 H 221.987 0.0580547 -3.86656 0
M  V30 2379 H 223.676 -0.320273 -4.04634 0
M  V30 2380 H 224.442 -2.80216 -3.95859 0
M  V30 2381 H 220.321 -1.62824 -4.31288 0
M  V30 2382 H 223.865 -5.04293 -4.8201 0
M  V30 2383 H 219.762 -3.86 -5.17372 0
M  V30 2384 H 220.53 -5.86578 -5.70849 0
M  V30 2385 N 223.193 1.4272 -0.668489 0
M  V30 2386 C 224.433 2.03497 -0.19194 0
M  V30 2387 C 224.797 1.51684 1.17712 0
M  V30 2388 O 225.998 2.04205 1.74796 0
M  V30 2389 C 224.269 3.56734 -0.218032 0
M  V30 2390 S 225.828 4.38395 0.188438 0
M  V30 2391 H 222.646 0.706542 -0.0794959 0
M  V30 2392 H 225.248 1.74563 -0.880235 0
M  V30 2393 H 223.952 3.91943 -1.2169 0
M  V30 2394 H 223.483 3.90333 0.490303 0
M  V30 2395 H 225.498 4.75345 1.42345 0
M  V30 2396 N 224.671 0.411399 1.52136 0
M  V30 2397 C 225.603 -0.448386 2.24771 0
M  V30 2398 C 226.616 -1.00828 1.27818 0
M  V30 2399 O 227.805 -0.906841 1.53749 0
M  V30 2400 C 224.905 -1.63636 2.96777 0
M  V30 2401 C 224.078 -1.19995 4.20618 0
M  V30 2402 C 223.137 -2.25509 4.75428 0
M  V30 2403 O 222.163 -1.86007 5.3795 0
M  V30 2404 N 223.365 -3.577 4.57199 0
M  V30 2405 H 226.13 0.174025 2.99194 0
M  V30 2406 H 223.691 0.238897 1.60128 0
M  V30 2407 H 225.683 -2.33793 3.30338 0
M  V30 2408 H 224.253 -2.16465 2.25526 0
M  V30 2409 H 223.473 -0.326421 3.92846 0
M  V30 2410 H 224.761 -0.885365 5.01038 0
M  V30 2411 H 224.159 -3.92543 4.07341 0
M  V30 2412 H 222.716 -4.23827 4.95191 0
M  V30 2413 N 226.149 -1.5696 0.141893 0
M  V30 2414 C 227.079 -2.19516 -0.795936 0
M  V30 2415 C 228.06 -1.14187 -1.26077 0
M  V30 2416 O 229.245 -1.42511 -1.31925 0
M  V30 2417 C 226.375 -2.81272 -2.03723 0
M  V30 2418 C 225.329 -3.92384 -1.70936 0
M  V30 2419 C 224.655 -4.41052 -3.02287 0
M  V30 2420 C 225.955 -5.13403 -0.959954 0
M  V30 2421 H 227.649 -2.98138 -0.274596 0
M  V30 2422 H 225.195 -1.43406 -0.130636 0
M  V30 2423 H 227.148 -3.237 -2.69808 0
M  V30 2424 H 225.872 -1.99973 -2.58221 0
M  V30 2425 H 224.531 -3.50566 -1.07232 0
M  V30 2426 H 224.179 -3.56582 -3.54765 0
M  V30 2427 H 223.879 -5.15993 -2.81114 0
M  V30 2428 H 225.403 -4.86146 -3.69451 0
M  V30 2429 H 226.817 -5.52706 -1.52279 0
M  V30 2430 H 225.214 -5.94073 -0.848357 0
M  V30 2431 H 226.284 -4.84875 0.0492434 0
M  V30 2432 N 227.627 0.131896 -1.57047 0
M  V30 2433 C 228.873 0.843179 -1.84441 0
M  V30 2434 C 229.206 1.80129 -0.725749 0
M  V30 2435 O 228.481 1.92624 0.269469 0
M  V30 2436 C 228.764 1.60442 -3.22382 0
M  V30 2437 C 228.617 0.666782 -4.4483 0
M  V30 2438 C 229.936 2.56354 -3.5773 0
M  V30 2439 H 227.055 0.305081 -0.670891 0
M  V30 2440 H 229.697 0.107839 -1.89694 0
M  V30 2441 H 227.847 2.23128 -3.18035 0
M  V30 2442 H 229.519 0.0497646 -4.61273 0
M  V30 2443 H 227.762 -0.022609 -4.33794 0
M  V30 2444 H 228.433 1.23579 -5.37989 0
M  V30 2445 H 230.909 2.0378 -3.62785 0
M  V30 2446 H 229.785 3.06657 -4.5525 0
M  V30 2447 H 230.046 3.38419 -2.84473 0
M  V30 2448 N 229.106 1.52395 0.401703 0
M  V30 2449 C 230.522 1.41363 0.740864 0
M  V30 2450 C 230.722 0.523982 1.94568 0
M  V30 2451 O 229.778 -0.00741204 2.52499 0
M  V30 2452 C 231.091 2.84011 0.987847 0
M  V30 2453 C 232.639 2.93404 1.09011 0
M  V30 2454 C 233.114 4.37036 1.3698 0
M  V30 2455 N 234.605 4.40304 1.43829 0
M  V30 2456 C 235.34 5.48508 1.67112 0
M  V30 2457 N 234.836 6.66819 1.87949 0
M  V30 2458 N 236.629 5.36034 1.69187 0
M  V30 2459 H 228.78 2.08765 -0.391262 0
M  V30 2460 H 231.043 0.941265 -0.112798 0
M  V30 2461 H 230.749 3.51265 0.174835 0
M  V30 2462 H 230.623 3.25502 1.906 0
M  V30 2463 H 233.01 2.26325 1.8937 0
M  V30 2464 H 233.091 2.55359 0.15015 0
M  V30 2465 H 232.735 5.04676 0.571353 0
M  V30 2466 H 232.665 4.72623 2.3224 0
M  V30 2467 H 235.156 3.55024 1.29486 0
M  V30 2468 H 235.469 7.45063 2.05185 0
M  V30 2469 H 233.814 6.6987 1.85199 0
M  V30 2470 H 237.005 4.42579 1.52451 0
M  V30 2471 H 237.178 6.20434 1.86993 0
M  V30 2472 N 230.584 -0.659388 1.43143 0
M  V30 2473 C 231.516 -1.7849 1.43784 0
M  V30 2474 C 232.529 -1.5932 0.334787 0
M  V30 2475 O 233.718 -1.68155 0.598842 0
M  V30 2476 C 230.818 -3.15828 1.22906 0
M  V30 2477 C 229.991 -3.61711 2.45934 0
M  V30 2478 C 229.05 -4.77831 2.20371 0
M  V30 2479 O 228.076 -4.87586 2.93681 0
M  V30 2480 N 229.278 -5.67611 1.21647 0
M  V30 2481 H 232.043 -1.7842 2.40803 0
M  V30 2482 H 229.604 -0.84302 1.3822 0
M  V30 2483 H 231.596 -3.91189 1.03697 0
M  V30 2484 H 230.166 -3.10707 0.343542 0
M  V30 2485 H 229.386 -2.76861 2.80609 0
M  V30 2486 H 230.674 -3.89112 3.27825 0
M  V30 2487 H 230.072 -5.62397 0.610449 0
M  V30 2488 H 228.629 -6.42719 1.08423 0
M  V30 2489 N 232.062 -1.29571 -0.897171 0
M  V30 2490 C 232.992 -1.17473 -2.01798 0
M  V30 2491 C 233.973 -0.068323 -1.69963 0
M  V30 2492 O 235.158 -0.248239 -1.92607 0
M  V30 2493 C 232.288 -0.853099 -3.36659 0
M  V30 2494 C 231.242 -1.9161 -3.82713 0
M  V30 2495 C 230.568 -1.44773 -5.14728 0
M  V30 2496 C 231.868 -3.32535 -4.02763 0
M  V30 2497 H 233.562 -2.11237 -2.12177 0
M  V30 2498 H 231.108 -1.01699 -1.01948 0
M  V30 2499 H 233.061 -0.755165 -4.14578 0
M  V30 2500 H 231.785 0.120236 -3.26379 0
M  V30 2501 H 230.444 -2.00346 -3.07013 0
M  V30 2502 H 230.092 -0.462995 -5.00865 0
M  V30 2503 H 229.792 -2.15865 -5.46513 0
M  V30 2504 H 231.316 -1.36334 -5.95185 0
M  V30 2505 H 232.73 -3.26626 -4.71156 0
M  V30 2506 H 231.127 -4.01607 -4.45905 0
M  V30 2507 H 232.197 -3.75326 -3.07016 0
M  V30 2508 N 233.54 1.10788 -1.12088 0
M  V30 2509 C 234.47 2.19083 -0.807755 0
M  V30 2510 C 235.451 1.6858 0.226859 0
M  V30 2511 O 236.636 1.93997 0.0888475 0
M  V30 2512 C 233.766 3.46344 -0.257576 0
M  V30 2513 C 232.72 4.101 -1.22483 0
M  V30 2514 C 232.046 5.32016 -0.535052 0
M  V30 2515 C 233.346 4.54236 -2.57811 0
M  V30 2516 H 235.04 2.45534 -1.71328 0
M  V30 2517 H 232.586 1.1801 -0.825205 0
M  V30 2518 H 234.539 4.21392 -0.0262679 0
M  V30 2519 H 233.263 3.19373 0.683278 0
M  V30 2520 H 231.922 3.37054 -1.44189 0
M  V30 2521 H 231.57 5.01319 0.410827 0
M  V30 2522 H 231.27 5.75625 -1.18024 0
M  V30 2523 H 232.794 6.09799 -0.312695 0
M  V30 2524 H 234.208 5.20575 -2.40155 0
M  V30 2525 H 232.605 5.08682 -3.18375 0
M  V30 2526 H 233.675 3.6734 -3.16528 0
M  V30 2527 N 235.018 0.912232 1.28515 0
M  V30 2528 C 236.295 0.463597 1.90027 0
M  V30 2529 C 236.675 -1.05753 1.82701 0
M  V30 2530 O 236.023 -1.90492 1.26194 0
M  V30 2531 C 236.233 0.992253 3.34597 0
M  V30 2532 C 237.581 1.04344 4.11579 0
M  V30 2533 O 238.605 0.94079 3.43551 0
M  V30 2534 O 237.464 1.1995 5.33174 0
M  V30 2535 H 234.558 0.146666 0.813891 0
M  V30 2536 H 237.104 1.00292 1.36893 0
M  V30 2537 H 235.876 2.03623 3.34146 0
M  V30 2538 H 235.499 0.433672 3.95228 0
M  V30 2539 N 236.496 -1.42363 0.676048 0
M  V30 2540 C 237.773 -1.95183 0.127726 0
M  V30 2541 C 238.153 -1.61641 -1.35777 0
M  V30 2542 O 237.501 -0.913216 -2.09458 0
M  V30 2543 C 237.711 -3.46721 0.398199 0
M  V30 2544 C 239.059 -4.23427 0.315383 0
M  V30 2545 O 240.083 -3.54649 0.332016 0
M  V30 2546 O 238.942 -5.45888 0.25865 0
M  V30 2547 H 236.036 -0.826992 0.00359427 0
M  V30 2548 H 238.582 -1.52184 0.750864 0
M  V30 2549 H 237.354 -3.64344 1.4272 0
M  V30 2550 H 236.977 -3.96769 -0.256885 0
M  V30 2551 N 237.974 -0.419461 -1.51915 0
M  V30 2552 C 238.924 0.418496 -2.24126 0
M  V30 2553 C 239.908 1.00495 -1.25656 0
M  V30 2554 O 241.1 0.926058 -1.50842 0
M  V30 2555 C 238.229 1.52899 -3.07371 0
M  V30 2556 C 237.315 0.952797 -4.13258 0
M  V30 2557 N 237.706 0.104175 -5.05693 0
M  V30 2558 C 236.004 1.22224 -4.28926 0
M  V30 2559 C 236.705 -0.21752 -5.81293 0
M  V30 2560 N 235.681 0.394293 -5.42168 0
M  V30 2561 H 239.483 -0.236048 -2.92951 0
M  V30 2562 H 236.997 -0.230481 -1.60756 0
M  V30 2563 H 238.994 2.14199 -3.57665 0
M  V30 2564 H 237.654 2.18605 -2.40088 0
M  V30 2565 H 238.665 -0.260924 -5.17242 0
M  V30 2566 H 235.342 1.87812 -3.72871 0
M  V30 2567 H 236.732 -0.906992 -6.6575 0
M  V30 2568 N 239.452 1.56882 -0.150215 0
M  V30 2569 C 240.399 2.16922 0.788244 0
M  V30 2570 C 241.369 1.10303 1.24187 0
M  V30 2571 O 242.554 1.38359 1.31383 0
M  V30 2572 C 239.694 2.79754 2.02068 0
M  V30 2573 C 238.807 4.00775 1.61257 0
M  V30 2574 C 237.942 4.51595 2.79705 0
M  V30 2575 C 236.981 5.65074 2.35282 0
M  V30 2576 N 236.118 6.10499 3.4675 0
M  V30 2577 H 240.958 2.96779 0.269444 0
M  V30 2578 H 238.495 1.46599 0.12128 0
M  V30 2579 H 240.453 3.14329 2.74323 0
M  V30 2580 H 239.083 2.02536 2.51354 0
M  V30 2581 H 238.135 3.72158 0.787553 0
M  V30 2582 H 239.447 4.82978 1.24633 0
M  V30 2583 H 238.601 4.88242 3.60145 0
M  V30 2584 H 237.34 3.68406 3.19576 0
M  V30 2585 H 236.345 5.28 1.53283 0
M  V30 2586 H 237.57 6.50052 1.96493 0
M  V30 2587 H 235.516 5.30243 3.86236 0
M  V30 2588 H 235.433 6.87637 3.14152 0
M  V30 2589 H 236.701 6.51791 4.27537 0
M  V30 2590 N 240.93 -0.123565 1.57115 0
M  V30 2591 C 242.207 -0.862196 1.75572 0
M  V30 2592 C 242.587 -1.98279 0.724475 0
M  V30 2593 O 241.935 -2.27102 -0.252407 0
M  V30 2594 C 242.145 -1.38309 3.20424 0
M  V30 2595 C 243.493 -1.83724 3.82793 0
M  V30 2596 O 244.517 -1.47999 3.23998 0
M  V30 2597 O 243.376 -2.49685 4.86127 0
M  V30 2598 H 240.47 -0.409113 0.718718 0
M  V30 2599 H 243.016 -0.107661 1.69358 0
M  V30 2600 H 241.788 -0.578889 3.86994 0
M  V30 2601 H 241.411 -2.20046 3.31158 0
M  V30 2602 N 242.408 -1.52605 -0.393616 0
M  V30 2603 C 243.654 -1.67672 -1.14079 0
M  V30 2604 C 243.987 -0.413121 -1.89755 0
M  V30 2605 O 243.262 0.588952 -1.85369 0
M  V30 2606 C 243.545 -2.9088 -2.12276 0
M  V30 2607 C 243.398 -4.27329 -1.40394 0
M  V30 2608 C 244.717 -3.09628 -3.12759 0
M  V30 2609 H 241.836 -0.610168 -0.413356 0
M  V30 2610 H 244.478 -1.85193 -0.424696 0
M  V30 2611 H 242.628 -2.76073 -2.73342 0
M  V30 2612 H 244.3 -4.53894 -0.82327 0
M  V30 2613 H 242.543 -4.2802 -0.705801 0
M  V30 2614 H 243.214 -5.09615 -2.12123 0
M  V30 2615 H 245.69 -3.23436 -2.61779 0
M  V30 2616 H 244.566 -3.97322 -3.78717 0
M  V30 2617 H 244.827 -2.23637 -3.81365 0
M  V30 2618 N 243.887 0.651787 -1.4349 0
M  V30 2619 C 245.133 1.41376 -1.45398 0
M  V30 2620 C 245.466 1.94041 -0.0784823 0
M  V30 2621 O 244.741 1.72379 0.900878 0
M  V30 2622 C 245.024 2.59414 -2.49752 0
M  V30 2623 C 244.877 2.12232 -3.96582 0
M  V30 2624 C 246.196 3.61626 -2.50827 0
M  V30 2625 H 243.315 0.512719 -0.529422 0
M  V30 2626 H 245.957 0.738796 -1.75048 0
M  V30 2627 H 244.107 3.16997 -2.246 0
M  V30 2628 H 245.779 1.59639 -4.32797 0
M  V30 2629 H 244.022 1.43592 -4.09346 0
M  V30 2630 H 244.693 2.9712 -4.65214 0
M  V30 2631 H 247.169 3.13805 -2.7325 0
M  V30 2632 H 246.045 4.41766 -3.25783 0
M  V30 2633 H 246.306 4.14314 -1.5426 0
M  V30 2634 N 245.365 1.30045 0.890287 0
M  V30 2635 C 246.593 1.21472 1.67487 0
M  V30 2636 C 247.008 -0.223241 1.87476 0
M  V30 2637 O 246.365 -1.14828 1.41847 0
M  V30 2638 C 246.416 1.93394 3.05419 0
M  V30 2639 O 246.137 3.31576 2.86337 0
M  V30 2640 C 247.638 1.91414 3.99844 0
M  V30 2641 H 244.858 0.420604 0.522813 0
M  V30 2642 H 247.402 1.7158 1.11268 0
M  V30 2643 H 245.557 1.47099 3.58386 0
M  V30 2644 H 245.971 3.67929 3.73802 0
M  V30 2645 H 247.445 2.46285 4.94012 0
M  V30 2646 H 247.922 0.891833 4.3005 0
M  V30 2647 H 248.528 2.37496 3.52811 0
M  V30 2648 N 246.843 -1.10192 1.12674 0
M  V30 2649 C 247.773 -2.18652 0.819362 0
M  V30 2650 C 248.754 -1.68698 -0.217915 0
M  V30 2651 O 249.939 -1.94041 -0.0785581 0
M  V30 2652 C 247.069 -3.46202 0.27594 0
M  V30 2653 C 246.023 -4.09444 1.24656 0
M  V30 2654 C 245.349 -5.31725 0.563258 0
M  V30 2655 C 246.649 -4.52863 2.60217 0
M  V30 2656 H 248.343 -2.44622 1.72628 0
M  V30 2657 H 245.889 -1.17571 0.831451 0
M  V30 2658 H 247.842 -4.21372 0.0486149 0
M  V30 2659 H 246.566 -3.1973 -0.666331 0
M  V30 2660 H 245.225 -3.36284 1.45974 0
M  V30 2661 H 244.873 -5.0153 -0.384235 0
M  V30 2662 H 244.573 -5.74991 1.21075 0
M  V30 2663 H 246.097 -6.09624 0.34503 0
M  V30 2664 H 247.511 -5.19294 2.42913 0
M  V30 2665 H 245.908 -5.06986 3.21068 0
M  V30 2666 H 246.978 -3.65656 3.18471 0
M  V30 2667 N 248.321 -0.919034 -1.28029 0
M  V30 2668 C 249.251 -0.428581 -2.29533 0
M  V30 2669 C 250.232 0.50659 -1.62381 0
M  V30 2670 O 251.417 0.413195 -1.89753 0
M  V30 2671 C 248.547 0.327388 -3.45753 0
M  V30 2672 C 247.501 -0.519137 -4.2484 0
M  V30 2673 C 246.827 0.365486 -5.33449 0
M  V30 2674 C 248.127 -1.77914 -4.91064 0
M  V30 2675 H 249.821 -1.27687 -2.70807 0
M  V30 2676 H 247.367 -0.615428 -1.30186 0
M  V30 2677 H 249.32 0.681378 -4.15855 0
M  V30 2678 H 248.044 1.20963 -3.03374 0
M  V30 2679 H 246.703 -0.855717 -3.56473 0
M  V30 2680 H 246.351 1.24642 -4.87312 0
M  V30 2681 H 246.051 -0.197356 -5.87268 0
M  V30 2682 H 247.575 0.715241 -6.06396 0
M  V30 2683 H 248.989 -1.49374 -5.53498 0
M  V30 2684 H 247.386 -2.2848 -5.54903 0
M  V30 2685 H 248.456 -2.50382 -4.15255 0
M  V30 2686 N 249.799 1.42003 -0.683588 0
M  V30 2687 C 250.762 2.29191 -0.0198243 0
M  V30 2688 C 251.762 1.43773 0.72013 0
M  V30 2689 O 252.952 1.65061 0.556815 0
M  V30 2690 C 250.084 3.26435 0.982487 0
M  V30 2691 H 251.277 2.8938 -0.787345 0
M  V30 2692 H 248.83 1.49789 -0.446418 0
M  V30 2693 H 249.565 2.71203 1.77819 0
M  V30 2694 H 249.35 3.89449 0.455182 0
M  V30 2695 H 250.84 3.918 1.44508 0
M  V30 2696 N 251.277 0.427512 1.51691 0
M  V30 2697 C 252.187 -0.39527 2.31246 0
M  V30 2698 C 253.203 -1.03674 1.39742 0
M  V30 2699 O 254.379 -1.03425 1.72816 0
M  V30 2700 C 251.444 -1.48706 3.13189 0
M  V30 2701 C 250.505 -0.866743 4.20459 0
M  V30 2702 C 249.738 -1.90651 4.98486 0
M  V30 2703 O 249.961 -3.12733 4.77026 0
M  V30 2704 O 248.895 -1.5025 5.82845 0
M  V30 2705 H 252.721 0.253918 3.02637 0
M  V30 2706 H 250.306 0.190274 1.48183 0
M  V30 2707 H 252.188 -2.12047 3.64162 0
M  V30 2708 H 250.863 -2.12051 2.44573 0
M  V30 2709 H 249.77 -0.195544 3.73589 0
M  V30 2710 H 251.103 -0.276934 4.9142 0
M  V30 2711 N 252.755 -1.56801 0.158532 0
M  V30 2712 C 254.003 -1.96102 -0.488712 0
M  V30 2713 C 254.324 -1.04498 -1.64636 0
M  V30 2714 O 253.594 -0.108783 -1.95598 0
M  V30 2715 H 252.174 -0.724102 -0.183535 0
M  V30 2716 H 254.836 -1.93457 0.236728 0
M  V30 2717 H 253.932 -3.00097 -0.857219 0
M  V30 2718 N 254.233 0.115231 -1.57178 0
M  V30 2719 C 255.163 1.1423 -2.03651 0
M  V30 2720 C 256.144 1.42967 -0.921655 0
M  V30 2721 O 257.329 1.53343 -1.19162 0
M  V30 2722 C 254.459 2.4675 -2.44401 0
M  V30 2723 C 253.413 2.32467 -3.59365 0
M  V30 2724 C 252.739 3.69984 -3.86026 0
M  V30 2725 C 254.039 1.78203 -4.90959 0
M  V30 2726 H 255.733 0.755749 -2.89705 0
M  V30 2727 H 253.279 0.362093 -1.39373 0
M  V30 2728 H 255.232 3.18854 -2.75517 0
M  V30 2729 H 253.956 2.87302 -1.55322 0
M  V30 2730 H 252.615 1.62811 -3.28463 0
M  V30 2731 H 252.263 4.08028 -2.94147 0
M  V30 2732 H 251.963 3.61279 -4.63412 0
M  V30 2733 H 253.487 4.43587 -4.19599 0
M  V30 2734 H 254.901 2.40128 -5.20587 0
M  V30 2735 H 253.298 1.8031 -5.72371 0
M  V30 2736 H 254.368 0.739876 -4.79222 0
M  V30 2737 N 255.711 1.52812 0.385517 0
M  V30 2738 C 257.127 1.4214 0.725829 0
M  V30 2739 C 257.327 0.544589 1.94001 0
M  V30 2740 O 256.383 0.0193693 2.52493 0
M  V30 2741 C 257.696 2.85042 0.957668 0
M  V30 2742 C 259.244 2.94543 1.05892 0
M  V30 2743 C 259.719 4.38464 1.32337 0
M  V30 2744 N 261.21 4.41804 1.39151 0
M  V30 2745 C 261.945 5.5025 1.61285 0
M  V30 2746 N 261.441 6.68775 1.80866 0
M  V30 2747 N 263.234 5.37798 1.63492 0
M  V30 2748 H 255.385 2.08338 -0.413383 0
M  V30 2749 H 257.648 0.940016 -0.122775 0
M  V30 2750 H 257.354 3.51431 0.137568 0
M  V30 2751 H 257.228 3.27505 1.87137 0
M  V30 2752 H 259.615 2.28321 1.86959 0
M  V30 2753 H 259.696 2.55504 0.123057 0
M  V30 2754 H 259.34 5.05254 0.517793 0
M  V30 2755 H 259.27 4.75059 2.27214 0
M  V30 2756 H 261.761 3.56377 1.25713 0
M  V30 2757 H 262.074 7.47197 1.97271 0
M  V30 2758 H 260.419 6.71797 1.78083 0
M  V30 2759 H 263.61 4.44171 1.47749 0
M  V30 2760 H 263.783 6.22382 1.80402 0
M  V30 2761 N 257.189 -0.644168 1.43834 0
M  V30 2762 C 258.099 -1.78563 1.52159 0
M  V30 2763 C 259.115 -1.69147 0.408069 0
M  V30 2764 O 260.291 -1.90156 0.663524 0
M  V30 2765 C 257.356 -3.14888 1.45073 0
M  V30 2766 C 256.417 -3.36034 2.6717 0
M  V30 2767 C 255.65 -4.65855 2.60413 0
M  V30 2768 O 255.873 -5.45805 1.65689 0
M  V30 2769 O 254.807 -4.88918 3.5106 0
M  V30 2770 H 258.633 -1.74494 2.48567 0
M  V30 2771 H 256.218 -0.80378 1.25935 0
M  V30 2772 H 258.1 -3.96179 1.43597 0
M  V30 2773 H 256.775 -3.19528 0.518037 0
M  V30 2774 H 255.682 -2.54472 2.74217 0
M  V30 2775 H 257.015 -3.36247 3.59442 0
M  V30 2776 N 258.668 -1.30515 -0.883378 0
M  V30 2777 C 259.893 -1.22487 -1.67367 0
M  V30 2778 C 260.318 0.208767 -1.86938 0
M  V30 2779 O 259.676 1.15015 -1.40148 0
M  V30 2780 C 259.724 -1.96041 -3.02655 0
M  V30 2781 O 258.828 -1.28859 -3.91751 0
M  V30 2782 H 258.169 -0.423573 -0.511353 0
M  V30 2783 H 260.699 -1.72362 -1.10239 0
M  V30 2784 H 260.709 -2.05124 -3.52687 0
M  V30 2785 H 259.384 -3.00307 -2.8773 0
M  V30 2786 H 257.961 -1.28141 -3.50192 0
M  V30 2787 N 260.146 1.09593 -1.13257 0
M  V30 2788 C 261.562 1.33775 -0.870423 0
M  V30 2789 C 261.762 1.95327 0.494926 0
M  V30 2790 O 260.818 2.19853 1.2418 0
M  V30 2791 C 262.131 2.25106 -1.99369 0
M  V30 2792 C 263.679 2.3862 -2.02558 0
M  V30 2793 C 264.154 3.33285 -3.14142 0
M  V30 2794 N 265.645 3.40857 -3.13641 0
M  V30 2795 C 266.38 4.14101 -3.96621 0
M  V30 2796 N 265.876 4.90157 -4.8961 0
M  V30 2797 N 267.669 4.09808 -3.84726 0
M  V30 2798 H 259.82 0.680136 -2.01216 0
M  V30 2799 H 262.083 0.362133 -0.876107 0
M  V30 2800 H 261.789 1.87103 -2.97801 0
M  V30 2801 H 261.663 3.25481 -1.90635 0
M  V30 2802 H 264.05 2.75887 -1.0474 0
M  V30 2803 H 264.131 1.38028 -2.15364 0
M  V30 2804 H 263.775 2.96741 -4.12198 0
M  V30 2805 H 263.705 4.33776 -2.98574 0
M  V30 2806 H 266.196 2.86624 -2.46282 0
M  V30 2807 H 266.509 5.4347 -5.49418 0
M  V30 2808 H 264.854 4.89251 -4.93617 0
M  V30 2809 H 268.045 3.4949 -3.11408 0
M  V30 2810 H 268.218 4.66629 -4.49623 0
M  V30 2811 N 261.624 0.925811 1.2754 0
M  V30 2812 C 262.571 0.422045 2.26908 0
M  V30 2813 C 263.541 -0.510029 1.58076 0
M  V30 2814 O 264.726 -0.429599 1.85901 0
M  V30 2815 C 261.866 -0.320837 3.43605 0
M  V30 2816 C 260.979 0.64513 4.27156 0
M  V30 2817 C 260.114 -0.117405 5.3107 0
M  V30 2818 C 259.153 0.841391 6.0629 0
M  V30 2819 N 258.29 0.111604 7.02011 0
M  V30 2820 H 263.13 1.27441 2.69375 0
M  V30 2821 H 260.667 0.639697 1.32462 0
M  V30 2822 H 262.625 -0.76785 4.10073 0
M  V30 2823 H 261.255 -1.13745 3.02096 0
M  V30 2824 H 260.307 1.21067 3.6062 0
M  V30 2825 H 261.619 1.37797 4.79389 0
M  V30 2826 H 260.773 -0.624422 6.03478 0
M  V30 2827 H 259.512 -0.883219 4.79636 0
M  V30 2828 H 258.517 1.35967 5.32722 0
M  V30 2829 H 259.742 1.60696 6.59813 0
M  V30 2830 H 257.688 -0.635999 6.5291 0
M  V30 2831 H 257.605 0.784044 7.51923 0
M  V30 2832 H 258.873 -0.374823 7.78598 0
M  V30 2833 N 263.102 -1.41638 0.69111 0
M  V30 2834 C 264.052 -2.28 -0.000107832 0
M  V30 2835 C 265.036 -1.41964 -0.757304 0
M  V30 2836 O 266.228 -1.65274 -0.633532 0
M  V30 2837 C 263.357 -3.30209 -0.938983 0
M  V30 2838 C 262.443 -4.23725 -0.17827 0
M  V30 2839 N 262.834 -4.99017 0.825563 0
M  V30 2840 C 261.132 -4.44071 -0.414392 0
M  V30 2841 C 261.833 -5.67431 1.28052 0
M  V30 2842 N 260.809 -5.40197 0.607304 0
M  V30 2843 H 264.611 -2.83644 0.769617 0
M  V30 2844 H 262.125 -1.53797 0.521562 0
M  V30 2845 H 264.122 -3.90898 -1.44929 0
M  V30 2846 H 262.782 -2.76126 -1.70836 0
M  V30 2847 H 263.793 -5.03671 1.20566 0
M  V30 2848 H 260.47 -4.01004 -1.162 0
M  V30 2849 H 261.86 -6.37801 2.11327 0
M  V30 2850 N 264.58 -0.43555 -1.51462 0
M  V30 2851 C 265.829 0.133007 -2.01261 0
M  V30 2852 C 266.142 1.43942 -1.32439 0
M  V30 2853 O 267.348 2.09081 -1.73198 0
M  V30 2854 C 265.804 0.287581 -3.58749 0
M  V30 2855 C 265.412 -1.00829 -4.36506 0
M  V30 2856 C 267.156 0.810004 -4.167 0
M  V30 2857 C 265.063 -0.819454 -5.85695 0
M  V30 2858 H 263.993 0.0534822 -0.752101 0
M  V30 2859 H 266.644 -0.565038 -1.74584 0
M  V30 2860 H 265.026 1.04859 -3.81865 0
M  V30 2861 H 266.2 -1.77749 -4.25138 0
M  V30 2862 H 264.515 -1.45911 -3.89999 0
M  V30 2863 H 267.112 0.967743 -5.2587 0
M  V30 2864 H 267.455 1.79196 -3.75758 0
M  V30 2865 H 267.988 0.107357 -3.97655 0
M  V30 2866 H 264.727 -1.77374 -6.31046 0
M  V30 2867 H 264.247 -0.0900208 -5.99732 0
M  V30 2868 H 265.926 -0.471949 -6.45276 0
M  V30 2869 N 266.058 1.56714 -0.166846 0
M  V30 2870 C 266.968 2.21331 0.777791 0
M  V30 2871 C 267.984 1.20358 1.25658 0
M  V30 2872 O 269.16 1.53005 1.30964 0
M  V30 2873 C 266.225 2.83787 1.99163 0
M  V30 2874 C 265.286 3.99947 1.56016 0
M  V30 2875 C 264.519 4.59415 2.71613 0
M  V30 2876 O 264.742 4.17769 3.88362 0
M  V30 2877 O 263.676 5.49359 2.45945 0
M  V30 2878 H 267.502 3.02605 0.257636 0
M  V30 2879 H 265.087 1.49275 0.0611393 0
M  V30 2880 H 266.969 3.23405 2.70161 0
M  V30 2881 H 265.644 2.05513 2.50092 0
M  V30 2882 H 264.551 3.65007 0.819809 0
M  V30 2883 H 265.884 4.79801 1.09782 0
M  V30 2884 N 267.536 -0.106894 1.57237 0
M  V30 2885 C 268.813 -0.843526 1.76477 0
M  V30 2886 C 269.193 -1.97499 0.745464 0
M  V30 2887 O 268.541 -2.27357 -0.228306 0
M  V30 2888 C 268.751 -1.34903 3.21873 0
M  V30 2889 C 270.099 -1.79654 3.8472 0
M  V30 2890 O 271.123 -1.44554 3.2555 0
M  V30 2891 O 269.982 -2.44515 4.88748 0
M  V30 2892 H 267.076 -0.401468 0.723016 0
M  V30 2893 H 269.622 -0.0896927 1.69463 0
M  V30 2894 H 268.394 -0.53781 3.87586 0
M  V30 2895 H 268.017 -2.16522 3.33473 0
M  V30 2896 N 269.014 -1.53014 -0.377408 0
M  V30 2897 C 269.924 -1.81557 -1.48574 0
M  V30 2898 C 270.94 -0.703102 -1.59162 0
M  V30 2899 O 272.116 -0.99192 -1.75279 0
M  V30 2900 C 269.181 -1.9889 -2.83978 0
M  V30 2901 C 268.242 -3.22801 -2.83016 0
M  V30 2902 C 267.475 -3.39298 -4.11962 0
M  V30 2903 O 267.698 -2.60345 -5.0752 0
M  V30 2904 O 266.632 -4.32604 -4.18494 0
M  V30 2905 H 270.458 -2.75695 -1.27382 0
M  V30 2906 H 268.043 -1.38248 -0.566373 0
M  V30 2907 H 269.925 -2.11931 -3.6423 0
M  V30 2908 H 268.6 -1.07942 -3.05172 0
M  V30 2909 H 267.507 -3.15193 -2.01505 0
M  V30 2910 H 268.84 -4.13632 -2.66775 0
M  V30 2911 N 270.492 0.636531 -1.44174 0
M  V30 2912 C 271.439 1.74875 -1.50624 0
M  V30 2913 C 272.409 1.62275 -0.35442 0
M  V30 2914 O 273.594 1.82276 -0.563908 0
M  V30 2915 C 270.734 3.13102 -1.45125 0
M  V30 2916 C 269.847 3.36717 -2.7064 0
M  V30 2917 C 268.982 4.64885 -2.57013 0
M  V30 2918 C 268.021 4.8166 -3.77717 0
M  V30 2919 N 267.158 6.01101 -3.62798 0
M  V30 2920 H 271.998 1.68697 -2.45653 0
M  V30 2921 H 269.535 0.823004 -1.21922 0
M  V30 2922 H 271.493 3.93034 -1.39929 0
M  V30 2923 H 270.123 3.18308 -0.536671 0
M  V30 2924 H 269.175 2.50763 -2.86046 0
M  V30 2925 H 270.487 3.44993 -3.60252 0
M  V30 2926 H 269.641 5.52969 -2.49619 0
M  V30 2927 H 268.38 4.58957 -1.64953 0
M  V30 2928 H 267.385 3.92007 -3.85501 0
M  V30 2929 H 268.61 4.89406 -4.70807 0
M  V30 2930 H 266.556 5.96273 -2.73486 0
M  V30 2931 H 266.473 6.10409 -4.46023 0
M  V30 2932 H 267.741 6.91761 -3.59286 0
M  V30 2933 N 271.97 1.30982 0.876444 0
M  V30 2934 C 272.9 1.20668 1.99903 0
M  V30 2935 C 273.881 0.095354 1.69833 0
M  V30 2936 O 275.066 0.27885 1.92188 0
M  V30 2937 C 272.196 0.90655 3.3526 0
M  V30 2938 C 271.15 1.97675 3.79617 0
M  V30 2939 C 270.476 1.52943 5.1236 0
M  V30 2940 C 271.776 3.389 3.97422 0
M  V30 2941 H 273.47 2.14586 2.0879 0
M  V30 2942 H 271.016 1.03308 1.00317 0
M  V30 2943 H 272.969 0.821025 4.13324 0
M  V30 2944 H 271.693 -0.0682969 3.26529 0
M  V30 2945 H 270.352 2.05205 3.03787 0
M  V30 2946 H 270 0.54262 5.00065 0
M  V30 2947 H 269.7 2.24532 5.43009 0
M  V30 2948 H 271.224 1.45786 5.92941 0
M  V30 2949 H 272.638 3.34081 4.659 0
M  V30 2950 H 271.035 4.0865 4.3946 0
M  V30 2951 H 272.105 3.80163 3.01006 0
M  V30 2952 N 273.449 -1.08991 1.13837 0
M  V30 2953 C 274.695 -1.81526 0.90422 0
M  V30 2954 C 275.028 -1.85706 -0.568066 0
M  V30 2955 O 274.303 -1.32855 -1.42056 0
M  V30 2956 C 274.586 -3.27447 1.49835 0
M  V30 2957 C 274.439 -3.31512 3.04006 0
M  V30 2958 C 275.758 -4.24256 1.17025 0
M  V30 2959 H 272.877 -0.659029 0.329923 0
M  V30 2960 H 275.519 -1.27644 1.40737 0
M  V30 2961 H 273.669 -3.73462 1.07044 0
M  V30 2962 H 275.341 -2.93867 3.55584 0
M  V30 2963 H 273.584 -2.70963 3.38765 0
M  V30 2964 H 274.255 -4.34329 3.40679 0
M  V30 2965 H 276.731 -3.86549 1.54009 0
M  V30 2966 H 275.607 -5.24684 1.61237 0
M  V30 2967 H 275.868 -4.42019 0.0846274 0
M  V30 2968 N 274.927 -0.932562 -1.27047 0
M  V30 2969 C 276.343 -0.633544 -1.46487 0
M  V30 2970 C 276.543 0.815746 -1.84249 0
M  V30 2971 O 275.599 1.59319 -1.95892 0
M  V30 2972 C 276.912 -1.58758 -2.55375 0
M  V30 2973 C 278.46 -1.59634 -2.69232 0
M  V30 2974 C 278.935 -2.53747 -3.81283 0
M  V30 2975 N 280.426 -2.51982 -3.88664 0
M  V30 2976 C 281.161 -3.21491 -4.74796 0
M  V30 2977 N 280.657 -4.00395 -5.65381 0
M  V30 2978 N 282.45 -3.10485 -4.68568 0
M  V30 2979 H 274.601 -1.86946 -1.00821 0
M  V30 2980 H 276.864 -0.802897 -0.504044 0
M  V30 2981 H 276.57 -2.62172 -2.34432 0
M  V30 2982 H 276.444 -1.33301 -3.52861 0
M  V30 2983 H 278.831 -0.569488 -2.89553 0
M  V30 2984 H 278.912 -1.89142 -1.72218 0
M  V30 2985 H 278.556 -3.56545 -3.61715 0
M  V30 2986 H 278.486 -2.21532 -4.77735 0
M  V30 2987 H 280.977 -1.94681 -3.23895 0
M  V30 2988 H 281.29 -4.50406 -6.27976 0
M  V30 2989 H 279.635 -4.04498 -5.65161 0
M  V30 2990 H 282.826 -2.48331 -3.96799 0
M  V30 2991 H 282.999 -3.64925 -5.35475 0
M  V30 2992 N 276.405 1.4127 -0.698611 0
M  V30 2993 C 277.635 2.05205 -0.239644 0
M  V30 2994 C 278.043 1.52684 1.11733 0
M  V30 2995 O 277.386 0.671222 1.70998 0
M  V30 2996 C 277.448 3.59289 -0.123126 0
M  V30 2997 C 277.112 4.34619 -1.41263 0
M  V30 2998 C 278.109 4.63701 -2.35111 0
M  V30 2999 C 275.794 4.73837 -1.66684 0
M  V30 3000 C 277.788 5.30966 -3.52639 0
M  V30 3001 C 275.475 5.40837 -2.84498 0
M  V30 3002 C 276.473 5.69329 -3.77298 0
M  V30 3003 O 276.161 6.34949 -4.93047 0
M  V30 3004 H 275.893 0.66723 -0.108537 0
M  V30 3005 H 278.447 1.81974 -0.952602 0
M  V30 3006 H 276.677 3.81272 0.645628 0
M  V30 3007 H 278.366 4.04797 0.299056 0
M  V30 3008 H 279.132 4.33882 -2.16729 0
M  V30 3009 H 275.011 4.51039 -0.953135 0
M  V30 3010 H 278.555 5.53121 -4.25091 0
M  V30 3011 H 274.452 5.70075 -3.02795 0
M  V30 3012 H 275.22 6.53445 -4.92902 0
M  V30 3013 N 277.883 0.443576 1.51229 0
M  V30 3014 C 279.13 -0.120796 2.02139 0
M  V30 3015 C 279.458 -1.42166 1.32736 0
M  V30 3016 O 278.713 -1.90849 0.43301 0
M  V30 3017 C 279.012 -0.380579 3.55368 0
M  V30 3018 C 278.678 0.83523 4.43097 0
M  V30 3019 C 277.34 1.16864 4.66794 0
M  V30 3020 C 279.692 1.64601 4.94526 0
M  V30 3021 C 277.02 2.31339 5.39165 0
M  V30 3022 C 279.372 2.78181 5.68153 0
M  V30 3023 C 278.036 3.11969 5.90112 0
M  V30 3024 H 277.306 -0.0442023 0.73968 0
M  V30 3025 H 279.953 0.592046 1.82118 0
M  V30 3026 H 278.258 -1.17538 3.73754 0
M  V30 3027 H 279.955 -0.830777 3.923 0
M  V30 3028 H 276.545 0.565437 4.24854 0
M  V30 3029 H 280.729 1.40163 4.76097 0
M  V30 3030 H 275.985 2.57823 5.5438 0
M  V30 3031 H 280.159 3.41371 6.06992 0
M  V30 3032 H 277.786 4.00784 6.45969 0
M  V30 3033 N 279.361 -1.56624 0.175154 0
M  V30 3034 C 280.291 -2.21155 -0.749195 0
M  V30 3035 C 281.272 -1.16836 -1.23626 0
M  V30 3036 O 282.457 -1.45277 -1.28873 0
M  V30 3037 C 279.587 -2.8553 -1.97711 0
M  V30 3038 C 278.541 -3.95921 -1.62575 0
M  V30 3039 C 277.867 -4.47365 -2.92864 0
M  V30 3040 C 279.167 -5.15323 -0.850838 0
M  V30 3041 H 280.861 -2.98653 -0.211295 0
M  V30 3042 H 278.407 -1.43651 -0.100188 0
M  V30 3043 H 280.36 -3.2935 -2.62881 0
M  V30 3044 H 279.084 -2.05406 -2.53921 0
M  V30 3045 H 277.743 -3.52762 -0.997719 0
M  V30 3046 H 277.391 -3.64027 -3.47122 0
M  V30 3047 H 277.091 -5.21839 -2.70106 0
M  V30 3048 H 278.615 -4.93873 -3.59056 0
M  V30 3049 H 280.029 -5.55812 -1.40521 0
M  V30 3050 H 278.426 -5.95739 -0.722154 0
M  V30 3051 H 279.496 -4.84661 0.152082 0
M  V30 3052 N 280.839 0.0985539 -1.57292 0
M  V30 3053 C 282.116 0.834155 -1.76921 0
M  V30 3054 C 282.496 1.97101 -0.755928 0
M  V30 3055 O 281.844 2.27474 0.216245 0
M  V30 3056 C 282.054 1.33194 -3.22584 0
M  V30 3057 C 283.402 1.77611 -3.85668 0
M  V30 3058 O 284.426 1.42825 -3.26312 0
M  V30 3059 O 283.285 2.4192 -4.90038 0
M  V30 3060 H 280.379 0.397628 -0.725135 0
M  V30 3061 H 282.925 0.0807044 -1.69508 0
M  V30 3062 H 281.697 0.517248 -3.87866 0
M  V30 3063 H 281.32 2.1475 -3.34616 0
M  V30 3064 N 282.317 1.53212 0.369288 0
M  V30 3065 C 283.264 1.79388 1.45219 0
M  V30 3066 C 284.234 0.638059 1.53356 0
M  V30 3067 O 285.419 0.879852 1.69302 0
M  V30 3068 C 282.559 1.98623 2.82211 0
M  V30 3069 C 281.672 3.26337 2.8307 0
M  V30 3070 C 280.807 3.35779 4.11614 0
M  V30 3071 C 279.846 4.5754 4.06601 0
M  V30 3072 N 278.983 4.64155 5.26787 0
M  V30 3073 H 283.823 2.71794 1.22198 0
M  V30 3074 H 281.36 1.34642 0.592444 0
M  V30 3075 H 283.318 2.07761 3.61789 0
M  V30 3076 H 281.948 1.09558 3.03639 0
M  V30 3077 H 281 3.26171 1.95747 0
M  V30 3078 H 282.312 4.15988 2.75237 0
M  V30 3079 H 281.466 3.44208 4.99606 0
M  V30 3080 H 280.205 2.44137 4.22195 0
M  V30 3081 H 279.21 4.49215 3.16996 0
M  V30 3082 H 280.435 5.50519 3.97625 0
M  V30 3083 H 278.381 3.75413 5.3796 0
M  V30 3084 H 278.298 5.47706 5.21109 0
M  V30 3085 H 279.566 4.76863 6.16621 0
M  V30 3086 N 283.795 -0.628877 1.44509 0
M  V30 3087 C 285.023 -1.41554 1.50897 0
M  V30 3088 C 285.438 -1.8832 0.134564 0
M  V30 3089 O 284.795 -1.60969 -0.859965 0
M  V30 3090 C 284.846 -2.63435 2.47556 0
M  V30 3091 O 284.567 -2.18619 3.79654 0
M  V30 3092 C 286.068 -3.56537 2.63431 0
M  V30 3093 H 283.288 -0.434044 0.511709 0
M  V30 3094 H 285.832 -0.768895 1.89495 0
M  V30 3095 H 283.987 -3.24187 2.12089 0
M  V30 3096 H 284.401 -2.97652 4.31861 0
M  V30 3097 H 285.875 -4.38657 3.35088 0
M  V30 3098 H 286.352 -4.05493 1.68738 0
M  V30 3099 H 286.958 -3.01653 2.9981 0
M  V30 3100 N 285.273 -1.31445 -0.869486 0
M  V30 3101 C 286.203 -1.21727 -1.99261 0
M  V30 3102 C 287.184 -0.104359 -1.6978 0
M  V30 3103 O 288.369 -0.289038 -1.92037 0
M  V30 3104 C 285.499 -0.924317 -3.34774 0
M  V30 3105 C 284.453 -1.99685 -3.78563 0
M  V30 3106 C 283.779 -1.55658 -5.11541 0
M  V30 3107 C 285.079 -3.41003 -3.95619 0
M  V30 3108 H 286.773 -2.1569 -2.07649 0
M  V30 3109 H 284.319 -1.03839 -0.997675 0
M  V30 3110 H 286.272 -0.842934 -4.12883 0
M  V30 3111 H 284.996 0.0509793 -3.2656 0
M  V30 3112 H 283.655 -2.06813 -3.02694 0
M  V30 3113 H 283.303 -0.569132 -4.9977 0
M  V30 3114 H 283.003 -2.27409 -5.41811 0
M  V30 3115 H 284.527 -1.48928 -5.92159 0
M  V30 3116 H 285.941 -3.36547 -4.64122 0
M  V30 3117 H 284.338 -4.10975 -4.37286 0
M  V30 3118 H 285.408 -3.81754 -2.98985 0
M  V30 3119 N 286.751 1.08385 -1.14413 0
M  V30 3120 C 287.979 1.84517 -0.936001 0
M  V30 3121 C 288.394 1.81626 0.515503 0
M  V30 3122 O 287.751 1.22008 1.35721 0
M  V30 3123 C 287.802 3.32049 -1.42918 0
M  V30 3124 O 287.523 3.34951 -2.82381 0
M  V30 3125 C 289.024 4.24986 -1.26103 0
M  V30 3126 H 286.244 0.582491 -0.333084 0
M  V30 3127 H 288.788 1.36885 -1.5193 0
M  V30 3128 H 286.943 3.7707 -0.888641 0
M  V30 3129 H 287.357 4.27048 -3.04517 0
M  V30 3130 H 288.831 5.26615 -1.6547 0
M  V30 3131 H 289.308 4.38726 -0.20392 0
M  V30 3132 H 289.914 3.85791 -1.79012 0
M  V30 3133 N 288.23 0.939286 1.26551 0
M  V30 3134 C 289.455 0.602008 1.98471 0
M  V30 3135 C 289.88 -0.815624 1.69497 0
M  V30 3136 O 289.238 -1.54912 0.941905 0
M  V30 3137 C 289.286 0.848407 3.50477 0
M  V30 3138 O 288.39 -0.0804009 4.12322 0
M  V30 3139 H 287.731 0.23049 0.622712 0
M  V30 3140 H 290.261 1.2617 1.61066 0
M  V30 3141 H 290.271 0.768553 4.00696 0
M  V30 3142 H 288.946 1.88171 3.70897 0
M  V30 3143 H 287.523 0.0503508 3.72866 0
M  V30 3144 N 289.708 -1.40897 0.706093 0
M  V30 3145 C 291.124 -1.55042 0.37869 0
M  V30 3146 C 291.324 -1.67944 -1.11342 0
M  V30 3147 O 290.38 -1.66372 -1.89938 0
M  V30 3148 C 291.693 -2.78398 1.13643 0
M  V30 3149 C 293.241 -2.92206 1.12181 0
M  V30 3150 C 293.716 -4.18463 1.86152 0
M  V30 3151 N 295.207 -4.25443 1.83173 0
M  V30 3152 C 295.942 -5.2202 2.37239 0
M  V30 3153 N 295.438 -6.24563 2.99821 0
M  V30 3154 N 297.231 -5.14033 2.27435 0
M  V30 3155 H 289.382 -1.30769 1.67372 0
M  V30 3156 H 291.645 -0.631653 0.706907 0
M  V30 3157 H 291.351 -2.7511 2.19106 0
M  V30 3158 H 291.225 -3.70228 0.721853 0
M  V30 3159 H 293.612 -2.95004 0.0754171 0
M  V30 3160 H 293.693 -2.01521 1.57554 0
M  V30 3161 H 293.337 -4.16427 2.90776 0
M  V30 3162 H 293.267 -5.08141 1.38206 0
M  V30 3163 H 295.758 -3.51976 1.37556 0
M  V30 3164 H 296.071 -6.94665 3.38616 0
M  V30 3165 H 294.416 -6.25035 3.03902 0
M  V30 3166 H 297.607 -4.3285 1.78208 0
M  V30 3167 H 297.78 -5.89129 2.69873 0
M  V30 3168 N 291.186 -0.45159 -1.50991 0
M  V30 3169 C 292.116 0.342898 -2.30969 0
M  V30 3170 C 293.097 1.00815 -1.37005 0
M  V30 3171 O 294.282 1.00907 -1.65926 0
M  V30 3172 C 291.412 1.43637 -3.16205 0
M  V30 3173 C 290.366 0.893818 -4.18563 0
M  V30 3174 C 289.692 2.08411 -4.92411 0
M  V30 3175 C 290.992 -0.0815568 -5.22236 0
M  V30 3176 H 292.686 -0.324556 -2.97636 0
M  V30 3177 H 290.232 -0.157531 -1.43136 0
M  V30 3178 H 292.185 1.9995 -3.70942 0
M  V30 3179 H 290.909 2.13232 -2.47386 0
M  V30 3180 H 289.568 0.352798 -3.64898 0
M  V30 3181 H 289.216 2.76658 -4.20082 0
M  V30 3182 H 288.916 1.72741 -5.61636 0
M  V30 3183 H 290.44 2.65251 -5.49976 0
M  V30 3184 H 291.854 0.391742 -5.7196 0
M  V30 3185 H 290.251 -0.351551 -5.99069 0
M  V30 3186 H 291.321 -1.01374 -4.74185 0
M  V30 3187 N 292.664 1.56529 -0.183458 0
M  V30 3188 C 293.912 1.96855 0.457452 0
M  V30 3189 C 294.233 1.07104 1.62953 0
M  V30 3190 O 293.503 0.139887 1.954 0
M  V30 3191 H 292.083 0.72693 0.171992 0
M  V30 3192 H 294.745 1.93056 -0.267476 0
M  V30 3193 H 293.841 3.01423 0.809368 0
M  V30 3194 N 294.142 -0.090211 1.57342 0
M  V30 3195 C 295.391 -0.791531 1.8552 0
M  V30 3196 C 295.704 -1.79659 0.773441 0
M  V30 3197 O 296.91 -2.54616 0.942497 0
M  V30 3198 C 295.366 -1.45856 3.2902 0
M  V30 3199 C 294.974 -0.493017 4.45279 0
M  V30 3200 C 296.718 -2.14332 3.66418 0
M  V30 3201 C 294.625 -1.16491 5.79814 0
M  V30 3202 H 293.555 -0.299356 0.692027 0
M  V30 3203 H 296.206 -0.0445343 1.83446 0
M  V30 3204 H 294.588 -2.25318 3.2565 0
M  V30 3205 H 295.762 0.270464 4.60006 0
M  V30 3206 H 294.077 0.0863061 4.16311 0
M  V30 3207 H 296.674 -2.65344 4.64216 0
M  V30 3208 H 297.017 -2.93447 2.95287 0
M  V30 3209 H 297.55 -1.41724 3.71698 0
M  V30 3210 H 294.289 -0.41447 6.54188 0
M  V30 3211 H 293.809 -1.8997 5.68921 0
M  V30 3212 H 295.488 -1.69001 6.24538 0
M  V30 3213 N 295.62 -1.53406 -0.361157 0
M  V30 3214 C 297.036 -1.43277 -0.703124 0
M  V30 3215 C 297.236 -0.575384 -1.9311 0
M  V30 3216 O 296.292 -0.0595362 -2.5243 0
M  V30 3217 C 297.605 -2.8653 -0.9122 0
M  V30 3218 C 299.153 -2.96191 -1.01193 0
M  V30 3219 C 299.628 -4.40514 -1.25345 0
M  V30 3220 N 301.119 -4.43962 -1.32105 0
M  V30 3221 C 301.854 -5.52746 -1.5251 0
M  V30 3222 N 301.35 -6.71567 -1.70203 0
M  V30 3223 N 303.143 -5.40331 -1.54916 0
M  V30 3224 H 295.294 -2.07654 0.446475 0
M  V30 3225 H 297.557 -0.937944 0.137715 0
M  V30 3226 H 297.263 -3.51605 -0.0816414 0
M  V30 3227 H 297.137 -3.30441 -1.81903 0
M  V30 3228 H 299.524 -2.31266 -1.83303 0
M  V30 3229 H 299.605 -2.55667 -0.0823929 0
M  V30 3230 H 299.249 -5.06014 -0.437346 0
M  V30 3231 H 299.179 -4.78614 -2.19627 0
M  V30 3232 H 301.67 -3.58332 -1.20028 0
M  V30 3233 H 301.983 -7.50241 -1.85359 0
M  V30 3234 H 300.328 -6.74545 -1.67373 0
M  V30 3235 H 303.519 -4.46465 -1.40663 0
M  V30 3236 H 303.692 -6.25173 -1.70477 0
M  V30 3237 N 297.098 0.621204 -1.44841 0
M  V30 3238 C 298.031 1.7459 -1.46947 0
M  V30 3239 C 299.009 1.59273 -0.327238 0
M  V30 3240 O 300.193 1.81021 -0.525706 0
M  V30 3241 C 297.32 3.12274 -1.31159 0
M  V30 3242 C 296.366 3.46216 -2.49072 0
M  V30 3243 S 297.199 3.4258 -4.11581 0
M  V30 3244 C 298.355 4.82867 -3.98233 0
M  V30 3245 H 298.588 1.72538 -2.42111 0
M  V30 3246 H 296.121 0.796683 -1.32259 0
M  V30 3247 H 298.079 3.91722 -1.22737 0
M  V30 3248 H 296.74 3.11855 -0.374885 0
M  V30 3249 H 295.933 4.4643 -2.33915 0
M  V30 3250 H 295.535 2.74253 -2.54286 0
M  V30 3251 H 297.827 5.7234 -3.62537 0
M  V30 3252 H 298.77 5.0308 -4.98313 0
M  V30 3253 H 299.178 4.57908 -3.30121 0
M  V30 3254 N 298.576 1.31904 0.862503 0
M  V30 3255 C 299.506 1.22782 1.98612 0
M  V30 3256 C 300.487 0.113362 1.69722 0
M  V30 3257 O 301.672 0.299218 1.91881 0
M  V30 3258 C 298.802 0.942058 3.34279 0
M  V30 3259 C 297.756 2.0169 3.77499 0
M  V30 3260 C 297.082 1.58369 5.10709 0
M  V30 3261 C 298.382 3.43096 3.93805 0
M  V30 3262 H 300.076 2.16788 2.06502 0
M  V30 3263 H 297.622 1.04366 0.992154 0
M  V30 3264 H 299.575 0.864818 4.1243 0
M  V30 3265 H 298.299 -0.0336603 3.26583 0
M  V30 3266 H 296.958 2.08416 3.01593 0
M  V30 3267 H 296.606 0.595628 4.99461 0
M  V30 3268 H 296.306 2.30279 5.40597 0
M  V30 3269 H 297.83 1.52067 5.91361 0
M  V30 3270 H 299.244 3.39003 4.62331 0
M  V30 3271 H 297.641 4.13288 4.35101 0
M  V30 3272 H 298.711 3.83334 2.96957 0
M  V30 3273 N 300.054 -1.07777 1.14986 0
M  V30 3274 C 301.017 -2.13041 0.845358 0
M  V30 3275 C 302.017 -1.60071 -0.152931 0
M  V30 3276 O 303.207 -1.74033 0.0761879 0
M  V30 3277 C 300.339 -3.39896 0.261383 0
M  V30 3278 H 301.532 -2.41485 1.77834 0
M  V30 3279 H 299.085 -1.23595 0.956757 0
M  V30 3280 H 299.82 -3.17091 -0.68 0
M  V30 3281 H 299.605 -3.79642 0.980514 0
M  V30 3282 H 301.095 -4.17548 0.0657687 0
M  V30 3283 N 301.532 -0.945985 -1.26051 0
M  V30 3284 C 302.76 -0.613025 -1.9761 0
M  V30 3285 C 303.175 0.813035 -1.70397 0
M  V30 3286 O 302.532 1.54274 -0.974979 0
M  V30 3287 C 302.583 -0.85159 -3.51326 0
M  V30 3288 O 302.304 -2.22157 -3.77595 0
M  V30 3289 C 303.805 -0.529831 -4.40122 0
M  V30 3290 H 301.025 -0.230593 -0.630133 0
M  V30 3291 H 303.569 -1.268 -1.60443 0
M  V30 3292 H 301.724 -0.243151 -3.86636 0
M  V30 3293 H 302.138 -2.2852 -4.721 0
M  V30 3294 H 303.612 -0.747348 -5.46917 0
M  V30 3295 H 304.089 0.535341 -4.35925 0
M  V30 3296 H 304.695 -1.11721 -4.10364 0
M  V30 3297 N 303.011 1.40521 -0.713556 0
M  V30 3298 C 303.961 2.27971 -0.036165 0
M  V30 3299 C 304.945 1.43151 0.734623 0
M  V30 3300 O 306.137 1.66261 0.607158 0
M  V30 3301 C 303.266 3.31661 0.886331 0
M  V30 3302 C 302.352 4.23955 0.110836 0
M  V30 3303 N 302.743 4.97641 -0.904847 0
M  V30 3304 C 301.041 4.44674 0.343692 0
M  V30 3305 C 301.742 5.65322 -1.37064 0
M  V30 3306 N 300.718 5.39162 -0.693168 0
M  V30 3307 H 304.52 2.82384 -0.814645 0
M  V30 3308 H 302.034 1.52948 -0.545963 0
M  V30 3309 H 304.031 3.93154 1.38692 0
M  V30 3310 H 302.691 2.78808 1.66421 0
M  V30 3311 H 303.702 5.01689 -1.28563 0
M  V30 3312 H 300.379 4.02801 1.09805 0
M  V30 3313 H 301.769 6.34359 -2.21447 0
M  V30 3314 N 304.489 0.459591 1.5075 0
M  V30 3315 C 305.439 -0.358926 2.25157 0
M  V30 3316 C 306.423 -0.971285 1.28276 0
M  V30 3317 O 307.615 -0.885739 1.53244 0
M  V30 3318 C 304.744 -1.44695 3.11317 0
M  V30 3319 C 303.83 -0.842894 4.15639 0
M  V30 3320 N 304.221 0.0299373 5.05791 0
M  V30 3321 C 302.519 -1.10809 4.32015 0
M  V30 3322 C 303.22 0.371563 5.80512 0
M  V30 3323 N 302.196 -0.250409 5.43023 0
M  V30 3324 H 305.998 0.313636 2.92222 0
M  V30 3325 H 303.512 0.273021 1.60089 0
M  V30 3326 H 305.509 -2.04641 3.63218 0
M  V30 3327 H 304.169 -2.12162 2.45799 0
M  V30 3328 H 305.18 0.39797 5.16369 0
M  V30 3329 H 301.857 -1.7786 3.77719 0
M  V30 3330 H 303.247 1.08319 6.63111 0
M  V30 3331 N 305.967 -1.56429 0.191757 0
M  V30 3332 C 306.897 -2.21937 -0.725696 0
M  V30 3333 C 307.878 -1.1814 -1.2238 0
M  V30 3334 O 309.063 -1.46636 -1.27325 0
M  V30 3335 C 306.193 -2.87611 -1.94672 0
M  V30 3336 C 305.147 -3.97623 -1.58366 0
M  V30 3337 C 304.473 -4.50446 -2.88102 0
M  V30 3338 C 305.773 -5.16197 -0.796133 0
M  V30 3339 H 307.467 -2.98861 -0.179606 0
M  V30 3340 H 305.013 -1.43749 -0.0849464 0
M  V30 3341 H 306.966 -3.3212 -2.59373 0
M  V30 3342 H 305.69 -2.08087 -2.51728 0
M  V30 3343 H 304.349 -3.53801 -0.960247 0
M  V30 3344 H 303.997 -3.67688 -3.43241 0
M  V30 3345 H 303.697 -5.24675 -2.64556 0
M  V30 3346 H 305.221 -4.97654 -3.53798 0
M  V30 3347 H 306.635 -5.57271 -1.34618 0
M  V30 3348 H 305.032 -5.96471 -0.658928 0
M  V30 3349 H 306.102 -4.84473 0.203478 0
M  V30 3350 N 307.445 0.0818655 -1.57387 0
M  V30 3351 C 308.408 1.08265 -2.02018 0
M  V30 3352 C 309.408 1.32183 -0.915664 0
M  V30 3353 O 310.598 1.28073 -1.18081 0
M  V30 3354 C 307.73 2.42871 -2.39221 0
M  V30 3355 H 308.923 0.698204 -2.91659 0
M  V30 3356 H 306.476 0.327303 -1.52835 0
M  V30 3357 H 307.211 2.86167 -1.52575 0
M  V30 3358 H 306.996 2.26855 -3.19811 0
M  V30 3359 H 308.486 3.14826 -2.74362 0
M  V30 3360 N 308.923 1.53595 0.353017 0
M  V30 3361 C 309.853 1.83902 1.43883 0
M  V30 3362 C 310.834 0.693421 1.55324 0
M  V30 3363 O 312.019 0.944452 1.69687 0
M  V30 3364 C 309.149 2.04016 2.8106 0
M  V30 3365 C 308.103 3.19814 2.84434 0
M  V30 3366 C 307.429 3.25244 4.24406 0
M  V30 3367 C 308.729 4.58133 2.50822 0
M  V30 3368 H 310.423 2.74835 1.1877 0
M  V30 3369 H 307.969 1.32242 0.569917 0
M  V30 3370 H 309.922 2.238 3.57059 0
M  V30 3371 H 308.646 1.09804 3.07588 0
M  V30 3372 H 307.305 2.9987 2.10887 0
M  V30 3373 H 306.953 2.28646 4.48029 0
M  V30 3374 H 306.653 4.03054 4.27576 0
M  V30 3375 H 308.177 3.47228 5.0226 0
M  V30 3376 H 309.591 4.77995 3.16534 0
M  V30 3377 H 307.988 5.38276 2.6529 0
M  V30 3378 H 309.058 4.62387 1.46034 0
M  V30 3379 N 310.401 -0.613514 1.45168 0
M  V30 3380 C 311.351 -1.71871 1.49815 0
M  V30 3381 C 312.335 -1.56774 0.362021 0
M  V30 3382 O 313.527 -1.66212 0.608493 0
M  V30 3383 C 310.656 -3.1061 1.46207 0
M  V30 3384 C 309.742 -3.31114 2.64999 0
M  V30 3385 N 310.133 -3.21904 3.90143 0
M  V30 3386 C 308.431 -3.61966 2.6057 0
M  V30 3387 C 309.132 -3.43577 4.69393 0
M  V30 3388 N 308.108 -3.67287 4.00751 0
M  V30 3389 H 311.91 -1.63235 2.444 0
M  V30 3390 H 309.424 -0.816577 1.40377 0
M  V30 3391 H 311.421 -3.8989 1.4762 0
M  V30 3392 H 310.081 -3.20399 0.52673 0
M  V30 3393 H 311.092 -3.00436 4.21852 0
M  V30 3394 H 307.769 -3.78629 1.75916 0
M  V30 3395 H 309.159 -3.41901 5.78406 0
M  V30 3396 N 311.879 -1.3236 -0.855495 0
M  V30 3397 C 312.789 -1.23221 -1.99634 0
M  V30 3398 C 313.805 -0.145983 -1.73387 0
M  V30 3399 O 314.981 -0.366502 -1.98037 0
M  V30 3400 C 312.046 -0.954782 -3.33294 0
M  V30 3401 C 311.107 -2.12937 -3.72769 0
M  V30 3402 C 310.34 -1.86508 -5.00051 0
M  V30 3403 O 310.563 -0.807231 -5.64659 0
M  V30 3404 O 309.497 -2.72591 -5.36636 0
M  V30 3405 H 313.323 -2.19126 -2.1028 0
M  V30 3406 H 310.908 -1.12241 -0.986018 0
M  V30 3407 H 312.79 -0.816519 -4.13414 0
M  V30 3408 H 311.465 -0.0258854 -3.2369 0
M  V30 3409 H 310.372 -2.3231 -2.93228 0
M  V30 3410 H 311.705 -3.04102 -3.87018 0
M  V30 3411 N 313.357 1.07166 -1.15556 0
M  V30 3412 C 314.634 1.76546 -0.842069 0
M  V30 3413 C 315.014 2.00453 0.661939 0
M  V30 3414 O 314.362 1.62452 1.60691 0
M  V30 3415 C 314.572 3.07266 -1.65495 0
M  V30 3416 C 315.92 3.81578 -1.86234 0
M  V30 3417 O 316.944 3.17083 -1.62287 0
M  V30 3418 O 315.803 4.97419 -2.26355 0
M  V30 3419 H 312.897 0.766756 -0.309862 0
M  V30 3420 H 315.443 1.13514 -1.26145 0
M  V30 3421 H 314.215 2.85494 -2.67598 0
M  V30 3422 H 313.838 3.7803 -1.23203 0
M  V30 3423 N 314.835 0.952656 1.25548 0
M  V30 3424 C 315.782 0.47008 2.25962 0
M  V30 3425 C 316.752 -0.476384 1.59122 0
M  V30 3426 O 317.937 -0.39007 1.8677 0
M  V30 3427 C 315.077 -0.247881 3.44209 0
M  V30 3428 C 314.19 0.735591 4.25691 0
M  V30 3429 C 313.325 -0.0047306 5.312 0
M  V30 3430 C 312.364 0.969805 6.04368 0
M  V30 3431 N 311.501 0.260486 7.01617 0
M  V30 3432 H 316.341 1.33126 2.66611 0
M  V30 3433 H 313.878 0.66765 1.31076 0
M  V30 3434 H 315.836 -0.680695 4.1161 0
M  V30 3435 H 314.466 -1.07312 3.0444 0
M  V30 3436 H 313.518 1.28689 3.57971 0
M  V30 3437 H 314.83 1.47934 4.76358 0
M  V30 3438 H 313.984 -0.496275 6.04667 0
M  V30 3439 H 312.723 -0.781282 4.81401 0
M  V30 3440 H 311.728 1.47237 5.29718 0
M  V30 3441 H 312.953 1.74655 6.56256 0
M  V30 3442 H 310.899 -0.497364 6.54112 0
M  V30 3443 H 310.816 0.943362 7.50091 0
M  V30 3444 H 312.084 -0.209587 7.79218 0
M  V30 3445 N 316.313 -1.40141 0.720998 0
M  V30 3446 C 317.724 -1.83678 0.334553 0
M  V30 3447 C 318.075 -1.6027 -1.13173 0
M  V30 3448 O 317.2 -1.08643 -1.87152 0
M  V30 3449 C 317.795 -3.33437 0.600437 0
M  V30 3450 C 316.354 -3.75447 0.267642 0
M  V30 3451 C 315.501 -2.63296 0.870097 0
M  V30 3452 H 318.452 -1.29331 0.919732 0
M  V30 3453 H 318.473 -3.80269 -0.132517 0
M  V30 3454 H 317.985 -3.50442 1.66768 0
M  V30 3455 H 316.086 -3.64035 -0.794329 0
M  V30 3456 H 316.199 -4.73344 0.74042 0
M  V30 3457 H 314.563 -2.52954 0.297739 0
M  V30 3458 H 315.346 -2.83112 1.94172 0
M  V30 3459 N 317.792 -0.46758 -1.50504 0
M  V30 3460 C 319.069 0.15003 -1.95024 0
M  V30 3461 C 319.449 1.57304 -1.40779 0
M  V30 3462 O 318.797 2.20281 -0.607319 0
M  V30 3463 C 319.007 0.0969324 -3.48865 0
M  V30 3464 C 320.355 0.287565 -4.23625 0
M  V30 3465 O 321.379 0.173678 -3.55776 0
M  V30 3466 O 320.238 0.517186 -5.44047 0
M  V30 3467 H 317.332 0.113582 -0.819163 0
M  V30 3468 H 319.878 -0.52773 -1.61286 0
M  V30 3469 H 318.65 -0.896732 -3.80886 0
M  V30 3470 H 318.273 0.816303 -3.8913 0
M  V30 3471 N 319.27 1.56325 -0.20005 0
M  V30 3472 C 320.517 1.97719 0.437411 0
M  V30 3473 C 320.845 1.08709 1.61284 0
M  V30 3474 O 320.1 0.127261 1.95286 0
M  V30 3475 C 320.399 3.4495 0.935103 0
M  V30 3476 C 320.065 4.5072 -0.12749 0
M  V30 3477 C 318.727 4.79368 -0.419451 0
M  V30 3478 C 321.079 5.14268 -0.847231 0
M  V30 3479 C 318.407 5.68854 -1.43604 0
M  V30 3480 C 320.759 6.04852 -1.85301 0
M  V30 3481 C 319.423 6.31855 -2.15211 0
M  V30 3482 H 318.693 0.723507 0.16006 0
M  V30 3483 H 321.34 1.89166 -0.298056 0
M  V30 3484 H 319.645 3.50599 1.74894 0
M  V30 3485 H 321.342 3.74337 1.43781 0
M  V30 3486 H 317.932 4.28458 0.11023 0
M  V30 3487 H 322.116 4.92222 -0.634901 0
M  V30 3488 H 317.372 5.88047 -1.67364 0
M  V30 3489 H 321.546 6.53152 -2.41591 0
M  V30 3490 H 319.173 7.00994 -2.94129 0
M  V30 3491 N 320.748 -0.0735177 1.57428 0
M  V30 3492 C 321.994 -0.774145 1.87443 0
M  V30 3493 C 322.327 -1.77311 0.792103 0
M  V30 3494 O 321.602 -1.93492 -0.197793 0
M  V30 3495 C 321.885 -1.48367 3.28115 0
M  V30 3496 C 321.738 -0.501227 4.46999 0
M  V30 3497 C 323.057 -2.429 3.66998 0
M  V30 3498 H 320.176 -0.279971 0.681752 0
M  V30 3499 H 322.818 -0.0373616 1.89963 0
M  V30 3500 H 320.968 -2.11171 3.26097 0
M  V30 3501 H 322.64 0.121468 4.6114 0
M  V30 3502 H 320.883 0.183593 4.33411 0
M  V30 3503 H 321.554 -1.03526 5.42205 0
M  V30 3504 H 324.03 -1.90175 3.70098 0
M  V30 3505 H 322.906 -2.89549 4.66318 0
M  V30 3506 H 323.167 -3.27628 2.96837 0
M  V30 3507 N 322.226 -1.5378 -0.344866 0
M  V30 3508 C 323.474 -1.70625 -1.08311 0
M  V30 3509 C 323.795 -0.471447 -1.89215 0
M  V30 3510 O 323.065 0.514616 -1.8902 0
M  V30 3511 H 321.645 -0.629058 -0.402859 0
M  V30 3512 H 324.307 -1.9103 -0.386459 0
M  V30 3513 H 323.403 -2.57656 -1.76124 0
M  V30 3514 N 323.704 0.605807 -1.45491 0
M  V30 3515 C 324.953 1.36086 -1.48874 0
M  V30 3516 C 325.266 1.95131 -0.135333 0
M  V30 3517 O 326.472 2.7146 -0.0468144 0
M  V30 3518 C 324.928 2.46518 -2.62215 0
M  V30 3519 C 324.536 1.93877 -4.03876 0
M  V30 3520 C 326.28 3.23512 -2.74846 0
M  V30 3521 C 324.187 3.01801 -5.08596 0
M  V30 3522 H 323.117 0.511497 -0.553974 0
M  V30 3523 H 325.768 0.649089 -1.71636 0
M  V30 3524 H 324.15 3.20388 -2.32739 0
M  V30 3525 H 325.324 1.26704 -4.43038 0
M  V30 3526 H 323.639 1.29622 -3.95711 0
M  V30 3527 H 326.236 4.04013 -3.50253 0
M  V30 3528 H 326.579 3.74631 -1.81542 0
M  V30 3529 H 327.112 2.56742 -3.03856 0
M  V30 3530 H 323.851 2.55597 -6.03614 0
M  V30 3531 H 323.371 3.67535 -4.74002 0
M  V30 3532 H 325.05 3.66152 -5.33424 0
M  V30 3533 N 325.182 1.32811 0.848464 0
M  V30 3534 C 326.431 1.23075 1.59798 0
M  V30 3535 C 326.744 -0.204419 1.94529 0
M  V30 3536 O 327.95 -0.423701 2.68173 0
M  V30 3537 C 326.406 2.15594 2.88179 0
M  V30 3538 C 326.014 3.64228 2.60849 0
M  V30 3539 C 327.758 2.14709 3.66197 0
M  V30 3540 C 325.665 4.48689 3.85269 0
M  V30 3541 H 324.595 0.457091 0.599653 0
M  V30 3542 H 327.246 1.57813 0.936342 0
M  V30 3543 H 325.628 1.73778 3.55833 0
M  V30 3544 H 326.802 4.14424 2.01467 0
M  V30 3545 H 325.117 3.67306 1.96151 0
M  V30 3546 H 327.714 2.75046 4.58534 0
M  V30 3547 H 328.057 1.13966 4.00397 0
M  V30 3548 H 328.59 2.54837 3.05455 0
M  V30 3549 H 325.329 5.5027 3.56207 0
M  V30 3550 H 324.849 4.03241 4.44024 0
M  V30 3551 H 326.528 4.62006 4.52946 0
M  V30 3552 N 326.66 -1.06551 1.16123 0
M  V30 3553 C 327.9 -1.80889 0.951766 0
M  V30 3554 C 328.264 -1.85062 -0.511465 0
M  V30 3555 O 329.465 -2.55353 -0.83954 0
M  V30 3556 C 327.736 -3.21609 1.55893 0
M  V30 3557 S 329.295 -4.12593 1.49373 0
M  V30 3558 H 326.113 -0.623156 0.342341 0
M  V30 3559 H 328.715 -1.27943 1.47821 0
M  V30 3560 H 327.419 -3.16165 2.61664 0
M  V30 3561 H 326.95 -3.79631 1.0317 0
M  V30 3562 H 328.965 -4.93753 0.492196 0
M  V30 3563 N 328.138 -0.959301 -1.25041 0
M  V30 3564 C 329.366 -0.633949 -1.96948 0
M  V30 3565 C 329.781 0.794916 -1.7125 0
M  V30 3566 O 329.138 1.53231 -0.991287 0
M  V30 3567 C 329.189 -0.888805 -3.50403 0
M  V30 3568 O 328.91 -2.26149 -3.75218 0
M  V30 3569 C 330.411 -0.576482 -4.39536 0
M  V30 3570 H 327.631 -0.237263 -0.627652 0
M  V30 3571 H 330.175 -1.28495 -1.59089 0
M  V30 3572 H 328.33 -0.284145 -3.86357 0
M  V30 3573 H 328.744 -2.33514 -4.6965 0
M  V30 3574 H 330.218 -0.805314 -5.46094 0
M  V30 3575 H 330.695 0.489075 -4.36468 0
M  V30 3576 H 331.301 -1.16067 -4.09156 0
M  V30 3577 N 329.616 1.39756 -0.72842 0
M  V30 3578 C 331.032 1.5442 -0.403308 0
M  V30 3579 C 331.232 1.69694 1.08656 0
M  V30 3580 O 330.288 1.69373 1.87267 0
M  V30 3581 C 331.601 2.76555 -1.18058 0
M  V30 3582 C 333.149 2.90384 -1.16815 0
M  V30 3583 C 333.624 4.15449 -1.92785 0
M  V30 3584 N 335.115 4.22475 -1.89918 0
M  V30 3585 C 335.85 5.1818 -2.45514 0
M  V30 3586 N 335.346 6.19714 -3.09719 0
M  V30 3587 N 337.139 5.1035 -2.35584 0
M  V30 3588 H 329.29 1.28089 -1.69431 0
M  V30 3589 H 331.553 0.620327 -0.716867 0
M  V30 3590 H 331.259 2.7159 -2.23455 0
M  V30 3591 H 331.133 3.69033 -0.780662 0
M  V30 3592 H 333.52 2.94846 -0.12234 0
M  V30 3593 H 333.601 1.98988 -1.6074 0
M  V30 3594 H 333.245 4.11749 -2.97364 0
M  V30 3595 H 333.175 5.05877 -1.46272 0
M  V30 3596 H 335.666 3.49743 -1.43138 0
M  V30 3597 H 335.979 6.8919 -3.49625 0
M  V30 3598 H 334.324 6.20121 -3.13807 0
M  V30 3599 H 337.515 4.2996 -1.85072 0
M  V30 3600 H 337.688 5.84761 -2.79211 0
M  V30 3601 N 331.094 0.475555 1.50254 0
M  V30 3602 C 332.024 -0.30611 2.31485 0
M  V30 3603 C 333.005 -0.986228 1.38591 0
M  V30 3604 O 334.19 -0.982541 1.67511 0
M  V30 3605 C 331.32 -1.38588 3.1845 0
M  V30 3606 C 330.274 -0.827115 4.19932 0
M  V30 3607 C 329.6 -2.00551 4.95665 0
M  V30 3608 C 330.9 0.16463 5.2204 0
M  V30 3609 H 332.594 0.371866 2.97082 0
M  V30 3610 H 330.14 0.180282 1.42867 0
M  V30 3611 H 332.093 -1.94023 3.74076 0
M  V30 3612 H 330.817 -2.09269 2.50747 0
M  V30 3613 H 329.476 -0.294702 3.65414 0
M  V30 3614 H 329.124 -2.6994 4.2443 0
M  V30 3615 H 328.824 -1.63784 5.64313 0
M  V30 3616 H 330.348 -2.56468 5.54127 0
M  V30 3617 H 331.762 -0.300699 5.72511 0
M  V30 3618 H 330.159 0.446813 5.98434 0
M  V30 3619 H 331.229 1.08905 4.72512 0
M  V30 3620 N 332.573 -1.56217 0.208337 0
M  V30 3621 C 333.798 -2.02782 -0.435222 0
M  V30 3622 C 334.223 -1.08738 -1.53485 0
M  V30 3623 O 333.581 -0.0731855 -1.81152 0
M  V30 3624 C 333.629 -3.47687 -0.956335 0
M  V30 3625 O 332.733 -3.56773 -2.06849 0
M  V30 3626 H 332.074 -0.656403 -0.100158 0
M  V30 3627 H 334.604 -2.02033 0.3231 0
M  V30 3628 H 334.614 -3.87745 -1.26955 0
M  V30 3629 H 333.289 -4.15624 -0.15143 0
M  V30 3630 H 331.866 -3.28597 -1.76292 0
M  V30 3631 N 334.051 0.0651679 -1.57465 0
M  V30 3632 C 335.462 0.616213 -1.76238 0
M  V30 3633 C 335.813 1.7756 -0.834689 0
M  V30 3634 O 334.938 2.1639 -0.0204156 0
M  V30 3635 C 335.533 1.12462 -3.1959 0
M  V30 3636 C 334.092 1.62147 -3.39684 0
M  V30 3637 C 333.239 0.543739 -2.71917 0
M  V30 3638 H 336.19 -0.161022 -1.57881 0
M  V30 3639 H 336.211 1.99324 -3.24114 0
M  V30 3640 H 335.723 0.280592 -3.87084 0
M  V30 3641 H 333.824 2.48854 -2.77313 0
M  V30 3642 H 333.937 1.69385 -4.48158 0
M  V30 3643 H 332.301 0.990352 -2.34657 0
M  V30 3644 H 333.084 -0.290216 -3.42071 0
M  V30 3645 N 335.529 1.53961 0.336706 0
M  V30 3646 C 336.476 1.82428 1.41381 0
M  V30 3647 C 337.446 0.670444 1.51968 0
M  V30 3648 O 338.631 0.915565 1.67398 0
M  V30 3649 C 335.771 2.04564 2.77934 0
M  V30 3650 C 334.884 3.32267 2.76084 0
M  V30 3651 C 334.019 3.44434 4.04399 0
M  V30 3652 C 333.058 4.66061 3.96804 0
M  V30 3653 N 332.195 4.75224 5.16823 0
M  V30 3654 H 337.035 2.74324 1.16405 0
M  V30 3655 H 334.572 1.35869 0.563752 0
M  V30 3656 H 336.53 2.15388 3.57301 0
M  V30 3657 H 335.16 1.15974 3.01247 0
M  V30 3658 H 334.212 3.3025 1.88784 0
M  V30 3659 H 335.524 4.21733 2.66351 0
M  V30 3660 H 334.678 3.54728 4.92192 0
M  V30 3661 H 333.417 2.53037 4.16921 0
M  V30 3662 H 332.422 4.55838 3.07396 0
M  V30 3663 H 333.647 5.58829 3.85858 0
M  V30 3664 H 331.593 3.86739 5.29876 0
M  V30 3665 H 331.51 5.58636 5.09374 0
M  V30 3666 H 332.778 4.89835 6.06367 0
M  V30 3667 N 337.007 -0.598083 1.45811 0
M  V30 3668 C 337.954 -1.7082 1.55207 0
M  V30 3669 C 338.924 -1.61278 0.39732 0
M  V30 3670 O 340.109 -1.80717 0.612038 0
M  V30 3671 C 337.249 -3.09144 1.53376 0
M  V30 3672 C 336.362 -3.29423 2.79472 0
M  V30 3673 C 335.497 -4.57907 2.69248 0
M  V30 3674 C 334.536 -4.71476 3.90354 0
M  V30 3675 N 333.673 -5.9127 3.78608 0
M  V30 3676 H 338.513 -1.62125 2.50039 0
M  V30 3677 H 336.05 -0.790389 1.24062 0
M  V30 3678 H 338.008 -3.89186 1.50301 0
M  V30 3679 H 336.638 -3.16773 0.620876 0
M  V30 3680 H 335.69 -2.43091 2.92594 0
M  V30 3681 H 337.002 -3.3532 3.69272 0
M  V30 3682 H 336.156 -5.46157 2.64192 0
M  V30 3683 H 334.895 -4.54423 1.77063 0
M  V30 3684 H 333.9 -3.81648 3.95759 0
M  V30 3685 H 335.125 -4.76751 4.83617 0
M  V30 3686 H 333.071 -5.88813 2.89199 0
M  V30 3687 H 332.988 -5.98369 4.6205 0
M  V30 3688 H 334.256 -6.81992 3.77501 0
M  V30 3689 N 338.485 -1.33259 -0.841409 0
M  V30 3690 C 339.734 -1.23921 -1.59143 0
M  V30 3691 C 340.047 0.1941 -1.94635 0
M  V30 3692 O 341.253 0.409474 -2.68394 0
M  V30 3693 C 339.709 -2.17119 -2.87032 0
M  V30 3694 C 339.317 -3.65606 -2.58914 0
M  V30 3695 C 341.061 -2.16648 -3.65053 0
M  V30 3696 C 338.968 -4.50726 -3.82884 0
M  V30 3697 H 337.898 -0.460264 -0.597221 0
M  V30 3698 H 340.549 -1.58307 -0.927959 0
M  V30 3699 H 338.931 -1.75663 -3.54906 0
M  V30 3700 H 340.105 -4.15487 -1.99267 0
M  V30 3701 H 338.42 -3.68341 -1.942 0
M  V30 3702 H 341.017 -2.77474 -4.57069 0
M  V30 3703 H 341.36 -1.16088 -3.99787 0
M  V30 3704 H 341.893 -2.56453 -3.041 0
M  V30 3705 H 338.632 -5.52151 -3.53283 0
M  V30 3706 H 338.152 -4.0559 -4.41879 0
M  V30 3707 H 339.831 -4.64401 -4.50489 0
M  V30 3708 N 339.963 1.05934 -1.16686 0
M  V30 3709 C 341.212 1.78188 -0.945085 0
M  V30 3710 C 341.525 1.88338 0.528021 0
M  V30 3711 O 342.731 2.57258 0.867799 0
M  V30 3712 C 341.187 3.20277 -1.64167 0
M  V30 3713 C 340.795 3.18281 -3.15279 0
M  V30 3714 C 342.539 3.97039 -1.502 0
M  V30 3715 C 340.446 4.55112 -3.7766 0
M  V30 3716 H 339.376 0.667866 -0.349959 0
M  V30 3717 H 342.027 1.18794 -1.39858 0
M  V30 3718 H 340.409 3.79952 -1.11589 0
M  V30 3719 H 341.583 2.68167 -3.74731 0
M  V30 3720 H 339.898 2.55018 -3.29173 0
M  V30 3721 H 342.495 4.98194 -1.94183 0
M  V30 3722 H 342.838 4.13845 -0.451461 0
M  V30 3723 H 343.371 3.43894 -1.99954 0
M  V30 3724 H 340.11 4.43512 -4.82677 0
M  V30 3725 H 339.63 5.05406 -3.22994 0
M  V30 3726 H 341.309 5.24064 -3.79428 0
M  V30 3727 N 341.441 0.965919 1.2453 0
M  V30 3728 C 342.351 0.502154 2.29163 0
M  V30 3729 C 343.367 -0.436017 1.68448 0
M  V30 3730 O 344.543 -0.309497 1.99008 0
M  V30 3731 C 341.608 -0.201956 3.46111 0
M  V30 3732 C 340.669 0.775821 4.22232 0
M  V30 3733 C 339.902 0.105217 5.33596 0
M  V30 3734 O 340.125 -1.10683 5.59558 0
M  V30 3735 O 339.059 0.796475 5.96607 0
M  V30 3736 H 342.885 1.37194 2.70946 0
M  V30 3737 H 340.47 0.732875 1.30189 0
M  V30 3738 H 342.352 -0.597564 4.17142 0
M  V30 3739 H 341.027 -1.04673 3.06309 0
M  V30 3740 H 339.934 1.22185 3.53584 0
M  V30 3741 H 341.267 1.58896 4.65846 0
M  V30 3742 N 342.919 -1.39368 0.735821 0
M  V30 3743 C 343.866 -2.30599 0.0963825 0
M  V30 3744 C 344.836 -1.49257 -0.728794 0
M  V30 3745 O 346.021 -1.77941 -0.688588 0
M  V30 3746 C 343.161 -3.35596 -0.804305 0
M  V30 3747 C 342.274 -4.31987 0.0335761 0
M  V30 3748 C 341.409 -5.24053 -0.868461 0
M  V30 3749 C 340.448 -6.12095 -0.0258776 0
M  V30 3750 N 339.585 -6.96514 -0.883893 0
M  V30 3751 H 344.425 -2.8471 0.880002 0
M  V30 3752 H 341.962 -1.40188 0.445619 0
M  V30 3753 H 343.92 -3.95062 -1.34096 0
M  V30 3754 H 342.55 -2.82938 -1.55389 0
M  V30 3755 H 341.602 -3.74133 0.68766 0
M  V30 3756 H 342.914 -4.94074 0.685036 0
M  V30 3757 H 342.068 -5.88549 -1.47293 0
M  V30 3758 H 340.807 -4.62289 -1.5537 0
M  V30 3759 H 339.812 -5.4661 0.591386 0
M  V30 3760 H 341.037 -6.75923 0.656156 0
M  V30 3761 H 338.983 -6.37318 -1.55441 0
M  V30 3762 H 338.9 -7.55448 -0.288931 0
M  V30 3763 H 340.168 -7.65439 -1.4739 0
M  V30 3764 N 344.397 -0.483516 -1.5 0
M  V30 3765 C 345.643 0.0593261 -2.03313 0
M  V30 3766 C 345.998 1.36288 -1.35806 0
M  V30 3767 O 345.291 1.85519 -0.478897 0
M  V30 3768 C 345.485 0.286226 -3.56252 0
M  V30 3769 C 345.314 -0.993788 -4.38582 0
M  V30 3770 C 344.084 -1.54064 -4.81241 0
M  V30 3771 C 346.282 -1.89249 -4.78215 0
M  V30 3772 N 344.264 -2.76838 -5.47936 0
M  V30 3773 C 345.635 -2.96606 -5.44449 0
M  V30 3774 C 347.69 -1.90138 -4.60165 0
M  V30 3775 C 346.393 -4.04857 -5.94544 0
M  V30 3776 C 348.419 -2.97353 -5.1121 0
M  V30 3777 C 347.781 -4.03429 -5.77429 0
M  V30 3778 H 343.88 -0.0186322 -0.781778 0
M  V30 3779 H 346.464 -0.654489 -1.8337 0
M  V30 3780 H 344.635 0.969086 -3.76116 0
M  V30 3781 H 346.367 0.824515 -3.96212 0
M  V30 3782 H 343.122 -1.08813 -4.6093 0
M  V30 3783 H 343.546 -3.39221 -5.85882 0
M  V30 3784 H 348.188 -1.09441 -4.0839 0
M  V30 3785 H 345.906 -4.86363 -6.4535 0
M  V30 3786 H 349.492 -2.99039 -4.99066 0
M  V30 3787 H 348.372 -4.85025 -6.16214 0
M  V30 3788 N 345.875 1.56104 -0.216619 0
M  V30 3789 C 347.121 1.98466 0.417033 0
M  V30 3790 C 347.454 1.10403 1.59765 0
M  V30 3791 O 346.729 0.160632 1.93836 0
M  V30 3792 C 347.012 3.49769 0.85637 0
M  V30 3793 C 346.865 4.48606 -0.327546 0
M  V30 3794 C 348.184 4.05339 1.7143 0
M  V30 3795 H 345.303 0.721551 0.150112 0
M  V30 3796 H 347.945 1.87423 -0.311864 0
M  V30 3797 H 346.095 3.5931 1.47745 0
M  V30 3798 H 347.767 4.5108 -0.965618 0
M  V30 3799 H 346.01 4.22682 -0.975805 0
M  V30 3800 H 346.681 5.51995 0.0227149 0
M  V30 3801 H 349.157 3.98712 1.19031 0
M  V30 3802 H 348.033 5.11533 1.99061 0
M  V30 3803 H 348.294 3.51918 2.67593 0
M  V30 3804 N 347.353 -0.0568162 1.57498 0
M  V30 3805 C 348.63 -0.786954 1.79071 0
M  V30 3806 C 349.01 -1.95028 0.80792 0
M  V30 3807 O 348.358 -2.27968 -0.155858 0
M  V30 3808 C 348.568 -1.24594 3.26002 0
M  V30 3809 C 349.916 -1.67323 3.90241 0
M  V30 3810 O 350.94 -1.34124 3.29984 0
M  V30 3811 O 349.799 -2.28842 4.9628 0
M  V30 3812 H 346.893 -0.378262 0.735423 0
M  V30 3813 H 349.439 -0.035734 1.69662 0
M  V30 3814 H 348.211 -0.41423 3.89101 0
M  V30 3815 H 347.834 -2.05803 3.40192 0
M  V30 3816 N 348.832 -1.54138 -0.328536 0
M  V30 3817 C 350.079 -1.72105 -1.06706 0
M  V30 3818 C 350.407 -0.492111 -1.88171 0
M  V30 3819 O 349.662 0.526153 -1.88494 0
M  V30 3820 C 349.961 -2.9457 -2.02393 0
M  V30 3821 C 349.627 -4.29544 -1.37122 0
M  V30 3822 C 348.289 -4.6624 -1.19052 0
M  V30 3823 C 350.641 -5.1333 -0.902331 0
M  V30 3824 C 347.969 -5.84325 -0.527331 0
M  V30 3825 C 350.321 -6.32094 -0.252988 0
M  V30 3826 C 348.985 -6.67473 -0.0600901 0
M  V30 3827 H 348.255 -0.629775 -0.390466 0
M  V30 3828 H 350.902 -1.88372 -0.34473 0
M  V30 3829 H 349.207 -2.72969 -2.81061 0
M  V30 3830 H 350.904 -3.05665 -2.59557 0
M  V30 3831 H 347.494 -4.0067 -1.52188 0
M  V30 3832 H 351.678 -4.855 -1.02974 0
M  V30 3833 H 346.934 -6.103 -0.366634 0
M  V30 3834 H 351.108 -6.96299 0.118366 0
M  V30 3835 H 348.735 -7.58832 0.455828 0
M  V30 3836 N 350.31 0.590341 -1.46126 0
M  V30 3837 C 351.273 1.68194 -1.55703 0
M  V30 3838 C 352.273 1.54808 -0.434868 0
M  V30 3839 O 353.463 1.59564 -0.698928 0
M  V30 3840 C 350.595 3.07575 -1.47005 0
M  V30 3841 H 351.788 1.61064 -2.52979 0
M  V30 3842 H 349.341 0.807541 -1.33823 0
M  V30 3843 H 350.076 3.20268 -0.509785 0
M  V30 3844 H 349.861 3.187 -2.28414 0
M  V30 3845 H 351.351 3.87055 -1.56776 0
M  V30 3846 N 351.788 1.33704 0.83433 0
M  V30 3847 C 353.204 1.13137 1.12571 0
M  V30 3848 C 353.404 -0.0747261 2.01361 0
M  V30 3849 O 352.46 -0.753647 2.4099 0
M  V30 3850 C 353.773 2.42105 1.78342 0
M  V30 3851 C 355.321 2.48054 1.90888 0
M  V30 3852 C 355.796 3.76995 2.60075 0
M  V30 3853 N 357.287 3.78092 2.67584 0
M  V30 3854 C 358.022 4.74574 3.21818 0
M  V30 3855 N 357.518 5.81434 3.76705 0
M  V30 3856 N 359.311 4.62044 3.20112 0
M  V30 3857 H 351.462 2.11 0.243489 0
M  V30 3858 H 353.725 0.932532 0.17055 0
M  V30 3859 H 353.431 3.30391 1.20561 0
M  V30 3860 H 353.305 2.54594 2.7832 0
M  V30 3861 H 355.692 1.60215 2.47821 0
M  V30 3862 H 355.773 2.39502 0.898459 0
M  V30 3863 H 355.417 4.65219 2.03799 0
M  V30 3864 H 355.347 3.82825 3.61597 0
M  V30 3865 H 357.838 3.00865 2.28667 0
M  V30 3866 H 358.151 6.51084 4.16305 0
M  V30 3867 H 356.496 5.85163 3.7498 0
M  V30 3868 H 359.687 3.77716 2.76493 0
M  V30 3869 H 359.86 5.37406 3.62076 0
M  V30 3870 N 353.266 -1.05314 1.17247 0
M  V30 3871 C 354.682 -1.30452 0.919473 0
M  V30 3872 C 354.882 -1.9703 -0.42209 0
M  V30 3873 O 353.938 -2.24311 -1.15935 0
M  V30 3874 C 355.251 -2.17551 2.07586 0
M  V30 3875 C 356.799 -2.30937 2.11275 0
M  V30 3876 C 357.274 -3.21396 3.26296 0
M  V30 3877 N 358.765 -3.28981 3.26076 0
M  V30 3878 C 359.5 -3.99095 4.11716 0
M  V30 3879 N 358.996 -4.71648 5.07465 0
M  V30 3880 N 360.789 -3.95247 3.9967 0
M  V30 3881 H 352.94 -0.604988 2.03602 0
M  V30 3882 H 355.203 -0.329368 0.888944 0
M  V30 3883 H 354.909 -1.75921 3.0454 0
M  V30 3884 H 354.783 -3.18182 2.02584 0
M  V30 3885 H 357.17 -2.71809 1.14907 0
M  V30 3886 H 357.251 -1.2994 2.20339 0
M  V30 3887 H 356.895 -2.81238 4.22927 0
M  V30 3888 H 356.825 -4.22395 3.14467 0
M  V30 3889 H 359.316 -2.77286 2.5675 0
M  V30 3890 H 359.629 -5.22705 5.6921 0
M  V30 3891 H 357.974 -4.70594 5.11435 0
M  V30 3892 H 361.165 -3.37691 3.24164 0
M  V30 3893 H 361.338 -4.4962 4.66632 0
M  V30 3894 N 354.744 -0.972509 -1.24016 0
M  V30 3895 C 355.674 -0.525548 -2.27509 0
M  V30 3896 C 356.655 0.437262 -1.64384 0
M  V30 3897 O 357.84 0.332343 -1.91335 0
M  V30 3898 C 354.97 0.180448 -3.46831 0
M  V30 3899 C 353.924 -0.698859 -4.22256 0
M  V30 3900 C 353.25 0.138903 -5.3452 0
M  V30 3901 C 354.55 -1.98582 -4.83076 0
M  V30 3902 H 356.244 -1.39058 -2.65148 0
M  V30 3903 H 353.79 -0.67009 -1.27459 0
M  V30 3904 H 355.743 0.504387 -4.18371 0
M  V30 3905 H 354.467 1.07987 -3.08231 0
M  V30 3906 H 353.126 -1.00614 -3.52523 0
M  V30 3907 H 352.774 1.03862 -4.9216 0
M  V30 3908 H 352.474 -0.446259 -5.85903 0
M  V30 3909 H 353.998 0.457404 -6.08884 0
M  V30 3910 H 355.412 -1.72715 -5.46665 0
M  V30 3911 H 353.809 -2.5181 -5.44713 0
M  V30 3912 H 354.879 -2.67769 -4.04262 0
M  V30 3913 N 356.222 1.38976 -0.743202 0
M  V30 3914 C 357.462 2.02193 -0.29954 0
M  V30 3915 C 357.826 1.5771 1.09506 0
M  V30 3916 O 359.027 2.13184 1.63726 0
M  V30 3917 C 357.298 3.55077 -0.406822 0
M  V30 3918 S 358.857 4.38778 -0.0442109 0
M  V30 3919 H 355.675 0.701335 -0.116836 0
M  V30 3920 H 358.277 1.69651 -0.971529 0
M  V30 3921 H 356.981 3.84942 -1.42295 0
M  V30 3922 H 356.512 3.92383 0.282707 0
M  V30 3923 H 358.527 4.82222 1.16947 0
M  V30 3924 N 357.7 0.491464 1.49741 0
M  V30 3925 C 358.61 -0.296835 2.32715 0
M  V30 3926 C 359.626 -0.976536 1.44013 0
M  V30 3927 O 360.802 -0.960023 1.77047 0
M  V30 3928 C 357.867 -1.35288 3.19215 0
M  V30 3929 C 356.928 -0.687632 4.23757 0
M  V30 3930 C 356.161 -1.69336 5.06123 0
M  V30 3931 O 356.384 -2.92219 4.89861 0
M  V30 3932 O 355.318 -1.25394 5.88693 0
M  V30 3933 H 359.144 0.382048 3.01287 0
M  V30 3934 H 356.729 0.252953 1.47243 0
M  V30 3935 H 358.611 -1.96411 3.72828 0
M  V30 3936 H 357.286 -2.01487 2.53347 0
M  V30 3937 H 356.193 -0.0369159 3.74082 0
M  V30 3938 H 357.526 -0.0682566 4.92153 0
M  V30 3939 N 359.178 -1.55987 0.224894 0
M  V30 3940 C 360.128 -2.17076 -0.697296 0
M  V30 3941 C 361.112 -1.12006 -1.15514 0
M  V30 3942 O 362.304 -1.37985 -1.10857 0
M  V30 3943 C 359.433 -2.85679 -1.90374 0
M  V30 3944 C 358.519 -3.97977 -1.46543 0
M  V30 3945 N 358.91 -5.00359 -0.739909 0
M  V30 3946 C 357.208 -4.10128 -1.75245 0
M  V30 3947 C 357.909 -5.79407 -0.515939 0
M  V30 3948 N 356.885 -5.32892 -1.07364 0
M  V30 3949 H 360.687 -2.93592 -0.134594 0
M  V30 3950 H 358.201 -1.62379 0.0262885 0
M  V30 3951 H 360.198 -3.27857 -2.57518 0
M  V30 3952 H 358.858 -2.1066 -2.47088 0
M  V30 3953 H 359.869 -5.16412 -0.392253 0
M  V30 3954 H 356.546 -3.46263 -2.33255 0
M  V30 3955 H 357.936 -6.71872 0.0617349 0
M  V30 3956 N 360.656 0.0484629 -1.57525 0
M  V30 3957 C 361.603 1.05504 -2.05275 0
M  V30 3958 C 362.573 1.37084 -0.937927 0
M  V30 3959 O 363.758 1.47754 -1.2072 0
M  V30 3960 C 360.898 2.35676 -2.52093 0
M  V30 3961 C 360.011 2.10423 -3.77288 0
M  V30 3962 C 359.146 3.34327 -4.12794 0
M  V30 3963 C 358.185 3.04542 -5.30962 0
M  V30 3964 N 357.322 4.20841 -5.61994 0
M  V30 3965 H 362.162 0.640885 -2.91027 0
M  V30 3966 H 359.699 0.304854 -1.43906 0
M  V30 3967 H 361.657 3.11709 -2.77297 0
M  V30 3968 H 360.287 2.7485 -1.69285 0
M  V30 3969 H 359.339 1.24976 -3.59284 0
M  V30 3970 H 360.651 1.84438 -4.63448 0
M  V30 3971 H 359.805 4.1874 -4.39024 0
M  V30 3972 H 358.544 3.63408 -3.25247 0
M  V30 3973 H 357.549 2.18528 -5.04505 0
M  V30 3974 H 358.774 2.76758 -6.20146 0
M  V30 3975 H 356.72 4.4991 -4.77406 0
M  V30 3976 H 356.637 3.98212 -6.42622 0
M  V30 3977 H 357.905 5.06184 -5.92789 0
M  V30 3978 N 362.134 1.5431 0.320358 0
M  V30 3979 C 363.364 1.7638 1.07582 0
M  V30 3980 C 363.772 0.513944 1.82086 0
M  V30 3981 O 363.115 -0.525123 1.76035 0
M  V30 3982 C 363.177 2.9055 2.1171 0
M  V30 3983 C 362.841 4.2934 1.56575 0
M  V30 3984 C 363.838 5.10077 1.00586 0
M  V30 3985 C 361.523 4.75893 1.60722 0
M  V30 3986 C 363.517 6.35477 0.494756 0
M  V30 3987 C 361.204 6.0126 1.09224 0
M  V30 3988 C 362.202 6.80886 0.53696 0
M  V30 3989 O 361.89 8.03894 0.0297371 0
M  V30 3990 H 361.622 0.592369 0.325692 0
M  V30 3991 H 364.176 2.02019 0.37116 0
M  V30 3992 H 362.406 2.60489 2.85801 0
M  V30 3993 H 364.095 3.00373 2.73003 0
M  V30 3994 H 364.861 4.75265 0.966869 0
M  V30 3995 H 360.74 4.13957 2.02882 0
M  V30 3996 H 364.284 6.97574 0.0606842 0
M  V30 3997 H 360.181 6.35562 1.12831 0
M  V30 3998 H 360.949 8.18372 0.14486 0
M  V30 3999 N 363.613 -0.582584 1.46437 0
M  V30 4000 C 364.861 -1.33814 1.51453 0
M  V30 4001 C 365.182 -1.94277 0.167792 0
M  V30 4002 O 364.452 -1.78566 -0.805677 0
M  V30 4003 H 363.032 -0.496838 0.557818 0
M  V30 4004 H 365.694 -0.682281 1.82568 0
M  V30 4005 H 364.79 -2.14479 2.26728 0
M  V30 4006 N 365.091 -1.34144 -0.827227 0
M  V30 4007 C 366.039 -1.25364 -1.95925 0
M  V30 4008 C 367.033 -0.152608 -1.68711 0
M  V30 4009 O 368.239 -0.317311 -1.77181 0
M  V30 4010 H 364.614 -0.389342 -0.643364 0
M  V30 4011 H 366.585 -2.21045 -2.00454 0
M  V30 4012 C 365.334 -1.02158 -3.32354 0
M  V30 4013 H 364.657 -1.86111 -3.5384 0
M  V30 4014 H 366.097 -1.00048 -4.12027 0
M  V30 4015 C 364.556 0.275244 -3.35774 0
M  V30 4016 O 365.086 1.27806 -3.80826 0
M  V30 4017 N 363.292 0.306853 -2.88975 0
M  V30 4018 H 362.839 -0.509777 -2.52506 0
M  V30 4019 H 362.797 1.17432 -2.91646 0
M  V30 4020 N 366.569 1.04691 -1.17803 0
M  V30 4021 C 367.532 2.10724 -0.901545 0
M  V30 4022 C 368.532 1.6042 0.110437 0
M  V30 4023 O 369.722 1.7377 -0.122303 0
M  V30 4024 C 366.854 3.39084 -0.351409 0
M  V30 4025 H 368.047 2.36686 -1.84174 0
M  V30 4026 H 365.6 1.21015 -0.98919 0
M  V30 4027 H 366.335 3.18782 0.59569 0
M  V30 4028 H 366.12 3.76909 -1.08083 0
M  V30 4029 H 367.61 4.17227 -0.176451 0
M  V30 4030 N 368.047 0.979072 1.23499 0
M  V30 4031 C 369.458 0.684391 1.73704 0
M  V30 4032 C 369.809 -0.799448 1.79174 0
M  V30 4033 O 368.934 -1.62531 1.42873 0
M  V30 4034 C 369.529 1.23564 3.15464 0
M  V30 4035 C 368.088 0.99063 3.6313 0
M  V30 4036 C 367.235 1.36416 2.41425 0
M  V30 4037 H 370.186 1.15307 1.09041 0
M  V30 4038 H 370.207 0.607417 3.7562 0
M  V30 4039 H 369.719 2.31561 3.1145 0
M  V30 4040 H 367.82 -0.0733136 3.72528 0
M  V30 4041 H 367.933 1.64427 4.5 0
M  V30 4042 H 366.297 0.782616 2.42378 0
M  V30 4043 H 367.08 2.45387 2.40083 0
M  V30 4044 N 369.525 -1.3858 0.750561 0
M  V30 4045 C 370.941 -1.53759 0.427824 0
M  V30 4046 C 371.141 -1.71401 -1.05943 0
M  V30 4047 O 370.197 -1.72331 -1.84549 0
M  V30 4048 C 371.51 -2.74642 1.22443 0
M  V30 4049 C 373.058 -2.88489 1.2142 0
M  V30 4050 C 373.533 -4.12329 1.9937 0
M  V30 4051 N 375.024 -4.194 1.96616 0
M  V30 4052 C 375.759 -5.14209 2.53727 0
M  V30 4053 N 375.255 -6.14709 3.19539 0
M  V30 4054 N 377.048 -5.06537 2.43673 0
M  V30 4055 H 369.199 -1.25377 1.71447 0
M  V30 4056 H 371.462 -0.608844 0.726645 0
M  V30 4057 H 371.168 -2.68 2.27747 0
M  V30 4058 H 371.042 -3.67745 0.839273 0
M  V30 4059 H 373.429 -2.94614 0.169232 0
M  V30 4060 H 373.51 -1.96406 1.63885 0
M  V30 4061 H 373.154 -4.06966 3.03877 0
M  V30 4062 H 373.084 -5.03486 1.54302 0
M  V30 4063 H 375.575 -3.47421 1.48684 0
M  V30 4064 H 375.888 -6.8354 3.60545 0
M  V30 4065 H 374.233 -6.1505 3.23633 0
M  V30 4066 H 377.424 -4.26962 1.91889 0
M  V30 4067 H 377.597 -5.80245 2.88479 0
M  V30 4068 N 371.003 -0.499398 -1.49478 0
M  V30 4069 C 372.249 0.0457576 -2.02748 0
M  V30 4070 C 372.582 1.36793 -1.37846 0
M  V30 4071 O 371.857 1.87596 -0.513601 0
M  V30 4072 C 372.14 0.199986 -3.59544 0
M  V30 4073 C 371.993 -1.1452 -4.34977 0
M  V30 4074 C 373.312 0.94137 -4.29914 0
M  V30 4075 H 370.431 0.0151552 -0.736844 0
M  V30 4076 H 373.073 -0.650498 -1.78518 0
M  V30 4077 H 371.223 0.793007 -3.8032 0
M  V30 4078 H 372.895 -1.77697 -4.25701 0
M  V30 4079 H 371.138 -1.73488 -3.97598 0
M  V30 4080 H 371.809 -0.990607 -5.43039 0
M  V30 4081 H 374.285 0.43844 -4.13784 0
M  V30 4082 H 373.161 1.01812 -5.39375 0
M  V30 4083 H 373.422 1.98471 -3.95046 0
M  V30 4084 N 372.481 1.55866 -0.233164 0
M  V30 4085 C 373.897 1.59133 0.121988 0
M  V30 4086 C 374.097 1.25016 1.58029 0
M  V30 4087 O 373.153 0.990922 2.32243 0
M  V30 4088 C 374.466 2.99932 -0.214792 0
M  V30 4089 C 376.014 3.12601 -0.157971 0
M  V30 4090 C 376.489 4.55597 -0.46859 0
M  V30 4091 N 377.98 4.61305 -0.418585 0
M  V30 4092 C 378.715 5.69903 -0.63227 0
M  V30 4093 N 378.211 6.86819 -0.90835 0
M  V30 4094 N 380.004 5.59264 -0.563913 0
M  V30 4095 H 372.155 1.76315 -1.18434 0
M  V30 4096 H 374.418 0.820093 -0.475553 0
M  V30 4097 H 374.124 3.29588 -1.22739 0
M  V30 4098 H 373.998 3.74327 0.464691 0
M  V30 4099 H 376.385 2.82735 0.845283 0
M  V30 4100 H 376.466 2.40511 -0.871102 0
M  V30 4101 H 376.11 4.86182 -1.46934 0
M  V30 4102 H 376.04 5.25928 0.265865 0
M  V30 4103 H 378.531 3.77297 -0.213368 0
M  V30 4104 H 378.844 7.65507 -1.05919 0
M  V30 4105 H 377.189 6.88536 -0.945673 0
M  V30 4106 H 380.38 4.66802 -0.348372 0
M  V30 4107 H 380.553 6.43831 -0.733847 0
M  V30 4108 N 373.959 -0.0401083 1.57549 0
M  V30 4109 C 375.208 -0.732108 1.87944 0
M  V30 4110 C 375.521 -1.77107 0.830206 0
M  V30 4111 O 376.727 -2.51488 1.02302 0
M  V30 4112 C 375.183 -1.35315 3.33494 0
M  V30 4113 C 374.791 -0.351105 4.46622 0
M  V30 4114 C 376.535 -2.02566 3.73051 0
M  V30 4115 C 374.442 -0.979859 5.83226 0
M  V30 4116 H 373.372 -0.277188 0.701201 0
M  V30 4117 H 376.023 0.0138501 1.83495 0
M  V30 4118 H 374.405 -2.14844 3.32653 0
M  V30 4119 H 375.579 0.416674 4.58912 0
M  V30 4120 H 373.894 0.218708 4.15825 0
M  V30 4121 H 376.491 -2.50441 4.72423 0
M  V30 4122 H 376.834 -2.83904 3.04474 0
M  V30 4123 H 377.367 -1.29827 3.76018 0
M  V30 4124 H 374.106 -0.206135 6.55176 0
M  V30 4125 H 373.626 -1.71774 5.74677 0
M  V30 4126 H 375.305 -1.49046 6.29599 0
M  V30 4127 N 375.437 -1.54477 -0.31217 0
M  V30 4128 C 376.385 -1.85395 -1.40469 0
M  V30 4129 C 377.379 -0.726749 -1.53019 0
M  V30 4130 O 378.585 -0.910582 -1.55269 0
M  V30 4131 H 374.96 -0.587845 -0.46898 0
M  V30 4132 H 376.931 -2.76736 -1.11623 0
M  V30 4133 C 375.68 -2.10811 -2.76503 0
M  V30 4134 H 375.003 -2.97014 -2.67625 0
M  V30 4135 H 376.443 -2.3639 -3.51988 0
M  V30 4136 C 374.902 -0.903165 -3.24568 0
M  V30 4137 O 375.432 -0.118085 -4.01526 0
M  V30 4138 N 373.638 -0.711634 -2.81752 0
M  V30 4139 H 373.185 -1.35171 -2.19286 0
M  V30 4140 H 373.143 0.0930473 -3.14262 0
M  V30 4141 N 376.915 0.57481 -1.46744 0
M  V30 4142 C 378.163 1.33009 -1.52161 0
M  V30 4143 C 378.484 1.94185 -0.178092 0
M  V30 4144 O 377.754 1.7899 0.796196 0
M  V30 4145 H 376.334 0.493873 -0.560445 0
M  V30 4146 H 378.996 0.672589 -1.82927 0
M  V30 4147 H 378.092 2.13273 -2.27862 0
M  V30 4148 N 378.394 1.34581 0.820102 0
M  V30 4149 C 379.344 1.22943 1.92013 0
M  V30 4150 C 380.328 0.127802 1.60392 0
M  V30 4151 O 381.52 0.357737 1.73347 0
M  V30 4152 C 378.649 0.989938 3.28717 0
M  V30 4153 C 377.735 2.13486 3.66449 0
M  V30 4154 N 378.126 3.38625 3.75722 0
M  V30 4155 C 376.424 2.04573 3.96315 0
M  V30 4156 C 377.125 4.13832 4.08801 0
M  V30 4157 N 376.101 3.42451 4.22171 0
M  V30 4158 H 379.903 2.17771 1.97365 0
M  V30 4159 H 377.417 1.2686 1.01392 0
M  V30 4160 H 379.414 0.887462 4.07345 0
M  V30 4161 H 378.074 0.0503691 3.24661 0
M  V30 4162 H 379.085 3.73143 3.59144 0
M  V30 4163 H 375.762 1.1839 4.00362 0
M  V30 4164 H 377.152 5.21909 4.23156 0
M  V30 4165 N 379.872 -1.04064 1.18357 0
M  V30 4166 C 381.118 -1.77528 0.980397 0
M  V30 4167 C 381.451 -1.87948 -0.48879 0
M  V30 4168 O 380.726 -1.3876 -1.36293 0
M  V30 4169 C 381.009 -3.20797 1.63588 0
M  V30 4170 C 380.862 -3.1832 3.17793 0
M  V30 4171 C 382.181 -4.18911 1.34914 0
M  V30 4172 H 379.3 -0.644443 0.357578 0
M  V30 4173 H 381.942 -1.2156 1.46024 0
M  V30 4174 H 380.092 -3.68586 1.22788 0
M  V30 4175 H 381.764 -2.78521 3.67728 0
M  V30 4176 H 380.007 -2.56351 3.49952 0
M  V30 4177 H 380.678 -4.19489 3.58794 0
M  V30 4178 H 383.154 -3.7967 1.70265 0
M  V30 4179 H 382.03 -5.17374 1.83346 0
M  V30 4180 H 382.291 -4.41262 0.272027 0
M  V30 4181 N 381.35 -0.985608 -1.22978 0
M  V30 4182 C 382.313 -0.535071 -2.22867 0
M  V30 4183 C 383.313 0.378123 -1.56291 0
M  V30 4184 O 384.503 0.171092 -1.73358 0
M  V30 4185 C 381.635 0.222702 -3.40172 0
M  V30 4186 H 382.828 -1.41835 -2.6424 0
M  V30 4187 H 380.381 -0.772042 -1.35901 0
M  V30 4188 H 381.116 1.12229 -3.04262 0
M  V30 4189 H 380.901 -0.43288 -3.89703 0
M  V30 4190 H 382.391 0.526335 -4.1427 0
M  V30 4191 N 382.828 1.3818 -0.7579 0
M  V30 4192 C 383.791 2.28764 -0.141286 0
M  V30 4193 C 384.791 1.47388 0.642907 0
M  V30 4194 O 385.981 1.67781 0.468536 0
M  V30 4195 C 383.113 3.31184 0.808069 0
M  V30 4196 H 384.306 2.848 -0.939633 0
M  V30 4197 H 381.859 1.47212 -0.525191 0
M  V30 4198 H 382.594 2.80247 1.63193 0
M  V30 4199 H 382.379 3.91314 0.248104 0
M  V30 4200 H 383.869 3.98909 1.23536 0
M  V30 4201 N 384.306 0.507319 1.49211 0
M  V30 4202 C 385.722 0.163682 1.58758 0
M  V30 4203 C 385.922 -1.33208 1.51188 0
M  V30 4204 O 384.978 -2.10855 1.38911 0
M  V30 4205 C 386.291 0.746095 2.91297 0
M  V30 4206 C 387.839 0.712773 3.04776 0
M  V30 4207 C 388.314 1.27336 4.39943 0
M  V30 4208 N 389.805 1.23433 4.46451 0
M  V30 4209 C 390.54 1.63821 5.495 0
M  V30 4210 N 390.036 2.11832 6.5962 0
M  V30 4211 N 391.829 1.55198 5.4025 0
M  V30 4212 H 383.98 1.47972 1.52375 0
M  V30 4213 H 386.243 0.614147 0.722168 0
M  V30 4214 H 385.949 1.79534 3.02424 0
M  V30 4215 H 385.823 0.210137 3.76614 0
M  V30 4216 H 388.21 -0.327656 2.93275 0
M  V30 4217 H 388.291 1.28595 2.21127 0
M  V30 4218 H 387.935 2.3126 4.52196 0
M  V30 4219 H 387.865 0.676066 5.22242 0
M  V30 4220 H 390.356 0.882627 3.67448 0
M  V30 4221 H 390.669 2.40703 7.34358 0
M  V30 4222 H 389.014 2.1581 6.60644 0
M  V30 4223 H 392.205 1.17505 4.53112 0
M  V30 4224 H 392.378 1.86997 6.20432 0
M  V30 4225 N 385.784 -1.5574 0.241426 0
M  V30 4226 C 387.031 -1.9881 -0.384836 0
M  V30 4227 C 387.359 -1.12947 -1.58346 0
M  V30 4228 O 386.614 -0.178993 -1.9488 0
M  V30 4229 C 386.913 -3.47308 -0.843317 0
M  V30 4230 C 386.579 -4.50223 0.246946 0
M  V30 4231 C 385.241 -4.78088 0.546399 0
M  V30 4232 C 387.593 -5.11841 0.983282 0
M  V30 4233 C 384.921 -5.64846 1.58636 0
M  V30 4234 C 387.273 -5.99727 2.01272 0
M  V30 4235 C 385.937 -6.25927 2.31888 0
M  V30 4236 H 385.207 -0.727496 -0.140821 0
M  V30 4237 H 387.854 -1.8831 0.348106 0
M  V30 4238 H 386.159 -3.55112 -1.65537 0
M  V30 4239 H 387.856 -3.78017 -1.33806 0
M  V30 4240 H 384.446 -4.286 0.00340639 0
M  V30 4241 H 388.63 -4.90366 0.765182 0
M  V30 4242 H 383.886 -5.83403 1.82896 0
M  V30 4243 H 388.06 -6.46517 2.58823 0
M  V30 4244 H 385.687 -6.92949 3.12611 0
M  V30 4245 N 387.262 0.0317525 -1.57568 0
M  V30 4246 C 388.673 0.578692 -1.77505 0
M  V30 4247 C 389.024 1.75749 -0.872164 0
M  V30 4248 O 388.149 2.16298 -0.0663106 0
M  V30 4249 C 388.744 1.05658 -3.21904 0
M  V30 4250 C 387.303 1.54906 -3.43047 0
M  V30 4251 C 386.45 0.485939 -2.73009 0
M  V30 4252 H 389.401 -0.194475 -1.57504 0
M  V30 4253 H 389.422 1.92404 -3.28269 0
M  V30 4254 H 388.934 0.198422 -3.87592 0
M  V30 4255 H 387.035 2.42915 -2.82529 0
M  V30 4256 H 387.148 1.59841 -4.5165 0
M  V30 4257 H 385.512 0.940354 -2.36705 0
M  V30 4258 H 386.295 -0.362709 -3.41379 0
M  V30 4259 N 388.74 1.54641 0.303973 0
M  V30 4260 C 389.987 1.7378 1.03955 0
M  V30 4261 C 390.315 0.521986 1.87365 0
M  V30 4262 O 389.57 -0.496099 1.89308 0
M  V30 4263 C 389.869 2.97753 1.97681 0
M  V30 4264 C 389.535 4.31671 1.30271 0
M  V30 4265 C 388.197 4.68075 1.11619 0
M  V30 4266 C 390.549 5.147 0.82055 0
M  V30 4267 C 387.877 5.8509 0.434304 0
M  V30 4268 C 390.229 6.32416 0.152395 0
M  V30 4269 C 388.893 6.67484 -0.0461067 0
M  V30 4270 H 388.163 0.635908 0.380398 0
M  V30 4271 H 390.81 1.88896 0.314718 0
M  V30 4272 H 389.115 2.77406 2.76682 0
M  V30 4273 H 390.812 3.09756 2.54661 0
M  V30 4274 H 387.402 4.03041 1.45795 0
M  V30 4275 H 391.586 4.87077 0.952374 0
M  V30 4276 H 386.842 6.10806 0.269495 0
M  V30 4277 H 391.016 6.96023 -0.229126 0
M  V30 4278 H 388.643 7.58011 -0.576494 0
M  V30 4279 N 390.218 -0.567019 1.47046 0
M  V30 4280 C 391.467 -1.32091 1.5243 0
M  V30 4281 C 391.78 -1.94704 0.187021 0
M  V30 4282 O 392.986 -2.7124 0.118771 0
M  V30 4283 C 391.442 -2.39479 2.68659 0
M  V30 4284 C 391.05 -1.831 4.08874 0
M  V30 4285 C 392.794 -3.16111 2.83327 0
M  V30 4286 C 390.701 -2.8821 5.16419 0
M  V30 4287 H 389.631 -0.496629 0.56734 0
M  V30 4288 H 392.282 -0.603354 1.73297 0
M  V30 4289 H 390.664 -3.14105 2.41152 0
M  V30 4290 H 391.838 -1.14913 4.46242 0
M  V30 4291 H 390.153 -1.19085 3.99008 0
M  V30 4292 H 392.75 -3.94585 3.60842 0
M  V30 4293 H 393.093 -3.69686 1.91411 0
M  V30 4294 H 393.626 -2.48595 3.10556 0
M  V30 4295 H 390.365 -2.39504 6.10179 0
M  V30 4296 H 389.885 -3.54839 4.8358 0
M  V30 4297 H 391.564 -3.51881 5.42945 0
M  V30 4298 N 391.696 -1.35014 -0.812953 0
M  V30 4299 C 393.107 -1.25035 -1.38648 0
M  V30 4300 C 393.458 0.119967 -1.95833 0
M  V30 4301 O 392.583 1.02069 -1.90816 0
M  V30 4302 C 393.178 -2.26394 -2.52054 0
M  V30 4303 C 391.737 -2.20175 -3.05287 0
M  V30 4304 C 390.884 -2.12451 -1.78213 0
M  V30 4305 H 393.835 -1.46235 -0.616516 0
M  V30 4306 H 393.856 -1.88672 -3.30429 0
M  V30 4307 H 393.368 -3.26116 -2.10404 0
M  V30 4308 H 391.469 -1.23841 -3.51417 0
M  V30 4309 H 391.582 -3.11863 -3.63701 0
M  V30 4310 H 389.946 -1.58328 -1.9951 0
M  V30 4311 H 390.729 -3.14024 -1.38723 0
M  V30 4312 N 393.175 1.03435 -1.18907 0
M  V30 4313 C 394.108 2.11162 -0.86521 0
M  V30 4314 C 395.086 1.6165 0.175473 0
M  V30 4315 O 396.27 1.88425 0.0530129 0
M  V30 4316 C 393.397 3.37423 -0.293868 0
M  V30 4317 C 392.443 4.05795 -1.31274 0
M  V30 4318 S 393.276 4.52027 -2.8711 0
M  V30 4319 C 394.432 5.81513 -2.31504 0
M  V30 4320 H 394.665 2.38308 -1.77754 0
M  V30 4321 H 392.198 1.16295 -1.01562 0
M  V30 4322 H 394.156 4.1049 0.0292572 0
M  V30 4323 H 392.817 3.0838 0.596682 0
M  V30 4324 H 392.01 4.96574 -0.86198 0
M  V30 4325 H 391.612 3.38874 -1.58242 0
M  V30 4326 H 393.904 6.55784 -1.70157 0
M  V30 4327 H 394.847 6.3136 -3.20608 0
M  V30 4328 H 395.255 5.36921 -1.74286 0
M  V30 4329 N 394.653 0.992116 1.22453 0
M  V30 4330 C 396.064 0.702776 1.72968 0
M  V30 4331 C 396.415 -0.780399 1.80012 0
M  V30 4332 O 395.54 -1.61007 1.44589 0
M  V30 4333 C 396.135 1.26903 3.14135 0
M  V30 4334 C 394.694 1.02909 3.62059 0
M  V30 4335 C 393.841 1.38969 2.39964 0
M  V30 4336 H 396.792 1.16457 1.07812 0
M  V30 4337 H 396.813 0.647223 3.74955 0
M  V30 4338 H 396.325 2.34851 3.08977 0
M  V30 4339 H 394.426 -0.0337979 3.72585 0
M  V30 4340 H 394.539 1.69191 4.48231 0
M  V30 4341 H 392.903 0.808279 2.41535 0
M  V30 4342 H 393.686 2.4792 2.37467 0
M  V30 4343 N 396.131 -1.37776 0.765217 0
M  V30 4344 C 397.061 -2.32945 0.160953 0
M  V30 4345 C 398.042 -1.55454 -0.690516 0
M  V30 4346 O 399.227 -1.83721 -0.629318 0
M  V30 4347 C 396.357 -3.39669 -0.724031 0
M  V30 4348 C 395.311 -4.27992 0.0256173 0
M  V30 4349 C 394.637 -5.25673 -0.978383 0
M  V30 4350 C 395.937 -5.08309 1.20082 0
M  V30 4351 H 397.631 -2.83728 0.955969 0
M  V30 4352 H 395.177 -1.36416 0.461149 0
M  V30 4353 H 397.13 -4.05219 -1.15652 0
M  V30 4354 H 395.854 -2.87396 -1.5515 0
M  V30 4355 H 394.513 -3.63964 0.438812 0
M  V30 4356 H 394.161 -4.69682 -1.80022 0
M  V30 4357 H 393.861 -5.85625 -0.481378 0
M  V30 4358 H 395.385 -5.94098 -1.40995 0
M  V30 4359 H 396.799 -5.67034 0.845307 0
M  V30 4360 H 395.196 -5.77554 1.62947 0
M  V30 4361 H 396.266 -4.41365 2.00811 0
M  V30 4362 N 397.609 -0.515225 -1.4894 0
M  V30 4363 C 398.886 0.0879088 -1.95402 0
M  V30 4364 C 399.266 1.52745 -1.45712 0
M  V30 4365 O 398.614 2.18238 -0.677093 0
M  V30 4366 C 398.824 -0.0141055 -3.48997 0
M  V30 4367 C 400.172 0.152646 -4.24326 0
M  V30 4368 O 401.196 0.0604025 -3.56149 0
M  V30 4369 O 400.055 0.34384 -5.45417 0
M  V30 4370 H 397.149 0.0874636 -0.822362 0
M  V30 4371 H 399.695 -0.578775 -1.59525 0
M  V30 4372 H 398.467 -1.01745 -3.77841 0
M  V30 4373 H 398.09 0.692091 -3.9153 0
M  V30 4374 N 399.087 1.5561 -0.249682 0
M  V30 4375 C 400.317 2.03116 0.377803 0
M  V30 4376 C 400.725 1.12822 1.51881 0
M  V30 4377 O 400.068 0.13562 1.83199 0
M  V30 4378 C 400.13 3.46866 0.944693 0
M  V30 4379 C 399.794 4.56955 -0.0644259 0
M  V30 4380 C 400.791 5.12485 -0.874957 0
M  V30 4381 C 398.476 5.01936 -0.19132 0
M  V30 4382 C 400.47 6.11491 -1.79881 0
M  V30 4383 C 398.157 6.00773 -1.11868 0
M  V30 4384 C 399.155 6.5543 -1.92095 0
M  V30 4385 O 398.843 7.5234 -2.83267 0
M  V30 4386 H 398.575 0.669489 0.0935961 0
M  V30 4387 H 401.129 2.02004 -0.371966 0
M  V30 4388 H 399.359 3.45136 1.74407 0
M  V30 4389 H 401.048 3.77856 1.48255 0
M  V30 4390 H 401.814 4.78564 -0.787523 0
M  V30 4391 H 397.693 4.59055 0.423072 0
M  V30 4392 H 401.237 6.54078 -2.42543 0
M  V30 4393 H 397.134 6.34114 -1.20703 0
M  V30 4394 H 397.902 7.69966 -2.7766 0
M  V30 4395 N 400.565 -0.0233959 1.57583 0
M  V30 4396 C 401.814 -0.712133 1.8871 0
M  V30 4397 C 402.127 -1.76217 0.848944 0
M  V30 4398 O 403.333 -2.50389 1.04964 0
M  V30 4399 C 401.789 -1.3177 3.3491 0
M  V30 4400 C 401.397 -0.303715 4.46969 0
M  V30 4401 C 403.141 -1.98598 3.75179 0
M  V30 4402 C 401.048 -0.917945 5.84233 0
M  V30 4403 H 399.978 -0.269735 0.704101 0
M  V30 4404 H 402.629 0.0333114 1.8347 0
M  V30 4405 H 401.011 -2.11304 3.34913 0
M  V30 4406 H 402.185 0.465325 4.58445 0
M  V30 4407 H 400.5 0.2628 4.1557 0
M  V30 4408 H 403.097 -2.45416 4.75053 0
M  V30 4409 H 403.44 -2.80659 3.07468 0
M  V30 4410 H 403.973 -1.25831 3.77374 0
M  V30 4411 H 400.712 -0.136633 6.55358 0
M  V30 4412 H 400.232 -1.65669 5.76467 0
M  V30 4413 H 401.911 -1.4236 6.31144 0
M  V30 4414 N 402.043 -1.548 -0.295768 0
M  V30 4415 C 402.973 -1.89115 -1.36959 0
M  V30 4416 C 403.954 -0.75059 -1.52644 0
M  V30 4417 O 405.139 -1.00678 -1.66065 0
M  V30 4418 C 402.269 -2.14307 -2.73295 0
M  V30 4419 C 401.223 -3.30151 -2.72368 0
M  V30 4420 C 400.549 -3.40772 -4.12042 0
M  V30 4421 C 401.849 -4.67126 -2.33646 0
M  V30 4422 H 403.543 -2.79053 -1.08488 0
M  V30 4423 H 401.089 -1.34266 -0.520443 0
M  V30 4424 H 403.042 -2.36898 -3.48507 0
M  V30 4425 H 401.766 -1.21145 -3.03301 0
M  V30 4426 H 400.425 -3.0749 -1.99613 0
M  V30 4427 H 400.073 -2.45117 -4.39234 0
M  V30 4428 H 399.773 -4.18645 -4.12322 0
M  V30 4429 H 401.297 -3.6563 -4.89027 0
M  V30 4430 H 402.711 -4.89414 -2.98575 0
M  V30 4431 H 401.108 -5.47751 -2.45129 0
M  V30 4432 H 402.178 -4.67489 -1.28772 0
M  V30 4433 N 403.521 0.559213 -1.47345 0
M  V30 4434 C 404.932 1.14134 -1.47751 0
M  V30 4435 C 405.283 1.94834 -0.231103 0
M  V30 4436 O 404.408 2.05957 0.664137 0
M  V30 4437 C 405.003 2.07653 -2.67705 0
M  V30 4438 C 403.562 2.61141 -2.71076 0
M  V30 4439 C 402.709 1.3748 -2.40821 0
M  V30 4440 H 405.66 0.345917 -1.54884 0
M  V30 4441 H 405.681 2.91497 -2.44561 0
M  V30 4442 H 405.193 1.4889 -3.58404 0
M  V30 4443 H 403.294 3.23707 -1.84511 0
M  V30 4444 H 403.407 3.02272 -3.7171 0
M  V30 4445 H 401.771 1.68086 -1.91362 0
M  V30 4446 H 402.554 0.805135 -3.33725 0
M  V30 4447 N 404.999 1.35443 0.805782 0
M  V30 4448 C 405.909 1.30546 1.94923 0
M  V30 4449 C 406.925 0.210233 1.72725 0
M  V30 4450 O 408.101 0.43975 1.9654 0
M  V30 4451 C 405.166 1.07782 3.29521 0
M  V30 4452 C 404.227 2.26625 3.64609 0
M  V30 4453 C 403.46 2.04938 4.92784 0
M  V30 4454 O 403.683 1.01624 5.61274 0
M  V30 4455 O 402.617 2.9232 5.26149 0
M  V30 4456 H 406.443 2.26779 2.02002 0
M  V30 4457 H 404.028 1.15823 0.943682 0
M  V30 4458 H 405.91 0.969392 4.10098 0
M  V30 4459 H 404.585 0.146003 3.23371 0
M  V30 4460 H 403.492 2.43033 2.84404 0
M  V30 4461 H 404.825 3.18257 3.75464 0
M  V30 4462 N 406.477 -1.02803 1.19454 0
M  V30 4463 C 407.407 -2.12999 0.956758 0
M  V30 4464 C 408.388 -1.69743 -0.110188 0
M  V30 4465 O 409.573 -1.94148 0.0450038 0
M  V30 4466 C 406.703 -3.43746 0.495553 0
M  V30 4467 C 405.657 -4.00688 1.50443 0
M  V30 4468 C 404.983 -5.27067 0.900275 0
M  V30 4469 C 406.283 -4.35397 2.8849 0
M  V30 4470 H 407.977 -2.33148 1.87836 0
M  V30 4471 H 405.523 -1.12045 0.904539 0
M  V30 4472 H 407.476 -4.2021 0.316493 0
M  V30 4473 H 406.2 -3.23321 -0.461646 0
M  V30 4474 H 404.859 -3.2632 1.67065 0
M  V30 4475 H 404.507 -5.02959 -0.064503 0
M  V30 4476 H 404.207 -5.66127 1.57397 0
M  V30 4477 H 405.731 -6.06196 0.73203 0
M  V30 4478 H 407.145 -5.02795 2.75446 0
M  V30 4479 H 405.542 -4.85541 3.52661 0
M  V30 4480 H 406.612 -3.44662 3.41081 0
M  V30 4481 N 407.956 -0.998596 -1.21925 0
M  V30 4482 C 408.886 -0.573688 -2.26343 0
M  V30 4483 C 409.867 0.402296 -1.65274 0
M  V30 4484 O 411.052 0.291683 -1.91997 0
M  V30 4485 C 408.182 0.106839 -3.47136 0
M  V30 4486 C 407.136 -0.788269 -4.20678 0
M  V30 4487 C 406.462 0.0254927 -5.34694 0
M  V30 4488 C 407.762 -2.08784 -4.78755 0
M  V30 4489 H 409.456 -1.44651 -2.62138 0
M  V30 4490 H 407.002 -0.696975 -1.26009 0
M  V30 4491 H 408.955 0.415531 -4.19346 0
M  V30 4492 H 407.679 1.01424 -3.10452 0
M  V30 4493 H 406.338 -1.08069 -3.50309 0
M  V30 4494 H 405.986 0.933989 -4.94253 0
M  V30 4495 H 405.686 -0.570437 -5.84825 0
M  V30 4496 H 407.21 0.328147 -6.09718 0
M  V30 4497 H 408.624 -1.84272 -5.42878 0
M  V30 4498 H 407.021 -2.63307 -5.39249 0
M  V30 4499 H 408.091 -2.76284 -3.98491 0
M  V30 4500 N 409.434 1.37368 -0.772513 0
M  V30 4501 C 410.381 2.30262 -0.157488 0
M  V30 4502 C 411.351 1.51137 0.688965 0
M  V30 4503 O 412.536 1.79704 0.641168 0
M  V30 4504 C 409.676 3.37611 0.715045 0
M  V30 4505 C 408.789 4.31746 -0.148098 0
M  V30 4506 C 407.924 5.26171 0.729213 0
M  V30 4507 C 406.963 6.11948 -0.136418 0
M  V30 4508 N 406.1 6.98613 0.698914 0
M  V30 4509 H 410.94 2.82277 -0.955179 0
M  V30 4510 H 408.477 1.38957 -0.482631 0
M  V30 4511 H 410.435 3.98479 1.23575 0
M  V30 4512 H 409.065 2.86959 1.47833 0
M  V30 4513 H 408.117 3.72178 -0.786613 0
M  V30 4514 H 409.429 4.92084 -0.81579 0
M  V30 4515 H 408.583 5.92247 1.31637 0
M  V30 4516 H 407.322 4.66246 1.43059 0
M  V30 4517 H 406.327 5.4485 -0.736102 0
M  V30 4518 H 407.552 6.73945 -0.835134 0
M  V30 4519 H 405.498 6.41215 1.38489 0
M  V30 4520 H 405.415 7.55948 0.0885358 0
M  V30 4521 H 406.683 7.69077 1.27044 0
M  V30 4522 N 410.912 0.523116 1.48665 0
M  V30 4523 C 411.86 -0.256859 2.31177 0
M  V30 4524 C 412.854 -0.94199 1.40794 0
M  V30 4525 O 414.06 -0.867157 1.57735 0
M  V30 4526 H 410.435 -0.1017 0.745091 0
M  V30 4527 H 412.406 0.458739 2.94853 0
M  V30 4528 C 411.155 -1.29503 3.22683 0
M  V30 4529 H 410.478 -0.777248 3.92172 0
M  V30 4530 H 411.918 -1.81233 3.83315 0
M  V30 4531 C 410.377 -2.32501 2.43813 0
M  V30 4532 O 410.907 -3.3881 2.15803 0
M  V30 4533 N 409.113 -2.05538 2.05432 0
M  V30 4534 H 408.66 -1.19104 2.28412 0
M  V30 4535 H 408.618 -2.74676 1.52973 0
M  V30 4536 N 412.39 -1.55475 0.257931 0
M  V30 4537 C 413.353 -2.20551 -0.623706 0
M  V30 4538 C 414.353 -1.17809 -1.09443 0
M  V30 4539 O 415.543 -1.42823 -0.997362 0
M  V30 4540 C 412.675 -2.85784 -1.8585 0
M  V30 4541 H 413.868 -2.99848 -0.0557743 0
M  V30 4542 H 411.421 -1.56298 0.0084422 0
M  V30 4543 H 412.156 -2.10453 -2.46739 0
M  V30 4544 H 411.941 -3.61057 -1.52907 0
M  V30 4545 H 413.431 -3.35553 -2.48584 0
M  V30 4546 N 413.868 0.0150385 -1.57593 0
M  V30 4547 C 414.801 1.04475 -2.0288 0
M  V30 4548 C 415.779 1.3436 -0.915764 0
M  V30 4549 O 416.963 1.46779 -1.18271 0
M  V30 4550 C 414.09 2.37608 -2.41371 0
M  V30 4551 C 413.136 2.23487 -3.63257 0
M  V30 4552 S 413.969 1.57505 -5.11813 0
M  V30 4553 C 415.125 2.921 -5.5356 0
M  V30 4554 H 415.358 0.65907 -2.89903 0
M  V30 4555 H 412.891 0.225452 -1.52745 0
M  V30 4556 H 414.849 3.14165 -2.64217 0
M  V30 4557 H 413.51 2.7332 -1.54775 0
M  V30 4558 H 412.703 3.21802 -3.87891 0
M  V30 4559 H 412.305 1.55074 -3.40335 0
M  V30 4560 H 414.597 3.88419 -5.55101 0
M  V30 4561 H 415.54 2.72184 -6.53698 0
M  V30 4562 H 415.948 2.95318 -4.8109 0
M  V30 4563 N 415.346 1.54954 0.287554 0
M  V30 4564 C 416.762 1.46469 0.633964 0
M  V30 4565 C 416.962 0.666865 1.90145 0
M  V30 4566 O 416.018 0.179906 2.51858 0
M  V30 4567 C 417.331 2.90556 0.774454 0
M  V30 4568 C 418.879 3.00681 0.869462 0
M  V30 4569 C 419.354 4.45993 1.04184 0
M  V30 4570 N 420.845 4.4976 1.10772 0
M  V30 4571 C 421.58 5.59393 1.25964 0
M  V30 4572 N 421.076 6.78923 1.37968 0
M  V30 4573 N 422.869 5.47107 1.28959 0
M  V30 4574 H 415.02 2.05288 -0.545041 0
M  V30 4575 H 417.283 0.930305 -0.182308 0
M  V30 4576 H 416.989 3.51594 -0.086207 0
M  V30 4577 H 416.863 3.38743 1.6593 0
M  V30 4578 H 419.25 2.39749 1.7206 0
M  V30 4579 H 419.331 2.55769 -0.0396831 0
M  V30 4580 H 418.975 5.07524 0.195422 0
M  V30 4581 H 418.905 4.88548 1.96542 0
M  V30 4582 H 421.396 3.63651 1.02794 0
M  V30 4583 H 421.709 7.58231 1.49353 0
M  V30 4584 H 420.054 6.81763 1.34999 0
M  V30 4585 H 423.245 4.52668 1.19202 0
M  V30 4586 H 423.418 6.32595 1.40455 0
M  V30 4587 N 416.824 -0.551391 1.4764 0
M  V30 4588 C 417.787 -1.64007 1.60107 0
M  V30 4589 C 418.787 -1.53601 0.47576 0
M  V30 4590 O 419.977 -1.57655 0.740988 0
M  V30 4591 C 417.109 -3.03569 1.55108 0
M  V30 4592 H 418.302 -1.543 2.57161 0
M  V30 4593 H 415.855 -0.771776 1.35917 0
M  V30 4594 H 416.59 -3.18804 0.594519 0
M  V30 4595 H 416.375 -3.12532 2.36783 0
M  V30 4596 H 417.865 -3.82762 1.66982 0
M  V30 4597 N 418.302 -1.35869 -0.798587 0
M  V30 4598 C 419.53 -1.32722 -1.58722 0
M  V30 4599 C 419.945 0.0935631 -1.88568 0
M  V30 4600 O 419.302 1.04784 -1.49421 0
M  V30 4601 C 419.353 -2.13974 -2.91371 0
M  V30 4602 O 419.074 -3.50514 -2.62815 0
M  V30 4603 C 420.575 -2.18504 -3.85708 0
M  V30 4604 H 417.795 -0.45562 -0.492596 0
M  V30 4605 H 420.339 -1.78837 -0.991843 0
M  V30 4606 H 418.494 -1.71438 -3.47402 0
M  V30 4607 H 418.908 -3.92806 -3.47568 0
M  V30 4608 H 420.382 -2.79732 -4.75872 0
M  V30 4609 H 420.859 -1.18597 -4.22885 0
M  V30 4610 H 421.465 -2.61236 -3.35612 0
M  V30 4611 N 419.78 1.02168 -1.19998 0
M  V30 4612 C 420.713 2.10232 -0.887558 0
M  V30 4613 C 421.691 1.61827 0.158317 0
M  V30 4614 O 422.875 1.88471 0.0330249 0
M  V30 4615 C 420.002 3.37092 -0.32964 0
M  V30 4616 C 419.048 4.0438 -1.3557 0
M  V30 4617 S 419.881 4.48956 -2.91888 0
M  V30 4618 C 421.037 5.79024 -2.37658 0
M  V30 4619 H 421.27 2.36409 -1.80272 0
M  V30 4620 H 418.803 1.15211 -1.0279 0
M  V30 4621 H 420.761 4.10498 -0.0142824 0
M  V30 4622 H 419.422 3.08996 0.563941 0
M  V30 4623 H 418.615 4.95632 -0.9146 0
M  V30 4624 H 418.217 3.37176 -1.61828 0
M  V30 4625 H 420.509 6.53942 -1.77103 0
M  V30 4626 H 421.452 6.27924 -3.27287 0
M  V30 4627 H 421.86 5.35043 -1.79971 0
M  V30 4628 N 421.258 1.00505 1.21394 0
M  V30 4629 C 422.168 0.574806 2.27449 0
M  V30 4630 C 423.184 -0.382206 1.6975 0
M  V30 4631 O 424.36 -0.246027 1.99892 0
M  V30 4632 C 421.425 -0.0917414 3.46579 0
M  V30 4633 C 420.486 0.909758 4.1955 0
M  V30 4634 C 419.719 0.274924 5.32991 0
M  V30 4635 O 419.942 -0.928254 5.62796 0
M  V30 4636 O 418.876 0.985877 5.93771 0
M  V30 4637 H 422.702 1.45744 2.66444 0
M  V30 4638 H 420.287 0.773923 1.27792 0
M  V30 4639 H 422.169 -0.464551 4.18832 0
M  V30 4640 H 420.844 -0.948755 3.09484 0
M  V30 4641 H 419.751 1.33372 3.49518 0
M  V30 4642 H 421.084 1.73636 4.60555 0
M  V30 4643 N 422.737 -1.36956 0.779787 0
M  V30 4644 C 423.962 -2.04283 0.358224 0
M  V30 4645 C 424.387 -1.58422 -1.01411 0
M  V30 4646 O 423.745 -0.748179 -1.65142 0
M  V30 4647 C 423.793 -3.58152 0.419479 0
M  V30 4648 O 422.897 -4.08342 -0.577142 0
M  V30 4649 H 422.238 -0.645967 0.153698 0
M  V30 4650 H 424.768 -1.75108 1.05822 0
M  V30 4651 H 424.778 -4.07041 0.279636 0
M  V30 4652 H 423.453 -3.90886 1.42061 0
M  V30 4653 H 422.03 -3.70751 -0.399755 0
M  V30 4654 N 424.215 -0.530993 -1.48385 0
M  V30 4655 C 425.165 0.251092 -2.26613 0
M  V30 4656 C 426.149 0.908977 -1.32765 0
M  V30 4657 O 427.341 0.811616 -1.57295 0
M  V30 4658 C 424.47 1.29677 -3.17866 0
M  V30 4659 C 423.556 0.643627 -4.19188 0
M  V30 4660 N 423.947 -0.271223 -5.05072 0
M  V30 4661 C 422.245 0.900711 -4.3681 0
M  V30 4662 C 422.946 -0.648109 -5.78078 0
M  V30 4663 N 421.922 -0.00895987 -5.43599 0
M  V30 4664 H 425.724 -0.452702 -2.90393 0
M  V30 4665 H 423.238 -0.349091 -1.58604 0
M  V30 4666 H 425.235 1.87079 -3.72568 0
M  V30 4667 H 423.895 2.00193 -2.55642 0
M  V30 4668 H 424.906 -0.643883 -5.13882 0
M  V30 4669 H 421.583 1.59636 -3.85775 0
M  V30 4670 H 422.973 -1.39833 -6.57188 0
M  V30 4671 N 425.693 1.55336 -0.266172 0
M  V30 4672 C 426.623 2.25146 0.618981 0
M  V30 4673 C 427.604 1.23845 1.16604 0
M  V30 4674 O 428.789 1.52544 1.20183 0
M  V30 4675 C 425.919 2.96572 1.80728 0
M  V30 4676 C 424.873 4.04726 1.39215 0
M  V30 4677 C 424.199 4.63678 2.66283 0
M  V30 4678 C 425.499 5.19407 0.548942 0
M  V30 4679 H 427.193 2.99377 0.0368116 0
M  V30 4680 H 424.739 1.43991 0.0162651 0
M  V30 4681 H 426.692 3.44116 2.43232 0
M  V30 4682 H 425.416 2.19861 2.41514 0
M  V30 4683 H 424.075 3.57979 0.790351 0
M  V30 4684 H 423.723 3.83646 3.25308 0
M  V30 4685 H 423.423 5.367 2.39222 0
M  V30 4686 H 424.947 5.13967 3.29651 0
M  V30 4687 H 426.361 5.63059 1.07876 0
M  V30 4688 H 424.758 5.98936 0.373593 0
M  V30 4689 H 425.828 4.8295 -0.434394 0
M  V30 4690 N 427.171 -0.0066808 1.57599 0
M  V30 4691 C 428.448 -0.729586 1.81484 0
M  V30 4692 C 428.828 -1.92359 0.869558 0
M  V30 4693 O 428.176 -2.28348 -0.0832533 0
M  V30 4694 C 428.386 -1.1416 3.29801 0
M  V30 4695 C 429.734 -1.54823 3.95367 0
M  V30 4696 O 430.758 -1.23558 3.34084 0
M  V30 4697 O 429.617 -2.12937 5.03309 0
M  V30 4698 H 426.711 -0.354674 0.747085 0
M  V30 4699 H 429.257 0.0182609 1.6969 0
M  V30 4700 H 428.029 -0.290231 3.90222 0
M  V30 4701 H 427.652 -1.94876 3.46568 0
M  V30 4702 N 428.649 -1.55105 -0.279332 0
M  V30 4703 C 429.877 -1.7943 -1.03017 0
M  V30 4704 C 430.292 -0.564456 -1.80165 0
M  V30 4705 O 429.649 0.466326 -1.76442 0
M  V30 4706 C 429.7 -3.0155 -1.99374 0
M  V30 4707 O 429.421 -4.19784 -1.25352 0
M  V30 4708 C 430.922 -3.3843 -2.86321 0
M  V30 4709 H 428.142 -0.597882 -0.304594 0
M  V30 4710 H 430.686 -2.02105 -0.312035 0
M  V30 4711 H 428.841 -2.81019 -2.66659 0
M  V30 4712 H 429.255 -4.88781 -1.90246 0
M  V30 4713 H 430.729 -4.27066 -3.49741 0
M  V30 4714 H 431.206 -2.57549 -3.5576 0
M  V30 4715 H 431.812 -3.61197 -2.24536 0
M  V30 4716 N 430.127 0.543554 -1.4793 0
M  V30 4717 C 431.538 1.12561 -1.48953 0
M  V30 4718 C 431.889 1.94578 -0.251754 0
M  V30 4719 O 431.014 2.0665 0.642255 0
M  V30 4720 C 431.609 2.04801 -2.69892 0
M  V30 4721 C 430.168 2.58251 -2.73831 0
M  V30 4722 C 429.315 1.34918 -2.42265 0
M  V30 4723 H 432.266 0.32947 -1.55242 0
M  V30 4724 H 432.287 2.88886 -2.47639 0
M  V30 4725 H 431.799 1.4508 -3.59963 0
M  V30 4726 H 429.9 3.21732 -1.87934 0
M  V30 4727 H 430.013 2.98312 -3.74895 0
M  V30 4728 H 428.377 1.66046 -1.93134 0
M  V30 4729 H 429.16 0.769693 -3.3456 0
M  V30 4730 N 431.605 1.3629 0.791371 0
M  V30 4731 C 432.835 1.33368 1.57786 0
M  V30 4732 C 433.243 -0.0875188 1.88997 0
M  V30 4733 O 432.586 -1.05427 1.50435 0
M  V30 4734 C 432.648 2.08802 2.92646 0
M  V30 4735 C 432.312 3.57903 2.84174 0
M  V30 4736 C 433.309 4.52191 2.56553 0
M  V30 4737 C 430.994 4.00762 3.02812 0
M  V30 4738 C 432.988 5.87315 2.47669 0
M  V30 4739 C 430.675 5.35977 2.93551 0
M  V30 4740 C 431.673 6.29066 2.66017 0
M  V30 4741 O 431.361 7.61798 2.56746 0
M  V30 4742 H 431.093 0.459166 0.496128 0
M  V30 4743 H 433.647 1.79952 0.990269 0
M  V30 4744 H 431.877 1.56878 3.53449 0
M  V30 4745 H 433.566 1.98762 3.53904 0
M  V30 4746 H 434.332 4.20393 2.41858 0
M  V30 4747 H 430.211 3.2868 3.2325 0
M  V30 4748 H 433.755 6.59943 2.26099 0
M  V30 4749 H 429.652 5.67384 3.07808 0
M  V30 4750 H 430.42 7.71898 2.72242 0
M  V30 4751 N 433.083 -1.0153 1.20538 0
M  V30 4752 C 434.031 -2.12215 0.952235 0
M  V30 4753 C 435.025 -1.69123 -0.0968735 0
M  V30 4754 O 436.231 -1.7992 0.0536006 0
M  V30 4755 H 432.606 -0.693576 0.290613 0
M  V30 4756 H 434.577 -2.3075 1.89201 0
M  V30 4757 C 433.326 -3.43755 0.522287 0
M  V30 4758 H 432.649 -3.7734 1.32115 0
M  V30 4759 H 434.089 -4.22254 0.384389 0
M  V30 4760 C 432.548 -3.28088 -0.765489 0
M  V30 4761 O 433.078 -3.57921 -1.8236 0
M  V30 4762 N 431.284 -2.81333 -0.728011 0
M  V30 4763 H 430.831 -2.57255 0.133332 0
M  V30 4764 H 430.789 -2.71232 -1.58999 0
M  V30 4765 N 434.561 -1.01147 -1.20859 0
M  V30 4766 C 435.807 -0.698899 -1.90377 0
M  V30 4767 C 436.14 0.76904 -1.78324 0
M  V30 4768 O 435.415 1.55817 -1.16409 0
M  V30 4769 C 435.698 -1.12878 -3.41951 0
M  V30 4770 C 435.551 -2.65665 -3.62963 0
M  V30 4771 C 436.87 -0.696114 -4.3456 0
M  V30 4772 H 433.989 -0.255372 -0.691342 0
M  V30 4773 H 436.631 -1.25831 -1.42361 0
M  V30 4774 H 434.781 -0.652827 -3.82976 0
M  V30 4775 H 436.453 -3.21074 -3.31224 0
M  V30 4776 H 434.696 -3.06878 -3.06608 0
M  V30 4777 H 435.367 -2.90797 -4.69192 0
M  V30 4778 H 437.843 -1.10521 -4.01154 0
M  V30 4779 H 436.719 -1.025 -5.39245 0
M  V30 4780 H 436.98 0.402465 -4.40264 0
M  V30 4781 N 436.039 1.36541 -0.78704 0
M  V30 4782 C 437.45 1.81873 -0.421807 0
M  V30 4783 C 437.801 1.65487 1.05397 0
M  V30 4784 O 436.926 1.17448 1.81755 0
M  V30 4785 C 437.521 3.30192 -0.758841 0
M  V30 4786 C 436.08 3.73743 -0.446468 0
M  V30 4787 C 435.227 2.58844 -0.994728 0
M  V30 4788 H 438.178 1.24796 -0.98039 0
M  V30 4789 H 438.199 3.80468 -0.0490648 0
M  V30 4790 H 437.711 3.42087 -1.83299 0
M  V30 4791 H 435.812 3.6741 0.619739 0
M  V30 4792 H 435.925 4.69272 -0.965415 0
M  V30 4793 H 434.289 2.51245 -0.418087 0
M  V30 4794 H 435.072 2.73525 -2.07458 0
M  V30 4795 N 437.518 0.538854 1.48102 0
M  V30 4796 C 438.795 -0.0568108 1.95517 0
M  V30 4797 C 439.175 -1.50408 1.48124 0
M  V30 4798 O 438.523 -2.17133 0.711727 0
M  V30 4799 C 438.733 0.0696262 3.48931 0
M  V30 4800 C 440.081 -0.0851202 4.24515 0
M  V30 4801 O 441.105 -0.0037347 3.562 0
M  V30 4802 O 439.964 -0.257025 5.45895 0
M  V30 4803 H 437.058 -0.0743695 0.823649 0
M  V30 4804 H 439.604 0.604081 1.58584 0
M  V30 4805 H 438.376 1.07744 3.76174 0
M  V30 4806 H 437.999 -0.629714 3.92582 0
M  V30 4807 N 438.996 -1.55193 0.274407 0
M  V30 4808 C 440.242 -1.99877 -0.343086 0
M  V30 4809 C 440.575 -1.16256 -1.55558 0
M  V30 4810 O 439.85 -0.232462 -1.93106 0
M  V30 4811 C 440.133 -3.52706 -0.725965 0
M  V30 4812 C 439.986 -4.47081 0.493818 0
M  V30 4813 C 441.305 -4.11422 -1.56268 0
M  V30 4814 H 438.424 -0.726625 -0.123229 0
M  V30 4815 H 441.066 -1.86136 0.38121 0
M  V30 4816 H 439.216 -3.64546 -1.34307 0
M  V30 4817 H 440.888 -4.47186 1.13237 0
M  V30 4818 H 439.131 -4.1877 1.13201 0
M  V30 4819 H 439.802 -5.51699 0.18217 0
M  V30 4820 H 442.278 -4.02855 -1.04151 0
M  V30 4821 H 441.154 -5.18568 -1.79939 0
M  V30 4822 H 441.415 -3.61607 -2.54348 0
M  V30 4823 N 440.474 -0.00167713 -1.576 0
M  V30 4824 C 441.72 0.683832 -1.90923 0
M  V30 4825 C 442.053 1.7333 -0.875799 0
M  V30 4826 O 441.328 1.94215 0.10525 0
M  V30 4827 C 441.611 1.32543 -3.3482 0
M  V30 4828 C 441.464 0.287387 -4.48881 0
M  V30 4829 C 442.783 2.25114 -3.78169 0
M  V30 4830 H 439.902 0.247125 -0.694333 0
M  V30 4831 H 442.544 -0.0533149 -1.89925 0
M  V30 4832 H 440.694 1.95372 -3.35801 0
M  V30 4833 H 442.366 -0.341346 -4.60035 0
M  V30 4834 H 440.609 -0.39017 -4.32042 0
M  V30 4835 H 441.28 0.775393 -5.46527 0
M  V30 4836 H 443.756 1.723 -3.7875 0
M  V30 4837 H 442.632 2.66971 -4.79602 0
M  V30 4838 H 442.893 3.13092 -3.12131 0
M  V30 4839 N 441.952 1.55251 0.271103 0
M  V30 4840 C 443.201 1.75151 1.00025 0
M  V30 4841 C 443.514 0.561041 1.87381 0
M  V30 4842 O 444.72 0.642506 2.63788 0
M  V30 4843 C 443.176 3.09999 1.82835 0
M  V30 4844 C 442.784 4.3662 1.00336 0
M  V30 4845 C 444.528 3.39249 2.55168 0
M  V30 4846 C 442.435 5.62506 1.82595 0
M  V30 4847 H 441.365 0.652877 0.377183 0
M  V30 4848 H 444.016 1.81708 0.255843 0
M  V30 4849 H 442.398 2.97485 2.61378 0
M  V30 4850 H 443.572 4.60055 0.261959 0
M  V30 4851 H 441.887 4.14527 0.394486 0
M  V30 4852 H 444.484 4.3051 3.1712 0
M  V30 4853 H 444.827 2.59467 3.2555 0
M  V30 4854 H 445.36 3.52869 1.83653 0
M  V30 4855 H 442.099 6.45041 1.16631 0
M  V30 4856 H 441.619 5.43211 2.54327 0
M  V30 4857 H 443.298 6.00875 2.39913 0
M  V30 4858 N 443.43 -0.535701 1.48216 0
M  V30 4859 C 444.658 -1.31671 1.59594 0
M  V30 4860 C 445.073 -1.87083 0.254056 0
M  V30 4861 O 444.43 -1.66112 -0.755854 0
M  V30 4862 C 444.481 -2.47158 2.63809 0
M  V30 4863 O 444.202 -1.94032 3.92789 0
M  V30 4864 C 445.703 -3.39062 2.85573 0
M  V30 4865 H 442.923 -0.400623 0.538277 0
M  V30 4866 H 445.467 -0.646827 1.94001 0
M  V30 4867 H 443.622 -3.10043 2.32276 0
M  V30 4868 H 444.036 -2.69585 4.49916 0
M  V30 4869 H 445.51 -4.16459 3.62306 0
M  V30 4870 H 445.987 -3.93941 1.94184 0
M  V30 4871 H 446.593 -2.81975 3.18387 0
M  V30 4872 N 444.908 -1.36708 -0.784132 0
M  V30 4873 C 446.157 -1.30559 -1.53744 0
M  V30 4874 C 446.47 0.111374 -1.95283 0
M  V30 4875 O 447.676 0.29527 -2.6989 0
M  V30 4876 C 446.132 -2.29098 -2.77565 0
M  V30 4877 C 445.74 -3.76258 -2.43174 0
M  V30 4878 C 447.484 -2.31936 -3.55536 0
M  V30 4879 C 445.391 -4.6656 -3.63422 0
M  V30 4880 H 444.321 -0.48518 -0.577162 0
M  V30 4881 H 446.972 -1.62101 -0.859981 0
M  V30 4882 H 445.354 -1.90557 -3.47137 0
M  V30 4883 H 446.528 -4.23565 -1.81465 0
M  V30 4884 H 444.843 -3.76246 -1.78403 0
M  V30 4885 H 447.44 -2.9661 -4.44889 0
M  V30 4886 H 447.783 -1.3294 -3.94503 0
M  V30 4887 H 448.316 -2.6912 -2.92949 0
M  V30 4888 H 445.055 -5.66638 -3.29547 0
M  V30 4889 H 444.575 -4.23966 -4.24279 0
M  V30 4890 H 446.254 -4.8309 -4.30387 0
M  V30 4891 N 446.386 1.0089 -1.21074 0
M  V30 4892 C 447.349 2.0775 -0.968129 0
M  V30 4893 C 448.349 1.6069 0.0593445 0
M  V30 4894 O 449.539 1.73293 -0.177525 0
M  V30 4895 C 446.671 3.37794 -0.459108 0
M  V30 4896 H 447.864 2.30707 -1.9161 0
M  V30 4897 H 445.417 1.17807 -1.02719 0
M  V30 4898 H 446.152 3.20516 0.49397 0
M  V30 4899 H 445.937 3.7328 -1.20019 0
M  V30 4900 H 447.427 4.16454 -0.309099 0
M  V30 4901 N 447.864 1.01787 1.20321 0
M  V30 4902 C 448.812 0.58254 2.25187 0
M  V30 4903 C 449.806 -0.379359 1.65098 0
M  V30 4904 O 451.012 -0.249142 1.78267 0
M  V30 4905 H 447.387 0.170078 0.732514 0
M  V30 4906 H 449.358 1.47788 2.59232 0
M  V30 4907 C 448.107 -0.0620885 3.47645 0
M  V30 4908 H 447.43 0.669069 3.94162 0
M  V30 4909 H 448.87 -0.329784 4.22716 0
M  V30 4910 C 447.329 -1.3053 3.10586 0
M  V30 4911 O 447.859 -2.39848 3.22236 0
M  V30 4912 N 446.065 -1.18988 2.65123 0
M  V30 4913 H 445.612 -0.300341 2.55843 0
M  V30 4914 H 445.57 -2.02267 2.40698 0
M  V30 4915 N 449.342 -1.36122 0.79427 0
M  V30 4916 C 450.29 -2.31871 0.184023 0
M  V30 4917 C 451.284 -1.56041 -0.659365 0
M  V30 4918 O 452.49 -1.71266 -0.553906 0
M  V30 4919 H 448.865 -0.750896 0.0407373 0
M  V30 4920 H 450.836 -2.80898 1.00693 0
M  V30 4921 C 449.585 -3.41324 -0.662813 0
M  V30 4922 H 448.908 -3.99793 -0.0231944 0
M  V30 4923 H 450.348 -4.10629 -1.05639 0
M  V30 4924 C 448.807 -2.83308 -1.82313 0
M  V30 4925 O 449.337 -2.75863 -2.91997 0
M  V30 4926 N 447.543 -2.40529 -1.63077 0
M  V30 4927 H 447.09 -2.46785 -0.738591 0
M  V30 4928 H 447.048 -2.02059 -2.40872 0
M  V30 4929 N 450.82 -0.546701 -1.47814 0
M  V30 4930 C 452.097 0.0464413 -1.95545 0
M  V30 4931 C 452.477 1.4962 -1.48919 0
M  V30 4932 O 451.825 2.16752 -0.723232 0
M  V30 4933 C 452.035 -0.0881298 -3.48889 0
M  V30 4934 C 453.383 0.0626059 -4.24554 0
M  V30 4935 O 454.407 -0.0151555 -3.56197 0
M  V30 4936 O 453.266 0.228071 -5.46024 0
M  V30 4937 H 450.36 0.0700004 -0.824032 0
M  V30 4938 H 452.906 -0.612482 -1.58262 0
M  V30 4939 H 451.678 -1.09737 -3.75597 0
M  V30 4940 H 451.301 0.608886 -3.9291 0
M  V30 4941 N 452.299 1.55045 -0.282633 0
M  V30 4942 C 453.545 2.00056 0.332481 0
M  V30 4943 C 453.878 1.1708 1.54939 0
M  V30 4944 O 453.153 0.2427 1.9298 0
M  V30 4945 C 453.436 3.53086 0.70725 0
M  V30 4946 C 453.289 4.46813 -0.517521 0
M  V30 4947 C 454.608 4.12245 1.54084 0
M  V30 4948 H 451.727 0.727268 0.119373 0
M  V30 4949 H 454.369 1.85932 -0.391076 0
M  V30 4950 H 452.519 3.65253 1.32372 0
M  V30 4951 H 454.191 4.46579 -1.15607 0
M  V30 4952 H 452.434 4.18163 -1.1542 0
M  V30 4953 H 453.105 5.51595 -0.211426 0
M  V30 4954 H 455.581 4.03401 1.02013 0
M  V30 4955 H 454.457 5.19515 1.77186 0
M  V30 4956 H 454.718 3.62951 2.52427 0
M  V30 4957 N 453.777 0.010035 1.57597 0
M  V30 4958 C 455.054 -0.710296 1.82248 0
M  V30 4959 C 455.434 -1.91426 0.889911 0
M  V30 4960 O 454.782 -2.28424 -0.0590292 0
M  V30 4961 C 454.992 -1.10655 3.30993 0
M  V30 4962 C 456.34 -1.50621 3.96987 0
M  V30 4963 O 457.364 -1.20007 3.35375 0
M  V30 4964 O 456.223 -2.07587 5.05539 0
M  V30 4965 H 453.317 -0.34673 0.750804 0
M  V30 4966 H 455.863 0.0362578 1.69661 0
M  V30 4967 H 454.635 -0.248826 3.90508 0
M  V30 4968 H 454.258 -1.91189 3.48615 0
M  V30 4969 N 455.255 -1.55392 -0.262866 0
M  V30 4970 C 456.185 -1.91978 -1.32917 0
M  V30 4971 C 457.166 -0.7828 -1.51017 0
M  V30 4972 O 458.351 -1.04178 -1.63892 0
M  V30 4973 C 455.481 -2.20055 -2.68687 0
M  V30 4974 C 454.435 -3.35854 -2.65304 0
M  V30 4975 C 453.761 -3.49435 -4.04721 0
M  V30 4976 C 455.061 -4.71977 -2.23685 0
M  V30 4977 H 456.755 -2.81292 -1.02544 0
M  V30 4978 H 454.301 -1.3534 -0.491846 0
M  V30 4979 H 456.254 -2.44237 -3.43404 0
M  V30 4980 H 454.978 -1.27551 -3.00663 0
M  V30 4981 H 453.637 -3.11655 -1.93045 0
M  V30 4982 H 453.285 -2.54379 -4.33936 0
M  V30 4983 H 452.985 -4.27297 -4.0335 0
M  V30 4984 H 454.509 -3.7592 -4.81161 0
M  V30 4985 H 455.923 -4.95637 -2.88127 0
M  V30 4986 H 454.32 -5.52828 -2.33456 0
M  V30 4987 H 455.39 -4.70115 -1.18827 0
M  V30 4988 N 456.733 0.527833 -1.48498 0
M  V30 4989 C 457.982 1.28003 -1.55878 0
M  V30 4990 C 458.295 1.9414 -0.238577 0
M  V30 4991 O 459.501 2.7083 -0.190643 0
M  V30 4992 C 457.957 2.32272 -2.74914 0
M  V30 4993 C 457.565 1.72196 -4.13585 0
M  V30 4994 C 459.309 3.08488 -2.91608 0
M  V30 4995 C 457.216 2.74417 -5.23879 0
M  V30 4996 H 456.146 0.481413 -0.580308 0
M  V30 4997 H 458.797 0.557195 -1.74836 0
M  V30 4998 H 457.179 3.07601 -2.49395 0
M  V30 4999 H 458.353 1.03041 -4.49132 0
M  V30 5000 H 456.668 1.08464 -4.02025 0
M  V30 5001 H 459.265 3.84879 -3.71177 0
M  V30 5002 H 459.608 3.64481 -2.01145 0
M  V30 5003 H 460.141 2.40274 -3.17038 0
M  V30 5004 H 456.88 2.23242 -6.16314 0
M  V30 5005 H 456.4 3.41893 -4.92818 0
M  V30 5006 H 458.079 3.37362 -5.52083 0
M  V30 5007 N 458.211 1.37122 0.776871 0
M  V30 5008 C 459.46 1.31373 1.53049 0
M  V30 5009 C 459.773 -0.101016 1.95339 0
M  V30 5010 O 460.979 -0.280953 2.70042 0
M  V30 5011 C 459.435 2.30567 2.76346 0
M  V30 5012 C 459.043 3.77543 2.41175 0
M  V30 5013 C 460.787 2.33818 3.54301 0
M  V30 5014 C 458.694 4.68481 3.60943 0
M  V30 5015 H 457.624 0.488234 0.574581 0
M  V30 5016 H 460.275 1.62554 0.851372 0
M  V30 5017 H 458.657 1.92396 3.46121 0
M  V30 5018 H 459.831 4.24521 1.79216 0
M  V30 5019 H 458.146 3.77187 1.76405 0
M  V30 5020 H 460.743 2.98965 4.4331 0
M  V30 5021 H 461.086 1.3503 3.93793 0
M  V30 5022 H 461.619 2.7067 2.91518 0
M  V30 5023 H 458.358 5.68378 3.26537 0
M  V30 5024 H 457.878 4.2621 4.22025 0
M  V30 5025 H 459.557 4.85366 4.27819 0
M  V30 5026 N 459.689 -1.00246 1.21608 0
M  V30 5027 C 461.105 -1.26435 0.973975 0
M  V30 5028 C 461.305 -1.98642 -0.338143 0
M  V30 5029 O 460.361 -2.29026 -1.06317 0
M  V30 5030 C 461.674 -2.08551 2.16626 0
M  V30 5031 C 463.222 -2.21769 2.20879 0
M  V30 5032 C 463.697 -3.07267 3.39633 0
M  V30 5033 N 465.188 -3.14855 3.39736 0
M  V30 5034 C 465.923 -3.81274 4.28273 0
M  V30 5035 N 465.419 -4.497 5.27012 0
M  V30 5036 N 467.212 -3.7794 4.16074 0
M  V30 5037 H 459.363 -0.518089 2.05984 0
M  V30 5038 H 461.626 -0.291368 0.902113 0
M  V30 5039 H 461.332 -1.62847 3.11727 0
M  V30 5040 H 461.206 -3.09303 2.15897 0
M  V30 5041 H 463.593 -2.66691 1.26332 0
M  V30 5042 H 463.674 -1.20478 2.25652 0
M  V30 5043 H 463.318 -2.63047 4.34475 0
M  V30 5044 H 463.248 -4.08678 3.321 0
M  V30 5045 H 465.739 -2.66147 2.6828 0
M  V30 5046 H 466.052 -4.98092 5.90867 0
M  V30 5047 H 464.397 -4.48479 5.30935 0
M  V30 5048 H 467.588 -3.23638 3.38195 0
M  V30 5049 H 467.761 -4.29424 4.85282 0
M  V30 5050 N 461.167 -1.02423 -1.1978 0
M  V30 5051 C 462.416 -0.713265 -1.88667 0
M  V30 5052 C 462.729 0.7609 -1.80193 0
M  V30 5053 O 463.935 1.18473 -2.44288 0
M  V30 5054 C 462.391 -1.22545 -3.38394 0
M  V30 5055 C 461.999 -2.72706 -3.55437 0
M  V30 5056 C 463.743 -0.990257 -4.12788 0
M  V30 5057 C 461.65 -3.17367 -4.99031 0
M  V30 5058 H 460.58 -0.263105 -0.706606 0
M  V30 5059 H 463.231 -1.23792 -1.35454 0
M  V30 5060 H 461.613 -0.628732 -3.90977 0
M  V30 5061 H 462.787 -3.37993 -3.13205 0
M  V30 5062 H 461.102 -2.94453 -2.94425 0
M  V30 5063 H 463.699 -1.29926 -5.18675 0
M  V30 5064 H 464.042 0.0730761 -4.16236 0
M  V30 5065 H 464.575 -1.55074 -3.66329 0
M  V30 5066 H 461.314 -4.23009 -5.00743 0
M  V30 5067 H 460.834 -2.56805 -5.42044 0
M  V30 5068 H 462.513 -3.10441 -5.67658 0
M  V30 5069 N 462.645 1.35699 -0.801477 0
M  V30 5070 C 463.87 2.03687 -0.390678 0
M  V30 5071 C 464.295 1.60015 0.988778 0
M  V30 5072 O 463.653 0.774357 1.63931 0
M  V30 5073 C 463.701 3.57439 -0.476404 0
M  V30 5074 O 462.805 4.09208 0.512106 0
M  V30 5075 H 462.146 0.64344 -0.163956 0
M  V30 5076 H 464.676 1.73403 -1.08594 0
M  V30 5077 H 464.686 4.06544 -0.344357 0
M  V30 5078 H 463.361 3.88576 -1.48262 0
M  V30 5079 H 461.938 3.7134 0.340721 0
M  V30 5080 N 464.123 0.554532 1.47522 0
M  V30 5081 C 465.4 -0.0360704 1.95567 0
M  V30 5082 C 465.78 -1.48828 1.49711 0
M  V30 5083 O 465.128 -2.16366 0.734717 0
M  V30 5084 C 465.338 0.106631 3.48837 0
M  V30 5085 C 466.686 -0.0400899 4.24581 0
M  V30 5086 O 467.71 0.0340453 3.56184 0
M  V30 5087 O 466.569 -0.199111 5.46137 0
M  V30 5088 H 463.663 -0.0656294 0.824392 0
M  V30 5089 H 466.209 0.620867 1.57935 0
M  V30 5090 H 464.981 1.11727 3.7501 0
M  V30 5091 H 464.604 -0.58804 3.93227 0
M  V30 5092 N 465.601 -1.54893 0.290851 0
M  V30 5093 C 467.017 -1.59476 -0.0628432 0
M  V30 5094 C 467.217 -1.30795 -1.5328 0
M  V30 5095 O 466.273 -1.07644 -2.28406 0
M  V30 5096 C 467.586 -2.98928 0.325962 0
M  V30 5097 C 469.134 -3.11799 0.273882 0
M  V30 5098 C 469.609 -4.53544 0.637359 0
M  V30 5099 N 471.1 -4.59433 0.589507 0
M  V30 5100 C 471.835 -5.67164 0.84335 0
M  V30 5101 N 471.331 -6.82975 1.16263 0
M  V30 5102 N 473.124 -5.56786 0.771091 0
M  V30 5103 H 465.275 -1.71798 1.24896 0
M  V30 5104 H 467.538 -0.801879 0.505663 0
M  V30 5105 H 467.244 -3.24805 1.34887 0
M  V30 5106 H 467.118 -3.75793 -0.325441 0
M  V30 5107 H 469.505 -2.85677 -0.739765 0
M  V30 5108 H 469.586 -2.37112 0.959766 0
M  V30 5109 H 469.23 -4.80394 1.64877 0
M  V30 5110 H 469.16 -5.26553 -0.0704866 0
M  V30 5111 H 471.651 -3.76245 0.353252 0
M  V30 5112 H 471.964 -7.61048 1.34257 0
M  V30 5113 H 470.309 -6.84552 1.20057 0
M  V30 5114 H 473.5 -4.65187 0.521383 0
M  V30 5115 H 473.673 -6.40664 0.972295 0
M  V30 5116 N 467.08 -0.0183926 -1.57589 0
M  V30 5117 C 468.328 0.661253 -1.90976 0
M  V30 5118 C 468.649 1.73281 -0.894353 0
M  V30 5119 O 467.919 1.9579 0.0656788 0
M  V30 5120 H 466.499 0.247233 -0.704901 0
M  V30 5121 H 469.161 -0.0636639 -1.94796 0
M  V30 5122 H 468.257 1.12083 -2.9128 0
M  V30 5123 N 468.558 1.5553 0.254621 0
M  V30 5124 C 469.806 1.7665 0.981793 0
M  V30 5125 C 470.127 0.580963 1.86145 0
M  V30 5126 O 469.397 -0.403537 1.91699 0
M  V30 5127 H 467.977 0.651475 0.365498 0
M  V30 5128 H 470.639 1.92958 0.274426 0
M  V30 5129 H 469.735 2.67486 1.60802 0
M  V30 5130 N 470.036 -0.519951 1.48776 0
M  V30 5131 C 471.284 -1.2727 1.56993 0
M  V30 5132 C 471.605 -1.9339 0.25004 0
M  V30 5133 O 470.875 -1.81822 -0.729216 0
M  V30 5134 H 469.455 -0.472732 0.578389 0
M  V30 5135 H 472.117 -0.604234 1.85297 0
M  V30 5136 H 471.213 -2.04669 2.3562 0
M  V30 5137 N 471.514 -1.37532 -0.769588 0
M  V30 5138 C 472.763 -1.32183 -1.5235 0
M  V30 5139 C 473.076 0.0906555 -1.9539 0
M  V30 5140 O 474.282 0.266628 -2.70188 0
M  V30 5141 C 472.738 -2.32029 -2.75119 0
M  V30 5142 C 472.346 -3.78816 -2.3917 0
M  V30 5143 C 474.09 -2.35694 -3.53056 0
M  V30 5144 C 471.997 -4.70388 -3.58453 0
M  V30 5145 H 470.927 -0.491275 -0.571984 0
M  V30 5146 H 473.578 -1.63004 -0.842739 0
M  V30 5147 H 471.96 -1.94229 -3.45096 0
M  V30 5148 H 473.134 -4.25466 -1.76962 0
M  V30 5149 H 471.449 -3.78117 -1.74402 0
M  V30 5150 H 474.046 -3.01312 -4.41718 0
M  V30 5151 H 474.389 -1.37117 -3.93071 0
M  V30 5152 H 474.922 -2.72212 -2.90078 0
M  V30 5153 H 471.661 -5.70102 -3.23518 0
M  V30 5154 H 471.181 -4.28442 -4.19758 0
M  V30 5155 H 472.86 -4.87628 -4.25239 0
M  V30 5156 N 472.992 0.995999 -1.22138 0
M  V30 5157 C 473.955 2.06711 -0.990109 0
M  V30 5158 C 474.955 1.60744 0.0422978 0
M  V30 5159 O 476.145 1.73095 -0.195895 0
M  V30 5160 C 473.277 3.37288 -0.49491 0
M  V30 5161 H 474.47 2.28661 -1.94047 0
M  V30 5162 H 472.023 1.16711 -1.03963 0
M  V30 5163 H 472.758 3.21022 0.459948 0
M  V30 5164 H 472.543 3.71986 -1.23971 0
M  V30 5165 H 474.033 4.16103 -0.353253 0
M  V30 5166 N 474.47 1.03057 1.19235 0
M  V30 5167 C 475.42 0.583386 2.2041 0
M  V30 5168 C 476.404 -0.368776 1.56617 0
M  V30 5169 O 477.596 -0.189471 1.75983 0
M  V30 5170 C 474.725 -0.0626534 3.43243 0
M  V30 5171 C 473.811 0.91205 4.14177 0
M  V30 5172 N 474.202 2.07514 4.61272 0
M  V30 5173 C 472.5 0.735859 4.39888 0
M  V30 5174 C 473.201 2.69003 5.15764 0
M  V30 5175 N 472.177 1.96954 5.06666 0
M  V30 5176 H 475.979 1.46988 2.54503 0
M  V30 5177 H 473.493 0.897785 1.35328 0
M  V30 5178 H 475.49 -0.400653 4.1497 0
M  V30 5179 H 474.15 -0.944813 3.1065 0
M  V30 5180 H 475.161 2.45448 4.56043 0
M  V30 5181 H 471.838 -0.0970656 4.17387 0
M  V30 5182 H 473.228 3.67514 5.6248 0
M  V30 5183 N 475.948 -1.35272 0.808662 0
M  V30 5184 C 476.895 -2.29764 0.218482 0
M  V30 5185 C 477.865 -1.52911 -0.648652 0
M  V30 5186 O 479.05 -1.81341 -0.593297 0
M  V30 5187 C 476.19 -3.39388 -0.625282 0
M  V30 5188 C 475.303 -4.31202 0.262516 0
M  V30 5189 C 474.438 -5.27919 -0.589451 0
M  V30 5190 C 473.477 -6.11371 0.298617 0
M  V30 5191 N 472.614 -7.0022 -0.513443 0
M  V30 5192 H 477.454 -2.79645 1.02968 0
M  V30 5193 H 474.991 -1.37629 0.519303 0
M  V30 5194 H 476.949 -4.01615 -1.12966 0
M  V30 5195 H 475.579 -2.90777 -1.40173 0
M  V30 5196 H 474.631 -3.69962 0.885013 0
M  V30 5197 H 475.943 -4.89748 0.945971 0
M  V30 5198 H 475.097 -5.95529 -1.15888 0
M  V30 5199 H 473.836 -4.69875 -1.30647 0
M  V30 5200 H 472.841 -5.42707 0.880301 0
M  V30 5201 H 474.066 -6.71494 1.01352 0
M  V30 5202 H 472.012 -6.44662 -1.21439 0
M  V30 5203 H 471.929 -7.55917 0.111922 0
M  V30 5204 H 473.197 -7.72175 -1.06608 0
M  V30 5205 N 477.426 -0.562348 -1.47226 0
M  V30 5206 C 478.703 0.0256985 -1.95583 0
M  V30 5207 C 479.083 1.48032 -1.50498 0
M  V30 5208 O 478.431 2.15973 -0.746181 0
M  V30 5209 C 478.641 -0.125129 -3.48776 0
M  V30 5210 C 479.989 0.0175728 -4.24596 0
M  V30 5211 O 481.013 -0.0529341 -3.56161 0
M  V30 5212 O 479.872 0.170145 -5.46235 0
M  V30 5213 H 476.966 0.0612565 -0.824728 0
M  V30 5214 H 479.512 -0.629233 -1.57603 0
M  V30 5215 H 478.284 -1.13715 -3.74412 0
M  V30 5216 H 477.907 0.567178 -3.93534 0
M  V30 5217 N 478.904 1.54736 -0.299062 0
M  V30 5218 C 479.834 2.26409 0.571085 0
M  V30 5219 C 480.815 1.2629 1.13951 0
M  V30 5220 O 482 1.55059 1.16921 0
M  V30 5221 C 479.13 3.00338 1.74396 0
M  V30 5222 C 478.084 4.07588 1.30599 0
M  V30 5223 C 477.41 4.69222 2.56387 0
M  V30 5224 C 478.71 5.20455 0.438645 0
M  V30 5225 H 480.404 2.99388 -0.0266991 0
M  V30 5226 H 477.95 1.43993 -0.0142812 0
M  V30 5227 H 479.903 3.49198 2.35878 0
M  V30 5228 H 478.627 2.24934 2.36796 0
M  V30 5229 H 477.286 3.59575 0.71424 0
M  V30 5230 H 476.934 3.9046 3.17097 0
M  V30 5231 H 476.634 5.41653 2.27784 0
M  V30 5232 H 478.158 5.20844 3.18675 0
M  V30 5233 H 479.572 5.65221 0.959085 0
M  V30 5234 H 477.969 5.99594 0.246466 0
M  V30 5235 H 479.039 4.8192 -0.536738 0
M  V30 5236 N 480.382 0.0267497 1.57577 0
M  V30 5237 C 481.659 -0.690926 1.82991 0
M  V30 5238 C 482.039 -1.90471 0.910164 0
M  V30 5239 O 481.387 -2.28474 -0.0347985 0
M  V30 5240 C 481.597 -1.07139 3.32148 0
M  V30 5241 C 482.945 -1.46402 3.98562 0
M  V30 5242 O 483.969 -1.16443 3.36629 0
M  V30 5243 O 482.828 -2.02214 5.07712 0
M  V30 5244 H 479.922 -0.338747 0.75444 0
M  V30 5245 H 482.468 0.0542506 1.69613 0
M  V30 5246 H 481.24 -0.207394 3.9075 0
M  V30 5247 H 480.863 -1.87481 3.50623 0
M  V30 5248 N 481.861 -1.55662 -0.24637 0
M  V30 5249 C 483.277 -1.48098 -0.594907 0
M  V30 5250 C 483.477 -0.717044 -1.8831 0
M  V30 5251 O 482.533 -0.246618 -2.51293 0
M  V30 5252 C 483.846 -2.92507 -0.697146 0
M  V30 5253 C 485.394 -3.02881 -0.789436 0
M  V30 5254 C 485.869 -4.48598 -0.923232 0
M  V30 5255 N 487.36 -4.52538 -0.988088 0
M  V30 5256 C 488.095 -5.62536 -1.11089 0
M  V30 5257 N 487.591 -6.82342 -1.19919 0
M  V30 5258 N 489.384 -5.50334 -1.14408 0
M  V30 5259 H 481.535 -2.0377 0.599278 0
M  V30 5260 H 483.798 -0.925145 0.20691 0
M  V30 5261 H 483.504 -3.51242 0.179396 0
M  V30 5262 H 483.378 -3.43024 -1.5689 0
M  V30 5263 H 485.765 -2.44226 -1.65643 0
M  V30 5264 H 485.846 -2.55574 0.107482 0
M  V30 5265 H 485.49 -5.07864 -0.0607927 0
M  V30 5266 H 485.42 -4.93587 -1.8352 0
M  V30 5267 H 487.911 -3.66248 -0.931167 0
M  V30 5268 H 488.224 -7.61924 -1.29197 0
M  V30 5269 H 486.569 -6.85102 -1.16876 0
M  V30 5270 H 489.76 -4.5567 -1.07158 0
M  V30 5271 H 489.933 -6.36096 -1.23634 0
M  V30 5272 N 483.339 0.512053 -1.4905 0
M  V30 5273 C 484.585 1.26874 -1.58212 0
M  V30 5274 C 484.918 1.9241 -0.263073 0
M  V30 5275 O 484.193 1.80181 0.732476 0
M  V30 5276 C 484.476 2.34428 -2.73341 0
M  V30 5277 C 484.329 1.73466 -4.15006 0
M  V30 5278 C 485.648 3.36073 -2.84154 0
M  V30 5279 H 482.767 0.459924 -0.575881 0
M  V30 5280 H 485.409 0.568587 -1.81293 0
M  V30 5281 H 483.559 2.94146 -2.53792 0
M  V30 5282 H 485.231 1.17661 -4.46042 0
M  V30 5283 H 483.474 1.03921 -4.21168 0
M  V30 5284 H 484.145 2.51426 -4.91415 0
M  V30 5285 H 486.621 2.86332 -3.01916 0
M  V30 5286 H 485.497 4.08703 -3.66406 0
M  V30 5287 H 485.758 3.97725 -1.93048 0
M  V30 5288 N 484.817 1.37938 0.762283 0
M  V30 5289 C 485.75 1.2884 1.88349 0
M  V30 5290 C 486.728 0.167084 1.61739 0
M  V30 5291 O 487.912 0.34292 1.85355 0
M  V30 5292 C 485.039 0.994257 3.23778 0
M  V30 5293 C 484.085 2.13376 3.69287 0
M  V30 5294 S 484.918 3.75439 3.81845 0
M  V30 5295 C 486.074 3.48195 5.20107 0
M  V30 5296 H 486.307 2.23736 1.95779 0
M  V30 5297 H 483.84 1.23672 0.924368 0
M  V30 5298 H 485.798 0.83138 4.01993 0
M  V30 5299 H 484.459 0.0626251 3.14038 0
M  V30 5300 H 483.652 1.88319 4.67495 0
M  V30 5301 H 483.254 2.25726 2.98201 0
M  V30 5302 H 485.546 3.0377 6.05583 0
M  V30 5303 H 486.489 4.45765 5.50181 0
M  V30 5304 H 486.897 2.82905 4.88493 0
M  V30 5305 N 486.295 -0.989507 1.22664 0
M  V30 5306 C 487.572 -1.70326 0.961688 0
M  V30 5307 C 487.952 -2.04537 -0.522279 0
M  V30 5308 O 487.3 -1.73136 -1.49118 0
M  V30 5309 C 487.51 -2.95135 1.86269 0
M  V30 5310 C 488.858 -3.67842 2.12078 0
M  V30 5311 O 489.882 -3.0515 1.83745 0
M  V30 5312 O 488.741 -4.80644 2.60083 0
M  V30 5313 H 485.835 -0.743589 0.361946 0
M  V30 5314 H 488.381 -1.04555 1.33665 0
M  V30 5315 H 487.153 -2.66382 2.8663 0
M  V30 5316 H 486.776 -3.68645 1.48952 0
M  V30 5317 N 487.773 -1.03688 -1.18687 0
M  V30 5318 C 489.003 -0.756819 -1.92239 0
M  V30 5319 C 489.411 0.689374 -1.76194 0
M  V30 5320 O 488.754 1.48126 -1.08648 0
M  V30 5321 C 488.816 -1.03851 -3.44173 0
M  V30 5322 C 488.48 -2.47785 -3.83994 0
M  V30 5323 C 489.477 -3.4595 -3.88091 0
M  V30 5324 C 487.162 -2.82397 -4.154 0
M  V30 5325 C 489.156 -4.76779 -4.23038 0
M  V30 5326 C 486.843 -4.13433 -4.50018 0
M  V30 5327 C 487.841 -5.10434 -4.53813 0
M  V30 5328 O 487.529 -6.39122 -4.87625 0
M  V30 5329 H 487.261 -0.275678 -0.617234 0
M  V30 5330 H 489.815 -1.38658 -1.51536 0
M  V30 5331 H 488.045 -0.351612 -3.85098 0
M  V30 5332 H 489.734 -0.746846 -3.9897 0
M  V30 5333 H 490.5 -3.20549 -3.63969 0
M  V30 5334 H 486.379 -2.07568 -4.11627 0
M  V30 5335 H 489.923 -5.52488 -4.25914 0
M  V30 5336 H 485.82 -4.38604 -4.736 0
M  V30 5337 H 486.588 -6.43715 -5.05542 0
M  V30 5338 N 489.251 1.34841 -0.815825 0
M  V30 5339 C 490.201 2.27075 -0.205169 0
M  V30 5340 C 491.185 1.48205 0.626414 0
M  V30 5341 O 492.377 1.70306 0.482157 0
M  V30 5342 C 489.506 3.37322 0.637871 0
M  V30 5343 C 488.592 4.23609 -0.203948 0
M  V30 5344 N 488.983 4.89558 -1.27149 0
M  V30 5345 C 487.281 4.45998 0.0128971 0
M  V30 5346 C 487.982 5.53597 -1.7862 0
M  V30 5347 N 486.958 5.32535 -1.0912 0
M  V30 5348 H 490.76 2.75563 -1.02187 0
M  V30 5349 H 488.274 1.48477 -0.657912 0
M  V30 5350 H 490.271 4.02359 1.09146 0
M  V30 5351 H 488.931 2.90385 1.45281 0
M  V30 5352 H 489.942 4.9077 -1.65423 0
M  V30 5353 H 486.619 4.09837 0.79624 0
M  V30 5354 H 488.009 6.16184 -2.67892 0
M  V30 5355 N 490.729 0.570148 1.46925 0
M  V30 5356 C 491.976 0.0509529 2.02436 0
M  V30 5357 C 492.304 -1.30405 1.44308 0
M  V30 5358 O 491.559 -1.86493 0.593198 0
M  V30 5359 C 491.858 -0.0780336 3.57315 0
M  V30 5360 C 491.524 1.20775 4.34424 0
M  V30 5361 C 490.186 1.56004 4.5521 0
M  V30 5362 C 492.538 2.0592 4.78797 0
M  V30 5363 C 489.866 2.76201 5.17619 0
M  V30 5364 C 492.218 3.25332 5.42533 0
M  V30 5365 C 490.882 3.60859 5.61549 0
M  V30 5366 H 490.152 0.018645 0.740765 0
M  V30 5367 H 492.799 0.744262 1.76445 0
M  V30 5368 H 491.104 -0.854394 3.82371 0
M  V30 5369 H 492.801 -0.495312 3.97929 0
M  V30 5370 H 489.391 0.923469 4.18533 0
M  V30 5371 H 493.575 1.80008 4.62505 0
M  V30 5372 H 488.831 3.0388 5.30535 0
M  V30 5373 H 493.005 3.91586 5.75876 0
M  V30 5374 H 490.632 4.54088 6.09678 0
M  V30 5375 N 492.207 -1.54576 0.307264 0
M  V30 5376 C 493.435 -2.04675 -0.302597 0
M  V30 5377 C 493.85 -1.18425 -1.47041 0
M  V30 5378 O 493.207 -0.211257 -1.81273 0
M  V30 5379 C 493.258 -3.53575 -0.752801 0
M  V30 5380 O 492.979 -4.36547 0.368536 0
M  V30 5381 C 494.48 -4.19699 -1.42717 0
M  V30 5382 H 491.7 -0.66786 -0.0648374 0
M  V30 5383 H 494.244 -1.99516 0.448716 0
M  V30 5384 H 492.399 -3.59074 -1.45412 0
M  V30 5385 H 492.813 -5.24497 0.0168937 0
M  V30 5386 H 494.287 -5.25388 -1.69327 0
M  V30 5387 H 494.764 -3.69815 -2.36925 0
M  V30 5388 H 495.37 -4.18293 -0.768856 0
M  V30 5389 N 493.685 -0.035106 -1.57561 0
M  V30 5390 C 494.913 0.652258 -1.9635 0
M  V30 5391 C 495.328 1.65317 -0.911897 0
M  V30 5392 O 494.685 1.82194 0.105657 0
M  V30 5393 C 494.736 1.35337 -3.35211 0
M  V30 5394 O 494.457 0.392548 -4.36338 0
M  V30 5395 C 495.958 2.13199 -3.88666 0
M  V30 5396 H 493.178 0.179444 -0.646561 0
M  V30 5397 H 495.722 -0.0966459 -2.04271 0
M  V30 5398 H 493.877 2.05362 -3.28489 0
M  V30 5399 H 494.291 0.891097 -5.16875 0
M  V30 5400 H 495.765 2.577 -4.88154 0
M  V30 5401 H 496.242 2.97353 -3.23231 0
M  V30 5402 H 496.848 1.48118 -3.98674 0
M  V30 5403 N 495.163 1.55791 0.238111 0
M  V30 5404 C 496.126 1.90239 1.27835 0
M  V30 5405 C 497.126 0.779552 1.4064 0
M  V30 5406 O 498.316 1.04747 1.3919 0
M  V30 5407 C 495.448 2.13859 2.65475 0
M  V30 5408 H 496.641 2.83262 0.985034 0
M  V30 5409 H 494.194 1.48818 0.477799 0
M  V30 5410 H 494.929 1.23334 2.99932 0
M  V30 5411 H 494.714 2.95643 2.57561 0
M  V30 5412 H 496.204 2.41664 3.40571 0
M  V30 5413 N 496.642 -0.504142 1.49319 0
M  V30 5414 C 497.552 -1.63248 1.68486 0
M  V30 5415 C 498.568 -1.64488 0.567432 0
M  V30 5416 O 499.744 -1.82966 0.841749 0
M  V30 5417 C 496.809 -2.99627 1.74426 0
M  V30 5418 C 495.87 -3.09039 2.97982 0
M  V30 5419 C 495.103 -4.38913 3.0363 0
M  V30 5420 O 495.326 -5.27528 2.16958 0
M  V30 5421 O 494.26 -4.53231 3.96062 0
M  V30 5422 H 498.086 -1.50008 2.64067 0
M  V30 5423 H 495.671 -0.680086 1.33023 0
M  V30 5424 H 497.553 -3.80689 1.80705 0
M  V30 5425 H 496.228 -3.13136 0.820233 0
M  V30 5426 H 495.135 -2.27177 2.97223 0
M  V30 5427 H 496.468 -3.00456 3.89855 0
M  V30 5428 N 498.12 -1.38341 -0.754957 0
M  V30 5429 C 499.083 -1.35262 -1.85032 0
M  V30 5430 C 500.083 -0.253393 -1.58791 0
M  V30 5431 O 501.273 -0.510205 -1.66561 0
M  V30 5432 C 498.405 -1.10544 -3.22479 0
M  V30 5433 H 499.598 -2.32712 -1.8917 0
M  V30 5434 H 497.151 -1.23614 -0.956515 0
M  V30 5435 H 497.886 -0.136952 -3.24011 0
M  V30 5436 H 497.671 -1.90127 -3.4292 0
M  V30 5437 H 499.161 -1.11082 -4.02555 0
M  V30 5438 N 499.598 0.982988 -1.23187 0
M  V30 5439 C 500.823 1.76455 -1.08988 0
M  V30 5440 C 501.248 1.84726 0.354691 0
M  V30 5441 O 500.606 1.30699 1.25649 0
M  V30 5442 C 500.654 3.17094 -1.71708 0
M  V30 5443 O 499.758 4.00648 -0.977477 0
M  V30 5444 H 499.099 0.542988 -0.382177 0
M  V30 5445 H 501.629 1.23413 -1.63188 0
M  V30 5446 H 501.639 3.67684 -1.76841 0
M  V30 5447 H 500.314 3.10389 -2.76823 0
M  V30 5448 H 498.891 3.59161 -1.0029 0
M  V30 5449 N 501.076 1.04316 1.18135 0
M  V30 5450 C 502.304 0.768117 1.92113 0
M  V30 5451 C 502.719 -0.675057 1.76319 0
M  V30 5452 O 502.076 -1.46038 1.09449 0
M  V30 5453 C 502.127 1.12808 3.43448 0
M  V30 5454 O 501.848 2.5146 3.58747 0
M  V30 5455 C 503.349 0.8779 4.3452 0
M  V30 5456 H 500.569 0.279937 0.609817 0
M  V30 5457 H 503.113 1.39149 1.49859 0
M  V30 5458 H 501.268 0.549623 3.83481 0
M  V30 5459 H 501.682 2.65313 4.52448 0
M  V30 5460 H 503.156 1.17959 5.39249 0
M  V30 5461 H 503.633 -0.187239 4.38801 0
M  V30 5462 H 504.239 1.43977 4.00188 0
M  V30 5463 N 502.554 -1.34406 0.822964 0
M  V30 5464 C 503.486 -2.28305 0.202375 0
M  V30 5465 C 504.499 -1.5103 -0.60777 0
M  V30 5466 O 505.688 -1.73057 -0.437444 0
M  V30 5467 C 502.788 -3.30836 -0.734911 0
M  V30 5468 C 501.961 -4.37388 0.0324177 0
M  V30 5469 C 501.02 -5.1968 -0.825803 0
M  V30 5470 O 500.046 -5.68556 -0.270771 0
M  V30 5471 N 501.248 -5.39393 -2.14558 0
M  V30 5472 H 504.013 -2.82201 1.00909 0
M  V30 5473 H 501.574 -1.4693 0.67993 0
M  V30 5474 H 503.566 -3.82786 -1.31365 0
M  V30 5475 H 502.136 -2.77334 -1.44238 0
M  V30 5476 H 501.356 -3.86152 0.792469 0
M  V30 5477 H 502.644 -5.05702 0.560633 0
M  V30 5478 H 502.042 -5.01357 -2.62025 0
M  V30 5479 H 500.599 -5.94461 -2.67318 0
M  V30 5480 N 504.032 -0.577932 -1.46621 0
M  V30 5481 C 505.309 0.00495287 -1.95599 0
M  V30 5482 C 505.689 1.46428 -1.5206 0
M  V30 5483 O 505.037 2.1517 -0.769046 0
M  V30 5484 C 505.247 -0.162114 -3.48623 0
M  V30 5485 C 506.595 -0.0274623 -4.24591 0
M  V30 5486 O 507.619 -0.0907067 -3.56084 0
M  V30 5487 O 506.478 0.1122 -5.46385 0
M  V30 5488 H 503.572 0.0525057 -0.825332 0
M  V30 5489 H 506.118 -0.645914 -1.56927 0
M  V30 5490 H 504.89 -1.17679 -3.73185 0
M  V30 5491 H 504.513 0.525407 -3.94113 0
M  V30 5492 N 505.51 1.54411 -0.315457 0
M  V30 5493 C 506.921 1.85885 0.174265 0
M  V30 5494 C 507.272 1.23723 1.52273 0
M  V30 5495 O 506.397 0.540246 2.09548 0
M  V30 5496 C 506.992 3.37257 0.322981 0
M  V30 5497 C 505.551 3.68711 0.756922 0
M  V30 5498 C 504.698 2.77013 -0.126195 0
M  V30 5499 H 507.649 1.49374 -0.536007 0
M  V30 5500 H 507.67 3.62539 1.15522 0
M  V30 5501 H 507.182 3.82471 -0.658602 0
M  V30 5502 H 505.283 3.29024 1.74854 0
M  V30 5503 H 505.396 4.75741 0.566291 0
M  V30 5504 H 503.76 2.51588 0.39692 0
M  V30 5505 H 504.543 3.25051 -1.1044 0
M  V30 5506 N 506.988 0.0434614 1.5754 0
M  V30 5507 C 508.404 -0.313039 1.565 0
M  V30 5508 C 508.604 -1.71954 1.05043 0
M  V30 5509 O 507.66 -2.425 0.703564 0
M  V30 5510 C 508.973 -0.148544 3.00333 0
M  V30 5511 C 510.521 -0.220231 3.12224 0
M  V30 5512 C 510.996 -0.0843565 4.57922 0
M  V30 5513 N 512.487 -0.140881 4.62986 0
M  V30 5514 C 513.222 -0.0597443 5.73369 0
M  V30 5515 N 512.718 0.0733004 6.92761 0
M  V30 5516 N 514.511 -0.11477 5.61983 0
M  V30 5517 H 506.662 0.96303 1.89313 0
M  V30 5518 H 508.925 0.373164 0.871466 0
M  V30 5519 H 508.631 0.820894 3.41986 0
M  V30 5520 H 508.505 -0.912798 3.65989 0
M  V30 5521 H 510.892 -1.18014 2.70475 0
M  V30 5522 H 510.973 0.574646 2.49262 0
M  V30 5523 H 510.617 0.872192 5.00355 0
M  V30 5524 H 510.547 -0.898281 5.18882 0
M  V30 5525 H 513.038 -0.243273 3.77116 0
M  V30 5526 H 513.351 0.128128 7.72694 0
M  V30 5527 H 511.696 0.10828 6.94916 0
M  V30 5528 H 514.887 -0.217212 4.67596 0
M  V30 5529 H 515.06 -0.0480779 6.47982 0
M  V30 5530 N 508.466 -1.55915 -0.229846 0
M  V30 5531 C 509.715 -1.77742 -0.953455 0
M  V30 5532 C 510.028 -0.610524 -1.85828 0
M  V30 5533 O 511.234 -0.712219 -2.61992 0
M  V30 5534 C 509.69 -3.14738 -1.74551 0
M  V30 5535 C 509.298 -4.39126 -0.887242 0
M  V30 5536 C 511.042 -3.45895 -2.46084 0
M  V30 5537 C 508.949 -5.67149 -1.67617 0
M  V30 5538 H 507.879 -0.662648 -0.359741 0
M  V30 5539 H 510.53 -1.82322 -0.207576 0
M  V30 5540 H 508.912 -3.04311 -2.53399 0
M  V30 5541 H 510.086 -4.60588 -0.139892 0
M  V30 5542 H 508.401 -4.15427 -0.284443 0
M  V30 5543 H 510.998 -4.38767 -3.05594 0
M  V30 5544 H 511.341 -2.68007 -3.18556 0
M  V30 5545 H 511.874 -3.57614 -1.74233 0
M  V30 5546 H 508.613 -6.47906 -0.994881 0
M  V30 5547 H 508.133 -5.49763 -2.39836 0
M  V30 5548 H 509.812 -6.07025 -2.23898 0
M  V30 5549 N 509.944 0.496216 -1.49584 0
M  V30 5550 C 511.169 1.27865 -1.63295 0
M  V30 5551 C 511.594 1.85592 -0.306156 0
M  V30 5552 O 510.952 1.66092 0.726851 0
M  V30 5553 C 511 2.38128 -2.7079 0
M  V30 5554 O 510.104 3.42108 -2.30296 0
M  V30 5555 H 509.445 0.377279 -0.546403 0
M  V30 5556 H 511.975 0.593497 -1.95803 0
M  V30 5557 H 511.985 2.8382 -2.93104 0
M  V30 5558 H 510.66 1.95479 -3.67098 0
M  V30 5559 H 509.237 3.02301 -2.18331 0
M  V30 5560 N 511.423 1.38739 0.74761 0
M  V30 5561 C 512.834 1.31507 1.32524 0
M  V30 5562 C 513.185 -0.0263963 1.96182 0
M  V30 5563 O 512.31 -0.92849 1.95469 0
M  V30 5564 C 512.905 2.38162 2.40966 0
M  V30 5565 C 511.464 2.34489 2.94434 0
M  V30 5566 C 510.611 2.20712 1.67873 0
M  V30 5567 H 513.562 1.4901 0.546043 0
M  V30 5568 H 513.583 2.04222 3.21051 0
M  V30 5569 H 513.095 3.35783 1.94605 0
M  V30 5570 H 511.196 1.40467 3.45108 0
M  V30 5571 H 511.309 3.28861 3.48407 0
M  V30 5572 H 509.673 1.67667 1.91729 0
M  V30 5573 H 510.456 3.20285 1.23582 0
M  V30 5574 N 512.901 -0.976442 1.23707 0
M  V30 5575 C 513.831 -2.08749 1.04624 0
M  V30 5576 C 514.812 -1.70057 -0.0380956 0
M  V30 5577 O 515.997 -1.93782 0.127308 0
M  V30 5578 C 513.127 -3.41335 0.640902 0
M  V30 5579 C 512.081 -3.93947 1.67302 0
M  V30 5580 C 511.407 -5.22774 1.12301 0
M  V30 5581 C 512.707 -4.22769 3.06697 0
M  V30 5582 H 514.401 -2.24972 1.97555 0
M  V30 5583 H 511.947 -1.08108 0.951247 0
M  V30 5584 H 513.9 -4.18489 0.494434 0
M  V30 5585 H 512.624 -3.24988 -0.324099 0
M  V30 5586 H 511.283 -3.18941 1.80755 0
M  V30 5587 H 510.931 -5.0278 0.148877 0
M  V30 5588 H 510.631 -5.58942 1.81267 0
M  V30 5589 H 512.155 -6.02546 0.988479 0
M  V30 5590 H 513.569 -4.90659 2.96524 0
M  V30 5591 H 511.966 -4.70147 3.72937 0
M  V30 5592 H 513.036 -3.29885 3.55392 0
M  V30 5593 N 514.379 -1.04941 -1.1758 0
M  V30 5594 C 515.626 -0.757989 -1.87779 0
M  V30 5595 C 515.954 0.714827 -1.80888 0
M  V30 5596 O 515.209 1.53824 -1.20982 0
M  V30 5597 C 515.508 -1.18062 -3.37337 0
M  V30 5598 C 515.174 -2.65521 -3.6443 0
M  V30 5599 C 513.836 -3.05804 -3.71534 0
M  V30 5600 C 516.188 -3.60822 -3.76108 0
M  V30 5601 C 513.516 -4.40256 -3.87803 0
M  V30 5602 C 515.868 -4.95005 -3.93895 0
M  V30 5603 C 514.532 -5.34945 -3.99237 0
M  V30 5604 H 513.802 -0.277368 -0.68713 0
M  V30 5605 H 516.449 -1.31603 -1.39115 0
M  V30 5606 H 514.754 -0.541525 -3.8804 0
M  V30 5607 H 516.451 -0.932368 -3.9001 0
M  V30 5608 H 513.041 -2.33324 -3.59524 0
M  V30 5609 H 517.225 -3.30841 -3.69943 0
M  V30 5610 H 512.481 -4.70707 -3.90186 0
M  V30 5611 H 516.655 -5.68746 -4.01872 0
M  V30 5612 H 514.282 -6.39135 -4.11596 0
M  V30 5613 N 515.857 1.33968 -0.830081 0
M  V30 5614 C 517.105 1.97672 -0.420734 0
M  V30 5615 C 517.426 1.66111 1.02138 0
M  V30 5616 O 516.696 0.955503 1.71017 0
M  V30 5617 H 515.276 0.73125 -0.152587 0
M  V30 5618 H 517.938 1.63483 -1.0611 0
M  V30 5619 H 517.034 3.07294 -0.545588 0
M  V30 5620 N 517.335 0.585699 1.46312 0
M  V30 5621 C 518.285 -0.166813 2.27389 0
M  V30 5622 C 519.269 -0.859076 1.36047 0
M  V30 5623 O 520.461 -0.752678 1.60199 0
M  V30 5624 C 517.59 -1.17791 3.2246 0
M  V30 5625 C 516.676 -0.487605 4.21288 0
M  V30 5626 N 517.067 0.45849 5.03718 0
M  V30 5627 C 515.365 -0.737971 4.39852 0
M  V30 5628 C 516.066 0.862213 5.75275 0
M  V30 5629 N 515.042 0.210707 5.43191 0
M  V30 5630 H 518.844 0.560167 2.88512 0
M  V30 5631 H 516.358 0.407715 1.57199 0
M  V30 5632 H 518.355 -1.73122 3.79255 0
M  V30 5633 H 517.015 -1.90568 2.62896 0
M  V30 5634 H 518.026 0.834163 5.11138 0
M  V30 5635 H 514.703 -1.45209 3.91434 0
M  V30 5636 H 516.093 1.64128 6.51546 0
M  V30 5637 N 518.813 -1.54241 0.323641 0
M  V30 5638 C 519.743 -2.27289 -0.534993 0
M  V30 5639 C 520.724 -1.28087 -1.11927 0
M  V30 5640 O 521.909 -1.56899 -1.14439 0
M  V30 5641 C 519.039 -3.03075 -1.69596 0
M  V30 5642 C 517.993 -4.09614 -1.24098 0
M  V30 5643 C 517.319 -4.73242 -2.4889 0
M  V30 5644 C 518.619 -5.21087 -0.355789 0
M  V30 5645 H 520.313 -2.99308 0.0743257 0
M  V30 5646 H 517.859 -1.43952 0.0371874 0
M  V30 5647 H 519.812 -3.52907 -2.30293 0
M  V30 5648 H 518.536 -2.28673 -2.33187 0
M  V30 5649 H 517.195 -3.60666 -0.656945 0
M  V30 5650 H 516.843 -3.95455 -3.10845 0
M  V30 5651 H 516.543 -5.45209 -2.19138 0
M  V30 5652 H 518.067 -5.25848 -3.10348 0
M  V30 5653 H 519.481 -5.66675 -0.869042 0
M  V30 5654 H 517.878 -5.9991 -0.151045 0
M  V30 5655 H 518.948 -4.81005 0.613339 0
M  V30 5656 N 520.291 -0.0518155 -1.57515 0
M  V30 5657 C 521.568 0.661727 -1.84067 0
M  V30 5658 C 521.948 1.88999 -0.940351 0
M  V30 5659 O 521.296 2.285 -0.00155404 0
M  V30 5660 C 521.506 1.01841 -3.3381 0
M  V30 5661 C 522.854 1.40043 -4.00841 0
M  V30 5662 O 523.878 1.11073 -3.38439 0
M  V30 5663 O 522.737 1.94111 -5.10865 0
M  V30 5664 H 519.831 0.326702 -0.759733 0
M  V30 5665 H 522.377 -0.0812277 -1.69505 0
M  V30 5666 H 521.149 0.145202 -3.91031 0
M  V30 5667 H 520.772 1.81879 -3.53562 0
M  V30 5668 N 521.769 1.56035 0.221574 0
M  V30 5669 C 522.702 1.87427 1.30178 0
M  V30 5670 C 523.68 0.731658 1.45209 0
M  V30 5671 O 524.864 0.980016 1.61022 0
M  V30 5672 C 521.991 2.08127 2.67209 0
M  V30 5673 C 521.037 3.30813 2.69194 0
M  V30 5674 S 521.87 4.86738 2.23263 0
M  V30 5675 C 523.026 5.10474 3.62171 0
M  V30 5676 H 523.259 2.78756 1.03355 0
M  V30 5677 H 520.792 1.48469 0.423813 0
M  V30 5678 H 522.75 2.20736 3.46101 0
M  V30 5679 H 521.411 1.17595 2.91256 0
M  V30 5680 H 520.604 3.42341 3.6989 0
M  V30 5681 H 520.206 3.1706 1.98366 0
M  V30 5682 H 522.498 4.9937 4.5786 0
M  V30 5683 H 523.441 6.12359 3.55558 0
M  V30 5684 H 523.849 4.38208 3.55857 0
M  V30 5685 N 523.247 -0.488276 1.49845 0
M  V30 5686 C 524.197 -1.58556 1.63842 0
M  V30 5687 C 525.181 -1.53142 0.493586 0
M  V30 5688 O 526.373 -1.60457 0.747169 0
M  V30 5689 C 523.502 -2.97101 1.72005 0
M  V30 5690 C 522.588 -3.07463 2.92108 0
M  V30 5691 N 522.979 -2.87681 4.16021 0
M  V30 5692 C 521.277 -3.3858 2.90309 0
M  V30 5693 C 521.978 -3.0256 4.96822 0
M  V30 5694 N 520.954 -3.32002 4.30437 0
M  V30 5695 H 524.756 -1.41935 2.57355 0
M  V30 5696 H 522.27 -0.694668 1.46793 0
M  V30 5697 H 524.267 -3.75976 1.80132 0
M  V30 5698 H 522.927 -3.14782 0.796375 0
M  V30 5699 H 523.938 -2.63603 4.45796 0
M  V30 5700 H 520.615 -3.62357 2.07372 0
M  V30 5701 H 522.005 -2.9165 6.05301 0
M  V30 5702 N 524.725 -1.39134 -0.740242 0
M  V30 5703 C 525.95 -1.39518 -1.53459 0
M  V30 5704 C 526.375 0.00968883 -1.88098 0
M  V30 5705 O 525.733 0.995312 -1.51536 0
M  V30 5706 C 525.781 -2.26981 -2.802 0
M  V30 5707 O 524.885 -1.69609 -3.75908 0
M  V30 5708 H 524.226 -0.475328 -0.463637 0
M  V30 5709 H 526.756 -1.83064 -0.913717 0
M  V30 5710 H 526.766 -2.41309 -3.28989 0
M  V30 5711 H 525.441 -3.29081 -2.5432 0
M  V30 5712 H 524.018 -1.64495 -3.34658 0
M  V30 5713 N 526.204 0.969867 -1.24223 0
M  V30 5714 C 527.452 1.70918 -1.0785 0
M  V30 5715 C 527.773 1.91186 0.383763 0
M  V30 5716 O 527.043 1.48806 1.27411 0
M  V30 5717 H 525.623 0.633334 -0.396103 0
M  V30 5718 H 528.285 1.16689 -1.56108 0
M  V30 5719 H 527.381 2.69455 -1.57482 0
M  V30 5720 N 527.682 1.05563 1.17022 0
M  V30 5721 C 528.645 0.664098 2.19368 0
M  V30 5722 C 529.645 -0.286358 1.5823 0
M  V30 5723 O 530.835 -0.069728 1.7406 0
M  V30 5724 C 527.967 -0.0239932 3.40892 0
M  V30 5725 H 529.16 1.57 2.55521 0
M  V30 5726 H 526.713 0.849964 1.31169 0
M  V30 5727 H 527.448 -0.942988 3.10287 0
M  V30 5728 H 527.233 0.659351 3.86516 0
M  V30 5729 H 528.723 -0.283909 4.16634 0
M  V30 5730 N 529.16 -1.33526 0.837174 0
M  V30 5731 C 530.092 -2.28077 0.226579 0
M  V30 5732 C 531.105 -1.51666 -0.591717 0
M  V30 5733 O 532.294 -1.73511 -0.419064 0
M  V30 5734 C 529.394 -3.31597 -0.69978 0
M  V30 5735 C 528.567 -4.37329 0.0788067 0
M  V30 5736 C 527.626 -5.20526 -0.770637 0
M  V30 5737 O 526.652 -5.68811 -0.210453 0
M  V30 5738 N 527.854 -5.41639 -2.08825 0
M  V30 5739 H 530.619 -2.81115 1.03897 0
M  V30 5740 H 528.18 -1.46201 0.695476 0
M  V30 5741 H 530.172 -3.84158 -1.27298 0
M  V30 5742 H 528.742 -2.78848 -1.41288 0
M  V30 5743 H 527.962 -3.8529 0.833381 0
M  V30 5744 H 529.25 -5.05079 0.614238 0
M  V30 5745 H 528.648 -5.04108 -2.56693 0
M  V30 5746 H 527.205 -5.97263 -2.60998 0
M  V30 5747 N 530.638 -0.59345 -1.46 0
M  V30 5748 C 531.863 -0.0872365 -2.07216 0
M  V30 5749 C 532.288 1.2131 -1.43755 0
M  V30 5750 O 531.646 1.73528 -0.525152 0
M  V30 5751 C 531.694 0.0538197 -3.6056 0
M  V30 5752 O 530.798 1.10765 -3.97247 0
M  V30 5753 H 530.139 -0.0676598 -0.660544 0
M  V30 5754 H 532.669 -0.819445 -1.87473 0
M  V30 5755 H 532.679 0.256567 -4.07193 0
M  V30 5756 H 531.354 -0.895739 -4.0614 0
M  V30 5757 H 529.931 0.882501 -3.62307 0
M  V30 5758 N 532.116 1.54067 -0.331816 0
M  V30 5759 C 533.364 2.00319 0.267739 0
M  V30 5760 C 533.685 1.22148 1.52003 0
M  V30 5761 O 532.955 0.325494 1.93177 0
M  V30 5762 H 531.535 0.740014 0.101922 0
M  V30 5763 H 534.197 1.89628 -0.450267 0
M  V30 5764 H 533.293 3.07765 0.518385 0
M  V30 5765 N 533.594 0.0601682 1.57485 0
M  V30 5766 C 535.005 -0.474217 1.80577 0
M  V30 5767 C 535.356 -1.70365 0.973147 0
M  V30 5768 O 534.481 -2.15544 0.192306 0
M  V30 5769 C 535.076 -0.867102 3.27516 0
M  V30 5770 C 533.635 -1.34642 3.51495 0
M  V30 5771 C 532.782 -0.32594 2.75378 0
M  V30 5772 H 535.733 0.285973 1.56102 0
M  V30 5773 H 535.754 -1.72938 3.38929 0
M  V30 5774 H 535.266 0.0278927 3.8809 0
M  V30 5775 H 533.367 -2.2603 2.96212 0
M  V30 5776 H 533.48 -1.33237 4.60201 0
M  V30 5777 H 531.844 -0.800749 2.41785 0
M  V30 5778 H 532.627 0.561125 3.38683 0
M  V30 5779 N 535.072 -1.5615 -0.213296 0
M  V30 5780 C 536.005 -1.88115 -1.29182 0
M  V30 5781 C 536.983 -0.739348 -1.44819 0
M  V30 5782 O 538.167 -0.988541 -1.605 0
M  V30 5783 C 535.294 -2.09541 -2.66102 0
M  V30 5784 C 534.34 -3.32236 -2.67436 0
M  V30 5785 S 535.173 -4.87915 -2.20679 0
M  V30 5786 C 536.329 -5.12387 -3.59458 0
M  V30 5787 H 536.562 -2.793 -1.01876 0
M  V30 5788 H 534.095 -1.48692 -0.415934 0
M  V30 5789 H 536.053 -2.22568 -3.44925 0
M  V30 5790 H 534.714 -1.19138 -2.90628 0
M  V30 5791 H 533.907 -3.44297 -3.6807 0
M  V30 5792 H 533.509 -3.18108 -1.96681 0
M  V30 5793 H 535.801 -5.01791 -4.55205 0
M  V30 5794 H 536.744 -6.14236 -3.52306 0
M  V30 5795 H 537.152 -4.40089 -3.53528 0
M  V30 5796 N 536.55 0.480323 -1.50102 0
M  V30 5797 C 537.5 1.57685 -1.6468 0
M  V30 5798 C 538.484 1.52878 -0.5017 0
M  V30 5799 O 539.676 1.60058 -0.755668 0
M  V30 5800 C 536.805 2.96185 -1.73578 0
M  V30 5801 C 535.891 3.0591 -2.93734 0
M  V30 5802 N 536.282 2.85471 -4.1754 0
M  V30 5803 C 534.58 3.37036 -2.92101 0
M  V30 5804 C 535.281 2.99921 -4.9842 0
M  V30 5805 N 534.257 3.29715 -4.32191 0
M  V30 5806 H 538.059 1.40568 -2.58104 0
M  V30 5807 H 535.573 0.686874 -1.47159 0
M  V30 5808 H 537.57 3.75015 -1.82124 0
M  V30 5809 H 536.23 3.14356 -0.813057 0
M  V30 5810 H 537.241 2.61235 -4.47188 0
M  V30 5811 H 533.918 3.61253 -2.09291 0
M  V30 5812 H 535.308 2.88436 -6.06839 0
M  V30 5813 N 538.028 1.39524 0.732853 0
M  V30 5814 C 539.276 1.36594 1.48951 0
M  V30 5815 C 539.597 -0.0367507 1.94965 0
M  V30 5816 O 538.867 -0.988391 1.69138 0
M  V30 5817 H 537.447 0.502673 0.552566 0
M  V30 5818 H 540.109 1.74411 0.869869 0
M  V30 5819 H 539.205 2.03 2.3706 0
M  V30 5820 N 539.506 -0.963266 1.24736 0
M  V30 5821 C 540.753 -1.7068 1.0897 0
M  V30 5822 C 541.081 -1.90934 -0.370751 0
M  V30 5823 O 540.336 -1.47155 -1.29011 0
M  V30 5824 C 540.635 -3.09944 1.7796 0
M  V30 5825 C 540.301 -3.09518 3.27887 0
M  V30 5826 C 538.963 -3.09109 3.68789 0
M  V30 5827 C 541.315 -3.03509 4.23712 0
M  V30 5828 C 538.643 -3.00429 5.03944 0
M  V30 5829 C 540.995 -2.96371 5.5888 0
M  V30 5830 C 539.659 -2.94293 5.99123 0
M  V30 5831 H 538.929 -0.624564 0.398749 0
M  V30 5832 H 541.576 -1.12603 1.54896 0
M  V30 5833 H 539.881 -3.71513 1.2444 0
M  V30 5834 H 541.578 -3.66278 1.63222 0
M  V30 5835 H 538.168 -3.10603 2.95337 0
M  V30 5836 H 542.352 -3.0295 3.93109 0
M  V30 5837 H 537.608 -2.97183 5.34314 0
M  V30 5838 H 541.782 -2.90681 6.32833 0
M  V30 5839 H 539.409 -2.87322 7.03811 0
M  V30 5840 N 540.985 -1.06182 -1.16461 0
M  V30 5841 C 542.233 -0.776326 -1.86595 0
M  V30 5842 C 542.554 0.69921 -1.82033 0
M  V30 5843 O 541.824 1.50579 -1.2531 0
M  V30 5844 H 540.404 -0.284184 -0.690832 0
M  V30 5845 H 543.066 -1.34308 -1.41235 0
M  V30 5846 H 542.162 -1.10022 -2.92064 0
M  V30 5847 N 542.463 1.3308 -0.844243 0
M  V30 5848 C 543.71 1.97605 -0.44255 0
M  V30 5849 C 544.038 1.66856 0.999458 0
M  V30 5850 O 543.293 0.943586 1.7145 0
M  V30 5851 C 543.592 3.52045 -0.616354 0
M  V30 5852 C 543.258 4.02757 -2.02726 0
M  V30 5853 C 541.92 4.16316 -2.41317 0
M  V30 5854 C 544.272 4.29776 -2.9486 0
M  V30 5855 C 541.6 4.54232 -3.71335 0
M  V30 5856 C 543.952 4.69146 -4.24364 0
M  V30 5857 C 542.616 4.80911 -4.62904 0
M  V30 5858 H 541.886 0.723088 -0.161941 0
M  V30 5859 H 544.533 1.58663 -1.0723 0
M  V30 5860 H 542.838 3.91681 0.0966812 0
M  V30 5861 H 544.535 3.99981 -0.285756 0
M  V30 5862 H 541.125 3.9268 -1.71756 0
M  V30 5863 H 545.309 4.18818 -2.6628 0
M  V30 5864 H 540.565 4.61535 -4.00993 0
M  V30 5865 H 544.739 4.89008 -4.95827 0
M  V30 5866 H 542.366 5.10048 -5.63698 0
M  V30 5867 N 543.941 0.601185 1.45683 0
M  V30 5868 C 545.189 0.0936957 2.01883 0
M  V30 5869 C 545.51 -1.2779 1.47291 0
M  V30 5870 O 544.78 -1.84279 0.664691 0
M  V30 5871 H 543.36 0.0316466 0.746329 0
M  V30 5872 H 546.022 0.781137 1.78562 0
M  V30 5873 H 545.118 0.0386297 3.12076 0
M  V30 5874 N 545.419 -1.53889 0.339982 0
M  V30 5875 C 546.349 -2.27843 -0.510856 0
M  V30 5876 C 547.33 -1.29267 -1.10563 0
M  V30 5877 O 548.515 -1.58104 -1.12768 0
M  V30 5878 C 545.645 -3.04857 -1.66372 0
M  V30 5879 C 544.599 -4.10907 -1.19746 0
M  V30 5880 C 543.925 -4.75855 -2.43857 0
M  V30 5881 C 545.225 -5.21435 -0.300501 0
M  V30 5882 H 546.919 -2.99212 0.106067 0
M  V30 5883 H 544.465 -1.43904 0.0524533 0
M  V30 5884 H 546.418 -3.5533 -2.26537 0
M  V30 5885 H 545.142 -2.31133 -2.30749 0
M  V30 5886 H 543.801 -3.61342 -0.618654 0
M  V30 5887 H 543.449 -3.9873 -3.06633 0
M  V30 5888 H 543.149 -5.47502 -2.13343 0
M  V30 5889 H 544.673 -5.2911 -3.04754 0
M  V30 5890 H 546.087 -5.67565 -0.80889 0
M  V30 5891 H 544.484 -6.00036 -0.0874076 0
M  V30 5892 H 545.554 -4.80328 0.664321 0
M  V30 5893 N 546.897 -0.0685191 -1.57451 0
M  V30 5894 C 548.308 0.464634 -1.80826 0
M  V30 5895 C 548.659 1.69847 -0.982169 0
M  V30 5896 O 547.784 2.15439 -0.203734 0
M  V30 5897 C 548.379 0.849721 -3.27971 0
M  V30 5898 C 546.938 1.32776 -3.52204 0
M  V30 5899 C 546.085 0.311332 -2.75547 0
M  V30 5900 H 549.036 -0.294248 -1.55948 0
M  V30 5901 H 549.057 1.71138 -3.39841 0
M  V30 5902 H 548.569 -0.0484736 -3.8807 0
M  V30 5903 H 546.67 2.24456 -2.97406 0
M  V30 5904 H 546.783 1.30794 -4.60901 0
M  V30 5905 H 545.147 0.787915 -2.42206 0
M  V30 5906 H 545.93 -0.579078 -3.38381 0
M  V30 5907 N 548.375 1.56261 0.205012 0
M  V30 5908 C 549.603 1.84141 0.943386 0
M  V30 5909 C 550.018 0.649772 1.77266 0
M  V30 5910 O 549.375 -0.381612 1.78466 0
M  V30 5911 C 549.426 3.10719 1.84759 0
M  V30 5912 O 549.147 4.25286 1.05181 0
M  V30 5913 C 550.648 3.51706 2.69848 0
M  V30 5914 H 547.868 0.611734 0.275721 0
M  V30 5915 H 550.412 2.03364 0.215253 0
M  V30 5916 H 548.567 2.93422 2.52947 0
M  V30 5917 H 548.981 4.97301 1.66709 0
M  V30 5918 H 550.455 4.43266 3.28967 0
M  V30 5919 H 550.932 2.7423 3.43067 0
M  V30 5920 H 551.538 3.71499 2.07047 0
M  V30 5921 N 549.853 -0.472356 1.50355 0
M  V30 5922 C 551.078 -1.25251 1.65309 0
M  V30 5923 C 551.503 -1.85081 0.335643 0
M  V30 5924 O 550.861 -1.67227 -0.700335 0
M  V30 5925 C 550.909 -2.3379 2.74544 0
M  V30 5926 O 550.013 -3.38401 2.35709 0
M  V30 5927 H 549.354 -0.368539 0.552336 0
M  V30 5928 H 551.884 -0.562271 1.96722 0
M  V30 5929 H 551.894 -2.79121 2.97583 0
M  V30 5930 H 550.569 -1.89614 3.70161 0
M  V30 5931 H 549.146 -2.9879 2.23112 0
M  V30 5932 N 551.331 -1.39911 -0.725443 0
M  V30 5933 C 552.747 -1.21725 -1.03224 0
M  V30 5934 C 552.947 -0.0855224 -2.01318 0
M  V30 5935 O 552.003 0.55976 -2.46217 0
M  V30 5936 C 553.316 -2.55511 -1.58539 0
M  V30 5937 C 554.864 -2.62439 -1.70572 0
M  V30 5938 C 555.339 -3.9647 -2.29294 0
M  V30 5939 N 556.83 -3.98159 -2.36692 0
M  V30 5940 C 557.565 -4.98647 -2.83088 0
M  V30 5941 N 557.061 -6.0953 -3.2931 0
M  V30 5942 N 558.854 -4.8602 -2.82384 0
M  V30 5943 H 551.005 -2.12267 -0.075048 0
M  V30 5944 H 553.268 -0.943136 -0.0959066 0
M  V30 5945 H 552.974 -3.38926 -0.939249 0
M  V30 5946 H 552.848 -2.75905 -2.57208 0
M  V30 5947 H 555.235 -1.79401 -2.34306 0
M  V30 5948 H 555.316 -2.45885 -0.705297 0
M  V30 5949 H 554.96 -4.79942 -1.66186 0
M  V30 5950 H 554.89 -4.10349 -3.30032 0
M  V30 5951 H 557.381 -3.18085 -2.04035 0
M  V30 5952 H 557.694 -6.82106 -3.6325 0
M  V30 5953 H 556.039 -6.1311 -3.27294 0
M  V30 5954 H 559.23 -3.98493 -2.45603 0
M  V30 5955 H 559.403 -5.64478 -3.18226 0
M  V30 5956 N 552.809 0.956637 -1.25245 0
M  V30 5957 C 553.772 2.03457 -1.05537 0
M  V30 5958 C 554.772 1.60798 -0.00886317 0
M  V30 5959 O 555.962 1.72384 -0.250865 0
M  V30 5960 C 553.094 3.35543 -0.601965 0
M  V30 5961 H 554.287 2.22372 -2.01223 0
M  V30 5962 H 551.84 1.13344 -1.07623 0
M  V30 5963 H 552.575 3.22323 0.357584 0
M  V30 5964 H 552.36 3.67854 -1.35743 0
M  V30 5965 H 553.85 4.14769 -0.485454 0
M  V30 5966 N 554.287 1.06798 1.15896 0
M  V30 5967 C 555.517 0.807522 1.90165 0
M  V30 5968 C 555.925 -0.642417 1.7796 0
M  V30 5969 O 555.268 -1.45193 1.12537 0
M  V30 5970 C 555.33 1.12939 3.41299 0
M  V30 5971 C 554.994 2.57879 3.7729 0
M  V30 5972 C 555.991 3.56118 3.78782 0
M  V30 5973 C 553.676 2.93311 4.07767 0
M  V30 5974 C 555.67 4.87827 4.10248 0
M  V30 5975 C 553.357 4.25219 4.38899 0
M  V30 5976 C 554.355 5.22287 4.4012 0
M  V30 5977 O 554.043 6.51826 4.70508 0
M  V30 5978 H 553.775 0.291946 0.609708 0
M  V30 5979 H 556.329 1.42627 1.47806 0
M  V30 5980 H 554.559 0.45359 3.84031 0
M  V30 5981 H 556.248 0.852363 3.9685 0
M  V30 5982 H 557.014 3.30086 3.55342 0
M  V30 5983 H 552.893 2.18409 4.05979 0
M  V30 5984 H 556.437 5.63586 4.11116 0
M  V30 5985 H 552.334 4.51006 4.61805 0
M  V30 5986 H 553.102 6.56893 4.88298 0
M  V30 5987 N 555.766 -1.3263 0.851289 0
M  V30 5988 C 556.729 -2.27247 0.298541 0
M  V30 5989 C 557.729 -1.51467 -0.539847 0
M  V30 5990 O 558.919 -1.7061 -0.351843 0
M  V30 5991 C 556.051 -3.35964 -0.578004 0
M  V30 5992 H 557.244 -2.7765 1.13359 0
M  V30 5993 H 554.797 -1.43245 0.625354 0
M  V30 5994 H 555.532 -2.90823 -1.435 0
M  V30 5995 H 555.317 -3.92094 0.0220539 0
M  V30 5996 H 556.807 -4.06472 -0.957626 0
M  V30 5997 N 557.244 -0.608902 -1.45362 0
M  V30 5998 C 558.154 0.110969 -2.34337 0
M  V30 5999 C 559.17 0.859007 -1.51318 0
M  V30 6000 O 560.346 0.816296 -1.84116 0
M  V30 6001 C 557.411 1.09494 -3.28956 0
M  V30 6002 C 556.472 0.348718 -4.27881 0
M  V30 6003 C 555.705 1.28582 -5.17979 0
M  V30 6004 O 555.928 2.52369 -5.11533 0
M  V30 6005 O 554.862 0.782172 -5.96796 0
M  V30 6006 H 558.688 -0.620258 -2.97299 0
M  V30 6007 H 556.273 -0.36916 -1.44767 0
M  V30 6008 H 558.155 1.66163 -3.87257 0
M  V30 6009 H 556.83 1.80717 -2.68557 0
M  V30 6010 H 555.737 -0.260465 -3.73192 0
M  V30 6011 H 557.07 -0.323049 -4.91139 0
M  V30 6012 N 558.722 1.53707 -0.348139 0
M  V30 6013 C 559.952 2.05108 0.247864 0
M  V30 6014 C 560.36 1.22252 1.44399 0
M  V30 6015 O 559.703 0.251853 1.81965 0
M  V30 6016 C 559.765 3.52171 0.722187 0
M  V30 6017 C 559.429 4.5562 -0.354902 0
M  V30 6018 C 560.426 5.05883 -1.19911 0
M  V30 6019 C 558.111 4.99703 -0.510145 0
M  V30 6020 C 560.105 5.98814 -2.18406 0
M  V30 6021 C 557.792 5.92443 -1.49848 0
M  V30 6022 C 558.79 6.41887 -2.33389 0
M  V30 6023 O 558.478 7.32802 -3.3054 0
M  V30 6024 H 558.21 0.674086 0.0508296 0
M  V30 6025 H 560.764 1.99229 -0.49968 0
M  V30 6026 H 558.994 3.55529 1.52105 0
M  V30 6027 H 560.683 3.8652 1.23925 0
M  V30 6028 H 561.449 4.72586 -1.09028 0
M  V30 6029 H 557.328 4.60816 0.130274 0
M  V30 6030 H 560.872 6.3733 -2.83649 0
M  V30 6031 H 556.769 6.25155 -1.60786 0
M  V30 6032 H 557.537 7.50749 -3.26064 0
M  V30 6033 N 560.2 0.0768682 1.57412 0
M  V30 6034 C 561.13 -0.886026 2.16037 0
M  V30 6035 C 562.111 -1.30691 1.08876 0
M  V30 6036 O 563.296 -1.37705 1.36934 0
M  V30 6037 C 560.426 -2.1518 2.72608 0
M  V30 6038 C 559.38 -1.87015 3.8498 0
M  V30 6039 C 558.706 -3.20266 4.28175 0
M  V30 6040 C 560.006 -1.17143 5.08994 0
M  V30 6041 H 561.7 -0.397642 2.96748 0
M  V30 6042 H 559.246 -0.189823 1.42743 0
M  V30 6043 H 561.199 -2.82962 3.12266 0
M  V30 6044 H 559.923 -2.66269 1.89125 0
M  V30 6045 H 558.582 -1.21636 3.45833 0
M  V30 6046 H 558.23 -3.69207 3.41607 0
M  V30 6047 H 557.93 -3.0221 5.03927 0
M  V30 6048 H 559.454 -3.89237 4.70454 0
M  V30 6049 H 560.868 -1.75003 5.45937 0
M  V30 6050 H 559.265 -1.09328 5.90057 0
M  V30 6051 H 560.335 -0.151295 4.84664 0
M  V30 6052 N 561.678 -1.56367 -0.196722 0
M  V30 6053 C 562.926 -1.80172 -0.915554 0
M  V30 6054 C 563.247 -0.649649 -1.8386 0
M  V30 6055 O 562.517 0.332111 -1.93064 0
M  V30 6056 H 561.097 -0.664592 -0.341067 0
M  V30 6057 H 563.759 -1.93844 -0.202622 0
M  V30 6058 H 562.855 -2.7327 -1.50764 0
M  V30 6059 N 563.156 0.464375 -1.50603 0
M  V30 6060 C 564.404 1.21356 -1.61608 0
M  V30 6061 C 564.725 1.92329 -0.321643 0
M  V30 6062 O 563.995 1.84403 0.661232 0
M  V30 6063 H 562.575 0.45094 -0.595535 0
M  V30 6064 H 565.237 0.535046 -1.87412 0
M  V30 6065 H 564.333 1.95783 -2.43054 0
M  V30 6066 N 564.634 1.40294 0.718013 0
M  V30 6067 C 565.859 1.41941 1.5122 0
M  V30 6068 C 566.284 0.0202371 1.88089 0
M  V30 6069 O 565.642 -0.971078 1.53101 0
M  V30 6070 C 565.69 2.3141 2.76554 0
M  V30 6071 O 564.794 1.75567 3.73162 0
M  V30 6072 H 564.135 0.482644 0.456016 0
M  V30 6073 H 566.665 1.84494 0.884478 0
M  V30 6074 H 566.675 2.46513 3.25108 0
M  V30 6075 H 565.35 3.33085 2.49053 0
M  V30 6076 H 563.927 1.69798 3.31999 0
M  V30 6077 N 566.112 -0.949982 1.2575 0
M  V30 6078 C 567.042 -2.06483 1.09028 0
M  V30 6079 C 568.023 -1.701 -0.00201532 0
M  V30 6080 O 569.208 -1.93469 0.168383 0
M  V30 6081 C 566.338 -3.39899 0.71316 0
M  V30 6082 C 565.292 -3.90309 1.75621 0
M  V30 6083 C 564.618 -5.20274 1.23365 0
M  V30 6084 C 565.918 -4.16169 3.15596 0
M  V30 6085 H 567.612 -2.20731 2.02283 0
M  V30 6086 H 565.158 -1.06066 0.973964 0
M  V30 6087 H 567.111 -4.17346 0.58309 0
M  V30 6088 H 565.835 -3.25602 -0.255091 0
M  V30 6089 H 564.494 -3.15035 1.8748 0
M  V30 6090 H 564.142 -5.02351 0.255491 0
M  V30 6091 H 563.842 -5.54971 1.93082 0
M  V30 6092 H 565.366 -6.00314 1.11607 0
M  V30 6093 H 566.78 -4.84259 3.06864 0
M  V30 6094 H 565.177 -4.62131 3.82825 0
M  V30 6095 H 566.247 -3.22273 3.6231 0
M  V30 6096 N 567.59 -1.07411 -1.15328 0
M  V30 6097 C 568.522 -0.652924 -2.19703 0
M  V30 6098 C 569.535 0.294869 -1.60107 0
M  V30 6099 O 570.724 0.0840932 -1.78302 0
M  V30 6100 C 567.824 0.061434 -3.38844 0
M  V30 6101 C 566.997 -0.902696 -4.27984 0
M  V30 6102 C 566.056 -0.225521 -5.25717 0
M  V30 6103 O 565.082 -0.86676 -5.62562 0
M  V30 6104 N 566.284 1.02858 -5.71315 0
M  V30 6105 H 569.049 -1.55081 -2.56457 0
M  V30 6106 H 566.61 -0.958883 -1.30449 0
M  V30 6107 H 568.602 0.525145 -4.01278 0
M  V30 6108 H 567.172 0.861269 -3.00501 0
M  V30 6109 H 566.392 -1.54551 -3.6264 0
M  V30 6110 H 567.68 -1.55636 -4.84412 0
M  V30 6111 H 567.078 1.56948 -5.43492 0
M  V30 6112 H 565.635 1.43596 -6.35786 0
M  V30 6113 N 569.068 1.32177 -0.85831 0
M  V30 6114 C 569.998 2.31282 -0.321041 0
M  V30 6115 C 570.979 1.59841 0.581786 0
M  V30 6116 O 572.164 1.87619 0.501262 0
M  V30 6117 C 569.294 3.4385 0.48832 0
M  V30 6118 C 568.248 4.26799 -0.320391 0
M  V30 6119 C 567.574 5.31164 0.613934 0
M  V30 6120 C 568.874 4.98829 -1.54813 0
M  V30 6121 H 570.568 2.76469 -1.14915 0
M  V30 6122 H 568.114 1.32916 -0.554028 0
M  V30 6123 H 570.067 4.12224 0.874626 0
M  V30 6124 H 568.791 2.97401 1.34983 0
M  V30 6125 H 567.45 3.60077 -0.688497 0
M  V30 6126 H 567.098 4.80967 1.47239 0
M  V30 6127 H 566.798 5.8755 0.0768097 0
M  V30 6128 H 568.322 6.024 0.997336 0
M  V30 6129 H 569.736 5.59864 -1.23392 0
M  V30 6130 H 568.133 5.64957 -2.02346 0
M  V30 6131 H 569.203 4.26483 -2.30739 0
M  V30 6132 N 570.547 0.616602 1.45037 0
M  V30 6133 C 571.479 -0.135186 2.28801 0
M  V30 6134 C 572.492 -0.82303 1.40464 0
M  V30 6135 O 573.681 -0.686909 1.64754 0
M  V30 6136 C 570.781 -1.21292 3.16451 0
M  V30 6137 C 569.954 -0.61043 4.3312 0
M  V30 6138 C 569.013 -1.58022 5.01912 0
M  V30 6139 O 568.039 -1.10301 5.58411 0
M  V30 6140 N 569.241 -2.91464 5.02025 0
M  V30 6141 H 572.006 0.583612 2.93963 0
M  V30 6142 H 569.567 0.456723 1.55324 0
M  V30 6143 H 571.559 -1.86169 3.59337 0
M  V30 6144 H 570.129 -1.83412 2.53138 0
M  V30 6145 H 569.349 0.216638 3.93604 0
M  V30 6146 H 570.637 -0.188293 5.08451 0
M  V30 6147 H 570.035 -3.32829 4.57429 0
M  V30 6148 H 568.592 -3.51741 5.48745 0
M  V30 6149 N 572.025 -1.5352 0.356285 0
M  V30 6150 C 573.25 -2.06007 -0.239961 0
M  V30 6151 C 573.675 -1.22872 -1.42422 0
M  V30 6152 O 573.033 -0.245516 -1.7963 0
M  V30 6153 C 573.081 -3.5522 -0.620587 0
M  V30 6154 O 572.185 -3.74864 -1.71902 0
M  V30 6155 H 571.526 -0.662961 -0.0371377 0
M  V30 6156 H 574.056 -1.98033 0.514194 0
M  V30 6157 H 574.066 -3.98081 -0.894197 0
M  V30 6158 H 572.741 -4.15175 0.245407 0
M  V30 6159 H 571.318 -3.43904 -1.44169 0
M  V30 6160 N 573.503 -0.0852151 -1.57369 0
M  V30 6161 C 574.433 0.874556 -2.16503 0
M  V30 6162 C 575.414 1.30111 -1.09568 0
M  V30 6163 O 576.599 1.36977 -1.37662 0
M  V30 6164 C 573.729 2.13731 -2.73745 0
M  V30 6165 C 572.683 1.84971 -3.85966 0
M  V30 6166 C 572.009 3.17991 -4.29867 0
M  V30 6167 C 573.309 1.14442 -5.09608 0
M  V30 6168 H 575.003 0.381899 -2.96954 0
M  V30 6169 H 572.549 0.18225 -1.42842 0
M  V30 6170 H 574.502 2.81302 -3.13763 0
M  V30 6171 H 573.226 2.65263 -1.90534 0
M  V30 6172 H 571.885 1.19801 -3.46473 0
M  V30 6173 H 571.533 3.6739 -3.4356 0
M  V30 6174 H 571.233 2.99534 -5.05523 0
M  V30 6175 H 572.757 3.86737 -4.72511 0
M  V30 6176 H 574.171 1.72105 -5.46857 0
M  V30 6177 H 572.568 1.06197 -5.90629 0
M  V30 6178 H 573.638 0.12559 -4.84737 0
M  V30 6179 N 574.981 1.5647 0.188427 0
M  V30 6180 C 575.913 1.91611 1.25769 0
M  V30 6181 C 576.926 0.807436 1.41366 0
M  V30 6182 O 578.115 1.08586 1.41673 0
M  V30 6183 C 575.215 2.13874 2.6289 0
M  V30 6184 C 574.388 3.45047 2.68815 0
M  V30 6185 C 573.447 3.56342 3.87178 0
M  V30 6186 O 572.473 4.29109 3.73971 0
M  V30 6187 N 573.675 2.89924 5.02916 0
M  V30 6188 H 576.44 2.8393 0.959373 0
M  V30 6189 H 574.001 1.57418 0.378306 0
M  V30 6190 H 575.993 2.18713 3.4051 0
M  V30 6191 H 574.563 1.28022 2.85183 0
M  V30 6192 H 573.783 3.52017 1.77419 0
M  V30 6193 H 575.071 4.31395 2.6977 0
M  V30 6194 H 574.469 2.30644 5.16546 0
M  V30 6195 H 573.026 3.0038 5.78459 0
M  V30 6196 N 576.459 -0.456382 1.50847 0
M  V30 6197 C 577.707 -1.20497 1.62249 0
M  V30 6198 C 578.028 -1.92156 0.331839 0
M  V30 6199 O 577.298 -1.84751 -0.651443 0
M  V30 6200 H 575.878 -0.447775 0.597918 0
M  V30 6201 H 578.54 -0.525099 1.87693 0
M  V30 6202 H 577.636 -1.94492 2.44089 0
M  V30 6203 N 577.937 -1.40673 -0.710563 0
M  V30 6204 C 579.186 -1.38525 -1.46607 0
M  V30 6205 C 579.499 0.0077024 -1.95598 0
M  V30 6206 O 580.705 0.151792 -2.71075 0
M  V30 6207 C 579.161 -2.43489 -2.6503 0
M  V30 6208 C 578.769 -3.88619 -2.22888 0
M  V30 6209 C 580.513 -2.50456 -3.42742 0
M  V30 6210 C 578.42 -4.85168 -3.3818 0
M  V30 6211 H 577.35 -0.515092 -0.550632 0
M  V30 6212 H 580.001 -1.66431 -0.772846 0
M  V30 6213 H 578.383 -2.0869 -3.36548 0
M  V30 6214 H 579.557 -4.32588 -1.58758 0
M  V30 6215 H 577.872 -3.85174 -1.58208 0
M  V30 6216 H 580.469 -3.19776 -4.28541 0
M  V30 6217 H 580.812 -1.53665 -3.86902 0
M  V30 6218 H 581.345 -2.84271 -2.78271 0
M  V30 6219 H 578.084 -5.8331 -2.99047 0
M  V30 6220 H 577.604 -4.4586 -4.01209 0
M  V30 6221 H 579.283 -5.05225 -4.04174 0
M  V30 6222 N 579.415 0.9433 -1.26252 0
M  V30 6223 C 580.663 1.68592 -1.11451 0
M  V30 6224 C 580.984 1.91957 0.343123 0
M  V30 6225 O 580.254 1.51475 1.24226 0
M  V30 6226 H 578.834 0.624789 -0.409448 0
M  V30 6227 H 581.496 1.13351 -1.58548 0
M  V30 6228 H 580.592 2.66054 -1.63162 0
M  V30 6229 N 580.893 1.08022 1.14757 0
M  V30 6230 C 582.121 0.828847 1.89572 0
M  V30 6231 C 582.536 -0.618621 1.78377 0
M  V30 6232 O 581.893 -1.42482 1.1404 0
M  V30 6233 C 581.944 1.23677 3.39685 0
M  V30 6234 O 581.665 2.62746 3.50566 0
M  V30 6235 C 583.166 1.01569 4.31507 0
M  V30 6236 H 580.386 0.299196 0.600602 0
M  V30 6237 H 582.93 1.43846 1.45357 0
M  V30 6238 H 581.085 0.671347 3.81539 0
M  V30 6239 H 581.499 2.79573 4.43778 0
M  V30 6240 H 582.973 1.35055 5.35223 0
M  V30 6241 H 583.45 -0.0475433 4.39174 0
M  V30 6242 H 584.056 1.56636 3.95405 0
M  V30 6243 N 582.371 -1.3172 0.865308 0
M  V30 6244 C 583.648 -1.91574 0.394789 0
M  V30 6245 C 584.028 -1.78769 -1.12271 0
M  V30 6246 O 583.376 -1.19245 -1.94918 0
M  V30 6247 C 583.586 -3.37957 0.870982 0
M  V30 6248 C 584.934 -4.15073 0.894384 0
M  V30 6249 O 585.958 -3.4672 0.816325 0
M  V30 6250 O 584.817 -5.37151 1.00651 0
M  V30 6251 H 581.911 -0.818649 0.117229 0
M  V30 6252 H 584.457 -1.4042 0.952913 0
M  V30 6253 H 583.229 -3.41269 1.91444 0
M  V30 6254 H 582.852 -3.96534 0.290907 0
M  V30 6255 N 583.85 -0.624285 -1.44708 0
M  V30 6256 C 585.096 -0.126237 -2.02407 0
M  V30 6257 C 585.428 1.24618 -1.48943 0
M  V30 6258 O 584.704 1.82569 -0.670742 0
M  V30 6259 C 584.986 -0.105449 -3.59946 0
M  V30 6260 C 584.84 -1.50972 -4.23707 0
M  V30 6261 C 586.159 0.573629 -4.36346 0
M  V30 6262 H 583.278 -0.0473472 -0.735478 0
M  V30 6263 H 585.92 -0.799452 -1.72362 0
M  V30 6264 H 584.07 0.46783 -3.85673 0
M  V30 6265 H 585.742 -2.13136 -4.0911 0
M  V30 6266 H 583.985 -2.0656 -3.81465 0
M  V30 6267 H 584.656 -1.44727 -5.32689 0
M  V30 6268 H 587.132 0.0861787 -4.16011 0
M  V30 6269 H 586.008 0.557338 -5.46063 0
M  V30 6270 H 586.269 1.64276 -4.10446 0
M  V30 6271 N 585.328 1.53329 -0.364422 0
M  V30 6272 C 586.558 2.05359 0.226096 0
M  V30 6273 C 586.966 1.23777 1.43094 0
M  V30 6274 O 586.309 0.271139 1.81688 0
M  V30 6275 C 586.371 3.52918 0.684794 0
M  V30 6276 C 586.035 4.55218 -0.403206 0
M  V30 6277 C 587.032 5.04583 -1.2527 0
M  V30 6278 C 584.717 4.99134 -0.563117 0
M  V30 6279 C 586.711 5.96463 -2.24745 0
M  V30 6280 C 584.398 5.9082 -1.56124 0
M  V30 6281 C 585.396 6.39375 -2.40184 0
M  V30 6282 O 585.084 7.29255 -3.38293 0
M  V30 6283 H 584.816 0.674588 0.0436772 0
M  V30 6284 H 587.37 1.98688 -0.520782 0
M  V30 6285 H 585.6 3.57122 1.48326 0
M  V30 6286 H 587.289 3.87812 1.19818 0
M  V30 6287 H 588.055 4.71403 -1.14034 0
M  V30 6288 H 583.934 4.60928 0.0813909 0
M  V30 6289 H 587.478 6.34285 -2.90393 0
M  V30 6290 H 583.375 6.23414 -1.67407 0
M  V30 6291 H 584.143 7.47249 -3.34009 0
M  V30 6292 N 586.806 0.0935595 1.57322 0
M  V30 6293 C 587.736 -0.863062 2.16964 0
M  V30 6294 C 588.717 -1.29528 1.10256 0
M  V30 6295 O 589.902 -1.36245 1.38387 0
M  V30 6296 C 587.032 -2.12276 2.74875 0
M  V30 6297 C 585.986 -1.82921 3.86942 0
M  V30 6298 C 585.312 -3.15707 4.31548 0
M  V30 6299 C 586.612 -1.11737 5.10208 0
M  V30 6300 H 588.306 -0.366145 2.97153 0
M  V30 6301 H 585.852 -0.174673 1.42937 0
M  V30 6302 H 587.805 -2.79634 3.1525 0
M  V30 6303 H 586.529 -2.64248 1.91938 0
M  V30 6304 H 585.188 -1.17961 3.47103 0
M  V30 6305 H 584.836 -3.65563 3.45504 0
M  V30 6306 H 584.536 -2.96849 5.07104 0
M  V30 6307 H 586.06 -3.84226 4.74555 0
M  V30 6308 H 587.474 -1.69203 5.47762 0
M  V30 6309 H 585.871 -1.03064 5.91183 0
M  V30 6310 H 586.941 -0.0998818 4.84797 0
M  V30 6311 N 588.284 -1.56567 -0.180126 0
M  V30 6312 C 589.7 -1.50488 -0.531559 0
M  V30 6313 C 589.9 -0.796267 -1.851 0
M  V30 6314 O 588.956 -0.352978 -2.50021 0
M  V30 6315 C 590.269 -2.95201 -0.572456 0
M  V30 6316 C 591.817 -3.05957 -0.660264 0
M  V30 6317 C 592.292 -4.5211 -0.732135 0
M  V30 6318 N 593.783 -4.56322 -0.795262 0
M  V30 6319 C 594.518 -5.66742 -0.871296 0
M  V30 6320 N 594.014 -6.86815 -0.908708 0
M  V30 6321 N 595.807 -5.54691 -0.909639 0
M  V30 6322 H 587.958 -2.01045 0.685165 0
M  V30 6323 H 590.221 -0.915536 0.245962 0
M  V30 6324 H 589.927 -3.50165 0.328208 0
M  V30 6325 H 589.801 -3.49369 -1.422 0
M  V30 6326 H 592.188 -2.51032 -1.55136 0
M  V30 6327 H 592.269 -2.54888 0.215783 0
M  V30 6328 H 591.913 -5.07664 0.154664 0
M  V30 6329 H 591.843 -5.00926 -1.6242 0
M  V30 6330 H 594.334 -3.69868 -0.77499 0
M  V30 6331 H 594.647 -7.66718 -0.967654 0
M  V30 6332 H 592.992 -6.89443 -0.877132 0
M  V30 6333 H 596.183 -4.59804 -0.877353 0
M  V30 6334 H 596.356 -6.40768 -0.965434 0
M  V30 6335 N 589.762 0.448376 -1.51087 0
M  V30 6336 C 590.692 1.55102 -1.74544 0
M  V30 6337 C 591.673 1.59357 -0.594932 0
M  V30 6338 O 592.858 1.75261 -0.836491 0
M  V30 6339 C 589.988 2.93268 -1.86041 0
M  V30 6340 C 588.942 3.03877 -3.01402 0
M  V30 6341 C 588.268 4.43914 -2.98068 0
M  V30 6342 C 589.568 2.7898 -4.41551 0
M  V30 6343 H 591.262 1.35724 -2.66869 0
M  V30 6344 H 588.808 0.651498 -1.28419 0
M  V30 6345 H 590.761 3.70356 -2.01034 0
M  V30 6346 H 589.485 3.13853 -0.903548 0
M  V30 6347 H 588.144 2.29227 -2.86096 0
M  V30 6348 H 587.792 4.6145 -2.00182 0
M  V30 6349 H 587.492 4.51944 -3.75527 0
M  V30 6350 H 589.016 5.22991 -3.1514 0
M  V30 6351 H 590.43 3.45805 -4.57265 0
M  V30 6352 H 588.827 2.98431 -5.20633 0
M  V30 6353 H 589.897 1.74663 -4.5235 0
M  V30 6354 N 591.24 1.41047 0.703093 0
M  V30 6355 C 592.656 1.23351 1.01275 0
M  V30 6356 C 592.856 0.11754 2.01157 0
M  V30 6357 O 591.912 -0.520518 2.47077 0
M  V30 6358 C 593.225 2.58001 1.54454 0
M  V30 6359 C 594.773 2.65119 1.66376 0
M  V30 6360 C 595.248 4.00067 2.22958 0
M  V30 6361 N 596.739 4.01875 2.30328 0
M  V30 6362 C 597.474 5.03087 2.75119 0
M  V30 6363 N 596.97 6.14692 3.19571 0
M  V30 6364 N 598.763 4.90451 2.74616 0
M  V30 6365 H 590.914 2.1236 0.0412686 0
M  V30 6366 H 593.177 0.944543 0.08089 0
M  V30 6367 H 592.883 3.40378 0.88521 0
M  V30 6368 H 592.757 2.79962 2.52786 0
M  V30 6369 H 595.144 1.83106 2.31422 0
M  V30 6370 H 595.225 2.46975 0.666089 0
M  V30 6371 H 594.869 4.82526 1.58529 0
M  V30 6372 H 594.799 4.15547 3.23462 0
M  V30 6373 H 597.29 3.21291 1.98949 0
M  V30 6374 H 597.603 6.87799 3.52352 0
M  V30 6375 H 595.948 6.18239 3.17498 0
M  V30 6376 H 599.139 4.0235 2.39233 0
M  V30 6377 H 599.312 5.6947 3.09206 0
M  V30 6378 N 592.718 -0.936591 1.26751 0
M  V30 6379 C 593.668 -2.0219 1.05371 0
M  V30 6380 C 594.652 -1.60893 -0.0154112 0
M  V30 6381 O 595.844 -1.75843 0.202085 0
M  V30 6382 C 592.973 -3.36222 0.693541 0
M  V30 6383 C 592.059 -3.8399 1.80035 0
M  V30 6384 N 592.45 -4.0436 3.03852 0
M  V30 6385 C 590.748 -4.12945 1.685 0
M  V30 6386 C 591.449 -4.44 3.75818 0
M  V30 6387 N 590.425 -4.50966 3.03531 0
M  V30 6388 H 594.227 -2.15958 1.99347 0
M  V30 6389 H 591.741 -1.12277 1.17335 0
M  V30 6390 H 593.738 -4.13625 0.521513 0
M  V30 6391 H 592.398 -3.23821 -0.238693 0
M  V30 6392 H 593.409 -3.9092 3.39709 0
M  V30 6393 H 590.086 -4.09308 0.822986 0
M  V30 6394 H 591.476 -4.67914 4.82189 0
M  V30 6395 N 594.196 -1.08629 -1.14182 0
M  V30 6396 C 595.445 -0.812271 -1.84621 0
M  V30 6397 C 595.758 0.664313 -1.83973 0
M  V30 6398 O 596.964 1.05357 -2.50224 0
M  V30 6399 C 595.42 -1.4031 -3.31423 0
M  V30 6400 C 595.028 -2.91164 -3.40481 0
M  V30 6401 C 596.772 -1.20767 -4.06959 0
M  V30 6402 C 594.679 -3.43373 -4.81507 0
M  V30 6403 H 593.609 -0.30019 -0.691666 0
M  V30 6404 H 596.26 -1.30798 -1.28701 0
M  V30 6405 H 594.642 -0.835096 -3.87094 0
M  V30 6406 H 595.816 -3.5412 -2.94848 0
M  V30 6407 H 594.131 -3.09646 -2.78403 0
M  V30 6408 H 596.728 -1.57237 -5.11058 0
M  V30 6409 H 597.071 -0.147664 -4.16038 0
M  V30 6410 H 597.604 -1.74274 -3.57594 0
M  V30 6411 H 594.343 -4.48958 -4.77616 0
M  V30 6412 H 593.863 -2.85176 -5.27669 0
M  V30 6413 H 595.542 -3.40095 -5.50404 0
M  V30 6414 N 595.674 1.31259 -0.872281 0
M  V30 6415 C 596.951 1.91362 -0.404943 0
M  V30 6416 C 597.331 1.79362 1.11321 0
M  V30 6417 O 596.679 1.20277 1.94283 0
M  V30 6418 C 596.889 3.3749 -0.888893 0
M  V30 6419 C 598.237 4.14593 -0.916384 0
M  V30 6420 O 599.261 3.46282 -0.834701 0
M  V30 6421 O 598.12 5.3661 -1.03498 0
M  V30 6422 H 595.214 0.818016 -0.121569 0
M  V30 6423 H 597.76 1.39912 -0.960346 0
M  V30 6424 H 596.532 3.40249 -1.93251 0
M  V30 6425 H 596.155 3.96375 -0.311932 0
M  V30 6426 N 597.152 0.631951 1.44375 0
M  V30 6427 C 598.4 0.136497 2.01639 0
M  V30 6428 C 598.721 -1.24637 1.49969 0
M  V30 6429 O 597.991 -1.82827 0.70363 0
M  V30 6430 H 596.571 0.0474703 0.74549 0
M  V30 6431 H 599.233 0.818837 1.76865 0
M  V30 6432 H 598.329 0.104817 3.11924 0
M  V30 6433 N 598.631 -1.53133 0.372548 0
M  V30 6434 C 600.047 -1.59585 0.02178 0
M  V30 6435 C 600.247 -1.38736 -1.46132 0
M  V30 6436 O 599.303 -1.19599 -2.22379 0
M  V30 6437 C 600.616 -2.9678 0.483959 0
M  V30 6438 C 602.164 -3.09909 0.438775 0
M  V30 6439 C 602.639 -4.49527 0.876876 0
M  V30 6440 N 604.13 -4.55663 0.832214 0
M  V30 6441 C 604.865 -5.61896 1.14281 0
M  V30 6442 N 604.361 -6.75852 1.52303 0
M  V30 6443 N 606.154 -5.51916 1.06515 0
M  V30 6444 H 598.305 -1.64936 1.33827 0
M  V30 6445 H 600.568 -0.773947 0.547458 0
M  V30 6446 H 600.274 -3.17198 1.51915 0
M  V30 6447 H 600.148 -3.7699 -0.125784 0
M  V30 6448 H 602.535 -2.89197 -0.587294 0
M  V30 6449 H 602.616 -2.31691 1.0841 0
M  V30 6450 H 602.26 -4.70979 1.90109 0
M  V30 6451 H 602.19 -5.26186 0.208727 0
M  V30 6452 H 604.681 -3.73844 0.552195 0
M  V30 6453 H 604.994 -7.52862 1.7441 0
M  V30 6454 H 603.339 -6.77226 1.56175 0
M  V30 6455 H 606.53 -4.6177 0.767235 0
M  V30 6456 H 606.703 -6.34609 1.31053 0
M  V30 6457 N 600.109 -0.101901 -1.5727 0
M  V30 6458 C 601.019 0.868647 -2.17926 0
M  V30 6459 C 602.035 1.30527 -1.1506 0
M  V30 6460 O 603.211 1.37178 -1.47459 0
M  V30 6461 C 600.276 2.10727 -2.75309 0
M  V30 6462 C 599.337 1.7242 -3.93154 0
M  V30 6463 C 598.57 2.90377 -4.47791 0
M  V30 6464 O 598.793 4.05305 -4.01353 0
M  V30 6465 O 597.727 2.6845 -5.38719 0
M  V30 6466 H 601.553 0.382544 -3.01281 0
M  V30 6467 H 599.138 0.122812 -1.48894 0
M  V30 6468 H 601.02 2.83303 -3.11958 0
M  V30 6469 H 599.695 2.58376 -1.94996 0
M  V30 6470 H 598.602 0.970039 -3.61305 0
M  V30 6471 H 599.935 1.29528 -4.74851 0
M  V30 6472 N 601.587 1.56661 0.17182 0
M  V30 6473 C 602.497 1.99604 1.2327 0
M  V30 6474 C 603.513 0.907333 1.4847 0
M  V30 6475 O 604.689 1.21492 1.60629 0
M  V30 6476 C 601.754 2.34685 2.55194 0
M  V30 6477 C 600.815 3.57381 2.3786 0
M  V30 6478 C 600.048 3.90779 3.63494 0
M  V30 6479 O 600.271 3.25152 4.6865 0
M  V30 6480 O 599.205 4.84129 3.57634 0
M  V30 6481 H 603.031 2.90114 0.898192 0
M  V30 6482 H 600.616 1.44522 0.378647 0
M  V30 6483 H 602.498 2.5822 3.33017 0
M  V30 6484 H 601.173 1.47336 2.88225 0
M  V30 6485 H 600.08 3.39064 1.5807 0
M  V30 6486 H 601.413 4.45268 2.09754 0
M  V30 6487 N 603.065 -0.440357 1.51323 0
M  V30 6488 C 604.29 -1.21716 1.67928 0
M  V30 6489 C 604.715 -1.84328 0.374826 0
M  V30 6490 O 604.073 -1.68675 -0.664706 0
M  V30 6491 C 604.121 -2.27914 2.79442 0
M  V30 6492 O 603.225 -3.33325 2.42834 0
M  V30 6493 H 602.566 -0.35674 0.560029 0
M  V30 6494 H 605.096 -0.520417 1.97871 0
M  V30 6495 H 605.106 -2.72746 3.03436 0
M  V30 6496 H 603.781 -1.8172 3.741 0
M  V30 6497 H 602.358 -2.9399 2.294 0
M  V30 6498 N 604.543 -1.41418 -0.695603 0
M  V30 6499 C 605.79 -1.40774 -1.45564 0
M  V30 6500 C 606.118 -0.0168604 -1.94493 0
M  V30 6501 O 605.373 0.971259 -1.69897 0
M  V30 6502 C 605.672 -2.36112 -2.68302 0
M  V30 6503 C 605.338 -3.82952 -2.38031 0
M  V30 6504 C 604 -4.22954 -2.29486 0
M  V30 6505 C 606.352 -4.75662 -2.13061 0
M  V30 6506 C 603.68 -5.53674 -1.94067 0
M  V30 6507 C 606.032 -6.06702 -1.79151 0
M  V30 6508 C 604.696 -6.45725 -1.69102 0
M  V30 6509 H 603.966 -0.515128 -0.532658 0
M  V30 6510 H 606.613 -1.74216 -0.795047 0
M  V30 6511 H 604.918 -1.95924 -3.39295 0
M  V30 6512 H 606.615 -2.32887 -3.26442 0
M  V30 6513 H 603.205 -3.5127 -2.45576 0
M  V30 6514 H 607.389 -4.45561 -2.18608 0
M  V30 6515 H 602.645 -5.8279 -1.8484 0
M  V30 6516 H 606.819 -6.78041 -1.5885 0
M  V30 6517 H 604.446 -7.46929 -1.41426 0
M  V30 6518 N 606.021 0.929856 -1.27246 0
M  V30 6519 C 607.437 1.20542 -1.04603 0
M  V30 6520 C 607.637 2.00276 0.221754 0
M  V30 6521 O 606.693 2.34835 0.927833 0
M  V30 6522 C 608.006 1.95566 -2.28417 0
M  V30 6523 C 609.554 2.08513 -2.33433 0
M  V30 6524 C 610.029 2.86943 -3.5697 0
M  V30 6525 N 611.52 2.94512 -3.57515 0
M  V30 6526 C 612.255 3.55656 -4.49774 0
M  V30 6527 N 611.751 4.18209 -5.52334 0
M  V30 6528 N 613.544 3.53038 -4.37402 0
M  V30 6529 H 605.695 0.397113 -2.08655 0
M  V30 6530 H 607.958 0.238277 -0.917566 0
M  V30 6531 H 607.664 1.44395 -3.20691 0
M  V30 6532 H 607.538 2.9619 -2.33563 0
M  V30 6533 H 609.925 2.58872 -1.41666 0
M  V30 6534 H 610.006 1.07117 -2.32292 0
M  V30 6535 H 609.65 2.37268 -4.49072 0
M  V30 6536 H 609.58 3.8862 -3.55362 0
M  V30 6537 H 612.071 2.50053 -2.83341 0
M  V30 6538 H 612.384 4.62796 -6.18902 0
M  V30 6539 H 610.729 4.16761 -5.56179 0
M  V30 6540 H 613.92 3.0337 -3.56489 0
M  V30 6541 H 614.093 4.004 -5.09493 0
M  V30 6542 N 607.499 1.09233 1.13605 0
M  V30 6543 C 608.748 0.82205 1.84188 0
M  V30 6544 C 609.061 -0.654548 1.84323 0
M  V30 6545 O 610.267 -1.04029 2.50779 0
M  V30 6546 C 608.723 1.42066 3.30674 0
M  V30 6547 C 608.331 2.92965 3.38933 0
M  V30 6548 C 610.075 1.22924 4.06313 0
M  V30 6549 C 607.982 3.45922 4.79679 0
M  V30 6550 H 606.912 0.303854 0.690064 0
M  V30 6551 H 609.563 1.31479 1.28006 0
M  V30 6552 H 607.945 0.855613 3.86646 0
M  V30 6553 H 609.119 3.55679 2.92966 0
M  V30 6554 H 607.434 3.11118 2.76757 0
M  V30 6555 H 610.031 1.59945 5.10217 0
M  V30 6556 H 610.374 0.169726 4.15954 0
M  V30 6557 H 610.907 1.76168 3.56665 0
M  V30 6558 H 607.646 4.51484 4.75229 0
M  V30 6559 H 607.166 2.87971 5.26149 0
M  V30 6560 H 608.845 3.43009 5.48592 0
M  V30 6561 O 609.016 -1.25824 1.01246 0
M  V30 6562 H 609.707 -1.81718 0.670699 0
M  V30 END ATOM
M  V30 BEGIN BOND
M  V30 END BOND
M  V30 END CTAB
M  END
$$$$
