drugbank_target|P35968 Vascular endothelial growth factor receptor 2 (DB00398; DB01268; DB04727; DB04849; DB04879; DB05014; DB05075; DB05146; DB05198; DB05578; DB05931; DB05984; DB06080; DB06101; DB06436; DB06589; DB06595; DB06626; DB06938; DB07183; DB07274; DB07326; DB07333; DB07334; DB07514; DB07528; DB07537; DB08042; DB08519; DB08875; DB08896; DB08901; DB09078; DB09079; DB12010; DB12147; DB12307; DB14840; DB15822)
 OpenBabel12092119303D

  0  0  0     0  0            999 V3000
M  V30 BEGIN CTAB
M  V30 COUNTS 21250 21473 0 0 0
M  V30 BEGIN ATOM
M  V30 1 H -0.908 1.98254 -0.117106 0
M  V30 2 N 0 1.576 0 0
M  V30 3 C 0.933 2.03868 1.02534 0
M  V30 4 C 1.911 0.928543 1.3348 0
M  V30 5 O 3.095 1.19667 1.45644 0
M  V30 6 C 0.222 2.43627 2.35294 0
M  V30 7 C -0.732 3.65373 2.2001 0
M  V30 8 S 0.101 5.13292 1.52614 0
M  V30 9 C 1.257 5.56322 2.86805 0
M  V30 10 H 1.49 2.90518 0.631377 0
M  V30 11 H -0.977 1.52953 0.210867 0
M  V30 12 H 0.981 2.67203 3.11629 0
M  V30 13 H -0.358 1.57376 2.7183 0
M  V30 14 H -1.165 3.90944 3.18086 0
M  V30 15 H -1.563 3.418 1.51819 0
M  V30 16 H 0.729 5.58782 3.83104 0
M  V30 17 H 1.672 6.56266 2.65933 0
M  V30 18 H 2.08 4.83886 2.90714 0
M  V30 19 N 1.4781 -0.272755 1.55222 0
M  V30 20 C 2.4101 -1.35946 1.8453 0
M  V30 21 C 3.4231 -1.45525 0.729818 0
M  V30 22 O 4.6121 -1.47337 1.00767 0
M  V30 23 C 1.7121 -2.74069 1.99347 0
M  V30 24 C 0.8851 -2.87079 3.30007 0
M  V30 25 C -0.0559 -4.05879 3.34886 0
M  V30 26 O -1.0299 -3.96626 4.08261 0
M  V30 27 N 0.1721 -5.17857 2.62307 0
M  V30 28 H 2.9371 -1.11149 2.78327 0
M  V30 29 H 0.4981 -0.462869 1.55142 0
M  V30 30 H 2.4901 -3.51838 1.99981 0
M  V30 31 H 1.0601 -2.91688 1.12415 0
M  V30 32 H 0.2801 -1.96193 3.41909 0
M  V30 33 H 1.5681 -2.92701 4.16177 0
M  V30 34 H 0.9661 -5.28261 2.02377 0
M  V30 35 H -0.4769 -5.93855 2.68663 0
M  V30 36 N 2.9562 -1.48159 -0.537278 0
M  V30 37 C 4.1812 -1.59707 -1.32319 0
M  V30 38 C 4.6062 -0.254859 -1.86365 0
M  V30 39 O 3.9642 0.772378 -1.64024 0
M  V30 40 C 4.0122 -2.6412 -2.45505 0
M  V30 41 O 3.1162 -2.20774 -3.48328 0
M  V30 42 H 2.4572 -0.535791 -0.392204 0
M  V30 43 H 4.9872 -1.94092 -0.647268 0
M  V30 44 H 4.9972 -2.85166 -2.91795 0
M  V30 45 H 3.6722 -3.61567 -2.05528 0
M  V30 46 H 2.2492 -2.09911 -3.08207 0
M  V30 47 N 4.4343 0.785586 -1.36625 0
M  V30 48 C 5.3813 1.89838 -1.31264 0
M  V30 49 C 6.3513 1.65115 -0.180633 0
M  V30 50 O 7.5363 1.87222 -0.36777 0
M  V30 51 C 4.6763 3.26706 -1.11163 0
M  V30 52 C 3.7893 3.63476 -2.33472 0
M  V30 53 C 2.9243 4.89481 -2.06353 0
M  V30 54 C 1.9633 5.18941 -3.24602 0
M  V30 55 N 1.1003 6.36131 -2.97123 0
M  V30 56 H 5.9403 1.93756 -2.26413 0
M  V30 57 H 3.4773 0.947454 -1.12524 0
M  V30 58 H 5.4353 4.05639 -0.975337 0
M  V30 59 H 4.0653 3.222 -0.196674 0
M  V30 60 H 3.1173 2.79636 -2.57891 0
M  V30 61 H 4.4293 3.81193 -3.21704 0
M  V30 62 H 3.5833 5.76288 -1.89675 0
M  V30 63 H 2.3223 4.73841 -1.15437 0
M  V30 64 H 1.3273 4.30615 -3.41834 0
M  V30 65 H 2.5523 5.36498 -4.16349 0
M  V30 66 H 0.4983 6.21875 -2.08823 0
M  V30 67 H 0.4153 6.54198 -3.78894 0
M  V30 68 H 1.6833 7.2591 -2.84033 0
M  V30 69 N 5.9124 1.20967 1.01018 0
M  V30 70 C 7.1584 1.02526 1.74975 0
M  V30 71 C 7.4914 -0.4408 1.89131 0
M  V30 72 O 6.7664 -1.32718 1.42184 0
M  V30 73 C 7.0494 1.71699 3.1653 0
M  V30 74 C 6.9024 3.25791 3.10129 0
M  V30 75 C 8.2214 1.45531 4.15342 0
M  V30 76 H 5.3404 0.373863 0.635134 0
M  V30 77 H 7.9824 1.49071 1.17805 0
M  V30 78 H 6.1324 1.32128 3.65341 0
M  V30 79 H 7.8044 3.74697 2.69072 0
M  V30 80 H 6.0474 3.56363 2.47362 0
M  V30 81 H 6.7184 3.69353 4.10222 0
M  V30 82 H 9.1944 1.79872 3.75213 0
M  V30 83 H 8.0704 1.96453 5.1254 0
M  V30 84 H 8.3314 0.384237 4.40427 0
M  V30 85 N 7.3905 -1.2043 1.01659 0
M  V30 86 C 8.3205 -2.25466 0.607226 0
M  V30 87 C 9.3015 -1.65853 -0.377716 0
M  V30 88 O 10.4865 -1.92409 -0.263149 0
M  V30 89 C 7.6165 -3.47256 -0.0552949 0
M  V30 90 C 6.5705 -4.19462 0.850632 0
M  V30 91 C 5.8965 -5.34673 0.0538859 0
M  V30 92 C 7.1965 -4.75603 2.15868 0
M  V30 93 H 8.8905 -2.59962 1.48526 0
M  V30 94 H 6.4365 -1.2496 0.715605 0
M  V30 95 H 8.3895 -4.19917 -0.353233 0
M  V30 96 H 7.1135 -3.11924 -0.968045 0
M  V30 97 H 5.7725 -3.48667 1.13257 0
M  V30 98 H 5.4205 -4.95585 -0.860514 0
M  V30 99 H 5.1205 -5.83913 0.657192 0
M  V30 100 H 6.6445 -6.10138 -0.237598 0
M  V30 101 H 8.0585 -5.40083 1.92311 0
M  V30 102 H 6.4555 -5.3528 2.71284 0
M  V30 103 H 7.5255 -3.94346 2.82169 0
M  V30 104 N 8.8686 -0.792821 -1.36206 0
M  V30 105 C 9.7986 -0.207853 -2.32573 0
M  V30 106 C 10.7796 0.659055 -1.56813 0
M  V30 107 O 11.9646 0.592176 -1.84951 0
M  V30 108 C 9.0946 0.655449 -3.41059 0
M  V30 109 C 8.0486 -0.111842 -4.27854 0
M  V30 110 C 7.3746 0.872274 -5.27537 0
M  V30 111 C 8.6746 -1.30299 -5.05786 0
M  V30 112 H 10.3686 -1.01294 -2.81744 0
M  V30 113 H 7.9146 -0.48854 -1.3546 0
M  V30 114 H 9.8676 1.07464 -4.07467 0
M  V30 115 H 8.5916 1.49328 -2.90463 0
M  V30 116 H 7.2506 -0.512053 -3.63006 0
M  V30 117 H 6.8986 1.70523 -4.73214 0
M  V30 118 H 6.5986 0.363291 -5.86476 0
M  V30 119 H 8.1226 1.28996 -5.96818 0
M  V30 120 H 9.5366 -0.959379 -5.65216 0
M  V30 121 H 7.9336 -1.7455 -5.74154 0
M  V30 122 H 9.0036 -2.09663 -4.37229 0
M  V30 123 N 10.3467 1.47872 -0.545128 0
M  V30 124 C 11.3097 2.28337 0.198717 0
M  V30 125 C 12.3097 1.36255 0.853888 0
M  V30 126 O 13.4997 1.59003 0.711606 0
M  V30 127 C 10.6317 3.15585 1.28915 0
M  V30 128 H 11.8247 2.95567 -0.507941 0
M  V30 129 H 9.3777 1.53362 -0.301616 0
M  V30 130 H 10.1127 2.53019 2.02859 0
M  V30 131 H 9.8977 3.83337 0.824309 0
M  V30 132 H 11.3877 3.76243 1.81194 0
M  V30 133 N 11.8248 0.280983 1.55075 0
M  V30 134 C 13.0708 -0.33461 2.00021 0
M  V30 135 C 13.4038 -1.55063 1.16915 0
M  V30 136 O 12.6788 -1.93006 0.240646 0
M  V30 137 C 12.9618 -0.711007 3.53011 0
M  V30 138 C 12.8148 0.512766 4.46868 0
M  V30 139 C 14.1338 -1.54522 4.12081 0
M  V30 140 H 11.2528 -0.120147 0.727141 0
M  V30 141 H 13.8948 0.389097 1.85973 0
M  V30 142 H 12.0448 -1.32761 3.65112 0
M  V30 143 H 13.7168 1.15131 4.46702 0
M  V30 144 H 11.9598 1.14975 4.18286 0
M  V30 145 H 12.6308 0.205556 5.51617 0
M  V30 146 H 15.1068 -1.02442 4.03293 0
M  V30 147 H 13.9828 -1.77739 5.19327 0
M  V30 148 H 14.2438 -2.52813 3.62682 0
M  V30 149 N 13.3029 -1.57598 0.00835791 0
M  V30 150 C 14.2659 -2.07884 -0.965242 0
M  V30 151 C 15.2659 -0.989825 -1.26725 0
M  V30 152 O 16.4559 -1.25218 -1.21104 0
M  V30 153 C 13.5879 -2.52731 -2.28779 0
M  V30 154 H 14.7809 -2.95178 -0.530112 0
M  V30 155 H 12.3339 -1.54458 -0.239283 0
M  V30 156 H 13.0689 -1.68705 -2.76964 0
M  V30 157 H 12.8539 -3.32272 -2.08177 0
M  V30 158 H 14.3439 -2.91933 -2.98605 0
M  V30 159 N 14.781 0.264519 -1.55364 0
M  V30 160 C 15.711 1.33121 -1.91836 0
M  V30 161 C 16.692 1.51101 -0.781192 0
M  V30 162 O 17.877 1.64003 -1.04003 0
M  V30 163 C 15.007 2.68921 -2.19769 0
M  V30 164 C 13.961 2.65661 -3.35571 0
M  V30 165 C 13.287 4.05093 -3.49004 0
M  V30 166 C 14.587 2.24187 -4.71739 0
M  V30 167 H 16.281 1.02844 -2.81182 0
M  V30 168 H 13.827 0.493286 -1.35287 0
M  V30 169 H 15.78 3.43663 -2.43872 0
M  V30 170 H 14.504 3.00799 -1.27231 0
M  V30 171 H 13.163 1.93377 -3.1145 0
M  V30 172 H 12.811 4.34206 -2.53917 0
M  V30 173 H 12.511 4.03804 -4.26868 0
M  V30 174 H 14.035 4.81561 -3.75408 0
M  V30 175 H 15.449 2.88654 -4.9533 0
M  V30 176 H 13.846 2.34044 -5.52579 0
M  V30 177 H 14.916 1.19327 -4.69988 0
M  V30 178 N 16.2591 1.48442 0.529413 0
M  V30 179 C 17.5051 1.57699 1.28463 0
M  V30 180 C 17.8601 0.247913 1.90796 0
M  V30 181 O 17.1531 -0.749279 1.76342 0
M  V30 182 C 17.3471 2.6523 2.39558 0
M  V30 183 C 17.1761 4.08464 1.88114 0
M  V30 184 C 15.9461 4.75596 1.70693 0
M  V30 185 C 18.1441 4.94613 1.40935 0
M  V30 186 N 16.1261 6.03245 1.13881 0
M  V30 187 C 17.4971 6.12511 0.960734 0
M  V30 188 C 19.5521 4.80833 1.29243 0
M  V30 189 C 18.2551 7.18149 0.406792 0
M  V30 190 C 20.2811 5.86593 0.752487 0
M  V30 191 C 19.6431 7.037 0.313946 0
M  V30 192 H 15.7421 0.631608 0.46108 0
M  V30 193 H 18.3261 1.85325 0.596886 0
M  V30 194 H 16.4971 2.39425 3.05827 0
M  V30 195 H 18.2291 2.64169 3.06589 0
M  V30 196 H 14.9841 4.31938 1.94232 0
M  V30 197 H 15.4081 6.71324 0.874831 0
M  V30 198 H 20.0501 3.90635 1.61754 0
M  V30 199 H 17.7681 8.0807 0.0693671 0
M  V30 200 H 21.3541 5.77985 0.665192 0
M  V30 201 H 20.2341 7.8414 -0.0973632 0
M  V30 202 N 17.7372 -0.778329 1.37039 0
M  V30 203 C 18.6672 -1.90546 1.34962 0
M  V30 204 C 19.6482 -1.68681 0.219274 0
M  V30 205 O 20.8332 -1.89634 0.418624 0
M  V30 206 C 17.9632 -3.27734 1.14925 0
M  V30 207 C 16.9172 -3.64147 2.24902 0
M  V30 208 C 16.2432 -4.99806 1.89996 0
M  V30 209 C 17.5432 -3.71579 3.67051 0
M  V30 210 H 19.2372 -1.92541 2.29277 0
M  V30 211 H 16.7832 -0.924948 1.10366 0
M  V30 212 H 18.7362 -4.06215 1.12104 0
M  V30 213 H 17.4602 -3.26154 0.170631 0
M  V30 214 H 16.1192 -2.8797 2.26868 0
M  V30 215 H 15.7672 -4.94759 0.906796 0
M  V30 216 H 15.4672 -5.25139 2.63634 0
M  V30 217 H 16.9912 -5.80694 1.88749 0
M  V30 218 H 18.4052 -4.40227 3.67251 0
M  V30 219 H 16.8022 -4.08405 4.39688 0
M  V30 220 H 17.8722 -2.72404 4.01154 0
M  V30 221 N 19.2153 -1.21501 -1.00376 0
M  V30 222 C 20.4553 -1.04444 -1.75701 0
M  V30 223 C 20.8193 0.414644 -1.87469 0
M  V30 224 O 22.0203 0.705763 -2.59369 0
M  V30 225 C 20.2913 -1.72389 -3.13077 0
M  V30 226 S 21.8503 -1.70604 -4.04277 0
M  V30 227 H 18.6683 -0.374249 -0.604532 0
M  V30 228 H 21.2703 -1.54267 -1.20091 0
M  V30 229 H 19.9743 -2.77734 -3.02146 0
M  V30 230 H 19.5053 -1.22751 -3.73759 0
M  V30 231 H 21.5203 -0.748012 -4.9053 0
M  V30 232 N 20.6934 1.19889 -1.02296 0
M  V30 233 C 21.9394 1.89701 -0.717033 0
M  V30 234 C 22.2724 1.7905 0.751989 0
M  V30 235 O 21.5474 1.17891 1.547 0
M  V30 236 C 21.8304 3.40858 -1.16136 0
M  V30 237 C 21.6834 3.60411 -2.69117 0
M  V30 238 C 23.0024 4.33876 -0.737549 0
M  V30 239 H 20.1214 0.688874 -0.261957 0
M  V30 240 H 22.7634 1.41154 -1.27183 0
M  V30 241 H 20.9134 3.82335 -0.689342 0
M  V30 242 H 22.5854 3.28145 -3.2422 0
M  V30 243 H 20.8284 3.03665 -3.0979 0
M  V30 244 H 21.4994 4.66396 -2.95261 0
M  V30 245 H 23.9754 4.00081 -1.14344 0
M  V30 246 H 22.8514 5.38242 -1.0764 0
M  V30 247 H 23.1124 4.40628 0.360436 0
M  V30 248 N 22.1715 0.800033 1.35784 0
M  V30 249 C 23.0815 0.207204 2.33683 0
M  V30 250 C 24.0975 -0.64631 1.61551 0
M  V30 251 O 25.2735 -0.559604 1.93469 0
M  V30 252 C 22.3385 -0.639659 3.40748 0
M  V30 253 C 21.3995 0.233585 4.28664 0
M  V30 254 C 20.6325 -0.572954 5.30616 0
M  V30 255 O 20.8555 -1.80816 5.40982 0
M  V30 256 O 19.7895 0.0327285 6.01891 0
M  V30 257 H 23.6155 1.01692 2.86169 0
M  V30 258 H 21.2005 0.561691 1.38439 0
M  V30 259 H 23.0825 -1.12223 4.06182 0
M  V30 260 H 21.7575 -1.42708 2.90544 0
M  V30 261 H 20.6645 0.763147 3.66233 0
M  V30 262 H 21.9975 0.984784 4.82248 0
M  V30 263 N 23.6496 -1.47581 0.552962 0
M  V30 264 C 24.8776 -2.06875 0.0320556 0
M  V30 265 C 25.2926 -1.40625 -1.25976 0
M  V30 266 O 24.6496 -0.501349 -1.75479 0
M  V30 267 C 24.7006 -3.61092 -0.17167 0
M  V30 268 O 24.4216 -4.24858 1.06899 0
M  V30 269 C 25.9226 -4.37242 -0.730344 0
M  V30 270 H 23.1426 -0.669561 0.043915 0
M  V30 271 H 25.6866 -1.89646 0.765163 0
M  V30 272 H 23.8416 -3.7785 -0.854894 0
M  V30 273 H 24.2556 -5.17334 0.864059 0
M  V30 274 H 25.7296 -5.45842 -0.822203 0
M  V30 275 H 26.2066 -4.03235 -1.74064 0
M  V30 276 H 26.8126 -4.25219 -0.0829543 0
M  V30 277 N 25.1277 -0.289203 -1.54924 0
M  V30 278 C 26.5437 0.0645403 -1.59469 0
M  V30 279 C 26.7437 1.53419 -1.30632 0
M  V30 280 O 25.7997 2.2852 -1.074 0
M  V30 281 C 27.1127 -0.32278 -2.98963 0
M  V30 282 C 28.6607 -0.270564 -3.11828 0
M  V30 283 C 29.1357 -0.632532 -4.53611 0
M  V30 284 N 30.6267 -0.584617 -4.59496 0
M  V30 285 C 31.3617 -0.837314 -5.67254 0
M  V30 286 N 30.8577 -1.15536 -6.83098 0
M  V30 287 N 32.6507 -0.765166 -5.56868 0
M  V30 288 H 24.8017 -1.24714 -1.71931 0
M  V30 289 H 27.0647 -0.504809 -0.802416 0
M  V30 290 H 26.7707 -1.34541 -3.24948 0
M  V30 291 H 26.6447 0.32944 -3.75759 0
M  V30 292 H 29.0317 0.742805 -2.85598 0
M  V30 293 H 29.1127 -0.957242 -2.37214 0
M  V30 294 H 28.7567 -1.64365 -4.80569 0
M  V30 295 H 28.6867 0.07609 -5.26545 0
M  V30 296 H 31.1777 -0.349248 -3.76283 0
M  V30 297 H 31.4907 -1.33447 -7.61191 0
M  V30 298 H 29.8357 -1.19328 -6.84679 0
M  V30 299 H 33.0267 -0.516432 -4.65243 0
M  V30 300 H 33.1997 -0.965477 -6.40767 0
M  V30 301 N 26.6058 1.57591 -0.0167156 0
M  V30 302 C 27.5688 2.08393 0.954204 0
M  V30 303 C 28.5688 0.996531 1.26198 0
M  V30 304 O 29.7588 1.25858 1.20438 0
M  V30 305 C 26.8908 2.5394 2.27436 0
M  V30 306 H 28.0838 2.95455 0.514451 0
M  V30 307 H 25.6368 1.54582 0.231089 0
M  V30 308 H 26.3718 1.70171 2.76066 0
M  V30 309 H 26.1568 3.33371 2.06412 0
M  V30 310 H 27.6468 2.93512 2.97053 0
M  V30 311 N 28.0839 -0.256276 1.55502 0
M  V30 312 C 29.0469 -1.30047 1.88734 0
M  V30 313 C 30.0469 -1.4154 0.763086 0
M  V30 314 O 31.2369 -1.40403 1.03115 0
M  V30 315 C 28.3689 -2.67953 2.10747 0
M  V30 316 H 29.5619 -1.01802 2.82093 0
M  V30 317 H 27.1149 -0.495134 1.4825 0
M  V30 318 H 27.8499 -3.01351 1.19825 0
M  V30 319 H 27.6349 -2.60993 2.92617 0
M  V30 320 H 29.1249 -3.43368 2.37673 0
M  V30 321 N 29.562 -1.4872 -0.521534 0
M  V30 322 C 30.787 -1.61101 -1.30618 0
M  V30 323 C 31.212 -0.274611 -1.86085 0
M  V30 324 O 30.57 0.754937 -1.64834 0
M  V30 325 C 30.618 -2.66709 -2.4269 0
M  V30 326 O 29.722 -2.24456 -3.45967 0
M  V30 327 H 29.063 -0.539921 -0.386499 0
M  V30 328 H 31.593 -1.94767 -0.626645 0
M  V30 329 H 31.603 -2.88245 -2.88754 0
M  V30 330 H 30.278 -3.63727 -2.01682 0
M  V30 331 H 28.855 -2.13168 -3.05964 0
M  V30 332 N 31.0401 0.771051 -1.3745 0
M  V30 333 C 32.2861 1.5319 -1.32894 0
M  V30 334 C 32.6191 1.94008 0.0862511 0
M  V30 335 O 31.8941 1.64124 1.04373 0
M  V30 336 C 32.1771 2.79648 -2.26868 0
M  V30 337 C 32.0301 2.45079 -3.77169 0
M  V30 338 C 33.3491 3.81583 -2.19277 0
M  V30 339 H 30.4681 0.555744 -0.484064 0
M  V30 340 H 33.1101 0.884492 -1.68157 0
M  V30 341 H 31.2601 3.34891 -1.96926 0
M  V30 342 H 32.9321 1.95745 -4.1771 0
M  V30 343 H 31.1751 1.77767 -3.95704 0
M  V30 344 H 31.8461 3.35478 -4.38359 0
M  V30 345 H 34.3221 3.35835 -2.45671 0
M  V30 346 H 33.1981 4.67787 -2.87171 0
M  V30 347 H 33.4591 4.25897 -1.18592 0
M  V30 348 N 32.5182 1.22032 0.997298 0
M  V30 349 C 33.7662 1.04016 1.73278 0
M  V30 350 C 34.0872 -0.426255 1.90284 0
M  V30 351 O 33.3572 -1.30694 1.45931 0
M  V30 352 H 31.9372 0.381897 0.642 0
M  V30 353 H 34.5992 1.5347 1.20137 0
M  V30 354 H 33.6952 1.51441 2.72896 0
M  V30 355 N 33.9963 -1.19345 1.0293 0
M  V30 356 C 34.9263 -2.2481 0.631105 0
M  V30 357 C 35.9073 -1.66245 -0.360104 0
M  V30 358 O 37.0923 -1.92677 -0.242726 0
M  V30 359 C 34.2223 -3.47295 -0.0184607 0
M  V30 360 C 33.1763 -4.18536 0.895073 0
M  V30 361 C 32.5023 -5.34586 0.110592 0
M  V30 362 C 33.8023 -4.73287 2.209 0
M  V30 363 H 35.4963 -2.58372 1.51275 0
M  V30 364 H 33.0423 -1.24194 0.728818 0
M  V30 365 H 34.9953 -4.20268 -0.308675 0
M  V30 366 H 33.7193 -3.12933 -0.934907 0
M  V30 367 H 32.3783 -3.47446 1.16949 0
M  V30 368 H 32.0263 -4.96469 -0.807902 0
M  V30 369 H 31.7263 -5.83183 0.719087 0
M  V30 370 H 33.2503 -6.10355 -0.172871 0
M  V30 371 H 34.6643 -5.38013 1.98028 0
M  V30 372 H 33.0613 -5.32373 2.76946 0
M  V30 373 H 34.1313 -3.91331 2.86336 0
M  V30 374 N 35.4744 -0.807222 -1.35358 0
M  V30 375 C 36.8854 -0.44876 -1.81226 0
M  V30 376 C 37.2364 1.02929 -1.67033 0
M  V30 377 O 36.3614 1.79991 -1.20133 0
M  V30 378 C 36.9564 -0.807774 -3.2903 0
M  V30 379 C 35.5154 -0.501901 -3.73039 0
M  V30 380 C 34.6624 -1.03304 -2.57339 0
M  V30 381 H 37.6134 -0.998808 -1.23327 0
M  V30 382 H 37.6344 -0.10554 -3.80354 0
M  V30 383 H 37.1464 -1.88357 -3.39328 0
M  V30 384 H 35.2474 0.565128 -3.68289 0
M  V30 385 H 35.3604 -1.03497 -4.67787 0
M  V30 386 H 33.7244 -0.455339 -2.50597 0
M  V30 387 H 34.5074 -2.11496 -2.70415 0
M  V30 388 N 36.9525 1.47285 -0.560781 0
M  V30 389 C 38.1775 2.07359 -0.0410566 0
M  V30 390 C 38.6025 1.41017 1.24483 0
M  V30 391 O 37.9605 0.486368 1.74654 0
M  V30 392 C 38.0085 3.6035 0.134123 0
M  V30 393 O 37.1125 3.94681 1.19587 0
M  V30 394 H 36.4535 0.661887 -0.0529291 0
M  V30 395 H 38.9835 1.89252 -0.777482 0
M  V30 396 H 38.9935 4.0652 0.347207 0
M  V30 397 H 37.6685 4.08034 -0.805047 0
M  V30 398 H 36.2455 3.60251 0.962987 0
M  V30 399 N 38.4306 0.297415 1.54768 0
M  V30 400 C 39.6766 -0.313376 2.00364 0
M  V30 401 C 40.0096 -1.53815 1.18553 0
M  V30 402 O 39.2846 -1.92739 0.261103 0
M  V30 403 C 39.5676 -0.673525 3.53745 0
M  V30 404 C 39.4206 0.560133 4.46299 0
M  V30 405 C 40.7396 -1.50143 4.13697 0
M  V30 406 H 37.8586 -0.112428 0.728374 0
M  V30 407 H 40.5006 0.4088 1.8555 0
M  V30 408 H 38.6506 -1.28881 3.665 0
M  V30 409 H 40.3226 1.19863 4.45455 0
M  V30 410 H 38.5656 1.19405 4.17043 0
M  V30 411 H 39.2366 0.26405 5.51368 0
M  V30 412 H 41.7126 -0.981588 4.04356 0
M  V30 413 H 40.5886 -1.72221 5.21182 0
M  V30 414 H 40.8496 -2.48952 3.65343 0
M  V30 415 N 39.9087 -1.5758 0.0250728 0
M  V30 416 C 41.1337 -1.96337 -0.668317 0
M  V30 417 C 41.5587 -0.901314 -1.651 0
M  V30 418 O 40.9167 0.138187 -1.80773 0
M  V30 419 C 40.9647 -3.34191 -1.35457 0
M  V30 420 O 40.0687 -3.30269 -2.46974 0
M  V30 421 H 39.4097 -0.640281 -0.175887 0
M  V30 422 H 41.9397 -2.0442 0.0857224 0
M  V30 423 H 41.9497 -3.70331 -1.71228 0
M  V30 424 H 40.6247 -4.11036 -0.634218 0
M  V30 425 H 39.2017 -3.05841 -2.13344 0
M  V30 426 N 41.3868 0.248026 -1.55636 0
M  V30 427 C 42.3168 1.31079 -1.93237 0
M  V30 428 C 43.2978 1.50264 -0.797174 0
M  V30 429 O 44.4828 1.62891 -1.05737 0
M  V30 430 C 41.6128 2.66575 -2.22609 0
M  V30 431 C 40.5668 2.62087 -3.3837 0
M  V30 432 C 39.8928 4.01369 -3.53281 0
M  V30 433 C 41.1928 2.19171 -4.7409 0
M  V30 434 H 42.8868 0.998556 -2.82257 0
M  V30 435 H 40.4328 0.47891 -1.35803 0
M  V30 436 H 42.3858 3.41057 -2.47503 0
M  V30 437 H 41.1098 2.99432 -1.30414 0
M  V30 438 H 39.7688 1.90063 -3.13483 0
M  V30 439 H 39.4168 4.31489 -2.58508 0
M  V30 440 H 39.1168 3.99254 -4.31127 0
M  V30 441 H 40.6408 4.77552 -3.80495 0
M  V30 442 H 42.0548 2.83384 -4.98363 0
M  V30 443 H 40.4518 2.2817 -5.5503 0
M  V30 444 H 41.5218 1.14336 -4.71227 0
M  V30 445 N 42.8649 1.48995 0.513639 0
M  V30 446 C 44.1419 1.48338 1.27495 0
M  V30 447 C 44.5219 0.204065 2.10111 0
M  V30 448 O 43.8699 -0.813881 2.13514 0
M  V30 449 C 44.0799 2.75498 2.14247 0
M  V30 450 C 45.4279 3.24484 2.73852 0
M  V30 451 O 46.4519 2.76528 2.24523 0
M  V30 452 O 45.3109 4.07974 3.6362 0
M  V30 453 H 42.4049 0.593149 0.576284 0
M  V30 454 H 44.9509 1.61246 0.528948 0
M  V30 455 H 43.7229 3.60109 1.53092 0
M  V30 456 H 43.3459 2.6539 2.96064 0
M  V30 457 N 44.343 -0.763751 1.37857 0
M  V30 458 C 45.273 -1.89103 1.36975 0
M  V30 459 C 46.254 -1.68439 0.237152 0
M  V30 460 O 47.439 -1.8918 0.438713 0
M  V30 461 C 44.569 -3.26496 1.18395 0
M  V30 462 C 43.523 -3.61741 2.28751 0
M  V30 463 C 42.849 -4.97762 1.95286 0
M  V30 464 C 44.149 -3.67665 3.70972 0
M  V30 465 H 45.843 -1.90099 2.31307 0
M  V30 466 H 43.389 -0.91319 1.11341 0
M  V30 467 H 45.342 -4.05003 1.16406 0
M  V30 468 H 44.066 -3.25955 0.205215 0
M  V30 469 H 42.725 -2.85547 2.29909 0
M  V30 470 H 42.373 -4.93769 0.959221 0
M  V30 471 H 42.073 -5.22313 2.69189 0
M  V30 472 H 43.597 -5.7866 1.94898 0
M  V30 473 H 45.011 -4.36307 3.719 0
M  V30 474 H 43.408 -4.03718 4.43995 0
M  V30 475 H 44.478 -2.68134 4.0402 0
M  V30 476 N 45.8211 -1.22559 -0.990812 0
M  V30 477 C 47.2321 -1.04791 -1.54518 0
M  V30 478 C 47.5831 0.387998 -1.92325 0
M  V30 479 O 46.7081 1.27328 -1.74976 0
M  V30 480 C 47.3031 -1.896 -2.80779 0
M  V30 481 C 45.8621 -1.76124 -3.32652 0
M  V30 482 C 45.0091 -1.8594 -2.05722 0
M  V30 483 H 47.9601 -1.36374 -0.811662 0
M  V30 484 H 47.9811 -1.41464 -3.53225 0
M  V30 485 H 47.4931 -2.94101 -2.53231 0
M  V30 486 H 45.5941 -0.743643 -3.65104 0
M  V30 487 H 45.7071 -2.58913 -4.03114 0
M  V30 488 H 44.0711 -1.29403 -2.19379 0
M  V30 489 H 44.8541 -2.91976 -1.80568 0
M  V30 490 N 47.2992 1.18797 -1.03562 0
M  V30 491 C 48.7152 1.40671 -0.753917 0
M  V30 492 C 48.9152 1.9043 0.658686 0
M  V30 493 O 47.9712 2.08538 1.42366 0
M  V30 494 C 49.2842 2.41192 -1.79574 0
M  V30 495 C 50.8322 2.54928 -1.81606 0
M  V30 496 C 51.3072 3.58709 -2.84766 0
M  V30 497 N 52.7982 3.66212 -2.83625 0
M  V30 498 C 53.5332 4.46225 -3.60098 0
M  V30 499 N 53.0292 5.29888 -4.46308 0
M  V30 500 N 54.8222 4.40939 -3.4861 0
M  V30 501 H 46.9732 0.848221 -1.94728 0
M  V30 502 H 49.2362 0.435081 -0.842264 0
M  V30 503 H 48.9422 2.11669 -2.80872 0
M  V30 504 H 48.8162 3.40467 -1.62365 0
M  V30 505 H 51.2032 2.83771 -0.809817 0
M  V30 506 H 51.2842 1.55784 -2.02891 0
M  V30 507 H 50.9282 3.30607 -3.85566 0
M  V30 508 H 50.8582 4.57519 -2.60737 0
M  V30 509 H 53.3492 3.06466 -2.21105 0
M  V30 510 H 53.6622 5.88078 -5.01382 0
M  V30 511 H 52.0072 5.29326 -4.50377 0
M  V30 512 H 55.1982 3.74624 -2.80668 0
M  V30 513 H 55.3712 5.03056 -4.08459 0
M  V30 514 N 48.7773 0.814389 1.34928 0
M  V30 515 C 49.7073 0.244827 2.32213 0
M  V30 516 C 50.6883 -0.634024 1.57842 0
M  V30 517 O 51.8733 -0.562676 1.8587 0
M  V30 518 C 49.0033 -0.601106 3.42058 0
M  V30 519 C 47.9573 0.179896 4.27622 0
M  V30 520 C 47.2833 -0.788237 5.28858 0
M  V30 521 C 48.5833 1.38329 5.03649 0
M  V30 522 H 50.2773 1.05763 2.80097 0
M  V30 523 H 47.8233 0.510029 1.34665 0
M  V30 524 H 49.7763 -1.00968 4.09125 0
M  V30 525 H 48.5003 -1.44688 2.92802 0
M  V30 526 H 47.1593 0.569739 3.62146 0
M  V30 527 H 46.8073 -1.62973 4.75866 0
M  V30 528 H 46.5073 -0.269942 5.8698 0
M  V30 529 H 48.0313 -1.19485 5.98795 0
M  V30 530 H 49.4453 1.04918 5.63618 0
M  V30 531 H 47.8423 1.83662 5.71304 0
M  V30 532 H 48.9123 2.16592 4.33839 0
M  V30 533 N 50.2554 -1.46986 0.568584 0
M  V30 534 C 51.4804 -2.07335 0.0520528 0
M  V30 535 C 51.9054 -1.41675 -1.23733 0
M  V30 536 O 51.2634 -0.495623 -1.74394 0
M  V30 537 C 51.3114 -3.60417 -0.11501 0
M  V30 538 O 50.4154 -3.95309 -1.17492 0
M  V30 539 H 49.7564 -0.661597 0.0564385 0
M  V30 540 H 52.2864 -1.88837 0.787507 0
M  V30 541 H 52.2964 -4.06698 -0.325644 0
M  V30 542 H 50.9714 -4.07601 0.826675 0
M  V30 543 H 49.5484 -3.60757 -0.943869 0
M  V30 544 N 51.7335 -0.305618 -1.54608 0
M  V30 545 C 52.9825 0.303098 -1.9941 0
M  V30 546 C 53.2955 1.54648 -1.19764 0
M  V30 547 O 54.5015 2.23007 -1.54855 0
M  V30 548 C 52.9575 0.590588 -3.55021 0
M  V30 549 C 52.5655 -0.634719 -4.43481 0
M  V30 550 C 54.3095 1.16025 -4.08336 0
M  V30 551 C 52.2165 -0.320126 -5.90533 0
M  V30 552 H 51.1465 0.117031 -0.744862 0
M  V30 553 H 53.7975 -0.415045 -1.78745 0
M  V30 554 H 52.1795 1.36845 -3.71604 0
M  V30 555 H 53.3535 -1.41079 -4.38672 0
M  V30 556 H 51.6685 -1.12333 -4.00962 0
M  V30 557 H 54.2655 1.40994 -5.15776 0
M  V30 558 H 54.6085 2.10397 -3.5922 0
M  V30 559 H 55.1415 0.443985 -3.95315 0
M  V30 560 H 51.8805 -1.23254 -6.43808 0
M  V30 561 H 51.4005 0.418579 -5.98338 0
M  V30 562 H 53.0795 0.0766241 -6.46955 0
M  V30 563 N 53.2116 1.57565 -0.0334293 0
M  V30 564 C 54.1436 2.0739 0.975811 0
M  V30 565 C 55.1566 0.998166 1.2861 0
M  V30 566 O 56.3456 1.27426 1.25 0
M  V30 567 C 53.4456 2.4871 2.30209 0
M  V30 568 C 52.6186 3.79413 2.17634 0
M  V30 569 C 51.6776 4.07237 3.33233 0
M  V30 570 O 50.7036 4.77425 3.09927 0
M  V30 571 N 51.9056 3.5775 4.5716 0
M  V30 572 H 54.6706 2.94598 0.55066 0
M  V30 573 H 52.2316 1.61173 0.15323 0
M  V30 574 H 54.2236 2.64413 3.06378 0
M  V30 575 H 52.7936 1.66845 2.64351 0
M  V30 576 H 52.0136 3.73465 1.26165 0
M  V30 577 H 53.3016 4.65038 2.0644 0
M  V30 578 H 52.6996 3.00976 4.78989 0
M  V30 579 H 51.2566 3.78724 5.30482 0
M  V30 580 N 54.6897 -0.239769 1.55765 0
M  V30 581 C 55.6367 -1.29696 1.90913 0
M  V30 582 C 56.6067 -1.47478 0.764164 0
M  V30 583 O 57.7917 -1.61345 1.01845 0
M  V30 584 C 54.9317 -2.64598 2.21544 0
M  V30 585 C 54.0447 -2.54765 3.48882 0
M  V30 586 C 53.1797 -3.82069 3.69049 0
M  V30 587 C 52.2187 -3.66883 4.89963 0
M  V30 588 N 51.3557 -4.86094 5.06614 0
M  V30 589 H 56.1957 -0.990224 2.81067 0
M  V30 590 H 53.7327 -0.477684 1.39128 0
M  V30 591 H 55.6907 -3.43132 2.3731 0
M  V30 592 H 54.3207 -2.93405 1.34585 0
M  V30 593 H 53.3727 -1.67763 3.41409 0
M  V30 594 H 54.6847 -2.39457 4.37563 0
M  V30 595 H 53.8387 -4.69046 3.84812 0
M  V30 596 H 52.5777 -4.00282 2.78614 0
M  V30 597 H 51.5827 -2.78289 4.74168 0
M  V30 598 H 52.8077 -3.50157 5.81865 0
M  V30 599 H 50.7537 -5.04655 4.19117 0
M  V30 600 H 50.6707 -4.73443 5.89396 0
M  V30 601 H 51.9387 -5.74549 5.26795 0
M  V30 602 N 56.1678 -1.49265 -0.50573 0
M  V30 603 C 57.4448 -1.49012 -1.26707 0
M  V30 604 C 57.8248 -0.215205 -2.1 0
M  V30 605 O 57.1728 0.802547 -2.13943 0
M  V30 606 C 57.3828 -2.7663 -2.12783 0
M  V30 607 C 58.7308 -3.25932 -2.72127 0
M  V30 608 O 59.7548 -2.77715 -2.23054 0
M  V30 609 O 58.6138 -4.09897 -3.61451 0
M  V30 610 H 55.7078 -0.596197 -0.57313 0
M  V30 611 H 58.2538 -1.61524 -0.52039 0
M  V30 612 H 57.0258 -3.60916 -1.5118 0
M  V30 613 H 56.6488 -2.66956 -2.94653 0
M  V30 614 N 57.6459 0.756429 -1.3826 0
M  V30 615 C 58.8949 1.51082 -1.3363 0
M  V30 616 C 59.2079 1.95467 0.0720068 0
M  V30 617 O 60.4139 2.7043 0.240834 0
M  V30 618 C 58.8699 2.72893 -2.34644 0
M  V30 619 C 58.4779 2.35544 -3.81081 0
M  V30 620 C 60.2219 3.50791 -2.39052 0
M  V30 621 C 58.1289 3.53948 -4.73787 0
M  V30 622 H 57.0589 0.56727 -0.49671 0
M  V30 623 H 59.7099 0.827147 -1.638 0
M  V30 624 H 58.0919 3.43227 -1.97513 0
M  V30 625 H 59.2659 1.72894 -4.27135 0
M  V30 626 H 57.5809 1.70786 -3.79764 0
M  V30 627 H 60.1779 4.38823 -3.05513 0
M  V30 628 H 60.5209 3.91745 -1.40861 0
M  V30 629 H 61.0539 2.87467 -2.74968 0
M  V30 630 H 57.7929 3.18064 -5.73163 0
M  V30 631 H 57.3129 4.15651 -4.32428 0
M  V30 632 H 58.9919 4.20566 -4.91663 0
M  V30 633 N 59.124 1.23083 0.984299 0
M  V30 634 C 60.054 1.03292 2.09411 0
M  V30 635 C 61.035 -0.048923 1.7003 0
M  V30 636 O 62.22 0.114967 1.93859 0
M  V30 637 C 59.35 0.619155 3.41736 0
M  V30 638 C 58.304 1.64791 3.95004 0
M  V30 639 C 57.63 1.0897 5.23478 0
M  V30 640 C 58.93 3.03999 4.24714 0
M  V30 641 H 60.624 1.96119 2.26225 0
M  V30 642 H 58.17 0.944344 1.08711 0
M  V30 643 H 60.123 0.467777 4.18796 0
M  V30 644 H 58.847 -0.344786 3.24775 0
M  V30 645 H 57.506 1.78721 3.20085 0
M  V30 646 H 57.154 0.11686 5.02864 0
M  V30 647 H 56.854 1.77704 5.60085 0
M  V30 648 H 58.378 0.950093 6.03163 0
M  V30 649 H 59.792 2.93393 4.92538 0
M  V30 650 H 58.189 3.69936 4.72512 0
M  V30 651 H 59.259 3.53285 3.32142 0
M  V30 652 N 60.6021 -1.18246 1.0419 0
M  V30 653 C 61.8301 -1.92195 0.766072 0
M  V30 654 C 62.2451 -1.76247 -0.676933 0
M  V30 655 O 61.6021 -1.09293 -1.46155 0
M  V30 656 C 61.6531 -3.43568 1.12442 0
M  V30 657 O 61.3741 -3.59015 2.51078 0
M  V30 658 C 62.8751 -4.34613 0.873275 0
M  V30 659 H 60.0951 -0.610114 0.279288 0
M  V30 660 H 62.6391 -1.50007 1.38989 0
M  V30 661 H 60.7941 -3.8354 0.545542 0
M  V30 662 H 61.2081 -4.5273 2.64831 0
M  V30 663 H 62.6821 -5.39374 1.17385 0
M  V30 664 H 63.1591 -4.38781 -0.191909 0
M  V30 665 H 63.7651 -4.00341 1.43551 0
M  V30 666 N 62.0802 -0.821533 -1.34494 0
M  V30 667 C 63.3292 -0.405355 -1.97585 0
M  V30 668 C 63.6422 1.03677 -1.65863 0
M  V30 669 O 64.8482 1.55679 -2.22433 0
M  V30 670 C 63.3042 -0.673861 -3.53535 0
M  V30 671 C 62.9122 -2.12951 -3.94152 0
M  V30 672 C 64.6562 -0.32378 -4.23263 0
M  V30 673 C 62.5632 -2.34298 -5.43009 0
M  V30 674 H 61.4932 -0.147836 -0.739365 0
M  V30 675 H 64.1442 -1.00769 -1.53355 0
M  V30 676 H 62.5262 -0.00137554 -3.96 0
M  V30 677 H 63.7002 -2.84104 -3.62797 0
M  V30 678 H 62.0152 -2.44089 -3.37356 0
M  V30 679 H 64.6122 -0.461126 -5.32708 0
M  V30 680 H 64.9552 0.731586 -4.09821 0
M  V30 681 H 65.4882 -0.950786 -3.8627 0
M  V30 682 H 62.2272 -3.38335 -5.61435 0
M  V30 683 H 61.7472 -1.67687 -5.75883 0
M  V30 684 H 63.4262 -2.16588 -6.09671 0
M  V30 685 N 63.5583 1.46682 -0.576371 0
M  V30 686 C 64.5053 2.30241 0.160499 0
M  V30 687 C 65.4753 1.40233 0.890162 0
M  V30 688 O 66.6603 1.69186 0.882084 0
M  V30 689 C 63.8003 3.24578 1.1723 0
M  V30 690 C 62.9133 4.29684 0.446736 0
M  V30 691 C 62.0483 5.11154 1.44551 0
M  V30 692 C 61.0873 6.08015 0.70599 0
M  V30 693 N 60.2243 6.82376 1.65251 0
M  V30 694 H 65.0643 2.92727 -0.558127 0
M  V30 695 H 62.6013 1.44272 -0.287056 0
M  V30 696 H 64.5593 3.77711 1.77172 0
M  V30 697 H 63.1893 2.63916 1.85872 0
M  V30 698 H 62.2413 3.79458 -0.267594 0
M  V30 699 H 63.5533 4.98626 -0.131686 0
M  V30 700 H 62.7073 5.68533 2.11791 0
M  V30 701 H 61.4463 4.42158 2.05786 0
M  V30 702 H 60.4513 5.49796 0.0197725 0
M  V30 703 H 61.6763 6.79028 0.09912 0
M  V30 704 H 59.6223 6.16094 2.25308 0
M  V30 705 H 59.5393 7.47556 1.12673 0
M  V30 706 H 60.8073 7.44316 2.31546 0
M  V30 707 N 65.0364 0.313813 1.54444 0
M  V30 708 C 65.9994 -0.54379 2.22656 0
M  V30 709 C 66.9994 -1.05124 1.21678 0
M  V30 710 O 68.1894 -0.945225 1.46325 0
M  V30 711 C 65.3214 -1.75427 2.92298 0
M  V30 712 H 66.5144 0.0523599 2.99854 0
M  V30 713 H 64.0674 0.0647834 1.56166 0
M  V30 714 H 64.8024 -2.38991 2.19211 0
M  V30 715 H 64.5874 -1.39791 3.66334 0
M  V30 716 H 66.0774 -2.36325 3.44297 0
M  V30 717 N 66.5145 -1.57545 0.0417849 0
M  V30 718 C 67.4625 -2.12148 -0.953723 0
M  V30 719 C 68.4565 -1.05104 -1.32852 0
M  V30 720 O 69.6625 -1.23524 -1.30927 0
M  V30 721 H 66.0375 -0.677957 -0.325389 0
M  V30 722 H 68.0085 -2.94707 -0.467991 0
M  V30 723 C 66.7575 -2.6739 -2.22257 0
M  V30 724 H 66.0805 -3.49413 -1.94295 0
M  V30 725 H 67.5205 -3.09227 -2.90094 0
M  V30 726 C 65.9795 -1.60723 -2.96091 0
M  V30 727 O 66.5095 -1.01449 -3.88679 0
M  V30 728 N 64.7155 -1.32466 -2.58652 0
M  V30 729 H 64.2625 -1.80856 -1.83437 0
M  V30 730 H 64.2205 -0.61325 -3.08361 0
M  V30 731 N 67.9926 0.231505 -1.5589 0
M  V30 732 C 69.2206 0.974505 -1.82513 0
M  V30 733 C 69.6356 1.78344 -0.619591 0
M  V30 734 O 68.9926 1.77792 0.411848 0
M  V30 735 C 69.0436 1.90007 -3.07538 0
M  V30 736 O 68.7646 1.12385 -4.2344 0
M  V30 737 C 70.2656 2.75779 -3.47075 0
M  V30 738 H 67.4856 0.286065 -0.606966 0
M  V30 739 H 70.0296 0.249739 -2.02969 0
M  V30 740 H 68.1846 2.57891 -2.89086 0
M  V30 741 H 68.5986 1.75125 -4.944 0
M  V30 742 H 70.0726 3.36443 -4.37619 0
M  V30 743 H 70.5496 3.47672 -2.68367 0
M  V30 744 H 71.1556 2.13323 -3.67931 0
M  V30 745 N 69.4707 1.49531 0.497807 0
M  V30 746 C 70.6987 1.62893 1.27567 0
M  V30 747 C 71.1137 0.301585 1.86376 0
M  V30 748 O 70.4707 -0.713335 1.67982 0
M  V30 749 C 70.5217 2.70013 2.40364 0
M  V30 750 O 70.2427 3.976 1.83972 0
M  V30 751 C 71.7437 2.94109 3.31685 0
M  V30 752 H 68.9637 0.548298 0.386794 0
M  V30 753 H 71.5077 1.95584 0.597245 0
M  V30 754 H 69.6627 2.40092 3.04031 0
M  V30 755 H 70.0767 4.56631 2.58047 0
M  V30 756 H 71.5507 3.72788 4.07104 0
M  V30 757 H 72.0277 2.04147 3.88871 0
M  V30 758 H 72.6337 3.2546 2.73781 0
M  V30 759 N 70.9488 -0.749086 1.3866 0
M  V30 760 C 71.8788 -1.8764 1.38973 0
M  V30 761 C 72.8598 -1.68178 0.255004 0
M  V30 762 O 74.0448 -1.88704 0.458754 0
M  V30 763 C 71.1748 -3.25222 1.21851 0
M  V30 764 C 70.1288 -3.59295 2.32575 0
M  V30 765 C 69.4548 -4.95663 2.00555 0
M  V30 766 C 70.7548 -3.63709 3.7485 0
M  V30 767 H 72.4488 -1.87635 2.3331 0
M  V30 768 H 69.9948 -0.901329 1.12303 0
M  V30 769 H 71.9478 -4.03746 1.20695 0
M  V30 770 H 70.6718 -3.25719 0.239775 0
M  V30 771 H 69.3308 -2.83093 2.32925 0
M  V30 772 H 68.9788 -4.92724 1.01154 0
M  V30 773 H 68.6788 -5.19429 2.74714 0
M  V30 774 H 70.2028 -5.7656 2.01024 0
M  V30 775 H 71.6168 -4.32338 3.76506 0
M  V30 776 H 70.0138 -3.98986 4.48252 0
M  V30 777 H 71.0838 -2.63834 4.06841 0
M  V30 778 N 72.4269 -1.23603 -0.977757 0
M  V30 779 C 73.3589 -0.977369 -2.07317 0
M  V30 780 C 74.3719 0.0495845 -1.62724 0
M  V30 781 O 75.5609 -0.186261 -1.77526 0
M  V30 782 C 72.6609 -0.451216 -3.35883 0
M  V30 783 C 71.8339 -1.53896 -4.09432 0
M  V30 784 C 70.8929 -1.01721 -5.16274 0
M  V30 785 O 69.9189 -1.70676 -5.43009 0
M  V30 786 N 71.1209 0.153594 -5.80297 0
M  V30 787 H 73.8859 -1.92047 -2.30082 0
M  V30 788 H 71.4469 -1.14497 -1.14465 0
M  V30 789 H 73.4389 -0.0871574 -4.04606 0
M  V30 790 H 72.0089 0.397368 -3.10064 0
M  V30 791 H 71.2289 -2.07566 -3.35127 0
M  V30 792 H 72.5169 -2.27037 -4.55337 0
M  V30 793 H 71.9149 0.730323 -5.60966 0
M  V30 794 H 70.4719 0.458892 -6.50183 0
M  V30 795 N 73.905 1.17692 -1.04816 0
M  V30 796 C 75.154 1.87192 -0.751132 0
M  V30 797 C 75.467 1.8169 0.724441 0
M  V30 798 O 76.673 2.46625 1.13527 0
M  V30 799 C 75.129 3.35857 -1.29338 0
M  V30 800 C 74.737 3.4987 -2.79812 0
M  V30 801 C 76.481 4.10709 -1.07322 0
M  V30 802 C 74.388 4.92536 -3.27356 0
M  V30 803 H 73.318 0.701162 -0.277288 0
M  V30 804 H 75.969 1.32932 -1.26496 0
M  V30 805 H 74.351 3.89631 -0.707376 0
M  V30 806 H 75.525 3.06332 -3.44235 0
M  V30 807 H 73.84 2.88433 -3.00325 0
M  V30 808 H 76.437 5.15952 -1.4035 0
M  V30 809 H 76.78 4.16299 -0.0108001 0
M  V30 810 H 77.313 3.6313 -1.62423 0
M  V30 811 H 74.052 4.92119 -4.33012 0
M  V30 812 H 73.572 5.3676 -2.67673 0
M  V30 813 H 75.251 5.61288 -3.21815 0
M  V30 814 N 75.3831 0.828654 1.34056 0
M  V30 815 C 76.6111 0.43262 2.02326 0
M  V30 816 C 77.0261 -0.963147 1.62385 0
M  V30 817 O 76.3831 -1.62425 0.832121 0
M  V30 818 C 76.4341 0.53182 3.57567 0
M  V30 819 O 76.1551 1.87258 3.96063 0
M  V30 820 C 77.6561 0.131422 4.43105 0
M  V30 821 H 74.8761 0.172923 0.648335 0
M  V30 822 H 77.4201 1.1184 1.71208 0
M  V30 823 H 75.5751 -0.105938 3.87255 0
M  V30 824 H 75.9891 1.85087 4.90758 0
M  V30 825 H 77.4631 0.251904 5.51425 0
M  V30 826 H 77.9401 -0.925645 4.29335 0
M  V30 827 H 78.5461 0.743207 4.18756 0
M  V30 828 N 76.8612 -1.46375 0.584142 0
M  V30 829 C 78.1012 -2.0427 0.0729695 0
M  V30 830 C 78.4652 -1.44563 -1.26355 0
M  V30 831 O 79.6662 -1.93667 -1.86405 0
M  V30 832 C 77.9372 -3.57399 0.00967464 0
M  V30 833 S 79.4962 -4.36551 -0.443714 0
M  V30 834 H 76.3142 -0.709975 0.0381673 0
M  V30 835 H 78.9162 -1.79398 0.776962 0
M  V30 836 H 77.6202 -3.98372 0.986319 0
M  V30 837 H 77.1512 -3.8681 -0.717044 0
M  V30 838 H 79.1662 -4.66237 -1.69816 0
M  V30 839 N 78.3393 -0.321999 -1.54275 0
M  V30 840 C 79.7553 0.0306999 -1.5957 0
M  V30 841 C 79.9553 1.50614 -1.33857 0
M  V30 842 O 79.0113 2.2619 -1.12223 0
M  V30 843 C 80.3243 -0.386122 -2.98211 0
M  V30 844 C 81.8723 -0.336647 -3.11184 0
M  V30 845 C 82.3473 -0.728607 -4.52167 0
M  V30 846 N 83.8383 -0.681952 -4.58152 0
M  V30 847 C 84.5733 -0.957449 -5.6535 0
M  V30 848 N 84.0693 -1.3 -6.80494 0
M  V30 849 N 85.8623 -0.883113 -5.55119 0
M  V30 850 H 78.0133 -1.28332 -1.69247 0
M  V30 851 H 80.2763 -0.521716 -0.791528 0
M  V30 852 H 79.9823 -1.41404 -3.22022 0
M  V30 853 H 79.8563 0.249662 -3.76373 0
M  V30 854 H 82.2433 0.682058 -2.8711 0
M  V30 855 H 82.3243 -1.00734 -2.3513 0
M  V30 856 H 81.9683 -1.74522 -4.76974 0
M  V30 857 H 81.8983 -0.0356152 -5.26588 0
M  V30 858 H 84.3893 -0.428985 -3.75457 0
M  V30 859 H 84.7023 -1.49563 -7.58189 0
M  V30 860 H 83.0473 -1.33824 -6.81994 0
M  V30 861 H 86.2383 -0.615001 -4.64042 0
M  V30 862 H 86.4113 -1.10118 -6.38575 0
M  V30 863 N 79.8174 1.5752 -0.0501392 0
M  V30 864 C 81.0654 1.9227 0.622642 0
M  V30 865 C 81.3864 0.929083 1.71444 0
M  V30 866 O 80.6564 -0.0262186 1.95882 0
M  V30 867 H 79.2364 0.709739 0.232981 0
M  V30 868 H 81.8984 1.94628 -0.102898 0
M  V30 869 H 80.9944 2.93479 1.06191 0
M  V30 870 N 81.2955 -0.223234 1.56011 0
M  V30 871 C 82.2275 -1.30006 1.88762 0
M  V30 872 C 83.2405 -1.43129 0.775746 0
M  V30 873 O 84.4295 -1.44057 1.05403 0
M  V30 874 C 81.5295 -2.67589 2.07965 0
M  V30 875 C 80.7025 -2.76434 3.38973 0
M  V30 876 C 79.7615 -3.95019 3.47629 0
M  V30 877 O 78.7875 -3.83436 4.20672 0
M  V30 878 N 79.9895 -5.09249 2.78649 0
M  V30 879 H 82.7545 -1.02238 2.81722 0
M  V30 880 H 80.3155 -0.413278 1.56536 0
M  V30 881 H 82.3075 -3.45297 2.11073 0
M  V30 882 H 80.8775 -2.87964 1.21638 0
M  V30 883 H 80.0975 -1.85216 3.47978 0
M  V30 884 H 81.3855 -2.79313 4.25278 0
M  V30 885 H 80.7835 -5.21556 2.19081 0
M  V30 886 H 79.3405 -5.85007 2.8742 0
M  V30 887 N 82.7736 -1.49793 -0.48987 0
M  V30 888 C 84.1896 -1.36803 -0.822022 0
M  V30 889 C 84.3896 -0.409652 -1.97292 0
M  V30 890 O 83.4456 0.154614 -2.52026 0
M  V30 891 C 84.7586 -2.77768 -1.15175 0
M  V30 892 C 86.3066 -2.86549 -1.25931 0
M  V30 893 C 86.7816 -4.28306 -1.62228 0
M  V30 894 N 88.2726 -4.31169 -1.69256 0
M  V30 895 C 89.0076 -5.37832 -1.98807 0
M  V30 896 N 88.5036 -6.54726 -2.26507 0
M  V30 897 N 90.2966 -5.25258 -2.00152 0
M  V30 898 H 82.4476 -2.10691 0.268881 0
M  V30 899 H 84.7106 -0.946241 0.057728 0
M  V30 900 H 84.4166 -3.49648 -0.379335 0
M  V30 901 H 84.2906 -3.13836 -2.09253 0
M  V30 902 H 86.6776 -2.14899 -2.02243 0
M  V30 903 H 86.7586 -2.54049 -0.298776 0
M  V30 904 H 86.4026 -5.00486 -0.864622 0
M  V30 905 H 86.3326 -4.58279 -2.594 0
M  V30 906 H 88.8236 -3.4687 -1.49965 0
M  V30 907 H 89.1366 -7.31833 -2.48276 0
M  V30 908 H 87.4816 -6.57933 -2.23939 0
M  V30 909 H 90.6726 -4.32938 -1.77996 0
M  V30 910 H 90.8456 -6.08476 -2.22848 0
M  V30 911 N 84.2517 0.741722 -1.39055 0
M  V30 912 C 85.5287 1.49252 -1.26425 0
M  V30 913 C 85.9087 2.10705 0.129144 0
M  V30 914 O 85.2567 1.98045 1.13976 0
M  V30 915 C 85.4667 2.54934 -2.38347 0
M  V30 916 C 86.8147 3.21506 -2.77343 0
M  V30 917 O 87.8387 2.65245 -2.37747 0
M  V30 918 O 86.6977 4.23294 -3.45665 0
M  V30 919 H 83.7917 0.662451 -0.495064 0
M  V30 920 H 86.3377 0.776121 -1.50912 0
M  V30 921 H 85.1097 2.07857 -3.31529 0
M  V30 922 H 84.7327 3.34141 -2.15489 0
M  V30 923 N 85.7298 1.2412 0.971189 0
M  V30 924 C 86.6598 1.05508 2.08304 0
M  V30 925 C 87.6408 -0.0308864 1.70072 0
M  V30 926 O 88.8258 0.135521 1.93727 0
M  V30 927 C 85.9558 0.655365 3.4106 0
M  V30 928 C 84.9098 1.68971 3.93234 0
M  V30 929 C 84.2358 1.14516 5.22293 0
M  V30 930 C 85.5358 3.08487 4.21465 0
M  V30 931 H 87.2298 1.98507 2.24132 0
M  V30 932 H 84.7758 0.955821 1.07704 0
M  V30 933 H 86.7288 0.51217 4.18276 0
M  V30 934 H 85.4528 -0.31032 3.25122 0
M  V30 935 H 84.1118 1.82106 3.18171 0
M  V30 936 H 83.7598 0.170189 5.02712 0
M  V30 937 H 83.4598 1.83635 5.58168 0
M  V30 938 H 84.9838 1.01401 6.02121 0
M  V30 939 H 86.3978 2.98601 4.89398 0
M  V30 940 H 84.7948 3.74926 4.68562 0
M  V30 941 H 85.8648 3.56787 3.28376 0
M  V30 942 N 87.2079 -1.17134 1.05439 0
M  V30 943 C 88.4849 -1.83411 0.679699 0
M  V30 944 C 88.8649 -1.9368 -0.839726 0
M  V30 945 O 88.2129 -1.47325 -1.74664 0
M  V30 946 C 88.4229 -3.20918 1.37159 0
M  V30 947 C 89.7709 -3.96796 1.51123 0
M  V30 948 O 90.7949 -3.30406 1.3308 0
M  V30 949 O 89.6539 -5.15778 1.80651 0
M  V30 950 H 86.7479 -0.79154 0.239569 0
M  V30 951 H 89.2939 -1.24411 1.15413 0
M  V30 952 H 88.0659 -3.08428 2.40807 0
M  V30 953 H 87.6889 -3.87587 0.886674 0
M  V30 954 N 88.686 -0.835752 -1.33615 0
M  V30 955 C 89.932 -0.439817 -1.98588 0
M  V30 956 C 90.287 0.989274 -1.65019 0
M  V30 957 O 89.58 1.68168 -0.918159 0
M  V30 958 C 89.774 -0.593925 -3.52431 0
M  V30 959 C 89.603 -2.03644 -4.00948 0
M  V30 960 C 88.373 -2.67103 -4.28934 0
M  V30 961 C 90.571 -3.00479 -4.17393 0
M  V30 962 N 88.553 -4.02462 -4.6357 0
M  V30 963 C 89.924 -4.20777 -4.55353 0
M  V30 964 C 91.979 -2.96926 -3.99674 0
M  V30 965 C 90.682 -5.37994 -4.77447 0
M  V30 966 C 92.708 -4.1337 -4.22941 0
M  V30 967 C 92.07 -5.32422 -4.61201 0
M  V30 968 H 88.169 -0.209303 -0.75347 0
M  V30 969 H 90.753 -1.08316 -1.61789 0
M  V30 970 H 88.924 0.019599 -3.88395 0
M  V30 971 H 90.656 -0.169738 -4.04344 0
M  V30 972 H 87.411 -2.18259 -4.20309 0
M  V30 973 H 87.835 -4.72232 -4.85104 0
M  V30 974 H 92.477 -2.06015 -3.69212 0
M  V30 975 H 90.195 -6.29451 -5.06771 0
M  V30 976 H 93.781 -4.12034 -4.10754 0
M  V30 977 H 92.661 -6.21027 -4.78848 0
M  V30 978 N 90.1641 1.46063 -0.591896 0
M  V30 979 C 91.0941 2.33172 0.123673 0
M  V30 980 C 92.0751 1.45897 0.87453 0
M  V30 981 O 93.2601 1.74698 0.848181 0
M  V30 982 C 90.3901 3.28336 1.13194 0
M  V30 983 C 89.3441 4.25124 0.495324 0
M  V30 984 C 88.6701 5.09863 1.61071 0
M  V30 985 C 89.9701 5.19143 -0.573425 0
M  V30 986 H 91.6641 2.93252 -0.603646 0
M  V30 987 H 89.2101 1.41014 -0.291741 0
M  V30 988 H 91.1631 3.88137 1.64097 0
M  V30 989 H 89.8871 2.66383 1.88965 0
M  V30 990 H 88.5461 3.66599 0.00729452 0
M  V30 991 H 88.1941 4.44288 2.35832 0
M  V30 992 H 87.8941 5.75417 1.19035 0
M  V30 993 H 89.4181 5.72529 2.12233 0
M  V30 994 H 90.8321 5.73106 -0.1491 0
M  V30 995 H 89.2291 5.93089 -0.914636 0
M  V30 996 H 90.2991 4.62519 -1.45617 0
M  V30 997 N 91.6422 0.330177 1.54103 0
M  V30 998 C 92.8882 -0.263542 2.01685 0
M  V30 999 C 93.2432 -1.49258 1.21408 0
M  V30 1000 O 92.5362 -1.89395 0.289852 0
M  V30 1001 C 92.7302 -0.643134 3.51566 0
M  V30 1002 C 92.5592 0.547571 4.46354 0
M  V30 1003 C 91.3292 1.04873 4.94297 0
M  V30 1004 C 93.5272 1.40184 4.94826 0
M  V30 1005 N 91.5092 2.20316 5.73005 0
M  V30 1006 C 92.8802 2.40335 5.71524 0
M  V30 1007 C 94.9352 1.42884 4.76958 0
M  V30 1008 C 93.6382 3.42998 6.32254 0
M  V30 1009 C 95.6642 2.44421 5.38528 0
M  V30 1010 C 95.0262 3.43298 6.15082 0
M  V30 1011 H 91.1252 -0.0601026 0.779687 0
M  V30 1012 H 93.7092 0.466714 1.89023 0
M  V30 1013 H 91.8802 -1.34251 3.6446 0
M  V30 1014 H 93.6122 -1.21889 3.85908 0
M  V30 1015 H 90.3672 0.618956 4.69538 0
M  V30 1016 H 90.7912 2.78565 6.17034 0
M  V30 1017 H 95.4332 0.678049 4.17328 0
M  V30 1018 H 93.1512 4.1898 6.91 0
M  V30 1019 H 96.7372 2.4732 5.26616 0
M  V30 1020 H 95.6172 4.20579 6.61878 0
M  V30 1021 N 93.1203 -1.57491 0.0584922 0
M  V30 1022 C 94.5313 -1.80526 -0.476138 0
M  V30 1023 C 94.8823 -0.971334 -1.70469 0
M  V30 1024 O 94.0073 -0.190012 -2.15564 0
M  V30 1025 C 94.6023 -3.27424 -0.870587 0
M  V30 1026 C 93.1613 -3.51351 -1.35015 0
M  V30 1027 C 92.3083 -2.75343 -0.32887 0
M  V30 1028 H 95.2593 -1.56133 0.284312 0
M  V30 1029 H 95.2803 -3.38745 -1.73299 0
M  V30 1030 H 94.7923 -3.88093 0.0237627 0
M  V30 1031 H 92.8933 -2.95971 -2.26345 0
M  V30 1032 H 93.0063 -4.60059 -1.33726 0
M  V30 1033 H 91.3703 -2.417 -0.803321 0
M  V30 1034 H 92.1533 -3.38743 0.557521 0
M  V30 1035 N 94.5984 0.214957 -1.56127 0
M  V30 1036 C 95.5464 1.28601 -1.93816 0
M  V30 1037 C 96.5404 1.48175 -0.821016 0
M  V30 1038 O 97.7464 1.49271 -1.0059 0
M  V30 1039 H 94.1214 0.431302 -0.616022 0
M  V30 1040 H 96.0924 0.940991 -2.83175 0
M  V30 1041 C 94.8414 2.62779 -2.27689 0
M  V30 1042 H 94.1644 2.48527 -3.13168 0
M  V30 1043 H 95.6044 3.36517 -2.57939 0
M  V30 1044 C 94.0634 3.18285 -1.10436 0
M  V30 1045 O 94.5934 4.00002 -0.368945 0
M  V30 1046 N 92.7994 2.7675 -0.886433 0
M  V30 1047 H 92.3464 2.10404 -1.48619 0
M  V30 1048 H 92.3044 3.14229 -0.103656 0
M  V30 1049 N 96.0765 1.50051 0.48192 0
M  V30 1050 C 97.0245 1.68635 1.60203 0
M  V30 1051 C 98.0185 0.552184 1.60148 0
M  V30 1052 O 99.2245 0.732377 1.64427 0
M  V30 1053 H 95.5995 0.532081 0.531407 0
M  V30 1054 H 97.5705 2.62616 1.41688 0
M  V30 1055 C 96.3195 1.78775 2.9822 0
M  V30 1056 H 95.6425 2.6543 2.98976 0
M  V30 1057 H 97.0825 1.95806 3.7608 0
M  V30 1058 C 95.5415 0.536849 3.32595 0
M  V30 1059 O 96.0715 -0.328897 4.00351 0
M  V30 1060 N 94.2775 0.394091 2.87915 0
M  V30 1061 H 93.8245 1.09962 2.32951 0
M  V30 1062 H 93.7825 -0.441737 3.11281 0
M  V30 1063 N 97.5546 -0.734337 1.39446 0
M  V30 1064 C 98.4866 -1.85861 1.34121 0
M  V30 1065 C 99.4996 -1.60871 0.249864 0
M  V30 1066 O 100.689 -1.71093 0.508865 0
M  V30 1067 C 97.7886 -3.21899 1.05991 0
M  V30 1068 C 96.9616 -3.74239 2.26415 0
M  V30 1069 C 96.0206 -4.88841 1.94733 0
M  V30 1070 O 95.0466 -5.02468 2.67422 0
M  V30 1071 N 96.2486 -5.73261 0.913884 0
M  V30 1072 H 99.0136 -1.90934 2.31007 0
M  V30 1073 H 96.5746 -0.915102 1.33557 0
M  V30 1074 H 98.5666 -3.96136 0.828147 0
M  V30 1075 H 97.1366 -3.12091 0.178361 0
M  V30 1076 H 96.3566 -2.91347 2.65539 0
M  V30 1077 H 97.6446 -4.05942 3.06738 0
M  V30 1078 H 97.0426 -5.64842 0.311476 0
M  V30 1079 H 95.5996 -6.47563 0.742015 0
M  V30 1080 N 99.0327 -1.24633 -0.964593 0
M  V30 1081 C 100.258 -1.11596 -1.74818 0
M  V30 1082 C 100.683 0.32723 -1.85232 0
M  V30 1083 O 100.041 1.23695 -1.32549 0
M  V30 1084 C 100.089 -1.76397 -3.1451 0
M  V30 1085 O 99.1927 -1.03685 -3.99153 0
M  V30 1086 H 98.5337 -0.390196 -0.537255 0
M  V30 1087 H 101.064 -1.65002 -1.20977 0
M  V30 1088 H 101.074 -1.8228 -3.65018 0
M  V30 1089 H 99.7487 -2.81401 -3.06246 0
M  V30 1090 H 98.3257 -1.05611 -3.57632 0
M  V30 1091 N 100.511 1.16574 -1.06058 0
M  V30 1092 C 101.759 1.86677 -0.77434 0
M  V30 1093 C 102.08 1.81959 0.701147 0
M  V30 1094 O 101.35 1.2515 1.50713 0
M  V30 1095 H 99.9298 0.691134 -0.283449 0
M  V30 1096 H 102.592 1.41378 -1.34158 0
M  V30 1097 H 101.688 2.92181 -1.09711 0
M  V30 1098 N 101.989 0.842826 1.3317 0
M  V30 1099 C 103.214 0.453129 2.02389 0
M  V30 1100 C 103.639 -0.939105 1.6298 0
M  V30 1101 O 102.997 -1.61472 0.8244 0
M  V30 1102 C 103.045 0.586094 3.55805 0
M  V30 1103 O 102.149 -0.386029 4.10589 0
M  V30 1104 H 101.49 0.183664 0.638094 0
M  V30 1105 H 104.02 1.13875 1.69981 0
M  V30 1106 H 104.03 0.469209 4.05293 0
M  V30 1107 H 102.705 1.6014 3.83833 0
M  V30 1108 H 101.282 -0.226371 3.72212 0
M  V30 1109 N 103.467 -1.45747 0.599634 0
M  V30 1110 C 104.377 -2.34262 -0.125888 0
M  V30 1111 C 105.393 -1.50768 -0.868625 0
M  V30 1112 O 106.569 -1.83592 -0.828003 0
M  V30 1113 C 103.634 -3.28252 -1.11587 0
M  V30 1114 C 102.695 -4.27651 -0.375956 0
M  V30 1115 C 101.928 -5.1715 -1.31877 0
M  V30 1116 O 102.151 -5.09916 -2.55621 0
M  V30 1117 O 101.085 -5.96286 -0.820157 0
M  V30 1118 H 104.911 -2.97688 0.601315 0
M  V30 1119 H 102.496 -1.44999 0.359934 0
M  V30 1120 H 104.378 -3.86191 -1.68626 0
M  V30 1121 H 103.053 -2.67401 -1.82424 0
M  V30 1122 H 101.96 -3.7335 0.236698 0
M  V30 1123 H 103.293 -4.91334 0.29177 0
M  V30 1124 N 104.945 -0.338344 -1.53925 0
M  V30 1125 C 105.877 0.555117 -2.22376 0
M  V30 1126 C 106.89 1.06812 -1.22862 0
M  V30 1127 O 108.079 0.979163 -1.49247 0
M  V30 1128 C 105.179 1.77609 -2.88631 0
M  V30 1129 C 104.352 1.39927 -4.14414 0
M  V30 1130 C 103.411 2.47936 -4.64127 0
M  V30 1131 O 102.437 2.11461 -5.28463 0
M  V30 1132 N 103.639 3.79107 -4.39612 0
M  V30 1133 H 106.404 -0.0310778 -2.99684 0
M  V30 1134 H 103.965 -0.162226 -1.61085 0
M  V30 1135 H 105.957 2.49287 -3.18807 0
M  V30 1136 H 104.527 2.26978 -2.14941 0
M  V30 1137 H 103.747 0.513481 -3.90841 0
M  V30 1138 H 105.035 1.12341 -4.96243 0
M  V30 1139 H 104.433 4.11531 -3.88148 0
M  V30 1140 H 102.99 4.4697 -4.74406 0
M  V30 1141 N 106.423 1.57458 -0.0668435 0
M  V30 1142 C 107.839 1.56947 0.289772 0
M  V30 1143 C 108.039 1.07584 1.70376 0
M  V30 1144 O 107.095 0.739486 2.41429 0
M  V30 1145 C 108.408 3.0052 0.103943 0
M  V30 1146 C 109.956 3.12517 0.173857 0
M  V30 1147 C 110.431 4.57997 0.0163682 0
M  V30 1148 N 111.922 4.63144 0.0721352 0
M  V30 1149 C 112.657 5.73394 -0.0253794 0
M  V30 1150 N 112.153 6.92576 -0.176133 0
M  V30 1151 N 113.946 5.62091 0.0313305 0
M  V30 1152 H 106.097 1.87863 -0.991027 0
M  V30 1153 H 108.36 0.86583 -0.38606 0
M  V30 1154 H 108.066 3.40729 -0.871572 0
M  V30 1155 H 107.94 3.67304 0.858366 0
M  V30 1156 H 110.327 2.72197 1.13985 0
M  V30 1157 H 110.408 2.48381 -0.611586 0
M  V30 1158 H 110.052 4.99005 -0.946374 0
M  V30 1159 H 109.982 5.20158 0.821153 0
M  V30 1160 H 112.473 3.77436 0.187263 0
M  V30 1161 H 112.786 7.72418 -0.242821 0
M  V30 1162 H 111.131 6.94678 -0.211429 0
M  V30 1163 H 114.322 4.67867 0.147773 0
M  V30 1164 H 114.495 6.47982 -0.048121 0
M  V30 1165 N 107.901 -0.206675 1.56239 0
M  V30 1166 C 109.147 -0.930218 1.80208 0
M  V30 1167 C 109.48 -1.83387 0.638981 0
M  V30 1168 O 108.755 -1.91119 -0.361066 0
M  V30 1169 C 109.038 -1.75641 3.1436 0
M  V30 1170 C 108.891 -0.878257 4.41142 0
M  V30 1171 C 110.21 -2.73129 3.45092 0
M  V30 1172 H 107.329 -0.336742 0.655571 0
M  V30 1173 H 109.971 -0.198222 1.88963 0
M  V30 1174 H 108.121 -2.38048 3.07027 0
M  V30 1175 H 109.793 -0.269787 4.6051 0
M  V30 1176 H 108.036 -0.184385 4.33408 0
M  V30 1177 H 108.707 -1.49106 5.3148 0
M  V30 1178 H 111.183 -2.20856 3.52649 0
M  V30 1179 H 110.059 -3.28028 4.40101 0
M  V30 1180 H 110.32 -3.51606 2.68003 0
M  V30 1181 N 109.379 -1.50304 -0.473955 0
M  V30 1182 C 110.289 -1.7174 -1.5982 0
M  V30 1183 C 111.305 -0.600457 -1.63311 0
M  V30 1184 O 112.481 -0.878441 -1.81233 0
M  V30 1185 C 109.546 -1.80427 -2.96052 0
M  V30 1186 C 108.607 -3.04148 -3.02972 0
M  V30 1187 C 107.84 -3.12411 -4.32706 0
M  V30 1188 O 108.063 -2.27542 -5.23049 0
M  V30 1189 O 106.997 -4.05113 -4.45159 0
M  V30 1190 H 110.823 -2.67035 -1.44657 0
M  V30 1191 H 108.408 -1.34366 -0.653148 0
M  V30 1192 H 110.29 -1.88338 -3.7697 0
M  V30 1193 H 108.965 -0.883156 -3.11419 0
M  V30 1194 H 107.872 -3.0174 -2.21142 0
M  V30 1195 H 109.205 -3.95829 -2.92541 0
M  V30 1196 N 110.857 0.726932 -1.39834 0
M  V30 1197 C 112.103 1.48884 -1.377 0
M  V30 1198 C 112.436 1.94185 0.0244852 0
M  V30 1199 O 111.711 1.67361 0.990986 0
M  V30 1200 C 111.994 2.72288 -2.3565 0
M  V30 1201 C 111.847 2.32956 -3.84775 0
M  V30 1202 C 113.166 3.74414 -2.31306 0
M  V30 1203 H 110.285 0.540062 -0.5015 0
M  V30 1204 H 112.927 0.830547 -1.70886 0
M  V30 1205 H 111.077 3.28457 -2.07481 0
M  V30 1206 H 112.749 1.82356 -4.23726 0
M  V30 1207 H 110.992 1.65088 -4.01159 0
M  V30 1208 H 111.663 3.21362 -4.4881 0
M  V30 1209 H 114.139 3.27849 -2.56231 0
M  V30 1210 H 113.015 4.58414 -3.01907 0
M  V30 1211 H 113.276 4.21909 -1.32081 0
M  V30 1212 N 112.336 1.25143 0.95797 0
M  V30 1213 C 113.564 1.12424 1.73691 0
M  V30 1214 C 113.979 -0.322304 1.86029 0
M  V30 1215 O 113.336 -1.22186 1.35561 0
M  V30 1216 C 113.387 1.76933 3.15241 0
M  V30 1217 O 113.108 3.15932 3.03511 0
M  V30 1218 C 114.609 1.6995 4.09429 0
M  V30 1219 H 111.829 0.3923 0.544373 0
M  V30 1220 H 114.373 1.6544 1.20207 0
M  V30 1221 H 112.528 1.27895 3.6568 0
M  V30 1222 H 112.942 3.47598 3.9278 0
M  V30 1223 H 114.416 2.19753 5.06372 0
M  V30 1224 H 114.893 0.662619 4.34173 0
M  V30 1225 H 115.499 2.18461 3.64904 0
M  V30 1226 N 113.814 -1.1601 1.06675 0
M  V30 1227 C 114.724 -2.24156 0.692179 0
M  V30 1228 C 115.74 -1.71507 -0.293513 0
M  V30 1229 O 116.916 -2.009 -0.141861 0
M  V30 1230 C 113.981 -3.46587 0.0884131 0
M  V30 1231 C 113.042 -4.14257 1.12646 0
M  V30 1232 C 112.275 -5.30844 0.551416 0
M  V30 1233 O 112.498 -5.66858 -0.634656 0
M  V30 1234 O 111.432 -5.87848 1.29298 0
M  V30 1235 H 115.258 -2.58513 1.59388 0
M  V30 1236 H 112.843 -1.23599 0.83926 0
M  V30 1237 H 114.725 -4.20679 -0.246361 0
M  V30 1238 H 113.4 -3.13994 -0.786712 0
M  V30 1239 H 112.307 -3.42118 1.51348 0
M  V30 1240 H 113.64 -4.50914 1.97325 0
M  V30 1241 N 115.292 -0.849877 -1.32721 0
M  V30 1242 C 116.532 -0.457146 -1.99222 0
M  V30 1243 C 116.896 0.968038 -1.6581 0
M  V30 1244 O 118.097 1.46507 -2.25364 0
M  V30 1245 C 116.368 -0.683966 -3.50794 0
M  V30 1246 S 117.927 -0.388095 -4.3708 0
M  V30 1247 H 114.745 -0.171464 -0.690015 0
M  V30 1248 H 117.347 -1.10155 -1.61512 0
M  V30 1249 H 116.051 -1.72038 -3.726 0
M  V30 1250 H 115.582 -0.0258086 -3.93392 0
M  V30 1251 H 117.597 0.787791 -4.89906 0
M  V30 1252 N 116.77 1.45427 -0.607355 0
M  V30 1253 C 117.995 2.07124 -0.107006 0
M  V30 1254 C 118.42 1.44906 1.19933 0
M  V30 1255 O 117.778 0.541687 1.73019 0
M  V30 1256 C 117.826 3.60595 0.0194119 0
M  V30 1257 O 116.93 3.98285 1.0697 0
M  V30 1258 H 116.271 0.659868 -0.0739597 0
M  V30 1259 H 118.801 1.86683 -0.837297 0
M  V30 1260 H 118.811 4.07419 0.2177 0
M  V30 1261 H 117.486 4.05266 -0.934453 0
M  V30 1262 H 116.063 3.63133 0.847889 0
M  V30 1263 N 118.248 0.346503 1.53744 0
M  V30 1264 C 119.525 -0.304532 1.93215 0
M  V30 1265 C 119.905 -1.67993 1.27834 0
M  V30 1266 O 119.253 -2.24411 0.430352 0
M  V30 1267 C 119.463 -0.373852 3.46992 0
M  V30 1268 C 120.811 -0.62329 4.2 0
M  V30 1269 O 121.835 -0.455847 3.53271 0
M  V30 1270 O 120.694 -0.947879 5.38217 0
M  V30 1271 H 117.788 -0.178318 0.807547 0
M  V30 1272 H 120.334 0.397895 1.64969 0
M  V30 1273 H 119.106 0.591224 3.86808 0
M  V30 1274 H 118.729 -1.12294 3.81413 0
M  V30 1275 N 119.726 -1.57421 0.075193 0
M  V30 1276 C 120.974 -1.93236 -0.591974 0
M  V30 1277 C 121.295 -0.956241 -1.69944 0
M  V30 1278 O 120.565 -0.00494792 -1.95899 0
M  V30 1279 H 119.145 -0.713355 -0.22166 0
M  V30 1280 H 121.807 -1.9444 0.133848 0
M  V30 1281 H 120.903 -2.95131 -1.01509 0
M  V30 1282 N 121.204 0.198386 -1.56346 0
M  V30 1283 C 122.134 1.24865 -1.9731 0
M  V30 1284 C 123.115 1.47651 -0.844576 0
M  V30 1285 O 124.3 1.59444 -1.10866 0
M  V30 1286 C 121.43 2.59358 -2.30977 0
M  V30 1287 C 120.384 2.5119 -3.46537 0
M  V30 1288 C 119.71 3.89926 -3.65871 0
M  V30 1289 C 121.01 2.03977 -4.80823 0
M  V30 1290 H 122.704 0.908252 -2.85291 0
M  V30 1291 H 120.25 0.435462 -1.37258 0
M  V30 1292 H 122.203 3.33011 -2.58228 0
M  V30 1293 H 120.927 2.95132 -1.39874 0
M  V30 1294 H 119.586 1.79993 -3.19371 0
M  V30 1295 H 119.234 4.23046 -2.72105 0
M  V30 1296 H 118.934 3.85336 -4.4361 0
M  V30 1297 H 120.458 4.65205 -3.95495 0
M  V30 1298 H 121.872 2.67386 -5.07127 0
M  V30 1299 H 120.269 2.10397 -5.62008 0
M  V30 1300 H 121.339 0.992861 -4.74626 0
M  V30 1301 N 122.682 1.50554 0.465978 0
M  V30 1302 C 123.929 1.61798 1.21768 0
M  V30 1303 C 124.257 0.320696 1.91838 0
M  V30 1304 O 123.512 -0.693724 1.82992 0
M  V30 1305 C 123.811 2.75152 2.28093 0
M  V30 1306 C 123.477 4.15454 1.75239 0
M  V30 1307 C 122.139 4.53628 1.60546 0
M  V30 1308 C 124.491 5.03121 1.36083 0
M  V30 1309 C 121.819 5.77204 1.05128 0
M  V30 1310 C 124.171 6.27249 0.821056 0
M  V30 1311 C 122.835 6.64221 0.660795 0
M  V30 1312 H 122.105 0.592063 0.445582 0
M  V30 1313 H 124.752 1.84503 0.512927 0
M  V30 1314 H 123.057 2.46556 3.04496 0
M  V30 1315 H 124.754 2.81055 2.86023 0
M  V30 1316 H 121.344 3.85341 1.87644 0
M  V30 1317 H 125.528 4.74257 1.46267 0
M  V30 1318 H 120.784 6.0452 0.91462 0
M  V30 1319 H 124.958 6.94537 0.509018 0
M  V30 1320 H 122.585 7.59854 0.229226 0
M  V30 1321 N 124.16 -0.719506 1.40217 0
M  V30 1322 C 125.4 -1.49181 1.39729 0
M  V30 1323 C 125.764 -1.92 -0.00250614 0
M  V30 1324 O 126.965 -2.68473 -0.132479 0
M  V30 1325 C 125.236 -2.68767 2.35582 0
M  V30 1326 S 126.795 -3.58224 2.53418 0
M  V30 1327 H 123.613 -0.510091 0.495307 0
M  V30 1328 H 126.215 -0.841724 1.76452 0
M  V30 1329 H 124.919 -2.35475 3.36124 0
M  V30 1330 H 124.45 -3.38691 2.0013 0
M  V30 1331 H 126.465 -4.63033 1.78367 0
M  V30 1332 N 125.638 -1.25649 -0.95132 0
M  V30 1333 C 126.585 -1.06323 -2.04851 0
M  V30 1334 C 127.555 0.0286491 -1.66075 0
M  V30 1335 O 128.74 -0.12917 -1.90362 0
M  V30 1336 C 125.88 -0.691529 -3.381 0
M  V30 1337 C 124.993 -1.85861 -3.89974 0
M  V30 1338 C 124.128 -1.43096 -5.11563 0
M  V30 1339 C 123.167 -2.56696 -5.55674 0
M  V30 1340 N 122.304 -2.14684 -6.68472 0
M  V30 1341 H 127.144 -2.00222 -2.20715 0
M  V30 1342 H 124.681 -0.997027 -1.08156 0
M  V30 1343 H 126.639 -0.456963 -4.1469 0
M  V30 1344 H 125.269 0.210474 -3.22113 0
M  V30 1345 H 124.321 -2.20639 -3.09875 0
M  V30 1346 H 125.633 -2.71161 -4.18657 0
M  V30 1347 H 124.787 -1.15624 -5.9558 0
M  V30 1348 H 123.526 -0.548722 -4.84603 0
M  V30 1349 H 122.531 -2.84909 -4.7022 0
M  V30 1350 H 123.756 -3.45503 -5.8464 0
M  V30 1351 H 121.702 -1.28881 -6.43215 0
M  V30 1352 H 121.619 -2.9353 -6.96689 0
M  V30 1353 H 122.887 -1.90397 -7.5589 0
M  V30 1354 N 127.117 1.15442 -1.07289 0
M  V30 1355 C 128.345 1.90096 -0.81676 0
M  V30 1356 C 128.76 1.7798 0.629966 0
M  V30 1357 O 128.117 1.1313 1.43206 0
M  V30 1358 C 128.168 3.40466 -1.21512 0
M  V30 1359 O 127.889 3.52232 -2.60508 0
M  V30 1360 C 129.39 4.32145 -0.988198 0
M  V30 1361 H 126.61 0.602495 -0.295366 0
M  V30 1362 H 129.154 1.4627 -1.42918 0
M  V30 1363 H 127.309 3.81958 -0.647039 0
M  V30 1364 H 127.723 4.45549 -2.76742 0
M  V30 1365 H 129.197 5.36072 -1.31645 0
M  V30 1366 H 129.674 4.39135 0.0755063 0
M  V30 1367 H 130.28 3.96395 -1.54115 0
M  V30 1368 N 128.595 0.856903 1.32268 0
M  V30 1369 C 129.525 0.31858 2.31316 0
M  V30 1370 C 130.506 -0.583487 1.59779 0
M  V30 1371 O 131.691 -0.503259 1.87566 0
M  V30 1372 C 128.821 -0.491979 3.43798 0
M  V30 1373 C 127.775 0.315849 4.26833 0
M  V30 1374 C 127.101 -0.619586 5.31098 0
M  V30 1375 C 128.401 1.54282 4.98993 0
M  V30 1376 H 130.095 1.14621 2.76591 0
M  V30 1377 H 127.641 0.552613 1.32974 0
M  V30 1378 H 129.594 -0.879012 4.1213 0
M  V30 1379 H 128.318 -1.35299 2.97257 0
M  V30 1380 H 126.977 0.684664 3.6015 0
M  V30 1381 H 126.625 -1.47751 4.8081 0
M  V30 1382 H 126.325 -0.0830621 5.87541 0
M  V30 1383 H 127.849 -1.00375 6.02293 0
M  V30 1384 H 129.263 1.22796 5.59995 0
M  V30 1385 H 127.66 2.01745 5.65172 0
M  V30 1386 H 128.73 2.30285 4.26728 0
M  V30 1387 N 130.073 -1.45103 0.615059 0
M  V30 1388 C 131.301 -2.06553 0.11977 0
M  V30 1389 C 131.716 -1.45842 -1.19898 0
M  V30 1390 O 131.073 -0.575325 -1.73194 0
M  V30 1391 C 131.124 -3.61495 -0.018364 0
M  V30 1392 O 130.845 -4.19942 1.24822 0
M  V30 1393 C 132.346 -4.39947 -0.544237 0
M  V30 1394 H 129.566 -0.667096 0.0722739 0
M  V30 1395 H 132.11 -1.8623 0.84491 0
M  V30 1396 H 130.265 -3.81135 -0.693865 0
M  V30 1397 H 130.679 -5.13204 1.0827 0
M  V30 1398 H 132.153 -5.48838 -0.589953 0
M  V30 1399 H 132.63 -4.10255 -1.56805 0
M  V30 1400 H 133.236 -4.25188 0.0974703 0
M  V30 1401 N 131.551 -0.354651 -1.53558 0
M  V30 1402 C 132.8 0.239504 -2.00273 0
M  V30 1403 C 133.113 1.50759 -1.24623 0
M  V30 1404 O 134.319 2.17968 -1.61871 0
M  V30 1405 C 132.775 0.477341 -3.5672 0
M  V30 1406 C 132.383 -0.775488 -4.41237 0
M  V30 1407 C 134.127 1.02975 -4.11821 0
M  V30 1408 C 132.034 -0.507838 -5.89216 0
M  V30 1409 H 130.964 0.0932743 -0.748208 0
M  V30 1410 H 133.615 -0.471701 -1.77334 0
M  V30 1411 H 131.997 1.24953 -3.7577 0
M  V30 1412 H 133.171 -1.54963 -4.33962 0
M  V30 1413 H 131.486 -1.25033 -3.97185 0
M  V30 1414 H 134.083 1.24513 -5.2 0
M  V30 1415 H 134.426 1.98862 -3.65731 0
M  V30 1416 H 134.959 0.317994 -3.96527 0
M  V30 1417 H 131.698 -1.43674 -6.39561 0
M  V30 1418 H 131.218 0.228011 -5.99366 0
M  V30 1419 H 132.897 -0.129238 -6.46871 0
M  V30 1420 N 133.029 1.57378 -0.0835403 0
M  V30 1421 C 134.44 1.81261 0.447358 0
M  V30 1422 C 134.791 0.998331 1.68902 0
M  V30 1423 O 133.916 0.224282 2.15235 0
M  V30 1424 C 134.511 3.28767 0.818386 0
M  V30 1425 C 133.07 3.53455 1.29409 0
M  V30 1426 C 132.217 2.75831 0.285024 0
M  V30 1427 H 135.168 1.5566 -0.309115 0
M  V30 1428 H 135.189 3.41459 1.67887 0
M  V30 1429 H 134.701 3.88006 -0.0855019 0
M  V30 1430 H 132.802 2.99534 2.21608 0
M  V30 1431 H 132.915 4.62128 1.2639 0
M  V30 1432 H 131.279 2.42947 0.764767 0
M  V30 1433 H 132.062 3.37813 -0.611341 0
M  V30 1434 N 134.507 -0.190092 1.56449 0
M  V30 1435 C 135.454 -1.23557 1.94942 0
M  V30 1436 C 136.424 -1.44972 0.810696 0
M  V30 1437 O 137.609 -1.58023 1.06927 0
M  V30 1438 C 134.749 -2.57416 2.2985 0
M  V30 1439 C 133.862 -2.43537 3.5681 0
M  V30 1440 C 132.997 -3.70134 3.81017 0
M  V30 1441 C 132.036 -3.51109 5.01387 0
M  V30 1442 N 131.173 -4.6973 5.21822 0
M  V30 1443 H 136.013 -0.900304 2.84075 0
M  V30 1444 H 133.55 -0.43318 1.40577 0
M  V30 1445 H 135.508 -3.35409 2.48106 0
M  V30 1446 H 134.138 -2.88975 1.43852 0
M  V30 1447 H 133.19 -1.56816 3.46573 0
M  V30 1448 H 134.502 -2.25415 4.4496 0
M  V30 1449 H 133.656 -4.56566 3.9954 0
M  V30 1450 H 132.395 -3.91215 2.91207 0
M  V30 1451 H 131.4 -2.63063 4.82782 0
M  V30 1452 H 132.625 -3.31468 5.9271 0
M  V30 1453 H 130.571 -4.91065 4.34961 0
M  V30 1454 H 130.488 -4.54452 6.0416 0
M  V30 1455 H 131.756 -5.57499 5.44808 0
M  V30 1456 N 135.985 -1.50799 -0.457987 0
M  V30 1457 C 137.231 -1.62683 -1.21088 0
M  V30 1458 C 137.564 -0.332268 -1.91336 0
M  V30 1459 O 136.839 0.667043 -1.82704 0
M  V30 1460 C 137.122 -2.81615 -2.24422 0
M  V30 1461 C 136.975 -4.20989 -1.58392 0
M  V30 1462 C 138.294 -2.96085 -3.2561 0
M  V30 1463 H 135.413 -0.592087 -0.438864 0
M  V30 1464 H 138.055 -1.83225 -0.50286 0
M  V30 1465 H 136.205 -2.64231 -2.84806 0
M  V30 1466 H 137.877 -4.49994 -1.01504 0
M  V30 1467 H 136.12 -4.24641 -0.886704 0
M  V30 1468 H 136.791 -5.0016 -2.33547 0
M  V30 1469 H 139.267 -3.12042 -2.75262 0
M  V30 1470 H 138.143 -3.80902 -3.95228 0
M  V30 1471 H 138.404 -2.0726 -3.90507 0
M  V30 1472 N 137.463 0.71206 -1.40597 0
M  V30 1473 C 138.712 1.46754 -1.38369 0
M  V30 1474 C 139.025 1.95598 0.0097839 0
M  V30 1475 O 140.231 2.71059 0.154677 0
M  V30 1476 C 138.687 2.65289 -2.43207 0
M  V30 1477 C 138.295 2.23301 -3.88382 0
M  V30 1478 C 140.039 3.43008 -2.50091 0
M  V30 1479 C 137.946 3.38696 -4.84808 0
M  V30 1480 H 136.876 0.55118 -0.514506 0
M  V30 1481 H 139.527 0.774616 -1.66349 0
M  V30 1482 H 137.909 3.36769 -2.08332 0
M  V30 1483 H 139.083 1.59218 -4.32419 0
M  V30 1484 H 137.398 1.58618 -3.85006 0
M  V30 1485 H 139.995 4.28881 -3.1932 0
M  V30 1486 H 140.338 3.87065 -1.53253 0
M  V30 1487 H 140.871 2.78574 -2.83974 0
M  V30 1488 H 137.61 2.99668 -5.82992 0
M  V30 1489 H 137.13 4.01683 -4.45433 0
M  V30 1490 H 138.809 4.04712 -5.04794 0
M  V30 1491 N 138.941 1.26152 0.944643 0
M  V30 1492 C 140.189 1.11271 1.6871 0
M  V30 1493 C 140.51 -0.345166 1.91921 0
M  V30 1494 O 139.78 -1.24387 1.51343 0
M  V30 1495 H 138.36 0.408783 0.625224 0
M  V30 1496 H 141.022 1.58427 1.1352 0
M  V30 1497 H 140.118 1.62879 2.66227 0
M  V30 1498 N 140.419 -1.14872 1.07899 0
M  V30 1499 C 141.367 -2.21857 0.698727 0
M  V30 1500 C 142.361 -1.66845 -0.293086 0
M  V30 1501 O 143.567 -1.79321 -0.156204 0
M  V30 1502 H 139.942 -0.722691 0.207899 0
M  V30 1503 H 141.913 -2.51205 1.61054 0
M  V30 1504 C 140.662 -3.47498 0.11858 0
M  V30 1505 H 139.985 -3.90154 0.872914 0
M  V30 1506 H 141.425 -4.23858 -0.109759 0
M  V30 1507 C 139.884 -3.16947 -1.1422 0
M  V30 1508 O 140.414 -3.3426 -2.22785 0
M  V30 1509 N 138.62 -2.70946 -1.05055 0
M  V30 1510 H 138.167 -2.57058 -0.167038 0
M  V30 1511 H 138.125 -2.50879 -1.89491 0
M  V30 1512 N 141.898 -0.863906 -1.31812 0
M  V30 1513 C 143.175 -0.39275 -1.91616 0
M  V30 1514 C 143.555 1.12461 -1.7865 0
M  V30 1515 O 142.903 1.95045 -1.19037 0
M  V30 1516 C 143.113 -0.867385 -3.38049 0
M  V30 1517 C 144.461 -0.889966 -4.15168 0
M  V30 1518 O 145.485 -0.812635 -3.46806 0
M  V30 1519 O 144.344 -1.00079 -5.37258 0
M  V30 1520 H 141.438 -0.116358 -0.818773 0
M  V30 1521 H 143.984 -0.951418 -1.40521 0
M  V30 1522 H 142.756 -1.91081 -3.41473 0
M  V30 1523 H 142.379 -0.286687 -3.96565 0
M  V30 1524 N 143.376 1.44774 -0.622745 0
M  V30 1525 C 144.604 2.06487 -0.130722 0
M  V30 1526 C 145.019 1.46476 1.19123 0
M  V30 1527 O 144.376 0.584502 1.72887 0
M  V30 1528 C 144.427 3.615 -0.000807207 0
M  V30 1529 O 144.148 4.19274 -1.27048 0
M  V30 1530 C 145.649 4.40229 0.520898 0
M  V30 1531 H 142.869 0.666704 -0.0758106 0
M  V30 1532 H 145.413 1.85779 -0.854774 0
M  V30 1533 H 143.568 3.81498 0.673643 0
M  V30 1534 H 143.982 5.12622 -1.1099 0
M  V30 1535 H 145.456 5.49144 0.560838 0
M  V30 1536 H 145.933 4.1108 1.54627 0
M  V30 1537 H 146.539 4.25131 -0.120018 0
M  V30 1538 N 144.854 0.36279 1.53368 0
M  V30 1539 C 146.102 -0.227326 2.00817 0
M  V30 1540 C 146.423 -1.49511 1.25186 0
M  V30 1541 O 145.693 -1.92482 0.364348 0
M  V30 1542 H 144.273 -0.0869923 0.741917 0
M  V30 1543 H 146.935 0.488381 1.88682 0
M  V30 1544 H 146.031 -0.456273 3.08747 0
M  V30 1545 N 146.332 -1.57332 0.0918853 0
M  V30 1546 C 147.295 -2.12708 -0.85369 0
M  V30 1547 C 148.295 -1.05561 -1.213 0
M  V30 1548 O 149.485 -1.31461 -1.14296 0
M  V30 1549 C 146.617 -2.64503 -2.15061 0
M  V30 1550 H 147.81 -2.97573 -0.3729 0
M  V30 1551 H 145.363 -1.55509 -0.157072 0
M  V30 1552 H 146.098 -1.83149 -2.67632 0
M  V30 1553 H 145.883 -3.4284 -1.90272 0
M  V30 1554 H 147.373 -3.07351 -2.82711 0
M  V30 1555 N 147.81 0.181792 -1.56548 0
M  V30 1556 C 149.04 0.914618 -1.85252 0
M  V30 1557 C 149.448 1.76791 -0.673914 0
M  V30 1558 O 148.791 1.80009 0.366416 0
M  V30 1559 C 148.853 1.85019 -3.08234 0
M  V30 1560 C 148.517 1.17754 -4.41569 0
M  V30 1561 C 149.514 0.548035 -5.17003 0
M  V30 1562 C 147.199 1.17742 -4.88305 0
M  V30 1563 C 149.193 -0.0726128 -6.37359 0
M  V30 1564 C 146.88 0.552946 -6.08593 0
M  V30 1565 C 147.878 -0.070978 -6.82963 0
M  V30 1566 O 147.566 -0.685635 -8.00971 0
M  V30 1567 H 147.298 0.271695 -0.618998 0
M  V30 1568 H 149.852 0.189944 -2.0452 0
M  V30 1569 H 148.082 2.61491 -2.84885 0
M  V30 1570 H 149.771 2.45195 -3.23472 0
M  V30 1571 H 150.537 0.540174 -4.81982 0
M  V30 1572 H 146.416 1.65246 -4.30366 0
M  V30 1573 H 149.96 -0.560213 -6.95347 0
M  V30 1574 H 145.857 0.558354 -6.43081 0
M  V30 1575 H 146.625 -0.58385 -8.16415 0
M  V30 1576 N 149.288 1.51039 0.449983 0
M  V30 1577 C 150.235 1.71439 1.54523 0
M  V30 1578 C 151.205 0.555871 1.56522 0
M  V30 1579 O 152.39 0.788871 1.73728 0
M  V30 1580 C 149.53 1.83384 2.92343 0
M  V30 1581 C 148.643 3.10873 2.9997 0
M  V30 1582 C 147.778 3.13488 4.28834 0
M  V30 1583 C 146.817 4.35343 4.30282 0
M  V30 1584 N 145.954 4.35579 5.5065 0
M  V30 1585 H 150.794 2.64934 1.36433 0
M  V30 1586 H 148.331 1.31312 0.662982 0
M  V30 1587 H 150.289 1.88291 3.72293 0
M  V30 1588 H 148.919 0.933086 3.0902 0
M  V30 1589 H 147.971 3.15336 2.12761 0
M  V30 1590 H 149.283 4.00814 2.96901 0
M  V30 1591 H 148.437 3.17241 5.17149 0
M  V30 1592 H 147.176 2.21414 4.34543 0
M  V30 1593 H 146.181 4.3178 3.40362 0
M  V30 1594 H 147.406 5.28668 4.26248 0
M  V30 1595 H 145.352 3.46369 5.57104 0
M  V30 1596 H 145.269 5.19313 5.49409 0
M  V30 1597 H 146.537 4.43507 6.41032 0
M  V30 1598 N 150.766 -0.704594 1.40972 0
M  V30 1599 C 152.006 -1.47691 1.41304 0
M  V30 1600 C 152.37 -1.91992 0.0178582 0
M  V30 1601 O 153.571 -2.68599 -0.103996 0
M  V30 1602 C 151.842 -2.66254 2.38419 0
M  V30 1603 S 153.401 -3.55516 2.57204 0
M  V30 1604 H 150.219 -0.504808 0.500689 0
M  V30 1605 H 152.821 -0.822962 1.77335 0
M  V30 1606 H 151.525 -2.31897 3.38603 0
M  V30 1607 H 151.056 -3.3655 2.03711 0
M  V30 1608 H 153.071 -4.61115 1.83268 0
M  V30 1609 N 152.244 -1.26651 -0.937939 0
M  V30 1610 C 153.491 -1.12387 -1.6845 0
M  V30 1611 C 153.819 0.332208 -1.91642 0
M  V30 1612 O 153.074 1.2602 -1.49725 0
M  V30 1613 C 153.373 -1.84168 -3.06295 0
M  V30 1614 C 153.039 -3.34056 -3.02849 0
M  V30 1615 C 151.701 -3.74942 -3.01616 0
M  V30 1616 C 154.053 -4.29741 -2.9491 0
M  V30 1617 C 151.381 -5.09894 -2.90215 0
M  V30 1618 C 153.733 -5.64738 -2.8505 0
M  V30 1619 C 152.397 -6.0493 -2.82162 0
M  V30 1620 H 151.667 -0.411252 -0.616403 0
M  V30 1621 H 154.314 -1.57134 -1.09459 0
M  V30 1622 H 152.619 -1.319 -3.6893 0
M  V30 1623 H 154.316 -1.70569 -3.62915 0
M  V30 1624 H 150.906 -3.01534 -3.0459 0
M  V30 1625 H 155.09 -3.99133 -2.94969 0
M  V30 1626 H 150.346 -5.40194 -2.86358 0
M  V30 1627 H 154.52 -6.38561 -2.77872 0
M  V30 1628 H 152.147 -7.09457 -2.73084 0
M  V30 1629 N 153.722 1.14298 -1.08507 0
M  V30 1630 C 154.952 1.88945 -0.835663 0
M  V30 1631 C 155.36 1.78894 0.615928 0
M  V30 1632 O 154.703 1.1468 1.43506 0
M  V30 1633 C 154.765 3.39585 -1.17994 0
M  V30 1634 C 154.429 3.7342 -2.63451 0
M  V30 1635 C 155.426 3.73454 -3.61702 0
M  V30 1636 C 153.111 4.03368 -2.99332 0
M  V30 1637 C 155.105 4.02961 -4.93864 0
M  V30 1638 C 152.792 4.32538 -4.31687 0
M  V30 1639 C 153.79 4.32318 -5.28763 0
M  V30 1640 O 153.478 4.6078 -6.58739 0
M  V30 1641 H 153.21 0.605307 -0.300965 0
M  V30 1642 H 155.764 1.45673 -1.44806 0
M  V30 1643 H 153.994 3.83315 -0.51055 0
M  V30 1644 H 155.683 3.9554 -0.911182 0
M  V30 1645 H 156.449 3.50403 -3.35325 0
M  V30 1646 H 152.328 4.02692 -2.24411 0
M  V30 1647 H 155.872 4.02704 -5.69627 0
M  V30 1648 H 151.769 4.55059 -4.57812 0
M  V30 1649 H 152.537 4.78492 -6.64069 0
M  V30 1650 N 155.201 0.870884 1.31352 0
M  V30 1651 C 156.617 0.562932 1.49343 0
M  V30 1652 C 156.817 -0.902725 1.80148 0
M  V30 1653 O 155.873 -1.68484 1.88067 0
M  V30 1654 C 157.186 1.46393 2.62659 0
M  V30 1655 C 158.734 1.46607 2.76542 0
M  V30 1656 C 159.209 2.35266 3.92955 0
M  V30 1657 N 160.7 2.33151 4.00243 0
M  V30 1658 C 161.435 2.98471 4.89594 0
M  V30 1659 N 160.931 3.72964 5.8384 0
M  V30 1660 N 162.724 2.87775 4.82848 0
M  V30 1661 H 154.875 1.81923 1.09626 0
M  V30 1662 H 157.138 0.777934 0.541777 0
M  V30 1663 H 156.844 2.50689 2.46674 0
M  V30 1664 H 156.718 1.16314 3.58819 0
M  V30 1665 H 159.105 0.43069 2.9194 0
M  V30 1666 H 159.186 1.8071 1.81046 0
M  V30 1667 H 158.83 3.38881 3.78315 0
M  V30 1668 H 158.76 1.98487 4.87761 0
M  V30 1669 H 161.251 1.79006 3.32814 0
M  V30 1670 H 161.564 4.19932 6.4875 0
M  V30 1671 H 159.909 3.77073 5.83816 0
M  V30 1672 H 163.1 2.29116 4.08195 0
M  V30 1673 H 163.273 3.38961 5.52277 0
M  V30 1674 N 156.679 -1.44442 0.630414 0
M  V30 1675 C 157.589 -2.34476 -0.0761693 0
M  V30 1676 C 158.605 -1.52576 -0.836449 0
M  V30 1677 O 159.781 -1.85307 -0.788874 0
M  V30 1678 C 156.846 -3.30545 -1.04599 0
M  V30 1679 C 155.907 -4.28352 -0.28516 0
M  V30 1680 C 155.14 -5.19831 -1.20878 0
M  V30 1681 O 155.363 -5.15223 -2.44747 0
M  V30 1682 O 154.297 -5.97892 -0.693491 0
M  V30 1683 H 158.123 -2.96345 0.664324 0
M  V30 1684 H 155.708 -1.44203 0.39061 0
M  V30 1685 H 157.59 -3.89681 -1.60396 0
M  V30 1686 H 156.265 -2.7121 -1.76711 0
M  V30 1687 H 155.172 -3.72764 0.315837 0
M  V30 1688 H 156.505 -4.90605 0.395924 0
M  V30 1689 N 158.157 -0.370918 -1.53173 0
M  V30 1690 C 159.385 0.217704 -2.05751 0
M  V30 1691 C 159.8 1.42018 -1.24404 0
M  V30 1692 O 159.157 1.80245 -0.286033 0
M  V30 1693 C 159.208 0.605954 -3.56385 0
M  V30 1694 O 158.929 -0.548734 -4.3465 0
M  V30 1695 C 160.43 1.2524 -4.25241 0
M  V30 1696 H 157.65 0.0371659 -0.66997 0
M  V30 1697 H 160.194 -0.530832 -1.9749 0
M  V30 1698 H 158.349 1.3044 -3.6478 0
M  V30 1699 H 158.763 -0.23376 -5.23979 0
M  V30 1700 H 160.237 1.47458 -5.3194 0
M  V30 1701 H 160.714 2.2143 -3.79296 0
M  V30 1702 H 161.32 0.595233 -4.21114 0
M  V30 1703 N 159.635 1.57281 -0.100228 0
M  V30 1704 C 160.912 1.86014 0.604812 0
M  V30 1705 C 161.292 0.998025 1.86018 0
M  V30 1706 O 160.64 0.0718184 2.28387 0
M  V30 1707 C 160.85 3.36784 0.915278 0
M  V30 1708 C 162.198 4.04957 1.27651 0
M  V30 1709 O 163.222 3.41695 1.00613 0
M  V30 1710 O 162.081 5.16593 1.7831 0
M  V30 1711 H 159.175 0.76942 0.303185 0
M  V30 1712 H 161.721 1.69176 -0.133313 0
M  V30 1713 H 160.493 3.91292 0.0248896 0
M  V30 1714 H 160.116 3.58987 1.70921 0
M  V30 1715 N 161.113 -0.173488 1.56642 0
M  V30 1716 C 162.043 -1.2171 1.99271 0
M  V30 1717 C 163.024 -1.46289 0.867959 0
M  V30 1718 O 164.209 -1.5766 1.13388 0
M  V30 1719 C 161.339 -2.55651 2.35074 0
M  V30 1720 C 160.293 -2.45645 3.50489 0
M  V30 1721 C 159.619 -3.84056 3.72028 0
M  V30 1722 C 160.919 -1.96302 4.84007 0
M  V30 1723 H 162.613 -0.86275 2.867 0
M  V30 1724 H 160.159 -0.413571 1.37933 0
M  V30 1725 H 162.112 -3.2886 2.63494 0
M  V30 1726 H 160.836 -2.92869 1.44552 0
M  V30 1727 H 159.495 -1.7489 3.22194 0
M  V30 1728 H 159.143 -4.18664 2.788 0
M  V30 1729 H 158.843 -3.7823 4.49684 0
M  V30 1730 H 160.367 -4.58854 4.02846 0
M  V30 1731 H 161.781 -2.59284 5.11317 0
M  V30 1732 H 160.178 -2.01429 5.65284 0
M  V30 1733 H 161.248 -0.917226 4.76146 0
M  V30 1734 N 162.591 -1.51276 -0.441967 0
M  V30 1735 C 163.554 -1.7167 -1.51862 0
M  V30 1736 C 164.554 -0.586793 -1.49711 0
M  V30 1737 O 165.744 -0.854276 -1.51815 0
M  V30 1738 C 162.876 -1.76889 -2.91416 0
M  V30 1739 H 164.069 -2.67754 -1.35084 0
M  V30 1740 H 161.622 -1.41196 -0.670333 0
M  V30 1741 H 162.357 -0.826026 -3.13604 0
M  V30 1742 H 162.142 -2.59001 -2.94382 0
M  V30 1743 H 163.632 -1.94522 -3.69528 0
M  V30 1744 N 164.069 0.697108 -1.41344 0
M  V30 1745 C 165.294 1.49096 -1.44171 0
M  V30 1746 C 165.719 1.88038 -0.0481568 0
M  V30 1747 O 165.077 1.54525 0.948243 0
M  V30 1748 C 165.125 2.73088 -2.3549 0
M  V30 1749 O 164.229 3.70514 -1.81088 0
M  V30 1750 H 163.57 0.448801 -0.489361 0
M  V30 1751 H 166.1 0.856992 -1.85787 0
M  V30 1752 H 166.11 3.21413 -2.51312 0
M  V30 1753 H 164.785 2.44081 -3.36745 0
M  V30 1754 H 163.362 3.29441 -1.74708 0
M  V30 1755 N 165.547 1.27147 0.931209 0
M  V30 1756 C 166.793 1.13446 1.68101 0
M  V30 1757 C 167.126 -0.319628 1.91552 0
M  V30 1758 O 166.401 -1.23407 1.50336 0
M  V30 1759 C 166.684 1.91482 3.0497 0
M  V30 1760 C 166.537 3.44855 2.88782 0
M  V30 1761 C 167.856 1.71651 4.05246 0
M  V30 1762 H 164.975 0.413498 0.610072 0
M  V30 1763 H 167.617 1.56261 1.08086 0
M  V30 1764 H 165.767 1.55095 3.56199 0
M  V30 1765 H 167.439 3.9105 2.44698 0
M  V30 1766 H 165.682 3.71373 2.24198 0
M  V30 1767 H 166.353 3.94694 3.85902 0
M  V30 1768 H 168.829 2.0337 3.63015 0
M  V30 1769 H 167.705 2.28651 4.99009 0
M  V30 1770 H 167.966 0.663555 4.37092 0
M  V30 1771 N 167.025 -1.13721 1.09112 0
M  V30 1772 C 168.274 -1.84275 0.82009 0
M  V30 1773 C 168.587 -1.84253 -0.656509 0
M  V30 1774 O 169.793 -2.50668 -1.04296 0
M  V30 1775 C 168.249 -3.30825 1.41714 0
M  V30 1776 C 167.857 -3.39244 2.92605 0
M  V30 1777 C 169.601 -4.06443 1.22492 0
M  V30 1778 C 167.508 -4.80047 3.45411 0
M  V30 1779 H 166.438 -0.690387 0.30312 0
M  V30 1780 H 169.089 -1.28146 1.31343 0
M  V30 1781 H 167.471 -3.86737 0.851498 0
M  V30 1782 H 168.645 -2.93344 3.55367 0
M  V30 1783 H 166.96 -2.77088 3.10823 0
M  V30 1784 H 169.557 -5.10387 1.59402 0
M  V30 1785 H 169.9 -4.15972 0.165299 0
M  V30 1786 H 170.433 -3.56852 1.75788 0
M  V30 1787 H 167.172 -4.75709 4.50978 0
M  V30 1788 H 166.692 -5.26455 2.87411 0
M  V30 1789 H 168.371 -5.48957 3.42425 0
M  V30 1790 N 168.503 -0.877838 -1.30888 0
M  V30 1791 C 169.733 -0.506678 -2.00291 0
M  V30 1792 C 170.141 0.907449 -1.66018 0
M  V30 1793 O 169.484 1.60719 -0.88967 0
M  V30 1794 C 169.546 -0.59323 -3.54572 0
M  V30 1795 C 169.21 -1.97038 -4.12341 0
M  V30 1796 C 170.207 -2.93889 -4.28865 0
M  V30 1797 C 167.892 -2.27383 -4.47886 0
M  V30 1798 C 169.886 -4.19224 -4.80136 0
M  V30 1799 C 167.573 -3.52965 -4.98857 0
M  V30 1800 C 168.571 -4.48701 -5.14934 0
M  V30 1801 O 168.259 -5.72056 -5.64808 0
M  V30 1802 H 167.991 -0.1951 -0.647234 0
M  V30 1803 H 170.545 -1.18301 -1.6791 0
M  V30 1804 H 168.775 0.140057 -3.86446 0
M  V30 1805 H 170.464 -0.234372 -4.05223 0
M  V30 1806 H 171.23 -2.71756 -4.01714 0
M  V30 1807 H 167.109 -1.53639 -4.34645 0
M  V30 1808 H 170.653 -4.93956 -4.92599 0
M  V30 1809 H 166.55 -3.74939 -5.25443 0
M  V30 1810 H 167.318 -5.74337 -5.83163 0
M  V30 1811 N 169.982 1.44106 -0.638065 0
M  V30 1812 C 171.228 2.02277 -0.145546 0
M  V30 1813 C 171.561 1.50125 1.23191 0
M  V30 1814 O 170.836 0.688133 1.8192 0
M  V30 1815 C 171.119 3.59829 -0.139791 0
M  V30 1816 C 170.972 4.22247 -1.55008 0
M  V30 1817 C 172.291 4.36873 0.531966 0
M  V30 1818 H 169.41 0.734992 -0.0543632 0
M  V30 1819 H 172.052 1.71592 -0.815863 0
M  V30 1820 H 170.202 3.86102 0.431007 0
M  V30 1821 H 171.874 4.07057 -2.1703 0
M  V30 1822 H 170.117 3.79476 -2.10191 0
M  V30 1823 H 170.788 5.31284 -1.49804 0
M  V30 1824 H 173.264 4.16074 0.0464781 0
M  V30 1825 H 172.14 5.4657 0.505206 0
M  V30 1826 H 172.401 4.11995 1.60352 0
M  V30 1827 N 171.46 0.379036 1.52974 0
M  V30 1828 C 172.69 -0.20649 2.05566 0
M  V30 1829 C 173.098 -1.41906 1.25137 0
M  V30 1830 O 172.441 -1.81421 0.288464 0
M  V30 1831 C 172.503 -0.651086 3.53555 0
M  V30 1832 C 172.167 0.446626 4.54812 0
M  V30 1833 C 173.164 1.30079 5.03364 0
M  V30 1834 C 170.849 0.610719 4.98573 0
M  V30 1835 C 172.843 2.30426 5.94292 0
M  V30 1836 C 170.53 1.61754 5.89304 0
M  V30 1837 C 171.528 2.46274 6.37054 0
M  V30 1838 O 171.216 3.45237 7.25994 0
M  V30 1839 H 170.948 -0.0372381 0.674974 0
M  V30 1840 H 173.502 0.539718 1.98182 0
M  V30 1841 H 171.732 -1.44911 3.58522 0
M  V30 1842 H 173.421 -1.16112 3.88938 0
M  V30 1843 H 174.187 1.18527 4.70294 0
M  V30 1844 H 170.066 -0.0374044 4.60985 0
M  V30 1845 H 173.61 2.96432 6.31485 0
M  V30 1846 H 169.507 1.73348 6.21788 0
M  V30 1847 H 170.275 3.41124 7.44027 0
M  V30 1848 N 172.938 -1.57226 0.108567 0
M  V30 1849 C 174.184 -1.95121 -0.552761 0
M  V30 1850 C 174.517 -0.991345 -1.66991 0
M  V30 1851 O 173.792 -0.0267211 -1.94482 0
M  V30 1852 C 174.075 -3.43039 -1.09528 0
M  V30 1853 C 173.928 -4.49797 0.0177332 0
M  V30 1854 C 175.247 -3.92567 -1.98945 0
M  V30 1855 H 172.366 -0.709496 -0.199461 0
M  V30 1856 H 175.008 -1.89126 0.182011 0
M  V30 1857 H 173.158 -3.48279 -1.72146 0
M  V30 1858 H 174.83 -4.56661 0.652584 0
M  V30 1859 H 173.073 -4.284 0.682309 0
M  V30 1860 H 173.744 -5.50528 -0.402919 0
M  V30 1861 H 176.22 -3.89565 -1.46214 0
M  V30 1862 H 175.096 -4.96605 -2.33827 0
M  V30 1863 H 175.357 -3.32648 -2.91201 0
M  V30 1864 N 174.416 0.165178 -1.56732 0
M  V30 1865 C 175.348 1.22911 -1.93457 0
M  V30 1866 C 176.361 1.40152 -0.828333 0
M  V30 1867 O 177.55 1.40046 -1.10677 0
M  V30 1868 C 174.65 2.59686 -2.17753 0
M  V30 1869 C 173.823 2.63663 -3.48999 0
M  V30 1870 C 172.882 3.81845 -3.62051 0
M  V30 1871 O 171.908 3.67559 -4.34613 0
M  V30 1872 N 173.11 4.98557 -2.97357 0
M  V30 1873 H 175.875 0.917118 -2.85323 0
M  V30 1874 H 173.436 0.354895 -1.57962 0
M  V30 1875 H 175.428 3.37225 -2.23743 0
M  V30 1876 H 173.998 2.83251 -1.32242 0
M  V30 1877 H 173.218 1.72173 -3.54612 0
M  V30 1878 H 174.506 2.63336 -4.35352 0
M  V30 1879 H 173.904 5.13065 -2.38287 0
M  V30 1880 H 172.461 5.73936 -3.08934 0
M  V30 1881 N 175.894 1.51508 0.433938 0
M  V30 1882 C 177.171 1.54888 1.19453 0
M  V30 1883 C 177.551 0.315154 2.08734 0
M  V30 1884 O 176.899 -0.699558 2.17528 0
M  V30 1885 C 177.109 2.86467 1.99342 0
M  V30 1886 C 178.457 3.38545 2.56267 0
M  V30 1887 O 179.481 2.88041 2.0955 0
M  V30 1888 O 178.34 4.26675 3.41483 0
M  V30 1889 H 175.434 0.622863 0.544032 0
M  V30 1890 H 177.98 1.63823 0.442732 0
M  V30 1891 H 176.752 3.67718 1.33788 0
M  V30 1892 H 176.375 2.8071 2.8158 0
M  V30 1893 N 177.372 -0.689602 1.41712 0
M  V30 1894 C 178.602 -1.47613 1.44548 0
M  V30 1895 C 179.01 -1.89132 0.0509034 0
M  V30 1896 O 178.353 -1.57741 -0.94146 0
M  V30 1897 C 178.415 -2.76596 2.2964 0
M  V30 1898 C 178.079 -2.57245 3.77722 0
M  V30 1899 C 179.076 -2.22804 4.69739 0
M  V30 1900 C 176.761 -2.727 4.2183 0
M  V30 1901 C 178.755 -2.04064 6.03851 0
M  V30 1902 C 176.442 -2.53576 5.56006 0
M  V30 1903 C 177.44 -2.1931 6.46832 0
M  V30 1904 O 177.128 -2.00359 7.78532 0
M  V30 1905 H 176.86 -0.461227 0.494212 0
M  V30 1906 H 179.414 -0.856045 1.86711 0
M  V30 1907 H 177.644 -3.41033 1.82301 0
M  V30 1908 H 179.333 -3.38424 2.24107 0
M  V30 1909 H 180.099 -2.10473 4.36951 0
M  V30 1910 H 175.978 -2.98353 3.51435 0
M  V30 1911 H 179.522 -1.77241 6.74708 0
M  V30 1912 H 175.419 -2.65499 5.88371 0
M  V30 1913 H 176.187 -2.15075 7.89737 0
M  V30 1914 N 178.85 -1.27639 -0.924453 0
M  V30 1915 C 180.266 -1.05113 -1.20097 0
M  V30 1916 C 180.466 0.213262 -2.00368 0
M  V30 1917 O 179.522 0.91787 -2.35226 0
M  V30 1918 C 180.835 -2.29244 -1.94596 0
M  V30 1919 C 182.383 -2.34315 -2.07522 0
M  V30 1920 C 182.858 -3.58183 -2.85427 0
M  V30 1921 N 184.349 -3.5876 -2.92994 0
M  V30 1922 C 185.084 -4.51277 -3.53746 0
M  V30 1923 N 184.58 -5.54102 -4.15863 0
M  V30 1924 N 186.373 -4.38894 -3.51181 0
M  V30 1925 H 178.524 -2.08821 -0.388264 0
M  V30 1926 H 180.787 -0.918568 -0.234385 0
M  V30 1927 H 180.493 -3.21301 -1.43034 0
M  V30 1928 H 180.367 -2.34816 -2.95197 0
M  V30 1929 H 182.754 -1.42762 -2.58269 0
M  V30 1930 H 182.835 -2.32744 -1.06131 0
M  V30 1931 H 182.479 -4.50074 -2.35363 0
M  V30 1932 H 182.409 -3.57006 -3.8711 0
M  V30 1933 H 184.9 -2.84398 -2.4885 0
M  V30 1934 H 185.213 -6.20859 -4.60168 0
M  V30 1935 H 183.558 -5.57941 -4.144 0
M  V30 1936 H 186.749 -3.57772 -3.01856 0
M  V30 1937 H 186.922 -5.11186 -3.98237 0
M  V30 1938 N 180.328 1.1314 -1.09713 0
M  V30 1939 C 181.553 1.88862 -0.857081 0
M  V30 1940 C 181.978 1.78729 0.586304 0
M  V30 1941 O 181.336 1.13692 1.41222 0
M  V30 1942 C 181.384 3.36325 -1.30069 0
M  V30 1943 O 180.488 4.09815 -0.461007 0
M  V30 1944 H 179.829 0.587108 -0.310162 0
M  V30 1945 H 182.359 1.43129 -1.46203 0
M  V30 1946 H 182.369 3.87157 -1.28738 0
M  V30 1947 H 181.044 3.43017 -2.35185 0
M  V30 1948 H 179.621 3.68986 -0.538888 0
M  V30 1949 N 181.806 0.884767 1.30421 0
M  V30 1950 C 183.217 0.553656 1.78302 0
M  V30 1951 C 183.568 -0.930153 1.7275 0
M  V30 1952 O 182.693 -1.72681 1.30423 0
M  V30 1953 C 183.288 0.998234 3.2376 0
M  V30 1954 C 181.847 0.71854 3.69478 0
M  V30 1955 C 180.994 1.18132 2.50879 0
M  V30 1956 H 183.945 1.06901 1.17294 0
M  V30 1957 H 183.966 0.327118 3.79091 0
M  V30 1958 H 183.478 2.0782 3.27769 0
M  V30 1959 H 181.579 -0.349444 3.70958 0
M  V30 1960 H 181.692 1.30595 4.60958 0
M  V30 1961 H 180.056 0.600669 2.47516 0
M  V30 1962 H 180.839 2.26902 2.57624 0
M  V30 1963 N 183.284 -1.43765 0.645699 0
M  V30 1964 C 184.531 -2.01898 0.15604 0
M  V30 1965 C 184.859 -1.50887 -1.22733 0
M  V30 1966 O 184.114 -0.689271 -1.8316 0
M  V30 1967 C 184.413 -3.57238 0.107679 0
M  V30 1968 C 184.079 -4.27564 1.43178 0
M  V30 1969 C 182.741 -4.46492 1.7944 0
M  V30 1970 C 185.093 -4.67454 2.30513 0
M  V30 1971 C 182.421 -5.02573 3.02716 0
M  V30 1972 C 184.773 -5.24901 3.53074 0
M  V30 1973 C 183.437 -5.42046 3.89541 0
M  V30 1974 H 182.707 -0.738797 0.057099 0
M  V30 1975 H 185.354 -1.72341 0.834912 0
M  V30 1976 H 183.659 -3.86293 -0.654618 0
M  V30 1977 H 185.356 -3.99965 -0.287938 0
M  V30 1978 H 181.946 -4.13171 1.13963 0
M  V30 1979 H 186.13 -4.5253 2.0379 0
M  V30 1980 H 181.386 -5.14033 3.31028 0
M  V30 1981 H 185.56 -5.54758 4.20971 0
M  V30 1982 H 183.187 -5.85268 4.85145 0
M  V30 1983 N 184.763 -0.387143 -1.52771 0
M  V30 1984 C 186.012 0.19697 -2.00736 0
M  V30 1985 C 186.325 1.48082 -1.27793 0
M  V30 1986 O 187.531 2.14485 -1.66458 0
M  V30 1987 C 185.987 0.401568 -3.57653 0
M  V30 1988 C 185.595 -0.868907 -4.39493 0
M  V30 1989 C 187.339 0.942164 -4.13912 0
M  V30 1990 C 185.246 -0.632705 -5.88006 0
M  V30 1991 H 184.176 0.0773827 -0.750019 0
M  V30 1992 H 186.827 -0.50921 -1.76293 0
M  V30 1993 H 185.209 1.16954 -3.78335 0
M  V30 1994 H 186.383 -1.64133 -4.30577 0
M  V30 1995 H 184.698 -1.33429 -3.94443 0
M  V30 1996 H 187.295 1.13455 -5.22525 0
M  V30 1997 H 187.638 1.9106 -3.69867 0
M  V30 1998 H 188.171 0.233814 -3.97112 0
M  V30 1999 H 184.91 -1.57208 -6.36369 0
M  V30 2000 H 184.43 0.100825 -5.99715 0
M  V30 2001 H 186.109 -0.26642 -6.46451 0
M  V30 2002 N 186.241 1.57166 -0.116904 0
M  V30 2003 C 187.204 2.14039 0.819742 0
M  V30 2004 C 188.204 1.07477 1.19605 0
M  V30 2005 O 189.394 1.33263 1.1219 0
M  V30 2006 C 186.526 2.67891 2.10826 0
M  V30 2007 H 187.719 2.98128 0.325511 0
M  V30 2008 H 185.272 1.55739 0.132312 0
M  V30 2009 H 186.007 1.87384 2.64685 0
M  V30 2010 H 185.792 3.45823 1.84793 0
M  V30 2011 H 187.282 3.11809 2.77785 0
M  V30 2012 N 187.719 -0.156864 1.56817 0
M  V30 2013 C 188.944 -0.890331 1.87318 0
M  V30 2014 C 189.369 -1.74394 0.704855 0
M  V30 2015 O 188.727 -1.77972 -0.345786 0
M  V30 2016 C 188.775 -1.73102 3.16336 0
M  V30 2017 O 187.879 -2.83422 2.99576 0
M  V30 2018 H 187.22 -0.24857 0.615718 0
M  V30 2019 H 189.75 -0.150649 2.04045 0
M  V30 2020 H 189.76 -2.12803 3.48107 0
M  V30 2021 H 188.435 -1.10412 4.00976 0
M  V30 2022 H 187.012 -2.47199 2.7919 0
M  V30 2023 N 189.197 -1.51736 -0.425897 0
M  V30 2024 C 190.443 -1.65214 -1.1761 0
M  V30 2025 C 190.776 -0.372778 -1.90589 0
M  V30 2026 O 190.051 0.628139 -1.84078 0
M  V30 2027 C 190.334 -2.86312 -2.18398 0
M  V30 2028 C 190.187 -4.24254 -1.49426 0
M  V30 2029 C 191.506 -3.02925 -3.19256 0
M  V30 2030 H 188.625 -0.601263 -0.426206 0
M  V30 2031 H 191.267 -1.8425 -0.463882 0
M  V30 2032 H 189.417 -2.70213 -2.79137 0
M  V30 2033 H 191.089 -4.52046 -0.919362 0
M  V30 2034 H 189.332 -4.26426 -0.796432 0
M  V30 2035 H 190.003 -5.05001 -2.22885 0
M  V30 2036 H 192.479 -3.1781 -2.68581 0
M  V30 2037 H 191.355 -3.89199 -3.8706 0
M  V30 2038 H 191.616 -2.15497 -3.86023 0
M  V30 2039 N 190.675 0.682077 -1.42076 0
M  V30 2040 C 191.9 1.47558 -1.45744 0
M  V30 2041 C 192.325 1.87977 -0.0680981 0
M  V30 2042 O 191.683 1.55522 0.9318 0
M  V30 2043 C 191.731 2.70575 -2.38373 0
M  V30 2044 O 190.835 3.68573 -1.85007 0
M  V30 2045 H 190.176 0.443585 -0.494093 0
M  V30 2046 H 192.706 0.837238 -1.86686 0
M  V30 2047 H 192.716 3.18729 -2.54707 0
M  V30 2048 H 191.391 2.40495 -3.39315 0
M  V30 2049 H 189.968 3.2757 -1.78192 0
M  V30 2050 N 192.153 1.28127 0.917671 0
M  V30 2051 C 193.43 1.05761 1.64542 0
M  V30 2052 C 193.81 -0.404344 2.07191 0
M  V30 2053 O 193.158 -1.38963 1.81388 0
M  V30 2054 C 193.368 2.02857 2.83989 0
M  V30 2055 C 194.716 2.32786 3.551 0
M  V30 2056 O 195.74 2.0091 2.94132 0
M  V30 2057 O 194.599 2.87169 4.64969 0
M  V30 2058 H 191.693 0.403916 0.721652 0
M  V30 2059 H 194.239 1.39431 0.967322 0
M  V30 2060 H 193.011 3.01407 2.49538 0
M  V30 2061 H 192.634 1.69809 3.59514 0
M  V30 2062 N 193.631 -1.12557 1.10312 0
M  V30 2063 C 194.563 -2.17971 0.708625 0
M  V30 2064 C 195.576 -1.60806 -0.254027 0
M  V30 2065 O 196.765 -1.78458 -0.0386891 0
M  V30 2066 C 193.865 -3.38891 0.0248198 0
M  V30 2067 C 193.038 -4.25548 1.01132 0
M  V30 2068 C 192.097 -5.24972 0.35924 0
M  V30 2069 O 191.123 -5.60174 1.00965 0
M  V30 2070 N 192.325 -5.73747 -0.882847 0
M  V30 2071 H 195.09 -2.52427 1.61557 0
M  V30 2072 H 192.651 -1.27967 0.991771 0
M  V30 2073 H 194.643 -4.02485 -0.422852 0
M  V30 2074 H 193.213 -3.02596 -0.784514 0
M  V30 2075 H 192.433 -3.58589 1.6373 0
M  V30 2076 H 193.721 -4.80294 1.67914 0
M  V30 2077 H 193.119 -5.4731 -1.43065 0
M  V30 2078 H 191.676 -6.39234 -1.27369 0
M  V30 2079 N 195.109 -0.891671 -1.2995 0
M  V30 2080 C 196.059 -0.334811 -2.25528 0
M  V30 2081 C 197.043 0.540553 -1.51548 0
M  V30 2082 O 198.235 0.383882 -1.72787 0
M  V30 2083 C 195.364 0.44374 -3.4042 0
M  V30 2084 C 194.45 -0.44609 -4.21747 0
M  V30 2085 N 194.841 -1.54963 -4.81477 0
M  V30 2086 C 193.139 -0.242415 -4.45341 0
M  V30 2087 C 193.84 -2.10015 -5.42465 0
M  V30 2088 N 192.816 -1.39423 -5.25416 0
M  V30 2089 H 196.618 -1.17792 -2.69262 0
M  V30 2090 H 194.132 -0.741822 -1.44467 0
M  V30 2091 H 196.129 0.859362 -4.07947 0
M  V30 2092 H 194.789 1.28421 -2.98225 0
M  V30 2093 H 195.8 -1.93244 -4.80497 0
M  V30 2094 H 192.477 0.560342 -4.13723 0
M  V30 2095 H 193.867 -3.02724 -5.9984 0
M  V30 2096 N 196.587 1.43421 -0.653314 0
M  V30 2097 C 197.835 2.01414 -0.166415 0
M  V30 2098 C 198.156 1.51803 1.22397 0
M  V30 2099 O 197.426 0.730693 1.81763 0
M  V30 2100 H 196.006 0.744703 -0.0585319 0
M  V30 2101 H 198.668 1.75629 -0.845003 0
M  V30 2102 H 197.764 3.11734 -0.151111 0
M  V30 2103 N 198.065 0.39524 1.52563 0
M  V30 2104 C 199.311 -0.185318 2.01952 0
M  V30 2105 C 199.644 -1.45964 1.28095 0
M  V30 2106 O 198.919 -1.90689 0.38315 0
M  V30 2107 C 199.202 -0.447193 3.57312 0
M  V30 2108 C 199.055 0.842828 4.41833 0
M  V30 2109 C 200.374 -1.23529 4.22408 0
M  V30 2110 H 197.493 -0.0658788 0.73405 0
M  V30 2111 H 200.135 0.525975 1.82575 0
M  V30 2112 H 198.285 -1.05312 3.73954 0
M  V30 2113 H 199.957 1.4795 4.36931 0
M  V30 2114 H 198.2 1.45686 4.08605 0
M  V30 2115 H 198.871 0.614165 5.48573 0
M  V30 2116 H 201.347 -0.722445 4.0978 0
M  V30 2117 H 200.223 -1.38727 5.3108 0
M  V30 2118 H 200.484 -2.25213 3.80436 0
M  V30 2119 N 199.544 -1.57102 0.125237 0
M  V30 2120 C 200.79 -1.95697 -0.532035 0
M  V30 2121 C 201.123 -1.009 -1.6593 0
M  V30 2122 O 200.398 -0.047347 -1.94442 0
M  V30 2123 C 200.681 -3.44181 -1.05884 0
M  V30 2124 C 200.534 -4.49752 0.0654392 0
M  V30 2125 C 201.853 -3.94655 -1.9477 0
M  V30 2126 H 198.972 -0.711571 -0.191925 0
M  V30 2127 H 201.614 -1.88923 0.20206 0
M  V30 2128 H 199.764 -3.50085 -1.68442 0
M  V30 2129 H 201.436 -4.55943 0.700982 0
M  V30 2130 H 199.679 -4.27653 0.727709 0
M  V30 2131 H 200.35 -5.50924 -0.344505 0
M  V30 2132 H 202.826 -3.91094 -1.42074 0
M  V30 2133 H 201.702 -4.99057 -2.28546 0
M  V30 2134 H 201.963 -3.35718 -2.87656 0
M  V30 2135 N 201.022 0.148545 -1.56898 0
M  V30 2136 C 202.252 0.875118 -1.8715 0
M  V30 2137 C 202.66 1.75322 -0.711262 0
M  V30 2138 O 202.003 1.80745 0.328151 0
M  V30 2139 C 202.065 1.7844 -3.12089 0
M  V30 2140 C 201.729 1.08361 -4.43967 0
M  V30 2141 C 202.726 0.438247 -5.1805 0
M  V30 2142 C 200.411 1.07358 -4.90693 0
M  V30 2143 C 202.405 -0.20779 -6.37061 0
M  V30 2144 C 200.092 0.42373 -6.09629 0
M  V30 2145 C 201.09 -0.215829 -6.82659 0
M  V30 2146 O 200.778 -0.855378 -7.99336 0
M  V30 2147 H 200.51 0.258504 -0.624621 0
M  V30 2148 H 203.064 0.14652 -2.04877 0
M  V30 2149 H 201.294 2.55389 -2.90367 0
M  V30 2150 H 202.983 2.38279 -3.286 0
M  V30 2151 H 203.749 0.437817 -4.8302 0
M  V30 2152 H 199.628 1.5608 -4.33774 0
M  V30 2153 H 203.172 -0.70758 -6.94002 0
M  V30 2154 H 199.069 0.421822 -6.4412 0
M  V30 2155 H 199.837 -0.756892 -8.14993 0
M  V30 2156 N 202.5 1.5196 0.417844 0
M  V30 2157 C 203.749 1.6482 1.16264 0
M  V30 2158 C 204.062 0.379886 1.91876 0
M  V30 2159 O 205.268 0.388154 2.68711 0
M  V30 2160 C 203.724 2.91161 2.1155 0
M  V30 2161 C 203.332 4.25068 1.41495 0
M  V30 2162 C 205.076 3.13383 2.86341 0
M  V30 2163 C 202.983 5.42541 2.35379 0
M  V30 2164 H 201.913 0.613954 0.437694 0
M  V30 2165 H 204.564 1.78442 0.427871 0
M  V30 2166 H 202.946 2.71218 2.88543 0
M  V30 2167 H 204.12 4.55463 0.699263 0
M  V30 2168 H 202.435 4.0888 0.787792 0
M  V30 2169 H 205.032 3.98324 3.5671 0
M  V30 2170 H 205.375 2.27256 3.48798 0
M  V30 2171 H 205.908 3.33757 2.1645 0
M  V30 2172 H 202.647 6.30987 1.77582 0
M  V30 2173 H 202.167 5.16497 3.04945 0
M  V30 2174 H 203.846 5.75272 2.96093 0
M  V30 2175 N 203.978 -0.674533 1.42435 0
M  V30 2176 C 205.206 -1.46283 1.46317 0
M  V30 2177 C 205.621 -1.88653 0.0745836 0
M  V30 2178 O 204.978 -1.58151 -0.91074 0
M  V30 2179 C 205.029 -2.71178 2.3905 0
M  V30 2180 O 204.75 -2.30586 3.72507 0
M  V30 2181 C 206.251 -3.64738 2.51955 0
M  V30 2182 H 203.471 -0.450104 0.497642 0
M  V30 2183 H 206.015 -0.828792 1.86953 0
M  V30 2184 H 204.17 -3.3077 2.01667 0
M  V30 2185 H 204.584 -3.11241 4.22172 0
M  V30 2186 H 206.058 -4.49096 3.20962 0
M  V30 2187 H 206.535 -4.10656 1.55752 0
M  V30 2188 H 207.141 -3.11038 2.90061 0
M  V30 2189 N 205.456 -1.28612 -0.910864 0
M  V30 2190 C 206.366 -1.14643 -2.0468 0
M  V30 2191 C 207.382 -0.0723121 -1.7385 0
M  V30 2192 O 208.558 -0.282178 -1.99413 0
M  V30 2193 C 205.623 -0.812561 -3.37044 0
M  V30 2194 C 204.684 -1.96935 -3.81465 0
M  V30 2195 C 203.917 -1.65131 -5.07511 0
M  V30 2196 O 204.14 -0.567013 -5.67575 0
M  V30 2197 O 203.074 -2.49585 -5.47714 0
M  V30 2198 H 206.9 -2.1001 -2.19384 0
M  V30 2199 H 204.485 -1.07958 -1.03274 0
M  V30 2200 H 206.367 -0.640441 -4.16505 0
M  V30 2201 H 205.042 0.111426 -3.23508 0
M  V30 2202 H 203.949 -2.19664 -3.02818 0
M  V30 2203 H 205.282 -2.87414 -3.99567 0
M  V30 2204 N 206.934 1.1197 -1.10907 0
M  V30 2205 C 207.882 2.19927 -0.757303 0
M  V30 2206 C 208.876 1.67564 0.248747 0
M  V30 2207 O 210.082 1.79672 0.108605 0
M  V30 2208 H 206.457 0.716925 -0.226987 0
M  V30 2209 H 208.428 2.46847 -1.67658 0
M  V30 2210 C 207.177 3.47061 -0.210671 0
M  V30 2211 H 206.5 3.87703 -0.976049 0
M  V30 2212 H 207.94 4.24 -0.0026584 0
M  V30 2213 C 206.399 3.19864 1.05777 0
M  V30 2214 O 206.929 3.40049 2.13845 0
M  V30 2215 N 205.135 2.73636 0.978349 0
M  V30 2216 H 204.682 2.5741 0.0988246 0
M  V30 2217 H 204.64 2.55815 1.82773 0
M  V30 2218 N 208.412 0.89855 1.29475 0
M  V30 2219 C 209.359 0.373819 2.27753 0
M  V30 2220 C 210.329 -0.543444 1.56958 0
M  V30 2221 O 211.514 -0.468934 1.84948 0
M  V30 2222 C 208.654 -0.393648 3.42848 0
M  V30 2223 C 207.767 0.554379 4.28428 0
M  V30 2224 C 206.902 -0.230026 5.30702 0
M  V30 2225 C 205.941 0.712599 6.07938 0
M  V30 2226 N 205.078 -0.0373283 7.0209 0
M  V30 2227 H 209.918 1.21699 2.72017 0
M  V30 2228 H 207.455 0.611456 1.33789 0
M  V30 2229 H 209.413 -0.85466 4.08352 0
M  V30 2230 H 208.043 -1.20128 2.99615 0
M  V30 2231 H 207.095 1.13391 3.63107 0
M  V30 2232 H 208.407 1.27597 4.82204 0
M  V30 2233 H 207.561 -0.752288 6.02018 0
M  V30 2234 H 206.3 -0.984758 4.77654 0
M  V30 2235 H 205.305 1.24637 5.35486 0
M  V30 2236 H 206.53 1.46664 6.63074 0
M  V30 2237 H 204.476 -0.774348 6.51414 0
M  V30 2238 H 204.393 0.624374 7.53417 0
M  V30 2239 H 205.661 -0.539891 7.77628 0
M  V30 2240 N 209.89 -1.43072 0.660911 0
M  V30 2241 C 210.838 -2.32569 -0.0378199 0
M  V30 2242 C 211.832 -1.49046 -0.805092 0
M  V30 2243 O 213.038 -1.65206 -0.714624 0
M  V30 2244 H 209.413 -0.75136 -0.031019 0
M  V30 2245 H 211.384 -2.89216 0.734609 0
M  V30 2246 C 210.133 -3.33453 -0.985124 0
M  V30 2247 H 209.456 -3.97752 -0.404147 0
M  V30 2248 H 210.896 -3.98691 -1.44297 0
M  V30 2249 C 209.355 -2.64642 -2.08486 0
M  V30 2250 O 209.885 -2.46776 -3.16961 0
M  V30 2251 N 208.091 -2.23891 -1.8526 0
M  V30 2252 H 207.638 -2.38621 -0.970449 0
M  V30 2253 H 207.596 -1.78181 -2.59034 0
M  V30 2254 N 211.368 -0.403325 -1.52352 0
M  V30 2255 C 212.315 0.425011 -2.26853 0
M  V30 2256 C 213.285 1.04598 -1.29029 0
M  V30 2257 O 214.47 1.07135 -1.57882 0
M  V30 2258 C 211.61 1.53888 -3.08889 0
M  V30 2259 C 210.723 0.939396 -4.21663 0
M  V30 2260 C 209.858 2.02547 -4.91068 0
M  V30 2261 C 208.897 1.40263 -5.95813 0
M  V30 2262 N 208.034 2.4286 -6.58759 0
M  V30 2263 H 212.874 -0.21674 -2.97211 0
M  V30 2264 H 210.411 -0.118722 -1.4662 0
M  V30 2265 H 212.369 2.19558 -3.54753 0
M  V30 2266 H 210.999 2.15074 -2.40714 0
M  V30 2267 H 210.051 0.171898 -3.80011 0
M  V30 2268 H 211.363 0.44436 -4.96817 0
M  V30 2269 H 210.517 2.75958 -5.40308 0
M  V30 2270 H 209.256 2.55415 -4.15469 0
M  V30 2271 H 208.261 0.653833 -5.45898 0
M  V30 2272 H 209.486 0.881719 -6.73352 0
M  V30 2273 H 207.432 2.94871 -5.85992 0
M  V30 2274 H 207.349 1.98152 -7.2957 0
M  V30 2275 H 208.617 3.15858 -7.12639 0
M  V30 2276 N 212.846 1.57033 -0.133567 0
M  V30 2277 C 214.074 2.00044 0.528195 0
M  V30 2278 C 214.489 1.01349 1.59291 0
M  V30 2279 O 213.846 0.00848369 1.82498 0
M  V30 2280 C 213.897 3.43018 1.1411 0
M  V30 2281 O 213.618 4.37939 0.11892 0
M  V30 2282 C 215.119 4.01237 1.88477 0
M  V30 2283 H 212.339 0.656517 0.138661 0
M  V30 2284 H 214.883 2.03267 -0.224196 0
M  V30 2285 H 213.038 3.40688 1.84418 0
M  V30 2286 H 213.452 5.21436 0.56613 0
M  V30 2287 H 214.926 5.03314 2.26669 0
M  V30 2288 H 215.403 3.41193 2.76558 0
M  V30 2289 H 216.009 4.07156 1.22898 0
M  V30 2290 N 214.325 -0.140222 1.56975 0
M  V30 2291 C 215.571 -0.852949 1.83991 0
M  V30 2292 C 215.904 -1.80512 0.716187 0
M  V30 2293 O 215.179 -1.92479 -0.279681 0
M  V30 2294 C 215.462 -1.6215 3.21527 0
M  V30 2295 C 215.315 -0.690363 4.4447 0
M  V30 2296 C 216.634 -2.58247 3.56366 0
M  V30 2297 H 213.753 -0.308634 0.669264 0
M  V30 2298 H 216.395 -0.117898 1.89634 0
M  V30 2299 H 214.545 -2.24812 3.16847 0
M  V30 2300 H 216.217 -0.0742264 4.6124 0
M  V30 2301 H 214.46 -0.000396433 4.338 0
M  V30 2302 H 215.131 -1.2643 5.37326 0
M  V30 2303 H 217.607 -2.05701 3.61699 0
M  V30 2304 H 216.483 -3.09067 4.53617 0
M  V30 2305 H 216.744 -3.39923 2.82674 0
M  V30 2306 N 215.803 -1.52179 -0.40978 0
M  V30 2307 C 217.049 -1.66453 -1.15851 0
M  V30 2308 C 217.382 -0.392972 -1.90182 0
M  V30 2309 O 216.657 0.608579 -1.84734 0
M  V30 2310 C 216.94 -2.88612 -2.15349 0
M  V30 2311 C 216.793 -4.25815 -1.44918 0
M  V30 2312 C 218.112 -3.06294 -3.16026 0
M  V30 2313 H 215.231 -0.60575 -0.419805 0
M  V30 2314 H 217.873 -1.84732 -0.444314 0
M  V30 2315 H 216.023 -2.73158 -2.76255 0
M  V30 2316 H 217.695 -4.52995 -0.871365 0
M  V30 2317 H 215.938 -4.27247 -0.751159 0
M  V30 2318 H 216.609 -5.07337 -2.17516 0
M  V30 2319 H 219.085 -3.20641 -2.65195 0
M  V30 2320 H 217.961 -3.93283 -3.8291 0
M  V30 2321 H 218.222 -2.19579 -3.83715 0
M  V30 2322 N 217.281 0.66697 -1.42791 0
M  V30 2323 C 218.53 1.42278 -1.42968 0
M  V30 2324 C 218.843 1.9553 -0.0524489 0
M  V30 2325 O 220.049 2.71414 0.068363 0
M  V30 2326 C 218.505 2.57418 -2.51524 0
M  V30 2327 C 218.113 2.10832 -3.9529 0
M  V30 2328 C 219.857 3.34878 -2.60877 0
M  V30 2329 C 217.764 3.23101 -4.95338 0
M  V30 2330 H 216.694 0.534533 -0.531781 0
M  V30 2331 H 219.345 0.721302 -1.68729 0
M  V30 2332 H 217.727 3.29971 -2.18941 0
M  V30 2333 H 218.901 1.4538 -4.37266 0
M  V30 2334 H 217.216 1.46289 -3.89857 0
M  V30 2335 H 219.813 4.18505 -3.32802 0
M  V30 2336 H 220.156 3.81993 -1.6549 0
M  V30 2337 H 220.689 2.69398 -2.92693 0
M  V30 2338 H 217.428 2.80969 -5.9223 0
M  V30 2339 H 216.948 3.87309 -4.57987 0
M  V30 2340 H 218.627 3.88447 -5.17415 0
M  V30 2341 N 218.759 1.29093 0.90403 0
M  V30 2342 C 220.17 1.15186 1.46932 0
M  V30 2343 C 220.521 -0.254587 1.94541 0
M  V30 2344 O 219.646 -1.14972 1.83332 0
M  V30 2345 C 220.241 2.08492 2.67051 0
M  V30 2346 C 218.8 1.98621 3.19729 0
M  V30 2347 C 217.947 1.9967 1.92425 0
M  V30 2348 H 220.898 1.41641 0.715789 0
M  V30 2349 H 220.919 1.65461 3.42641 0
M  V30 2350 H 220.431 3.10847 2.3237 0
M  V30 2351 H 218.532 0.993389 3.59114 0
M  V30 2352 H 218.645 2.86068 3.8432 0
M  V30 2353 H 217.009 1.44208 2.09943 0
M  V30 2354 H 217.792 3.03721 1.60026 0
M  V30 2355 N 220.237 -1.11381 1.11499 0
M  V30 2356 C 221.477 -1.84763 0.874188 0
M  V30 2357 C 221.841 -1.82726 -0.589496 0
M  V30 2358 O 223.042 -2.51562 -0.947089 0
M  V30 2359 C 221.313 -3.27931 1.42112 0
M  V30 2360 S 222.872 -4.18557 1.31739 0
M  V30 2361 H 219.69 -0.637115 0.315603 0
M  V30 2362 H 222.292 -1.34097 1.42261 0
M  V30 2363 H 220.996 -3.26978 2.48019 0
M  V30 2364 H 220.527 -3.83665 0.869761 0
M  V30 2365 H 222.542 -4.95396 0.282335 0
M  V30 2366 N 221.715 -0.905404 -1.28997 0
M  V30 2367 C 222.645 -0.404212 -2.29975 0
M  V30 2368 C 223.626 0.523784 -1.61835 0
M  V30 2369 O 224.811 0.433298 -1.89304 0
M  V30 2370 C 221.941 0.364042 -3.45387 0
M  V30 2371 C 220.895 -0.474048 -4.25367 0
M  V30 2372 C 220.221 0.422045 -5.33032 0
M  V30 2373 C 221.521 -1.72696 -4.92923 0
M  V30 2374 H 223.215 -1.24807 -2.72146 0
M  V30 2375 H 220.761 -0.601585 -1.30832 0
M  V30 2376 H 222.714 0.725447 -4.15109 0
M  V30 2377 H 221.438 1.24174 -3.02074 0
M  V30 2378 H 220.097 -0.81786 -3.57361 0
M  V30 2379 H 219.745 1.29804 -4.85963 0
M  V30 2380 H 219.445 -0.135057 -5.87445 0
M  V30 2381 H 220.969 0.779517 -6.05604 0
M  V30 2382 H 222.383 -1.43495 -5.55051 0
M  V30 2383 H 220.78 -2.22582 -5.57295 0
M  V30 2384 H 221.85 -2.45964 -4.17887 0
M  V30 2385 N 223.193 1.4272 -0.668489 0
M  V30 2386 C 224.441 2.01226 -0.187769 0
M  V30 2387 C 224.762 1.53092 1.2078 0
M  V30 2388 O 224.032 0.74993 1.80977 0
M  V30 2389 H 222.612 0.744041 -0.0664272 0
M  V30 2390 H 225.274 1.74723 -0.863583 0
M  V30 2391 H 224.37 3.11556 -0.184166 0
M  V30 2392 N 224.671 0.411399 1.52136 0
M  V30 2393 C 225.896 -0.165538 2.06738 0
M  V30 2394 C 226.321 -1.379 1.27926 0
M  V30 2395 O 225.679 -1.78628 0.310114 0
M  V30 2396 C 225.727 -0.492124 3.57226 0
M  V30 2397 O 224.831 -1.58276 3.80818 0
M  V30 2398 H 224.172 -0.0132132 0.663869 0
M  V30 2399 H 226.702 0.585253 1.96051 0
M  V30 2400 H 226.712 -0.750104 4.01045 0
M  V30 2401 H 225.387 0.394922 4.14021 0
M  V30 2402 H 223.964 -1.31677 3.48877 0
M  V30 2403 N 226.149 -1.5696 0.141893 0
M  V30 2404 C 227.398 -1.95135 -0.510427 0
M  V30 2405 C 227.711 -1.02896 -1.66348 0
M  V30 2406 O 228.917 -1.30629 -2.38009 0
M  V30 2407 C 227.373 -3.46876 -0.959427 0
M  V30 2408 C 226.981 -4.47691 0.166419 0
M  V30 2409 C 228.725 -3.93927 -1.58183 0
M  V30 2410 C 226.632 -5.90636 -0.300565 0
M  V30 2411 H 225.562 -0.728494 -0.194454 0
M  V30 2412 H 228.213 -1.8211 0.22542 0
M  V30 2413 H 226.595 -3.55215 -1.75038 0
M  V30 2414 H 227.769 -4.51043 0.94325 0
M  V30 2415 H 226.084 -4.10527 0.696905 0
M  V30 2416 H 228.681 -4.98158 -1.94275 0
M  V30 2417 H 229.024 -3.3519 -2.46888 0
M  V30 2418 H 229.557 -3.88484 -0.855863 0
M  V30 2419 H 226.296 -6.5318 0.550989 0
M  V30 2420 H 225.816 -5.90655 -1.04338 0
M  V30 2421 H 227.495 -6.42588 -0.754265 0
M  V30 2422 N 227.627 0.131896 -1.57047 0
M  V30 2423 C 228.852 0.860418 -1.8871 0
M  V30 2424 C 229.277 1.73251 -0.73251 0
M  V30 2425 O 228.635 1.785 0.317429 0
M  V30 2426 C 228.683 1.68047 -3.19049 0
M  V30 2427 O 227.787 2.7862 -3.04047 0
M  V30 2428 H 227.128 0.238743 -0.619595 0
M  V30 2429 H 229.658 0.118169 -2.04258 0
M  V30 2430 H 229.668 2.07238 -3.51449 0
M  V30 2431 H 228.343 1.04018 -4.02682 0
M  V30 2432 H 226.92 2.42726 -2.83088 0
M  V30 2433 N 229.106 1.52395 0.401703 0
M  V30 2434 C 230.054 1.7689 1.51039 0
M  V30 2435 C 231.048 0.636298 1.56996 0
M  V30 2436 O 232.254 0.818507 1.60314 0
M  V30 2437 H 228.629 0.559502 0.502456 0
M  V30 2438 H 230.6 2.69757 1.27568 0
M  V30 2439 C 229.349 1.94331 2.88324 0
M  V30 2440 H 228.672 2.80905 2.84486 0
M  V30 2441 H 230.112 2.15466 3.65172 0
M  V30 2442 C 228.571 0.712396 3.29282 0
M  V30 2443 O 229.101 -0.116218 4.01532 0
M  V30 2444 N 227.307 0.546154 2.85422 0
M  V30 2445 H 226.854 1.22156 2.26794 0
M  V30 2446 H 226.812 -0.276113 3.13185 0
M  V30 2447 N 230.584 -0.659388 1.43143 0
M  V30 2448 C 231.514 -1.78422 1.50625 0
M  V30 2449 C 232.495 -1.66216 0.361443 0
M  V30 2450 O 233.68 -1.85404 0.577834 0
M  V30 2451 C 230.81 -3.16815 1.42287 0
M  V30 2452 C 229.764 -3.43777 2.54954 0
M  V30 2453 C 229.09 -4.81905 2.31671 0
M  V30 2454 C 230.39 -3.39134 3.97222 0
M  V30 2455 H 232.084 -1.72417 2.44771 0
M  V30 2456 H 229.63 -0.828084 1.17808 0
M  V30 2457 H 231.583 -3.95253 1.46127 0
M  V30 2458 H 230.307 -3.23534 0.446435 0
M  V30 2459 H 228.966 -2.67707 2.50457 0
M  V30 2460 H 228.614 -4.85294 1.32284 0
M  V30 2461 H 228.314 -5.00906 3.07192 0
M  V30 2462 H 229.838 -5.62609 2.37284 0
M  V30 2463 H 231.252 -4.07518 4.03239 0
M  V30 2464 H 229.649 -3.69671 4.72719 0
M  V30 2465 H 230.719 -2.37426 4.22797 0
M  V30 2466 N 232.062 -1.29571 -0.897171 0
M  V30 2467 C 233.01 -1.14802 -2.02295 0
M  V30 2468 C 234.004 -0.0629637 -1.69283 0
M  V30 2469 O 235.21 -0.222945 -1.78614 0
M  V30 2470 H 231.585 -0.354692 -0.663097 0
M  V30 2471 H 233.556 -2.10108 -2.11889 0
M  V30 2472 C 232.305 -0.843966 -3.37302 0
M  V30 2473 H 231.628 -1.67093 -3.63208 0
M  V30 2474 H 233.068 -0.780672 -4.16751 0
M  V30 2475 C 231.527 0.452843 -3.33843 0
M  V30 2476 O 232.057 1.47813 -3.73516 0
M  V30 2477 N 230.263 0.459601 -2.86943 0
M  V30 2478 H 229.81 -0.375213 -2.54853 0
M  V30 2479 H 229.768 1.32726 -2.85011 0
M  V30 2480 N 233.54 1.10788 -1.12088 0
M  V30 2481 C 234.786 1.82942 -0.875226 0
M  V30 2482 C 235.119 1.84779 0.597538 0
M  V30 2483 O 234.394 1.30578 1.44152 0
M  V30 2484 C 234.677 3.29789 -1.44606 0
M  V30 2485 C 234.53 3.36307 -2.98693 0
M  V30 2486 C 235.849 4.26064 -1.10261 0
M  V30 2487 H 232.968 0.664195 -0.319397 0
M  V30 2488 H 235.61 1.29867 -1.38689 0
M  V30 2489 H 233.76 3.75118 -1.01089 0
M  V30 2490 H 235.432 2.99487 -3.50864 0
M  V30 2491 H 233.675 2.76318 -3.34411 0
M  V30 2492 H 234.346 4.39694 -3.33726 0
M  V30 2493 H 236.822 3.88951 -1.4784 0
M  V30 2494 H 235.698 5.27183 -1.52869 0
M  V30 2495 H 235.959 4.42098 -0.0142953 0
M  V30 2496 N 235.018 0.912232 1.28515 0
M  V30 2497 C 236.243 0.559774 1.99703 0
M  V30 2498 C 236.668 -0.851393 1.67729 0
M  V30 2499 O 236.026 -1.56875 0.908834 0
M  V30 2500 C 236.074 0.773874 3.52198 0
M  V30 2501 O 235.178 -0.167842 4.12058 0
M  V30 2502 H 234.519 0.21723 0.627461 0
M  V30 2503 H 237.049 1.22725 1.63706 0
M  V30 2504 H 237.059 0.683386 4.02236 0
M  V30 2505 H 235.734 1.80261 3.74805 0
M  V30 2506 H 234.311 -0.0287509 3.72889 0
M  V30 2507 N 236.496 -1.42363 0.676048 0
M  V30 2508 C 237.426 -2.33497 0.0124832 0
M  V30 2509 C 238.407 -1.50748 -0.787981 0
M  V30 2510 O 239.592 -1.79346 -0.744884 0
M  V30 2511 C 236.722 -3.34377 -0.938582 0
M  V30 2512 C 235.676 -4.27289 -0.246622 0
M  V30 2513 C 235.002 -5.18386 -1.31071 0
M  V30 2514 C 236.302 -5.14916 0.875125 0
M  V30 2515 H 237.996 -2.89233 0.773593 0
M  V30 2516 H 235.542 -1.39073 0.37346 0
M  V30 2517 H 237.495 -3.97044 -1.41188 0
M  V30 2518 H 236.219 -2.76947 -1.73113 0
M  V30 2519 H 234.878 -3.66018 0.206456 0
M  V30 2520 H 234.526 -4.57282 -2.09528 0
M  V30 2521 H 234.226 -5.81378 -0.852839 0
M  V30 2522 H 235.75 -5.83929 -1.78492 0
M  V30 2523 H 237.164 -5.71262 0.482983 0
M  V30 2524 H 235.561 -5.86747 1.25887 0
M  V30 2525 H 236.631 -4.53242 1.72335 0
M  V30 2526 N 237.974 -0.419461 -1.51915 0
M  V30 2527 C 239.214 0.152336 -2.03832 0
M  V30 2528 C 239.578 1.41501 -1.29775 0
M  V30 2529 O 240.779 2.06591 -1.7197 0
M  V30 2530 C 239.05 0.383812 -3.55333 0
M  V30 2531 S 240.609 0.921577 -4.29013 0
M  V30 2532 H 237.427 0.0402193 -0.709862 0
M  V30 2533 H 240.029 -0.574758 -1.8686 0
M  V30 2534 H 238.733 -0.541794 -4.06808 0
M  V30 2535 H 238.264 1.13849 -3.76566 0
M  V30 2536 H 240.279 2.20108 -4.4471 0
M  V30 2537 N 239.452 1.56882 -0.150215 0
M  V30 2538 C 240.415 2.1573 0.774157 0
M  V30 2539 C 241.415 1.0999 1.17298 0
M  V30 2540 O 242.605 1.35613 1.09338 0
M  V30 2541 C 239.737 2.72302 2.05096 0
M  V30 2542 H 240.93 2.98752 0.262201 0
M  V30 2543 H 238.483 1.55985 0.099248 0
M  V30 2544 H 239.218 1.92956 2.6065 0
M  V30 2545 H 239.003 3.49665 1.77416 0
M  V30 2546 H 240.493 3.17632 2.71109 0
M  V30 2547 N 240.93 -0.123565 1.57115 0
M  V30 2548 C 242.346 -0.476961 1.52306 0
M  V30 2549 C 242.546 -1.82109 0.86248 0
M  V30 2550 O 241.602 -2.48586 0.442884 0
M  V30 2551 C 242.915 -0.465661 2.97073 0
M  V30 2552 C 244.463 -0.549534 3.08138 0
M  V30 2553 C 244.938 -0.568669 4.54456 0
M  V30 2554 N 246.429 -0.630237 4.58892 0
M  V30 2555 C 247.164 -0.666415 5.69514 0
M  V30 2556 N 246.66 -0.660514 6.89644 0
M  V30 2557 N 248.453 -0.709077 5.5761 0
M  V30 2558 H 240.604 0.757198 1.98445 0
M  V30 2559 H 242.867 0.278808 0.906074 0
M  V30 2560 H 242.573 0.454232 3.48754 0
M  V30 2561 H 242.447 -1.29513 3.54269 0
M  V30 2562 H 244.834 -1.45985 2.56461 0
M  V30 2563 H 244.915 0.307532 2.53945 0
M  V30 2564 H 244.559 0.337581 5.06777 0
M  V30 2565 H 244.489 -1.44256 5.06456 0
M  V30 2566 H 246.98 -0.641146 3.72421 0
M  V30 2567 H 247.293 -0.690616 7.69708 0
M  V30 2568 H 245.638 -0.628012 6.92157 0
M  V30 2569 H 248.829 -0.711019 4.62668 0
M  V30 2570 H 249.002 -0.733804 6.43832 0
M  V30 2571 N 242.408 -1.52605 -0.393616 0
M  V30 2572 C 243.638 -1.71046 -1.15874 0
M  V30 2573 C 244.046 -0.426483 -1.84331 0
M  V30 2574 O 243.389 0.608513 -1.73329 0
M  V30 2575 C 243.451 -2.80118 -2.25332 0
M  V30 2576 C 243.115 -4.21381 -1.76881 0
M  V30 2577 C 244.112 -5.04697 -1.24808 0
M  V30 2578 C 241.797 -4.67683 -1.83244 0
M  V30 2579 C 243.791 -6.32393 -0.797387 0
M  V30 2580 C 241.478 -5.95364 -1.37787 0
M  V30 2581 C 242.476 -6.77549 -0.861208 0
M  V30 2582 O 242.164 -8.02837 -0.413252 0
M  V30 2583 H 241.896 -0.576155 -0.353583 0
M  V30 2584 H 244.45 -2.00018 -0.467123 0
M  V30 2585 H 242.68 -2.46557 -2.97904 0
M  V30 2586 H 244.369 -2.87006 -2.87023 0
M  V30 2587 H 245.135 -4.70111 -1.19252 0
M  V30 2588 H 241.014 -4.03805 -2.22401 0
M  V30 2589 H 244.558 -6.9649 -0.393437 0
M  V30 2590 H 240.455 -6.29455 -1.43026 0
M  V30 2591 H 241.223 -8.16749 -0.53515 0
M  V30 2592 N 243.887 0.651787 -1.4349 0
M  V30 2593 C 245.298 1.233 -1.40193 0
M  V30 2594 C 245.649 1.9591 -0.106727 0
M  V30 2595 O 244.774 2.01316 0.793773 0
M  V30 2596 C 245.369 2.24257 -2.53957 0
M  V30 2597 C 243.928 2.77852 -2.5392 0
M  V30 2598 C 243.075 1.52517 -2.3159 0
M  V30 2599 H 246.026 0.443717 -1.52371 0
M  V30 2600 H 246.047 3.0646 -2.25528 0
M  V30 2601 H 245.559 1.71382 -3.4821 0
M  V30 2602 H 243.66 3.34786 -1.63551 0
M  V30 2603 H 243.773 3.25299 -3.51735 0
M  V30 2604 H 242.137 1.79915 -1.80285 0
M  V30 2605 H 242.92 1.01574 -3.27929 0
M  V30 2606 N 245.365 1.30045 0.890287 0
M  V30 2607 C 246.275 1.17885 2.02831 0
M  V30 2608 C 247.291 0.0999609 1.73713 0
M  V30 2609 O 248.467 0.313867 1.98939 0
M  V30 2610 C 245.532 0.866079 3.35708 0
M  V30 2611 C 244.593 2.02979 3.78283 0
M  V30 2612 C 243.826 1.73184 5.0482 0
M  V30 2613 O 244.049 0.657237 5.66601 0
M  V30 2614 O 242.983 2.58267 5.43674 0
M  V30 2615 H 246.809 2.13474 2.16015 0
M  V30 2616 H 244.394 1.09587 1.01543 0
M  V30 2617 H 246.276 0.706623 4.15433 0
M  V30 2618 H 244.951 -0.0599443 3.23644 0
M  V30 2619 H 243.858 2.24454 2.99285 0
M  V30 2620 H 245.191 2.93734 3.94944 0
M  V30 2621 N 246.843 -1.10192 1.12674 0
M  V30 2622 C 247.79 -2.16606 0.796906 0
M  V30 2623 C 248.76 -1.64394 -0.237476 0
M  V30 2624 O 249.945 -1.90474 -0.111484 0
M  V30 2625 C 247.085 -3.44116 0.26043 0
M  V30 2626 C 246.198 -4.10268 1.35293 0
M  V30 2627 C 245.333 -5.25507 0.775621 0
M  V30 2628 C 244.372 -5.83567 1.84706 0
M  V30 2629 N 243.509 -6.90179 1.28829 0
M  V30 2630 H 248.349 -2.44163 1.70846 0
M  V30 2631 H 245.886 -1.19846 0.85295 0
M  V30 2632 H 247.844 -4.17143 -0.0686814 0
M  V30 2633 H 246.474 -3.16901 -0.614274 0
M  V30 2634 H 245.526 -3.35184 1.79877 0
M  V30 2635 H 246.838 -4.4946 2.16303 0
M  V30 2636 H 245.992 -6.05398 0.397327 0
M  V30 2637 H 244.731 -4.87656 -0.0656581 0
M  V30 2638 H 243.736 -5.02344 2.23452 0
M  V30 2639 H 244.961 -6.23482 2.69161 0
M  V30 2640 H 242.907 -6.54322 0.468881 0
M  V30 2641 H 242.824 -7.28097 2.03497 0
M  V30 2642 H 244.092 -7.73844 0.937311 0
M  V30 2643 N 248.321 -0.919034 -1.28029 0
M  V30 2644 C 249.737 -0.617972 -1.4715 0
M  V30 2645 C 249.937 0.835242 -1.83374 0
M  V30 2646 O 248.993 1.61388 -1.94191 0
M  V30 2647 C 250.306 -1.56041 -2.57044 0
M  V30 2648 C 251.854 -1.56769 -2.7091 0
M  V30 2649 C 252.329 -2.49688 -3.83953 0
M  V30 2650 N 253.82 -2.47845 -3.91314 0
M  V30 2651 C 254.555 -3.16437 -4.78179 0
M  V30 2652 N 254.051 -3.94376 -5.69596 0
M  V30 2653 N 255.844 -3.05498 -4.71834 0
M  V30 2654 H 247.995 -1.85866 -1.02798 0
M  V30 2655 H 250.258 -0.797506 -0.512531 0
M  V30 2656 H 249.964 -2.59671 -2.372 0
M  V30 2657 H 249.838 -1.29551 -3.54255 0
M  V30 2658 H 252.225 -0.538745 -2.90141 0
M  V30 2659 H 252.306 -1.87305 -1.74214 0
M  V30 2660 H 251.95 -3.52688 -3.65477 0
M  V30 2661 H 251.88 -2.16453 -4.80058 0
M  V30 2662 H 254.371 -1.91234 -3.25941 0
M  V30 2663 H 254.684 -4.43721 -6.32718 0
M  V30 2664 H 253.029 -3.98481 -5.69419 0
M  V30 2665 H 256.22 -2.44108 -3.99411 0
M  V30 2666 H 256.393 -3.59225 -5.39316 0
M  V30 2667 N 249.799 1.42003 -0.683588 0
M  V30 2668 C 251.046 2.01413 -0.209514 0
M  V30 2669 C 251.374 1.54088 1.1869 0
M  V30 2670 O 250.629 0.737591 1.81268 0
M  V30 2671 C 250.928 3.56827 -0.202357 0
M  V30 2672 C 250.594 4.23617 -1.54464 0
M  V30 2673 C 249.256 4.41577 -1.91215 0
M  V30 2674 C 251.608 4.61178 -2.42826 0
M  V30 2675 C 248.936 4.9437 -3.15935 0
M  V30 2676 C 251.288 5.15355 -3.66867 0
M  V30 2677 C 249.952 5.31528 -4.03776 0
M  V30 2678 H 249.222 0.737023 -0.0766668 0
M  V30 2679 H 251.869 1.70067 -0.880312 0
M  V30 2680 H 250.174 3.87892 0.551969 0
M  V30 2681 H 251.871 4.00588 0.181793 0
M  V30 2682 H 248.461 4.10004 -1.24877 0
M  V30 2683 H 252.645 4.46968 -2.15717 0
M  V30 2684 H 247.901 5.05076 -3.44541 0
M  V30 2685 H 252.075 5.43402 -4.35531 0
M  V30 2686 H 249.702 5.72199 -5.00492 0
M  V30 2687 N 251.277 0.427512 1.51691 0
M  V30 2688 C 252.523 -0.142439 2.02299 0
M  V30 2689 C 252.856 -1.43214 1.31162 0
M  V30 2690 O 252.131 -1.89833 0.423511 0
M  V30 2691 C 252.414 -0.371301 3.58181 0
M  V30 2692 C 252.267 0.936358 4.39946 0
M  V30 2693 C 253.586 -1.14542 4.24933 0
M  V30 2694 H 250.705 -0.0502937 0.735282 0
M  V30 2695 H 253.347 0.564584 1.81418 0
M  V30 2696 H 251.497 -0.973559 3.76104 0
M  V30 2697 H 253.169 1.57184 4.33694 0
M  V30 2698 H 251.412 1.5432 4.05423 0
M  V30 2699 H 252.083 0.730388 5.47147 0
M  V30 2700 H 254.559 -0.635362 4.11221 0
M  V30 2701 H 253.435 -1.27431 5.33903 0
M  V30 2702 H 253.696 -2.17093 3.85127 0
M  V30 2703 N 252.755 -1.56801 0.158532 0
M  V30 2704 C 254.166 -1.83189 -0.360366 0
M  V30 2705 C 254.517 -1.07778 -1.63946 0
M  V30 2706 O 253.642 -0.326718 -2.13919 0
M  V30 2707 C 254.237 -3.32297 -0.660595 0
M  V30 2708 C 252.796 -3.59227 -1.12398 0
M  V30 2709 C 251.943 -2.76877 -0.153097 0
M  V30 2710 H 254.894 -1.54008 0.383031 0
M  V30 2711 H 254.915 -3.4908 -1.51405 0
M  V30 2712 H 254.427 -3.87156 0.270527 0
M  V30 2713 H 252.528 -3.09766 -2.07064 0
M  V30 2714 H 252.641 -4.67632 -1.04197 0
M  V30 2715 H 251.005 -2.46319 -0.647983 0
M  V30 2716 H 251.788 -3.34511 0.77182 0
M  V30 2717 N 254.233 0.115231 -1.57178 0
M  V30 2718 C 255.51 0.852873 -1.76027 0
M  V30 2719 C 255.89 1.97892 -0.73498 0
M  V30 2720 O 255.238 2.27232 0.24036 0
M  V30 2721 C 255.448 1.36608 -3.21153 0
M  V30 2722 C 256.796 1.81692 -3.83762 0
M  V30 2723 O 257.82 1.46278 -3.24779 0
M  V30 2724 O 256.679 2.47104 -4.87444 0
M  V30 2725 H 253.773 0.405296 -0.720877 0
M  V30 2726 H 256.319 0.0986785 -1.69413 0
M  V30 2727 H 255.091 0.558357 -3.87296 0
M  V30 2728 H 254.714 2.18287 -3.3232 0
M  V30 2729 N 255.711 1.52812 0.385517 0
M  V30 2730 C 256.959 1.67694 1.12797 0
M  V30 2731 C 257.28 0.421115 1.90399 0
M  V30 2732 O 256.55 -0.564551 1.87589 0
M  V30 2733 H 255.13 0.618155 0.419396 0
M  V30 2734 H 257.792 1.89938 0.436972 0
M  V30 2735 H 256.888 2.52896 1.82894 0
M  V30 2736 N 257.189 -0.644168 1.43834 0
M  V30 2737 C 258.137 -1.77793 1.49974 0
M  V30 2738 C 259.131 -1.65253 0.372536 0
M  V30 2739 O 260.337 -1.7149 0.546924 0
M  V30 2740 H 256.712 -0.58675 0.47035 0
M  V30 2741 H 258.683 -1.69736 2.45423 0
M  V30 2742 C 257.432 -3.16087 1.4486 0
M  V30 2743 H 256.755 -3.26378 2.30905 0
M  V30 2744 H 258.195 -3.95349 1.53217 0
M  V30 2745 C 256.654 -3.36484 0.167463 0
M  V30 2746 O 257.184 -3.94298 -0.767609 0
M  V30 2747 N 255.39 -2.90504 0.0747556 0
M  V30 2748 H 254.937 -2.4364 0.836507 0
M  V30 2749 H 254.895 -3.04527 -0.781714 0
M  V30 2750 N 258.668 -1.30515 -0.883378 0
M  V30 2751 C 260.084 -1.08881 -1.16692 0
M  V30 2752 C 260.284 0.149409 -2.00945 0
M  V30 2753 O 259.34 0.84257 -2.38027 0
M  V30 2754 C 260.653 -2.35319 -1.87204 0
M  V30 2755 C 262.201 -2.40799 -1.99962 0
M  V30 2756 C 262.676 -3.67083 -2.73887 0
M  V30 2757 N 264.167 -3.679 -2.81432 0
M  V30 2758 C 264.902 -4.62303 -3.3921 0
M  V30 2759 N 264.398 -5.67052 -3.98025 0
M  V30 2760 N 266.191 -4.49845 -3.3704 0
M  V30 2761 H 258.342 -2.09951 -0.321633 0
M  V30 2762 H 260.605 -0.92556 -0.205043 0
M  V30 2763 H 260.311 -3.25689 -1.3274 0
M  V30 2764 H 260.185 -2.44089 -2.87577 0
M  V30 2765 H 262.572 -1.50907 -2.53597 0
M  V30 2766 H 262.653 -2.36003 -0.98673 0
M  V30 2767 H 262.297 -4.57334 -2.20925 0
M  V30 2768 H 262.227 -3.69141 -3.75556 0
M  V30 2769 H 264.718 -2.92171 -2.39676 0
M  V30 2770 H 265.031 -6.35184 -4.40183 0
M  V30 2771 H 263.376 -5.70842 -3.96439 0
M  V30 2772 H 266.567 -3.67194 -2.90321 0
M  V30 2773 H 266.74 -5.23597 -3.81772 0
M  V30 2774 N 260.146 1.09593 -1.13257 0
M  V30 2775 C 261.395 1.81105 -0.887917 0
M  V30 2776 C 261.708 1.86563 0.587672 0
M  V30 2777 O 262.914 2.54367 0.949204 0
M  V30 2778 C 261.37 3.25338 -1.53895 0
M  V30 2779 C 260.978 3.28151 -3.04994 0
M  V30 2780 C 262.722 4.01617 -1.37492 0
M  V30 2781 C 260.629 4.66897 -3.6299 0
M  V30 2782 H 259.559 0.678661 -0.328534 0
M  V30 2783 H 262.21 1.23183 -1.36008 0
M  V30 2784 H 260.592 3.8331 -0.994446 0
M  V30 2785 H 261.766 2.79953 -3.66009 0
M  V30 2786 H 260.081 2.65361 -3.20893 0
M  V30 2787 H 262.678 5.04119 -1.78235 0
M  V30 2788 H 263.021 4.15072 -0.31957 0
M  V30 2789 H 263.554 3.50082 -1.88912 0
M  V30 2790 H 260.293 4.58643 -4.68323 0
M  V30 2791 H 259.813 5.15426 -3.06752 0
M  V30 2792 H 261.492 5.3587 -3.62563 0
M  V30 2793 N 261.624 0.925811 1.2754 0
M  V30 2794 C 262.849 0.580924 1.99098 0
M  V30 2795 C 263.274 -0.833555 1.68622 0
M  V30 2796 O 262.632 -1.55903 0.925422 0
M  V30 2797 C 262.68 0.811186 3.51358 0
M  V30 2798 O 261.784 -0.124129 4.12213 0
M  V30 2799 H 261.125 0.223873 0.625122 0
M  V30 2800 H 263.655 1.24455 1.62395 0
M  V30 2801 H 263.665 0.72601 4.01489 0
M  V30 2802 H 262.34 1.84227 3.72872 0
M  V30 2803 H 260.917 0.0108006 3.72898 0
M  V30 2804 N 263.102 -1.41638 0.69111 0
M  V30 2805 C 264.348 -2.02104 0.229258 0
M  V30 2806 C 264.703 -1.53741 -1.15678 0
M  V30 2807 O 263.996 -0.736849 -1.76865 0
M  V30 2808 C 264.19 -3.56714 0.221277 0
M  V30 2809 C 264.019 -4.20083 1.605 0
M  V30 2810 C 262.789 -4.54566 2.20676 0
M  V30 2811 C 264.987 -4.46587 2.55078 0
M  V30 2812 N 262.969 -5.03199 3.5166 0
M  V30 2813 C 264.34 -4.96946 3.70735 0
M  V30 2814 C 266.395 -4.28593 2.53401 0
M  V30 2815 C 265.098 -5.31203 4.8499 0
M  V30 2816 C 267.124 -4.63936 3.66765 0
M  V30 2817 C 266.486 -5.14463 4.81152 0
M  V30 2818 H 262.585 -0.771256 0.12918 0
M  V30 2819 H 265.169 -1.72251 0.907626 0
M  V30 2820 H 263.34 -3.86051 -0.426562 0
M  V30 2821 H 265.072 -4.03896 -0.254983 0
M  V30 2822 H 261.827 -4.4087 1.73005 0
M  V30 2823 H 262.251 -5.31926 4.18789 0
M  V30 2824 H 266.893 -3.88771 1.66184 0
M  V30 2825 H 264.611 -5.69951 5.72871 0
M  V30 2826 H 268.197 -4.51677 3.66714 0
M  V30 2827 H 267.077 -5.41299 5.67419 0
M  V30 2828 N 264.58 -0.43555 -1.51462 0
M  V30 2829 C 265.857 0.191364 -1.94662 0
M  V30 2830 C 266.237 1.60254 -1.37411 0
M  V30 2831 O 265.585 2.2152 -0.560458 0
M  V30 2832 C 265.795 0.17091 -3.48581 0
M  V30 2833 C 267.143 0.377357 -4.2292 0
M  V30 2834 O 268.167 0.249104 -3.55328 0
M  V30 2835 O 267.026 0.63247 -5.42828 0
M  V30 2836 H 264.12 0.130932 -0.816569 0
M  V30 2837 H 266.666 -0.4934 -1.62369 0
M  V30 2838 H 265.438 -0.815738 -3.82703 0
M  V30 2839 H 265.061 0.898659 -3.87311 0
M  V30 2840 N 266.058 1.56714 -0.166846 0
M  V30 2841 C 267.283 2.01557 0.488833 0
M  V30 2842 C 267.708 1.0463 1.56314 0
M  V30 2843 O 267.066 0.0251304 1.81283 0
M  V30 2844 C 267.114 3.4503 1.04818 0
M  V30 2845 O 266.218 3.51163 2.16236 0
M  V30 2846 H 265.559 0.653516 0.117526 0
M  V30 2847 H 268.089 2.02818 -0.269421 0
M  V30 2848 H 268.099 3.84243 1.37191 0
M  V30 2849 H 266.774 4.15077 0.261572 0
M  V30 2850 H 265.351 3.23807 1.84942 0
M  V30 2851 N 267.536 -0.106894 1.57237 0
M  V30 2852 C 268.483 -1.13049 2.01217 0
M  V30 2853 C 269.453 -1.40471 0.886403 0
M  V30 2854 O 270.638 -1.52133 1.15153 0
M  V30 2855 C 267.778 -2.4487 2.43172 0
M  V30 2856 C 266.891 -2.24281 3.69218 0
M  V30 2857 C 266.026 -3.49417 4.00101 0
M  V30 2858 C 265.065 -3.24038 5.19294 0
M  V30 2859 N 264.202 -4.41409 5.45988 0
M  V30 2860 H 269.042 -0.748456 2.88448 0
M  V30 2861 H 266.579 -0.358054 1.42676 0
M  V30 2862 H 268.537 -3.21786 2.65537 0
M  V30 2863 H 267.167 -2.80944 1.58967 0
M  V30 2864 H 266.219 -1.38224 3.54398 0
M  V30 2865 H 267.531 -2.01512 4.56283 0
M  V30 2866 H 266.685 -4.34746 4.2318 0
M  V30 2867 H 265.424 -3.75229 3.11535 0
M  V30 2868 H 264.429 -2.37102 4.96047 0
M  V30 2869 H 265.654 -2.99584 6.09447 0
M  V30 2870 H 263.6 -4.67319 4.60379 0
M  V30 2871 H 263.517 -4.21788 6.274 0
M  V30 2872 H 264.785 -5.27836 5.73593 0
M  V30 2873 N 269.014 -1.53014 -0.377408 0
M  V30 2874 C 269.961 -1.78616 -1.46168 0
M  V30 2875 C 270.931 -0.629917 -1.53692 0
M  V30 2876 O 272.116 -0.870861 -1.69766 0
M  V30 2877 C 269.256 -1.97123 -2.8326 0
M  V30 2878 C 268.369 -3.24831 -2.84796 0
M  V30 2879 C 267.504 -3.33591 -4.13389 0
M  V30 2880 C 266.543 -4.55377 -4.09021 0
M  V30 2881 N 265.68 -4.61355 -5.29241 0
M  V30 2882 H 270.52 -2.71142 -1.23637 0
M  V30 2883 H 268.057 -1.34326 -0.599577 0
M  V30 2884 H 270.015 -2.05839 -3.62886 0
M  V30 2885 H 268.645 -1.07946 -3.04216 0
M  V30 2886 H 267.697 -3.25128 -1.97474 0
M  V30 2887 H 269.009 -4.14523 -2.77439 0
M  V30 2888 H 268.163 -3.41554 -5.01424 0
M  V30 2889 H 266.902 -2.41894 -4.23484 0
M  V30 2890 H 265.907 -4.47527 -3.19373 0
M  V30 2891 H 267.132 -5.48402 -4.00539 0
M  V30 2892 H 265.078 -3.72554 -5.39944 0
M  V30 2893 H 264.995 -5.44935 -5.24006 0
M  V30 2894 H 266.263 -4.73586 -6.19141 0
M  V30 2895 N 270.492 0.636531 -1.44174 0
M  V30 2896 C 271.74 1.39343 -1.46383 0
M  V30 2897 C 272.061 1.94766 -0.0955715 0
M  V30 2898 O 271.331 1.75452 0.871395 0
M  V30 2899 H 269.911 0.517199 -0.538994 0
M  V30 2900 H 272.573 0.74957 -1.7991 0
M  V30 2901 H 271.669 2.22746 -2.18611 0
M  V30 2902 N 271.97 1.30982 0.876444 0
M  V30 2903 C 273.217 1.20296 1.62896 0
M  V30 2904 C 273.545 -0.240395 1.93009 0
M  V30 2905 O 272.8 -1.18733 1.55567 0
M  V30 2906 C 273.099 1.98572 2.9716 0
M  V30 2907 C 272.765 3.48125 2.86566 0
M  V30 2908 C 271.427 3.88905 2.83383 0
M  V30 2909 C 273.779 4.43322 2.74071 0
M  V30 2910 C 271.107 5.2316 2.65556 0
M  V30 2911 C 273.459 5.77695 2.57781 0
M  V30 2912 C 272.123 6.17704 2.52979 0
M  V30 2913 H 271.393 0.440193 0.59608 0
M  V30 2914 H 274.04 1.62177 1.01837 0
M  V30 2915 H 272.345 1.49352 3.62217 0
M  V30 2916 H 274.042 1.8769 3.54364 0
M  V30 2917 H 270.632 3.15723 2.89856 0
M  V30 2918 H 274.816 4.12752 2.75589 0
M  V30 2919 H 270.072 5.53241 2.60259 0
M  V30 2920 H 274.246 6.51091 2.47089 0
M  V30 2921 H 271.873 7.21678 2.38924 0
M  V30 2922 N 273.449 -1.08991 1.13837 0
M  V30 2923 C 274.677 -1.85011 0.926202 0
M  V30 2924 C 275.092 -1.8135 -0.525127 0
M  V30 2925 O 274.449 -1.21287 -1.36366 0
M  V30 2926 C 274.5 -3.32802 1.41155 0
M  V30 2927 O 274.221 -3.36444 2.80601 0
M  V30 2928 C 275.722 -4.25649 1.23847 0
M  V30 2929 H 272.942 -0.584249 0.32999 0
M  V30 2930 H 275.486 -1.37688 1.51202 0
M  V30 2931 H 273.641 -3.77536 0.868631 0
M  V30 2932 H 274.055 -4.28657 3.02248 0
M  V30 2933 H 275.529 -5.27485 1.62675 0
M  V30 2934 H 276.006 -4.38828 0.18065 0
M  V30 2935 H 276.612 -3.86735 1.76964 0
M  V30 2936 N 274.927 -0.932562 -1.27047 0
M  V30 2937 C 276.176 -0.571351 -1.93439 0
M  V30 2938 C 276.489 0.892467 -1.74053 0
M  V30 2939 O 277.695 1.36267 -2.34826 0
M  V30 2940 C 276.151 -0.97106 -3.46552 0
M  V30 2941 C 275.759 -2.4559 -3.74686 0
M  V30 2942 C 277.503 -0.681333 -4.18997 0
M  V30 2943 C 275.41 -2.79475 -5.21198 0
M  V30 2944 H 274.34 -0.209966 -0.724176 0
M  V30 2945 H 276.991 -1.13403 -1.44263 0
M  V30 2946 H 275.373 -0.336983 -3.94564 0
M  V30 2947 H 276.547 -3.13829 -3.37414 0
M  V30 2948 H 274.862 -2.71802 -3.15456 0
M  V30 2949 H 277.459 -0.910939 -5.26883 0
M  V30 2950 H 277.802 0.381628 -4.14547 0
M  V30 2951 H 278.335 -1.27473 -3.76823 0
M  V30 2952 H 275.074 -3.847 -5.30741 0
M  V30 2953 H 274.594 -2.1589 -5.596 0
M  V30 2954 H 276.273 -2.67478 -5.89122 0
M  V30 2955 N 276.405 1.4127 -0.698611 0
M  V30 2956 C 277.816 1.84187 -0.305289 0
M  V30 2957 C 278.167 1.58449 1.15708 0
M  V30 2958 O 277.292 1.05651 1.88856 0
M  V30 2959 C 277.887 3.3435 -0.547314 0
M  V30 2960 C 276.446 3.75826 -0.207878 0
M  V30 2961 C 275.593 2.64647 -0.828099 0
M  V30 2962 H 278.544 1.30778 -0.89904 0
M  V30 2963 H 278.565 3.8001 0.192998 0
M  V30 2964 H 278.077 3.53051 -1.61172 0
M  V30 2965 H 276.178 3.62725 0.852143 0
M  V30 2966 H 276.291 4.74462 -0.665021 0
M  V30 2967 H 274.655 2.53395 -0.257458 0
M  V30 2968 H 275.438 2.86165 -1.89643 0
M  V30 2969 N 277.883 0.443576 1.51229 0
M  V30 2970 C 279.108 -0.121648 2.07043 0
M  V30 2971 C 279.533 -1.35156 1.30823 0
M  V30 2972 O 278.891 -1.7793 0.347934 0
M  V30 2973 C 278.939 -0.41624 3.5819 0
M  V30 2974 O 278.043 -1.50163 3.8409 0
M  V30 2975 H 277.384 0.000871367 0.663999 0
M  V30 2976 H 279.914 0.626706 1.94765 0
M  V30 2977 H 279.924 -0.664867 4.02546 0
M  V30 2978 H 278.599 0.482653 4.1309 0
M  V30 2979 H 277.176 -1.24248 3.51592 0
M  V30 2980 N 279.361 -1.56624 0.175154 0
M  V30 2981 C 280.591 -2.01082 -0.474283 0
M  V30 2982 C 280.999 -1.05447 -1.57091 0
M  V30 2983 O 280.342 -0.0480595 -1.83637 0
M  V30 2984 C 280.404 -3.41963 -1.10911 0
M  V30 2985 C 280.068 -4.56742 -0.153666 0
M  V30 2986 C 281.065 -5.16076 0.629448 0
M  V30 2987 C 278.75 -5.02277 -0.0483776 0
M  V30 2988 C 280.744 -6.19377 1.50501 0
M  V30 2989 C 278.431 -6.05427 0.830768 0
M  V30 2990 C 279.429 -6.63849 1.60605 0
M  V30 2991 O 279.117 -7.64998 2.47049 0
M  V30 2992 H 278.849 -0.664261 -0.125432 0
M  V30 2993 H 281.403 -2.03549 0.275163 0
M  V30 2994 H 279.633 -3.36422 -1.90676 0
M  V30 2995 H 281.322 -3.70352 -1.66114 0
M  V30 2996 H 282.088 -4.81776 0.558297 0
M  V30 2997 H 277.967 -4.56513 -0.641611 0
M  V30 2998 H 281.511 -6.64906 2.1106 0
M  V30 2999 H 277.408 -6.39151 0.903107 0
M  V30 3000 H 278.176 -7.82336 2.40607 0
M  V30 3001 N 280.839 0.0985539 -1.57292 0
M  V30 3002 C 281.772 1.15082 -1.97057 0
M  V30 3003 C 282.75 1.39025 -0.843255 0
M  V30 3004 O 283.934 1.52842 -1.10325 0
M  V30 3005 C 281.061 2.50069 -2.28437 0
M  V30 3006 C 280.107 2.42428 -3.509 0
M  V30 3007 S 280.94 1.84414 -5.02744 0
M  V30 3008 C 282.096 3.21032 -5.37298 0
M  V30 3009 H 282.329 0.811815 -2.86002 0
M  V30 3010 H 279.862 0.306102 -1.51335 0
M  V30 3011 H 281.82 3.27729 -2.47192 0
M  V30 3012 H 280.481 2.8114 -1.40069 0
M  V30 3013 H 279.674 3.41911 -3.70288 0
M  V30 3014 H 279.276 1.72896 -3.31637 0
M  V30 3015 H 281.568 4.17297 -5.33731 0
M  V30 3016 H 282.511 3.06452 -6.38352 0
M  V30 3017 H 282.919 3.20404 -4.64759 0
M  V30 3018 N 282.317 1.53212 0.369288 0
M  V30 3019 C 283.566 1.68436 1.10961 0
M  V30 3020 C 283.879 0.440738 1.9057 0
M  V30 3021 O 285.085 0.473446 2.6734 0
M  V30 3022 C 283.541 2.97744 2.0218 0
M  V30 3023 C 283.149 4.29355 1.279 0
M  V30 3024 C 284.893 3.22334 2.76226 0
M  V30 3025 C 282.8 5.49755 2.17999 0
M  V30 3026 H 281.73 0.627568 0.41794 0
M  V30 3027 H 284.381 1.79713 0.370884 0
M  V30 3028 H 282.763 2.8026 2.79768 0
M  V30 3029 H 283.937 4.57458 0.554007 0
M  V30 3030 H 282.252 4.11179 0.657311 0
M  V30 3031 H 284.849 4.09471 3.43857 0
M  V30 3032 H 285.192 2.38238 3.41392 0
M  V30 3033 H 285.725 3.40475 2.05723 0
M  V30 3034 H 282.464 6.36318 1.57417 0
M  V30 3035 H 281.984 5.25937 2.88359 0
M  V30 3036 H 283.663 5.84401 2.77641 0
M  V30 3037 N 283.795 -0.628877 1.44509 0
M  V30 3038 C 285.02 -1.42048 1.5112 0
M  V30 3039 C 285.445 -1.87594 0.137818 0
M  V30 3040 O 284.803 -1.58873 -0.873437 0
M  V30 3041 C 284.851 -2.61541 2.48251 0
M  V30 3042 O 283.955 -3.61453 1.98559 0
M  V30 3043 H 283.296 -0.424942 0.510216 0
M  V30 3044 H 285.826 -0.767374 1.89664 0
M  V30 3045 H 285.836 -3.09057 2.66361 0
M  V30 3046 H 284.511 -2.27736 3.48007 0
M  V30 3047 H 283.088 -3.20731 1.90227 0
M  V30 3048 N 285.273 -1.31445 -0.869486 0
M  V30 3049 C 286.503 -1.23942 -1.65294 0
M  V30 3050 C 286.911 0.197561 -1.88166 0
M  V30 3051 O 286.254 1.14019 -1.44033 0
M  V30 3052 C 286.316 -1.91385 -3.04322 0
M  V30 3053 C 285.98 -3.40726 -3.04557 0
M  V30 3054 C 286.977 -4.36464 -2.82481 0
M  V30 3055 C 284.662 -3.82425 -3.25663 0
M  V30 3056 C 286.656 -5.71876 -2.8149 0
M  V30 3057 C 284.343 -5.1795 -3.243 0
M  V30 3058 C 285.341 -6.12486 -3.02241 0
M  V30 3059 O 285.029 -7.45534 -3.00724 0
M  V30 3060 H 284.761 -0.429459 -0.522054 0
M  V30 3061 H 287.315 -1.73873 -1.0935 0
M  V30 3062 H 285.545 -1.36004 -3.61994 0
M  V30 3063 H 287.234 -1.77791 -3.64891 0
M  V30 3064 H 288 -4.05576 -2.65956 0
M  V30 3065 H 283.879 -3.09274 -3.41863 0
M  V30 3066 H 287.423 -6.45638 -2.64191 0
M  V30 3067 H 283.32 -5.48473 -3.40365 0
M  V30 3068 H 284.088 -7.54713 -3.16782 0
M  V30 3069 N 286.751 1.08385 -1.14413 0
M  V30 3070 C 287.714 2.13486 -0.834048 0
M  V30 3071 C 288.714 1.59988 0.161418 0
M  V30 3072 O 289.904 1.74071 -0.0669575 0
M  V30 3073 C 287.036 3.4003 -0.243354 0
M  V30 3074 H 288.229 2.42425 -1.7655 0
M  V30 3075 H 285.782 1.24101 -0.950189 0
M  V30 3076 H 286.517 3.16726 0.696807 0
M  V30 3077 H 286.302 3.80157 -0.960367 0
M  V30 3078 H 287.792 4.17577 -0.0436242 0
M  V30 3079 N 288.23 0.939286 1.26551 0
M  V30 3080 C 289.478 0.58469 1.93457 0
M  V30 3081 C 289.799 -0.878774 1.74076 0
M  V30 3082 O 289.069 -1.62421 1.09528 0
M  V30 3083 H 287.649 0.21325 0.715914 0
M  V30 3084 H 290.311 1.1942 1.54029 0
M  V30 3085 H 289.407 0.800849 3.0165 0
M  V30 3086 N 289.708 -1.40897 0.706093 0
M  V30 3087 C 290.641 -2.282 -0.00328781 0
M  V30 3088 C 291.619 -1.42816 -0.77732 0
M  V30 3089 O 292.803 -1.72237 -0.765944 0
M  V30 3090 C 289.93 -3.23226 -1.01205 0
M  V30 3091 C 288.976 -4.25222 -0.329955 0
M  V30 3092 S 289.809 -5.27269 0.935298 0
M  V30 3093 C 290.965 -6.25859 -0.0716061 0
M  V30 3094 H 291.198 -2.88016 0.737143 0
M  V30 3095 H 288.731 -1.46191 0.496756 0
M  V30 3096 H 290.689 -3.78503 -1.58888 0
M  V30 3097 H 289.35 -2.62485 -1.72513 0
M  V30 3098 H 288.543 -4.92023 -1.09221 0
M  V30 3099 H 288.145 -3.73595 0.174069 0
M  V30 3100 H 290.437 -6.71204 -0.921521 0
M  V30 3101 H 291.38 -7.0586 0.562765 0
M  V30 3102 H 291.788 -5.62852 -0.431088 0
M  V30 3103 N 291.186 -0.45159 -1.50991 0
M  V30 3104 C 292.432 0.110237 -2.025 0
M  V30 3105 C 292.765 1.41109 -1.33424 0
M  V30 3106 O 292.04 1.89135 -0.453659 0
M  V30 3107 C 292.323 0.314271 -3.58726 0
M  V30 3108 C 292.176 -1.00623 -4.38401 0
M  V30 3109 C 293.495 1.07767 -4.26702 0
M  V30 3110 H 290.614 0.0385897 -0.735989 0
M  V30 3111 H 293.256 -0.593374 -1.80497 0
M  V30 3112 H 291.406 0.913601 -3.77605 0
M  V30 3113 H 293.078 -1.64064 -4.31139 0
M  V30 3114 H 291.321 -1.6075 -4.02917 0
M  V30 3115 H 291.992 -0.817341 -5.45915 0
M  V30 3116 H 294.468 0.56986 -4.12179 0
M  V30 3117 H 293.344 1.18921 -5.35863 0
M  V30 3118 H 293.605 2.10939 -3.88532 0
M  V30 3119 N 292.664 1.56529 -0.183458 0
M  V30 3120 C 293.911 1.97244 0.458357 0
M  V30 3121 C 294.239 1.06992 1.62428 0
M  V30 3122 O 293.494 0.106542 1.9541 0
M  V30 3123 C 293.793 3.43939 0.971637 0
M  V30 3124 C 293.459 4.5083 -0.0796784 0
M  V30 3125 C 292.121 4.79786 -0.368584 0
M  V30 3126 C 294.473 5.15138 -0.792638 0
M  V30 3127 C 291.801 5.70345 -1.37563 0
M  V30 3128 C 294.153 6.06784 -1.78875 0
M  V30 3129 C 292.817 6.34102 -2.08497 0
M  V30 3130 H 292.087 0.721768 0.167725 0
M  V30 3131 H 294.734 1.89472 -0.277976 0
M  V30 3132 H 293.039 3.48724 1.78602 0
M  V30 3133 H 294.736 3.72791 1.47744 0
M  V30 3134 H 291.326 4.28317 0.155668 0
M  V30 3135 H 295.51 4.92868 -0.582659 0
M  V30 3136 H 290.766 5.89789 -1.61118 0
M  V30 3137 H 294.94 6.55677 -2.3465 0
M  V30 3138 H 292.567 7.04074 -2.86678 0
M  V30 3139 N 294.142 -0.090211 1.57342 0
M  V30 3140 C 295.382 -0.798365 1.88163 0
M  V30 3141 C 295.746 -1.75662 0.775046 0
M  V30 3142 O 296.947 -2.50849 0.965816 0
M  V30 3143 C 295.218 -1.50376 3.24225 0
M  V30 3144 S 296.777 -2.24952 3.76752 0
M  V30 3145 H 293.595 -0.265883 0.659414 0
M  V30 3146 H 296.197 -0.055264 1.95422 0
M  V30 3147 H 294.901 -0.792286 4.0268 0
M  V30 3148 H 294.432 -2.28666 3.20118 0
M  V30 3149 H 296.447 -3.51173 3.5056 0
M  V30 3150 N 295.62 -1.53406 -0.361157 0
M  V30 3151 C 296.53 -1.83122 -1.4664 0
M  V30 3152 C 297.546 -0.719943 -1.58407 0
M  V30 3153 O 298.722 -1.01046 -1.74218 0
M  V30 3154 C 295.787 -2.01891 -2.81853 0
M  V30 3155 C 294.848 -3.25784 -2.79577 0
M  V30 3156 C 294.081 -3.43648 -4.0834 0
M  V30 3157 O 294.304 -2.65714 -5.0473 0
M  V30 3158 O 293.238 -4.37018 -4.13883 0
M  V30 3159 H 297.064 -2.7703 -1.24451 0
M  V30 3160 H 294.649 -1.38841 -0.551678 0
M  V30 3161 H 296.531 -2.15782 -3.61962 0
M  V30 3162 H 295.206 -1.11173 -3.0401 0
M  V30 3163 H 294.113 -3.17312 -1.98151 0
M  V30 3164 H 295.446 -4.16439 -2.62373 0
M  V30 3165 N 297.098 0.621204 -1.44841 0
M  V30 3166 C 298.061 1.71459 -1.521 0
M  V30 3167 C 299.061 1.55696 -0.401933 0
M  V30 3168 O 300.251 1.61011 -0.664925 0
M  V30 3169 C 297.383 3.10624 -1.40447 0
M  V30 3170 H 298.576 1.66394 -2.49506 0
M  V30 3171 H 296.129 0.835745 -1.3208 0
M  V30 3172 H 296.864 3.21277 -0.441737 0
M  V30 3173 H 296.649 3.23473 -2.21602 0
M  V30 3174 H 298.139 3.90293 -1.4853 0
M  V30 3175 N 298.576 1.31904 0.862503 0
M  V30 3176 C 299.523 1.20182 1.9704 0
M  V30 3177 C 300.493 0.0858247 1.65878 0
M  V30 3178 O 301.678 0.26 1.8902 0
M  V30 3179 C 298.818 0.922797 3.32533 0
M  V30 3180 C 297.931 2.12284 3.76244 0
M  V30 3181 C 297.066 1.77996 5.00491 0
M  V30 3182 C 296.105 2.94366 5.36671 0
M  V30 3183 N 295.242 2.60223 6.52095 0
M  V30 3184 H 300.082 2.14951 2.06398 0
M  V30 3185 H 297.619 1.06917 1.01031 0
M  V30 3186 H 299.577 0.741548 4.10557 0
M  V30 3187 H 298.207 0.0119227 3.22798 0
M  V30 3188 H 297.259 2.41461 2.9394 0
M  V30 3189 H 298.571 2.99357 3.98982 0
M  V30 3190 H 297.725 1.56377 5.862 0
M  V30 3191 H 296.464 0.881252 4.79672 0
M  V30 3192 H 295.469 3.16625 4.49476 0
M  V30 3193 H 296.694 3.84957 5.59451 0
M  V30 3194 H 294.64 1.72884 6.32809 0
M  V30 3195 H 294.557 3.40827 6.74814 0
M  V30 3196 H 295.825 2.42016 7.40978 0
M  V30 3197 N 300.054 -1.07777 1.14986 0
M  V30 3198 C 301.303 -1.79669 0.916617 0
M  V30 3199 C 301.616 -1.87474 -0.557917 0
M  V30 3200 O 302.822 -2.55845 -0.908617 0
M  V30 3201 C 301.278 -3.22848 1.59051 0
M  V30 3202 C 300.886 -3.23257 3.10176 0
M  V30 3203 C 302.63 -3.99379 1.43864 0
M  V30 3204 C 300.537 -4.61063 3.70372 0
M  V30 3205 H 299.467 -0.673349 0.33929 0
M  V30 3206 H 302.118 -1.21003 1.37951 0
M  V30 3207 H 300.5 -3.8168 1.0553 0
M  V30 3208 H 301.674 -2.74095 3.70417 0
M  V30 3209 H 299.989 -2.60222 3.25074 0
M  V30 3210 H 302.586 -5.0122 1.86232 0
M  V30 3211 H 302.929 -4.14511 0.385564 0
M  V30 3212 H 303.462 -3.47032 1.94457 0
M  V30 3213 H 300.201 -4.51135 4.7556 0
M  V30 3214 H 299.721 -5.1048 3.14913 0
M  V30 3215 H 301.4 -5.30034 3.71043 0
M  V30 3216 N 301.532 -0.945985 -1.26051 0
M  V30 3217 C 302.48 -0.450259 -2.282 0
M  V30 3218 C 303.474 0.47497 -1.62605 0
M  V30 3219 O 304.68 0.352653 -1.76512 0
M  V30 3220 H 301.055 -0.127081 -0.741184 0
M  V30 3221 H 303.026 -1.32422 -2.67408 0
M  V30 3222 C 301.775 0.26467 -3.46691 0
M  V30 3223 H 301.098 -0.438123 -3.97392 0
M  V30 3224 H 302.538 0.575678 -4.20074 0
M  V30 3225 C 300.997 1.48416 -3.02447 0
M  V30 3226 O 301.527 2.58227 -3.07704 0
M  V30 3227 N 299.733 1.34243 -2.57735 0
M  V30 3228 H 299.28 0.448994 -2.53657 0
M  V30 3229 H 299.238 2.15957 -2.28495 0
M  V30 3230 N 303.011 1.40521 -0.713556 0
M  V30 3231 C 304.288 1.94775 -0.17943 0
M  V30 3232 C 304.668 1.65184 1.31444 0
M  V30 3233 O 304.016 0.968429 2.06963 0
M  V30 3234 C 304.226 3.45543 -0.489986 0
M  V30 3235 C 305.574 4.22442 -0.427536 0
M  V30 3236 O 306.598 3.53644 -0.425929 0
M  V30 3237 O 305.457 5.4501 -0.403292 0
M  V30 3238 H 302.551 0.826606 -0.0255192 0
M  V30 3239 H 305.097 1.5014 -0.790949 0
M  V30 3240 H 303.869 3.60432 -1.5233 0
M  V30 3241 H 303.492 3.97311 0.151598 0
M  V30 3242 N 304.489 0.459591 1.5075 0
M  V30 3243 C 305.399 -0.34613 2.32033 0
M  V30 3244 C 306.415 -1.00686 1.41909 0
M  V30 3245 O 307.591 -0.997361 1.7497 0
M  V30 3246 C 304.656 -1.42029 3.16273 0
M  V30 3247 C 303.717 -0.777362 4.22203 0
M  V30 3248 C 302.95 -1.80034 5.02418 0
M  V30 3249 O 303.173 -3.02544 4.83553 0
M  V30 3250 O 302.107 -1.37853 5.85901 0
M  V30 3251 H 305.933 0.318054 3.0203 0
M  V30 3252 H 303.518 0.221663 1.47746 0
M  V30 3253 H 305.4 -2.04275 3.68578 0
M  V30 3254 H 304.075 -2.06815 2.49016 0
M  V30 3255 H 302.982 -0.116256 3.73919 0
M  V30 3256 H 304.315 -0.172634 4.91897 0
M  V30 3257 N 305.967 -1.56429 0.191757 0
M  V30 3258 C 307.192 -2.02309 -0.456706 0
M  V30 3259 C 307.617 -1.07103 -1.5463 0
M  V30 3260 O 306.975 -0.0539677 -1.8122 0
M  V30 3261 C 307.023 -3.46654 -0.993159 0
M  V30 3262 O 306.127 -3.54559 -2.10622 0
M  V30 3263 H 305.468 -0.655303 -0.107114 0
M  V30 3264 H 307.998 -2.02364 0.301653 0
M  V30 3265 H 308.008 -3.86377 -1.31061 0
M  V30 3266 H 306.683 -4.1544 -0.195504 0
M  V30 3267 H 305.26 -3.26708 -1.79767 0
M  V30 3268 N 307.445 0.0818655 -1.57387 0
M  V30 3269 C 308.675 0.794954 -1.90694 0
M  V30 3270 C 309.083 1.72147 -0.784982 0
M  V30 3271 O 308.426 1.81974 0.251196 0
M  V30 3272 C 308.488 1.65042 -3.19376 0
M  V30 3273 C 308.152 0.894337 -4.48164 0
M  V30 3274 C 309.149 0.21813 -5.19442 0
M  V30 3275 C 306.834 0.864495 -4.94805 0
M  V30 3276 C 308.828 -0.477802 -6.35607 0
M  V30 3277 C 306.515 0.164785 -6.10878 0
M  V30 3278 C 307.513 -0.505173 -6.81129 0
M  V30 3279 O 307.201 -1.19363 -7.94989 0
M  V30 3280 H 306.933 0.231779 -0.635023 0
M  V30 3281 H 309.487 0.059493 -2.05314 0
M  V30 3282 H 307.717 2.42844 -3.00938 0
M  V30 3283 H 309.406 2.24127 -3.38411 0
M  V30 3284 H 310.172 0.232558 -4.84442 0
M  V30 3285 H 306.051 1.37542 -4.40004 0
M  V30 3286 H 309.595 -1.00129 -6.90377 0
M  V30 3287 H 305.492 0.148249 -6.4533 0
M  V30 3288 H 306.26 -1.10188 -8.11049 0
M  V30 3289 N 308.923 1.53595 0.353017 0
M  V30 3290 C 309.855 1.77219 1.45348 0
M  V30 3291 C 310.868 0.65324 1.49119 0
M  V30 3292 O 312.057 0.929775 1.52373 0
M  V30 3293 C 309.157 1.84841 2.84055 0
M  V30 3294 C 308.33 3.14649 3.03833 0
M  V30 3295 C 307.389 3.13351 4.22727 0
M  V30 3296 O 306.415 3.87107 4.17297 0
M  V30 3297 N 307.617 2.35052 5.30783 0
M  V30 3298 H 310.382 2.72178 1.25457 0
M  V30 3299 H 307.943 1.52528 0.542833 0
M  V30 3300 H 309.935 1.81435 3.61751 0
M  V30 3301 H 308.505 0.971114 2.97133 0
M  V30 3302 H 307.725 3.31256 2.13689 0
M  V30 3303 H 309.013 4.00411 3.13925 0
M  V30 3304 H 308.411 1.74663 5.38061 0
M  V30 3305 H 306.968 2.37453 6.07009 0
M  V30 3306 N 310.401 -0.613514 1.45168 0
M  V30 3307 C 311.626 -1.40437 1.52618 0
M  V30 3308 C 312.051 -1.87438 0.157707 0
M  V30 3309 O 311.409 -1.59791 -0.856537 0
M  V30 3310 C 311.457 -2.58894 2.51011 0
M  V30 3311 O 310.561 -3.59326 2.02382 0
M  V30 3312 H 309.902 -0.419506 0.514695 0
M  V30 3313 H 312.432 -0.747215 1.90467 0
M  V30 3314 H 312.442 -3.06214 2.69624 0
M  V30 3315 H 311.117 -2.24032 3.50403 0
M  V30 3316 H 309.694 -3.18695 1.93618 0
M  V30 3317 N 311.879 -1.3236 -0.855495 0
M  V30 3318 C 313.128 -1.22226 -1.60448 0
M  V30 3319 C 313.441 0.214733 -1.94418 0
M  V30 3320 O 314.647 0.437917 -2.67945 0
M  V30 3321 C 313.103 -2.14063 -2.89318 0
M  V30 3322 C 312.711 -3.62839 -2.62777 0
M  V30 3323 C 314.455 -2.12764 -3.67331 0
M  V30 3324 C 312.362 -4.4664 -3.87643 0
M  V30 3325 H 311.292 -0.453904 -0.602069 0
M  V30 3326 H 313.943 -1.57314 -0.944698 0
M  V30 3327 H 312.325 -1.71889 -3.5675 0
M  V30 3328 H 313.499 -4.1335 -2.03662 0
M  V30 3329 H 311.814 -3.66261 -1.98096 0
M  V30 3330 H 314.411 -2.72611 -4.59987 0
M  V30 3331 H 314.754 -1.11841 -4.00995 0
M  V30 3332 H 315.287 -2.53214 -3.06802 0
M  V30 3333 H 312.026 -5.48373 -3.5912 0
M  V30 3334 H 311.546 -4.0088 -4.46156 0
M  V30 3335 H 313.225 -4.59597 -4.55389 0
M  V30 3336 N 313.357 1.07166 -1.15556 0
M  V30 3337 C 314.29 2.13808 -0.797593 0
M  V30 3338 C 315.268 1.6101 0.226812 0
M  V30 3339 O 316.452 1.88161 0.112932 0
M  V30 3340 C 313.579 3.38187 -0.186371 0
M  V30 3341 C 312.625 4.09766 -1.18297 0
M  V30 3342 S 313.458 4.60932 -2.72584 0
M  V30 3343 C 314.614 5.88583 -2.12886 0
M  V30 3344 H 314.847 2.43843 -1.70083 0
M  V30 3345 H 312.38 1.19467 -0.978106 0
M  V30 3346 H 314.338 4.10189 0.159837 0
M  V30 3347 H 312.999 3.06326 0.694489 0
M  V30 3348 H 312.192 4.99065 -0.703562 0
M  V30 3349 H 311.794 3.43736 -1.47381 0
M  V30 3350 H 314.086 6.60866 -1.49208 0
M  V30 3351 H 315.029 6.41241 -3.0036 0
M  V30 3352 H 315.437 5.42194 -1.57116 0
M  V30 3353 N 314.835 0.952656 1.25548 0
M  V30 3354 C 316.065 0.622592 1.96996 0
M  V30 3355 C 316.473 -0.809112 1.71026 0
M  V30 3356 O 315.816 -1.55258 0.981861 0
M  V30 3357 C 315.878 0.798946 3.5051 0
M  V30 3358 C 315.542 2.20744 4.00151 0
M  V30 3359 C 316.539 3.18394 4.11001 0
M  V30 3360 C 314.224 2.5311 4.33867 0
M  V30 3361 C 316.218 4.46504 4.54877 0
M  V30 3362 C 313.905 3.8145 4.7743 0
M  V30 3363 C 314.903 4.77959 4.87897 0
M  V30 3364 O 314.591 6.04012 5.30494 0
M  V30 3365 H 314.323 0.232503 0.634758 0
M  V30 3366 H 316.877 1.2789 1.60728 0
M  V30 3367 H 315.107 0.0854903 3.86605 0
M  V30 3368 H 316.796 0.47023 4.03167 0
M  V30 3369 H 317.562 2.94715 3.85186 0
M  V30 3370 H 313.441 1.78719 4.24948 0
M  V30 3371 H 316.985 5.21835 4.62962 0
M  V30 3372 H 312.882 4.04936 5.0269 0
M  V30 3373 H 313.65 6.0736 5.48685 0
M  V30 3374 N 316.313 -1.40141 0.720998 0
M  V30 3375 C 317.562 -2.0002 0.259804 0
M  V30 3376 C 317.875 -1.57839 -1.15526 0
M  V30 3377 O 319.081 -2.10455 -1.71525 0
M  V30 3378 C 317.537 -3.57516 0.413566 0
M  V30 3379 C 317.145 -4.08667 1.83562 0
M  V30 3380 C 318.889 -4.24498 0.0134387 0
M  V30 3381 C 316.796 -5.58686 1.93968 0
M  V30 3382 H 315.726 -0.748195 0.0933806 0
M  V30 3383 H 318.377 -1.60313 0.892866 0
M  V30 3384 H 316.759 -3.9495 -0.288169 0
M  V30 3385 H 317.933 -3.82598 2.56817 0
M  V30 3386 H 316.248 -3.543 2.1877 0
M  V30 3387 H 318.845 -5.34654 0.0703954 0
M  V30 3388 H 319.188 -4.03375 -1.02927 0
M  V30 3389 H 319.721 -3.92188 0.665815 0
M  V30 3390 H 316.46 -5.8467 2.96379 0
M  V30 3391 H 315.98 -5.86602 1.25131 0
M  V30 3392 H 317.659 -6.23875 1.71431 0
M  V30 3393 N 317.792 -0.46758 -1.50504 0
M  V30 3394 C 319.038 0.0887532 -2.02606 0
M  V30 3395 C 319.371 1.39686 -1.34913 0
M  V30 3396 O 318.646 1.88644 -0.473694 0
M  V30 3397 C 318.929 0.276206 -3.59039 0
M  V30 3398 C 318.782 -1.05267 -4.37309 0
M  V30 3399 C 320.101 1.03235 -4.27821 0
M  V30 3400 H 317.22 0.0307814 -0.736357 0
M  V30 3401 H 319.862 -0.612485 -1.79857 0
M  V30 3402 H 318.012 0.8735 -3.78553 0
M  V30 3403 H 319.684 -1.68628 -4.29374 0
M  V30 3404 H 317.927 -1.65015 -4.01189 0
M  V30 3405 H 318.598 -0.875197 -5.45018 0
M  V30 3406 H 321.074 0.526111 -4.12761 0
M  V30 3407 H 319.95 1.1323 -5.37094 0
M  V30 3408 H 320.211 2.06806 -3.90748 0
M  V30 3409 N 319.27 1.56325 -0.20005 0
M  V30 3410 C 320.516 1.98012 0.438059 0
M  V30 3411 C 320.849 1.08702 1.60927 0
M  V30 3412 O 320.124 0.140064 1.93995 0
M  V30 3413 C 320.407 3.48841 0.893419 0
M  V30 3414 C 320.26 4.48928 -0.279947 0
M  V30 3415 C 321.579 4.03498 1.75719 0
M  V30 3416 H 318.698 0.719918 0.157757 0
M  V30 3417 H 321.34 1.87743 -0.291968 0
M  V30 3418 H 319.49 3.57723 1.51547 0
M  V30 3419 H 321.162 4.52079 -0.91772 0
M  V30 3420 H 319.405 4.23694 -0.930919 0
M  V30 3421 H 320.076 5.5194 0.0812601 0
M  V30 3422 H 322.552 3.97427 1.23253 0
M  V30 3423 H 321.428 5.09393 2.04476 0
M  V30 3424 H 321.689 3.4906 2.71311 0
M  V30 3425 N 320.748 -0.0735177 1.57428 0
M  V30 3426 C 321.994 -0.774145 1.87443 0
M  V30 3427 C 322.327 -1.77311 0.792103 0
M  V30 3428 O 321.602 -1.93492 -0.197793 0
M  V30 3429 C 321.885 -1.48367 3.28115 0
M  V30 3430 C 321.738 -0.501227 4.46999 0
M  V30 3431 C 323.057 -2.429 3.66998 0
M  V30 3432 H 320.176 -0.279971 0.681752 0
M  V30 3433 H 322.818 -0.0373616 1.89963 0
M  V30 3434 H 320.968 -2.11171 3.26097 0
M  V30 3435 H 322.64 0.121468 4.6114 0
M  V30 3436 H 320.883 0.183593 4.33411 0
M  V30 3437 H 321.554 -1.03526 5.42205 0
M  V30 3438 H 324.03 -1.90175 3.70098 0
M  V30 3439 H 322.906 -2.89549 4.66318 0
M  V30 3440 H 323.167 -3.27628 2.96837 0
M  V30 3441 N 322.226 -1.5378 -0.344866 0
M  V30 3442 C 323.472 -1.71216 -1.08687 0
M  V30 3443 C 323.805 -0.473281 -1.88345 0
M  V30 3444 O 323.08 0.52968 -1.87149 0
M  V30 3445 C 323.363 -2.97486 -2.02914 0
M  V30 3446 C 323.216 -4.31579 -1.26727 0
M  V30 3447 C 324.535 -3.19422 -3.0275 0
M  V30 3448 H 321.654 -0.62301 -0.393735 0
M  V30 3449 H 324.296 -1.8645 -0.365563 0
M  V30 3450 H 322.446 -2.84629 -2.64421 0
M  V30 3451 H 324.118 -4.56284 -0.67845 0
M  V30 3452 H 322.361 -4.30049 -0.569273 0
M  V30 3453 H 323.032 -5.16106 -1.95803 0
M  V30 3454 H 325.508 -3.316 -2.51357 0
M  V30 3455 H 324.384 -4.09169 -3.65885 0
M  V30 3456 H 324.645 -2.35656 -3.74057 0
M  V30 3457 N 323.704 0.605807 -1.45491 0
M  V30 3458 C 324.952 1.36207 -1.49305 0
M  V30 3459 C 325.273 1.94519 -0.136863 0
M  V30 3460 O 324.543 1.77261 0.833983 0
M  V30 3461 H 323.123 0.50565 -0.549843 0
M  V30 3462 H 325.785 0.711239 -1.81459 0
M  V30 3463 H 324.881 2.18058 -2.23287 0
M  V30 3464 N 325.182 1.32811 0.848464 0
M  V30 3465 C 326.412 1.26556 1.63301 0
M  V30 3466 C 326.82 -0.1676 1.88456 0
M  V30 3467 O 326.163 -1.11713 1.45828 0
M  V30 3468 C 326.225 1.96202 3.01239 0
M  V30 3469 C 325.889 3.45528 2.99098 0
M  V30 3470 C 326.886 4.40903 2.75501 0
M  V30 3471 C 324.571 3.87558 3.19537 0
M  V30 3472 C 326.565 5.76282 2.72356 0
M  V30 3473 C 324.252 5.23044 3.16019 0
M  V30 3474 C 325.25 6.17217 2.92458 0
M  V30 3475 O 324.938 7.50223 2.88825 0
M  V30 3476 H 324.67 0.43771 0.515156 0
M  V30 3477 H 327.224 1.7559 1.0657 0
M  V30 3478 H 325.454 1.41746 3.59785 0
M  V30 3479 H 327.143 1.83573 3.62016 0
M  V30 3480 H 327.909 4.09756 2.5947 0
M  V30 3481 H 323.788 3.14674 3.369 0
M  V30 3482 H 327.332 6.4976 2.53886 0
M  V30 3483 H 323.229 5.53818 3.31596 0
M  V30 3484 H 323.997 7.59657 3.04735 0
M  V30 3485 N 326.66 -1.06551 1.16123 0
M  V30 3486 C 328.076 -1.3142 0.905585 0
M  V30 3487 C 328.276 -1.96571 -0.442964 0
M  V30 3488 O 327.332 -2.23068 -1.18308 0
M  V30 3489 C 328.645 -2.19741 2.05267 0
M  V30 3490 C 330.193 -2.33165 2.08813 0
M  V30 3491 C 330.668 -3.24838 3.22868 0
M  V30 3492 N 332.159 -3.32421 3.22568 0
M  V30 3493 C 332.894 -4.0344 4.0746 0
M  V30 3494 N 332.39 -4.77003 5.02434 0
M  V30 3495 N 334.183 -3.99464 3.95456 0
M  V30 3496 H 326.334 -0.626548 2.02949 0
M  V30 3497 H 328.597 -0.338777 0.8854 0
M  V30 3498 H 328.303 -1.79142 3.02657 0
M  V30 3499 H 328.177 -3.20313 1.99198 0
M  V30 3500 H 330.564 -2.73013 1.12018 0
M  V30 3501 H 330.645 -1.3227 2.18948 0
M  V30 3502 H 330.289 -2.85708 4.19921 0
M  V30 3503 H 330.219 -4.25707 3.0997 0
M  V30 3504 H 332.71 -2.79994 2.53795 0
M  V30 3505 H 333.023 -5.28712 5.63634 0
M  V30 3506 H 331.368 -4.75992 5.06415 0
M  V30 3507 H 334.559 -3.4111 3.20564 0
M  V30 3508 H 334.732 -4.54544 4.61837 0
M  V30 3509 N 328.138 -0.959301 -1.25041 0
M  V30 3510 C 329.387 -0.612254 -1.92183 0
M  V30 3511 C 329.7 0.855347 -1.75907 0
M  V30 3512 O 330.906 1.31256 -2.37664 0
M  V30 3513 C 329.362 -1.04435 -3.44414 0
M  V30 3514 C 328.97 -2.53482 -3.69393 0
M  V30 3515 C 330.714 -0.770055 -4.17457 0
M  V30 3516 C 328.621 -2.90468 -5.15153 0
M  V30 3517 H 327.551 -0.225279 -0.719559 0
M  V30 3518 H 330.202 -1.16438 -1.41825 0
M  V30 3519 H 328.584 -0.4206 -3.9376 0
M  V30 3520 H 329.758 -3.20916 -3.30681 0
M  V30 3521 H 328.073 -2.78432 -3.0962 0
M  V30 3522 H 330.67 -1.02249 -5.24832 0
M  V30 3523 H 331.013 0.293611 -4.15263 0
M  V30 3524 H 331.546 -1.35437 -3.74034 0
M  V30 3525 H 328.285 -3.95871 -5.22462 0
M  V30 3526 H 327.805 -2.27711 -5.54894 0
M  V30 3527 H 329.484 -2.79914 -5.83315 0
M  V30 3528 N 329.616 1.39756 -0.72842 0
M  V30 3529 C 330.846 2.04651 -0.283117 0
M  V30 3530 C 331.254 1.5502 1.08469 0
M  V30 3531 O 330.597 0.707343 1.69536 0
M  V30 3532 C 330.659 3.58947 -0.199309 0
M  V30 3533 C 330.323 4.31525 -1.5045 0
M  V30 3534 C 331.32 4.5861 -2.44894 0
M  V30 3535 C 329.005 4.70195 -1.76698 0
M  V30 3536 C 330.999 5.23366 -3.63822 0
M  V30 3537 C 328.686 5.3468 -2.95906 0
M  V30 3538 C 329.684 5.61198 -3.89289 0
M  V30 3539 O 329.372 6.24347 -5.06404 0
M  V30 3540 H 329.104 0.664777 -0.122666 0
M  V30 3541 H 331.658 1.79913 -0.990987 0
M  V30 3542 H 329.888 3.82556 0.56461 0
M  V30 3543 H 331.577 4.0534 0.213125 0
M  V30 3544 H 332.343 4.29187 -2.25883 0
M  V30 3545 H 328.222 4.48916 -1.04859 0
M  V30 3546 H 331.766 5.4398 -4.36728 0
M  V30 3547 H 327.663 5.63524 -3.14819 0
M  V30 3548 H 328.431 6.42842 -5.06652 0
M  V30 3549 N 331.094 0.475555 1.50254 0
M  V30 3550 C 332.371 -0.139685 1.95101 0
M  V30 3551 C 332.751 -1.56555 1.41611 0
M  V30 3552 O 332.099 -2.19956 0.618993 0
M  V30 3553 C 332.309 -0.0784298 3.48912 0
M  V30 3554 C 333.657 -0.265095 4.23772 0
M  V30 3555 O 334.681 -0.154808 3.55863 0
M  V30 3556 O 333.54 -0.488327 5.44314 0
M  V30 3557 H 330.634 -0.109236 0.819754 0
M  V30 3558 H 333.18 0.536276 1.61004 0
M  V30 3559 H 331.952 0.916918 3.80405 0
M  V30 3560 H 331.575 -0.795655 3.89558 0
M  V30 3561 N 332.573 -1.56217 0.208337 0
M  V30 3562 C 333.819 -1.98242 -0.427552 0
M  V30 3563 C 334.152 -1.09554 -1.60348 0
M  V30 3564 O 333.427 -0.15035 -1.93918 0
M  V30 3565 C 333.71 -3.4931 -0.874907 0
M  V30 3566 C 333.563 -4.48773 0.303751 0
M  V30 3567 C 334.882 -4.04424 -1.73577 0
M  V30 3568 H 332.001 -0.720744 -0.153936 0
M  V30 3569 H 334.643 -1.87586 0.30192 0
M  V30 3570 H 332.793 -3.58522 -1.49648 0
M  V30 3571 H 334.465 -4.51586 0.941682 0
M  V30 3572 H 332.708 -4.23194 0.953375 0
M  V30 3573 H 333.379 -5.51976 -0.0519883 0
M  V30 3574 H 335.855 -3.98075 -1.21143 0
M  V30 3575 H 334.731 -5.1047 -2.01771 0
M  V30 3576 H 334.992 -3.50494 -2.69456 0
M  V30 3577 N 334.051 0.0651679 -1.57465 0
M  V30 3578 C 335.297 0.764193 -1.87851 0
M  V30 3579 C 335.63 1.76889 -0.801495 0
M  V30 3580 O 334.905 1.93594 0.187528 0
M  V30 3581 C 335.188 1.46625 -3.28897 0
M  V30 3582 C 335.041 0.477515 -4.47258 0
M  V30 3583 C 336.36 2.4095 -3.68281 0
M  V30 3584 H 333.479 0.276351 -0.683227 0
M  V30 3585 H 336.121 0.0272868 -1.8998 0
M  V30 3586 H 334.271 2.09438 -3.27212 0
M  V30 3587 H 335.943 -0.145922 -4.61069 0
M  V30 3588 H 334.186 -0.206576 -4.33308 0
M  V30 3589 H 334.857 1.0065 -5.42746 0
M  V30 3590 H 337.333 1.88209 -3.71102 0
M  V30 3591 H 336.209 2.87072 -4.67847 0
M  V30 3592 H 336.47 3.26049 -2.98571 0
M  V30 3593 N 335.529 1.53961 0.336706 0
M  V30 3594 C 336.459 1.85417 1.41925 0
M  V30 3595 C 337.44 0.709856 1.5458 0
M  V30 3596 O 338.625 0.962396 1.68676 0
M  V30 3597 C 335.755 2.06985 2.78881 0
M  V30 3598 C 334.709 3.22813 2.81026 0
M  V30 3599 C 334.035 3.29727 4.20932 0
M  V30 3600 C 335.335 4.60767 2.45949 0
M  V30 3601 H 337.029 2.76079 1.15848 0
M  V30 3602 H 334.575 1.32839 0.555859 0
M  V30 3603 H 336.528 2.27575 3.54665 0
M  V30 3604 H 335.252 1.13061 3.06406 0
M  V30 3605 H 333.911 3.0209 2.07695 0
M  V30 3606 H 333.559 2.33385 4.45579 0
M  V30 3607 H 333.259 4.07566 4.23277 0
M  V30 3608 H 334.783 3.52536 4.98549 0
M  V30 3609 H 336.197 4.81325 3.11446 0
M  V30 3610 H 334.594 5.4106 2.59566 0
M  V30 3611 H 335.664 4.6391 1.41122 0
M  V30 3612 N 337.007 -0.598083 1.45811 0
M  V30 3613 C 338.232 -1.3881 1.54099 0
M  V30 3614 C 338.657 -1.8726 0.177578 0
M  V30 3615 O 338.015 -1.6069 -0.839541 0
M  V30 3616 C 338.063 -2.56217 2.53743 0
M  V30 3617 O 337.167 -3.5716 2.06182 0
M  V30 3618 H 336.508 -0.414024 0.519115 0
M  V30 3619 H 339.038 -0.726971 1.91249 0
M  V30 3620 H 339.048 -3.03337 2.72856 0
M  V30 3621 H 337.723 -2.20303 3.5276 0
M  V30 3622 H 336.3 -3.16624 1.96987 0
M  V30 3623 N 338.485 -1.33259 -0.841409 0
M  V30 3624 C 339.896 -1.22066 -1.41269 0
M  V30 3625 C 340.247 0.161479 -1.95534 0
M  V30 3626 O 339.372 1.06094 -1.88608 0
M  V30 3627 C 339.967 -2.20996 -2.568 0
M  V30 3628 C 338.526 -2.13649 -3.09888 0
M  V30 3629 C 337.673 -2.08623 -1.82679 0
M  V30 3630 H 340.624 -1.44895 -0.647395 0
M  V30 3631 H 340.645 -1.81621 -3.34356 0
M  V30 3632 H 340.157 -3.2158 -2.17274 0
M  V30 3633 H 338.258 -1.16359 -3.53965 0
M  V30 3634 H 338.371 -3.04079 -3.70234 0
M  V30 3635 H 336.735 -1.54061 -2.02824 0
M  V30 3636 H 337.518 -3.1101 -1.45353 0
M  V30 3637 N 339.963 1.05934 -1.16686 0
M  V30 3638 C 341.188 1.83029 -0.975455 0
M  V30 3639 C 341.613 1.82096 0.471452 0
M  V30 3640 O 340.971 1.22443 1.33706 0
M  V30 3641 C 341.019 3.27372 -1.51195 0
M  V30 3642 O 340.123 4.06054 -0.720701 0
M  V30 3643 H 339.464 0.566194 -0.346872 0
M  V30 3644 H 341.994 1.33541 -1.55009 0
M  V30 3645 H 342.004 3.78186 -1.53099 0
M  V30 3646 H 340.679 3.27366 -2.56523 0
M  V30 3647 H 339.256 3.64812 -0.772458 0
M  V30 3648 N 341.441 0.965919 1.2453 0
M  V30 3649 C 342.391 0.465731 2.23193 0
M  V30 3650 C 343.375 -0.451277 1.54442 0
M  V30 3651 O 344.567 -0.282489 1.74731 0
M  V30 3652 C 341.696 -0.244511 3.42428 0
M  V30 3653 C 340.782 0.691222 4.18429 0
M  V30 3654 N 341.173 1.82771 4.71623 0
M  V30 3655 C 339.471 0.501649 4.4317 0
M  V30 3656 C 340.172 2.41285 5.29298 0
M  V30 3657 N 339.148 1.69819 5.16394 0
M  V30 3658 H 342.95 1.33291 2.61937 0
M  V30 3659 H 340.464 0.824789 1.39896 0
M  V30 3660 H 342.461 -0.620056 4.12263 0
M  V30 3661 H 341.121 -1.10815 3.05205 0
M  V30 3662 H 342.132 2.20929 4.68413 0
M  V30 3663 H 338.809 -0.318177 4.16286 0
M  V30 3664 H 340.199 3.37181 5.8117 0
M  V30 3665 N 342.919 -1.39368 0.735821 0
M  V30 3666 C 344.167 -2.00101 0.283562 0
M  V30 3667 C 344.488 -1.5868 -1.13338 0
M  V30 3668 O 343.758 -0.835423 -1.77193 0
M  V30 3669 H 342.338 -0.740024 0.101851 0
M  V30 3670 H 345 -1.70404 0.945962 0
M  V30 3671 H 344.096 -3.10323 0.332604 0
M  V30 3672 N 344.397 -0.483516 -1.5 0
M  V30 3673 C 345.646 0.0689102 -2.01582 0
M  V30 3674 C 345.959 1.39655 -1.36952 0
M  V30 3675 O 347.165 2.03465 -1.79762 0
M  V30 3676 C 345.621 0.173302 -3.59483 0
M  V30 3677 C 345.229 -1.14665 -4.33077 0
M  V30 3678 C 346.973 0.677024 -4.19066 0
M  V30 3679 C 344.88 -1.00537 -5.82792 0
M  V30 3680 H 343.81 0.0295277 -0.753422 0
M  V30 3681 H 346.461 -0.620295 -1.72698 0
M  V30 3682 H 344.843 0.926569 -3.85007 0
M  V30 3683 H 346.017 -1.91184 -4.19268 0
M  V30 3684 H 344.332 -1.58244 -3.85159 0
M  V30 3685 H 346.929 0.799952 -5.28682 0
M  V30 3686 H 347.272 1.67151 -3.81269 0
M  V30 3687 H 347.805 -0.0192083 -3.97795 0
M  V30 3688 H 344.544 -1.9736 -6.25083 0
M  V30 3689 H 344.064 -0.280776 -5.99142 0
M  V30 3690 H 345.743 -0.677 -6.43448 0
M  V30 3691 N 345.875 1.56104 -0.216619 0
M  V30 3692 C 346.785 2.23694 0.706982 0
M  V30 3693 C 347.801 1.24295 1.21765 0
M  V30 3694 O 348.977 1.57094 1.2603 0
M  V30 3695 C 346.042 2.8998 1.90033 0
M  V30 3696 C 345.103 4.04708 1.43213 0
M  V30 3697 C 344.336 4.67824 2.56859 0
M  V30 3698 O 344.559 4.29913 3.74874 0
M  V30 3699 O 343.493 5.56905 2.28343 0
M  V30 3700 H 347.319 3.03272 0.161235 0
M  V30 3701 H 344.904 1.49394 0.0136177 0
M  V30 3702 H 346.786 3.31837 2.59735 0
M  V30 3703 H 345.461 2.13365 2.43428 0
M  V30 3704 H 344.368 3.6743 0.70327 0
M  V30 3705 H 345.701 4.83051 0.944615 0
M  V30 3706 N 347.353 -0.0568162 1.57498 0
M  V30 3707 C 348.283 -1.06593 2.0775 0
M  V30 3708 C 349.264 -1.39448 0.974082 0
M  V30 3709 O 350.449 -1.48815 1.24771 0
M  V30 3710 C 347.579 -2.37509 2.5339 0
M  V30 3711 C 346.533 -2.1897 3.67745 0
M  V30 3712 C 345.859 -3.55402 3.99492 0
M  V30 3713 C 347.159 -1.59859 4.97235 0
M  V30 3714 H 348.853 -0.647706 2.9231 0
M  V30 3715 H 346.399 -0.310116 1.40621 0
M  V30 3716 H 348.352 -3.08409 2.87162 0
M  V30 3717 H 347.076 -2.8134 1.65878 0
M  V30 3718 H 345.735 -1.50508 3.3428 0
M  V30 3719 H 345.383 -3.9683 3.09088 0
M  V30 3720 H 345.083 -3.43831 4.76502 0
M  V30 3721 H 346.607 -4.27708 4.35773 0
M  V30 3722 H 348.021 -2.20642 5.29141 0
M  V30 3723 H 346.418 -1.58942 5.78669 0
M  V30 3724 H 347.488 -0.561506 4.81638 0
M  V30 3725 N 348.832 -1.54138 -0.328536 0
M  V30 3726 C 350.057 -1.76378 -1.09112 0
M  V30 3727 C 350.482 -0.508596 -1.81094 0
M  V30 3728 O 349.84 0.539598 -1.73084 0
M  V30 3729 C 349.888 -2.95358 -2.06872 0
M  V30 3730 O 348.992 -2.66556 -3.14677 0
M  V30 3731 H 348.333 -0.584614 -0.314838 0
M  V30 3732 H 350.863 -2.01146 -0.374348 0
M  V30 3733 H 350.873 -3.22566 -2.4983 0
M  V30 3734 H 349.548 -3.86385 -1.5388 0
M  V30 3735 H 348.125 -2.50282 -2.7643 0
M  V30 3736 N 350.31 0.590341 -1.46126 0
M  V30 3737 C 351.556 1.35082 -1.51264 0
M  V30 3738 C 351.889 1.93534 -0.160711 0
M  V30 3739 O 351.164 1.76045 0.826956 0
M  V30 3740 C 351.447 2.48588 -2.6053 0
M  V30 3741 C 351.3 1.95221 -4.05227 0
M  V30 3742 C 352.619 3.50662 -2.6594 0
M  V30 3743 H 349.738 0.489803 -0.550692 0
M  V30 3744 H 352.38 0.663887 -1.78024 0
M  V30 3745 H 350.53 3.07186 -2.37843 0
M  V30 3746 H 352.202 1.41139 -4.39178 0
M  V30 3747 H 350.445 1.26101 -4.15068 0
M  V30 3748 H 351.116 2.77121 -4.77397 0
M  V30 3749 H 353.592 3.01934 -2.86313 0
M  V30 3750 H 352.468 4.27551 -3.44226 0
M  V30 3751 H 352.729 4.07399 -1.71694 0
M  V30 3752 N 351.788 1.33704 0.83433 0
M  V30 3753 C 353.036 1.25169 1.58673 0
M  V30 3754 C 353.357 -0.18127 1.94156 0
M  V30 3755 O 352.627 -1.11113 1.6134 0
M  V30 3756 H 351.207 0.4603 0.58833 0
M  V30 3757 H 353.869 1.67478 0.996847 0
M  V30 3758 H 352.965 1.84856 2.51465 0
M  V30 3759 N 353.266 -1.05314 1.17247 0
M  V30 3760 C 354.176 -2.16538 0.90268 0
M  V30 3761 C 355.192 -1.73523 -0.128707 0
M  V30 3762 O 356.368 -2.01337 0.0502701 0
M  V30 3763 C 353.433 -3.44167 0.418356 0
M  V30 3764 C 352.494 -4.01635 1.51618 0
M  V30 3765 C 351.727 -5.23171 1.05487 0
M  V30 3766 O 351.95 -5.70327 -0.0914715 0
M  V30 3767 O 350.884 -5.72848 1.8474 0
M  V30 3768 H 354.71 -2.42145 1.83302 0
M  V30 3769 H 352.295 -1.15037 0.953246 0
M  V30 3770 H 354.177 -4.21112 0.155726 0
M  V30 3771 H 352.852 -3.20063 -0.48385 0
M  V30 3772 H 351.759 -3.26135 1.83268 0
M  V30 3773 H 353.092 -4.30053 2.39405 0
M  V30 3774 N 354.744 -0.972509 -1.24016 0
M  V30 3775 C 355.691 -0.505969 -2.25186 0
M  V30 3776 C 356.661 0.451009 -1.5986 0
M  V30 3777 O 357.846 0.360307 -1.87367 0
M  V30 3778 C 354.986 0.193089 -3.44559 0
M  V30 3779 C 354.099 -0.803222 -4.24467 0
M  V30 3780 C 353.234 -0.0797793 -5.3114 0
M  V30 3781 C 352.273 -1.06583 -6.02749 0
M  V30 3782 N 351.41 -0.372074 -7.01113 0
M  V30 3783 H 356.25 -1.37351 -2.64459 0
M  V30 3784 H 353.787 -0.688419 -1.29997 0
M  V30 3785 H 355.745 0.615125 -4.1264 0
M  V30 3786 H 354.375 1.02455 -3.06109 0
M  V30 3787 H 353.427 -1.34368 -3.55878 0
M  V30 3788 H 354.739 -1.55494 -4.73944 0
M  V30 3789 H 353.893 0.400015 -6.0538 0
M  V30 3790 H 352.632 0.704597 -4.82583 0
M  V30 3791 H 351.637 -1.55645 -5.27309 0
M  V30 3792 H 352.862 -1.85074 -6.53395 0
M  V30 3793 H 350.808 0.393238 -6.5482 0
M  V30 3794 H 350.725 -1.06258 -7.48495 0
M  V30 3795 H 351.993 0.0855932 -7.79453 0
M  V30 3796 N 356.222 1.38976 -0.743202 0
M  V30 3797 C 357.152 2.33171 -0.123873 0
M  V30 3798 C 358.133 1.54336 0.71516 0
M  V30 3799 O 359.318 1.82696 0.658467 0
M  V30 3800 C 356.448 3.38474 0.777978 0
M  V30 3801 C 355.402 4.27979 0.0424758 0
M  V30 3802 C 354.728 5.2405 1.06189 0
M  V30 3803 C 356.028 5.10155 -1.1198 0
M  V30 3804 H 357.722 2.85213 -0.910709 0
M  V30 3805 H 355.268 1.37133 -0.439388 0
M  V30 3806 H 357.221 4.03328 1.22084 0
M  V30 3807 H 355.945 2.84891 1.59702 0
M  V30 3808 H 354.604 3.64616 -0.380853 0
M  V30 3809 H 354.252 4.66758 1.87472 0
M  V30 3810 H 353.952 5.84785 0.574485 0
M  V30 3811 H 355.476 5.9178 1.50428 0
M  V30 3812 H 356.89 5.68307 -0.75499 0
M  V30 3813 H 355.287 5.80073 -1.53738 0
M  V30 3814 H 356.357 4.44504 -1.93764 0
M  V30 3815 N 357.7 0.491464 1.49741 0
M  V30 3816 C 358.946 -0.0565092 2.02721 0
M  V30 3817 C 359.279 -1.37522 1.37118 0
M  V30 3818 O 358.554 -1.87866 0.503645 0
M  V30 3819 C 358.837 -0.219051 3.59433 0
M  V30 3820 C 358.69 1.12211 4.35579 0
M  V30 3821 C 360.009 -0.964157 4.29409 0
M  V30 3822 H 357.128 -0.0190627 0.736753 0
M  V30 3823 H 359.77 0.641021 1.7886 0
M  V30 3824 H 357.92 -0.813165 3.79895 0
M  V30 3825 H 359.592 1.75437 4.26637 0
M  V30 3826 H 357.835 1.71377 3.98513 0
M  V30 3827 H 358.506 0.961794 5.43556 0
M  V30 3828 H 360.982 -0.460378 4.13545 0
M  V30 3829 H 359.858 -1.04671 5.38828 0
M  V30 3830 H 360.119 -2.00563 3.93988 0
M  V30 3831 N 359.178 -1.55987 0.224894 0
M  V30 3832 C 360.108 -2.23426 -0.678457 0
M  V30 3833 C 361.089 -1.20709 -1.19847 0
M  V30 3834 O 362.274 -1.49304 -1.24186 0
M  V30 3835 C 359.404 -2.91676 -1.88527 0
M  V30 3836 C 358.358 -4.00893 -1.49896 0
M  V30 3837 C 357.684 -4.56455 -2.78483 0
M  V30 3838 C 358.984 -5.17769 -0.686461 0
M  V30 3839 H 360.678 -2.99175 -0.116173 0
M  V30 3840 H 358.224 -1.43897 -0.054436 0
M  V30 3841 H 360.177 -3.37547 -2.5227 0
M  V30 3842 H 358.901 -2.1338 -2.47258 0
M  V30 3843 H 357.56 -3.55758 -0.884985 0
M  V30 3844 H 357.208 -3.74886 -3.35365 0
M  V30 3845 H 356.908 -5.30169 -2.53368 0
M  V30 3846 H 358.432 -5.05047 -3.43162 0
M  V30 3847 H 359.846 -5.60001 -1.22767 0
M  V30 3848 H 358.243 -5.97735 -0.532259 0
M  V30 3849 H 359.313 -4.83932 0.306196 0
M  V30 3850 N 360.656 0.0484629 -1.57525 0
M  V30 3851 C 361.604 1.07359 -2.06341 0
M  V30 3852 C 362.598 1.3865 -0.973269 0
M  V30 3853 O 363.804 1.37783 -1.15827 0
M  V30 3854 H 360.179 0.363662 -0.65822 0
M  V30 3855 H 362.15 0.635916 -2.91545 0
M  V30 3856 C 360.899 2.37198 -2.54229 0
M  V30 3857 H 360.222 2.13977 -3.37719 0
M  V30 3858 H 361.662 3.07319 -2.92115 0
M  V30 3859 C 360.121 3.04805 -1.43511 0
M  V30 3860 O 360.651 3.93848 -0.79034 0
M  V30 3861 N 358.857 2.65811 -1.17444 0
M  V30 3862 H 358.404 1.93488 -1.70059 0
M  V30 3863 H 358.362 3.11366 -0.435737 0
M  V30 3864 N 362.134 1.5431 0.320358 0
M  V30 3865 C 363.374 1.74395 1.0661 0
M  V30 3866 C 363.738 0.508602 1.85141 0
M  V30 3867 O 364.939 0.586856 2.62316 0
M  V30 3868 C 363.21 2.98619 1.96371 0
M  V30 3869 S 364.769 3.39621 2.77854 0
M  V30 3870 H 361.587 0.613204 0.359863 0
M  V30 3871 H 364.189 1.9249 0.341727 0
M  V30 3872 H 362.893 3.86673 1.3752 0
M  V30 3873 H 362.424 2.83055 2.73209 0
M  V30 3874 H 364.439 2.95172 3.98858 0
M  V30 3875 N 363.613 -0.582584 1.46437 0
M  V30 3876 C 364.841 -1.36682 1.55324 0
M  V30 3877 C 365.256 -1.87796 0.194409 0
M  V30 3878 O 364.613 -1.63623 -0.808318 0
M  V30 3879 C 364.664 -2.55426 2.55812 0
M  V30 3880 O 364.385 -2.0643 3.86417 0
M  V30 3881 C 365.886 -3.47976 2.74641 0
M  V30 3882 H 363.106 -0.417545 0.525259 0
M  V30 3883 H 365.65 -0.708219 1.91845 0
M  V30 3884 H 363.805 -3.17275 2.22295 0
M  V30 3885 H 364.219 -2.83762 4.41111 0
M  V30 3886 H 365.693 -4.27775 3.48874 0
M  V30 3887 H 366.17 -3.99919 1.81553 0
M  V30 3888 H 366.776 -2.91962 3.09255 0
M  V30 3889 N 365.091 -1.34144 -0.827227 0
M  V30 3890 C 366.054 -1.25264 -1.91942 0
M  V30 3891 C 367.054 -0.168866 -1.59911 0
M  V30 3892 O 368.244 -0.421198 -1.69031 0
M  V30 3893 C 365.376 -0.932952 -3.27885 0
M  V30 3894 H 366.569 -2.22357 -2.0124 0
M  V30 3895 H 364.122 -1.1837 -1.0207 0
M  V30 3896 H 364.857 0.0349917 -3.24281 0
M  V30 3897 H 364.642 -1.71682 -3.52516 0
M  V30 3898 H 366.132 -0.895874 -4.07877 0
M  V30 3899 N 366.569 1.04691 -1.17803 0
M  V30 3900 C 367.985 1.29963 -0.926379 0
M  V30 3901 C 368.185 1.97251 0.411635 0
M  V30 3902 O 367.241 2.24922 1.14744 0
M  V30 3903 C 368.554 2.16447 -2.08737 0
M  V30 3904 C 370.102 2.29814 -2.12496 0
M  V30 3905 C 370.577 3.19661 -3.27995 0
M  V30 3906 N 372.068 3.27247 -3.27816 0
M  V30 3907 C 372.803 3.96906 -4.13827 0
M  V30 3908 N 372.299 4.6895 -5.09959 0
M  V30 3909 N 374.092 3.93122 -4.01761 0
M  V30 3910 H 366.243 0.594182 -2.0392 0
M  V30 3911 H 368.506 0.324649 -0.890678 0
M  V30 3912 H 368.212 1.74304 -3.05469 0
M  V30 3913 H 368.086 3.17103 -2.04268 0
M  V30 3914 H 370.473 2.71196 -1.16347 0
M  V30 3915 H 370.554 1.2877 -2.21025 0
M  V30 3916 H 370.198 2.78991 -4.24413 0
M  V30 3917 H 370.128 4.20722 -3.16703 0
M  V30 3918 H 372.619 2.75921 -2.58217 0
M  V30 3919 H 372.932 5.19679 -5.71974 0
M  V30 3920 H 371.277 4.67875 -5.13924 0
M  V30 3921 H 374.468 3.35967 -3.2595 0
M  V30 3922 H 374.641 4.47139 -4.6901 0
M  V30 3923 N 368.047 0.979072 1.23499 0
M  V30 3924 C 369.275 0.665202 1.95915 0
M  V30 3925 C 369.69 -0.767571 1.72493 0
M  V30 3926 O 369.047 -1.51635 1.01554 0
M  V30 3927 C 369.098 0.944438 3.48945 0
M  V30 3928 O 368.819 2.3209 3.71572 0
M  V30 3929 C 370.32 0.646336 4.38563 0
M  V30 3930 H 367.54 0.247218 0.623798 0
M  V30 3931 H 370.084 1.31009 1.57025 0
M  V30 3932 H 368.239 0.345575 3.85856 0
M  V30 3933 H 368.653 2.40957 4.65876 0
M  V30 3934 H 370.127 0.892091 5.44744 0
M  V30 3935 H 370.604 -0.419575 4.37191 0
M  V30 3936 H 371.21 1.22562 4.07258 0
M  V30 3937 N 369.525 -1.3858 0.750561 0
M  V30 3938 C 370.435 -2.34278 0.122825 0
M  V30 3939 C 371.451 -1.59116 -0.704131 0
M  V30 3940 O 372.627 -1.91326 -0.628987 0
M  V30 3941 C 369.692 -3.38221 -0.762086 0
M  V30 3942 C 368.753 -4.29227 0.078896 0
M  V30 3943 C 367.986 -5.28205 -0.763874 0
M  V30 3944 O 368.209 -5.34112 -2.00201 0
M  V30 3945 O 367.143 -6.01618 -0.18428 0
M  V30 3946 H 370.969 -2.89649 0.913088 0
M  V30 3947 H 368.554 -1.40374 0.511417 0
M  V30 3948 H 370.436 -4.01872 -1.26793 0
M  V30 3949 H 369.111 -2.85211 -1.5309 0
M  V30 3950 H 368.018 -3.68747 0.630621 0
M  V30 3951 H 369.351 -4.85484 0.810289 0
M  V30 3952 N 371.003 -0.499398 -1.49478 0
M  V30 3953 C 371.933 0.269244 -2.31943 0
M  V30 3954 C 372.914 0.964054 -1.40143 0
M  V30 3955 O 374.099 0.955767 -1.69052 0
M  V30 3956 C 371.229 1.33504 -3.20615 0
M  V30 3957 C 370.183 0.760202 -4.21195 0
M  V30 3958 C 369.509 1.9264 -4.98792 0
M  V30 3959 C 370.809 -0.247661 -5.21712 0
M  V30 3960 H 372.503 -0.419082 -2.96452 0
M  V30 3961 H 370.049 -0.202988 -1.42562 0
M  V30 3962 H 372.002 1.88048 -3.77115 0
M  V30 3963 H 370.726 2.05253 -2.54045 0
M  V30 3964 H 369.385 0.23653 -3.65836 0
M  V30 3965 H 369.033 2.63154 -4.28671 0
M  V30 3966 H 368.733 1.54785 -5.66847 0
M  V30 3967 H 370.257 2.4762 -5.58137 0
M  V30 3968 H 371.671 0.209579 -5.72917 0
M  V30 3969 H 370.068 -0.541962 -5.97648 0
M  V30 3970 H 371.138 -1.16409 -4.7072 0
M  V30 3971 N 372.481 1.55866 -0.233164 0
M  V30 3972 C 373.429 2.22176 0.68851 0
M  V30 3973 C 374.423 1.20487 1.19076 0
M  V30 3974 O 375.629 1.38536 1.14925 0
M  V30 3975 H 372.004 0.712511 0.240483 0
M  V30 3976 H 373.975 2.98212 0.105935 0
M  V30 3977 C 372.724 2.92446 1.88071 0
M  V30 3978 H 372.047 3.70458 1.50337 0
M  V30 3979 H 373.487 3.42226 2.50314 0
M  V30 3980 C 371.946 1.95555 2.74335 0
M  V30 3981 O 372.476 1.47986 3.73447 0
M  V30 3982 N 370.682 1.62953 2.40613 0
M  V30 3983 H 370.229 2.01831 1.60069 0
M  V30 3984 H 370.187 0.983886 2.98609 0
M  V30 3985 N 373.959 -0.0401083 1.57549 0
M  V30 3986 C 375.205 -0.734211 1.89043 0
M  V30 3987 C 375.538 -1.75591 0.829535 0
M  V30 3988 O 374.813 -1.93868 -0.156706 0
M  V30 3989 C 375.096 -1.41374 3.31188 0
M  V30 3990 C 374.949 -0.406299 4.47961 0
M  V30 3991 C 376.268 -2.35061 3.72068 0
M  V30 3992 H 373.387 -0.265447 0.687537 0
M  V30 3993 H 376.029 0.00294087 1.9 0
M  V30 3994 H 374.179 -2.04206 3.30503 0
M  V30 3995 H 375.851 0.219255 4.60779 0
M  V30 3996 H 374.094 0.275485 4.32924 0
M  V30 3997 H 374.765 -0.920022 5.44279 0
M  V30 3998 H 377.241 -1.82282 3.74049 0
M  V30 3999 H 376.117 -2.79593 4.72355 0
M  V30 4000 H 376.378 -3.21258 3.0372 0
M  V30 4001 N 375.437 -1.54477 -0.31217 0
M  V30 4002 C 376.685 -1.72884 -1.04668 0
M  V30 4003 C 377.006 -0.511477 -1.88173 0
M  V30 4004 O 376.276 0.474407 -1.90069 0
M  V30 4005 H 374.856 -0.637461 -0.389425 0
M  V30 4006 H 377.518 -1.91807 -0.345852 0
M  V30 4007 H 376.614 -2.61334 -1.70619 0
M  V30 4008 N 376.915 0.57481 -1.46744 0
M  V30 4009 C 378.164 1.32898 -1.51727 0
M  V30 4010 C 378.477 1.948 -0.176692 0
M  V30 4011 O 379.683 2.71299 -0.104385 0
M  V30 4012 C 378.139 2.40901 -2.67385 0
M  V30 4013 C 377.747 1.85266 -4.07898 0
M  V30 4014 C 379.491 3.17609 -2.81646 0
M  V30 4015 C 377.398 2.90945 -5.14883 0
M  V30 4016 H 376.328 0.499631 -0.564699 0
M  V30 4017 H 378.979 0.612536 -1.72975 0
M  V30 4018 H 377.361 3.15379 -2.39483 0
M  V30 4019 H 378.535 1.17278 -4.45626 0
M  V30 4020 H 376.85 1.21199 -3.98371 0
M  V30 4021 H 379.447 3.96493 -3.58744 0
M  V30 4022 H 379.79 3.70696 -1.89448 0
M  V30 4023 H 380.323 2.50239 -3.09233 0
M  V30 4024 H 377.062 2.42736 -6.089 0
M  V30 4025 H 376.582 3.57398 -4.81691 0
M  V30 4026 H 378.261 3.54755 -5.41071 0
M  V30 4027 N 378.394 1.34581 0.820102 0
M  V30 4028 C 379.671 1.17675 1.56244 0
M  V30 4029 C 380.051 -0.249541 2.0962 0
M  V30 4030 O 379.399 -1.25125 1.91196 0
M  V30 4031 C 379.609 2.23364 2.6816 0
M  V30 4032 C 380.957 2.58485 3.36854 0
M  V30 4033 O 381.981 2.22175 2.78418 0
M  V30 4034 O 380.84 3.20868 4.42386 0
M  V30 4035 H 377.934 0.456333 0.689702 0
M  V30 4036 H 380.48 1.46222 0.861231 0
M  V30 4037 H 379.252 3.19087 2.26493 0
M  V30 4038 H 378.875 1.96009 3.45928 0
M  V30 4039 N 379.872 -1.04064 1.18357 0
M  V30 4040 C 381.119 -1.77265 0.978947 0
M  V30 4041 C 381.447 -1.88189 -0.491428 0
M  V30 4042 O 380.702 -1.38653 -1.38108 0
M  V30 4043 C 381.001 -3.20634 1.57888 0
M  V30 4044 C 380.667 -3.29743 3.07539 0
M  V30 4045 C 379.329 -3.31937 3.48384 0
M  V30 4046 C 381.681 -3.29841 4.03552 0
M  V30 4047 C 379.009 -3.3187 4.83818 0
M  V30 4048 C 381.361 -3.31313 5.38901 0
M  V30 4049 C 380.025 -3.31799 5.79194 0
M  V30 4050 H 379.295 -0.648659 0.358222 0
M  V30 4051 H 381.942 -1.22225 1.47422 0
M  V30 4052 H 380.247 -3.78675 1.00561 0
M  V30 4053 H 381.944 -3.75917 1.39598 0
M  V30 4054 H 378.534 -3.28757 2.74986 0
M  V30 4055 H 382.718 -3.27337 3.73047 0
M  V30 4056 H 377.974 -3.30562 5.14333 0
M  V30 4057 H 382.148 -3.30338 6.13066 0
M  V30 4058 H 379.775 -3.315 6.84114 0
M  V30 4059 N 381.35 -0.985608 -1.22978 0
M  V30 4060 C 382.298 -0.522631 -2.26652 0
M  V30 4061 C 383.292 0.422998 -1.64034 0
M  V30 4062 O 384.498 0.296319 -1.77544 0
M  V30 4063 H 380.873 -0.150597 -0.736766 0
M  V30 4064 H 382.844 -1.40863 -2.63059 0
M  V30 4065 C 381.593 0.154238 -3.47358 0
M  V30 4066 H 380.916 -0.564329 -3.95797 0
M  V30 4067 H 382.356 0.441744 -4.21693 0
M  V30 4068 C 380.815 1.38719 -3.07016 0
M  V30 4069 O 381.345 2.48307 -3.15764 0
M  V30 4070 N 379.551 1.25975 -2.61875 0
M  V30 4071 H 379.098 0.368068 -2.54957 0
M  V30 4072 H 379.056 2.08578 -2.3525 0
M  V30 4073 N 382.828 1.3818 -0.7579 0
M  V30 4074 C 384.074 2.0078 -0.325423 0
M  V30 4075 C 384.429 1.59085 1.08211 0
M  V30 4076 O 383.722 0.820394 1.73148 0
M  V30 4077 C 383.916 3.55252 -0.391218 0
M  V30 4078 C 383.745 4.11947 -1.8036 0
M  V30 4079 C 382.515 4.43519 -2.42113 0
M  V30 4080 C 384.713 4.33908 -2.76095 0
M  V30 4081 N 382.695 4.85847 -3.75267 0
M  V30 4082 C 384.066 4.78692 -3.94023 0
M  V30 4083 C 386.121 4.16015 -2.73561 0
M  V30 4084 C 384.824 5.07459 -5.09782 0
M  V30 4085 C 386.85 4.45909 -3.88483 0
M  V30 4086 C 386.212 4.90921 -5.0515 0
M  V30 4087 H 382.311 0.764215 -0.165831 0
M  V30 4088 H 384.895 1.67724 -0.988776 0
M  V30 4089 H 383.066 3.87646 0.241886 0
M  V30 4090 H 384.798 4.04653 0.061989 0
M  V30 4091 H 381.553 4.32113 -1.93842 0
M  V30 4092 H 381.977 5.11339 -4.4369 0
M  V30 4093 H 386.619 3.80399 -1.84544 0
M  V30 4094 H 384.337 5.4197 -5.99412 0
M  V30 4095 H 387.923 4.33666 -3.87847 0
M  V30 4096 H 386.803 5.1361 -5.92599 0
M  V30 4097 N 384.306 0.507319 1.49211 0
M  V30 4098 C 385.216 -0.272136 2.33016 0
M  V30 4099 C 386.232 -0.961206 1.45041 0
M  V30 4100 O 387.408 -0.941191 1.78055 0
M  V30 4101 C 384.473 -1.31895 3.20631 0
M  V30 4102 C 383.534 -0.642648 4.24463 0
M  V30 4103 C 382.767 -1.63959 5.07891 0
M  V30 4104 O 382.99 -2.87007 4.92933 0
M  V30 4105 O 381.924 -1.19143 5.8999 0
M  V30 4106 H 385.75 0.413982 3.00865 0
M  V30 4107 H 383.335 0.268556 1.46966 0
M  V30 4108 H 385.217 -1.92446 3.7489 0
M  V30 4109 H 383.892 -1.98788 2.5547 0
M  V30 4110 H 382.799 0.00276252 3.741 0
M  V30 4111 H 384.132 -0.0160534 4.92197 0
M  V30 4112 N 385.784 -1.5574 0.241426 0
M  V30 4113 C 387.014 -2.02913 -0.38857 0
M  V30 4114 C 387.422 -1.12014 -1.52478 0
M  V30 4115 O 386.765 -0.125903 -1.83268 0
M  V30 4116 C 386.827 -3.4636 -0.963075 0
M  V30 4117 C 386.491 -4.56982 0.0401916 0
M  V30 4118 C 387.488 -5.12941 0.847766 0
M  V30 4119 C 385.173 -5.0203 0.164699 0
M  V30 4120 C 387.167 -6.12437 1.76636 0
M  V30 4121 C 384.854 -6.01358 1.0868 0
M  V30 4122 C 385.852 -6.5644 1.88616 0
M  V30 4123 O 385.54 -7.53831 2.79273 0
M  V30 4124 H 385.272 -0.668983 -0.0971452 0
M  V30 4125 H 387.826 -2.02198 0.361248 0
M  V30 4126 H 386.056 -3.44206 -1.76235 0
M  V30 4127 H 387.745 -3.77065 -1.50257 0
M  V30 4128 H 388.511 -4.78974 0.762133 0
M  V30 4129 H 384.39 -4.58824 -0.447411 0
M  V30 4130 H 387.934 -6.55355 2.39071 0
M  V30 4131 H 383.831 -6.34746 1.17338 0
M  V30 4132 H 384.599 -7.71428 2.73572 0
M  V30 4133 N 387.262 0.0317525 -1.57568 0
M  V30 4134 C 388.673 0.578692 -1.77505 0
M  V30 4135 C 389.024 1.75749 -0.872164 0
M  V30 4136 O 388.149 2.16298 -0.0663106 0
M  V30 4137 C 388.744 1.05658 -3.21904 0
M  V30 4138 C 387.303 1.54906 -3.43047 0
M  V30 4139 C 386.45 0.485939 -2.73009 0
M  V30 4140 H 389.401 -0.194475 -1.57504 0
M  V30 4141 H 389.422 1.92404 -3.28269 0
M  V30 4142 H 388.934 0.198422 -3.87592 0
M  V30 4143 H 387.035 2.42915 -2.82529 0
M  V30 4144 H 387.148 1.59841 -4.5165 0
M  V30 4145 H 385.512 0.940354 -2.36705 0
M  V30 4146 H 386.295 -0.362709 -3.41379 0
M  V30 4147 N 388.74 1.54641 0.303973 0
M  V30 4148 C 389.965 1.78092 1.06292 0
M  V30 4149 C 390.39 0.537342 1.80262 0
M  V30 4150 O 389.748 -0.511993 1.7392 0
M  V30 4151 C 389.796 2.98612 2.02147 0
M  V30 4152 O 388.9 2.71528 3.10397 0
M  V30 4153 H 388.241 0.589548 0.305497 0
M  V30 4154 H 390.771 2.01716 0.3423 0
M  V30 4155 H 390.781 3.265 2.44667 0
M  V30 4156 H 389.456 3.88785 1.47714 0
M  V30 4157 H 388.033 2.54648 2.72413 0
M  V30 4158 N 390.218 -0.567019 1.47046 0
M  V30 4159 C 391.443 -1.3551 1.57009 0
M  V30 4160 C 391.868 -1.86841 0.217259 0
M  V30 4161 O 391.226 -1.62435 -0.805268 0
M  V30 4162 C 391.274 -2.50777 2.5912 0
M  V30 4163 O 390.378 -3.52706 2.13711 0
M  V30 4164 H 389.719 -0.402919 0.52778 0
M  V30 4165 H 392.249 -0.686241 1.92748 0
M  V30 4166 H 392.259 -2.97481 2.79229 0
M  V30 4167 H 390.934 -2.12771 3.57353 0
M  V30 4168 H 389.511 -3.12374 2.03659 0
M  V30 4169 N 391.696 -1.35014 -0.812953 0
M  V30 4170 C 392.643 -1.27412 -1.92444 0
M  V30 4171 C 393.613 -0.14733 -1.65445 0
M  V30 4172 O 394.798 -0.329974 -1.87925 0
M  V30 4173 C 391.938 -1.04558 -3.28879 0
M  V30 4174 C 391.051 -2.26101 -3.68106 0
M  V30 4175 C 390.186 -1.96449 -4.9354 0
M  V30 4176 C 389.225 -3.14081 -5.25376 0
M  V30 4177 N 388.362 -2.84246 -6.41988 0
M  V30 4178 H 393.202 -2.22463 -1.98278 0
M  V30 4179 H 390.739 -1.10593 -0.969933 0
M  V30 4180 H 392.697 -0.893413 -4.07522 0
M  V30 4181 H 391.327 -0.131719 -3.22531 0
M  V30 4182 H 390.379 -2.52204 -2.84775 0
M  V30 4183 H 391.691 -3.13959 -3.87597 0
M  V30 4184 H 390.845 -1.78026 -5.79993 0
M  V30 4185 H 389.584 -1.05867 -4.76071 0
M  V30 4186 H 388.589 -3.33089 -4.37415 0
M  V30 4187 H 389.814 -4.05455 -5.44778 0
M  V30 4188 H 387.76 -1.96252 -6.25956 0
M  V30 4189 H 387.677 -3.65637 -6.61699 0
M  V30 4190 H 388.945 -2.6935 -7.31485 0
M  V30 4191 N 393.175 1.03435 -1.18907 0
M  V30 4192 C 394.125 2.09924 -0.889706 0
M  V30 4193 C 395.109 1.60261 0.143216 0
M  V30 4194 O 396.301 1.76892 -0.0617122 0
M  V30 4195 C 393.43 3.40669 -0.424168 0
M  V30 4196 C 392.516 3.97082 -1.48952 0
M  V30 4197 N 392.907 4.27227 -2.70759 0
M  V30 4198 C 391.205 4.25029 -1.35152 0
M  V30 4199 C 391.906 4.7246 -3.39347 0
M  V30 4200 N 390.882 4.7366 -2.66735 0
M  V30 4201 H 394.684 2.31116 -1.81555 0
M  V30 4202 H 392.198 1.21246 -1.08042 0
M  V30 4203 H 394.195 4.16461 -0.191176 0
M  V30 4204 H 392.855 3.20901 0.495263 0
M  V30 4205 H 393.866 4.16678 -3.0757 0
M  V30 4206 H 390.543 4.14554 -0.495126 0
M  V30 4207 H 391.933 5.04751 -4.43481 0
M  V30 4208 N 394.653 0.992116 1.22453 0
M  V30 4209 C 395.585 0.500024 2.23679 0
M  V30 4210 C 396.598 -0.404463 1.57696 0
M  V30 4211 O 397.787 -0.206722 1.77299 0
M  V30 4212 C 394.887 -0.294711 3.37616 0
M  V30 4213 C 394.06 0.605723 4.33186 0
M  V30 4214 C 393.119 -0.13717 5.26021 0
M  V30 4215 O 392.145 0.477164 5.67196 0
M  V30 4216 N 393.347 -1.4197 5.62872 0
M  V30 4217 H 396.112 1.37045 2.66531 0
M  V30 4218 H 393.673 0.866741 1.36745 0
M  V30 4219 H 395.665 -0.800329 3.96707 0
M  V30 4220 H 394.235 -1.06623 2.93854 0
M  V30 4221 H 393.455 1.29202 3.72425 0
M  V30 4222 H 394.743 1.21896 4.93983 0
M  V30 4223 H 394.141 -1.94015 5.31389 0
M  V30 4224 H 392.698 -1.87052 6.24383 0
M  V30 4225 N 396.131 -1.37776 0.765217 0
M  V30 4226 C 397.081 -2.2768 0.12075 0
M  V30 4227 C 398.065 -1.45778 -0.680988 0
M  V30 4228 O 399.257 -1.684 -0.545033 0
M  V30 4229 C 396.386 -3.34722 -0.762626 0
M  V30 4230 C 395.472 -4.24074 0.0465881 0
M  V30 4231 N 395.863 -4.93939 1.08892 0
M  V30 4232 C 394.161 -4.45643 -0.178418 0
M  V30 4233 C 394.862 -5.59845 1.57951 0
M  V30 4234 N 393.838 -5.36218 0.892797 0
M  V30 4235 H 397.64 -2.79166 0.918889 0
M  V30 4236 H 395.154 -1.50816 0.602353 0
M  V30 4237 H 397.151 -3.98031 -1.24005 0
M  V30 4238 H 395.811 -2.84793 -1.55959 0
M  V30 4239 H 396.822 -4.96572 1.47095 0
M  V30 4240 H 393.499 -4.06599 -0.9478 0
M  V30 4241 H 394.889 -6.25703 2.44838 0
M  V30 4242 N 397.609 -0.515225 -1.4894 0
M  V30 4243 C 398.556 0.255567 -2.29381 0
M  V30 4244 C 399.526 0.947387 -1.36432 0
M  V30 4245 O 400.711 0.951288 -1.65394 0
M  V30 4246 C 397.851 1.30551 -3.19453 0
M  V30 4247 C 396.964 0.624029 -4.27469 0
M  V30 4248 C 396.099 1.65563 -5.0474 0
M  V30 4249 C 395.138 0.956802 -6.04576 0
M  V30 4250 N 394.275 1.93326 -6.74959 0
M  V30 4251 H 399.115 -0.436607 -2.94784 0
M  V30 4252 H 396.652 -0.227154 -1.45336 0
M  V30 4253 H 398.61 1.92639 -3.70062 0
M  V30 4254 H 397.24 1.96626 -2.56004 0
M  V30 4255 H 396.292 -0.110459 -3.8024 0
M  V30 4256 H 397.604 0.0746092 -4.98744 0
M  V30 4257 H 396.758 2.35119 -5.59289 0
M  V30 4258 H 395.497 2.23893 -4.3327 0
M  V30 4259 H 394.502 0.247097 -5.49244 0
M  V30 4260 H 395.727 0.379814 -6.78037 0
M  V30 4261 H 393.673 2.50591 -6.06251 0
M  V30 4262 H 393.59 1.43489 -7.42258 0
M  V30 4263 H 394.858 2.62126 -7.34105 0
M  V30 4264 N 399.087 1.5561 -0.249682 0
M  V30 4265 C 400.034 2.21496 0.648694 0
M  V30 4266 C 401.004 1.17977 1.16921 0
M  V30 4267 O 402.189 1.46434 1.22318 0
M  V30 4268 C 399.329 2.92039 1.83868 0
M  V30 4269 C 398.442 4.10219 1.35442 0
M  V30 4270 C 397.577 4.6847 2.50419 0
M  V30 4271 C 396.616 5.78893 1.98869 0
M  V30 4272 N 395.753 6.31315 3.07223 0
M  V30 4273 H 400.593 2.97892 0.0801582 0
M  V30 4274 H 398.13 1.47074 0.0278031 0
M  V30 4275 H 400.088 3.31138 2.53778 0
M  V30 4276 H 398.718 2.18111 2.37965 0
M  V30 4277 H 397.77 3.76413 0.54928 0
M  V30 4278 H 399.082 4.89927 0.936649 0
M  V30 4279 H 398.236 5.10158 3.28366 0
M  V30 4280 H 396.975 3.87984 2.95499 0
M  V30 4281 H 395.98 5.3668 1.19393 0
M  V30 4282 H 397.205 6.61232 1.54755 0
M  V30 4283 H 395.151 5.53733 3.51732 0
M  V30 4284 H 395.068 7.06224 2.69784 0
M  V30 4285 H 396.336 6.77662 3.8522 0
M  V30 4286 N 400.565 -0.0233959 1.57583 0
M  V30 4287 C 401.495 -1.02162 2.09965 0
M  V30 4288 C 402.476 -1.3735 1.00344 0
M  V30 4289 O 403.661 -1.46135 1.27899 0
M  V30 4290 C 400.791 -2.32081 2.58371 0
M  V30 4291 C 399.745 -2.1112 3.72307 0
M  V30 4292 C 399.071 -3.46848 4.06941 0
M  V30 4293 C 400.371 -1.49276 5.00514 0
M  V30 4294 H 402.065 -0.585557 2.93618 0
M  V30 4295 H 399.611 -0.280218 1.41247 0
M  V30 4296 H 401.564 -3.02249 2.93639 0
M  V30 4297 H 400.288 -2.77758 1.71808 0
M  V30 4298 H 398.947 -1.43384 3.37397 0
M  V30 4299 H 398.595 -3.90184 3.17436 0
M  V30 4300 H 398.295 -3.33646 4.83688 0
M  V30 4301 H 399.819 -4.18369 4.44747 0
M  V30 4302 H 401.233 -2.09368 5.33702 0
M  V30 4303 H 399.63 -1.46632 5.8191 0
M  V30 4304 H 400.7 -0.459217 4.82721 0
M  V30 4305 N 402.043 -1.548 -0.295768 0
M  V30 4306 C 403.289 -1.74588 -1.03184 0
M  V30 4307 C 403.622 -0.532962 -1.86744 0
M  V30 4308 O 402.897 0.469872 -1.88739 0
M  V30 4309 C 403.18 -3.03791 -1.93347 0
M  V30 4310 C 403.033 -4.35392 -1.12933 0
M  V30 4311 C 404.352 -3.28892 -2.92435 0
M  V30 4312 H 401.471 -0.635221 -0.373715 0
M  V30 4313 H 404.113 -1.87519 -0.30606 0
M  V30 4314 H 402.263 -2.92898 -2.55232 0
M  V30 4315 H 403.935 -4.58211 -0.532943 0
M  V30 4316 H 402.178 -4.31642 -0.432168 0
M  V30 4317 H 402.849 -5.22074 -1.79284 0
M  V30 4318 H 405.325 -3.39429 -2.4068 0
M  V30 4319 H 404.201 -4.20603 -3.52682 0
M  V30 4320 H 404.462 -2.47437 -3.6637 0
M  V30 4321 N 403.521 0.559213 -1.47345 0
M  V30 4322 C 404.469 1.68747 -1.60085 0
M  V30 4323 C 405.463 1.628 -0.46825 0
M  V30 4324 O 406.669 1.68009 -0.645977 0
M  V30 4325 H 403.044 0.558329 -0.503759 0
M  V30 4326 H 405.015 1.55138 -2.54902 0
M  V30 4327 C 403.764 3.07103 -1.63042 0
M  V30 4328 H 403.087 3.12361 -2.49541 0
M  V30 4329 H 404.527 3.85743 -1.76006 0
M  V30 4330 C 402.986 3.34935 -0.363357 0
M  V30 4331 O 403.516 3.98102 0.536416 0
M  V30 4332 N 401.722 2.89574 -0.244 0
M  V30 4333 H 401.269 2.38348 -0.977133 0
M  V30 4334 H 401.227 3.08566 0.602836 0
M  V30 4335 N 404.999 1.35443 0.805782 0
M  V30 4336 C 406.415 1.15499 1.10146 0
M  V30 4337 C 406.615 -0.0319975 2.01475 0
M  V30 4338 O 405.671 -0.70236 2.42535 0
M  V30 4339 C 406.984 2.45833 1.73166 0
M  V30 4340 C 408.532 2.52047 1.85583 0
M  V30 4341 C 409.007 3.82427 2.52019 0
M  V30 4342 N 410.498 3.83682 2.59504 0
M  V30 4343 C 411.233 4.81294 3.11679 0
M  V30 4344 N 410.729 5.89294 3.64287 0
M  V30 4345 N 412.522 4.6873 3.1024 0
M  V30 4346 H 404.673 2.11469 0.198678 0
M  V30 4347 H 406.936 0.93594 0.150731 0
M  V30 4348 H 406.642 3.32874 1.13526 0
M  V30 4349 H 406.516 2.6044 2.72857 0
M  V30 4350 H 408.903 1.65435 2.44367 0
M  V30 4351 H 408.984 2.41354 0.847455 0
M  V30 4352 H 408.628 4.69437 1.93885 0
M  V30 4353 H 408.558 3.90409 3.53395 0
M  V30 4354 H 411.049 3.05648 2.22234 0
M  V30 4355 H 411.362 6.59768 4.02401 0
M  V30 4356 H 409.707 5.92985 3.62483 0
M  V30 4357 H 412.898 3.83496 2.68419 0
M  V30 4358 H 413.071 5.44965 3.50596 0
M  V30 4359 N 406.477 -1.02803 1.19454 0
M  V30 4360 C 407.754 -1.73299 0.907013 0
M  V30 4361 C 408.134 -2.02772 -0.587086 0
M  V30 4362 O 407.482 -1.68304 -1.54551 0
M  V30 4363 C 407.692 -3.00912 1.76785 0
M  V30 4364 C 409.04 -3.74403 2.00268 0
M  V30 4365 O 410.064 -3.10841 1.73943 0
M  V30 4366 O 408.923 -4.88675 2.4466 0
M  V30 4367 H 406.017 -0.754727 0.338106 0
M  V30 4368 H 408.563 -1.08754 1.30271 0
M  V30 4369 H 407.335 -2.75366 2.7801 0
M  V30 4370 H 406.958 -3.73197 1.37149 0
M  V30 4371 N 407.956 -0.998596 -1.21925 0
M  V30 4372 C 408.886 -0.573688 -2.26343 0
M  V30 4373 C 409.867 0.402296 -1.65274 0
M  V30 4374 O 411.052 0.291683 -1.91997 0
M  V30 4375 C 408.182 0.106839 -3.47136 0
M  V30 4376 C 407.136 -0.788269 -4.20678 0
M  V30 4377 C 406.462 0.0254927 -5.34694 0
M  V30 4378 C 407.762 -2.08784 -4.78755 0
M  V30 4379 H 409.456 -1.44651 -2.62138 0
M  V30 4380 H 407.002 -0.696975 -1.26009 0
M  V30 4381 H 408.955 0.415531 -4.19346 0
M  V30 4382 H 407.679 1.01424 -3.10452 0
M  V30 4383 H 406.338 -1.08069 -3.50309 0
M  V30 4384 H 405.986 0.933989 -4.94253 0
M  V30 4385 H 405.686 -0.570437 -5.84825 0
M  V30 4386 H 407.21 0.328147 -6.09718 0
M  V30 4387 H 408.624 -1.84272 -5.42878 0
M  V30 4388 H 407.021 -2.63307 -5.39249 0
M  V30 4389 H 408.091 -2.76284 -3.98491 0
M  V30 4390 N 409.434 1.37368 -0.772513 0
M  V30 4391 C 410.381 2.30262 -0.157488 0
M  V30 4392 C 411.351 1.51137 0.688965 0
M  V30 4393 O 412.536 1.79704 0.641168 0
M  V30 4394 C 409.676 3.37611 0.715045 0
M  V30 4395 C 408.789 4.31746 -0.148098 0
M  V30 4396 C 407.924 5.26171 0.729213 0
M  V30 4397 C 406.963 6.11948 -0.136418 0
M  V30 4398 N 406.1 6.98613 0.698914 0
M  V30 4399 H 410.94 2.82277 -0.955179 0
M  V30 4400 H 408.477 1.38957 -0.482631 0
M  V30 4401 H 410.435 3.98479 1.23575 0
M  V30 4402 H 409.065 2.86959 1.47833 0
M  V30 4403 H 408.117 3.72178 -0.786613 0
M  V30 4404 H 409.429 4.92084 -0.81579 0
M  V30 4405 H 408.583 5.92247 1.31637 0
M  V30 4406 H 407.322 4.66246 1.43059 0
M  V30 4407 H 406.327 5.4485 -0.736102 0
M  V30 4408 H 407.552 6.73945 -0.835134 0
M  V30 4409 H 405.498 6.41215 1.38489 0
M  V30 4410 H 405.415 7.55948 0.0885358 0
M  V30 4411 H 406.683 7.69077 1.27044 0
M  V30 4412 N 410.912 0.523116 1.48665 0
M  V30 4413 C 412.14 -0.0096312 2.06898 0
M  V30 4414 C 412.555 -1.28784 1.38059 0
M  V30 4415 O 411.912 -1.76453 0.465893 0
M  V30 4416 C 411.963 -0.244386 3.60673 0
M  V30 4417 O 411.684 0.983172 4.26925 0
M  V30 4418 C 413.185 -0.818289 4.35682 0
M  V30 4419 H 410.405 0.0304161 0.67031 0
M  V30 4420 H 412.949 0.726799 1.91149 0
M  V30 4421 H 411.104 -0.930847 3.76051 0
M  V30 4422 H 411.518 0.759653 5.1897 0
M  V30 4423 H 412.992 -0.93201 5.44075 0
M  V30 4424 H 413.469 -1.82153 3.99646 0
M  V30 4425 H 414.075 -0.168609 4.24966 0
M  V30 4426 N 412.39 -1.55475 0.257931 0
M  V30 4427 C 413.322 -2.19192 -0.669881 0
M  V30 4428 C 414.335 -1.17148 -1.1305 0
M  V30 4429 O 415.524 -1.43959 -1.05537 0
M  V30 4430 C 412.624 -2.79016 -1.92363 0
M  V30 4431 C 411.797 -4.06586 -1.61265 0
M  V30 4432 C 410.856 -4.50622 -2.7171 0
M  V30 4433 O 409.882 -5.16765 -2.38627 0
M  V30 4434 N 411.084 -4.19325 -4.01431 0
M  V30 4435 H 413.849 -2.99441 -0.124635 0
M  V30 4436 H 411.41 -1.6171 0.0783311 0
M  V30 4437 H 413.402 -3.05427 -2.65511 0
M  V30 4438 H 411.972 -2.0286 -2.37837 0
M  V30 4439 H 411.192 -3.87646 -0.715811 0
M  V30 4440 H 412.48 -4.89737 -1.37967 0
M  V30 4441 H 411.878 -3.66247 -4.31138 0
M  V30 4442 H 410.435 -4.50547 -4.7101 0
M  V30 4443 N 413.868 0.0150385 -1.57593 0
M  V30 4444 C 415.093 0.718067 -1.94573 0
M  V30 4445 C 415.518 1.6734 -0.859005 0
M  V30 4446 O 414.876 1.80362 0.184147 0
M  V30 4447 C 414.924 1.43918 -3.30636 0
M  V30 4448 O 414.028 2.55299 -3.23876 0
M  V30 4449 H 413.369 0.192125 -0.635597 0
M  V30 4450 H 415.899 -0.0336708 -2.04572 0
M  V30 4451 H 415.909 1.80598 -3.65853 0
M  V30 4452 H 414.584 0.738619 -4.09289 0
M  V30 4453 H 413.161 2.21058 -3.00312 0
M  V30 4454 N 415.346 1.54954 0.287554 0
M  V30 4455 C 416.594 1.74528 1.01904 0
M  V30 4456 C 416.915 0.541349 1.87335 0
M  V30 4457 O 416.185 -0.444108 1.908 0
M  V30 4458 H 414.765 0.643576 0.379235 0
M  V30 4459 H 417.427 1.92333 0.315294 0
M  V30 4460 H 416.523 2.64015 1.6644 0
M  V30 4461 N 416.824 -0.551391 1.4764 0
M  V30 4462 C 418.049 -1.33837 1.58437 0
M  V30 4463 C 418.474 -1.866 0.237063 0
M  V30 4464 O 417.832 -1.6328 -0.787994 0
M  V30 4465 C 417.88 -2.48014 2.61766 0
M  V30 4466 O 416.984 -3.50419 2.1744 0
M  V30 4467 H 416.325 -0.397299 0.532024 0
M  V30 4468 H 418.855 -0.665759 1.93465 0
M  V30 4469 H 418.865 -2.94503 2.82369 0
M  V30 4470 H 417.54 -2.08969 3.5959 0
M  V30 4471 H 416.117 -3.10196 2.06961 0
M  V30 4472 N 418.302 -1.35869 -0.798587 0
M  V30 4473 C 419.212 -1.31578 -1.94228 0
M  V30 4474 C 420.228 -0.21939 -1.72611 0
M  V30 4475 O 421.404 -0.450167 -1.96305 0
M  V30 4476 C 418.469 -1.09528 -3.28944 0
M  V30 4477 C 417.53 -2.28556 -3.63402 0
M  V30 4478 C 416.763 -2.07549 -4.9169 0
M  V30 4479 O 416.986 -1.046 -5.60727 0
M  V30 4480 O 415.92 -2.95106 -5.24591 0
M  V30 4481 H 419.746 -2.27847 -2.00796 0
M  V30 4482 H 417.331 -1.16322 -0.937526 0
M  V30 4483 H 419.213 -0.991127 -4.09579 0
M  V30 4484 H 417.888 -0.16315 -3.23289 0
M  V30 4485 H 416.795 -2.44538 -2.83112 0
M  V30 4486 H 418.128 -3.20244 -3.73771 0
M  V30 4487 N 419.78 1.02168 -1.19998 0
M  V30 4488 C 420.713 2.10232 -0.887558 0
M  V30 4489 C 421.691 1.61827 0.158317 0
M  V30 4490 O 422.875 1.88471 0.0330249 0
M  V30 4491 C 420.002 3.37092 -0.32964 0
M  V30 4492 C 419.048 4.0438 -1.3557 0
M  V30 4493 S 419.881 4.48956 -2.91888 0
M  V30 4494 C 421.037 5.79024 -2.37658 0
M  V30 4495 H 421.27 2.36409 -1.80272 0
M  V30 4496 H 418.803 1.15211 -1.0279 0
M  V30 4497 H 420.761 4.10498 -0.0142824 0
M  V30 4498 H 419.422 3.08996 0.563941 0
M  V30 4499 H 418.615 4.95632 -0.9146 0
M  V30 4500 H 418.217 3.37176 -1.61828 0
M  V30 4501 H 420.509 6.53942 -1.77103 0
M  V30 4502 H 421.452 6.27924 -3.27287 0
M  V30 4503 H 421.86 5.35043 -1.79971 0
M  V30 4504 N 421.258 1.00505 1.21394 0
M  V30 4505 C 422.205 0.565496 2.23765 0
M  V30 4506 C 423.175 -0.408466 1.60999 0
M  V30 4507 O 424.36 -0.310503 1.88257 0
M  V30 4508 C 421.5 -0.101667 3.4495 0
M  V30 4509 C 420.613 0.915479 4.22188 0
M  V30 4510 C 419.748 0.220574 5.30742 0
M  V30 4511 C 418.787 1.22527 5.99711 0
M  V30 4512 N 417.924 0.557831 6.9988 0
M  V30 4513 H 422.764 1.44314 2.60725 0
M  V30 4514 H 420.301 0.722643 1.28126 0
M  V30 4515 H 422.259 -0.505504 4.14126 0
M  V30 4516 H 420.889 -0.94303 3.08718 0
M  V30 4517 H 419.941 1.43756 3.52191 0
M  V30 4518 H 421.253 1.68005 4.69655 0
M  V30 4519 H 420.407 -0.239368 6.06228 0
M  V30 4520 H 419.146 -0.576401 4.84282 0
M  V30 4521 H 418.151 1.69571 5.22997 0
M  V30 4522 H 419.376 2.02332 6.48258 0
M  V30 4523 H 417.322 -0.219486 6.55633 0
M  V30 4524 H 417.239 1.26065 7.45415 0
M  V30 4525 H 418.507 0.121095 7.79406 0
M  V30 4526 N 422.737 -1.36956 0.779787 0
M  V30 4527 C 423.684 -2.30175 0.169697 0
M  V30 4528 C 424.654 -1.51501 -0.68094 0
M  V30 4529 O 425.839 -1.80042 -0.631629 0
M  V30 4530 C 422.979 -3.37985 -0.697131 0
M  V30 4531 C 422.092 -4.31661 0.170992 0
M  V30 4532 C 421.227 -5.2655 -0.701298 0
M  V30 4533 C 420.266 -6.11867 0.168869 0
M  V30 4534 N 419.403 -6.98973 -0.661855 0
M  V30 4535 H 424.243 -2.81767 0.970135 0
M  V30 4536 H 421.78 -1.38699 0.489994 0
M  V30 4537 H 423.738 -3.99128 -1.2146 0
M  V30 4538 H 422.368 -2.87739 -1.46309 0
M  V30 4539 H 421.42 -3.71756 0.80634 0
M  V30 4540 H 422.732 -4.91644 0.841875 0
M  V30 4541 H 421.886 -5.92937 -1.28494 0
M  V30 4542 H 420.625 -4.66998 -1.40584 0
M  V30 4543 H 419.63 -5.44452 0.764986 0
M  V30 4544 H 420.855 -6.73493 0.870863 0
M  V30 4545 H 418.801 -6.41941 -1.35086 0
M  V30 4546 H 418.718 -7.55984 -0.0484447 0
M  V30 4547 H 419.986 -7.6974 -1.22963 0
M  V30 4548 N 424.215 -0.530993 -1.48385 0
M  V30 4549 C 425.462 0.0027373 -2.025 0
M  V30 4550 C 425.79 1.34186 -1.40799 0
M  V30 4551 O 425.045 1.88 -0.543544 0
M  V30 4552 C 425.344 0.172742 -3.56982 0
M  V30 4553 C 425.01 -1.09215 -4.37473 0
M  V30 4554 C 423.672 -1.43881 -4.59186 0
M  V30 4555 C 426.024 -1.93153 -4.84088 0
M  V30 4556 C 423.352 -2.62381 -5.2476 0
M  V30 4557 C 425.704 -3.10833 -5.50968 0
M  V30 4558 C 424.368 -3.45843 -5.70919 0
M  V30 4559 H 423.638 0.00100165 -0.740999 0
M  V30 4560 H 426.285 -0.697219 -1.78357 0
M  V30 4561 H 424.59 0.955473 -3.79971 0
M  V30 4562 H 426.287 0.600642 -3.96476 0
M  V30 4563 H 422.877 -0.812177 -4.20834 0
M  V30 4564 H 427.061 -1.67683 -4.67115 0
M  V30 4565 H 422.317 -2.89707 -5.38405 0
M  V30 4566 H 426.491 -3.7618 -5.86056 0
M  V30 4567 H 424.118 -4.37764 -6.21503 0
M  V30 4568 N 425.693 1.55336 -0.266172 0
M  V30 4569 C 426.623 2.25146 0.618981 0
M  V30 4570 C 427.604 1.23845 1.16604 0
M  V30 4571 O 428.789 1.52544 1.20183 0
M  V30 4572 C 425.919 2.96572 1.80728 0
M  V30 4573 C 424.873 4.04726 1.39215 0
M  V30 4574 C 424.199 4.63678 2.66283 0
M  V30 4575 C 425.499 5.19407 0.548942 0
M  V30 4576 H 427.193 2.99377 0.0368116 0
M  V30 4577 H 424.739 1.43991 0.0162651 0
M  V30 4578 H 426.692 3.44116 2.43232 0
M  V30 4579 H 425.416 2.19861 2.41514 0
M  V30 4580 H 424.075 3.57979 0.790351 0
M  V30 4581 H 423.723 3.83646 3.25308 0
M  V30 4582 H 423.423 5.367 2.39222 0
M  V30 4583 H 424.947 5.13967 3.29651 0
M  V30 4584 H 426.361 5.63059 1.07876 0
M  V30 4585 H 424.758 5.98936 0.373593 0
M  V30 4586 H 425.828 4.8295 -0.434394 0
M  V30 4587 N 427.171 -0.0066808 1.57599 0
M  V30 4588 C 428.396 -0.707738 1.94951 0
M  V30 4589 C 428.821 -1.66882 0.867868 0
M  V30 4590 O 428.179 -1.80457 -0.17458 0
M  V30 4591 C 428.227 -1.42162 3.31394 0
M  V30 4592 O 427.331 -2.53578 3.25226 0
M  V30 4593 H 426.672 -0.188752 0.636607 0
M  V30 4594 H 429.202 0.0445193 2.04552 0
M  V30 4595 H 429.212 -1.78655 3.66806 0
M  V30 4596 H 427.887 -0.716903 4.09675 0
M  V30 4597 H 426.464 -2.19463 3.01481 0
M  V30 4598 N 428.649 -1.55105 -0.279332 0
M  V30 4599 C 429.877 -1.7943 -1.03017 0
M  V30 4600 C 430.292 -0.564456 -1.80165 0
M  V30 4601 O 429.649 0.466326 -1.76442 0
M  V30 4602 C 429.7 -3.0155 -1.99374 0
M  V30 4603 O 429.421 -4.19784 -1.25352 0
M  V30 4604 C 430.922 -3.3843 -2.86321 0
M  V30 4605 H 428.142 -0.597882 -0.304594 0
M  V30 4606 H 430.686 -2.02105 -0.312035 0
M  V30 4607 H 428.841 -2.81019 -2.66659 0
M  V30 4608 H 429.255 -4.88781 -1.90246 0
M  V30 4609 H 430.729 -4.27066 -3.49741 0
M  V30 4610 H 431.206 -2.57549 -3.5576 0
M  V30 4611 H 431.812 -3.61197 -2.24536 0
M  V30 4612 N 430.127 0.543554 -1.4793 0
M  V30 4613 C 431.057 1.65888 -1.64327 0
M  V30 4614 C 432.038 1.62818 -0.492383 0
M  V30 4615 O 433.223 1.80226 -0.723338 0
M  V30 4616 C 430.353 3.04506 -1.67013 0
M  V30 4617 C 429.307 3.2243 -2.81466 0
M  V30 4618 C 428.633 4.61972 -2.69233 0
M  V30 4619 C 429.933 3.06496 -4.22915 0
M  V30 4620 H 431.627 1.52421 -2.57698 0
M  V30 4621 H 429.173 0.731849 -1.24016 0
M  V30 4622 H 431.126 3.82391 -1.77074 0
M  V30 4623 H 429.85 3.18964 -0.70212 0
M  V30 4624 H 428.509 2.46957 -2.70938 0
M  V30 4625 H 428.157 4.73247 -1.7043 0
M  V30 4626 H 427.857 4.74911 -3.46025 0
M  V30 4627 H 429.381 5.41974 -2.81242 0
M  V30 4628 H 430.795 3.74186 -4.34348 0
M  V30 4629 H 429.192 3.30938 -5.006 0
M  V30 4630 H 430.262 2.03077 -4.40327 0
M  V30 4631 N 431.605 1.3629 0.791371 0
M  V30 4632 C 432.833 1.33562 1.58016 0
M  V30 4633 C 433.248 -0.0835616 1.88615 0
M  V30 4634 O 432.605 -1.0399 1.49974 0
M  V30 4635 C 432.656 2.15517 2.90232 0
M  V30 4636 O 432.377 3.51902 2.60953 0
M  V30 4637 C 433.878 2.20546 3.84544 0
M  V30 4638 H 431.098 0.458226 0.490173 0
M  V30 4639 H 433.642 1.79361 0.982345 0
M  V30 4640 H 431.797 1.73278 3.46487 0
M  V30 4641 H 432.211 3.94644 3.4548 0
M  V30 4642 H 433.685 2.82252 4.74382 0
M  V30 4643 H 434.162 1.20838 4.2225 0
M  V30 4644 H 434.768 2.63013 3.34222 0
M  V30 4645 N 433.083 -1.0153 1.20538 0
M  V30 4646 C 434.332 -1.74558 1.01057 0
M  V30 4647 C 434.645 -1.90168 -0.457756 0
M  V30 4648 O 435.851 -2.60301 -0.771722 0
M  V30 4649 C 434.307 -3.13963 1.75941 0
M  V30 4650 C 433.915 -3.06361 3.26875 0
M  V30 4651 C 435.659 -3.91191 1.64832 0
M  V30 4652 C 433.566 -4.40782 3.94291 0
M  V30 4653 H 432.496 -0.654417 0.374505 0
M  V30 4654 H 435.147 -1.13521 1.44171 0
M  V30 4655 H 433.529 -3.75549 1.25614 0
M  V30 4656 H 434.703 -2.54074 3.84425 0
M  V30 4657 H 433.018 -2.42625 3.38411 0
M  V30 4658 H 435.615 -4.90644 2.12539 0
M  V30 4659 H 435.958 -4.11884 0.604745 0
M  V30 4660 H 436.491 -3.36236 2.12579 0
M  V30 4661 H 433.23 -4.25292 4.98805 0
M  V30 4662 H 432.75 -4.9307 3.41529 0
M  V30 4663 H 434.429 -5.09621 3.98617 0
M  V30 4664 N 434.561 -1.01147 -1.20859 0
M  V30 4665 C 435.838 -0.613136 -1.85742 0
M  V30 4666 C 436.218 0.909004 -1.90526 0
M  V30 4667 O 435.566 1.79862 -1.40932 0
M  V30 4668 C 435.776 -1.255 -3.25654 0
M  V30 4669 C 437.124 -1.3672 -4.01986 0
M  V30 4670 O 438.148 -1.21082 -3.34989 0
M  V30 4671 O 437.007 -1.6194 -5.21956 0
M  V30 4672 H 434.101 -0.210878 -0.799662 0
M  V30 4673 H 436.647 -1.10853 -1.2849 0
M  V30 4674 H 435.419 -2.29532 -3.16908 0
M  V30 4675 H 435.042 -0.746369 -3.90532 0
M  V30 4676 N 436.039 1.36541 -0.78704 0
M  V30 4677 C 437.287 1.98911 -0.357633 0
M  V30 4678 C 437.608 1.62778 1.07371 0
M  V30 4679 O 436.878 0.900612 1.73971 0
M  V30 4680 H 435.458 0.735734 -0.129246 0
M  V30 4681 H 438.12 1.66776 -1.00855 0
M  V30 4682 H 437.216 3.08874 -0.447549 0
M  V30 4683 N 437.518 0.538854 1.48102 0
M  V30 4684 C 438.764 0.00801365 2.02798 0
M  V30 4685 C 439.097 -1.3309 1.41424 0
M  V30 4686 O 438.372 -1.86169 0.563158 0
M  V30 4687 C 438.655 -0.104589 3.59948 0
M  V30 4688 C 438.508 1.26012 4.31788 0
M  V30 4689 C 439.827 -0.827055 4.32259 0
M  V30 4690 H 436.946 0.00438624 0.736987 0
M  V30 4691 H 439.588 0.6976 1.7673 0
M  V30 4692 H 437.738 -0.691893 3.82289 0
M  V30 4693 H 439.41 1.88922 4.2084 0
M  V30 4694 H 437.653 1.83968 3.92859 0
M  V30 4695 H 438.324 1.13424 5.40221 0
M  V30 4696 H 440.8 -0.328578 4.14801 0
M  V30 4697 H 439.676 -0.87476 5.41885 0
M  V30 4698 H 439.937 -1.87927 4.0017 0
M  V30 4699 N 438.996 -1.55193 0.274407 0
M  V30 4700 C 440.224 -2.03987 -0.345943 0
M  V30 4701 C 440.639 -1.15279 -1.4952 0
M  V30 4702 O 439.996 -0.172759 -1.8168 0
M  V30 4703 C 440.047 -3.51898 -0.827631 0
M  V30 4704 O 439.768 -4.37231 0.275855 0
M  V30 4705 C 441.269 -4.16577 -1.51587 0
M  V30 4706 H 438.489 -0.666335 -0.0789892 0
M  V30 4707 H 441.033 -2.00423 0.406294 0
M  V30 4708 H 439.188 -3.55909 -1.52996 0
M  V30 4709 H 439.602 -5.24415 -0.0943638 0
M  V30 4710 H 441.076 -5.21678 -1.80433 0
M  V30 4711 H 441.553 -3.64707 -2.44716 0
M  V30 4712 H 442.159 -4.16568 -0.857409 0
M  V30 4713 N 440.474 -0.00167713 -1.576 0
M  V30 4714 C 441.89 0.354422 -1.55615 0
M  V30 4715 C 442.09 1.74679 -1.00447 0
M  V30 4716 O 441.146 2.4428 -0.639022 0
M  V30 4717 C 442.459 0.22812 -2.99833 0
M  V30 4718 C 444.007 0.302934 -3.11531 0
M  V30 4719 C 444.482 0.205737 -4.57538 0
M  V30 4720 N 445.973 0.263584 -4.62449 0
M  V30 4721 C 446.708 0.211742 -5.73009 0
M  V30 4722 N 446.204 0.110399 -6.92712 0
M  V30 4723 N 447.997 0.263729 -5.61481 0
M  V30 4724 H 440.148 -0.912498 -1.918 0
M  V30 4725 H 442.411 -0.349928 -0.881053 0
M  V30 4726 H 442.117 -0.729934 -3.44042 0
M  V30 4727 H 441.991 1.00951 -3.6344 0
M  V30 4728 H 444.378 1.25143 -2.67251 0
M  V30 4729 H 444.459 -0.508357 -2.50698 0
M  V30 4730 H 444.103 -0.739225 -5.02492 0
M  V30 4731 H 444.033 1.03554 -5.16318 0
M  V30 4732 H 446.524 0.343173 -3.76339 0
M  V30 4733 H 446.837 0.0767828 -7.72762 0
M  V30 4734 H 445.182 0.0760025 -6.94958 0
M  V30 4735 H 448.373 0.34111 -4.66855 0
M  V30 4736 H 448.546 0.219862 -6.47627 0
M  V30 4737 N 441.952 1.55251 0.271103 0
M  V30 4738 C 443.177 1.80306 1.02491 0
M  V30 4739 C 443.602 0.575457 1.79081 0
M  V30 4740 O 442.96 -0.474987 1.74967 0
M  V30 4741 C 443.008 3.02832 1.95768 0
M  V30 4742 O 442.112 2.78051 3.04568 0
M  V30 4743 H 441.453 0.595896 0.292923 0
M  V30 4744 H 443.983 2.02397 0.299436 0
M  V30 4745 H 443.993 3.31616 2.37686 0
M  V30 4746 H 442.668 3.9183 1.39434 0
M  V30 4747 H 441.245 2.60369 2.66951 0
M  V30 4748 N 443.43 -0.535701 1.48216 0
M  V30 4749 C 444.707 -1.29683 1.46429 0
M  V30 4750 C 445.087 -2.10391 0.172852 0
M  V30 4751 O 444.435 -2.12282 -0.845488 0
M  V30 4752 C 444.645 -2.18313 2.72287 0
M  V30 4753 C 445.993 -2.78639 3.20383 0
M  V30 4754 O 447.017 -2.28604 2.73164 0
M  V30 4755 O 445.876 -3.69636 4.02531 0
M  V30 4756 H 442.97 -0.585026 0.584529 0
M  V30 4757 H 445.516 -0.552827 1.60443 0
M  V30 4758 H 444.288 -1.58421 3.57797 0
M  V30 4759 H 443.911 -2.99971 2.60966 0
M  V30 4760 N 444.908 -1.36708 -0.784132 0
M  V30 4761 C 445.84 -1.27333 -1.90575 0
M  V30 4762 C 446.853 -0.191706 -1.61667 0
M  V30 4763 O 448.042 -0.446854 -1.72816 0
M  V30 4764 C 445.142 -0.943177 -3.25511 0
M  V30 4765 C 444.315 -2.12776 -3.82158 0
M  V30 4766 C 443.374 -1.76983 -4.95544 0
M  V30 4767 O 442.4 -2.49134 -5.11782 0
M  V30 4768 N 443.602 -0.706624 -5.76183 0
M  V30 4769 H 446.367 -2.23974 -1.99138 0
M  V30 4770 H 443.928 -1.30171 -0.962656 0
M  V30 4771 H 445.92 -0.684799 -3.98864 0
M  V30 4772 H 444.49 -0.0657333 -3.12531 0
M  V30 4773 H 443.71 -2.54863 -3.0073 0
M  V30 4774 H 444.998 -2.91904 -4.16737 0
M  V30 4775 H 444.396 -0.107643 -5.65598 0
M  V30 4776 H 442.953 -0.50808 -6.49817 0
M  V30 4777 N 446.386 1.0089 -1.21074 0
M  V30 4778 C 447.634 1.74262 -1.02358 0
M  V30 4779 C 447.955 1.89869 0.444393 0
M  V30 4780 O 447.225 1.44677 1.32081 0
M  V30 4781 H 445.805 0.645615 -0.375754 0
M  V30 4782 H 448.467 1.21596 -1.52317 0
M  V30 4783 H 447.563 2.74328 -1.4883 0
M  V30 4784 N 447.864 1.01787 1.20321 0
M  V30 4785 C 448.794 0.609625 2.25401 0
M  V30 4786 C 449.775 -0.375951 1.65893 0
M  V30 4787 O 450.96 -0.261101 1.92437 0
M  V30 4788 C 448.09 -0.0515995 3.47262 0
M  V30 4789 C 447.044 0.855095 4.19371 0
M  V30 4790 C 446.37 0.0595757 5.34667 0
M  V30 4791 C 447.67 2.16374 4.75373 0
M  V30 4792 H 449.364 1.48803 2.59804 0
M  V30 4793 H 446.91 0.716934 1.24884 0
M  V30 4794 H 448.863 -0.348764 4.19954 0
M  V30 4795 H 447.587 -0.964726 3.12027 0
M  V30 4796 H 446.246 1.13628 3.48546 0
M  V30 4797 H 445.894 -0.85524 4.95676 0
M  V30 4798 H 445.594 0.663406 5.83843 0
M  V30 4799 H 447.118 -0.231105 6.10162 0
M  V30 4800 H 448.532 1.92885 5.39878 0
M  V30 4801 H 446.929 2.71853 5.34991 0
M  V30 4802 H 447.999 2.82589 3.94045 0
M  V30 4803 N 449.342 -1.36122 0.79427 0
M  V30 4804 C 450.572 -2.03067 0.380437 0
M  V30 4805 C 450.98 -1.60018 -1.00949 0
M  V30 4806 O 450.323 -0.787425 -1.65968 0
M  V30 4807 C 450.385 -3.57587 0.37034 0
M  V30 4808 C 450.049 -4.23855 1.70867 0
M  V30 4809 C 451.046 -4.46404 2.66496 0
M  V30 4810 C 448.731 -4.61229 1.9893 0
M  V30 4811 C 450.725 -5.05412 3.88378 0
M  V30 4812 C 448.412 -5.19953 3.21079 0
M  V30 4813 C 449.41 -5.41985 4.15621 0
M  V30 4814 O 449.098 -5.99475 5.35616 0
M  V30 4815 H 448.83 -0.658168 0.154243 0
M  V30 4816 H 451.384 -1.7498 1.0757 0
M  V30 4817 H 449.614 -3.84814 -0.381444 0
M  V30 4818 H 451.303 -4.05895 -0.0194894 0
M  V30 4819 H 452.069 -4.17921 2.46103 0
M  V30 4820 H 447.948 -4.43402 1.26158 0
M  V30 4821 H 451.492 -5.22524 4.62185 0
M  V30 4822 H 447.389 -5.47862 3.41347 0
M  V30 4823 H 448.157 -6.17937 5.36745 0
M  V30 4824 N 450.82 -0.546701 -1.47814 0
M  V30 4825 C 452.048 -0.0232857 -2.06887 0
M  V30 4826 C 452.463 1.26571 -1.4009 0
M  V30 4827 O 451.82 1.7569 -0.493906 0
M  V30 4828 C 451.871 0.186975 -3.61016 0
M  V30 4829 O 451.592 -1.05097 -4.25307 0
M  V30 4830 C 453.093 0.748872 -4.36929 0
M  V30 4831 H 450.313 -0.0410763 -0.669742 0
M  V30 4832 H 452.857 -0.757117 -1.89968 0
M  V30 4833 H 451.012 0.870903 -3.77484 0
M  V30 4834 H 451.426 -0.842121 -5.17695 0
M  V30 4835 H 452.9 0.845334 -5.45489 0
M  V30 4836 H 453.377 1.75772 -4.02493 0
M  V30 4837 H 453.983 0.100979 -4.2518 0
M  V30 4838 N 452.299 1.55045 -0.282633 0
M  V30 4839 C 453.539 2.01668 0.333088 0
M  V30 4840 C 453.903 1.1667 1.52486 0
M  V30 4841 O 455.104 1.52907 2.21072 0
M  V30 4842 C 453.375 3.50509 0.698442 0
M  V30 4843 S 454.934 4.19112 1.29963 0
M  V30 4844 H 451.752 0.703468 0.103219 0
M  V30 4845 H 454.354 1.91233 -0.406222 0
M  V30 4846 H 453.058 4.10015 -0.177693 0
M  V30 4847 H 452.589 3.64943 1.46902 0
M  V30 4848 H 454.604 4.23362 2.58803 0
M  V30 4849 N 453.777 0.010035 1.57597 0
M  V30 4850 C 454.74 -0.963029 2.07986 0
M  V30 4851 C 455.74 -1.26619 0.991173 0
M  V30 4852 O 456.93 -1.2097 1.25347 0
M  V30 4853 C 454.062 -2.2851 2.52974 0
M  V30 4854 H 455.255 -0.526971 2.95234 0
M  V30 4855 H 452.808 -0.237639 1.54483 0
M  V30 4856 H 453.543 -2.76784 1.69 0
M  V30 4857 H 453.328 -2.07824 3.32493 0
M  V30 4858 H 454.818 -2.98294 2.9225 0
M  V30 4859 N 455.255 -1.55392 -0.262866 0
M  V30 4860 C 456.218 -1.88181 -1.30846 0
M  V30 4861 C 457.218 -0.757079 -1.41862 0
M  V30 4862 O 458.408 -1.02519 -1.40838 0
M  V30 4863 C 455.54 -2.09609 -2.68844 0
M  V30 4864 H 456.733 -2.81659 -1.02997 0
M  V30 4865 H 454.286 -1.48039 -0.501414 0
M  V30 4866 H 455.021 -1.18547 -3.01856 0
M  V30 4867 H 454.806 -2.91508 -2.62231 0
M  V30 4868 H 456.296 -2.36215 -3.44372 0
M  V30 4869 N 456.733 0.527833 -1.48498 0
M  V30 4870 C 457.958 1.313 -1.60546 0
M  V30 4871 C 458.383 1.86199 -0.26672 0
M  V30 4872 O 457.741 1.64513 0.761918 0
M  V30 4873 C 457.789 2.43818 -2.65678 0
M  V30 4874 O 456.893 3.46916 -2.22987 0
M  V30 4875 H 456.234 0.388784 -0.538277 0
M  V30 4876 H 458.764 0.634896 -1.945 0
M  V30 4877 H 458.774 2.89973 -2.87018 0
M  V30 4878 H 457.449 2.03222 -3.62869 0
M  V30 4879 H 456.026 3.06864 -2.11869 0
M  V30 4880 N 458.211 1.37122 0.776871 0
M  V30 4881 C 459.436 1.354 1.57104 0
M  V30 4882 C 459.861 -0.0595562 1.88006 0
M  V30 4883 O 459.219 -1.03514 1.48844 0
M  V30 4884 C 459.267 2.19472 2.8612 0
M  V30 4885 O 458.371 1.59582 3.80273 0
M  V30 4886 H 457.712 0.462869 0.476076 0
M  V30 4887 H 460.242 1.80577 0.961932 0
M  V30 4888 H 460.252 2.32502 3.35271 0
M  V30 4889 H 458.927 3.22222 2.62956 0
M  V30 4890 H 457.504 1.55564 3.38902 0
M  V30 4891 N 459.689 -1.00246 1.21608 0
M  V30 4892 C 460.937 -1.73717 1.0328 0
M  V30 4893 C 461.258 -1.90102 -0.434318 0
M  V30 4894 O 460.528 -1.45376 -1.31311 0
M  V30 4895 H 459.108 -0.643613 0.379172 0
M  V30 4896 H 461.77 -1.20787 1.52959 0
M  V30 4897 H 460.866 -2.73535 1.50283 0
M  V30 4898 N 461.167 -1.02423 -1.1978 0
M  V30 4899 C 462.097 -0.62157 -2.25075 0
M  V30 4900 C 463.078 0.367148 -1.6609 0
M  V30 4901 O 464.263 0.250892 -1.92573 0
M  V30 4902 C 461.393 0.0331826 -3.47284 0
M  V30 4903 C 460.347 -0.877323 -4.18912 0
M  V30 4904 C 459.673 -0.0879296 -5.34628 0
M  V30 4905 C 460.973 -2.18892 -4.74219 0
M  V30 4906 H 462.667 -1.50179 -2.59011 0
M  V30 4907 H 460.213 -0.723547 -1.24502 0
M  V30 4908 H 462.166 0.326488 -4.20133 0
M  V30 4909 H 460.89 0.948164 -3.12534 0
M  V30 4910 H 459.549 -1.15475 -3.47938 0
M  V30 4911 H 459.197 0.828941 -4.96123 0
M  V30 4912 H 458.897 -0.694359 -5.83483 0
M  V30 4913 H 460.421 0.198743 -6.10276 0
M  V30 4914 H 461.835 -1.95746 -5.38847 0
M  V30 4915 H 460.232 -2.74686 -5.33542 0
M  V30 4916 H 461.302 -2.84674 -3.92541 0
M  V30 4917 N 462.645 1.35699 -0.801477 0
M  V30 4918 C 463.578 2.2768 -0.153922 0
M  V30 4919 C 464.556 1.47832 0.67709 0
M  V30 4920 O 465.74 1.77104 0.645474 0
M  V30 4921 C 462.867 3.2943 0.786986 0
M  V30 4922 C 461.913 4.26485 0.0362447 0
M  V30 4923 S 462.746 5.19573 -1.2963 0
M  V30 4924 C 463.902 6.24866 -0.359705 0
M  V30 4925 H 464.135 2.82254 -0.9338 0
M  V30 4926 H 461.668 1.42421 -0.596283 0
M  V30 4927 H 463.626 3.8855 1.32436 0
M  V30 4928 H 462.287 2.73745 1.54021 0
M  V30 4929 H 461.48 4.98378 0.750668 0
M  V30 4930 H 461.082 3.71508 -0.431017 0
M  V30 4931 H 463.374 6.75957 0.456954 0
M  V30 4932 H 464.317 7.00307 -1.04768 0
M  V30 4933 H 464.725 5.64484 0.0423274 0
M  V30 4934 N 464.123 0.554532 1.47522 0
M  V30 4935 C 465.351 0.034257 2.06872 0
M  V30 4936 C 465.766 -1.25826 1.40759 0
M  V30 4937 O 465.123 -1.75425 0.503217 0
M  V30 4938 C 465.174 -0.167827 3.6111 0
M  V30 4939 O 464.895 1.07351 4.24744 0
M  V30 4940 C 466.396 -0.72569 4.3732 0
M  V30 4941 H 463.616 0.0446275 0.669514 0
M  V30 4942 H 466.16 0.767181 1.89564 0
M  V30 4943 H 464.315 -0.850872 3.7794 0
M  V30 4944 H 464.729 0.869563 5.17242 0
M  V30 4945 H 466.203 -0.816394 5.45929 0
M  V30 4946 H 466.68 -1.73635 4.0342 0
M  V30 4947 H 467.286 -0.0784292 4.25228 0
M  V30 4948 N 465.601 -1.54893 0.290851 0
M  V30 4949 C 466.548 -2.23138 -0.58974 0
M  V30 4950 C 467.518 -1.21036 -1.13752 0
M  V30 4951 O 468.703 -1.49626 -1.18392 0
M  V30 4952 C 465.843 -2.96811 -1.76061 0
M  V30 4953 C 464.956 -4.13665 -1.24519 0
M  V30 4954 C 464.091 -4.74944 -2.3791 0
M  V30 4955 C 463.13 -5.83963 -1.83451 0
M  V30 4956 N 462.267 -6.39239 -2.90376 0
M  V30 4957 H 467.107 -2.98 -0.00114915 0
M  V30 4958 H 464.644 -1.47096 0.0112006 0
M  V30 4959 H 466.602 -3.37751 -2.44909 0
M  V30 4960 H 465.232 -2.24344 -2.32098 0
M  V30 4961 H 464.284 -3.77737 -0.449288 0
M  V30 4962 H 465.596 -4.92238 -0.806424 0
M  V30 4963 H 464.75 -5.18684 -3.14724 0
M  V30 4964 H 463.489 -3.95682 -2.85109 0
M  V30 4965 H 462.494 -5.39657 -1.05122 0
M  V30 4966 H 463.719 -6.65103 -1.37169 0
M  V30 4967 H 461.665 -5.62864 -3.36927 0
M  V30 4968 H 461.582 -7.13129 -2.50965 0
M  V30 4969 H 462.85 -6.87637 -3.67118 0
M  V30 4970 N 467.08 -0.0183926 -1.57589 0
M  V30 4971 C 468.027 0.967022 -2.09565 0
M  V30 4972 C 468.997 1.32983 -0.995225 0
M  V30 4973 O 470.182 1.42501 -1.26878 0
M  V30 4974 C 467.322 2.24772 -2.61861 0
M  V30 4975 C 466.435 1.94232 -3.85873 0
M  V30 4976 C 465.57 3.16518 -4.26603 0
M  V30 4977 C 464.609 2.81748 -5.43401 0
M  V30 4978 N 463.746 3.96626 -5.79338 0
M  V30 4979 H 468.586 0.516874 -2.93483 0
M  V30 4980 H 466.123 0.243544 -1.4507 0
M  V30 4981 H 468.081 2.99667 -2.90268 0
M  V30 4982 H 466.711 2.67423 -1.8079 0
M  V30 4983 H 465.763 1.09625 -3.64262 0
M  V30 4984 H 467.075 1.64616 -4.70853 0
M  V30 4985 H 466.229 3.99743 -4.56389 0
M  V30 4986 H 464.968 3.49286 -3.40368 0
M  V30 4987 H 463.973 1.96933 -5.1332 0
M  V30 4988 H 465.198 2.50207 -6.31327 0
M  V30 4989 H 463.144 4.29257 -4.96059 0
M  V30 4990 H 463.061 3.70598 -6.58933 0
M  V30 4991 H 464.329 4.80586 -6.13724 0
M  V30 4992 N 468.558 1.5553 0.254621 0
M  V30 4993 C 469.506 1.9048 1.33492 0
M  V30 4994 C 470.5 0.78304 1.50216 0
M  V30 4995 O 471.706 0.967582 1.51782 0
M  V30 4996 H 468.081 0.604846 0.44684 0
M  V30 4997 H 470.052 2.80688 1.01275 0
M  V30 4998 C 468.801 2.20928 2.68489 0
M  V30 4999 H 468.124 3.06742 2.56417 0
M  V30 5000 H 469.564 2.49291 3.42972 0
M  V30 5001 C 468.023 1.023 3.20993 0
M  V30 5002 O 468.553 0.267027 4.00811 0
M  V30 5003 N 466.759 0.815714 2.78917 0
M  V30 5004 H 466.306 1.43217 2.14119 0
M  V30 5005 H 466.264 0.0236532 3.14391 0
M  V30 5006 N 470.036 -0.519951 1.48776 0
M  V30 5007 C 471.261 -1.30447 1.6124 0
M  V30 5008 C 471.686 -1.86055 0.276591 0
M  V30 5009 O 471.044 -1.64915 -0.753183 0
M  V30 5010 C 471.092 -2.42406 2.66967 0
M  V30 5011 O 470.196 -3.45728 2.24824 0
M  V30 5012 H 469.537 -0.385924 0.540332 0
M  V30 5013 H 472.067 -0.624572 1.94834 0
M  V30 5014 H 472.077 -2.88447 2.88552 0
M  V30 5015 H 470.752 -2.01294 3.63941 0
M  V30 5016 H 469.329 -3.05737 2.13494 0
M  V30 5017 N 471.514 -1.37532 -0.769588 0
M  V30 5018 C 472.742 -1.36059 -1.55871 0
M  V30 5019 C 473.157 0.053544 -1.88724 0
M  V30 5020 O 472.514 1.01591 -1.5161 0
M  V30 5021 C 472.565 -2.20107 -2.86767 0
M  V30 5022 O 472.286 -3.56009 -2.55321 0
M  V30 5023 C 473.787 -2.26636 -3.80987 0
M  V30 5024 H 471.007 -0.465967 -0.482821 0
M  V30 5025 H 473.551 -1.80901 -0.953686 0
M  V30 5026 H 471.706 -1.78768 -3.43687 0
M  V30 5027 H 472.12 -4.0009 -3.39158 0
M  V30 5028 H 473.594 -2.89763 -4.69831 0
M  V30 5029 H 474.071 -1.2754 -4.20274 0
M  V30 5030 H 474.677 -2.68296 -3.29996 0
M  V30 5031 N 472.992 0.995999 -1.22138 0
M  V30 5032 C 474.239 1.7351 -1.04406 0
M  V30 5033 C 474.567 1.89884 0.421244 0
M  V30 5034 O 473.822 1.43683 1.32867 0
M  V30 5035 C 474.121 3.14553 -1.6968 0
M  V30 5036 C 473.787 3.18102 -3.19565 0
M  V30 5037 C 472.449 3.18778 -3.60464 0
M  V30 5038 C 474.801 3.14636 -4.15516 0
M  V30 5039 C 472.129 3.13684 -4.95801 0
M  V30 5040 C 474.481 3.11084 -5.50826 0
M  V30 5041 C 473.145 3.10074 -5.91109 0
M  V30 5042 H 472.415 0.634916 -0.38205 0
M  V30 5043 H 475.062 1.1667 -1.51857 0
M  V30 5044 H 473.367 3.74682 -1.14546 0
M  V30 5045 H 475.064 3.70477 -1.53454 0
M  V30 5046 H 471.654 3.18324 -2.86998 0
M  V30 5047 H 475.838 3.13266 -3.84939 0
M  V30 5048 H 471.094 3.11245 -5.26247 0
M  V30 5049 H 475.268 3.07357 -6.24904 0
M  V30 5050 H 472.895 3.05882 -6.95946 0
M  V30 5051 N 474.47 1.03057 1.19235 0
M  V30 5052 C 475.716 0.729098 1.89241 0
M  V30 5053 C 476.049 -0.740573 1.79525 0
M  V30 5054 O 475.324 -1.53946 1.18874 0
M  V30 5055 C 475.607 1.18304 3.40112 0
M  V30 5056 C 475.46 2.71406 3.5869 0
M  V30 5057 C 476.779 0.765161 4.33397 0
M  V30 5058 H 473.898 0.266338 0.687192 0
M  V30 5059 H 476.54 1.28079 1.40341 0
M  V30 5060 H 474.69 0.713672 3.81889 0
M  V30 5061 H 476.362 3.26303 3.26074 0
M  V30 5062 H 474.605 3.11717 3.01687 0
M  V30 5063 H 475.276 2.98225 4.64506 0
M  V30 5064 H 477.752 1.16889 3.99345 0
M  V30 5065 H 476.628 1.11065 5.37546 0
M  V30 5066 H 476.889 -0.332372 4.40849 0
M  V30 5067 N 475.948 -1.35272 0.808662 0
M  V30 5068 C 477.364 -1.51806 0.492653 0
M  V30 5069 C 477.564 -1.7574 -0.985778 0
M  V30 5070 O 476.62 -1.80003 -1.77074 0
M  V30 5071 C 477.933 -2.69202 1.33981 0
M  V30 5072 C 479.481 -2.8308 1.33547 0
M  V30 5073 C 479.956 -4.03502 2.16679 0
M  V30 5074 N 481.447 -4.10684 2.14227 0
M  V30 5075 C 482.182 -5.02984 2.75308 0
M  V30 5076 N 481.678 -6.00603 3.45323 0
M  V30 5077 N 483.471 -4.95746 2.64938 0
M  V30 5078 H 475.622 -1.17993 1.76611 0
M  V30 5079 H 477.885 -0.577476 0.751814 0
M  V30 5080 H 477.591 -2.581 2.38909 0
M  V30 5081 H 477.465 -3.63854 0.994491 0
M  V30 5082 H 479.852 -2.93631 0.294036 0
M  V30 5083 H 479.933 -1.89278 1.72068 0
M  V30 5084 H 479.577 -3.93711 3.20864 0
M  V30 5085 H 479.507 -4.96489 1.75517 0
M  V30 5086 H 481.998 -3.40802 1.63285 0
M  V30 5087 H 482.311 -6.67633 3.89212 0
M  V30 5088 H 480.656 -6.0077 3.49428 0
M  V30 5089 H 483.847 -4.18439 2.09825 0
M  V30 5090 H 484.02 -5.67487 3.12829 0
M  V30 5091 N 477.426 -0.562348 -1.47226 0
M  V30 5092 C 478.672 -0.0402761 -2.0276 0
M  V30 5093 C 479.005 1.30823 -1.43523 0
M  V30 5094 O 478.28 1.85249 -0.592705 0
M  V30 5095 C 478.563 0.047311 -3.60069 0
M  V30 5096 C 478.416 -1.32865 -4.29729 0
M  V30 5097 C 479.735 0.758182 -4.3352 0
M  V30 5098 H 476.854 -0.0161105 -0.736824 0
M  V30 5099 H 479.496 -0.725628 -1.75598 0
M  V30 5100 H 477.646 0.630986 -3.83342 0
M  V30 5101 H 479.318 -1.95593 -4.17781 0
M  V30 5102 H 477.561 -1.90195 -3.89882 0
M  V30 5103 H 478.232 -1.22004 -5.38349 0
M  V30 5104 H 480.708 0.262546 -4.15271 0
M  V30 5105 H 479.584 0.78844 -5.43208 0
M  V30 5106 H 479.845 1.81537 -4.03109 0
M  V30 5107 N 478.904 1.54736 -0.299062 0
M  V30 5108 C 479.854 2.20155 0.592932 0
M  V30 5109 C 480.838 1.1739 1.10038 0
M  V30 5110 O 482.03 1.43116 1.04147 0
M  V30 5111 C 479.159 2.94437 1.76527 0
M  V30 5112 C 478.245 4.04516 1.27388 0
M  V30 5113 N 478.636 5.03319 0.500339 0
M  V30 5114 C 476.934 4.18022 1.55478 0
M  V30 5115 C 477.635 5.81209 0.238909 0
M  V30 5116 N 476.611 5.37408 0.818163 0
M  V30 5117 H 480.413 2.93899 -0.00563596 0
M  V30 5118 H 477.927 1.62068 -0.103732 0
M  V30 5119 H 479.924 3.3977 2.41582 0
M  V30 5120 H 478.584 2.22209 2.36756 0
M  V30 5121 H 479.595 5.17696 0.145419 0
M  V30 5122 H 476.272 3.56998 2.16469 0
M  V30 5123 H 477.662 6.70812 -0.382223 0
M  V30 5124 N 480.382 0.0267497 1.57577 0
M  V30 5125 C 481.292 -0.971633 2.13533 0
M  V30 5126 C 482.308 -1.35868 1.08701 0
M  V30 5127 O 483.484 -1.44058 1.40746 0
M  V30 5128 C 480.549 -2.23622 2.64941 0
M  V30 5129 C 479.61 -1.90982 3.8448 0
M  V30 5130 C 478.843 -3.11411 4.33427 0
M  V30 5131 O 479.066 -4.23992 3.81558 0
M  V30 5132 O 478 -2.93848 5.25297 0
M  V30 5133 H 481.826 -0.525853 2.99113 0
M  V30 5134 H 479.411 -0.193712 1.48139 0
M  V30 5135 H 481.293 -2.97864 2.98086 0
M  V30 5136 H 479.968 -2.67386 1.82446 0
M  V30 5137 H 478.875 -1.14132 3.56265 0
M  V30 5138 H 480.208 -1.52036 4.6813 0
M  V30 5139 N 481.861 -1.55662 -0.24637 0
M  V30 5140 C 482.808 -1.90361 -1.30504 0
M  V30 5141 C 483.778 -0.757905 -1.47801 0
M  V30 5142 O 484.963 -1.01161 -1.61775 0
M  V30 5143 C 482.103 -2.2042 -2.65535 0
M  V30 5144 C 481.216 -3.47799 -2.56242 0
M  V30 5145 C 480.351 -3.67426 -3.8363 0
M  V30 5146 C 479.39 -4.88403 -3.68956 0
M  V30 5147 N 478.527 -5.04548 -4.88237 0
M  V30 5148 H 483.367 -2.80645 -1.00213 0
M  V30 5149 H 480.904 -1.38924 -0.483577 0
M  V30 5150 H 482.862 -2.35853 -3.44135 0
M  V30 5151 H 481.492 -1.3334 -2.93973 0
M  V30 5152 H 480.544 -3.40694 -1.69208 0
M  V30 5153 H 481.856 -4.36544 -2.4131 0
M  V30 5154 H 481.01 -3.82821 -4.70673 0
M  V30 5155 H 479.749 -2.76914 -4.01459 0
M  V30 5156 H 478.754 -4.72984 -2.80296 0
M  V30 5157 H 479.979 -5.80375 -3.52621 0
M  V30 5158 H 477.925 -4.16974 -5.06427 0
M  V30 5159 H 477.842 -5.87384 -4.75937 0
M  V30 5160 H 479.11 -5.24355 -5.76777 0
M  V30 5161 N 483.339 0.512053 -1.4905 0
M  V30 5162 C 484.75 1.09376 -1.51307 0
M  V30 5163 C 485.101 1.94 -0.292971 0
M  V30 5164 O 484.226 2.07965 0.598277 0
M  V30 5165 C 484.821 1.99031 -2.74176 0
M  V30 5166 C 483.38 2.52385 -2.79247 0
M  V30 5167 C 482.527 1.29749 -2.45073 0
M  V30 5168 H 485.478 0.296467 -1.55906 0
M  V30 5169 H 485.499 2.83569 -2.53711 0
M  V30 5170 H 485.011 1.37412 -3.62959 0
M  V30 5171 H 483.112 3.17673 -1.94716 0
M  V30 5172 H 483.225 2.90293 -3.81139 0
M  V30 5173 H 481.589 1.61912 -1.96612 0
M  V30 5174 H 482.372 0.698555 -3.36118 0
M  V30 5175 N 484.817 1.37938 0.762283 0
M  V30 5176 C 486.064 1.33668 1.52115 0
M  V30 5177 C 486.392 -0.0759538 1.94352 0
M  V30 5178 O 485.647 -1.05121 1.6507 0
M  V30 5179 C 485.946 2.23042 2.79261 0
M  V30 5180 C 485.612 3.71159 2.56031 0
M  V30 5181 C 484.274 4.11523 2.49404 0
M  V30 5182 C 486.626 4.64955 2.35513 0
M  V30 5183 C 483.954 5.43784 2.20263 0
M  V30 5184 C 486.306 5.97464 2.07894 0
M  V30 5185 C 484.97 6.36922 1.99718 0
M  V30 5186 H 484.24 0.489127 0.556629 0
M  V30 5187 H 486.887 1.70224 0.877262 0
M  V30 5188 H 485.192 1.79512 3.48256 0
M  V30 5189 H 486.889 2.17047 3.37182 0
M  V30 5190 H 483.479 3.39153 2.62056 0
M  V30 5191 H 487.663 4.34623 2.39617 0
M  V30 5192 H 482.919 5.73307 2.12435 0
M  V30 5193 H 487.093 6.6969 1.91019 0
M  V30 5194 H 484.72 7.39331 1.76902 0
M  V30 5195 N 486.295 -0.989507 1.22664 0
M  V30 5196 C 487.541 -1.7321 1.05481 0
M  V30 5197 C 487.874 -1.89852 -0.408635 0
M  V30 5198 O 487.149 -1.44416 -1.30285 0
M  V30 5199 C 487.432 -3.1357 1.77047 0
M  V30 5200 C 487.285 -3.04555 3.31008 0
M  V30 5201 C 488.604 -4.12812 1.5256 0
M  V30 5202 H 485.723 -0.628697 0.384589 0
M  V30 5203 H 488.365 -1.15258 1.51049 0
M  V30 5204 H 486.515 -3.63046 1.3831 0
M  V30 5205 H 488.187 -2.62674 3.7921 0
M  V30 5206 H 486.43 -2.41278 3.6051 0
M  V30 5207 H 487.101 -4.03894 3.76263 0
M  V30 5208 H 489.577 -3.72106 1.86215 0
M  V30 5209 H 488.453 -5.09132 2.05124 0
M  V30 5210 H 488.714 -4.39711 0.458936 0
M  V30 5211 N 487.773 -1.03688 -1.18687 0
M  V30 5212 C 488.736 -0.629115 -2.20397 0
M  V30 5213 C 489.736 0.311495 -1.57754 0
M  V30 5214 O 490.926 0.0974107 -1.73927 0
M  V30 5215 C 488.058 0.0782231 -3.4081 0
M  V30 5216 H 489.251 -1.52915 -2.57987 0
M  V30 5217 H 486.804 -0.828988 -1.32505 0
M  V30 5218 H 487.539 0.992233 -3.08748 0
M  V30 5219 H 487.324 -0.597776 -3.87517 0
M  V30 5220 H 488.814 0.350156 -4.16129 0
M  V30 5221 N 489.251 1.34841 -0.815825 0
M  V30 5222 C 490.498 1.98499 -0.400535 0
M  V30 5223 C 490.826 1.64699 1.03463 0
M  V30 5224 O 490.081 0.907006 1.73412 0
M  V30 5225 C 490.38 3.53273 -0.541541 0
M  V30 5226 C 490.046 4.06966 -1.94138 0
M  V30 5227 C 488.708 4.21341 -2.32433 0
M  V30 5228 C 491.06 4.35933 -2.85677 0
M  V30 5229 C 488.388 4.62007 -3.61617 0
M  V30 5230 C 490.74 4.78042 -4.14317 0
M  V30 5231 C 489.404 4.90622 -4.52599 0
M  V30 5232 H 488.674 0.72636 -0.146566 0
M  V30 5233 H 491.321 1.60902 -1.0384 0
M  V30 5234 H 489.626 3.91387 0.179741 0
M  V30 5235 H 491.323 4.00497 -0.20085 0
M  V30 5236 H 487.913 3.96235 -1.63388 0
M  V30 5237 H 492.097 4.24372 -2.57337 0
M  V30 5238 H 487.353 4.69937 -3.91113 0
M  V30 5239 H 491.527 4.99415 -4.85342 0
M  V30 5240 H 489.154 5.2189 -5.52752 0
M  V30 5241 N 490.729 0.570148 1.46925 0
M  V30 5242 C 491.977 0.0508523 2.02036 0
M  V30 5243 C 492.298 -1.30885 1.44548 0
M  V30 5244 O 491.568 -1.85647 0.625453 0
M  V30 5245 H 490.148 0.0158088 0.746833 0
M  V30 5246 H 492.81 0.743086 1.80178 0
M  V30 5247 H 491.906 -0.027575 3.12088 0
M  V30 5248 N 492.207 -1.54576 0.307264 0
M  V30 5249 C 493.432 -2.05139 -0.305379 0
M  V30 5250 C 493.857 -1.18278 -1.46259 0
M  V30 5251 O 493.215 -0.188243 -1.8032 0
M  V30 5252 C 493.263 -3.53066 -0.733283 0
M  V30 5253 O 492.367 -3.69206 -1.83741 0
M  V30 5254 H 491.708 -0.661444 -0.0582105 0
M  V30 5255 H 494.238 -1.99569 0.450931 0
M  V30 5256 H 494.248 -3.95034 -1.02039 0
M  V30 5257 H 492.923 -4.15746 0.113198 0
M  V30 5258 H 491.5 -3.39143 -1.55037 0
M  V30 5259 N 493.685 -0.035106 -1.57561 0
M  V30 5260 C 494.933 0.64096 -1.91667 0
M  V30 5261 C 495.254 1.72323 -0.912681 0
M  V30 5262 O 494.524 1.95849 0.0449089 0
M  V30 5263 H 493.104 0.239743 -0.707483 0
M  V30 5264 H 495.766 -0.084321 -1.94718 0
M  V30 5265 H 494.862 1.08987 -2.92452 0
M  V30 5266 N 495.163 1.55791 0.238111 0
M  V30 5267 C 496.096 1.86036 1.32158 0
M  V30 5268 C 497.074 0.716216 1.45976 0
M  V30 5269 O 498.258 0.962882 1.62052 0
M  V30 5270 C 495.385 2.05281 2.69402 0
M  V30 5271 C 494.431 3.27939 2.72687 0
M  V30 5272 S 495.264 4.84342 2.28413 0
M  V30 5273 C 496.42 5.06604 3.67565 0
M  V30 5274 H 496.653 2.77644 1.06306 0
M  V30 5275 H 494.186 1.48012 0.439537 0
M  V30 5276 H 496.144 2.17053 3.48423 0
M  V30 5277 H 494.805 1.14499 2.92487 0
M  V30 5278 H 493.998 3.38398 3.73501 0
M  V30 5279 H 493.6 3.14938 2.01717 0
M  V30 5280 H 495.892 4.94486 4.6313 0
M  V30 5281 H 496.835 6.08554 3.62033 0
M  V30 5282 H 497.243 4.34409 3.60485 0
M  V30 5283 N 496.642 -0.504142 1.49319 0
M  V30 5284 C 497.552 -1.63248 1.68486 0
M  V30 5285 C 498.568 -1.64488 0.567432 0
M  V30 5286 O 499.744 -1.82966 0.841749 0
M  V30 5287 C 496.809 -2.99627 1.74426 0
M  V30 5288 C 495.87 -3.09039 2.97982 0
M  V30 5289 C 495.103 -4.38913 3.0363 0
M  V30 5290 O 495.326 -5.27528 2.16958 0
M  V30 5291 O 494.26 -4.53231 3.96062 0
M  V30 5292 H 498.086 -1.50008 2.64067 0
M  V30 5293 H 495.671 -0.680086 1.33023 0
M  V30 5294 H 497.553 -3.80689 1.80705 0
M  V30 5295 H 496.228 -3.13136 0.820233 0
M  V30 5296 H 495.135 -2.27177 2.97223 0
M  V30 5297 H 496.468 -3.00456 3.89855 0
M  V30 5298 N 498.12 -1.38341 -0.754957 0
M  V30 5299 C 499.345 -1.37882 -1.5493 0
M  V30 5300 C 499.77 0.0296385 -1.88077 0
M  V30 5301 O 499.128 1.01133 -1.50472 0
M  V30 5302 C 499.176 -2.23996 -2.82592 0
M  V30 5303 O 498.28 -1.65612 -3.77686 0
M  V30 5304 H 497.621 -0.470384 -0.468652 0
M  V30 5305 H 500.151 -1.82084 -0.933082 0
M  V30 5306 H 500.161 -2.37806 -3.3153 0
M  V30 5307 H 498.836 -3.26365 -2.57796 0
M  V30 5308 H 497.413 -1.60936 -3.36384 0
M  V30 5309 N 499.598 0.982988 -1.23187 0
M  V30 5310 C 500.528 2.09301 -1.03515 0
M  V30 5311 C 501.509 1.70035 0.0471136 0
M  V30 5312 O 502.694 1.93847 -0.117029 0
M  V30 5313 C 499.824 3.4167 -0.622791 0
M  V30 5314 C 498.778 3.94828 -1.65211 0
M  V30 5315 C 498.104 5.23362 -1.09527 0
M  V30 5316 C 499.404 4.2439 -3.04451 0
M  V30 5317 H 501.098 2.26016 -1.96359 0
M  V30 5318 H 498.644 1.08611 -0.945501 0
M  V30 5319 H 500.597 4.18746 -0.472233 0
M  V30 5320 H 499.321 3.24811 0.341329 0
M  V30 5321 H 497.98 3.19895 -1.79061 0
M  V30 5322 H 497.628 5.02852 -0.122211 0
M  V30 5323 H 497.328 5.59895 -1.783 0
M  V30 5324 H 498.852 6.03062 -0.956511 0
M  V30 5325 H 500.266 4.92225 -2.93917 0
M  V30 5326 H 498.663 4.72118 -3.70438 0
M  V30 5327 H 499.733 3.31765 -3.53638 0
M  V30 5328 N 501.076 1.04316 1.18135 0
M  V30 5329 C 502.322 0.749128 1.88457 0
M  V30 5330 C 502.655 -0.72149 1.803 0
M  V30 5331 O 501.93 -1.52676 1.205 0
M  V30 5332 C 502.213 1.21905 3.38838 0
M  V30 5333 C 502.066 2.75195 3.55792 0
M  V30 5334 C 503.385 0.811085 4.32561 0
M  V30 5335 H 500.504 0.273611 0.684329 0
M  V30 5336 H 503.146 1.29561 1.38975 0
M  V30 5337 H 501.296 0.754137 3.8111 0
M  V30 5338 H 502.968 3.29743 3.22595 0
M  V30 5339 H 501.211 3.14899 2.98364 0
M  V30 5340 H 501.882 3.03135 4.61317 0
M  V30 5341 H 504.358 1.21118 3.98082 0
M  V30 5342 H 503.234 1.16761 5.36338 0
M  V30 5343 H 503.495 -0.285596 4.41177 0
M  V30 5344 N 502.554 -1.34406 0.822964 0
M  V30 5345 C 503.464 -2.33298 0.246838 0
M  V30 5346 C 504.48 -1.62625 -0.618797 0
M  V30 5347 O 505.656 -1.94391 -0.526685 0
M  V30 5348 C 502.721 -3.41785 -0.581731 0
M  V30 5349 C 501.782 -4.28206 0.306309 0
M  V30 5350 C 501.015 -5.31512 -0.48281 0
M  V30 5351 O 501.238 -5.43973 -1.71607 0
M  V30 5352 O 500.172 -6.01749 0.134884 0
M  V30 5353 H 503.998 -2.84401 1.06534 0
M  V30 5354 H 501.583 -1.37466 0.585108 0
M  V30 5355 H 503.465 -4.08028 -1.05313 0
M  V30 5356 H 502.14 -2.92925 -1.37756 0
M  V30 5357 H 501.047 -3.64885 0.825199 0
M  V30 5358 H 502.38 -4.80507 1.06649 0
M  V30 5359 N 504.032 -0.577932 -1.46621 0
M  V30 5360 C 504.995 0.147805 -2.28723 0
M  V30 5361 C 505.995 0.823325 -1.38123 0
M  V30 5362 O 507.185 0.676011 -1.60548 0
M  V30 5363 C 504.317 1.21853 -3.18378 0
M  V30 5364 H 505.51 -0.573654 -2.94362 0
M  V30 5365 H 503.063 -0.335703 -1.52652 0
M  V30 5366 H 503.798 1.97173 -2.57475 0
M  V30 5367 H 503.583 0.738714 -3.85078 0
M  V30 5368 H 505.073 1.72768 -3.80186 0
M  V30 5369 N 505.51 1.54411 -0.315457 0
M  V30 5370 C 506.738 2.04833 0.291738 0
M  V30 5371 C 507.153 1.19203 1.46411 0
M  V30 5372 O 506.51 0.220867 1.81159 0
M  V30 5373 C 506.561 3.53969 0.73404 0
M  V30 5374 O 506.282 4.36346 -0.391682 0
M  V30 5375 C 507.783 4.2045 1.40489 0
M  V30 5376 H 505.003 0.668195 0.0612947 0
M  V30 5377 H 507.547 1.99276 -0.45929 0
M  V30 5378 H 505.702 3.5984 1.43506 0
M  V30 5379 H 506.116 5.24481 -0.0447088 0
M  V30 5380 H 507.59 5.26278 1.66539 0
M  V30 5381 H 508.067 3.71067 2.3496 0
M  V30 5382 H 508.673 4.18694 0.746662 0
M  V30 5383 N 506.988 0.0434614 1.5754 0
M  V30 5384 C 508.234 -0.632971 1.92669 0
M  V30 5385 C 508.567 -1.70947 0.921446 0
M  V30 5386 O 507.842 -1.94426 -0.0537202 0
M  V30 5387 C 508.125 -1.23619 3.38216 0
M  V30 5388 C 507.978 -0.168274 4.49485 0
M  V30 5389 C 509.297 -2.15008 3.84005 0
M  V30 5390 H 506.416 -0.228629 0.700641 0
M  V30 5391 H 509.058 0.103651 1.89717 0
M  V30 5392 H 507.208 -1.864 3.40863 0
M  V30 5393 H 508.88 0.463196 4.58969 0
M  V30 5394 H 507.123 0.504581 4.30855 0
M  V30 5395 H 507.794 -0.630218 5.48391 0
M  V30 5396 H 510.27 -1.62198 3.83185 0
M  V30 5397 H 509.146 -2.54161 4.86511 0
M  V30 5398 H 509.407 -3.04707 3.20322 0
M  V30 5399 N 508.466 -1.55915 -0.229846 0
M  V30 5400 C 509.714 -1.7819 -0.953565 0
M  V30 5401 C 510.035 -0.610504 -1.85197 0
M  V30 5402 O 509.305 0.372988 -1.92316 0
M  V30 5403 H 507.885 -0.657208 -0.355087 0
M  V30 5404 H 510.547 -1.9337 -0.243693 0
M  V30 5405 H 509.643 -2.70011 -1.56527 0
M  V30 5406 N 509.944 0.496216 -1.49584 0
M  V30 5407 C 510.854 1.62352 -1.69349 0
M  V30 5408 C 511.87 1.64184 -0.576147 0
M  V30 5409 O 513.046 1.82517 -0.85144 0
M  V30 5410 C 510.111 2.98698 -1.76013 0
M  V30 5411 C 509.172 3.07454 -2.99617 0
M  V30 5412 C 508.405 4.37296 -3.05953 0
M  V30 5413 O 508.628 5.2637 -2.19752 0
M  V30 5414 O 507.562 4.51124 -3.9846 0
M  V30 5415 H 511.388 1.48606 -2.64859 0
M  V30 5416 H 508.973 0.673022 -1.33382 0
M  V30 5417 H 510.855 3.79725 -1.82721 0
M  V30 5418 H 509.53 3.12696 -0.836828 0
M  V30 5419 H 508.437 2.25597 -2.98424 0
M  V30 5420 H 509.77 2.98385 -3.91443 0
M  V30 5421 N 511.423 1.38739 0.74761 0
M  V30 5422 C 512.839 1.20067 1.05148 0
M  V30 5423 C 513.039 0.0534835 2.01429 0
M  V30 5424 O 512.095 -0.59886 2.45296 0
M  V30 5425 C 513.408 2.52957 1.62584 0
M  V30 5426 C 514.956 2.59692 1.74726 0
M  V30 5427 C 515.431 3.92772 2.35573 0
M  V30 5428 N 516.922 3.94343 2.42997 0
M  V30 5429 C 517.657 4.9408 2.90985 0
M  V30 5430 N 517.153 6.04214 3.38965 0
M  V30 5431 N 518.946 4.81466 2.9008 0
M  V30 5432 H 511.097 2.12121 0.108808 0
M  V30 5433 H 513.36 0.941491 0.110899 0
M  V30 5434 H 513.066 3.37389 0.993051 0
M  V30 5435 H 512.94 2.71779 2.61565 0
M  V30 5436 H 515.327 1.75651 2.3713 0
M  V30 5437 H 515.408 2.44731 0.744326 0
M  V30 5438 H 515.052 4.77238 1.738 0
M  V30 5439 H 514.982 4.05046 3.36519 0
M  V30 5440 H 517.473 3.14799 2.0907 0
M  V30 5441 H 517.786 6.76241 3.74056 0
M  V30 5442 H 516.131 6.07825 3.37007 0
M  V30 5443 H 519.322 3.94535 2.51912 0
M  V30 5444 H 519.495 5.59344 3.27166 0
M  V30 5445 N 512.901 -0.976442 1.23707 0
M  V30 5446 C 514.147 -1.72081 1.07312 0
M  V30 5447 C 514.48 -1.90275 -0.388476 0
M  V30 5448 O 513.755 -1.4579 -1.28746 0
M  V30 5449 C 514.038 -3.11675 1.80363 0
M  V30 5450 C 513.891 -3.01027 3.3422 0
M  V30 5451 C 515.21 -4.1117 1.5693 0
M  V30 5452 H 512.329 -0.624583 0.391236 0
M  V30 5453 H 514.971 -1.13649 1.52263 0
M  V30 5454 H 513.121 -3.61559 1.42153 0
M  V30 5455 H 514.793 -2.58637 3.81975 0
M  V30 5456 H 513.036 -2.3744 3.63049 0
M  V30 5457 H 513.707 -3.9988 3.80525 0
M  V30 5458 H 516.183 -3.7011 1.90151 0
M  V30 5459 H 515.059 -5.06928 2.10513 0
M  V30 5460 H 515.32 -4.392 0.505548 0
M  V30 5461 N 514.379 -1.04941 -1.1758 0
M  V30 5462 C 515.795 -0.770282 -1.39781 0
M  V30 5463 C 515.995 0.636417 -1.91186 0
M  V30 5464 O 515.051 1.39923 -2.10185 0
M  V30 5465 C 516.364 -1.82376 -2.3908 0
M  V30 5466 C 517.912 -1.84569 -2.52791 0
M  V30 5467 C 518.387 -2.88933 -3.55361 0
M  V30 5468 N 519.878 -2.8788 -3.62877 0
M  V30 5469 C 520.613 -3.65282 -4.41992 0
M  V30 5470 N 520.109 -4.52461 -5.24643 0
M  V30 5471 N 521.902 -3.53732 -4.36841 0
M  V30 5472 H 514.053 -1.95705 -0.825438 0
M  V30 5473 H 516.316 -0.847284 -0.425222 0
M  V30 5474 H 516.022 -2.83323 -2.08376 0
M  V30 5475 H 515.896 -1.66327 -3.38549 0
M  V30 5476 H 518.283 -0.842879 -2.82807 0
M  V30 5477 H 518.364 -2.04696 -1.53406 0
M  V30 5478 H 518.008 -3.89398 -3.26085 0
M  V30 5479 H 517.938 -2.66059 -4.54445 0
M  V30 5480 H 520.429 -2.24666 -3.03864 0
M  V30 5481 H 520.742 -5.08211 -5.82187 0
M  V30 5482 H 519.087 -4.56524 -5.24033 0
M  V30 5483 H 522.278 -2.85021 -3.71323 0
M  V30 5484 H 522.451 -4.14302 -4.98255 0
M  V30 5485 N 515.857 1.33968 -0.830081 0
M  V30 5486 C 517.106 1.97323 -0.417928 0
M  V30 5487 C 517.419 1.6652 1.02618 0
M  V30 5488 O 518.625 2.2342 1.54259 0
M  V30 5489 C 517.081 3.53099 -0.696359 0
M  V30 5490 C 516.689 3.92788 -2.15457 0
M  V30 5491 C 518.433 4.23049 -0.350724 0
M  V30 5492 C 516.34 5.41506 -2.37751 0
M  V30 5493 H 515.27 0.738409 -0.152541 0
M  V30 5494 H 517.921 1.52711 -1.01744 0
M  V30 5495 H 516.303 3.95991 -0.0265904 0
M  V30 5496 H 517.477 3.6098 -2.86408 0
M  V30 5497 H 515.792 3.35795 -2.46232 0
M  V30 5498 H 518.389 5.32403 -0.495036 0
M  V30 5499 H 518.732 4.10279 0.705476 0
M  V30 5500 H 519.265 3.85657 -0.975362 0
M  V30 5501 H 516.004 5.5927 -3.41903 0
M  V30 5502 H 515.524 5.74804 -1.7135 0
M  V30 5503 H 517.203 6.0828 -2.20465 0
M  V30 5504 N 517.335 0.585699 1.46312 0
M  V30 5505 C 518.746 0.159938 1.86014 0
M  V30 5506 C 519.097 -1.27775 1.48889 0
M  V30 5507 O 518.222 -1.96559 0.90519 0
M  V30 5508 C 518.817 0.283485 3.37612 0
M  V30 5509 C 517.376 -0.0874256 3.76298 0
M  V30 5510 C 516.523 0.618055 2.70325 0
M  V30 5511 H 519.474 0.793737 1.37425 0
M  V30 5512 H 519.495 -0.490348 3.77327 0
M  V30 5513 H 519.007 1.32995 3.64601 0
M  V30 5514 H 517.108 -1.13391 3.54927 0
M  V30 5515 H 517.221 0.290975 4.78216 0
M  V30 5516 H 515.585 0.057993 2.54634 0
M  V30 5517 H 516.368 1.66623 3.00153 0
M  V30 5518 N 518.813 -1.54241 0.323641 0
M  V30 5519 C 519.776 -2.22997 -0.529602 0
M  V30 5520 C 520.776 -1.22345 -1.04347 0
M  V30 5521 O 521.966 -1.46924 -0.935889 0
M  V30 5522 C 519.098 -2.93409 -1.73562 0
M  V30 5523 H 520.291 -2.99815 0.0714518 0
M  V30 5524 H 517.844 -1.56121 0.0747258 0
M  V30 5525 H 518.579 -2.20729 -2.37591 0
M  V30 5526 H 518.364 -3.67217 -1.37456 0
M  V30 5527 H 519.854 -3.45794 -2.34128 0
M  V30 5528 N 520.291 -0.0518155 -1.57515 0
M  V30 5529 C 521.238 0.922352 -2.11569 0
M  V30 5530 C 522.208 1.30842 -1.02321 0
M  V30 5531 O 523.393 1.39778 -1.29872 0
M  V30 5532 C 520.533 2.19167 -2.6657 0
M  V30 5533 C 519.646 1.86003 -3.89906 0
M  V30 5534 C 518.781 3.07398 -4.33221 0
M  V30 5535 C 517.82 2.70158 -5.49255 0
M  V30 5536 N 516.957 3.84248 -5.8762 0
M  V30 5537 H 521.797 0.454506 -2.94514 0
M  V30 5538 H 519.334 0.212718 -1.45554 0
M  V30 5539 H 521.292 2.93443 -2.96559 0
M  V30 5540 H 519.922 2.63528 -1.86421 0
M  V30 5541 H 518.974 1.01874 -3.66505 0
M  V30 5542 H 520.286 1.54592 -4.74239 0
M  V30 5543 H 519.44 3.89972 -4.64765 0
M  V30 5544 H 518.179 3.41988 -3.477 0
M  V30 5545 H 517.184 1.86001 -5.17382 0
M  V30 5546 H 518.409 2.36759 -6.36492 0
M  V30 5547 H 516.355 4.18638 -5.05053 0
M  V30 5548 H 516.272 3.56538 -6.66646 0
M  V30 5549 H 517.54 4.6746 -6.2378 0
M  V30 5550 N 521.769 1.56035 0.221574 0
M  V30 5551 C 522.999 1.82864 0.961468 0
M  V30 5552 C 523.407 0.628703 1.78449 0
M  V30 5553 O 522.75 -0.412109 1.79018 0
M  V30 5554 C 522.812 3.03425 1.92804 0
M  V30 5555 C 522.476 4.38429 1.28954 0
M  V30 5556 C 523.473 5.15441 0.679431 0
M  V30 5557 C 521.158 4.85151 1.30131 0
M  V30 5558 C 523.152 6.37337 0.0896148 0
M  V30 5559 C 520.839 6.06989 0.707651 0
M  V30 5560 C 521.837 6.82923 0.102855 0
M  V30 5561 O 521.525 8.02456 -0.48157 0
M  V30 5562 H 521.257 0.611883 0.28736 0
M  V30 5563 H 523.811 2.0397 0.241932 0
M  V30 5564 H 522.041 2.78138 2.68656 0
M  V30 5565 H 523.73 3.17127 2.53348 0
M  V30 5566 H 524.496 4.80452 0.662661 0
M  V30 5567 H 520.375 4.26021 1.76145 0
M  V30 5568 H 523.919 6.96547 -0.383069 0
M  V30 5569 H 519.816 6.41451 0.721834 0
M  V30 5570 H 520.584 8.17636 -0.375887 0
M  V30 5571 N 523.247 -0.488276 1.49845 0
M  V30 5572 C 524.177 -1.59675 1.70371 0
M  V30 5573 C 525.158 -1.60878 0.552473 0
M  V30 5574 O 526.343 -1.77417 0.78973 0
M  V30 5575 C 523.473 -2.98098 1.782 0
M  V30 5576 C 522.427 -3.11761 2.93239 0
M  V30 5577 C 521.753 -4.51661 2.86193 0
M  V30 5578 C 523.053 -2.90589 4.33999 0
M  V30 5579 H 524.747 -1.42752 2.63177 0
M  V30 5580 H 522.293 -0.685317 1.26647 0
M  V30 5581 H 524.246 -3.75555 1.91144 0
M  V30 5582 H 522.97 -3.16138 0.820018 0
M  V30 5583 H 521.629 -2.36732 2.79917 0
M  V30 5584 H 521.277 -4.66595 1.87877 0
M  V30 5585 H 520.977 -4.61742 3.63412 0
M  V30 5586 H 522.501 -5.31162 3.01163 0
M  V30 5587 H 523.915 -3.57807 4.47936 0
M  V30 5588 H 522.312 -3.1213 5.12538 0
M  V30 5589 H 523.382 -1.86595 4.4756 0
M  V30 5590 N 524.725 -1.39134 -0.740242 0
M  V30 5591 C 525.973 -1.35803 -1.49673 0
M  V30 5592 C 526.294 0.0470897 -1.94943 0
M  V30 5593 O 525.564 0.997347 -1.68611 0
M  V30 5594 H 524.144 -0.499736 -0.555224 0
M  V30 5595 H 526.806 -1.73947 -0.879107 0
M  V30 5596 H 525.902 -2.0174 -2.38133 0
M  V30 5597 N 526.204 0.969867 -1.24223 0
M  V30 5598 C 527.434 1.74502 -1.106 0
M  V30 5599 C 527.842 1.86038 0.344483 0
M  V30 5600 O 527.185 1.3465 1.24961 0
M  V30 5601 C 527.247 3.18391 -1.66935 0
M  V30 5602 C 526.911 3.30334 -3.15798 0
M  V30 5603 C 527.908 3.15832 -4.12973 0
M  V30 5604 C 525.593 3.54644 -3.55715 0
M  V30 5605 C 527.587 3.25461 -5.48045 0
M  V30 5606 C 525.274 3.63912 -4.90929 0
M  V30 5607 C 526.272 3.49332 -5.86904 0
M  V30 5608 O 525.96 3.58251 -7.1966 0
M  V30 5609 H 525.692 0.554119 -0.387206 0
M  V30 5610 H 528.246 1.22646 -1.64764 0
M  V30 5611 H 526.476 3.71543 -1.07203 0
M  V30 5612 H 528.165 3.77707 -1.48634 0
M  V30 5613 H 528.931 2.96937 -3.83476 0
M  V30 5614 H 524.81 3.65059 -2.81519 0
M  V30 5615 H 528.354 3.13998 -6.22937 0
M  V30 5616 H 524.251 3.82319 -5.20098 0
M  V30 5617 H 525.019 3.7498 -7.27552 0
M  V30 5618 N 527.682 1.05563 1.17022 0
M  V30 5619 C 529.093 0.793475 1.69 0
M  V30 5620 C 529.444 -0.683882 1.83895 0
M  V30 5621 O 528.569 -1.53116 1.5292 0
M  V30 5622 C 529.164 1.43376 3.06967 0
M  V30 5623 C 527.723 1.21956 3.56095 0
M  V30 5624 C 526.87 1.51494 2.3226 0
M  V30 5625 H 529.821 1.22008 1.01487 0
M  V30 5626 H 529.842 0.845068 3.70997 0
M  V30 5627 H 529.354 2.50899 2.96093 0
M  V30 5628 H 527.455 0.163749 3.7224 0
M  V30 5629 H 527.568 1.92713 4.38633 0
M  V30 5630 H 525.932 0.935175 2.3691 0
M  V30 5631 H 526.715 2.60159 2.23992 0
M  V30 5632 N 529.16 -1.33526 0.837174 0
M  V30 5633 C 530.571 -1.80182 0.489017 0
M  V30 5634 C 530.922 -1.69285 -0.991826 0
M  V30 5635 O 530.047 -1.24113 -1.77271 0
M  V30 5636 C 530.642 -3.27149 0.880866 0
M  V30 5637 C 529.201 -3.71828 0.584872 0
M  V30 5638 C 528.348 -2.54974 1.09011 0
M  V30 5639 H 531.299 -1.21071 1.02603 0
M  V30 5640 H 531.32 -3.80024 0.190239 0
M  V30 5641 H 530.832 -3.35048 1.95869 0
M  V30 5642 H 528.933 -3.69457 -0.48295 0
M  V30 5643 H 529.046 -4.65366 1.13892 0
M  V30 5644 H 527.41 -2.4952 0.511047 0
M  V30 5645 H 528.193 -2.65637 2.17467 0
M  V30 5646 N 530.638 -0.59345 -1.46 0
M  V30 5647 C 532.049 -0.169801 -1.85926 0
M  V30 5648 C 532.4 1.26984 -1.49565 0
M  V30 5649 O 531.525 1.96076 -0.915602 0
M  V30 5650 C 532.12 -0.301385 -3.37457 0
M  V30 5651 C 530.679 0.0674684 -3.7634 0
M  V30 5652 C 529.826 -0.632383 -2.69993 0
M  V30 5653 H 532.777 -0.801014 -1.37002 0
M  V30 5654 H 532.798 0.470331 -3.77582 0
M  V30 5655 H 532.31 -1.34927 -3.63891 0
M  V30 5656 H 530.411 1.11507 -3.55523 0
M  V30 5657 H 530.524 -0.316332 -4.78055 0
M  V30 5658 H 528.888 -0.0714961 -2.546 0
M  V30 5659 H 529.671 -1.68212 -2.99265 0
M  V30 5660 N 532.116 1.54067 -0.331816 0
M  V30 5661 C 533.026 2.28322 0.539104 0
M  V30 5662 C 534.042 1.32985 1.1221 0
M  V30 5663 O 535.218 1.6601 1.1403 0
M  V30 5664 C 532.283 3.03277 1.68 0
M  V30 5665 C 531.344 4.14216 1.12798 0
M  V30 5666 C 530.577 4.85588 2.2145 0
M  V30 5667 O 530.8 4.56536 3.41952 0
M  V30 5668 O 529.734 5.72309 1.86404 0
M  V30 5669 H 533.56 3.03632 -0.0641692 0
M  V30 5670 H 531.145 1.49083 -0.0972365 0
M  V30 5671 H 533.027 3.50189 2.34405 0
M  V30 5672 H 531.702 2.30834 2.2693 0
M  V30 5673 H 530.609 3.71635 0.428782 0
M  V30 5674 H 531.942 4.88727 0.583698 0
M  V30 5675 N 533.594 0.0601682 1.57485 0
M  V30 5676 C 534.843 -0.611101 1.9222 0
M  V30 5677 C 535.156 -1.71469 0.941159 0
M  V30 5678 O 536.362 -2.44473 1.18089 0
M  V30 5679 C 534.818 -1.13832 3.41424 0
M  V30 5680 C 534.426 -0.0663596 4.47951 0
M  V30 5681 C 536.17 -1.78432 3.85178 0
M  V30 5682 C 534.077 -0.606965 5.88277 0
M  V30 5683 H 533.007 -0.232033 0.71741 0
M  V30 5684 H 535.658 0.130518 1.83035 0
M  V30 5685 H 534.04 -1.93254 3.45643 0
M  V30 5686 H 535.214 0.707682 4.55333 0
M  V30 5687 H 533.529 0.482715 4.13593 0
M  V30 5688 H 536.126 -2.1989 4.87394 0
M  V30 5689 H 536.469 -2.63966 3.21913 0
M  V30 5690 H 537.002 -1.05651 3.83514 0
M  V30 5691 H 533.741 0.21095 6.5516 0
M  V30 5692 H 533.261 -1.34879 5.84438 0
M  V30 5693 H 534.94 -1.08704 6.37803 0
M  V30 5694 N 535.072 -1.5615 -0.213296 0
M  V30 5695 C 536.019 -1.93086 -1.26437 0
M  V30 5696 C 536.989 -0.789086 -1.4616 0
M  V30 5697 O 538.174 -1.04569 -1.59593 0
M  V30 5698 C 535.314 -2.26003 -2.608 0
M  V30 5699 C 534.427 -3.53156 -2.48807 0
M  V30 5700 C 533.562 -3.7548 -3.7575 0
M  V30 5701 C 532.601 -4.96119 -3.58514 0
M  V30 5702 N 531.738 -5.14791 -4.77425 0
M  V30 5703 H 536.578 -2.82707 -0.942376 0
M  V30 5704 H 534.115 -1.39919 -0.454001 0
M  V30 5705 H 536.073 -2.431 -3.39055 0
M  V30 5706 H 534.703 -1.39546 -2.91079 0
M  V30 5707 H 533.755 -3.44207 -1.61944 0
M  V30 5708 H 535.067 -4.41565 -2.31996 0
M  V30 5709 H 534.221 -3.92718 -4.62447 0
M  V30 5710 H 532.96 -2.85368 -3.95495 0
M  V30 5711 H 531.965 -4.78823 -2.70201 0
M  V30 5712 H 533.19 -5.87724 -3.40231 0
M  V30 5713 H 531.136 -4.27623 -4.97468 0
M  V30 5714 H 531.053 -5.97347 -4.63371 0
M  V30 5715 H 532.321 -5.36471 -5.65525 0
M  V30 5716 N 536.55 0.480323 -1.50102 0
M  V30 5717 C 537.796 1.23208 -1.61837 0
M  V30 5718 C 538.151 1.89878 -0.310509 0
M  V30 5719 O 537.444 1.7871 0.690897 0
M  V30 5720 C 537.638 2.30708 -2.72963 0
M  V30 5721 C 537.467 1.74583 -4.14428 0
M  V30 5722 C 536.237 1.54964 -4.80951 0
M  V30 5723 C 538.435 1.24597 -4.98979 0
M  V30 5724 N 536.417 0.939855 -6.06663 0
M  V30 5725 C 537.788 0.758834 -6.15339 0
M  V30 5726 C 539.843 1.13365 -4.84822 0
M  V30 5727 C 538.546 0.17046 -7.19098 0
M  V30 5728 C 540.572 0.559221 -5.8875 0
M  V30 5729 C 539.934 0.082415 -7.04352 0
M  V30 5730 H 536.033 0.440065 -0.646426 0
M  V30 5731 H 538.617 0.535632 -1.87187 0
M  V30 5732 H 536.788 2.9779 -2.4935 0
M  V30 5733 H 538.52 2.97738 -2.74106 0
M  V30 5734 H 535.275 1.79926 -4.38091 0
M  V30 5735 H 535.699 0.653641 -6.73837 0
M  V30 5736 H 540.341 1.48823 -3.95742 0
M  V30 5737 H 538.059 -0.196347 -8.07861 0
M  V30 5738 H 541.645 0.474804 -5.79859 0
M  V30 5739 H 540.525 -0.355119 -7.83396 0
M  V30 5740 N 538.028 1.39524 0.732853 0
M  V30 5741 C 539.258 1.3994 1.51988 0
M  V30 5742 C 539.666 -0.00727973 1.89199 0
M  V30 5743 O 539.009 -0.989521 1.54771 0
M  V30 5744 C 539.071 2.21026 2.83527 0
M  V30 5745 C 538.735 3.69633 2.68738 0
M  V30 5746 C 539.732 4.62665 2.37143 0
M  V30 5747 C 537.417 4.13244 2.85542 0
M  V30 5748 C 539.411 5.97291 2.22536 0
M  V30 5749 C 537.098 5.47945 2.70554 0
M  V30 5750 C 538.096 6.39783 2.39097 0
M  V30 5751 O 537.784 7.72002 2.24204 0
M  V30 5752 H 537.516 0.479795 0.476206 0
M  V30 5753 H 540.07 1.8399 0.913054 0
M  V30 5754 H 538.3 1.71728 3.46477 0
M  V30 5755 H 539.989 2.13594 3.45156 0
M  V30 5756 H 540.755 4.30272 2.2381 0
M  V30 5757 H 536.634 3.42094 3.09019 0
M  V30 5758 H 540.178 6.68939 1.97905 0
M  V30 5759 H 536.075 5.79928 2.83466 0
M  V30 5760 H 536.843 7.8275 2.39258 0
M  V30 5761 N 539.506 -0.963266 1.24736 0
M  V30 5762 C 540.453 -2.05857 1.04363 0
M  V30 5763 C 541.423 -1.6604 -0.0444951 0
M  V30 5764 O 542.608 -1.90477 0.110999 0
M  V30 5765 C 539.748 -3.38745 0.659235 0
M  V30 5766 C 538.861 -3.9173 1.82131 0
M  V30 5767 C 537.996 -5.12906 1.38208 0
M  V30 5768 C 537.035 -5.58098 2.51382 0
M  V30 5769 N 536.172 -6.7049 2.08295 0
M  V30 5770 H 541.012 -2.22616 1.98107 0
M  V30 5771 H 538.549 -1.09103 0.986661 0
M  V30 5772 H 540.507 -4.15107 0.417371 0
M  V30 5773 H 539.137 -3.21898 -0.241201 0
M  V30 5774 H 538.189 -3.11966 2.17672 0
M  V30 5775 H 539.501 -4.21225 2.67153 0
M  V30 5776 H 538.655 -5.96657 1.09935 0
M  V30 5777 H 537.394 -4.85105 0.502456 0
M  V30 5778 H 536.399 -4.72917 2.80409 0
M  V30 5779 H 537.624 -5.87911 3.39909 0
M  V30 5780 H 535.57 -6.44416 1.22737 0
M  V30 5781 H 535.487 -6.99458 2.86869 0
M  V30 5782 H 536.755 -7.57672 1.83175 0
M  V30 5783 N 540.985 -1.06182 -1.16461 0
M  V30 5784 C 541.933 -0.665716 -2.2287 0
M  V30 5785 C 542.927 0.317822 -1.66392 0
M  V30 5786 O 544.133 0.182807 -1.79069 0
M  V30 5787 H 540.508 -0.197148 -0.725697 0
M  V30 5788 H 542.479 -1.57307 -2.53569 0
M  V30 5789 C 541.228 -0.0669803 -3.47635 0
M  V30 5790 H 540.551 -0.814899 -3.91407 0
M  V30 5791 H 541.991 0.172669 -4.23648 0
M  V30 5792 C 540.45 1.18913 -3.15216 0
M  V30 5793 O 540.98 2.27723 -3.30916 0
M  V30 5794 N 539.186 1.09066 -2.69357 0
M  V30 5795 H 538.733 0.20518 -2.56782 0
M  V30 5796 H 538.691 1.93195 -2.48039 0
M  V30 5797 N 542.463 1.3308 -0.844243 0
M  V30 5798 C 543.711 1.97215 -0.441676 0
M  V30 5799 C 544.032 1.67185 1.0037 0
M  V30 5800 O 543.302 0.973588 1.69994 0
M  V30 5801 H 541.882 0.72959 -0.160335 0
M  V30 5802 H 544.544 1.62348 -1.07838 0
M  V30 5803 H 543.64 3.06698 -0.57815 0
M  V30 5804 N 543.941 0.601185 1.45683 0
M  V30 5805 C 545.19 0.0914953 2.01492 0
M  V30 5806 C 545.503 -1.28331 1.47616 0
M  V30 5807 O 546.709 -1.88537 1.95362 0
M  V30 5808 C 545.165 0.11291 3.59723 0
M  V30 5809 C 544.773 1.48717 4.22596 0
M  V30 5810 C 546.517 -0.341871 4.23121 0
M  V30 5811 C 544.424 1.46531 5.7296 0
M  V30 5812 H 543.354 0.0304365 0.753385 0
M  V30 5813 H 546.005 0.755568 1.67223 0
M  V30 5814 H 544.387 -0.617692 3.91153 0
M  V30 5815 H 545.561 2.23897 4.02749 0
M  V30 5816 H 543.876 1.88351 3.71366 0
M  V30 5817 H 546.473 -0.377304 5.33367 0
M  V30 5818 H 546.816 -1.36325 3.93346 0
M  V30 5819 H 547.349 0.335256 3.96385 0
M  V30 5820 H 544.088 2.46408 6.07423 0
M  V30 5821 H 543.608 0.755997 5.95017 0
M  V30 5822 H 545.287 1.18618 6.36034 0
M  V30 5823 N 545.419 -1.53889 0.339982 0
M  V30 5824 C 546.83 -1.86139 -0.144671 0
M  V30 5825 C 547.181 -1.2613 -1.50285 0
M  V30 5826 O 546.306 -0.573515 -2.08662 0
M  V30 5827 C 546.901 -3.37728 -0.269285 0
M  V30 5828 C 545.46 -3.69868 -0.698168 0
M  V30 5829 C 544.607 -2.76777 0.170249 0
M  V30 5830 H 547.558 -1.48503 0.559704 0
M  V30 5831 H 547.579 -3.64331 -1.0974 0
M  V30 5832 H 547.091 -3.81375 0.719366 0
M  V30 5833 H 545.192 -3.31764 -1.69597 0
M  V30 5834 H 545.305 -4.76582 -0.490533 0
M  V30 5835 H 543.669 -2.52188 -0.356844 0
M  V30 5836 H 544.452 -3.23253 1.15597 0
M  V30 5837 N 546.897 -0.0685191 -1.57451 0
M  V30 5838 C 547.827 0.89747 -2.15564 0
M  V30 5839 C 548.808 1.31266 -1.08181 0
M  V30 5840 O 549.993 1.38429 -1.36202 0
M  V30 5841 C 547.123 2.16623 -2.71463 0
M  V30 5842 C 546.077 1.89054 -3.83982 0
M  V30 5843 C 545.403 3.22532 -4.26471 0
M  V30 5844 C 546.703 1.1984 -5.08366 0
M  V30 5845 H 548.397 0.413373 -2.96533 0
M  V30 5846 H 545.943 0.197391 -1.42641 0
M  V30 5847 H 547.896 2.84614 -3.10761 0
M  V30 5848 H 546.62 2.67269 -1.8771 0
M  V30 5849 H 545.279 1.23469 -3.45183 0
M  V30 5850 H 544.927 3.71013 -3.39644 0
M  V30 5851 H 544.627 3.04879 -5.02317 0
M  V30 5852 H 546.151 3.91727 -4.68383 0
M  V30 5853 H 547.565 1.77896 -5.45001 0
M  V30 5854 H 545.962 1.12456 -5.89469 0
M  V30 5855 H 547.032 0.176996 -4.84577 0
M  V30 5856 N 548.375 1.56261 0.205012 0
M  V30 5857 C 549.285 1.96944 1.27476 0
M  V30 5858 C 550.301 0.875636 1.50362 0
M  V30 5859 O 551.477 1.18058 1.6317 0
M  V30 5860 C 548.542 2.29219 2.60115 0
M  V30 5861 C 547.603 3.52255 2.45387 0
M  V30 5862 C 546.836 3.8298 3.71701 0
M  V30 5863 O 547.059 3.15138 4.75441 0
M  V30 5864 O 545.993 4.76435 3.67823 0
M  V30 5865 H 549.819 2.88144 0.959527 0
M  V30 5866 H 547.404 1.43686 0.409217 0
M  V30 5867 H 549.286 2.51098 3.3842 0
M  V30 5868 H 547.961 1.4119 2.91285 0
M  V30 5869 H 546.868 3.35635 1.65227 0
M  V30 5870 H 548.201 4.40719 2.19152 0
M  V30 5871 N 549.853 -0.472356 1.50355 0
M  V30 5872 C 551.078 -1.25251 1.65309 0
M  V30 5873 C 551.503 -1.85081 0.335643 0
M  V30 5874 O 550.861 -1.67227 -0.700335 0
M  V30 5875 C 550.909 -2.3379 2.74544 0
M  V30 5876 O 550.013 -3.38401 2.35709 0
M  V30 5877 H 549.354 -0.368539 0.552336 0
M  V30 5878 H 551.884 -0.562271 1.96722 0
M  V30 5879 H 551.894 -2.79121 2.97583 0
M  V30 5880 H 550.569 -1.89614 3.70161 0
M  V30 5881 H 549.146 -2.9879 2.23112 0
M  V30 5882 N 551.331 -1.39911 -0.725443 0
M  V30 5883 C 552.279 -1.39552 -1.86086 0
M  V30 5884 C 553.273 -0.277334 -1.67114 0
M  V30 5885 O 554.479 -0.447865 -1.74339 0
M  V30 5886 H 550.854 -0.435993 -0.612711 0
M  V30 5887 H 552.825 -2.35305 -1.83505 0
M  V30 5888 C 551.574 -1.26529 -3.2386 0
M  V30 5889 H 550.897 -2.11845 -3.3906 0
M  V30 5890 H 552.337 -1.30336 -4.03471 0
M  V30 5891 C 550.796 0.0254168 -3.3689 0
M  V30 5892 O 551.326 0.992048 -3.89257 0
M  V30 5893 N 549.532 0.0916528 -2.90455 0
M  V30 5894 H 549.079 -0.695675 -2.48028 0
M  V30 5895 H 549.037 0.954745 -2.99553 0
M  V30 5896 N 552.809 0.956637 -1.25245 0
M  V30 5897 C 553.759 2.03841 -1.02141 0
M  V30 5898 C 554.743 1.60848 0.0410058 0
M  V30 5899 O 555.935 1.76142 -0.174084 0
M  V30 5900 C 553.064 3.37282 -0.639963 0
M  V30 5901 C 552.15 3.86805 -1.73903 0
M  V30 5902 N 552.541 4.09143 -2.97381 0
M  V30 5903 C 550.839 4.15574 -1.61909 0
M  V30 5904 C 551.54 4.49923 -3.68707 0
M  V30 5905 N 550.516 4.55737 -2.96318 0
M  V30 5906 H 554.318 2.19102 -1.95886 0
M  V30 5907 H 551.832 1.1413 -1.15534 0
M  V30 5908 H 553.829 4.14403 -0.455643 0
M  V30 5909 H 552.489 3.23401 0.29018 0
M  V30 5910 H 553.5 3.96275 -3.33447 0
M  V30 5911 H 550.177 4.10566 -0.757764 0
M  V30 5912 H 551.567 4.75526 -4.74684 0
M  V30 5913 N 554.287 1.06798 1.15896 0
M  V30 5914 C 555.515 0.808694 1.90441 0
M  V30 5915 C 555.93 -0.637506 1.77711 0
M  V30 5916 O 555.287 -1.43684 1.12522 0
M  V30 5917 C 555.338 1.20068 3.40978 0
M  V30 5918 O 555.059 2.59013 3.53333 0
M  V30 5919 C 556.56 0.96987 4.3256 0
M  V30 5920 H 553.78 0.292809 0.603742 0
M  V30 5921 H 556.324 1.42296 1.46874 0
M  V30 5922 H 554.479 0.630842 3.82229 0
M  V30 5923 H 554.893 2.7485 4.46719 0
M  V30 5924 H 556.367 1.29371 5.36626 0
M  V30 5925 H 556.844 -0.0941209 4.39099 0
M  V30 5926 H 557.45 1.52433 3.97044 0
M  V30 5927 N 555.766 -1.3263 0.851289 0
M  V30 5928 C 557.015 -1.96633 0.449267 0
M  V30 5929 C 557.328 -1.68131 -0.999562 0
M  V30 5930 O 558.534 -2.25845 -1.50685 0
M  V30 5931 C 556.99 -3.51946 0.752446 0
M  V30 5932 C 556.598 -3.89311 2.21678 0
M  V30 5933 C 558.342 -4.22437 0.417983 0
M  V30 5934 C 556.249 -5.37655 2.46336 0
M  V30 5935 H 555.179 -0.735888 0.164269 0
M  V30 5936 H 557.83 -1.51073 1.0416 0
M  V30 5937 H 556.212 -3.95899 0.0895858 0
M  V30 5938 H 557.386 -3.56378 2.92115 0
M  V30 5939 H 555.701 -3.31836 2.51543 0
M  V30 5940 H 558.298 -5.31549 0.579674 0
M  V30 5941 H 558.641 -4.11349 -0.640115 0
M  V30 5942 H 559.174 -3.84057 1.03659 0
M  V30 5943 H 555.913 -5.5376 3.50757 0
M  V30 5944 H 555.433 -5.72005 1.80473 0
M  V30 5945 H 557.112 -6.04695 2.30115 0
M  V30 5946 N 557.244 -0.608902 -1.45362 0
M  V30 5947 C 558.191 0.109172 -2.30542 0
M  V30 5948 C 559.161 0.858704 -1.42181 0
M  V30 5949 O 560.346 0.844178 -1.71109 0
M  V30 5950 C 557.486 1.09971 -3.27109 0
M  V30 5951 C 556.599 0.350911 -4.30572 0
M  V30 5952 C 555.734 1.33129 -5.14247 0
M  V30 5953 C 554.773 0.570377 -6.09437 0
M  V30 5954 N 553.91 1.5001 -6.85887 0
M  V30 5955 H 558.75 -0.623195 -2.91411 0
M  V30 5956 H 556.287 -0.319122 -1.43597 0
M  V30 5957 H 558.245 1.68714 -3.81564 0
M  V30 5958 H 556.875 1.79947 -2.67991 0
M  V30 5959 H 555.927 -0.352054 -3.78767 0
M  V30 5960 H 557.239 -0.242725 -4.98209 0
M  V30 5961 H 556.393 1.99074 -5.73109 0
M  V30 5962 H 555.132 1.95885 -4.46632 0
M  V30 5963 H 554.137 -0.102702 -5.49704 0
M  V30 5964 H 555.362 -0.0521607 -6.7908 0
M  V30 5965 H 553.308 2.11529 -6.2096 0
M  V30 5966 H 553.225 0.959934 -7.49881 0
M  V30 5967 H 554.493 2.14909 -7.49289 0
M  V30 5968 N 558.722 1.53707 -0.348139 0
M  V30 5969 C 559.685 2.23812 0.494058 0
M  V30 5970 C 560.685 1.23989 1.02388 0
M  V30 5971 O 561.875 1.48395 0.912396 0
M  V30 5972 C 559.007 2.96133 1.68872 0
M  V30 5973 H 560.2 2.99663 -0.119141 0
M  V30 5974 H 557.753 1.55983 -0.0995539 0
M  V30 5975 H 558.488 2.24481 2.34049 0
M  V30 5976 H 558.273 3.69357 1.31596 0
M  V30 5977 H 559.763 3.49475 2.28597 0
M  V30 5978 N 560.2 0.0768682 1.57412 0
M  V30 5979 C 561.448 -0.589918 1.93299 0
M  V30 5980 C 561.769 -1.69842 0.958049 0
M  V30 5981 O 561.039 -1.95899 0.00703261 0
M  V30 5982 H 559.619 -0.220901 0.713591 0
M  V30 5983 H 562.281 0.135917 1.94425 0
M  V30 5984 H 561.377 -1.01195 2.95239 0
M  V30 5985 N 561.678 -1.56367 -0.196722 0
M  V30 5986 C 562.628 -1.9082 -1.24787 0
M  V30 5987 C 563.612 -0.773719 -1.41076 0
M  V30 5988 O 564.804 -1.03655 -1.43474 0
M  V30 5989 C 561.933 -2.24982 -2.59303 0
M  V30 5990 C 561.019 -3.44882 -2.46814 0
M  V30 5991 N 561.41 -4.62835 -2.04003 0
M  V30 5992 C 559.708 -3.48988 -2.77711 0
M  V30 5993 C 560.409 -5.44993 -2.03366 0
M  V30 5994 N 559.385 -4.85356 -2.44807 0
M  V30 5995 H 563.187 -2.79516 -0.908175 0
M  V30 5996 H 560.701 -1.57265 -0.405166 0
M  V30 5997 H 562.698 -2.47848 -3.35227 0
M  V30 5998 H 561.358 -1.37611 -2.94098 0
M  V30 5999 H 562.369 -4.87532 -1.74738 0
M  V30 6000 H 559.046 -2.72029 -3.16712 0
M  V30 6001 H 560.436 -6.49464 -1.72181 0
M  V30 6002 N 563.156 0.464375 -1.50603 0
M  V30 6003 C 564.402 1.21776 -1.62168 0
M  V30 6004 C 564.735 1.91476 -0.324154 0
M  V30 6005 O 564.01 1.8242 0.674782 0
M  V30 6006 C 564.293 2.25614 -2.80661 0
M  V30 6007 C 564.146 1.60175 -4.20314 0
M  V30 6008 C 565.465 3.26862 -2.94702 0
M  V30 6009 H 562.584 0.44137 -0.590222 0
M  V30 6010 H 565.226 0.510623 -1.8301 0
M  V30 6011 H 563.376 2.85923 -2.63021 0
M  V30 6012 H 565.048 1.03411 -4.4956 0
M  V30 6013 H 563.291 0.904697 -4.24261 0
M  V30 6014 H 563.962 2.35665 -4.99165 0
M  V30 6015 H 566.438 2.76582 -3.10872 0
M  V30 6016 H 565.314 3.96839 -3.79223 0
M  V30 6017 H 565.575 3.91382 -2.05603 0
M  V30 6018 N 564.634 1.40294 0.718013 0
M  V30 6019 C 565.564 1.43118 1.84498 0
M  V30 6020 C 566.545 0.292403 1.67568 0
M  V30 6021 O 567.73 0.500675 1.87635 0
M  V30 6022 C 564.86 1.29065 3.22427 0
M  V30 6023 C 563.814 2.40521 3.54025 0
M  V30 6024 C 563.14 2.11546 4.91073 0
M  V30 6025 C 564.44 3.82859 3.55269 0
M  V30 6026 H 566.134 2.37432 1.82391 0
M  V30 6027 H 563.68 1.14283 0.87609 0
M  V30 6028 H 565.633 1.29658 4.00957 0
M  V30 6029 H 564.357 0.312271 3.25104 0
M  V30 6030 H 563.016 2.39173 2.77834 0
M  V30 6031 H 562.664 1.12104 4.90348 0
M  V30 6032 H 562.364 2.86216 5.1318 0
M  V30 6033 H 563.888 2.13817 5.71939 0
M  V30 6034 H 565.302 3.86044 4.23843 0
M  V30 6035 H 563.699 4.57029 3.88902 0
M  V30 6036 H 564.769 4.12617 2.54706 0
M  V30 6037 N 566.112 -0.949982 1.2575 0
M  V30 6038 C 567.34 -1.72972 1.13527 0
M  V30 6039 C 567.755 -1.8623 -0.310453 0
M  V30 6040 O 567.112 -1.36336 -1.2132 0
M  V30 6041 C 567.163 -3.14108 1.78936 0
M  V30 6042 O 566.884 -3.01493 3.17858 0
M  V30 6043 C 568.385 -4.08338 1.72554 0
M  V30 6044 H 565.605 -0.541864 0.395758 0
M  V30 6045 H 568.149 -1.19151 1.66202 0
M  V30 6046 H 566.304 -3.64858 1.30221 0
M  V30 6047 H 566.718 -3.90559 3.50092 0
M  V30 6048 H 568.192 -5.04963 2.22973 0
M  V30 6049 H 568.669 -4.33742 0.690251 0
M  V30 6050 H 569.275 -3.63506 2.2078 0
M  V30 6051 N 567.59 -1.07411 -1.15328 0
M  V30 6052 C 568.839 -0.792643 -1.85473 0
M  V30 6053 C 569.152 0.683789 -1.83259 0
M  V30 6054 O 570.358 1.08005 -2.49093 0
M  V30 6055 C 568.814 -1.36787 -3.32892 0
M  V30 6056 C 568.422 -2.87536 -3.43551 0
M  V30 6057 C 570.166 -1.16444 -4.08217 0
M  V30 6058 C 568.073 -3.38247 -4.85122 0
M  V30 6059 H 567.003 -0.292838 -0.694811 0
M  V30 6060 H 569.654 -1.29426 -1.30082 0
M  V30 6061 H 568.036 -0.793993 -3.87958 0
M  V30 6062 H 569.21 -3.50973 -2.98588 0
M  V30 6063 H 567.525 -3.06676 -2.81672 0
M  V30 6064 H 570.122 -1.51808 -5.12697 0
M  V30 6065 H 570.465 -0.10353 -4.16171 0
M  V30 6066 H 570.998 -1.70472 -3.59422 0
M  V30 6067 H 567.737 -4.43866 -4.82351 0
M  V30 6068 H 567.257 -2.79564 -5.30664 0
M  V30 6069 H 568.936 -3.34238 -5.5398 0
M  V30 6070 N 569.068 1.32177 -0.85831 0
M  V30 6071 C 570.001 2.26823 -0.25035 0
M  V30 6072 C 570.979 1.50571 0.61378 0
M  V30 6073 O 572.163 1.79682 0.569777 0
M  V30 6074 C 569.29 3.32472 0.646556 0
M  V30 6075 C 568.336 4.26255 -0.144675 0
M  V30 6076 S 569.169 5.13608 -1.5155 0
M  V30 6077 C 570.325 6.22778 -0.624408 0
M  V30 6078 H 570.558 2.7804 -1.05267 0
M  V30 6079 H 568.091 1.39764 -0.656152 0
M  V30 6080 H 570.049 3.93817 1.15837 0
M  V30 6081 H 568.71 2.80031 1.42272 0
M  V30 6082 H 567.903 5.01114 0.538613 0
M  V30 6083 H 567.505 3.69346 -0.588198 0
M  V30 6084 H 569.797 6.77287 0.169846 0
M  V30 6085 H 570.74 6.95233 -1.34376 0
M  V30 6086 H 571.148 5.64156 -0.197128 0
M  V30 6087 N 570.547 0.616602 1.45037 0
M  V30 6088 C 571.457 -0.0985401 2.34393 0
M  V30 6089 C 572.473 -0.850971 1.51771 0
M  V30 6090 O 573.649 -0.806521 1.84546 0
M  V30 6091 C 570.714 -1.07748 3.29532 0
M  V30 6092 C 569.775 -0.326022 4.2806 0
M  V30 6093 C 569.008 -1.25833 5.18654 0
M  V30 6094 O 569.231 -2.49652 5.12864 0
M  V30 6095 O 568.165 -0.750512 5.97203 0
M  V30 6096 H 571.991 0.636016 2.96966 0
M  V30 6097 H 569.576 0.376832 1.44569 0
M  V30 6098 H 571.458 -1.64107 3.88133 0
M  V30 6099 H 570.133 -1.79291 2.69512 0
M  V30 6100 H 569.04 0.280253 3.73049 0
M  V30 6101 H 570.373 0.349091 4.9096 0
M  V30 6102 N 572.025 -1.5352 0.356285 0
M  V30 6103 C 573.271 -2.01414 -0.236653 0
M  V30 6104 C 573.604 -1.24339 -1.49176 0
M  V30 6105 O 572.879 -0.334496 -1.91602 0
M  V30 6106 C 573.162 -3.56059 -0.537982 0
M  V30 6107 C 573.015 -4.43835 0.730112 0
M  V30 6108 C 574.334 -4.19127 -1.34239 0
M  V30 6109 H 571.453 -0.732135 -0.0845386 0
M  V30 6110 H 574.095 -1.83854 0.479341 0
M  V30 6111 H 572.245 -3.71153 -1.14795 0
M  V30 6112 H 573.917 -4.40555 1.36782 0
M  V30 6113 H 572.16 -4.1218 1.3524 0
M  V30 6114 H 572.831 -5.49958 0.474358 0
M  V30 6115 H 575.307 -4.07809 -0.826498 0
M  V30 6116 H 574.183 -5.27378 -1.52198 0
M  V30 6117 H 574.444 -3.74581 -2.34822 0
M  V30 6118 N 573.503 -0.0852151 -1.57369 0
M  V30 6119 C 574.728 0.592872 -1.98746 0
M  V30 6120 C 575.153 1.61538 -0.963689 0
M  V30 6121 O 574.511 1.81168 0.069071 0
M  V30 6122 C 574.559 1.22599 -3.39119 0
M  V30 6123 O 573.663 2.34185 -3.39457 0
M  V30 6124 H 573.004 0.151314 -0.646529 0
M  V30 6125 H 575.534 -0.163703 -2.03944 0
M  V30 6126 H 575.544 1.56965 -3.76598 0
M  V30 6127 H 574.219 0.476831 -4.13158 0
M  V30 6128 H 572.796 2.01512 -3.13763 0
M  V30 6129 N 574.981 1.5647 0.188427 0
M  V30 6130 C 575.891 1.98285 1.2538 0
M  V30 6131 C 576.907 0.891535 1.49424 0
M  V30 6132 O 578.083 1.19782 1.61908 0
M  V30 6133 C 575.148 2.31965 2.57669 0
M  V30 6134 C 574.209 3.54838 2.41638 0
M  V30 6135 C 573.442 3.86901 3.67618 0
M  V30 6136 O 573.665 3.20163 4.72072 0
M  V30 6137 O 572.599 4.80309 3.62749 0
M  V30 6138 H 576.425 2.89145 0.928912 0
M  V30 6139 H 574.01 1.44112 0.393955 0
M  V30 6140 H 575.892 2.54673 3.35737 0
M  V30 6141 H 574.567 1.44271 2.89771 0
M  V30 6142 H 573.474 3.37369 1.61658 0
M  V30 6143 H 574.807 4.43019 2.14465 0
M  V30 6144 N 576.459 -0.456382 1.50847 0
M  V30 6145 C 577.875 -0.791345 1.386 0
M  V30 6146 C 578.075 -1.9633 0.453498 0
M  V30 6147 O 577.131 -2.52308 -0.0984353 0
M  V30 6148 C 578.444 -1.08959 2.80265 0
M  V30 6149 C 579.992 -1.19517 2.89283 0
M  V30 6150 C 580.467 -1.52647 4.31814 0
M  V30 6151 N 581.958 -1.59609 4.34832 0
M  V30 6152 C 582.693 -1.86777 5.42127 0
M  V30 6153 N 582.189 -2.11866 6.59609 0
M  V30 6154 N 583.982 -1.88402 5.29586 0
M  V30 6155 H 576.133 0.315746 2.1004 0
M  V30 6156 H 578.396 0.0787916 0.94472 0
M  V30 6157 H 578.102 -0.301355 3.50407 0
M  V30 6158 H 577.976 -2.02211 3.18419 0
M  V30 6159 H 580.363 -1.97406 2.19351 0
M  V30 6160 H 580.444 -0.242111 2.54652 0
M  V30 6161 H 580.088 -0.752922 5.02288 0
M  V30 6162 H 580.018 -2.49127 4.63943 0
M  V30 6163 H 582.509 -1.42201 3.50125 0
M  V30 6164 H 582.822 -2.31912 7.37182 0
M  V30 6165 H 581.167 -2.09228 6.62758 0
M  V30 6166 H 584.358 -1.68307 4.36795 0
M  V30 6167 H 584.531 -2.09238 6.13289 0
M  V30 6168 N 577.937 -1.40673 -0.710563 0
M  V30 6169 C 579.214 -1.29718 -1.46398 0
M  V30 6170 C 579.594 0.082177 -2.1094 0
M  V30 6171 O 578.942 1.09536 -2.00534 0
M  V30 6172 C 579.152 -2.43967 -2.49562 0
M  V30 6173 C 580.5 -2.84436 -3.15248 0
M  V30 6174 O 581.524 -2.43597 -2.59883 0
M  V30 6175 O 580.383 -3.55008 -4.1549 0
M  V30 6176 H 577.477 -0.509697 -0.651258 0
M  V30 6177 H 580.023 -1.52603 -0.742312 0
M  V30 6178 H 578.795 -3.36076 -2.0042 0
M  V30 6179 H 578.418 -2.22879 -3.29258 0
M  V30 6180 N 579.415 0.9433 -1.26252 0
M  V30 6181 C 580.643 1.72367 -1.14443 0
M  V30 6182 C 581.058 1.86392 0.300572 0
M  V30 6183 O 580.415 1.36978 1.20596 0
M  V30 6184 C 580.466 3.13155 -1.806 0
M  V30 6185 O 580.187 2.99803 -3.19452 0
M  V30 6186 C 581.688 4.07417 -1.74717 0
M  V30 6187 H 578.908 0.539758 -0.398626 0
M  V30 6188 H 581.452 1.18268 -1.66832 0
M  V30 6189 H 579.607 3.64162 -1.32154 0
M  V30 6190 H 580.021 3.88697 -3.52158 0
M  V30 6191 H 581.495 5.03773 -2.25647 0
M  V30 6192 H 581.972 4.3337 -0.713244 0
M  V30 6193 H 582.578 3.6233 -2.22704 0
M  V30 6194 N 580.893 1.08022 1.14757 0
M  V30 6195 C 582.141 0.805913 1.85336 0
M  V30 6196 C 582.462 -0.670162 1.83122 0
M  V30 6197 O 581.732 -1.48567 1.2769 0
M  V30 6198 H 580.312 0.295138 0.686223 0
M  V30 6199 H 582.974 1.36538 1.3908 0
M  V30 6200 H 582.07 1.14655 2.90277 0
M  V30 6201 N 582.371 -1.3172 0.865308 0
M  V30 6202 C 583.319 -2.30569 0.306674 0
M  V30 6203 C 584.313 -1.59317 -0.575724 0
M  V30 6204 O 585.519 -1.73961 -0.462343 0
M  V30 6205 H 581.894 -0.747681 0.0804834 0
M  V30 6206 H 583.865 -2.75165 1.15441 0
M  V30 6207 C 582.614 -3.44358 -0.480952 0
M  V30 6208 H 581.937 -3.99354 0.18876 0
M  V30 6209 H 583.377 -4.15652 -0.837241 0
M  V30 6210 C 581.836 -2.92574 -1.67039 0
M  V30 6211 O 582.366 -2.90954 -2.76964 0
M  V30 6212 N 580.572 -2.48835 -1.50097 0
M  V30 6213 H 580.119 -2.50353 -0.606738 0
M  V30 6214 H 580.077 -2.14543 -2.29823 0
M  V30 6215 N 583.85 -0.624285 -1.44708 0
M  V30 6216 C 585.08 -0.132726 -2.06173 0
M  V30 6217 C 585.488 1.19513 -1.46674 0
M  V30 6218 O 584.831 1.74254 -0.581491 0
M  V30 6219 C 584.893 0.0636732 -3.59444 0
M  V30 6220 C 584.557 -1.18496 -4.4137 0
M  V30 6221 C 585.553 -2.10706 -4.75288 0
M  V30 6222 C 583.239 -1.41846 -4.81856 0
M  V30 6223 C 585.233 -3.24582 -5.48567 0
M  V30 6224 C 582.92 -2.5602 -5.54885 0
M  V30 6225 C 583.918 -3.47215 -5.88159 0
M  V30 6226 O 583.606 -4.59399 -6.59703 0
M  V30 6227 H 583.338 -0.0737313 -0.671967 0
M  V30 6228 H 585.892 -0.856789 -1.86677 0
M  V30 6229 H 584.122 0.842809 -3.77404 0
M  V30 6230 H 585.811 0.508924 -4.02697 0
M  V30 6231 H 586.577 -1.93898 -4.44554 0
M  V30 6232 H 582.456 -0.717556 -4.55381 0
M  V30 6233 H 586 -3.95785 -5.74456 0
M  V30 6234 H 581.897 -2.72774 -5.85034 0
M  V30 6235 H 582.665 -4.58293 -6.78166 0
M  V30 6236 N 585.328 1.53329 -0.364422 0
M  V30 6237 C 586.556 2.05657 0.226424 0
M  V30 6238 C 586.971 1.23801 1.42544 0
M  V30 6239 O 586.328 0.27839 1.80364 0
M  V30 6240 C 586.379 3.56125 0.621056 0
M  V30 6241 O 586.1 4.34879 -0.530304 0
M  V30 6242 C 587.601 4.24706 1.27041 0
M  V30 6243 H 584.821 0.669806 0.0400056 0
M  V30 6244 H 587.365 1.97714 -0.522456 0
M  V30 6245 H 585.52 3.64223 1.31985 0
M  V30 6246 H 585.934 5.24073 -0.211546 0
M  V30 6247 H 587.408 5.3131 1.49711 0
M  V30 6248 H 587.885 3.78354 2.23036 0
M  V30 6249 H 588.491 4.20858 0.613079 0
M  V30 6250 N 586.806 0.0935595 1.57322 0
M  V30 6251 C 588.052 -0.571355 1.94585 0
M  V30 6252 C 588.385 -1.67929 0.975366 0
M  V30 6253 O 587.66 -1.94498 0.00816206 0
M  V30 6254 C 587.943 -1.12797 3.41978 0
M  V30 6255 C 587.796 -0.0251881 4.49793 0
M  V30 6256 C 589.115 -2.02682 3.90651 0
M  V30 6257 H 586.234 -0.206223 0.70756 0
M  V30 6258 H 588.876 0.163956 1.89291 0
M  V30 6259 H 587.026 -1.75461 3.4662 0
M  V30 6260 H 588.698 0.608979 4.57263 0
M  V30 6261 H 586.941 0.641399 4.29032 0
M  V30 6262 H 587.612 -0.455433 5.50118 0
M  V30 6263 H 590.088 -1.49925 3.88152 0
M  V30 6264 H 588.964 -2.38555 4.94351 0
M  V30 6265 H 589.225 -2.94362 3.29854 0
M  V30 6266 N 588.284 -1.56567 -0.180126 0
M  V30 6267 C 589.533 -1.80685 -0.896426 0
M  V30 6268 C 589.846 -0.669335 -1.83791 0
M  V30 6269 O 591.052 -0.795209 -2.59593 0
M  V30 6270 C 589.508 -3.20132 -1.6445 0
M  V30 6271 C 589.116 -4.41727 -0.747088 0
M  V30 6272 C 590.86 -3.53549 -2.34955 0
M  V30 6273 C 588.767 -5.72195 -1.49489 0
M  V30 6274 H 587.697 -0.673758 -0.338477 0
M  V30 6275 H 590.348 -1.8289 -0.149467 0
M  V30 6276 H 588.73 -3.12218 -2.43589 0
M  V30 6277 H 589.904 -4.608 0.00671129 0
M  V30 6278 H 588.219 -4.16122 -0.152134 0
M  V30 6279 H 590.816 -4.48267 -2.91481 0
M  V30 6280 H 591.159 -2.78006 -3.09868 0
M  V30 6281 H 591.692 -3.62976 -1.62768 0
M  V30 6282 H 588.431 -6.50743 -0.788251 0
M  V30 6283 H 587.951 -5.57115 -2.22224 0
M  V30 6284 H 589.63 -6.1384 -2.04472 0
M  V30 6285 N 589.762 0.448376 -1.51087 0
M  V30 6286 C 590.692 1.55102 -1.74544 0
M  V30 6287 C 591.673 1.59357 -0.594932 0
M  V30 6288 O 592.858 1.75261 -0.836491 0
M  V30 6289 C 589.988 2.93268 -1.86041 0
M  V30 6290 C 588.942 3.03877 -3.01402 0
M  V30 6291 C 588.268 4.43914 -2.98068 0
M  V30 6292 C 589.568 2.7898 -4.41551 0
M  V30 6293 H 591.262 1.35724 -2.66869 0
M  V30 6294 H 588.808 0.651498 -1.28419 0
M  V30 6295 H 590.761 3.70356 -2.01034 0
M  V30 6296 H 589.485 3.13853 -0.903548 0
M  V30 6297 H 588.144 2.29227 -2.86096 0
M  V30 6298 H 587.792 4.6145 -2.00182 0
M  V30 6299 H 587.492 4.51944 -3.75527 0
M  V30 6300 H 589.016 5.22991 -3.1514 0
M  V30 6301 H 590.43 3.45805 -4.57265 0
M  V30 6302 H 588.827 2.98431 -5.20633 0
M  V30 6303 H 589.897 1.74663 -4.5235 0
M  V30 6304 N 591.24 1.41047 0.703093 0
M  V30 6305 C 592.468 1.4334 1.49202 0
M  V30 6306 C 592.883 0.0365596 1.88765 0
M  V30 6307 O 592.24 -0.942419 1.56284 0
M  V30 6308 C 592.291 2.33538 2.75939 0
M  V30 6309 O 592.012 3.67786 2.38045 0
M  V30 6310 C 593.513 2.44555 3.6974 0
M  V30 6311 H 590.733 0.488472 0.460039 0
M  V30 6312 H 593.277 1.85245 0.86629 0
M  V30 6313 H 591.432 1.94962 3.34766 0
M  V30 6314 H 591.846 4.15816 3.19683 0
M  V30 6315 H 593.32 3.11849 4.55471 0
M  V30 6316 H 593.797 1.47447 4.1371 0
M  V30 6317 H 594.403 2.83735 3.16819 0
M  V30 6318 N 592.718 -0.936591 1.26751 0
M  V30 6319 C 593.666 -2.0573 1.08527 0
M  V30 6320 C 594.66 -1.69397 0.0108784 0
M  V30 6321 O 595.866 -1.79215 0.167915 0
M  V30 6322 H 592.241 -0.673691 0.334133 0
M  V30 6323 H 594.212 -2.1825 2.03493 0
M  V30 6324 C 592.961 -3.39738 0.739845 0
M  V30 6325 H 592.284 -3.68174 1.55845 0
M  V30 6326 H 593.724 -4.18955 0.652149 0
M  V30 6327 C 592.183 -3.32292 -0.555288 0
M  V30 6328 O 592.713 -3.68794 -1.59229 0
M  V30 6329 N 590.919 -2.85394 -0.54762 0
M  V30 6330 H 590.466 -2.55886 0.296667 0
M  V30 6331 H 590.424 -2.80795 -1.41427 0
M  V30 6332 N 594.196 -1.08629 -1.14182 0
M  V30 6333 C 595.607 -0.838003 -1.66836 0
M  V30 6334 C 595.958 0.634885 -1.85644 0
M  V30 6335 O 595.083 1.49008 -1.56926 0
M  V30 6336 C 595.678 -1.51465 -3.03058 0
M  V30 6337 C 594.237 -1.31355 -3.52736 0
M  V30 6338 C 593.384 -1.57599 -2.28162 0
M  V30 6339 H 596.335 -1.24656 -0.982165 0
M  V30 6340 H 596.356 -0.943134 -3.68626 0
M  V30 6341 H 595.868 -2.58661 -2.89337 0
M  V30 6342 H 593.969 -0.262384 -3.71675 0
M  V30 6343 H 594.082 -2.04275 -4.33369 0
M  V30 6344 H 592.446 -0.997659 -2.34348 0
M  V30 6345 H 593.229 -2.66006 -2.17015 0
M  V30 6346 N 595.674 1.31259 -0.872281 0
M  V30 6347 C 596.923 1.95893 -0.480493 0
M  V30 6348 C 597.236 1.697 0.972688 0
M  V30 6349 O 598.442 2.28214 1.47073 0
M  V30 6350 C 596.898 3.50705 -0.808342 0
M  V30 6351 C 596.506 3.85735 -2.27844 0
M  V30 6352 C 598.25 4.21719 -0.485136 0
M  V30 6353 C 596.157 5.33668 -2.54858 0
M  V30 6354 H 595.087 0.733182 -0.175955 0
M  V30 6355 H 597.738 1.49396 -1.0655 0
M  V30 6356 H 596.12 3.95706 -0.152558 0
M  V30 6357 H 597.294 3.51686 -2.97748 0
M  V30 6358 H 595.609 3.27792 -2.56791 0
M  V30 6359 H 598.206 5.30559 -0.664166 0
M  V30 6360 H 598.549 4.12316 0.574592 0
M  V30 6361 H 599.082 3.82359 -1.09756 0
M  V30 6362 H 595.821 5.48109 -3.59523 0
M  V30 6363 H 595.341 5.69061 -1.8955 0
M  V30 6364 H 597.02 6.00958 -2.39706 0
M  V30 6365 N 597.152 0.631951 1.44375 0
M  V30 6366 C 598.377 0.142146 2.06912 0
M  V30 6367 C 598.802 -1.17456 1.4692 0
M  V30 6368 O 598.16 -1.72074 0.570975 0
M  V30 6369 C 598.208 0.0417952 3.60576 0
M  V30 6370 O 597.312 -1.00194 4.00044 0
M  V30 6371 H 596.653 0.0851491 0.658518 0
M  V30 6372 H 599.183 0.868863 1.85235 0
M  V30 6373 H 599.193 -0.148517 4.0773 0
M  V30 6374 H 597.868 1.0031 4.03622 0
M  V30 6375 H 596.445 -0.786131 3.64519 0
M  V30 6376 N 598.631 -1.53133 0.372548 0
M  V30 6377 C 599.578 -2.25951 -0.470631 0
M  V30 6378 C 600.548 -1.26895 -1.07176 0
M  V30 6379 O 601.733 -1.55691 -1.10294 0
M  V30 6380 C 598.873 -3.05726 -1.6008 0
M  V30 6381 C 597.986 -4.19684 -1.02416 0
M  V30 6382 C 597.121 -4.86888 -2.124 0
M  V30 6383 C 596.16 -5.92866 -1.52238 0
M  V30 6384 N 595.297 -6.53732 -2.56084 0
M  V30 6385 H 600.137 -2.97587 0.156816 0
M  V30 6386 H 597.674 -1.4683 0.0891571 0
M  V30 6387 H 599.632 -3.50258 -2.26661 0
M  V30 6388 H 598.262 -2.36331 -2.1988 0
M  V30 6389 H 597.314 -3.79588 -0.248426 0
M  V30 6390 H 598.626 -4.95821 -0.544366 0
M  V30 6391 H 597.78 -5.34638 -2.86787 0
M  V30 6392 H 596.519 -4.10239 -2.63734 0
M  V30 6393 H 595.524 -5.4447 -0.763685 0
M  V30 6394 H 596.749 -6.71439 -1.0172 0
M  V30 6395 H 594.695 -5.79932 -3.06618 0
M  V30 6396 H 594.612 -7.25429 -2.12811 0
M  V30 6397 H 595.88 -7.0613 -3.30152 0
M  V30 6398 N 600.109 -0.101901 -1.5727 0
M  V30 6399 C 601.019 0.868647 -2.17926 0
M  V30 6400 C 602.035 1.30527 -1.1506 0
M  V30 6401 O 603.211 1.37178 -1.47459 0
M  V30 6402 C 600.276 2.10727 -2.75309 0
M  V30 6403 C 599.337 1.7242 -3.93154 0
M  V30 6404 C 598.57 2.90377 -4.47791 0
M  V30 6405 O 598.793 4.05305 -4.01353 0
M  V30 6406 O 597.727 2.6845 -5.38719 0
M  V30 6407 H 601.553 0.382544 -3.01281 0
M  V30 6408 H 599.138 0.122812 -1.48894 0
M  V30 6409 H 601.02 2.83303 -3.11958 0
M  V30 6410 H 599.695 2.58376 -1.94996 0
M  V30 6411 H 598.602 0.970039 -3.61305 0
M  V30 6412 H 599.935 1.29528 -4.74851 0
M  V30 6413 N 601.587 1.56661 0.17182 0
M  V30 6414 C 602.534 1.96371 1.21273 0
M  V30 6415 C 603.504 0.82756 1.44016 0
M  V30 6416 O 604.689 1.08764 1.56764 0
M  V30 6417 C 601.829 2.32838 2.54716 0
M  V30 6418 C 600.942 3.59628 2.39356 0
M  V30 6419 C 600.077 3.85311 3.65662 0
M  V30 6420 C 599.116 5.0545 3.45234 0
M  V30 6421 N 598.253 5.27268 4.63608 0
M  V30 6422 H 603.093 2.85106 0.86709 0
M  V30 6423 H 600.63 1.41073 0.416744 0
M  V30 6424 H 602.588 2.52004 3.3249 0
M  V30 6425 H 601.218 1.47214 2.87277 0
M  V30 6426 H 600.27 3.4838 1.52761 0
M  V30 6427 H 601.582 4.4756 2.20207 0
M  V30 6428 H 600.736 4.04841 4.51872 0
M  V30 6429 H 599.475 2.95753 3.8779 0
M  V30 6430 H 598.48 4.85819 2.5741 0
M  V30 6431 H 599.705 5.96538 3.24529 0
M  V30 6432 H 597.651 4.40662 4.85956 0
M  V30 6433 H 597.568 6.09422 4.4737 0
M  V30 6434 H 598.836 5.51277 5.51103 0
M  V30 6435 N 603.065 -0.440357 1.51323 0
M  V30 6436 C 603.997 -1.55254 1.68609 0
M  V30 6437 C 605.01 -1.52614 0.566812 0
M  V30 6438 O 606.199 -1.57445 0.841032 0
M  V30 6439 C 603.299 -2.94169 1.68279 0
M  V30 6440 C 602.472 -3.21346 2.96742 0
M  V30 6441 C 601.531 -4.3997 2.8864 0
M  V30 6442 O 600.557 -4.38771 3.62586 0
M  V30 6443 N 601.759 -5.43367 2.04285 0
M  V30 6444 H 604.524 -1.40831 2.6455 0
M  V30 6445 H 602.085 -0.629251 1.49171 0
M  V30 6446 H 604.077 -3.71543 1.60431 0
M  V30 6447 H 602.647 -3.02205 0.799441 0
M  V30 6448 H 601.867 -2.32299 3.18482 0
M  V30 6449 H 603.155 -3.3633 3.81785 0
M  V30 6450 H 602.553 -5.47176 1.43578 0
M  V30 6451 H 601.11 -6.19605 2.02318 0
M  V30 6452 N 604.543 -1.41418 -0.695603 0
M  V30 6453 C 605.768 -1.44329 -1.48942 0
M  V30 6454 C 606.193 -0.0501579 -1.88033 0
M  V30 6455 O 605.551 0.946598 -1.54626 0
M  V30 6456 C 605.599 -2.3578 -2.72837 0
M  V30 6457 O 604.703 -1.81482 -3.70322 0
M  V30 6458 H 604.044 -0.489838 -0.44828 0
M  V30 6459 H 606.574 -1.85878 -0.855014 0
M  V30 6460 H 606.584 -2.51654 -3.21145 0
M  V30 6461 H 605.259 -3.37005 -2.43722 0
M  V30 6462 H 603.836 -1.75058 -3.29255 0
M  V30 6463 N 606.021 0.929856 -1.27246 0
M  V30 6464 C 606.971 2.01629 -1.06442 0
M  V30 6465 C 607.955 1.60899 0.00687842 0
M  V30 6466 O 609.147 1.75733 -0.211407 0
M  V30 6467 C 606.276 3.35849 -0.711361 0
M  V30 6468 C 605.362 3.8303 -1.82069 0
M  V30 6469 N 605.753 4.02743 -3.05993 0
M  V30 6470 C 604.051 4.12046 -1.70687 0
M  V30 6471 C 604.752 4.42001 -3.78167 0
M  V30 6472 N 603.728 4.4935 -3.05918 0
M  V30 6473 H 607.53 2.14898 -2.00489 0
M  V30 6474 H 605.044 1.11654 -1.17929 0
M  V30 6475 H 607.041 4.13343 -0.543442 0
M  V30 6476 H 605.701 3.23944 0.221517 0
M  V30 6477 H 606.712 3.89112 -3.41778 0
M  V30 6478 H 603.389 4.08866 -0.844681 0
M  V30 6479 H 604.779 4.6535 -4.84664 0
M  V30 6480 N 607.499 1.09233 1.13605 0
M  V30 6481 C 608.745 0.828385 1.8511 0
M  V30 6482 C 609.078 -0.64437 1.83198 0
M  V30 6483 O 608.353 -1.47428 1.26867 0
M  V30 6484 C 608.636 1.36167 3.33363 0
M  V30 6485 C 608.489 2.90038 3.438 0
M  V30 6486 C 609.808 0.993819 4.28732 0
M  V30 6487 H 606.927 0.30239 0.672108 0
M  V30 6488 H 609.569 1.35339 1.33355 0
M  V30 6489 H 607.719 0.9151 3.77569 0
M  V30 6490 H 609.391 3.43128 3.08319 0
M  V30 6491 H 607.634 3.27271 2.84739 0
M  V30 6492 H 608.305 3.22428 4.48045 0
M  V30 6493 H 610.781 1.37893 3.92587 0
M  V30 6494 H 609.657 1.39403 5.30903 0
M  V30 6495 H 609.918 -0.0982206 4.41991 0
M  V30 6496 N 608.977 -1.30795 0.87923 0
M  V30 6497 C 610.223 -1.96653 0.495519 0
M  V30 6498 C 610.556 -1.69282 -0.951703 0
M  V30 6499 O 609.831 -0.994374 -1.6716 0
M  V30 6500 C 610.114 -3.51898 0.764174 0
M  V30 6501 C 609.967 -3.88808 2.2616 0
M  V30 6502 C 611.286 -4.39462 0.236825 0
M  V30 6503 H 608.405 -0.7143 0.181507 0
M  V30 6504 H 611.047 -1.54765 1.10217 0
M  V30 6505 H 609.197 -3.87709 0.247841 0
M  V30 6506 H 610.869 -3.63051 2.8459 0
M  V30 6507 H 609.112 -3.37082 2.73053 0
M  V30 6508 H 609.783 -4.97086 2.4002 0
M  V30 6509 H 612.259 -4.10528 0.678683 0
M  V30 6510 H 611.135 -5.47018 0.454176 0
M  V30 6511 H 611.396 -4.33621 -0.861683 0
M  V30 6512 N 610.455 -0.639598 -1.44038 0
M  V30 6513 C 611.68 -0.153117 -2.06834 0
M  V30 6514 C 612.105 1.16676 -1.47541 0
M  V30 6515 O 611.463 1.71769 -0.580093 0
M  V30 6516 C 611.511 -0.0609169 -3.60549 0
M  V30 6517 O 610.615 0.98071 -4.00569 0
M  V30 6518 H 609.956 -0.0886402 -0.658057 0
M  V30 6519 H 612.486 -0.878674 -1.84771 0
M  V30 6520 H 612.496 0.126892 -4.07803 0
M  V30 6521 H 611.171 -1.0245 -4.03084 0
M  V30 6522 H 609.748 0.766789 -3.64931 0
M  V30 6523 N 611.933 1.52934 -0.380664 0
M  V30 6524 C 612.863 2.29118 0.450268 0
M  V30 6525 C 613.844 1.32153 1.07096 0
M  V30 6526 O 615.029 1.61038 1.08537 0
M  V30 6527 C 612.159 3.09161 1.58231 0
M  V30 6528 C 611.113 4.13938 1.0881 0
M  V30 6529 C 610.439 4.82153 2.31155 0
M  V30 6530 C 611.739 5.22048 0.162146 0
M  V30 6531 H 613.433 2.98826 -0.185361 0
M  V30 6532 H 610.979 1.43715 -0.0905886 0
M  V30 6533 H 612.932 3.61211 2.17036 0
M  V30 6534 H 611.656 2.3717 2.2454 0
M  V30 6535 H 610.315 3.62855 0.522633 0
M  V30 6536 H 609.963 4.06719 2.95953 0
M  V30 6537 H 609.663 5.52966 1.98752 0
M  V30 6538 H 611.187 5.37004 2.90618 0
M  V30 6539 H 612.601 5.6951 0.658126 0
M  V30 6540 H 610.998 6.00057 -0.0717122 0
M  V30 6541 H 612.068 4.78398 -0.791438 0
M  V30 6542 N 613.412 0.11024 1.57214 0
M  V30 6543 C 614.658 -0.550684 1.9518 0
M  V30 6544 C 614.991 -1.66885 0.993122 0
M  V30 6545 O 614.266 -1.94479 0.0287907 0
M  V30 6546 C 614.549 -1.09163 3.43155 0
M  V30 6547 C 614.402 0.0225198 4.49794 0
M  V30 6548 C 615.721 -1.98527 3.92778 0
M  V30 6549 H 612.84 -0.198706 0.709708 0
M  V30 6550 H 615.482 0.184024 1.89107 0
M  V30 6551 H 613.632 -1.71775 3.48462 0
M  V30 6552 H 615.304 0.657443 4.56591 0
M  V30 6553 H 613.547 0.686868 4.28328 0
M  V30 6554 H 614.218 -0.39706 5.5057 0
M  V30 6555 H 616.694 -1.458 3.8972 0
M  V30 6556 H 615.57 -2.33298 4.96853 0
M  V30 6557 H 615.831 -2.90846 3.32958 0
M  V30 6558 N 614.89 -1.56749 -0.16351 0
M  V30 6559 C 616.136 -1.82704 -0.880168 0
M  V30 6560 C 616.469 -0.689311 -1.81555 0
M  V30 6561 O 615.744 0.308224 -1.92042 0
M  V30 6562 C 616.027 -3.19084 -1.66905 0
M  V30 6563 C 615.88 -4.43397 -0.756269 0
M  V30 6564 C 617.199 -3.52493 -2.63509 0
M  V30 6565 H 614.318 -0.664608 -0.318535 0
M  V30 6566 H 616.96 -1.89438 -0.146036 0
M  V30 6567 H 615.11 -3.13475 -2.2949 0
M  V30 6568 H 616.782 -4.61079 -0.14269 0
M  V30 6569 H 615.025 -4.33752 -0.0647944 0
M  V30 6570 H 615.696 -5.3539 -1.34393 0
M  V30 6571 H 618.172 -3.58606 -2.11047 0
M  V30 6572 H 617.048 -4.48979 -3.15767 0
M  V30 6573 H 617.309 -2.77597 -3.44082 0
M  V30 6574 N 616.368 0.432326 -1.51554 0
M  V30 6575 C 617.598 1.2019 -1.68042 0
M  V30 6576 C 618.006 1.85356 -0.379434 0
M  V30 6577 O 617.349 1.71724 0.652427 0
M  V30 6578 C 617.411 2.32387 -2.74292 0
M  V30 6579 C 617.075 1.87548 -4.16743 0
M  V30 6580 C 618.072 1.37611 -5.01357 0
M  V30 6581 C 615.757 1.95087 -4.62868 0
M  V30 6582 C 617.751 0.958069 -6.30159 0
M  V30 6583 C 615.438 1.52894 -5.91664 0
M  V30 6584 C 616.436 1.03336 -6.75137 0
M  V30 6585 O 616.124 0.617435 -8.01525 0
M  V30 6586 H 615.856 0.368132 -0.56697 0
M  V30 6587 H 618.41 0.517875 -1.98764 0
M  V30 6588 H 616.64 3.04082 -2.38895 0
M  V30 6589 H 618.329 2.94235 -2.79608 0
M  V30 6590 H 619.095 1.31178 -4.66923 0
M  V30 6591 H 614.974 2.32606 -3.98015 0
M  V30 6592 H 618.518 0.570562 -6.95263 0
M  V30 6593 H 614.415 1.58999 -6.25611 0
M  V30 6594 H 615.183 0.742835 -8.15122 0
M  V30 6595 N 617.846 1.41785 0.688094 0
M  V30 6596 C 619.092 1.41753 1.4503 0
M  V30 6597 C 619.425 0.0290745 1.94178 0
M  V30 6598 O 618.7 -0.944456 1.7003 0
M  V30 6599 C 618.983 2.43069 2.65686 0
M  V30 6600 C 618.836 3.91053 2.22256 0
M  V30 6601 C 620.155 2.41543 3.67893 0
M  V30 6602 H 617.274 0.516202 0.526027 0
M  V30 6603 H 619.916 1.73111 0.783105 0
M  V30 6604 H 618.066 2.1646 3.2261 0
M  V30 6605 H 619.738 4.28594 1.70602 0
M  V30 6606 H 617.981 4.05559 1.53963 0
M  V30 6607 H 618.652 4.57501 3.08863 0
M  V30 6608 H 621.128 2.65175 3.20658 0
M  V30 6609 H 620.004 3.14434 4.49914 0
M  V30 6610 H 620.265 1.43666 4.18106 0
M  V30 6611 N 619.324 -0.923095 1.27737 0
M  V30 6612 C 620.735 -1.48626 1.12993 0
M  V30 6613 C 621.086 -1.94142 -0.283439 0
M  V30 6614 O 620.211 -1.81605 -1.17681 0
M  V30 6615 C 620.806 -2.70117 2.04505 0
M  V30 6616 C 619.365 -3.22642 1.93853 0
M  V30 6617 C 618.512 -1.95368 1.96791 0
M  V30 6618 H 621.463 -0.736737 1.40563 0
M  V30 6619 H 621.484 -3.4506 1.60356 0
M  V30 6620 H 620.996 -2.36959 3.07363 0
M  V30 6621 H 619.097 -3.60549 0.939968 0
M  V30 6622 H 619.21 -3.88525 2.80331 0
M  V30 6623 H 617.574 -2.12061 1.41076 0
M  V30 6624 H 618.357 -1.64517 3.01312 0
M  V30 6625 N 620.802 -1.09834 -1.13024 0
M  V30 6626 C 622.213 -0.855651 -1.65938 0
M  V30 6627 C 622.564 0.615159 -1.86307 0
M  V30 6628 O 621.689 1.47335 -1.58497 0
M  V30 6629 C 622.284 -1.5467 -3.01434 0
M  V30 6630 C 620.843 -1.35088 -3.51323 0
M  V30 6631 C 619.99 -1.6001 -2.26478 0
M  V30 6632 H 622.941 -1.25691 -0.968889 0
M  V30 6633 H 622.962 -0.982179 -3.67605 0
M  V30 6634 H 622.474 -2.61715 -2.86578 0
M  V30 6635 H 620.575 -0.30179 -3.71376 0
M  V30 6636 H 620.688 -2.0886 -4.31178 0
M  V30 6637 H 619.052 -1.02246 -2.33276 0
M  V30 6638 H 619.835 -2.68293 -2.14182 0
M  V30 6639 N 622.28 1.30327 -0.886154 0
M  V30 6640 C 623.212 2.27079 -0.311072 0
M  V30 6641 C 624.225 1.53758 0.53502 0
M  V30 6642 O 625.414 1.74947 0.354378 0
M  V30 6643 C 622.514 3.33965 0.576228 0
M  V30 6644 C 621.687 4.36735 -0.241064 0
M  V30 6645 C 620.746 5.23028 0.576916 0
M  V30 6646 O 619.772 5.692 -0.000802231 0
M  V30 6647 N 620.974 5.49016 1.88579 0
M  V30 6648 H 623.739 2.77065 -1.14259 0
M  V30 6649 H 621.3 1.43519 -0.749258 0
M  V30 6650 H 623.292 3.88618 1.12953 0
M  V30 6651 H 621.862 2.839 1.30842 0
M  V30 6652 H 621.082 3.81932 -0.975805 0
M  V30 6653 H 622.37 5.02451 -0.801272 0
M  V30 6654 H 621.768 5.13288 2.37806 0
M  V30 6655 H 620.325 6.06539 2.38651 0
M  V30 6656 N 623.758 0.647228 1.43697 0
M  V30 6657 C 625.007 0.155552 2.01099 0
M  V30 6658 C 625.32 -1.23569 1.51624 0
M  V30 6659 O 626.526 -1.82226 2.01261 0
M  V30 6660 C 624.982 0.227296 3.59182 0
M  V30 6661 C 624.59 1.62086 4.17651 0
M  V30 6662 C 626.334 -0.207085 4.23995 0
M  V30 6663 C 624.241 1.64685 5.68008 0
M  V30 6664 H 623.171 0.0543895 0.752036 0
M  V30 6665 H 625.822 0.808386 1.64734 0
M  V30 6666 H 624.204 -0.492937 3.9292 0
M  V30 6667 H 625.378 2.36597 3.95422 0
M  V30 6668 H 623.693 2.0007 3.65186 0
M  V30 6669 H 626.29 -0.207426 5.34298 0
M  V30 6670 H 626.633 -1.23742 3.97484 0
M  V30 6671 H 627.166 0.461193 3.95118 0
M  V30 6672 H 623.905 2.65608 5.99277 0
M  V30 6673 H 623.425 0.944914 5.9231 0
M  V30 6674 H 625.104 1.38792 6.31938 0
M  V30 6675 N 625.236 -1.5273 0.388769 0
M  V30 6676 C 626.484 -2.01174 -0.193208 0
M  V30 6677 C 626.805 -1.27705 -1.47365 0
M  V30 6678 O 626.075 -0.396966 -1.91836 0
M  V30 6679 H 624.655 -0.743287 -0.0743871 0
M  V30 6680 H 627.317 -1.87826 0.520336 0
M  V30 6681 H 626.413 -3.09477 -0.403803 0
M  V30 6682 N 626.714 -0.118576 -1.57153 0
M  V30 6683 C 627.624 0.845484 -2.18835 0
M  V30 6684 C 628.64 1.29299 -1.16438 0
M  V30 6685 O 629.816 1.35607 -1.48905 0
M  V30 6686 C 626.881 2.07795 -2.77529 0
M  V30 6687 C 625.942 1.6824 -3.9496 0
M  V30 6688 C 625.175 2.85612 -4.50845 0
M  V30 6689 O 625.398 4.01025 -4.05629 0
M  V30 6690 O 624.332 2.62721 -5.41536 0
M  V30 6691 H 628.158 0.350568 -3.0167 0
M  V30 6692 H 625.743 0.107013 -1.49016 0
M  V30 6693 H 627.625 2.79978 -3.14945 0
M  V30 6694 H 626.3 2.56294 -1.97725 0
M  V30 6695 H 625.207 0.931663 -3.62313 0
M  V30 6696 H 626.54 1.24484 -4.76198 0
M  V30 6697 N 628.193 1.56834 0.155195 0
M  V30 6698 C 629.14 1.97646 1.19184 0
M  V30 6699 C 630.11 0.842788 1.4313 0
M  V30 6700 O 631.295 1.1042 1.55602 0
M  V30 6701 C 628.435 2.35527 2.52232 0
M  V30 6702 C 627.548 3.62147 2.35529 0
M  V30 6703 C 626.683 3.89167 3.61555 0
M  V30 6704 C 625.722 5.09084 3.39853 0
M  V30 6705 N 624.859 5.32156 4.5799 0
M  V30 6706 H 629.699 2.8601 0.836802 0
M  V30 6707 H 627.236 1.41507 0.401758 0
M  V30 6708 H 629.194 2.55516 3.29799 0
M  V30 6709 H 627.824 1.50253 2.85699 0
M  V30 6710 H 626.876 3.4998 1.49057 0
M  V30 6711 H 628.188 4.49871 2.15448 0
M  V30 6712 H 627.342 4.09611 4.47553 0
M  V30 6713 H 626.081 2.9985 3.84632 0
M  V30 6714 H 625.086 4.88522 2.52243 0
M  V30 6715 H 626.311 5.99947 3.18183 0
M  V30 6716 H 624.257 4.45791 4.81255 0
M  V30 6717 H 624.174 6.14133 4.40882 0
M  V30 6718 H 625.442 5.57091 5.45225 0
M  V30 6719 N 629.671 -0.424282 1.51781 0
M  V30 6720 C 630.896 -1.19928 1.6921 0
M  V30 6721 C 631.321 -1.8392 0.394355 0
M  V30 6722 O 630.679 -1.69371 -0.646778 0
M  V30 6723 C 630.727 -2.24937 2.81843 0
M  V30 6724 O 629.831 -3.3073 2.46356 0
M  V30 6725 H 629.172 -0.35078 0.563781 0
M  V30 6726 H 631.702 -0.499401 1.98412 0
M  V30 6727 H 631.712 -2.69512 3.06312 0
M  V30 6728 H 630.387 -1.77742 3.76006 0
M  V30 6729 H 628.964 -2.9154 2.32505 0
M  V30 6730 N 631.149 -1.42148 -0.680565 0
M  V30 6731 C 632.079 -1.4796 -1.80638 0
M  V30 6732 C 633.06 -0.336728 -1.66734 0
M  V30 6733 O 634.245 -0.550247 -1.86242 0
M  V30 6734 C 631.375 -1.37569 -3.18892 0
M  V30 6735 C 630.329 -2.49823 -3.47524 0
M  V30 6736 C 629.655 -2.24491 -4.85291 0
M  V30 6737 C 630.955 -3.92144 -3.44994 0
M  V30 6738 H 632.649 -2.42184 -1.76032 0
M  V30 6739 H 630.195 -1.16566 -0.845481 0
M  V30 6740 H 632.148 -1.40243 -3.97379 0
M  V30 6741 H 630.872 -0.398357 -3.24162 0
M  V30 6742 H 629.531 -2.46455 -2.71395 0
M  V30 6743 H 629.179 -1.25066 -4.87204 0
M  V30 6744 H 628.879 -2.99722 -5.05411 0
M  V30 6745 H 630.403 -2.28906 -5.66069 0
M  V30 6746 H 631.817 -3.97145 -4.13459 0
M  V30 6747 H 630.214 -4.67179 -3.76648 0
M  V30 6748 H 631.284 -4.19225 -2.43676 0
M  V30 6749 N 632.627 0.916307 -1.28225 0
M  V30 6750 C 633.876 1.65975 -1.14608 0
M  V30 6751 C 634.189 1.93204 0.305191 0
M  V30 6752 O 635.395 2.65611 0.562432 0
M  V30 6753 C 633.851 2.98989 -2.00333 0
M  V30 6754 C 633.459 2.79417 -3.50186 0
M  V30 6755 C 635.203 3.76856 -1.95397 0
M  V30 6756 C 633.11 4.08056 -4.28071 0
M  V30 6757 H 632.04 0.622587 -0.425324 0
M  V30 6758 H 634.691 1.01705 -1.52736 0
M  V30 6759 H 633.073 3.6438 -1.5506 0
M  V30 6760 H 634.247 2.22723 -4.034 0
M  V30 6761 H 632.562 2.14966 -3.56621 0
M  V30 6762 H 635.159 4.72203 -2.50856 0
M  V30 6763 H 635.502 4.05776 -0.930137 0
M  V30 6764 H 636.035 3.1828 -2.38626 0
M  V30 6765 H 632.774 3.8431 -5.31024 0
M  V30 6766 H 632.294 4.64371 -3.79631 0
M  V30 6767 H 633.973 4.76333 -4.37854 0
M  V30 6768 N 634.105 1.10431 1.1244 0
M  V30 6769 C 635.33 0.869089 1.88313 0
M  V30 6770 C 635.755 -0.574912 1.79099 0
M  V30 6771 O 635.113 -1.40496 1.14589 0
M  V30 6772 C 635.161 1.32208 3.3549 0
M  V30 6773 O 634.265 0.487092 4.09513 0
M  V30 6774 H 633.606 0.313894 0.585121 0
M  V30 6775 H 636.136 1.47111 1.42195 0
M  V30 6776 H 636.146 1.31201 3.86329 0
M  V30 6777 H 634.821 2.37364 3.41513 0
M  V30 6778 H 633.398 0.562372 3.68635 0
M  V30 6779 N 635.583 -1.29855 0.893053 0
M  V30 6780 C 636.994 -1.77946 0.564998 0
M  V30 6781 C 637.345 -1.73339 -0.919134 0
M  V30 6782 O 636.47 -1.3152 -1.71847 0
M  V30 6783 C 637.065 -3.23118 1.01883 0
M  V30 6784 C 635.624 -3.69013 0.742051 0
M  V30 6785 C 634.771 -2.50121 1.19727 0
M  V30 6786 H 637.722 -1.16611 1.07646 0
M  V30 6787 H 637.743 -3.78875 0.351249 0
M  V30 6788 H 637.255 -3.26439 2.09903 0
M  V30 6789 H 635.356 -3.71173 -0.325816 0
M  V30 6790 H 635.469 -4.60117 1.33527 0
M  V30 6791 H 633.833 -2.47128 0.616418 0
M  V30 6792 H 634.616 -2.56174 2.28538 0
M  V30 6793 N 637.061 -0.65484 -1.43351 0
M  V30 6794 C 638.307 -0.169142 -2.02093 0
M  V30 6795 C 638.64 1.21431 -1.51553 0
M  V30 6796 O 637.915 1.81105 -0.709317 0
M  V30 6797 C 638.198 -0.181775 -3.59641 0
M  V30 6798 C 638.051 -1.59926 -4.20409 0
M  V30 6799 C 639.37 0.480945 -4.37464 0
M  V30 6800 H 636.489 -0.0629371 -0.734308 0
M  V30 6801 H 639.131 -0.835833 -1.70628 0
M  V30 6802 H 637.281 0.385918 -3.86578 0
M  V30 6803 H 638.953 -2.21766 -4.04497 0
M  V30 6804 H 637.196 -2.14605 -3.76998 0
M  V30 6805 H 637.867 -1.55994 -5.295 0
M  V30 6806 H 640.343 -0.00208273 -4.161 0
M  V30 6807 H 639.219 0.441384 -5.47122 0
M  V30 6808 H 639.48 1.55533 -4.13838 0
M  V30 6809 N 638.539 1.52521 -0.396863 0
M  V30 6810 C 639.816 1.94112 0.240842 0
M  V30 6811 C 640.196 1.33288 1.637 0
M  V30 6812 O 639.544 0.503901 2.22875 0
M  V30 6813 C 639.754 3.48033 0.259567 0
M  V30 6814 C 641.102 4.21822 0.484866 0
M  V30 6815 O 642.126 3.54579 0.339453 0
M  V30 6816 O 640.985 5.41042 0.770412 0
M  V30 6817 H 638.079 0.812973 0.151671 0
M  V30 6818 H 640.625 1.63572 -0.451918 0
M  V30 6819 H 639.397 3.84655 -0.718078 0
M  V30 6820 H 639.02 3.84899 0.996937 0
M  V30 6821 N 640.017 0.126909 1.57088 0
M  V30 6822 C 641.242 -0.53997 2.00248 0
M  V30 6823 C 641.667 -1.58927 1.00618 0
M  V30 6824 O 641.025 -1.81288 -0.0210131 0
M  V30 6825 C 641.073 -1.13565 3.4225 0
M  V30 6826 O 640.177 -2.25103 3.45547 0
M  V30 6827 H 639.518 -0.13412 0.650314 0
M  V30 6828 H 642.048 0.217718 2.03438 0
M  V30 6829 H 642.058 -1.46925 3.80627 0
M  V30 6830 H 640.733 -0.367122 4.14277 0
M  V30 6831 H 639.31 -1.93123 3.18995 0
M  V30 6832 N 641.495 -1.56914 -0.146875 0
M  V30 6833 C 642.725 -1.87243 -0.873126 0
M  V30 6834 C 643.133 -0.713127 -1.75246 0
M  V30 6835 O 642.476 0.326228 -1.8078 0
M  V30 6836 C 642.538 -3.12279 -1.78107 0
M  V30 6837 C 642.202 -4.44082 -1.07889 0
M  V30 6838 C 643.199 -5.18096 -0.432734 0
M  V30 6839 C 640.884 -4.90807 -1.06836 0
M  V30 6840 C 642.878 -6.37039 0.214569 0
M  V30 6841 C 640.565 -6.09674 -0.417243 0
M  V30 6842 C 641.563 -6.82636 0.223093 0
M  V30 6843 O 641.251 -7.99245 0.863884 0
M  V30 6844 H 640.983 -0.624896 -0.257839 0
M  V30 6845 H 643.537 -2.04892 -0.14434 0
M  V30 6846 H 641.767 -2.90639 -2.5508 0
M  V30 6847 H 643.456 -3.28854 -2.37929 0
M  V30 6848 H 644.222 -4.83066 -0.432677 0
M  V30 6849 H 640.101 -4.3394 -1.55618 0
M  V30 6850 H 643.645 -6.93927 0.714965 0
M  V30 6851 H 639.542 -6.44165 -0.414967 0
M  V30 6852 H 640.31 -8.14912 0.765564 0
M  V30 6853 N 642.974 0.416227 -1.52004 0
M  V30 6854 C 643.906 1.52552 -1.71058 0
M  V30 6855 C 644.919 1.51693 -0.59102 0
M  V30 6856 O 646.108 1.56087 -0.865973 0
M  V30 6857 C 643.208 2.91455 -1.72937 0
M  V30 6858 C 642.381 3.16584 -3.01816 0
M  V30 6859 C 641.44 4.35322 -2.95603 0
M  V30 6860 O 640.466 4.32947 -3.6952 0
M  V30 6861 N 641.668 5.40049 -2.12903 0
M  V30 6862 H 644.433 1.36604 -2.66757 0
M  V30 6863 H 641.994 0.60544 -1.50153 0
M  V30 6864 H 643.986 3.68944 -1.66321 0
M  V30 6865 H 642.556 3.00895 -0.847418 0
M  V30 6866 H 641.776 2.27203 -3.22137 0
M  V30 6867 H 643.064 3.30213 -3.87088 0
M  V30 6868 H 642.462 5.44823 -1.52265 0
M  V30 6869 H 641.019 6.16308 -2.1215 0
M  V30 6870 N 644.452 1.42507 0.673017 0
M  V30 6871 C 645.682 1.46261 1.45916 0
M  V30 6872 C 646.09 0.0729724 1.89059 0
M  V30 6873 O 645.433 -0.922987 1.58829 0
M  V30 6874 C 645.495 2.32853 2.73898 0
M  V30 6875 C 645.159 3.80699 2.52819 0
M  V30 6876 C 646.156 4.72307 2.17306 0
M  V30 6877 C 643.841 4.24983 2.67758 0
M  V30 6878 C 645.835 6.06192 1.97003 0
M  V30 6879 C 643.522 5.58927 2.4707 0
M  V30 6880 C 644.52 6.49348 2.11746 0
M  V30 6881 O 644.208 7.80817 1.91259 0
M  V30 6882 H 643.94 0.499561 0.455428 0
M  V30 6883 H 646.494 1.87697 0.834196 0
M  V30 6884 H 644.724 1.86268 3.38882 0
M  V30 6885 H 646.413 2.28041 3.35786 0
M  V30 6886 H 647.179 4.39378 2.05359 0
M  V30 6887 H 643.058 3.54893 2.94231 0
M  V30 6888 H 646.602 6.76731 1.69355 0
M  V30 6889 H 642.499 5.91429 2.58615 0
M  V30 6890 H 643.267 7.92194 2.05843 0
M  V30 6891 N 645.93 -0.909495 1.28709 0
M  V30 6892 C 647.178 -1.65577 1.15882 0
M  V30 6893 C 647.499 -1.928 -0.292108 0
M  V30 6894 O 646.769 -1.54716 -1.20166 0
M  V30 6895 H 645.349 -0.613714 0.425869 0
M  V30 6896 H 648.011 -1.09108 1.61498 0
M  V30 6897 H 647.107 -2.61634 1.70159 0
M  V30 6898 N 647.408 -1.11026 -1.11852 0
M  V30 6899 C 648.636 -0.878818 -1.87308 0
M  V30 6900 C 649.051 0.57111 -1.79955 0
M  V30 6901 O 648.408 1.39409 -1.17777 0
M  V30 6902 C 648.459 -1.3264 -3.36287 0
M  V30 6903 O 648.18 -2.71948 -3.43476 0
M  V30 6904 C 649.681 -1.12974 -4.28663 0
M  V30 6905 H 646.901 -0.315015 -0.592458 0
M  V30 6906 H 649.445 -1.47649 -1.41492 0
M  V30 6907 H 647.6 -0.772269 -3.79625 0
M  V30 6908 H 648.014 -2.91241 -4.3621 0
M  V30 6909 H 649.488 -1.49198 -5.31454 0
M  V30 6910 H 649.965 -0.0689127 -4.39146 0
M  V30 6911 H 650.571 -1.67064 -3.91113 0
M  V30 6912 N 648.886 1.2938 -0.899927 0
M  V30 6913 C 650.114 1.99691 -0.541386 0
M  V30 6914 C 650.529 1.67355 0.873936 0
M  V30 6915 O 649.886 0.918728 1.57688 0
M  V30 6916 C 649.937 3.54168 -0.72438 0
M  V30 6917 O 649.658 3.85359 -2.08399 0
M  V30 6918 C 651.159 4.41746 -0.370819 0
M  V30 6919 H 648.379 0.638037 -0.207726 0
M  V30 6920 H 650.923 1.6491 -1.20934 0
M  V30 6921 H 649.078 3.87261 -0.103607 0
M  V30 6922 H 649.492 4.80032 -2.11352 0
M  V30 6923 H 650.966 5.49256 -0.549693 0
M  V30 6924 H 651.443 4.33712 0.692148 0
M  V30 6925 H 652.049 4.14125 -0.968543 0
M  V30 6926 N 650.364 0.662433 1.43002 0
M  V30 6927 C 651.296 -0.062326 2.29115 0
M  V30 6928 C 652.309 -0.777926 1.43011 0
M  V30 6929 O 653.498 -0.634146 1.66856 0
M  V30 6930 C 650.598 -1.11163 3.2015 0
M  V30 6931 C 649.771 -0.472327 4.34842 0
M  V30 6932 C 648.83 -1.41974 5.06685 0
M  V30 6933 O 647.856 -0.924795 5.61637 0
M  V30 6934 N 649.058 -2.75345 5.11043 0
M  V30 6935 H 651.823 0.676838 2.91957 0
M  V30 6936 H 649.384 0.505907 1.53793 0
M  V30 6937 H 651.376 -1.74643 3.65078 0
M  V30 6938 H 649.946 -1.75266 2.58845 0
M  V30 6939 H 649.166 0.341751 3.92716 0
M  V30 6940 H 650.454 -0.0264381 5.08793 0
M  V30 6941 H 649.852 -3.18108 4.67786 0
M  V30 6942 H 648.409 -3.34105 5.59658 0
M  V30 6943 N 651.842 -1.52309 0.404946 0
M  V30 6944 C 653.07 -2.06185 -0.171818 0
M  V30 6945 C 653.485 -1.27536 -1.39212 0
M  V30 6946 O 652.842 -0.326112 -1.79563 0
M  V30 6947 C 652.893 -3.57647 -0.526417 0
M  V30 6948 O 652.614 -4.3332 0.645417 0
M  V30 6949 C 654.115 -4.27925 -1.15736 0
M  V30 6950 H 651.335 -0.670632 -0.0222328 0
M  V30 6951 H 653.879 -1.96259 0.574692 0
M  V30 6952 H 652.034 -3.67595 -1.22282 0
M  V30 6953 H 652.448 -5.23328 0.35042 0
M  V30 6954 H 653.922 -5.35093 -1.35572 0
M  V30 6955 H 654.399 -3.84134 -2.12926 0
M  V30 6956 H 655.005 -4.22335 -0.501281 0
M  V30 6957 N 653.32 -0.135238 -1.57019 0
M  V30 6958 C 654.25 0.805235 -2.19176 0
M  V30 6959 C 655.231 1.2656 -1.13651 0
M  V30 6960 O 656.416 1.32528 -1.4195 0
M  V30 6961 C 653.546 2.04914 -2.80406 0
M  V30 6962 C 652.5 1.72598 -3.91655 0
M  V30 6963 C 651.826 3.04154 -4.39766 0
M  V30 6964 C 653.126 0.981709 -5.12991 0
M  V30 6965 H 654.82 0.287232 -2.98019 0
M  V30 6966 H 652.366 0.136714 -1.4335 0
M  V30 6967 H 654.319 2.71178 -3.22553 0
M  V30 6968 H 653.043 2.59067 -1.98877 0
M  V30 6969 H 651.702 1.08717 -3.50109 0
M  V30 6970 H 651.35 3.56274 -3.55075 0
M  V30 6971 H 651.05 2.83299 -5.14796 0
M  V30 6972 H 652.574 3.71509 -4.84576 0
M  V30 6973 H 653.988 1.5462 -5.52056 0
M  V30 6974 H 652.385 0.873533 -5.93708 0
M  V30 6975 H 653.455 -0.0286887 -4.84892 0
M  V30 6976 N 654.798 1.5699 0.138552 0
M  V30 6977 C 656.026 1.87976 0.864437 0
M  V30 6978 C 656.441 0.724372 1.74351 0
M  V30 6979 O 655.798 -0.305575 1.79924 0
M  V30 6980 C 655.849 3.18276 1.71414 0
M  V30 6981 O 655.57 4.29365 0.870487 0
M  V30 6982 C 657.071 3.62834 2.54688 0
M  V30 6983 H 654.291 0.622878 0.249528 0
M  V30 6984 H 656.835 2.04094 0.128805 0
M  V30 6985 H 654.99 3.03886 2.40274 0
M  V30 6986 H 655.404 5.03924 1.45466 0
M  V30 6987 H 656.878 4.5682 3.0987 0
M  V30 6988 H 657.355 2.88533 3.31127 0
M  V30 6989 H 657.961 3.79946 1.91105 0
M  V30 6990 N 656.276 -0.40816 1.52223 0
M  V30 6991 C 657.516 -1.16418 1.68006 0
M  V30 6992 C 657.88 -1.87749 0.401793 0
M  V30 6993 O 659.081 -2.65245 0.435743 0
M  V30 6994 C 657.352 -2.13143 2.86889 0
M  V30 6995 S 658.911 -2.96839 3.2316 0
M  V30 6996 H 655.729 -0.394373 0.5916 0
M  V30 6997 H 658.331 -0.451349 1.90219 0
M  V30 6998 H 657.035 -1.59428 3.78168 0
M  V30 6999 H 656.566 -2.88963 2.66953 0
M  V30 7000 H 658.581 -4.151 2.71857 0
M  V30 7001 N 657.755 -1.42862 -0.66545 0
M  V30 7002 C 658.983 -1.47246 -1.45349 0
M  V30 7003 C 659.398 -0.0865944 -1.88601 0
M  V30 7004 O 658.755 0.900652 -1.58728 0
M  V30 7005 C 658.806 -2.40772 -2.6965 0
M  V30 7006 O 658.527 -3.73968 -2.2821 0
M  V30 7007 C 660.028 -2.54272 -3.63126 0
M  V30 7008 H 657.248 -0.500497 -0.446927 0
M  V30 7009 H 659.792 -1.87477 -0.816871 0
M  V30 7010 H 657.947 -2.0377 -3.29479 0
M  V30 7011 H 658.361 -4.24146 -3.08546 0
M  V30 7012 H 659.835 -3.23815 -4.47043 0
M  V30 7013 H 660.312 -1.58364 -4.09656 0
M  V30 7014 H 660.918 -2.92036 -3.09185 0
M  V30 7015 N 659.233 0.902656 -1.29189 0
M  V30 7016 C 660.479 1.65532 -1.17163 0
M  V30 7017 C 660.812 1.92216 0.276879 0
M  V30 7018 O 660.087 1.53048 1.20027 0
M  V30 7019 C 660.37 3.00629 -1.98228 0
M  V30 7020 C 660.223 2.81029 -3.51202 0
M  V30 7021 C 661.542 4.01321 -1.80635 0
M  V30 7022 H 658.661 0.60071 -0.426985 0
M  V30 7023 H 661.303 1.04578 -1.5863 0
M  V30 7024 H 659.453 3.52656 -1.62991 0
M  V30 7025 H 661.125 2.35927 -3.96404 0
M  V30 7026 H 659.368 2.1587 -3.76275 0
M  V30 7027 H 660.039 3.77014 -4.03192 0
M  V30 7028 H 662.515 3.58394 -2.11406 0
M  V30 7029 H 661.391 4.93792 -2.3971 0
M  V30 7030 H 661.652 4.35505 -0.760754 0
M  V30 7031 N 660.711 1.11618 1.11262 0
M  V30 7032 C 661.941 0.88745 1.86569 0
M  V30 7033 C 662.349 -0.56636 1.80524 0
M  V30 7034 O 661.692 -1.40289 1.18594 0
M  V30 7035 C 661.754 1.27313 3.36202 0
M  V30 7036 C 661.418 2.73649 3.66013 0
M  V30 7037 C 662.415 3.71863 3.63337 0
M  V30 7038 C 660.1 3.10342 3.9496 0
M  V30 7039 C 662.094 5.04788 3.89188 0
M  V30 7040 C 659.781 4.43451 4.20469 0
M  V30 7041 C 660.779 5.40484 4.17572 0
M  V30 7042 O 660.467 6.71195 4.42439 0
M  V30 7043 H 660.199 0.317543 0.596777 0
M  V30 7044 H 662.753 1.48768 1.41624 0
M  V30 7045 H 660.983 0.616062 3.81761 0
M  V30 7046 H 662.672 1.01991 3.92877 0
M  V30 7047 H 663.438 3.44861 3.41022 0
M  V30 7048 H 659.317 2.35431 3.9635 0
M  V30 7049 H 662.861 5.80516 3.86842 0
M  V30 7050 H 658.758 4.70187 4.42261 0
M  V30 7051 H 659.526 6.77012 4.59997 0
M  V30 7052 N 662.189 -1.289 0.906776 0
M  V30 7053 C 663.152 -2.25777 0.394656 0
M  V30 7054 C 664.152 -1.53621 -0.475119 0
M  V30 7055 O 665.342 -1.71949 -0.279165 0
M  V30 7056 C 662.474 -3.38113 -0.43499 0
M  V30 7057 H 663.667 -2.72592 1.25033 0
M  V30 7058 H 661.22 -1.40463 0.685547 0
M  V30 7059 H 661.955 -2.96648 -1.31036 0
M  V30 7060 H 661.74 -3.91647 0.188334 0
M  V30 7061 H 663.23 -4.10168 -0.784365 0
M  V30 7062 N 663.667 -0.670007 -1.42649 0
M  V30 7063 C 664.916 -0.187526 -2.00826 0
M  V30 7064 C 665.229 1.21142 -1.53571 0
M  V30 7065 O 666.435 1.79001 -2.04134 0
M  V30 7066 C 664.891 -0.284409 -3.58774 0
M  V30 7067 C 664.499 -1.6871 -4.15019 0
M  V30 7068 C 666.243 0.139605 -4.2427 0
M  V30 7069 C 664.15 -1.73701 -5.65316 0
M  V30 7070 H 663.08 -0.0663468 -0.751075 0
M  V30 7071 H 665.731 -0.834492 -1.63427 0
M  V30 7072 H 664.113 0.430364 -3.93655 0
M  V30 7073 H 665.287 -2.42857 -3.91608 0
M  V30 7074 H 663.602 -2.05855 -3.61957 0
M  V30 7075 H 666.199 0.122398 -5.3456 0
M  V30 7076 H 666.542 1.17403 -3.99402 0
M  V30 7077 H 667.075 -0.523995 -3.94334 0
M  V30 7078 H 663.814 -2.75109 -5.94975 0
M  V30 7079 H 663.334 -1.03903 -5.90732 0
M  V30 7080 H 665.013 -1.48829 -6.2965 0
M  V30 7081 N 665.145 1.52092 -0.413018 0
M  V30 7082 C 666.556 1.86617 0.0556967 0
M  V30 7083 C 666.907 1.33156 1.44097 0
M  V30 7084 O 666.032 0.672417 2.05688 0
M  V30 7085 C 666.627 3.38628 0.107844 0
M  V30 7086 C 665.186 3.72778 0.520904 0
M  V30 7087 C 664.333 2.75649 -0.302109 0
M  V30 7088 H 667.284 1.45663 -0.629919 0
M  V30 7089 H 667.305 3.69152 0.922324 0
M  V30 7090 H 666.817 3.77508 -0.900506 0
M  V30 7091 H 664.918 3.39478 1.53575 0
M  V30 7092 H 665.031 4.7838 0.262591 0
M  V30 7093 H 663.395 2.53603 0.236115 0
M  V30 7094 H 664.178 3.17369 -1.30888 0
M  V30 7095 N 666.623 0.143563 1.56945 0
M  V30 7096 C 668.034 -0.37783 1.82837 0
M  V30 7097 C 668.385 -1.64967 1.06209 0
M  V30 7098 O 667.51 -2.14221 0.306291 0
M  V30 7099 C 668.105 -0.692274 3.31652 0
M  V30 7100 C 666.664 -1.1582 3.58138 0
M  V30 7101 C 665.811 -0.17951 2.76718 0
M  V30 7102 H 668.762 0.368317 1.54367 0
M  V30 7103 H 668.783 -1.54729 3.47619 0
M  V30 7104 H 668.295 0.233572 3.87397 0
M  V30 7105 H 666.396 -2.10011 3.07776 0
M  V30 7106 H 666.509 -1.08655 4.66616 0
M  V30 7107 H 664.873 -0.671458 2.4569 0
M  V30 7108 H 665.656 0.739865 3.35233 0
M  V30 7109 N 668.101 -1.57061 -0.130224 0
M  V30 7110 C 669.512 -1.73539 -0.68856 0
M  V30 7111 C 669.863 -0.760554 -1.80859 0
M  V30 7112 O 668.988 0.0690796 -2.1629 0
M  V30 7113 C 669.583 -3.14666 -1.25581 0
M  V30 7114 C 668.142 -3.32689 -1.76055 0
M  V30 7115 C 667.289 -2.69436 -0.655712 0
M  V30 7116 H 670.24 -1.58412 0.0956002 0
M  V30 7117 H 670.261 -3.15595 -2.12556 0
M  V30 7118 H 669.773 -3.85593 -0.440412 0
M  V30 7119 H 667.874 -2.66786 -2.60108 0
M  V30 7120 H 667.987 -4.4077 -1.87772 0
M  V30 7121 H 666.351 -2.30362 -1.08654 0
M  V30 7122 H 667.134 -3.42979 0.14852 0
M  V30 7123 N 669.579 0.400081 -1.52437 0
M  V30 7124 C 670.529 1.48734 -1.72807 0
M  V30 7125 C 671.513 1.50004 -0.582032 0
M  V30 7126 O 672.705 1.55828 -0.839449 0
M  V30 7127 C 669.834 2.86568 -1.89034 0
M  V30 7128 C 668.92 2.8991 -3.09537 0
M  V30 7129 N 669.311 2.62937 -4.32086 0
M  V30 7130 C 667.609 3.21078 -3.09556 0
M  V30 7131 C 668.31 2.73079 -5.13617 0
M  V30 7132 N 667.286 3.06342 -4.49061 0
M  V30 7133 H 671.088 1.26689 -2.65193 0
M  V30 7134 H 668.602 0.607902 -1.50593 0
M  V30 7135 H 670.599 3.64834 -2.01746 0
M  V30 7136 H 669.259 3.09604 -0.978547 0
M  V30 7137 H 670.27 2.37163 -4.60406 0
M  V30 7138 H 666.947 3.49651 -2.28146 0
M  V30 7139 H 668.337 2.55863 -6.21276 0
M  V30 7140 N 671.057 1.43213 0.657864 0
M  V30 7141 C 672.007 1.44459 1.76396 0
M  V30 7142 C 672.991 0.313641 1.57814 0
M  V30 7143 O 674.183 0.557094 1.68004 0
M  V30 7144 C 671.312 1.36586 3.14959 0
M  V30 7145 C 670.398 2.54692 3.39106 0
M  V30 7146 N 670.789 3.80059 3.33749 0
M  V30 7147 C 669.087 2.49316 3.69807 0
M  V30 7148 C 669.788 4.58606 3.57849 0
M  V30 7149 N 668.764 3.89267 3.79437 0
M  V30 7150 H 672.566 2.39265 1.70673 0
M  V30 7151 H 670.08 1.378 0.859357 0
M  V30 7152 H 672.077 1.35561 3.94245 0
M  V30 7153 H 670.737 0.427956 3.21867 0
M  V30 7154 H 671.748 4.12414 3.13266 0
M  V30 7155 H 668.425 1.6419 3.83859 0
M  V30 7156 H 669.815 5.67619 3.59525 0
M  V30 7157 N 672.536 -0.895792 1.29666 0
M  V30 7158 C 673.785 -1.64131 1.17234 0
M  V30 7159 C 674.098 -1.93665 -0.274416 0
M  V30 7160 O 675.304 -2.66472 -0.520105 0
M  V30 7161 C 673.76 -2.95764 2.05065 0
M  V30 7162 C 673.368 -2.7381 3.54587 0
M  V30 7163 C 675.112 -3.737 2.01367 0
M  V30 7164 C 673.019 -4.01194 4.34508 0
M  V30 7165 H 671.949 -0.615742 0.435175 0
M  V30 7166 H 674.6 -0.992626 1.54335 0
M  V30 7167 H 672.982 -3.61867 1.60837 0
M  V30 7168 H 674.156 -2.16277 4.06892 0
M  V30 7169 H 672.471 -2.09265 3.59996 0
M  V30 7170 H 675.068 -4.68152 2.58337 0
M  V30 7171 H 675.411 -4.04245 0.994575 0
M  V30 7172 H 675.944 -3.14444 2.43659 0
M  V30 7173 H 672.683 -3.75813 5.37071 0
M  V30 7174 H 672.203 -4.58272 3.86971 0
M  V30 7175 H 673.882 -4.69307 4.45376 0
M  V30 7176 N 674.014 -1.12206 -1.10668 0
M  V30 7177 C 674.964 -0.75669 -2.15077 0
M  V30 7178 C 675.948 0.243154 -1.59052 0
M  V30 7179 O 677.14 0.0490268 -1.76932 0
M  V30 7180 C 674.269 -0.210303 -3.42655 0
M  V30 7181 C 673.355 -1.23829 -4.05619 0
M  V30 7182 N 673.746 -2.43513 -4.43323 0
M  V30 7183 C 672.044 -1.08309 -4.32649 0
M  V30 7184 C 672.745 -3.09138 -4.92756 0
M  V30 7185 N 671.721 -2.36593 -4.89413 0
M  V30 7186 H 675.523 -1.66747 -2.42018 0
M  V30 7187 H 673.037 -1.00248 -1.27765 0
M  V30 7188 H 675.034 0.0696287 -4.16842 0
M  V30 7189 H 673.694 0.694967 -3.17176 0
M  V30 7190 H 674.705 -2.80912 -4.35097 0
M  V30 7191 H 671.382 -0.234919 -4.16839 0
M  V30 7192 H 672.772 -4.11049 -5.31496 0
M  V30 7193 N 675.492 1.28418 -0.913599 0
M  V30 7194 C 676.738 1.95627 -0.556933 0
M  V30 7195 C 677.093 1.706 0.889565 0
M  V30 7196 O 676.386 1.01637 1.6242 0
M  V30 7197 C 676.58 3.48283 -0.802099 0
M  V30 7198 C 676.409 3.88151 -2.27088 0
M  V30 7199 C 675.179 4.1232 -2.92096 0
M  V30 7200 C 677.377 3.98819 -3.24728 0
M  V30 7201 N 675.359 4.3886 -4.29272 0
M  V30 7202 C 676.73 4.29571 -4.47067 0
M  V30 7203 C 678.785 3.81342 -3.20129 0
M  V30 7204 C 677.488 4.44667 -5.65388 0
M  V30 7205 C 679.514 3.97656 -4.37749 0
M  V30 7206 C 678.876 4.2878 -5.58862 0
M  V30 7207 H 674.975 0.739715 -0.253664 0
M  V30 7208 H 677.559 1.55074 -1.1773 0
M  V30 7209 H 675.73 3.87826 -0.211007 0
M  V30 7210 H 677.462 4.02623 -0.409478 0
M  V30 7211 H 674.217 4.06611 -2.42826 0
M  V30 7212 H 674.641 4.56214 -5.00198 0
M  V30 7213 H 679.283 3.56331 -2.2757 0
M  V30 7214 H 677.001 4.68509 -6.58426 0
M  V30 7215 H 680.587 3.85569 -4.35692 0
M  V30 7216 H 679.467 4.41136 -6.48359 0
M  V30 7217 N 676.97 0.677563 1.42291 0
M  V30 7218 C 678.2 0.209155 2.05539 0
M  V30 7219 C 678.608 -1.13987 1.51009 0
M  V30 7220 O 677.951 -1.71976 0.645764 0
M  V30 7221 C 678.013 0.0697758 3.59432 0
M  V30 7222 C 677.677 1.34795 4.36668 0
M  V30 7223 C 678.674 2.28201 4.67141 0
M  V30 7224 C 676.359 1.59632 4.76259 0
M  V30 7225 C 678.353 3.44718 5.36142 0
M  V30 7226 C 676.04 2.76437 5.45 0
M  V30 7227 C 677.038 3.68805 5.74867 0
M  V30 7228 O 676.726 4.83567 6.42198 0
M  V30 7229 H 676.458 0.0986202 0.668768 0
M  V30 7230 H 679.012 0.925483 1.83368 0
M  V30 7231 H 677.242 -0.702157 3.80272 0
M  V30 7232 H 678.931 -0.359115 4.04308 0
M  V30 7233 H 679.697 2.10264 4.37052 0
M  V30 7234 H 675.576 0.886073 4.52404 0
M  V30 7235 H 679.12 4.16833 5.59371 0
M  V30 7236 H 675.017 2.94299 5.74507 0
M  V30 7237 H 675.785 4.83147 6.6069 0
M  V30 7238 N 678.448 -1.51871 0.421078 0
M  V30 7239 C 679.694 -2.02894 -0.143346 0
M  V30 7240 C 680.049 -1.30054 -1.41787 0
M  V30 7241 O 679.342 -0.401776 -1.8734 0
M  V30 7242 C 679.536 -3.54764 -0.433292 0
M  V30 7243 C 679.365 -4.42316 0.811584 0
M  V30 7244 C 678.135 -4.872 1.34033 0
M  V30 7245 C 680.333 -4.85631 1.69313 0
M  V30 7246 N 678.315 -5.58915 2.53944 0
M  V30 7247 C 679.686 -5.56248 2.7384 0
M  V30 7248 C 681.741 -4.67634 1.70947 0
M  V30 7249 C 680.444 -6.10777 3.79927 0
M  V30 7250 C 682.47 -5.23068 2.7596 0
M  V30 7251 C 681.832 -5.93617 3.79207 0
M  V30 7252 H 677.931 -0.78188 -0.0137104 0
M  V30 7253 H 680.515 -1.85919 0.578105 0
M  V30 7254 H 678.686 -3.71787 -1.12378 0
M  V30 7255 H 680.418 -3.92464 -0.987644 0
M  V30 7256 H 677.173 -4.65035 0.896606 0
M  V30 7257 H 677.597 -5.99408 3.14704 0
M  V30 7258 H 682.239 -4.12566 0.9246 0
M  V30 7259 H 679.957 -6.64909 4.59262 0
M  V30 7260 H 683.543 -5.11005 2.78147 0
M  V30 7261 H 682.423 -6.35743 4.5913 0
M  V30 7262 N 679.926 -0.151884 -1.56866 0
M  V30 7263 C 680.858 0.817008 -2.14144 0
M  V30 7264 C 681.871 1.20735 -1.0921 0
M  V30 7265 O 683.06 1.15058 -1.36469 0
M  V30 7266 C 680.16 2.10844 -2.65326 0
M  V30 7267 C 679.333 1.88471 -3.94712 0
M  V30 7268 C 678.392 3.01649 -4.31155 0
M  V30 7269 O 677.418 2.73127 -4.9939 0
M  V30 7270 N 678.62 4.28947 -3.91132 0
M  V30 7271 H 681.385 0.327448 -2.97906 0
M  V30 7272 H 678.946 0.0315313 -1.61869 0
M  V30 7273 H 680.938 2.85616 -2.86715 0
M  V30 7274 H 679.508 2.51049 -1.86262 0
M  V30 7275 H 678.728 0.977088 -3.81899 0
M  V30 7276 H 680.016 1.70866 -4.79252 0
M  V30 7277 H 679.414 4.54986 -3.36161 0
M  V30 7278 H 677.971 5.00484 -4.17563 0
M  V30 7279 N 681.404 1.57128 0.121893 0
M  V30 7280 C 682.334 2.03165 1.15092 0
M  V30 7281 C 683.315 0.915587 1.43356 0
M  V30 7282 O 684.5 1.1851 1.53847 0
M  V30 7283 C 681.63 2.43352 2.47784 0
M  V30 7284 C 680.584 3.58376 2.33989 0
M  V30 7285 C 679.91 3.84454 3.71617 0
M  V30 7286 C 681.21 4.90199 1.80283 0
M  V30 7287 H 682.904 2.89382 0.768023 0
M  V30 7288 H 680.45 1.39218 0.367998 0
M  V30 7289 H 682.403 2.74163 3.20019 0
M  V30 7290 H 681.127 1.54103 2.87958 0
M  V30 7291 H 679.786 3.2777 1.64202 0
M  V30 7292 H 679.434 2.92414 4.09271 0
M  V30 7293 H 679.134 4.61877 3.6324 0
M  V30 7294 H 680.658 4.17714 4.45362 0
M  V30 7295 H 682.072 5.19565 2.42333 0
M  V30 7296 H 680.469 5.71601 1.82735 0
M  V30 7297 H 681.539 4.78904 0.760184 0
M  V30 7298 N 682.882 -0.391992 1.52647 0
M  V30 7299 C 683.792 -1.503 1.80131 0
M  V30 7300 C 684.808 -1.59825 0.687882 0
M  V30 7301 O 685.984 -1.76218 0.975149 0
M  V30 7302 C 683.049 -2.85863 1.96171 0
M  V30 7303 C 682.11 -2.86084 3.20085 0
M  V30 7304 C 681.343 -4.15181 3.35351 0
M  V30 7305 O 681.566 -5.09981 2.55491 0
M  V30 7306 O 680.5 -4.22603 4.28591 0
M  V30 7307 H 684.326 -1.30007 2.74466 0
M  V30 7308 H 681.911 -0.579539 1.37701 0
M  V30 7309 H 683.793 -3.66236 2.08445 0
M  V30 7310 H 682.468 -3.06189 1.05025 0
M  V30 7311 H 681.375 -2.04504 3.13256 0
M  V30 7312 H 682.708 -2.7071 4.11068 0
M  V30 7313 N 684.36 -1.4356 -0.65026 0
M  V30 7314 C 685.27 -1.514 -1.79207 0
M  V30 7315 C 686.286 -0.400895 -1.69319 0
M  V30 7316 O 687.462 -0.655458 -1.90436 0
M  V30 7317 C 684.527 -1.43737 -3.155 0
M  V30 7318 C 683.588 -2.65743 -3.37163 0
M  V30 7319 C 682.821 -2.58436 -4.66954 0
M  V30 7320 O 683.044 -1.63374 -5.46503 0
M  V30 7321 O 681.978 -3.48984 -4.90402 0
M  V30 7322 H 685.804 -2.47825 -1.75547 0
M  V30 7323 H 683.389 -1.25594 -0.809111 0
M  V30 7324 H 685.271 -1.41916 -3.96784 0
M  V30 7325 H 683.946 -0.504488 -3.19745 0
M  V30 7326 H 682.853 -2.73136 -2.55632 0
M  V30 7327 H 684.186 -3.58014 -3.37768 0
M  V30 7328 N 685.838 0.888903 -1.30139 0
M  V30 7329 C 686.748 2.02705 -1.18101 0
M  V30 7330 C 687.764 1.73702 -0.101809 0
M  V30 7331 O 688.94 1.98906 -0.315984 0
M  V30 7332 C 686.005 3.35616 -0.869651 0
M  V30 7333 C 685.066 3.78067 -2.03381 0
M  V30 7334 C 684.299 5.04635 -1.73721 0
M  V30 7335 O 684.522 5.66531 -0.663267 0
M  V30 7336 O 683.456 5.43399 -2.58845 0
M  V30 7337 H 687.282 2.15788 -2.13704 0
M  V30 7338 H 684.867 1.01426 -1.09695 0
M  V30 7339 H 686.749 4.15358 -0.711043 0
M  V30 7340 H 685.424 3.23651 0.0565002 0
M  V30 7341 H 684.331 2.99046 -2.24772 0
M  V30 7342 H 685.664 3.94631 -2.94155 0
M  V30 7343 N 687.317 1.12792 1.10072 0
M  V30 7344 C 688.557 0.895691 1.8373 0
M  V30 7345 C 688.921 -0.568131 1.83402 0
M  V30 7346 O 690.122 -0.917666 2.52651 0
M  V30 7347 C 688.393 1.4593 3.2625 0
M  V30 7348 S 689.952 1.36615 4.16991 0
M  V30 7349 H 686.77 0.323017 0.633389 0
M  V30 7350 H 689.372 1.43816 1.32428 0
M  V30 7351 H 688.076 2.51818 3.24062 0
M  V30 7352 H 687.607 0.914478 3.82624 0
M  V30 7353 H 689.622 0.340131 4.95033 0
M  V30 7354 N 688.795 -1.27931 0.920396 0
M  V30 7355 C 689.758 -2.25345 0.41858 0
M  V30 7356 C 690.758 -1.54116 -0.458798 0
M  V30 7357 O 691.948 -1.72235 -0.260912 0
M  V30 7358 C 689.08 -3.38556 -0.399104 0
M  V30 7359 H 690.273 -2.71251 1.27918 0
M  V30 7360 H 687.826 -1.39728 0.700406 0
M  V30 7361 H 688.561 -2.98021 -1.27882 0
M  V30 7362 H 688.346 -3.91426 0.229863 0
M  V30 7363 H 689.836 -4.10976 -0.740817 0
M  V30 7364 N 690.273 -0.685099 -1.4193 0
M  V30 7365 C 691.221 -0.00165985 -2.326 0
M  V30 7366 C 692.215 0.779678 -1.50391 0
M  V30 7367 O 693.421 0.68648 -1.66395 0
M  V30 7368 H 689.796 0.0182616 -0.751778 0
M  V30 7369 H 691.767 -0.783592 -2.87928 0
M  V30 7370 C 690.516 0.928385 -3.35077 0
M  V30 7371 H 689.839 0.336578 -3.98381 0
M  V30 7372 H 691.279 1.37509 -4.01083 0
M  V30 7373 C 689.738 2.03964 -2.68142 0
M  V30 7374 O 690.268 3.12727 -2.5212 0
M  V30 7375 N 688.474 1.81433 -2.27003 0
M  V30 7376 H 688.021 0.929807 -2.40234 0
M  V30 7377 H 687.979 2.55973 -1.82552 0
M  V30 7378 N 691.751 1.51645 -0.429126 0
M  V30 7379 C 692.661 2.31288 0.392809 0
M  V30 7380 C 693.677 1.39852 1.03525 0
M  V30 7381 O 694.853 1.72926 1.03241 0
M  V30 7382 C 691.918 3.13347 1.48372 0
M  V30 7383 C 690.979 4.20551 0.862268 0
M  V30 7384 C 690.212 4.98688 1.9012 0
M  V30 7385 O 690.435 4.77359 3.12225 0
M  V30 7386 O 689.369 5.83005 1.4963 0
M  V30 7387 H 693.195 3.02609 -0.257138 0
M  V30 7388 H 690.78 1.48163 -0.191851 0
M  V30 7389 H 692.662 3.64387 2.1166 0
M  V30 7390 H 691.337 2.44799 2.1179 0
M  V30 7391 H 690.244 3.73609 0.191568 0
M  V30 7392 H 691.577 4.91449 0.271704 0
M  V30 7393 N 693.229 0.160201 1.56784 0
M  V30 7394 C 694.64 -0.358417 1.83227 0
M  V30 7395 C 694.991 -1.63831 1.07952 0
M  V30 7396 O 694.116 -2.13885 0.328995 0
M  V30 7397 C 694.711 -0.657058 3.32368 0
M  V30 7398 C 693.27 -1.12015 3.59346 0
M  V30 7399 C 692.417 -0.15015 2.76893 0
M  V30 7400 H 695.368 0.384669 1.53967 0
M  V30 7401 H 695.389 -1.51033 3.49241 0
M  V30 7402 H 694.901 0.274647 3.87127 0
M  V30 7403 H 693.002 -2.06734 3.09987 0
M  V30 7404 H 693.115 -1.037 4.67743 0
M  V30 7405 H 691.479 -0.645361 2.46388 0
M  V30 7406 H 692.262 0.775379 3.34429 0
M  V30 7407 N 694.707 -1.5719 -0.113559 0
M  V30 7408 C 695.932 -1.89702 -0.838336 0
M  V30 7409 C 696.357 -0.752679 -1.72384 0
M  V30 7410 O 695.715 0.296575 -1.78858 0
M  V30 7411 C 695.763 -3.20989 -1.64312 0
M  V30 7412 O 694.867 -3.07278 -2.75053 0
M  V30 7413 H 694.208 -0.622339 -0.231496 0
M  V30 7414 H 696.738 -2.04382 -0.0943228 0
M  V30 7415 H 696.748 -3.53843 -2.03123 0
M  V30 7416 H 695.423 -4.03869 -0.993119 0
M  V30 7417 H 694 -2.85901 -2.39406 0
M  V30 7418 N 696.185 0.383891 -1.52853 0
M  V30 7419 C 697.117 1.48889 -1.74255 0
M  V30 7420 C 698.13 1.50405 -0.623063 0
M  V30 7421 O 699.319 1.54215 -0.898887 0
M  V30 7422 C 696.419 2.87721 -1.79081 0
M  V30 7423 C 695.592 3.10111 -3.08464 0
M  V30 7424 C 694.651 4.28954 -3.0477 0
M  V30 7425 O 693.677 4.25012 -3.78621 0
M  V30 7426 N 694.879 5.35411 -2.24311 0
M  V30 7427 H 697.644 1.30915 -2.69595 0
M  V30 7428 H 695.205 0.573454 -1.51404 0
M  V30 7429 H 697.197 3.65333 -1.7411 0
M  V30 7430 H 695.767 2.99029 -0.911052 0
M  V30 7431 H 694.987 2.20319 -3.26884 0
M  V30 7432 H 696.275 3.21928 -3.94005 0
M  V30 7433 H 695.673 5.41471 -1.63787 0
M  V30 7434 H 694.23 6.1167 -2.25175 0
M  V30 7435 N 697.663 1.43903 0.642637 0
M  V30 7436 C 698.626 1.49538 1.73698 0
M  V30 7437 C 699.626 0.378776 1.56275 0
M  V30 7438 O 700.816 0.64095 1.6198 0
M  V30 7439 C 697.948 1.35821 3.12675 0
M  V30 7440 H 699.141 2.47008 1.70079 0
M  V30 7441 H 696.694 1.30824 0.85526 0
M  V30 7442 H 697.429 0.393994 3.21898 0
M  V30 7443 H 697.214 2.16776 3.26727 0
M  V30 7444 H 698.704 1.4272 3.92455 0
M  V30 7445 N 699.141 -0.881989 1.30609 0
M  V30 7446 C 700.387 -1.63647 1.19781 0
M  V30 7447 C 700.72 -1.92632 -0.246265 0
M  V30 7448 O 699.995 -1.54938 -1.17577 0
M  V30 7449 C 700.278 -2.97437 2.02985 0
M  V30 7450 C 700.131 -2.75406 3.55628 0
M  V30 7451 C 701.45 -3.98397 1.86997 0
M  V30 7452 H 698.569 -0.593841 0.436488 0
M  V30 7453 H 701.211 -1.02041 1.60273 0
M  V30 7454 H 699.361 -3.50018 1.68581 0
M  V30 7455 H 701.033 -2.2959 4.00107 0
M  V30 7456 H 699.276 -2.09856 3.79662 0
M  V30 7457 H 699.947 -3.70552 4.09139 0
M  V30 7458 H 702.423 -3.54986 2.17081 0
M  V30 7459 H 701.299 -4.89916 2.47536 0
M  V30 7460 H 701.56 -4.3424 0.829943 0
M  V30 7461 N 700.619 -1.13374 -1.09472 0
M  V30 7462 C 701.844 -0.918711 -1.85942 0
M  V30 7463 C 702.269 0.527225 -1.8056 0
M  V30 7464 O 701.627 1.37408 -1.18274 0
M  V30 7465 C 701.675 -1.41056 -3.31867 0
M  V30 7466 O 700.779 -0.595496 -4.08078 0
M  V30 7467 H 700.12 -0.329297 -0.576593 0
M  V30 7468 H 702.65 -1.50829 -1.38245 0
M  V30 7469 H 702.66 -1.41398 -3.82715 0
M  V30 7470 H 701.335 -2.46335 -3.35099 0
M  V30 7471 H 699.912 -0.659911 -3.67014 0
M  V30 7472 N 702.098 1.27442 -0.927168 0
M  V30 7473 C 703.344 1.94679 -0.568164 0
M  V30 7474 C 703.677 1.72697 0.888219 0
M  V30 7475 O 702.952 1.05573 1.63354 0
M  V30 7476 C 703.235 3.4882 -0.894253 0
M  V30 7477 C 703.088 3.80146 -2.40435 0
M  V30 7478 C 704.407 4.38281 -0.399766 0
M  V30 7479 H 701.526 0.707071 -0.207892 0
M  V30 7480 H 704.168 1.50568 -1.15885 0
M  V30 7481 H 702.318 3.86522 -0.391566 0
M  V30 7482 H 703.99 3.52238 -2.97869 0
M  V30 7483 H 702.233 3.26716 -2.85375 0
M  V30 7484 H 702.904 4.87835 -2.58304 0
M  V30 7485 H 705.38 4.07726 -0.83058 0
M  V30 7486 H 704.256 5.44955 -0.656885 0
M  V30 7487 H 704.517 4.36521 0.700153 0
M  V30 7488 N 703.576 0.692616 1.41565 0
M  V30 7489 C 704.804 0.231279 2.05603 0
M  V30 7490 C 705.219 -1.11837 1.52111 0
M  V30 7491 O 704.576 -1.6983 0.66813 0
M  V30 7492 C 704.627 0.177125 3.61066 0
M  V30 7493 O 704.348 1.47346 4.12578 0
M  V30 7494 C 705.849 -0.30556 4.42246 0
M  V30 7495 H 703.069 0.108238 0.662213 0
M  V30 7496 H 705.613 0.944369 1.81389 0
M  V30 7497 H 703.768 -0.486769 3.8433 0
M  V30 7498 H 704.182 1.35861 5.06599 0
M  V30 7499 H 705.656 -0.29233 5.51225 0
M  V30 7500 H 706.133 -1.34393 4.18133 0
M  V30 7501 H 706.739 0.327229 4.24039 0
M  V30 7502 N 705.054 -1.51416 0.437162 0
M  V30 7503 C 706.002 -2.29328 -0.388765 0
M  V30 7504 C 706.996 -1.35171 -1.02104 0
M  V30 7505 O 708.202 -1.52513 -0.956024 0
M  V30 7506 H 704.577 -0.738048 -0.144183 0
M  V30 7507 H 706.548 -2.96995 0.289212 0
M  V30 7508 C 705.297 -3.14741 -1.47761 0
M  V30 7509 H 704.62 -3.8708 -1.00045 0
M  V30 7510 H 706.06 -3.72313 -2.02877 0
M  V30 7511 C 704.519 -2.30105 -2.46076 0
M  V30 7512 O 705.049 -1.96055 -3.50607 0
M  V30 7513 N 703.255 -1.93331 -2.1696 0
M  V30 7514 H 702.802 -2.2122 -1.31983 0
M  V30 7515 H 702.76 -1.36999 -2.82982 0
M  V30 7516 N 706.532 -0.168513 -1.56696 0
M  V30 7517 C 707.943 0.348694 -1.83415 0
M  V30 7518 C 708.294 1.63257 -1.0882 0
M  V30 7519 O 707.419 2.13707 -0.340333 0
M  V30 7520 C 708.014 0.639423 -3.32711 0
M  V30 7521 C 706.573 1.10108 -3.59935 0
M  V30 7522 C 705.72 0.135464 -2.76969 0
M  V30 7523 H 708.671 -0.392829 -1.53761 0
M  V30 7524 H 708.692 1.49179 -3.50037 0
M  V30 7525 H 708.204 -0.295173 -3.86976 0
M  V30 7526 H 706.305 2.05088 -3.11079 0
M  V30 7527 H 706.418 1.01218 -4.68286 0
M  V30 7528 H 704.782 0.632286 -2.46727 0
M  V30 7529 H 705.565 -0.793104 -3.34013 0
M  V30 7530 N 708.01 1.57248 0.105221 0
M  V30 7531 C 709.24 1.89492 0.823175 0
M  V30 7532 C 709.648 0.75934 1.73294 0
M  V30 7533 O 708.991 -0.278182 1.81581 0
M  V30 7534 C 709.053 3.16891 1.69765 0
M  V30 7535 C 708.717 4.46787 0.960769 0
M  V30 7536 C 709.714 5.19061 0.295218 0
M  V30 7537 C 707.399 4.93467 0.937854 0
M  V30 7538 C 709.393 6.36246 -0.383393 0
M  V30 7539 C 707.08 6.10566 0.255452 0
M  V30 7540 C 708.078 6.81804 -0.404003 0
M  V30 7541 O 707.766 7.96673 -1.07549 0
M  V30 7542 H 707.498 0.631512 0.24118 0
M  V30 7543 H 710.052 2.05203 0.0899655 0
M  V30 7544 H 708.282 2.973 2.47285 0
M  V30 7545 H 709.971 3.35046 2.29126 0
M  V30 7546 H 710.737 4.84044 0.304448 0
M  V30 7547 H 706.616 4.37913 1.44058 0
M  V30 7548 H 710.16 6.91787 -0.898696 0
M  V30 7549 H 706.057 6.45039 0.244032 0
M  V30 7550 H 706.825 8.12596 -0.981355 0
M  V30 7551 N 709.488 -0.375779 1.53054 0
M  V30 7552 C 710.899 -0.95309 1.6054 0
M  V30 7553 C 711.25 -1.90575 0.466446 0
M  V30 7554 O 710.375 -2.12507 -0.408609 0
M  V30 7555 C 710.97 -1.73537 2.90982 0
M  V30 7556 C 709.529 -2.26218 3.00836 0
M  V30 7557 C 708.676 -1.07157 2.55759 0
M  V30 7558 H 711.627 -0.154895 1.57942 0
M  V30 7559 H 711.648 -2.59574 2.78211 0
M  V30 7560 H 711.16 -1.04176 3.73857 0
M  V30 7561 H 709.261 -2.98852 2.22527 0
M  V30 7562 H 709.374 -2.54799 4.05727 0
M  V30 7563 H 707.738 -1.43553 2.10391 0
M  V30 7564 H 708.521 -0.393099 3.41042 0
M  V30 7565 N 710.966 -1.44241 -0.634997 0
M  V30 7566 C 712.206 -1.48339 -1.40623 0
M  V30 7567 C 712.57 -0.111479 -1.91676 0
M  V30 7568 O 713.771 -0.0271345 -2.68786 0
M  V30 7569 C 712.042 -2.51122 -2.54308 0
M  V30 7570 S 713.601 -2.74237 -3.42548 0
M  V30 7571 H 710.419 -0.524715 -0.479787 0
M  V30 7572 H 713.021 -1.81138 -0.735489 0
M  V30 7573 H 711.725 -3.49511 -2.15106 0
M  V30 7574 H 711.256 -2.19883 -3.26213 0
M  V30 7575 H 713.271 -2.0554 -4.51628 0
M  V30 7576 N 712.444 0.87505 -1.31075 0
M  V30 7577 C 713.354 2.01441 -1.20244 0
M  V30 7578 C 714.37 1.73584 -0.120227 0
M  V30 7579 O 715.546 1.98559 -0.337063 0
M  V30 7580 C 712.611 3.34675 -0.905199 0
M  V30 7581 C 711.672 3.75889 -2.0738 0
M  V30 7582 C 710.905 5.02764 -1.79064 0
M  V30 7583 O 711.128 5.65795 -0.723318 0
M  V30 7584 O 710.062 5.40623 -2.64594 0
M  V30 7585 H 713.888 2.13509 -2.1598 0
M  V30 7586 H 711.473 1.00257 -1.10765 0
M  V30 7587 H 713.355 4.1458 -0.755057 0
M  V30 7588 H 712.03 3.23692 0.0221695 0
M  V30 7589 H 710.937 2.96645 -2.27931 0
M  V30 7590 H 712.27 3.91489 -2.98324 0
M  V30 7591 N 713.922 1.13953 1.08869 0
M  V30 7592 C 714.832 0.835666 2.19212 0
M  V30 7593 C 715.848 -0.182005 1.73045 0
M  V30 7594 O 717.024 -0.0116661 2.01397 0
M  V30 7595 C 714.089 0.312325 3.4529 0
M  V30 7596 C 713.15 1.39196 4.06107 0
M  V30 7597 C 712.383 0.893496 5.26168 0
M  V30 7598 O 712.606 -0.266807 5.69776 0
M  V30 7599 O 711.54 1.67037 5.78258 0
M  V30 7600 H 715.366 1.75769 2.47667 0
M  V30 7601 H 712.951 0.917421 1.17914 0
M  V30 7602 H 714.833 0.0261582 4.21392 0
M  V30 7603 H 713.508 -0.582042 3.18424 0
M  V30 7604 H 712.415 1.73152 3.31616 0
M  V30 7605 H 713.748 2.26068 4.37212 0
M  V30 7606 N 715.4 -1.26948 0.933913 0
M  V30 7607 C 716.646 -1.94716 0.587985 0
M  V30 7608 C 717.001 -1.71994 -0.862312 0
M  V30 7609 O 716.294 -1.04208 -1.60783 0
M  V30 7610 C 716.488 -3.46963 0.857406 0
M  V30 7611 C 716.317 -3.84489 2.33234 0
M  V30 7612 C 715.087 -4.07621 2.98618 0
M  V30 7613 C 717.285 -3.93602 3.31031 0
M  V30 7614 N 715.267 -4.31976 4.362 0
M  V30 7615 C 716.638 -4.22404 4.53845 0
M  V30 7616 C 718.693 -3.76201 3.26155 0
M  V30 7617 C 717.396 -4.35615 5.72391 0
M  V30 7618 C 719.422 -3.90641 4.4402 0
M  V30 7619 C 718.784 -4.19835 5.65613 0
M  V30 7620 H 714.883 -0.735586 0.2654 0
M  V30 7621 H 717.467 -1.53181 1.20182 0
M  V30 7622 H 715.638 -3.87442 0.27268 0
M  V30 7623 H 717.37 -4.01921 0.47348 0
M  V30 7624 H 714.125 -4.02696 2.49264 0
M  V30 7625 H 714.549 -4.48199 5.07392 0
M  V30 7626 H 719.191 -3.52665 2.3321 0
M  V30 7627 H 716.909 -4.57975 6.65796 0
M  V30 7628 H 720.495 -3.78589 4.41771 0
M  V30 7629 H 719.375 -4.30765 6.55295 0
M  V30 7630 N 716.879 -0.700114 -1.41195 0
M  V30 7631 C 718.295 -0.372114 -1.55201 0
M  V30 7632 C 718.495 1.12053 -1.6747 0
M  V30 7633 O 717.551 1.90642 -1.65566 0
M  V30 7634 C 718.864 -1.12462 -2.78878 0
M  V30 7635 C 720.412 -1.10941 -2.92679 0
M  V30 7636 C 720.887 -1.84376 -4.19249 0
M  V30 7637 N 722.378 -1.81368 -4.26216 0
M  V30 7638 C 723.113 -2.35024 -5.23021 0
M  V30 7639 N 722.609 -2.9717 -6.25829 0
M  V30 7640 N 724.402 -2.25254 -5.14992 0
M  V30 7641 H 716.553 -1.66816 -1.31477 0
M  V30 7642 H 718.816 -0.704223 -0.634644 0
M  V30 7643 H 718.522 -2.17937 -2.76037 0
M  V30 7644 H 718.396 -0.706152 -3.70531 0
M  V30 7645 H 720.783 -0.062911 -2.95033 0
M  V30 7646 H 720.864 -1.56698 -2.02187 0
M  V30 7647 H 720.508 -2.89008 -4.17656 0
M  V30 7648 H 720.438 -1.3605 -5.08722 0
M  V30 7649 H 722.929 -1.36062 -3.52556 0
M  V30 7650 H 723.242 -3.35668 -6.96094 0
M  V30 7651 H 721.587 -3.01249 -6.26318 0
M  V30 7652 H 724.778 -1.76372 -4.33602 0
M  V30 7653 H 724.951 -2.67373 -5.90268 0
M  V30 7654 N 718.357 1.51182 -0.445186 0
M  V30 7655 C 719.582 2.07056 0.119445 0
M  V30 7656 C 720.007 1.30966 1.35016 0
M  V30 7657 O 719.365 0.349827 1.77893 0
M  V30 7658 C 719.413 3.58234 0.412428 0
M  V30 7659 O 718.517 3.84249 1.49754 0
M  V30 7660 H 717.858 0.663998 -0.00157797 0
M  V30 7661 H 720.388 1.94699 -0.628779 0
M  V30 7662 H 720.398 4.02617 0.660583 0
M  V30 7663 H 719.073 4.13038 -0.487049 0
M  V30 7664 H 717.65 3.51724 1.23873 0
M  V30 7665 N 719.835 0.176821 1.56605 0
M  V30 7666 C 721.081 -0.467406 1.9734 0
M  V30 7667 C 721.414 -1.62523 1.06301 0
M  V30 7668 O 720.689 -1.94182 0.11125 0
M  V30 7669 C 720.972 -0.945106 3.47476 0
M  V30 7670 C 720.825 0.213273 4.49294 0
M  V30 7671 C 722.144 -1.8169 4.00845 0
M  V30 7672 H 719.263 -0.168426 0.717497 0
M  V30 7673 H 721.905 0.264065 1.88156 0
M  V30 7674 H 720.055 -1.56841 3.55434 0
M  V30 7675 H 721.727 0.850508 4.53392 0
M  V30 7676 H 719.97 0.867918 4.25029 0
M  V30 7677 H 720.641 -0.163187 5.51759 0
M  V30 7678 H 723.117 -1.29139 3.95553 0
M  V30 7679 H 721.993 -2.12015 5.06301 0
M  V30 7680 H 722.254 -2.76463 3.44994 0
M  V30 7681 N 721.313 -1.57302 -0.09688 0
M  V30 7682 C 722.223 -2.05258 -1.13606 0
M  V30 7683 C 723.239 -0.977137 -1.43972 0
M  V30 7684 O 724.415 -1.29018 -1.54649 0
M  V30 7685 C 721.48 -2.46593 -2.43706 0
M  V30 7686 C 720.541 -3.68322 -2.20538 0
M  V30 7687 C 719.774 -4.07676 -3.44435 0
M  V30 7688 O 719.997 -3.47141 -4.52603 0
M  V30 7689 O 718.931 -5.00641 -3.34129 0
M  V30 7690 H 722.757 -2.94069 -0.758752 0
M  V30 7691 H 720.342 -1.46164 -0.309263 0
M  V30 7692 H 722.224 -2.73814 -3.20318 0
M  V30 7693 H 720.899 -1.6092 -2.80867 0
M  V30 7694 H 719.806 -3.4622 -1.41713 0
M  V30 7695 H 721.139 -4.54769 -1.88271 0
M  V30 7696 N 722.791 0.367657 -1.53252 0
M  V30 7697 C 724.068 1.12606 -1.59935 0
M  V30 7698 C 724.448 2.07167 -0.405606 0
M  V30 7699 O 723.796 2.20364 0.604323 0
M  V30 7700 C 724.006 1.86699 -2.94863 0
M  V30 7701 C 725.354 2.41306 -3.49366 0
M  V30 7702 O 726.378 1.96828 -2.96879 0
M  V30 7703 O 725.237 3.2261 -4.41118 0
M  V30 7704 H 722.331 0.516438 -0.645926 0
M  V30 7705 H 724.877 0.371088 -1.65593 0
M  V30 7706 H 723.649 1.17674 -3.73187 0
M  V30 7707 H 723.272 2.6911 -2.92687 0
M  V30 7708 N 724.269 1.44576 0.627338 0
M  V30 7709 C 725.516 1.47558 1.38682 0
M  V30 7710 C 725.844 0.109636 1.94191 0
M  V30 7711 O 725.099 -0.889092 1.74338 0
M  V30 7712 C 725.398 2.48644 2.56731 0
M  V30 7713 C 725.064 3.93873 2.19489 0
M  V30 7714 C 723.726 4.33421 2.09045 0
M  V30 7715 C 726.078 4.85286 1.90124 0
M  V30 7716 C 723.406 5.62303 1.6743 0
M  V30 7717 C 725.758 6.14559 1.50001 0
M  V30 7718 C 724.422 6.53058 1.38101 0
M  V30 7719 H 723.692 0.539955 0.507474 0
M  V30 7720 H 726.339 1.77811 0.711021 0
M  V30 7721 H 724.644 2.11889 3.29561 0
M  V30 7722 H 726.341 2.48197 3.14959 0
M  V30 7723 H 722.931 3.62587 2.28537 0
M  V30 7724 H 727.115 4.55483 1.971 0
M  V30 7725 H 722.371 5.90945 1.56823 0
M  V30 7726 H 726.545 6.84848 1.26319 0
M  V30 7727 H 724.172 7.52826 1.05628 0
M  V30 7728 N 725.747 -0.868086 1.31537 0
M  V30 7729 C 726.679 -1.98165 1.15166 0
M  V30 7730 C 727.692 -1.6255 0.0902335 0
M  V30 7731 O 728.881 -1.75272 0.33791 0
M  V30 7732 C 725.981 -3.30772 0.737776 0
M  V30 7733 C 725.154 -3.94716 1.88462 0
M  V30 7734 C 724.213 -5.05641 1.45648 0
M  V30 7735 O 723.239 -5.2636 2.16642 0
M  V30 7736 N 724.441 -5.79474 0.34493 0
M  V30 7737 H 727.206 -2.12754 2.11083 0
M  V30 7738 H 724.767 -1.04217 1.23897 0
M  V30 7739 H 726.759 -4.02366 0.434032 0
M  V30 7740 H 725.329 -3.1233 -0.129834 0
M  V30 7741 H 724.549 -3.16079 2.35558 0
M  V30 7742 H 725.837 -4.34175 2.65273 0
M  V30 7743 H 725.235 -5.65164 -0.246259 0
M  V30 7744 H 723.792 -6.51722 0.100728 0
M  V30 7745 N 727.225 -1.14528 -1.08264 0
M  V30 7746 C 728.473 -0.912599 -1.80322 0
M  V30 7747 C 728.794 0.562256 -1.86718 0
M  V30 7748 O 728.064 1.40869 -1.36135 0
M  V30 7749 H 726.644 -0.334645 -0.667849 0
M  V30 7750 H 729.306 -1.44415 -1.30883 0
M  V30 7751 H 728.402 -1.31384 -2.83098 0
M  V30 7752 N 728.703 1.26451 -0.940633 0
M  V30 7753 C 729.951 1.93395 -0.586748 0
M  V30 7754 C 730.272 1.7417 0.876921 0
M  V30 7755 O 729.542 1.097 1.62304 0
M  V30 7756 H 728.122 0.715687 -0.214012 0
M  V30 7757 H 730.784 1.53902 -1.19584 0
M  V30 7758 H 729.88 3.01565 -0.804059 0
M  V30 7759 N 730.181 0.707592 1.40822 0
M  V30 7760 C 731.129 0.0386643 2.32568 0
M  V30 7761 C 732.123 -0.755653 1.51612 0
M  V30 7762 O 733.329 -0.659921 1.67467 0
M  V30 7763 H 729.704 -0.00629912 0.751974 0
M  V30 7764 H 731.675 0.8293 2.86645 0
M  V30 7765 C 730.424 -0.87496 3.36511 0
M  V30 7766 H 729.747 -0.273157 3.98866 0
M  V30 7767 H 731.187 -1.31111 4.03219 0
M  V30 7768 C 729.646 -1.99672 2.71353 0
M  V30 7769 O 730.176 -3.08676 2.57064 0
M  V30 7770 N 728.382 -1.77799 2.29861 0
M  V30 7771 H 727.929 -0.89147 2.41683 0
M  V30 7772 H 727.887 -2.53036 1.86601 0
M  V30 7773 N 731.66 -1.50943 0.453197 0
M  V30 7774 C 732.607 -2.28128 -0.350197 0
M  V30 7775 C 733.577 -1.32398 -1.00299 0
M  V30 7776 O 734.762 -1.61319 -1.01887 0
M  V30 7777 C 731.902 -3.13782 -1.43649 0
M  V30 7778 C 731.015 -4.24523 -0.800255 0
M  V30 7779 C 730.15 -4.97462 -1.86293 0
M  V30 7780 C 729.189 -6.00102 -1.20598 0
M  V30 7781 N 728.326 -6.66387 -2.21071 0
M  V30 7782 H 733.166 -2.96337 0.31434 0
M  V30 7783 H 730.703 -1.46151 0.166863 0
M  V30 7784 H 732.661 -3.6178 -2.07776 0
M  V30 7785 H 731.291 -2.47655 -2.07044 0
M  V30 7786 H 730.343 -3.80371 -0.0468651 0
M  V30 7787 H 731.655 -4.98009 -0.280777 0
M  V30 7788 H 730.809 -5.49088 -2.58044 0
M  V30 7789 H 729.548 -4.23642 -2.41617 0
M  V30 7790 H 728.553 -5.47753 -0.474 0
M  V30 7791 H 729.778 -6.75887 -0.659859 0
M  V30 7792 H 727.724 -5.9537 -2.75446 0
M  V30 7793 H 727.641 -7.3569 -1.74058 0
M  V30 7794 H 728.909 -7.22638 -2.92257 0
M  V30 7795 N 733.138 -0.185124 -1.56509 0
M  V30 7796 C 734.387 0.456421 -1.96468 0
M  V30 7797 C 734.7 1.63448 -1.07444 0
M  V30 7798 O 735.906 2.34316 -1.37143 0
M  V30 7799 C 734.362 0.863404 -3.4939 0
M  V30 7800 C 733.97 -0.289815 -4.47062 0
M  V30 7801 C 735.714 1.47259 -3.98139 0
M  V30 7802 C 733.621 0.137571 -5.9124 0
M  V30 7803 H 732.551 0.17429 -0.733579 0
M  V30 7804 H 735.202 -0.275554 -1.81419 0
M  V30 7805 H 733.584 1.65176 -3.59907 0
M  V30 7806 H 734.758 -1.06728 -4.4827 0
M  V30 7807 H 733.073 -0.809851 -4.08449 0
M  V30 7808 H 735.67 1.80463 -5.03326 0
M  V30 7809 H 736.013 2.3755 -3.41871 0
M  V30 7810 H 736.546 0.748405 -3.90696 0
M  V30 7811 H 733.285 -0.730907 -6.51412 0
M  V30 7812 H 732.805 0.8801 -5.93308 0
M  V30 7813 H 734.484 0.576771 -6.44424 0
M  V30 7814 N 734.616 1.57351 0.0885366 0
M  V30 7815 C 735.526 2.05858 1.12516 0
M  V30 7816 C 736.542 0.984758 1.43452 0
M  V30 7817 O 737.718 1.29836 1.53963 0
M  V30 7818 C 734.783 2.47882 2.42395 0
M  V30 7819 C 733.844 3.69487 2.18582 0
M  V30 7820 C 733.077 4.09497 3.42268 0
M  V30 7821 O 733.3 3.49536 4.50755 0
M  V30 7822 O 732.234 5.02406 3.31469 0
M  V30 7823 H 736.06 2.94467 0.743146 0
M  V30 7824 H 733.645 1.46326 0.301507 0
M  V30 7825 H 735.527 2.75509 3.18862 0
M  V30 7826 H 734.202 1.62408 2.8001 0
M  V30 7827 H 733.109 3.46967 1.39875 0
M  V30 7828 H 734.442 4.55761 1.85857 0
M  V30 7829 N 736.094 -0.359525 1.53444 0
M  V30 7830 C 737.34 -1.10315 1.70172 0
M  V30 7831 C 737.673 -1.88788 0.455287 0
M  V30 7832 O 736.948 -1.86635 -0.547514 0
M  V30 7833 C 737.231 -2.05744 2.95536 0
M  V30 7834 C 737.084 -1.3084 4.3035 0
M  V30 7835 C 738.403 -3.05784 3.16518 0
M  V30 7836 H 735.522 -0.399662 0.619225 0
M  V30 7837 H 738.164 -0.383338 1.86093 0
M  V30 7838 H 736.314 -2.67125 2.82093 0
M  V30 7839 H 737.986 -0.721959 4.55615 0
M  V30 7840 H 736.229 -0.610283 4.29486 0
M  V30 7841 H 736.9 -2.00718 5.14214 0
M  V30 7842 H 739.376 -2.5451 3.29187 0
M  V30 7843 H 738.252 -3.69772 4.05659 0
M  V30 7844 H 738.513 -3.76289 2.32076 0
M  V30 7845 N 737.572 -1.44907 -0.619662 0
M  V30 7846 C 738.52 -1.52971 -1.75222 0
M  V30 7847 C 739.514 -0.400531 -1.64597 0
M  V30 7848 O 740.72 -0.575952 -1.70537 0
M  V30 7849 H 737.095 -0.480241 -0.578682 0
M  V30 7850 H 739.066 -2.48269 -1.65545 0
M  V30 7851 C 737.815 -1.50204 -3.13583 0
M  V30 7852 H 737.138 -2.36412 -3.22412 0
M  V30 7853 H 738.578 -1.59905 -3.92691 0
M  V30 7854 C 737.037 -0.22455 -3.36151 0
M  V30 7855 O 737.567 0.700574 -3.95544 0
M  V30 7856 N 735.773 -0.124052 -2.90335 0
M  V30 7857 H 735.32 -0.87774 -2.42185 0
M  V30 7858 H 735.278 0.729914 -3.0581 0
M  V30 7859 N 739.05 0.861098 -1.31996 0
M  V30 7860 C 739.997 1.96912 -1.20392 0
M  V30 7861 C 740.967 1.65869 -0.0875899 0
M  V30 7862 O 742.152 1.88992 -0.262011 0
M  V30 7863 C 739.292 3.32435 -0.926335 0
M  V30 7864 C 738.405 3.76018 -2.12684 0
M  V30 7865 C 737.54 5.00301 -1.78529 0
M  V30 7866 C 736.579 5.36357 -2.94937 0
M  V30 7867 N 735.716 6.51818 -2.60917 0
M  V30 7868 H 740.556 2.06169 -2.1517 0
M  V30 7869 H 738.093 1.00917 -1.07024 0
M  V30 7870 H 740.051 4.10478 -0.745917 0
M  V30 7871 H 738.681 3.22796 -0.0153578 0
M  V30 7872 H 737.733 2.93683 -2.41774 0
M  V30 7873 H 739.045 3.98664 -2.99781 0
M  V30 7874 H 738.199 5.86034 -1.57001 0
M  V30 7875 H 736.938 4.79578 -0.886356 0
M  V30 7876 H 735.943 4.49139 -3.17103 0
M  V30 7877 H 737.168 5.59041 -3.85552 0
M  V30 7878 H 735.114 6.32624 -1.73558 0
M  V30 7879 H 735.031 6.7445 -3.41544 0
M  V30 7880 H 736.299 7.4072 -2.42804 0
M  V30 7881 N 740.528 1.15101 1.07655 0
M  V30 7882 C 741.476 0.840714 2.16875 0
M  V30 7883 C 742.47 -0.184594 1.68391 0
M  V30 7884 O 743.676 -0.0399315 1.79956 0
M  V30 7885 H 740.051 0.254192 0.707736 0
M  V30 7886 H 742.022 1.76959 2.40266 0
M  V30 7887 C 740.771 0.343018 3.46004 0
M  V30 7888 H 740.094 1.12335 3.83694 0
M  V30 7889 H 741.534 0.16453 4.23681 0
M  V30 7890 C 739.993 -0.934881 3.23669 0
M  V30 7891 O 740.523 -2.00706 3.47965 0
M  V30 7892 N 738.729 -0.873167 2.77172 0
M  V30 7893 H 738.276 -0.000479072 2.576 0
M  V30 7894 H 738.234 -1.72873 2.62607 0
M  V30 7895 N 742.006 -1.2595 0.947325 0
M  V30 7896 C 742.938 -2.25336 0.41906 0
M  V30 7897 C 743.951 -1.56135 -0.461051 0
M  V30 7898 O 745.14 -1.76438 -0.270505 0
M  V30 7899 C 742.24 -3.36334 -0.416233 0
M  V30 7900 C 741.413 -4.35088 0.449162 0
M  V30 7901 C 740.472 -5.25185 -0.326716 0
M  V30 7902 O 739.498 -5.68548 0.272374 0
M  V30 7903 N 740.7 -5.57388 -1.6217 0
M  V30 7904 H 743.465 -2.71298 1.27348 0
M  V30 7905 H 741.026 -1.39781 0.81688 0
M  V30 7906 H 743.018 -3.93564 -0.942826 0
M  V30 7907 H 741.588 -2.89819 -1.17148 0
M  V30 7908 H 740.808 -3.76841 1.15692 0
M  V30 7909 H 742.096 -4.98056 1.04008 0
M  V30 7910 H 741.494 -5.2405 -2.13046 0
M  V30 7911 H 740.051 -6.17234 -2.0944 0
M  V30 7912 N 743.484 -0.715051 -1.40445 0
M  V30 7913 C 744.731 -0.254328 -2.00897 0
M  V30 7914 C 745.059 1.15228 -1.56693 0
M  V30 7915 O 744.314 1.7958 -0.777786 0
M  V30 7916 C 744.613 -0.281791 -3.56287 0
M  V30 7917 C 744.279 -1.63862 -4.20071 0
M  V30 7918 C 742.941 -2.01003 -4.37208 0
M  V30 7919 C 745.293 -2.53039 -4.55654 0
M  V30 7920 C 742.621 -3.26869 -4.8721 0
M  V30 7921 C 744.973 -3.78256 -5.07055 0
M  V30 7922 C 743.637 -4.15515 -5.22401 0
M  V30 7923 H 742.907 -0.0930652 -0.735133 0
M  V30 7924 H 745.554 -0.917977 -1.68064 0
M  V30 7925 H 743.859 0.465428 -3.89026 0
M  V30 7926 H 745.556 0.0925158 -4.00893 0
M  V30 7927 H 742.146 -1.33979 -4.07121 0
M  V30 7928 H 746.33 -2.2562 -4.42051 0
M  V30 7929 H 741.586 -3.55706 -4.97276 0
M  V30 7930 H 745.76 -4.47528 -5.33565 0
M  V30 7931 H 743.387 -5.13114 -5.60909 0
M  V30 7932 N 744.962 1.50701 -0.461195 0
M  V30 7933 C 745.925 2.2686 0.326679 0
M  V30 7934 C 746.925 1.31243 0.929085 0
M  V30 7935 O 748.115 1.54754 0.799807 0
M  V30 7936 C 745.247 3.07844 1.46441 0
M  V30 7937 H 746.44 2.97954 -0.341095 0
M  V30 7938 H 743.993 1.54814 -0.214984 0
M  V30 7939 H 744.728 2.41223 2.16753 0
M  V30 7940 H 744.513 3.78101 1.03836 0
M  V30 7941 H 746.003 3.65469 2.02044 0
M  V30 7942 N 746.441 0.193421 1.56409 0
M  V30 7943 C 747.371 -0.723334 2.22014 0
M  V30 7944 C 748.352 -1.22254 1.1827 0
M  V30 7945 O 749.537 -1.27168 1.46771 0
M  V30 7946 C 746.667 -1.94366 2.87818 0
M  V30 7947 C 745.621 -1.57943 3.97791 0
M  V30 7948 C 744.947 -2.87623 4.50752 0
M  V30 7949 C 746.247 -0.790639 5.16281 0
M  V30 7950 H 747.941 -0.176426 2.9888 0
M  V30 7951 H 745.487 -0.0834166 1.43758 0
M  V30 7952 H 747.44 -2.5902 3.32396 0
M  V30 7953 H 746.164 -2.51507 2.08355 0
M  V30 7954 H 744.823 -0.956482 3.53903 0
M  V30 7955 H 744.471 -3.4285 3.68053 0
M  V30 7956 H 744.171 -2.63998 5.24956 0
M  V30 7957 H 745.695 -3.53268 4.9803 0
M  V30 7958 H 747.109 -1.34024 5.57414 0
M  V30 7959 H 745.506 -0.65258 5.96541 0
M  V30 7960 H 746.576 0.208633 4.84451 0
M  V30 7961 N 747.919 -1.57396 -0.0801906 0
M  V30 7962 C 749.168 -1.8602 -0.779702 0
M  V30 7963 C 749.481 -0.784864 -1.79163 0
M  V30 7964 O 750.687 -0.958691 -2.54011 0
M  V30 7965 C 749.143 -3.29942 -1.43758 0
M  V30 7966 C 748.751 -4.45584 -0.464654 0
M  V30 7967 C 750.495 -3.67775 -2.11995 0
M  V30 7968 C 748.402 -5.80544 -1.12797 0
M  V30 7969 H 747.332 -0.69392 -0.294943 0
M  V30 7970 H 749.983 -1.83471 -0.0328527 0
M  V30 7971 H 748.365 -3.27078 -2.2324 0
M  V30 7972 H 749.539 -4.59824 0.299749 0
M  V30 7973 H 747.854 -4.16247 0.112813 0
M  V30 7974 H 750.451 -4.65896 -2.62383 0
M  V30 7975 H 750.794 -2.9715 -2.91561 0
M  V30 7976 H 751.327 -3.72593 -1.39354 0
M  V30 7977 H 748.066 -6.54439 -0.372807 0
M  V30 7978 H 747.586 -5.70119 -1.86344 0
M  V30 7979 H 749.265 -6.25602 -1.6502 0
M  V30 7980 N 749.397 0.351382 -1.53633 0
M  V30 7981 C 750.307 1.45471 -1.84052 0
M  V30 7982 C 751.323 1.57945 -0.730015 0
M  V30 7983 O 752.499 1.73571 -1.02153 0
M  V30 7984 C 749.564 2.80562 -2.03681 0
M  V30 7985 C 748.625 2.77497 -3.27558 0
M  V30 7986 C 747.858 4.06144 -3.46241 0
M  V30 7987 O 748.081 5.03028 -2.68922 0
M  V30 7988 O 747.015 4.11092 -4.39645 0
M  V30 7989 H 750.841 1.22684 -2.77817 0
M  V30 7990 H 748.426 0.542827 -1.3919 0
M  V30 7991 H 750.308 3.6058 -2.18082 0
M  V30 7992 H 748.983 3.03296 -1.13106 0
M  V30 7993 H 747.89 1.96126 -3.18568 0
M  V30 7994 H 749.223 2.59716 -4.18101 0
M  V30 7995 N 750.875 1.45233 0.611969 0
M  V30 7996 C 752.123 1.48727 1.36838 0
M  V30 7997 C 752.444 0.128616 1.94575 0
M  V30 7998 O 751.714 -0.84149 1.76906 0
M  V30 7999 H 750.294 0.547695 0.507976 0
M  V30 8000 H 752.956 1.81156 0.718925 0
M  V30 8001 H 752.052 2.2236 2.19003 0
M  V30 8002 N 752.353 -0.854086 1.3245 0
M  V30 8003 C 753.3 -1.96271 1.21434 0
M  V30 8004 C 754.27 -1.6582 0.0963851 0
M  V30 8005 O 755.455 -1.88851 0.27203 0
M  V30 8006 C 752.595 -3.31939 0.943952 0
M  V30 8007 C 751.708 -3.74885 2.14675 0
M  V30 8008 C 750.843 -4.99347 1.81179 0
M  V30 8009 C 749.882 -5.34785 2.97777 0
M  V30 8010 N 749.019 -6.50425 2.6437 0
M  V30 8011 H 753.859 -2.05025 2.16261 0
M  V30 8012 H 751.396 -1.00348 1.07558 0
M  V30 8013 H 753.354 -4.10076 0.767675 0
M  V30 8014 H 751.984 -3.22784 0.0324763 0
M  V30 8015 H 751.036 -2.92396 2.43328 0
M  V30 8016 H 752.348 -3.97068 3.01891 0
M  V30 8017 H 751.502 -5.85193 1.60107 0
M  V30 8018 H 750.241 -4.79101 0.911777 0
M  V30 8019 H 749.246 -4.47451 3.1948 0
M  V30 8020 H 750.471 -5.56988 3.88511 0
M  V30 8021 H 748.417 -6.31695 1.7691 0
M  V30 8022 H 748.334 -6.7263 3.45116 0
M  V30 8023 H 749.602 -7.39422 2.46729 0
M  V30 8024 N 753.831 -1.1567 -1.07043 0
M  V30 8025 C 754.779 -0.852204 -2.16426 0
M  V30 8026 C 755.773 0.175661 -1.68487 0
M  V30 8027 O 756.979 0.0303874 -1.79974 0
M  V30 8028 H 753.354 -0.257942 -0.706378 0
M  V30 8029 H 755.325 -1.78231 -2.39324 0
M  V30 8030 C 754.074 -0.361362 -3.45817 0
M  V30 8031 H 753.397 -1.14369 -3.83092 0
M  V30 8032 H 754.837 -0.186997 -4.23587 0
M  V30 8033 C 753.296 0.917703 -3.2416 0
M  V30 8034 O 753.826 1.98858 -3.49025 0
M  V30 8035 N 752.032 0.858456 -2.77631 0
M  V30 8036 H 751.579 -0.0131821 -2.57597 0
M  V30 8037 H 751.537 1.71478 -2.6352 0
M  V30 8038 N 755.309 1.25446 -0.953992 0
M  V30 8039 C 756.256 2.25912 -0.472485 0
M  V30 8040 C 757.226 1.59173 0.47469 0
M  V30 8041 O 758.411 1.86812 0.388082 0
M  V30 8042 C 755.551 3.44235 0.244218 0
M  V30 8043 C 754.664 4.25613 -0.740121 0
M  V30 8044 C 753.799 5.312 -0.000922267 0
M  V30 8045 C 752.838 6.04265 -0.976236 0
M  V30 8046 N 751.975 7.01589 -0.267952 0
M  V30 8047 H 756.815 2.66469 -1.3341 0
M  V30 8048 H 754.352 1.31005 -0.669045 0
M  V30 8049 H 756.31 4.11682 0.676314 0
M  V30 8050 H 754.94 3.04554 1.06988 0
M  V30 8051 H 753.992 3.57834 -1.2907 0
M  V30 8052 H 755.304 4.762 -1.48441 0
M  V30 8053 H 754.458 6.04719 0.48984 0
M  V30 8054 H 753.197 4.81484 0.776159 0
M  V30 8055 H 752.202 5.29561 -1.478 0
M  V30 8056 H 753.427 6.5607 -1.75354 0
M  V30 8057 H 751.373 6.54164 0.490403 0
M  V30 8058 H 751.29 7.4999 -0.951344 0
M  V30 8059 H 752.558 7.7924 0.201294 0
M  V30 8060 N 756.787 0.722489 1.40064 0
M  V30 8061 C 758.015 0.274838 2.05066 0
M  V30 8062 C 758.43 -1.08586 1.54449 0
M  V30 8063 O 757.787 -1.68375 0.704003 0
M  V30 8064 C 757.838 0.253673 3.60609 0
M  V30 8065 O 757.559 1.56064 4.0936 0
M  V30 8066 C 759.06 -0.211684 4.42794 0
M  V30 8067 H 756.28 0.12226 0.659768 0
M  V30 8068 H 758.824 0.982632 1.79345 0
M  V30 8069 H 756.979 -0.405137 3.85276 0
M  V30 8070 H 757.393 1.46576 5.03603 0
M  V30 8071 H 758.867 -0.175341 5.51721 0
M  V30 8072 H 759.344 -1.25493 4.2089 0
M  V30 8073 H 759.95 0.4171 4.2325 0
M  V30 8074 N 758.265 -1.50454 0.469181 0
M  V30 8075 C 759.511 -2.02615 -0.0865971 0
M  V30 8076 C 759.844 -1.35062 -1.39542 0
M  V30 8077 O 759.119 -0.475701 -1.88593 0
M  V30 8078 C 759.402 -3.59068 -0.272385 0
M  V30 8079 C 759.255 -4.37196 1.05733 0
M  V30 8080 C 760.574 -4.2793 -1.0278 0
M  V30 8081 H 757.693 -0.736389 -0.0299977 0
M  V30 8082 H 760.335 -1.79792 0.614399 0
M  V30 8083 H 758.485 -3.78646 -0.869471 0
M  V30 8084 H 760.157 -4.29195 1.69084 0
M  V30 8085 H 758.4 -4.01013 1.65442 0
M  V30 8086 H 759.071 -5.44924 0.880997 0
M  V30 8087 H 761.547 -4.12816 -0.521718 0
M  V30 8088 H 760.423 -5.37214 -1.12659 0
M  V30 8089 H 760.684 -3.90968 -2.0639 0
M  V30 8090 N 759.743 -0.201713 -1.56304 0
M  V30 8091 C 760.968 0.443815 -2.02596 0
M  V30 8092 C 761.393 1.53945 -1.08086 0
M  V30 8093 O 760.751 1.81182 -0.0655056 0
M  V30 8094 C 760.799 0.971066 -3.47279 0
M  V30 8095 O 759.903 2.0836 -3.55893 0
M  V30 8096 H 759.244 0.10294 -0.655972 0
M  V30 8097 H 761.774 -0.314533 -2.02168 0
M  V30 8098 H 761.784 1.28598 -3.87204 0
M  V30 8099 H 760.459 0.169048 -4.15556 0
M  V30 8100 H 759.036 1.77683 -3.27846 0
M  V30 8101 N 761.222 1.57436 0.0718424 0
M  V30 8102 C 762.45 1.91474 0.783932 0
M  V30 8103 C 762.865 0.797669 1.71122 0
M  V30 8104 O 762.222 -0.228989 1.81058 0
M  V30 8105 C 762.273 3.25259 1.57761 0
M  V30 8106 O 761.994 4.3267 0.687596 0
M  V30 8107 C 763.495 3.7331 2.3907 0
M  V30 8108 H 760.715 0.632901 0.222885 0
M  V30 8109 H 763.259 2.04457 0.0421262 0
M  V30 8110 H 761.414 3.13804 2.27169 0
M  V30 8111 H 761.828 5.09641 1.23962 0
M  V30 8112 H 763.302 4.69551 2.90216 0
M  V30 8113 H 763.779 3.02318 3.18591 0
M  V30 8114 H 764.385 3.8771 1.74818 0
M  V30 8115 N 762.7 -0.34323 1.53817 0
M  V30 8116 C 763.63 -1.42709 1.84814 0
M  V30 8117 C 764.611 -1.5488 0.703297 0
M  V30 8118 O 765.796 -1.69082 0.955237 0
M  V30 8119 C 762.926 -2.79756 2.05801 0
M  V30 8120 C 761.88 -2.82392 3.21619 0
M  V30 8121 C 761.206 -4.22326 3.2794 0
M  V30 8122 C 762.506 -2.479 4.59721 0
M  V30 8123 H 764.2 -1.17018 2.75585 0
M  V30 8124 H 761.746 -0.561485 1.32602 0
M  V30 8125 H 763.699 -3.55627 2.26069 0
M  V30 8126 H 762.423 -3.06883 1.11761 0
M  V30 8127 H 761.082 -2.08974 3.01207 0
M  V30 8128 H 760.73 -4.46564 2.31494 0
M  V30 8129 H 760.43 -4.25001 4.05768 0
M  V30 8130 H 761.954 -5.00039 3.50419 0
M  V30 8131 H 763.368 -3.13484 4.80001 0
M  V30 8132 H 761.765 -2.61857 5.39954 0
M  V30 8133 H 762.835 -1.43087 4.63308 0
M  V30 8134 N 764.178 -1.45556 -0.604258 0
M  V30 8135 C 765.424 -1.49968 -1.36519 0
M  V30 8136 C 765.757 -0.142236 -1.93678 0
M  V30 8137 O 765.032 0.843717 -1.75247 0
M  V30 8138 C 765.315 -2.58146 -2.51063 0
M  V30 8139 C 765.168 -4.03346 -1.99078 0
M  V30 8140 C 766.487 -2.62581 -3.53184 0
M  V30 8141 H 763.606 -0.545993 -0.495036 0
M  V30 8142 H 766.248 -1.77382 -0.680845 0
M  V30 8143 H 764.398 -2.34901 -3.09441 0
M  V30 8144 H 766.07 -4.37811 -1.45323 0
M  V30 8145 H 764.313 -4.13845 -1.30055 0
M  V30 8146 H 764.984 -4.74731 -2.81664 0
M  V30 8147 H 767.46 -2.83419 -3.04652 0
M  V30 8148 H 766.336 -3.40131 -4.30816 0
M  V30 8149 H 766.597 -1.67798 -4.09019 0
M  V30 8150 N 765.656 0.84705 -1.32902 0
M  V30 8151 C 766.905 1.59667 -1.23245 0
M  V30 8152 C 767.218 1.94551 0.202349 0
M  V30 8153 O 768.424 2.68218 0.420847 0
M  V30 8154 C 766.88 2.8795 -2.15901 0
M  V30 8155 C 766.488 2.60461 -3.64505 0
M  V30 8156 C 768.232 3.65968 -2.15098 0
M  V30 8157 C 766.139 3.84791 -4.49099 0
M  V30 8158 H 765.069 0.599167 -0.457728 0
M  V30 8159 H 767.72 0.934662 -1.57912 0
M  V30 8160 H 766.102 3.55648 -1.74157 0
M  V30 8161 H 767.276 2.01026 -4.14639 0
M  V30 8162 H 765.591 1.9576 -3.67515 0
M  V30 8163 H 768.188 4.58241 -2.75534 0
M  V30 8164 H 768.531 4.00275 -1.14392 0
M  V30 8165 H 769.064 3.05184 -2.55162 0
M  V30 8166 H 765.803 3.55621 -5.50649 0
M  V30 8167 H 765.323 4.43594 -4.03713 0
M  V30 8168 H 767.002 4.52454 -4.62487 0
M  V30 8169 N 767.134 1.16236 1.06428 0
M  V30 8170 C 768.066 0.825446 2.1382 0
M  V30 8171 C 769.079 -0.166707 1.61944 0
M  V30 8172 O 770.268 0.0578606 1.78406 0
M  V30 8173 C 767.368 0.208023 3.38261 0
M  V30 8174 C 766.541 1.23994 4.19457 0
M  V30 8175 C 765.6 0.642569 5.22262 0
M  V30 8176 O 764.626 1.31106 5.53895 0
M  V30 8177 N 765.828 -0.571327 5.77682 0
M  V30 8178 H 768.593 1.7497 2.43322 0
M  V30 8179 H 766.154 1.05951 1.22417 0
M  V30 8180 H 768.146 -0.204608 4.04182 0
M  V30 8181 H 766.716 -0.619752 3.06395 0
M  V30 8182 H 765.936 1.82879 3.49212 0
M  V30 8183 H 767.224 1.93638 4.70512 0
M  V30 8184 H 766.622 -1.13263 5.54245 0
M  V30 8185 H 765.179 -0.926187 6.45186 0
M  V30 8186 N 768.612 -1.24939 0.960631 0
M  V30 8187 C 769.575 -2.239 0.49006 0
M  V30 8188 C 770.575 -1.55497 -0.409535 0
M  V30 8189 O 771.765 -1.72978 -0.205984 0
M  V30 8190 C 768.897 -3.39654 -0.291193 0
M  V30 8191 H 770.09 -2.67044 1.36482 0
M  V30 8192 H 767.643 -1.37429 0.744505 0
M  V30 8193 H 768.378 -3.01939 -1.18336 0
M  V30 8194 H 768.163 -3.90496 0.354276 0
M  V30 8195 H 769.653 -4.13125 -0.609693 0
M  V30 8196 N 770.09 -0.729906 -1.39679 0
M  V30 8197 C 771.053 -0.0951668 -2.29002 0
M  V30 8198 C 772.053 0.672471 -1.46063 0
M  V30 8199 O 773.243 0.502245 -1.66803 0
M  V30 8200 C 770.375 0.874631 -3.29489 0
M  V30 8201 H 771.568 -0.882062 -2.86635 0
M  V30 8202 H 769.121 -0.495424 -1.4824 0
M  V30 8203 H 769.856 1.68807 -2.76902 0
M  V30 8204 H 769.641 0.326893 -3.90735 0
M  V30 8205 H 771.131 1.31548 -3.96339 0
M  V30 8206 N 771.568 1.50203 -0.477153 0
M  V30 8207 C 772.516 2.30278 0.327826 0
M  V30 8208 C 773.51 1.37831 0.984839 0
M  V30 8209 O 774.716 1.54994 0.915251 0
M  V30 8210 H 771.091 0.741612 0.124564 0
M  V30 8211 H 773.062 2.96124 -0.367853 0
M  V30 8212 C 771.811 3.18548 1.39365 0
M  V30 8213 H 771.134 3.89596 0.897475 0
M  V30 8214 H 772.574 3.77561 1.92934 0
M  V30 8215 C 771.033 2.36548 2.39889 0
M  V30 8216 O 771.563 2.05282 3.45286 0
M  V30 8217 N 769.769 1.99015 2.11758 0
M  V30 8218 H 769.316 2.24641 1.26071 0
M  V30 8219 H 769.274 1.44454 2.7925 0
M  V30 8220 N 773.046 0.209999 1.56195 0
M  V30 8221 C 774.292 -0.425442 1.98287 0
M  V30 8222 C 774.625 -1.60232 1.09724 0
M  V30 8223 O 773.9 -1.93902 0.152414 0
M  V30 8224 C 774.183 -0.871189 3.49403 0
M  V30 8225 C 774.036 0.308527 4.48741 0
M  V30 8226 C 775.355 -1.73146 4.04609 0
M  V30 8227 H 772.474 -0.153169 0.720908 0
M  V30 8228 H 775.116 0.303916 1.87554 0
M  V30 8229 H 773.266 -1.49266 3.58681 0
M  V30 8230 H 774.938 0.946487 4.51486 0
M  V30 8231 H 773.181 0.957878 4.23092 0
M  V30 8232 H 773.852 -0.0461143 5.51981 0
M  V30 8233 H 776.328 -1.2072 3.98203 0
M  V30 8234 H 775.204 -2.01228 5.10684 0
M  V30 8235 H 775.465 -2.69083 3.5078 0
M  V30 8236 N 774.524 -1.57472 -0.0634922 0
M  V30 8237 C 775.749 -1.92273 -0.77756 0
M  V30 8238 C 776.174 -0.807141 -1.69902 0
M  V30 8239 O 775.532 0.239523 -1.79711 0
M  V30 8240 C 775.58 -3.26054 -1.54017 0
M  V30 8241 O 774.684 -3.15873 -2.65138 0
M  V30 8242 H 774.025 -0.629389 -0.211579 0
M  V30 8243 H 776.555 -2.04579 -0.0292523 0
M  V30 8244 H 776.565 -3.60127 -1.91763 0
M  V30 8245 H 775.24 -4.06824 -0.864128 0
M  V30 8246 H 773.817 -2.93373 -2.30189 0
M  V30 8247 N 776.003 0.335068 -1.53997 0
M  V30 8248 C 776.966 1.39481 -1.81872 0
M  V30 8249 C 777.966 1.4524 -0.690078 0
M  V30 8250 O 779.156 1.45467 -0.958377 0
M  V30 8251 C 776.288 2.78329 -1.9684 0
M  V30 8252 H 777.481 1.16024 -2.76547 0
M  V30 8253 H 775.034 0.569926 -1.45539 0
M  V30 8254 H 775.769 3.07058 -1.04337 0
M  V30 8255 H 775.554 2.75544 -2.78958 0
M  V30 8256 H 777.044 3.55016 -2.19894 0
M  V30 8257 N 777.481 1.45874 0.596531 0
M  V30 8258 C 778.411 1.5824 1.71705 0
M  V30 8259 C 779.392 0.433366 1.64487 0
M  V30 8260 O 780.577 0.657895 1.82717 0
M  V30 8261 C 777.707 1.55927 3.10329 0
M  V30 8262 C 776.661 2.69659 3.32367 0
M  V30 8263 C 775.987 2.52403 4.71377 0
M  V30 8264 C 777.287 4.11591 3.21544 0
M  V30 8265 H 778.981 2.52035 1.61613 0
M  V30 8266 H 776.527 1.21297 0.776082 0
M  V30 8267 H 778.48 1.63173 3.88526 0
M  V30 8268 H 777.204 0.586674 3.21288 0
M  V30 8269 H 775.863 2.61859 2.56564 0
M  V30 8270 H 775.511 1.53258 4.79083 0
M  V30 8271 H 775.211 3.28679 4.87077 0
M  V30 8272 H 776.735 2.6152 5.5176 0
M  V30 8273 H 778.149 4.20576 3.89601 0
M  V30 8274 H 776.546 4.88344 3.4877 0
M  V30 8275 H 777.616 4.32719 2.1882 0
M  V30 8276 N 778.959 -0.83999 1.33349 0
M  V30 8277 C 780.189 -1.62492 1.27593 0
M  V30 8278 C 780.597 -1.88559 -0.155597 0
M  V30 8279 O 779.94 -1.46537 -1.10782 0
M  V30 8280 C 780.002 -2.99984 1.98116 0
M  V30 8281 C 779.666 -2.96892 3.47425 0
M  V30 8282 C 780.663 -2.72688 4.42648 0
M  V30 8283 C 778.348 -3.17063 3.89585 0
M  V30 8284 C 780.342 -2.68681 5.78004 0
M  V30 8285 C 778.029 -3.12682 5.25046 0
M  V30 8286 C 779.027 -2.88522 6.19067 0
M  V30 8287 O 778.715 -2.84042 7.52047 0
M  V30 8288 H 778.447 -0.512358 0.440982 0
M  V30 8289 H 781.001 -1.0545 1.76265 0
M  V30 8290 H 779.231 -3.58875 1.44034 0
M  V30 8291 H 780.92 -3.6084 1.85875 0
M  V30 8292 H 781.686 -2.56856 4.114 0
M  V30 8293 H 777.565 -3.34889 3.16813 0
M  V30 8294 H 781.109 -2.49743 6.51363 0
M  V30 8295 H 777.006 -3.28063 5.55918 0
M  V30 8296 H 777.774 -2.99892 7.61582 0
M  V30 8297 N 780.437 -1.16799 -1.0581 0
M  V30 8298 C 781.384 -0.87902 -2.13405 0
M  V30 8299 C 782.354 0.174541 -1.6518 0
M  V30 8300 O 783.539 0.0386843 -1.90761 0
M  V30 8301 C 780.679 -0.391616 -3.42871 0
M  V30 8302 C 779.792 -1.50857 -4.04804 0
M  V30 8303 C 778.927 -0.975682 -5.22163 0
M  V30 8304 C 777.966 -2.06851 -5.76089 0
M  V30 8305 N 777.103 -1.55085 -6.84758 0
M  V30 8306 H 781.943 -1.80043 -2.37463 0
M  V30 8307 H 779.48 -0.898083 -1.16503 0
M  V30 8308 H 781.438 -0.0906247 -4.17102 0
M  V30 8309 H 780.068 0.49284 -3.19016 0
M  V30 8310 H 779.12 -1.92542 -3.28073 0
M  V30 8311 H 780.432 -2.33305 -4.40874 0
M  V30 8312 H 779.586 -0.628165 -6.03439 0
M  V30 8313 H 778.325 -0.120566 -4.87551 0
M  V30 8314 H 777.33 -2.42467 -4.93447 0
M  V30 8315 H 778.555 -2.92768 -6.12751 0
M  V30 8316 H 776.501 -0.718345 -6.52055 0
M  V30 8317 H 776.418 -2.31145 -7.19797 0
M  V30 8318 H 777.686 -1.23206 -7.69702 0
M  V30 8319 N 781.915 1.24427 -0.967243 0
M  V30 8320 C 783.155 1.9423 -0.636723 0
M  V30 8321 C 783.519 1.73939 0.812971 0
M  V30 8322 O 784.72 2.37773 1.25369 0
M  V30 8323 C 782.991 3.43105 -1.00067 0
M  V30 8324 S 784.55 4.31728 -0.784633 0
M  V30 8325 H 781.368 0.671527 -0.233607 0
M  V30 8326 H 783.97 1.50806 -1.2441 0
M  V30 8327 H 782.674 3.5538 -2.05264 0
M  V30 8328 H 782.205 3.91521 -0.384054 0
M  V30 8329 H 784.22 4.95046 0.338244 0
M  V30 8330 N 783.393 0.737304 1.3929 0
M  V30 8331 C 784.303 0.100464 2.34385 0
M  V30 8332 C 785.319 -0.719282 1.58437 0
M  V30 8333 O 786.495 -0.647216 1.90717 0
M  V30 8334 C 783.56 -0.794325 3.37478 0
M  V30 8335 C 782.621 0.0379345 4.29283 0
M  V30 8336 C 781.854 -0.814241 5.27452 0
M  V30 8337 O 782.077 -2.05288 5.32177 0
M  V30 8338 O 781.011 -0.241679 6.01415 0
M  V30 8339 H 784.837 0.885407 2.90507 0
M  V30 8340 H 782.422 0.497999 1.40856 0
M  V30 8341 H 784.304 -1.30622 4.00644 0
M  V30 8342 H 782.979 -1.55804 2.83737 0
M  V30 8343 H 781.886 0.595405 3.69331 0
M  V30 8344 H 783.219 0.763926 4.86236 0
M  V30 8345 N 784.871 -1.49948 0.485112 0
M  V30 8346 C 785.834 -2.27351 -0.290546 0
M  V30 8347 C 786.834 -1.32704 -0.908087 0
M  V30 8348 O 788.024 -1.56007 -0.775085 0
M  V30 8349 C 785.156 -3.10135 -1.41524 0
M  V30 8350 H 786.349 -2.97374 0.388454 0
M  V30 8351 H 783.902 -1.54453 0.239586 0
M  V30 8352 H 784.637 -2.44641 -2.12888 0
M  V30 8353 H 784.422 -3.79705 -0.978074 0
M  V30 8354 H 785.912 -3.68638 -1.96204 0
M  V30 8355 N 786.349 -0.21828 -1.56081 0
M  V30 8356 C 787.595 0.414921 -1.9851 0
M  V30 8357 C 787.928 1.59648 -1.10573 0
M  V30 8358 O 787.203 1.93818 -0.162695 0
M  V30 8359 C 787.486 0.852647 -3.4986 0
M  V30 8360 C 787.339 -0.33232 -4.48571 0
M  V30 8361 C 788.658 1.70998 -4.05521 0
M  V30 8362 H 785.777 0.149344 -0.72171 0
M  V30 8363 H 788.419 -0.313858 -1.8739 0
M  V30 8364 H 786.569 1.47362 -3.59467 0
M  V30 8365 H 788.241 -0.970418 -4.50977 0
M  V30 8366 H 786.484 -0.980302 -4.22578 0
M  V30 8367 H 787.155 0.0168407 -5.51997 0
M  V30 8368 H 789.631 1.18606 -3.98838 0
M  V30 8369 H 788.507 1.98517 -5.11744 0
M  V30 8370 H 788.768 2.67219 -3.52202 0
M  V30 8371 N 787.827 1.57504 0.0551401 0
M  V30 8372 C 788.775 2.05884 1.08233 0
M  V30 8373 C 789.769 0.967383 1.39061 0
M  V30 8374 O 790.975 1.15242 1.38273 0
M  V30 8375 H 787.35 0.656673 0.366449 0
M  V30 8376 H 789.321 2.91273 0.648269 0
M  V30 8377 C 788.07 2.53221 2.38273 0
M  V30 8378 H 787.393 3.36809 2.15406 0
M  V30 8379 H 788.833 2.9081 3.08554 0
M  V30 8380 C 787.292 1.42218 3.05411 0
M  V30 8381 O 787.822 0.773638 3.9418 0
M  V30 8382 N 786.028 1.16316 2.66306 0
M  V30 8383 H 785.575 1.69237 1.94207 0
M  V30 8384 H 785.533 0.422534 3.11548 0
M  V30 8385 N 789.305 -0.326896 1.54172 0
M  V30 8386 C 790.252 -1.40216 1.83325 0
M  V30 8387 C 791.222 -1.51538 0.680107 0
M  V30 8388 O 792.407 -1.66811 0.926206 0
M  V30 8389 C 789.547 -2.76626 2.0633 0
M  V30 8390 C 788.66 -2.73963 3.34019 0
M  V30 8391 C 787.795 -4.02198 3.47002 0
M  V30 8392 C 786.834 -3.93828 4.68578 0
M  V30 8393 N 785.971 -5.13787 4.78506 0
M  V30 8394 H 790.811 -1.14656 2.7506 0
M  V30 8395 H 788.348 -0.555089 1.36225 0
M  V30 8396 H 790.306 -3.55922 2.17659 0
M  V30 8397 H 788.936 -3.00503 1.1789 0
M  V30 8398 H 787.988 -1.86677 3.31445 0
M  V30 8399 H 789.3 -2.6366 4.2342 0
M  V30 8400 H 788.454 -4.89923 3.57855 0
M  V30 8401 H 787.193 -4.15302 2.55687 0
M  V30 8402 H 786.198 -3.04487 4.57786 0
M  V30 8403 H 787.423 -3.82292 5.61275 0
M  V30 8404 H 785.369 -5.27403 3.90105 0
M  V30 8405 H 785.286 -5.05807 5.61868 0
M  V30 8406 H 786.554 -6.03236 4.93686 0
M  V30 8407 N 790.784 -1.46188 -0.588786 0
M  V30 8408 C 792.03 -1.51407 -1.34921 0
M  V30 8409 C 792.363 -0.162771 -1.93517 0
M  V30 8410 O 791.638 0.825082 -1.76132 0
M  V30 8411 C 791.921 -2.60795 -2.48311 0
M  V30 8412 C 791.774 -4.05435 -1.94789 0
M  V30 8413 C 793.093 -2.66313 -3.50379 0
M  V30 8414 H 790.212 -0.551213 -0.489217 0
M  V30 8415 H 792.854 -1.78095 -0.661993 0
M  V30 8416 H 791.004 -2.3817 -3.06932 0
M  V30 8417 H 792.676 -4.39328 -1.40672 0
M  V30 8418 H 790.919 -4.15202 -1.25659 0
M  V30 8419 H 791.59 -4.77691 -2.76613 0
M  V30 8420 H 794.066 -2.86634 -3.01629 0
M  V30 8421 H 792.942 -3.44681 -4.27184 0
M  V30 8422 H 793.203 -1.72127 -4.07216 0
M  V30 8423 N 792.262 0.832906 -1.33792 0
M  V30 8424 C 793.51 1.58539 -1.25338 0
M  V30 8425 C 793.831 1.94175 0.179204 0
M  V30 8426 O 793.101 1.61458 1.10941 0
M  V30 8427 H 791.681 0.58784 -0.460926 0
M  V30 8428 H 794.343 0.995064 -1.67584 0
M  V30 8429 H 793.439 2.51268 -1.85123 0
M  V30 8430 N 793.74 1.17359 1.05189 0
M  V30 8431 C 795.156 0.920861 1.30355 0
M  V30 8432 C 795.356 -0.419993 1.97074 0
M  V30 8433 O 794.412 -1.15696 2.24434 0
M  V30 8434 C 795.725 2.07818 2.1733 0
M  V30 8435 C 797.273 2.1152 2.30712 0
M  V30 8436 C 797.748 3.26637 3.21048 0
M  V30 8437 N 799.239 3.26426 3.28634 0
M  V30 8438 C 799.974 4.12141 3.98657 0
M  V30 8439 N 799.47 5.07966 4.71107 0
M  V30 8440 N 801.263 4.00091 3.94821 0
M  V30 8441 H 793.414 2.03666 0.602821 0
M  V30 8442 H 795.677 0.889294 0.328421 0
M  V30 8443 H 795.383 3.04727 1.75597 0
M  V30 8444 H 795.257 2.02922 3.17966 0
M  V30 8445 H 797.644 1.15196 2.71687 0
M  V30 8446 H 797.725 2.20477 1.29706 0
M  V30 8447 H 797.369 4.23227 2.80788 0
M  V30 8448 H 797.299 3.14917 4.2206 0
M  V30 8449 H 799.79 2.57045 2.77013 0
M  V30 8450 H 800.103 5.69766 5.22099 0
M  V30 8451 H 798.448 5.11936 4.7005 0
M  V30 8452 H 801.639 3.24523 3.37346 0
M  V30 8453 H 801.812 4.6711 4.49123 0
M  V30 8454 N 795.218 -1.23913 0.973828 0
M  V30 8455 C 796.466 -1.91771 0.637817 0
M  V30 8456 C 796.787 -1.76434 -0.830435 0
M  V30 8457 O 796.057 -1.13965 -1.59339 0
M  V30 8458 H 794.637 -0.709761 0.232912 0
M  V30 8459 H 797.299 -1.50677 1.23622 0
M  V30 8460 H 796.395 -2.99327 0.883731 0
M  V30 8461 N 796.696 -0.74468 -1.38897 0
M  V30 8462 C 797.606 -0.112892 -2.34328 0
M  V30 8463 C 798.622 0.71087 -1.58816 0
M  V30 8464 O 799.798 0.637092 -1.91058 0
M  V30 8465 C 796.863 0.776417 -3.37894 0
M  V30 8466 C 795.924 -0.0606999 -4.29257 0
M  V30 8467 C 795.157 0.786258 -5.27877 0
M  V30 8468 O 795.38 2.02463 -5.33259 0
M  V30 8469 O 794.314 0.209781 -6.01534 0
M  V30 8470 H 798.14 -0.900801 -2.90033 0
M  V30 8471 H 795.725 -0.505462 -1.4059 0
M  V30 8472 H 797.607 1.28496 -4.01331 0
M  V30 8473 H 796.282 1.54297 -2.84559 0
M  V30 8474 H 795.189 -0.614984 -3.69011 0
M  V30 8475 H 796.522 -0.789702 -4.85824 0
M  V30 8476 N 798.174 1.49689 -0.493057 0
M  V30 8477 C 799.59 1.58907 -0.148526 0
M  V30 8478 C 799.79 1.4991 1.34645 0
M  V30 8479 O 798.846 1.36893 2.12171 0
M  V30 8480 C 800.159 2.91996 -0.718265 0
M  V30 8481 C 801.707 3.05443 -0.683658 0
M  V30 8482 C 802.182 4.41138 -1.23132 0
M  V30 8483 N 803.673 4.47608 -1.19167 0
M  V30 8484 C 804.408 5.51038 -1.5857 0
M  V30 8485 N 803.904 6.61612 -2.05528 0
M  V30 8486 N 805.697 5.41706 -1.50036 0
M  V30 8487 H 797.848 1.5378 -1.46511 0
M  V30 8488 H 800.111 0.727996 -0.607228 0
M  V30 8489 H 799.817 3.04123 -1.7664 0
M  V30 8490 H 799.691 3.76798 -0.17419 0
M  V30 8491 H 802.078 2.92949 0.355626 0
M  V30 8492 H 802.159 2.22344 -1.26479 0
M  V30 8493 H 801.803 4.54382 -2.26935 0
M  V30 8494 H 801.733 5.22864 -0.626201 0
M  V30 8495 H 804.224 3.68274 -0.847524 0
M  V30 8496 H 804.537 7.36622 -2.33685 0
M  V30 8497 H 802.882 6.62674 -2.09497 0
M  V30 8498 H 806.073 4.54212 -1.13176 0
M  V30 8499 H 806.246 6.22188 -1.81068 0
M  V30 8500 N 799.652 0.226554 1.55963 0
M  V30 8501 C 800.898 -0.404387 1.98727 0
M  V30 8502 C 801.231 -1.59059 1.11418 0
M  V30 8503 O 800.506 -1.93729 0.172971 0
M  V30 8504 C 800.789 -0.834081 3.50307 0
M  V30 8505 C 800.642 0.356104 4.48388 0
M  V30 8506 C 801.961 -1.68845 4.06423 0
M  V30 8507 H 799.08 -0.145515 0.722492 0
M  V30 8508 H 801.722 0.323791 1.87221 0
M  V30 8509 H 799.872 -1.45454 3.60244 0
M  V30 8510 H 801.544 0.99432 4.50456 0
M  V30 8511 H 799.787 1.0027 4.22053 0
M  V30 8512 H 800.458 0.0124333 5.51999 0
M  V30 8513 H 802.934 -1.16489 3.99461 0
M  V30 8514 H 801.81 -1.958 5.1279 0
M  V30 8515 H 802.071 -2.65347 3.53615 0
M  V30 8516 N 801.13 -1.57531 -0.0467866 0
M  V30 8517 C 802.379 -1.87632 -0.740069 0
M  V30 8518 C 802.692 -0.822691 -1.77457 0
M  V30 8519 O 803.898 -1.01235 -2.5192 0
M  V30 8520 C 802.354 -3.32917 -1.36727 0
M  V30 8521 C 801.962 -4.46469 -0.370035 0
M  V30 8522 C 803.706 -3.72189 -2.04146 0
M  V30 8523 C 801.613 -5.82806 -1.00457 0
M  V30 8524 H 800.543 -0.70002 -0.280158 0
M  V30 8525 H 803.194 -1.83499 0.00607151 0
M  V30 8526 H 801.576 -3.31739 -2.16252 0
M  V30 8527 H 802.75 -4.59085 0.397217 0
M  V30 8528 H 801.065 -4.15914 0.201079 0
M  V30 8529 H 803.662 -4.71357 -2.52441 0
M  V30 8530 H 804.005 -3.03268 -2.85192 0
M  V30 8531 H 804.538 -3.75465 -1.3142 0
M  V30 8532 H 801.277 -6.55083 -0.233907 0
M  V30 8533 H 800.797 -5.73944 -1.74209 0
M  V30 8534 H 802.476 -6.28961 -1.51713 0
M  V30 8535 N 802.608 0.318715 -1.54344 0
M  V30 8536 C 803.833 1.07987 -1.77069 0
M  V30 8537 C 804.258 1.80766 -0.520117 0
M  V30 8538 O 803.616 1.73424 0.528566 0
M  V30 8539 C 803.664 2.04987 -2.96669 0
M  V30 8540 O 802.768 3.12974 -2.68554 0
M  V30 8541 H 802.109 0.311109 -0.586606 0
M  V30 8542 H 804.639 0.361533 -2.0138 0
M  V30 8543 H 804.649 2.47771 -3.2415 0
M  V30 8544 H 803.324 1.51417 -3.87357 0
M  V30 8545 H 801.901 2.74831 -2.52037 0
M  V30 8546 N 804.086 1.46499 0.581025 0
M  V30 8547 C 805.333 1.51896 1.33918 0
M  V30 8548 C 805.661 0.171361 1.93744 0
M  V30 8549 O 804.916 -0.833178 1.77078 0
M  V30 8550 C 805.215 2.56686 2.48691 0
M  V30 8551 C 804.881 4.00656 2.06847 0
M  V30 8552 C 803.543 4.39852 1.9515 0
M  V30 8553 C 805.895 4.91089 1.74589 0
M  V30 8554 C 803.223 5.67345 1.49456 0
M  V30 8555 C 805.575 6.1902 1.30373 0
M  V30 8556 C 804.239 6.57121 1.17255 0
M  V30 8557 H 803.509 0.555826 0.490039 0
M  V30 8558 H 806.156 1.79983 0.654092 0
M  V30 8559 H 804.461 2.22266 3.22653 0
M  V30 8560 H 806.158 2.58091 3.06904 0
M  V30 8561 H 802.748 3.69674 2.16886 0
M  V30 8562 H 806.932 4.61523 1.8251 0
M  V30 8563 H 802.188 5.95635 1.37944 0
M  V30 8564 H 806.362 6.8852 1.04467 0
M  V30 8565 H 803.989 7.55805 0.816236 0
M  V30 8566 N 805.565 -0.825799 1.34232 0
M  V30 8567 C 806.515 -1.92533 1.22128 0
M  V30 8568 C 807.499 -1.60444 0.121002 0
M  V30 8569 O 808.691 -1.73497 0.350385 0
M  V30 8570 C 805.82 -3.29134 0.975995 0
M  V30 8571 C 804.906 -3.6735 2.11931 0
M  V30 8572 N 805.297 -3.77154 3.37029 0
M  V30 8573 C 803.595 -3.97179 2.02891 0
M  V30 8574 C 804.296 -4.10552 4.12095 0
M  V30 8575 N 803.272 -4.23619 3.40658 0
M  V30 8576 H 807.074 -1.98287 2.16932 0
M  V30 8577 H 804.588 -1.01929 1.26429 0
M  V30 8578 H 806.585 -4.07717 0.870187 0
M  V30 8579 H 805.245 -3.24679 0.036606 0
M  V30 8580 H 806.256 -3.60723 3.71618 0
M  V30 8581 H 802.933 -4.00861 1.16692 0
M  V30 8582 H 804.323 -4.25365 5.2011 0
M  V30 8583 N 807.043 -1.17915 -1.04565 0
M  V30 8584 C 808.289 -0.972863 -1.77942 0
M  V30 8585 C 808.622 0.496753 -1.87739 0
M  V30 8586 O 807.897 1.3688 -1.38181 0
M  V30 8587 C 808.18 -1.62227 -3.21488 0
M  V30 8588 C 808.033 -3.16441 -3.19664 0
M  V30 8589 C 809.352 -1.33137 -4.19479 0
M  V30 8590 H 806.471 -0.354843 -0.645953 0
M  V30 8591 H 809.113 -1.45508 -1.22178 0
M  V30 8592 H 807.263 -1.21224 -3.69103 0
M  V30 8593 H 808.935 -3.66544 -2.80077 0
M  V30 8594 H 807.178 -3.48863 -2.57832 0
M  V30 8595 H 807.849 -3.57012 -4.21006 0
M  V30 8596 H 810.325 -1.68654 -3.80388 0
M  V30 8597 H 809.201 -1.81151 -5.18146 0
M  V30 8598 H 809.462 -0.253319 -4.41374 0
M  V30 8599 N 808.521 1.23394 -0.980386 0
M  V30 8600 C 809.749 1.95844 -0.667286 0
M  V30 8601 C 810.164 1.72574 0.765735 0
M  V30 8602 O 809.521 1.01715 1.51526 0
M  V30 8603 C 809.572 3.48844 -0.948151 0
M  V30 8604 O 809.293 3.71325 -2.32485 0
M  V30 8605 C 810.794 4.38494 -0.651002 0
M  V30 8606 H 808.014 0.623535 -0.247882 0
M  V30 8607 H 810.558 1.56885 -1.31176 0
M  V30 8608 H 808.713 3.85819 -0.349681 0
M  V30 8609 H 809.127 4.65619 -2.41452 0
M  V30 8610 H 810.601 5.44648 -0.897887 0
M  V30 8611 H 811.078 4.37236 0.414922 0
M  V30 8612 H 811.684 4.07127 -1.22995 0
M  V30 8613 N 809.999 0.752036 1.385 0
M  V30 8614 C 811.415 0.42946 1.53713 0
M  V30 8615 C 811.615 -1.0576 1.71514 0
M  V30 8616 O 810.671 -1.84366 1.72527 0
M  V30 8617 C 811.984 1.22735 2.74511 0
M  V30 8618 C 813.532 1.21727 2.8836 0
M  V30 8619 C 814.007 1.99809 4.12117 0
M  V30 8620 N 815.498 1.97062 4.19191 0
M  V30 8621 C 816.233 2.54274 5.13938 0
M  V30 8622 N 815.729 3.20193 6.14368 0
M  V30 8623 N 817.522 2.44212 5.06277 0
M  V30 8624 H 809.673 1.71581 1.25195 0
M  V30 8625 H 811.936 0.727293 0.60807 0
M  V30 8626 H 811.642 2.28032 2.67758 0
M  V30 8627 H 811.516 0.843186 3.67655 0
M  V30 8628 H 813.903 0.172367 2.94596 0
M  V30 8629 H 813.984 1.64094 1.96232 0
M  V30 8630 H 813.628 3.0431 4.06642 0
M  V30 8631 H 813.558 1.54837 5.03322 0
M  V30 8632 H 816.049 1.49054 3.47263 0
M  V30 8633 H 816.362 3.61272 6.83156 0
M  V30 8634 H 814.707 3.24287 6.14705 0
M  V30 8635 H 817.898 1.92343 4.26757 0
M  V30 8636 H 818.071 2.89096 5.79937 0
M  V30 8637 N 811.477 -1.49425 0.500989 0
M  V30 8638 C 812.725 -2.02053 -0.0434495 0
M  V30 8639 C 813.046 -1.38285 -1.37486 0
M  V30 8640 O 812.316 -0.538171 -1.88363 0
M  V30 8641 H 810.896 -0.746757 -0.0190469 0
M  V30 8642 H 813.558 -1.83449 0.658227 0
M  V30 8643 H 812.654 -3.11619 -0.173129 0
M  V30 8644 N 812.955 -0.234822 -1.55841 0
M  V30 8645 C 814.366 0.270588 -1.84729 0
M  V30 8646 C 814.717 1.58494 -1.15646 0
M  V30 8647 O 813.842 2.12071 -0.430667 0
M  V30 8648 C 814.437 0.497733 -3.35124 0
M  V30 8649 C 812.996 0.947428 -3.64281 0
M  V30 8650 C 812.143 0.01787 -2.77294 0
M  V30 8651 H 815.094 -0.457691 -1.51957 0
M  V30 8652 H 815.115 1.34199 -3.56049 0
M  V30 8653 H 814.627 -0.459037 -3.85376 0
M  V30 8654 H 812.728 1.91709 -3.19497 0
M  V30 8655 H 812.841 0.812651 -4.72158 0
M  V30 8656 H 811.205 0.527071 -2.49187 0
M  V30 8657 H 811.988 -0.934056 -3.30349 0
M  V30 8658 N 814.433 1.57553 0.0384317 0
M  V30 8659 C 815.343 2.09333 1.0591 0
M  V30 8660 C 816.359 1.0299 1.40247 0
M  V30 8661 O 817.535 1.34669 1.49754 0
M  V30 8662 C 814.6 2.55468 2.34386 0
M  V30 8663 C 813.661 3.76254 2.06716 0
M  V30 8664 C 812.894 4.20179 3.29067 0
M  V30 8665 O 813.117 3.637 4.39407 0
M  V30 8666 O 812.051 5.12697 3.15317 0
M  V30 8667 H 815.877 2.96683 0.649087 0
M  V30 8668 H 813.462 1.47211 0.254802 0
M  V30 8669 H 815.344 2.85514 3.09935 0
M  V30 8670 H 814.019 1.71234 2.74701 0
M  V30 8671 H 812.926 3.51241 1.28766 0
M  V30 8672 H 814.259 4.61443 1.71263 0
M  V30 8673 N 815.911 -0.310526 1.54511 0
M  V30 8674 C 817.16 -1.0445 1.72549 0
M  V30 8675 C 817.473 -1.88748 0.513172 0
M  V30 8676 O 818.679 -2.65338 0.575165 0
M  V30 8677 C 817.135 -1.90665 3.05246 0
M  V30 8678 C 816.743 -1.11415 4.33925 0
M  V30 8679 C 818.487 -2.63719 3.32645 0
M  V30 8680 C 816.394 -1.96852 5.57677 0
M  V30 8681 H 815.324 -0.393676 0.643067 0
M  V30 8682 H 817.975 -0.302003 1.80998 0
M  V30 8683 H 816.357 -2.68864 2.90737 0
M  V30 8684 H 817.531 -0.378956 4.59239 0
M  V30 8685 H 815.846 -0.499853 4.13389 0
M  V30 8686 H 818.443 -3.27974 4.223 0
M  V30 8687 H 818.786 -3.32047 2.51098 0
M  V30 8688 H 819.319 -1.92574 3.48081 0
M  V30 8689 H 816.058 -1.33009 6.41864 0
M  V30 8690 H 815.578 -2.68069 5.36562 0
M  V30 8691 H 817.257 -2.55127 5.94575 0
M  V30 8692 N 817.389 -1.46805 -0.573248 0
M  V30 8693 C 818.617 -1.56191 -1.3569 0
M  V30 8694 C 819.032 -0.206362 -1.87669 0
M  V30 8695 O 818.389 0.797883 -1.64134 0
M  V30 8696 C 818.44 -2.57433 -2.53792 0
M  V30 8697 O 818.161 -3.87724 -2.03965 0
M  V30 8698 C 819.662 -2.76851 -3.4622 0
M  V30 8699 H 816.882 -0.527907 -0.414192 0
M  V30 8700 H 819.426 -1.92292 -0.695989 0
M  V30 8701 H 817.581 -2.24311 -3.15854 0
M  V30 8702 H 817.995 -4.42909 -2.80948 0
M  V30 8703 H 819.469 -3.5159 -4.25545 0
M  V30 8704 H 819.946 -1.84095 -3.98755 0
M  V30 8705 H 820.552 -3.11107 -2.89987 0
M  V30 8706 N 818.867 0.818669 -1.34668 0
M  V30 8707 C 819.797 1.94468 -1.29245 0
M  V30 8708 C 820.778 1.69257 -0.169101 0
M  V30 8709 O 821.963 1.90794 -0.362143 0
M  V30 8710 C 819.093 3.31001 -1.05145 0
M  V30 8711 C 818.047 3.70663 -2.13992 0
M  V30 8712 C 817.373 5.05226 -1.75074 0
M  V30 8713 C 818.673 3.82312 -3.55858 0
M  V30 8714 H 820.367 1.99263 -2.2346 0
M  V30 8715 H 817.913 0.957304 -1.07572 0
M  V30 8716 H 819.866 4.09364 -0.999949 0
M  V30 8717 H 818.59 3.26517 -0.0737312 0
M  V30 8718 H 817.249 2.94578 -2.18219 0
M  V30 8719 H 816.897 4.97233 -0.759518 0
M  V30 8720 H 816.597 5.32734 -2.47928 0
M  V30 8721 H 818.121 5.86042 -1.71427 0
M  V30 8722 H 819.535 4.50935 -3.5402 0
M  V30 8723 H 817.932 4.21278 -4.2737 0
M  V30 8724 H 819.002 2.84193 -3.9289 0
M  V30 8725 N 820.346 1.18468 1.03938 0
M  V30 8726 C 821.278 0.870615 2.12021 0
M  V30 8727 C 822.291 -0.132318 1.62261 0
M  V30 8728 O 823.48 0.0956901 1.78243 0
M  V30 8729 C 820.58 0.279727 3.37744 0
M  V30 8730 C 819.753 1.32863 4.16733 0
M  V30 8731 C 818.812 0.753204 5.20781 0
M  V30 8732 O 817.838 1.42825 5.5099 0
M  V30 8733 N 819.04 -0.448664 5.78764 0
M  V30 8734 H 821.805 1.80091 2.39556 0
M  V30 8735 H 819.366 1.08524 1.20142 0
M  V30 8736 H 821.358 -0.118829 4.04526 0
M  V30 8737 H 819.928 -0.554621 3.07641 0
M  V30 8738 H 819.148 1.90245 3.45254 0
M  V30 8739 H 820.436 2.03574 4.66299 0
M  V30 8740 H 819.834 -1.01481 5.56523 0
M  V30 8741 H 818.391 -0.789125 6.47005 0
M  V30 8742 N 821.824 -1.22873 0.986916 0
M  V30 8743 C 823.235 -1.73264 0.695438 0
M  V30 8744 C 823.586 -1.79679 -0.788023 0
M  V30 8745 O 822.711 -1.43905 -1.61618 0
M  V30 8746 C 823.306 -3.14671 1.2557 0
M  V30 8747 C 821.865 -3.62492 1.01373 0
M  V30 8748 C 821.012 -2.40551 1.37951 0
M  V30 8749 H 823.963 -1.08304 1.15999 0
M  V30 8750 H 823.984 -3.75226 0.631322 0
M  V30 8751 H 823.496 -3.0997 2.33539 0
M  V30 8752 H 821.597 -3.72567 -0.0495917 0
M  V30 8753 H 821.71 -4.48944 1.67289 0
M  V30 8754 H 820.074 -2.41875 0.798033 0
M  V30 8755 H 820.857 -2.38516 2.46911 0
M  V30 8756 N 823.302 -0.75937 -1.38099 0
M  V30 8757 C 824.579 -0.243371 -1.9408 0
M  V30 8758 C 824.959 1.25942 -1.69416 0
M  V30 8759 O 824.307 2.03667 -1.03595 0
M  V30 8760 C 824.517 -0.603328 -3.43745 0
M  V30 8761 C 825.865 -0.566195 -4.20808 0
M  V30 8762 O 826.889 -0.541969 -3.52053 0
M  V30 8763 O 825.748 -0.582261 -5.43389 0
M  V30 8764 H 822.842 -0.0526825 -0.82532 0
M  V30 8765 H 825.388 -0.839884 -1.47459 0
M  V30 8766 H 824.16 -1.64098 -3.55229 0
M  V30 8767 H 823.783 0.0208887 -3.97595 0
M  V30 8768 N 824.78 1.49157 -0.508906 0
M  V30 8769 C 825.713 2.26056 0.312103 0
M  V30 8770 C 826.691 1.30982 0.963456 0
M  V30 8771 O 827.875 1.60286 0.992002 0
M  V30 8772 C 825.002 3.06555 1.4402 0
M  V30 8773 C 824.048 4.16844 0.902414 0
M  V30 8774 S 824.881 5.35076 -0.213087 0
M  V30 8775 C 826.037 6.19132 0.917985 0
M  V30 8776 H 826.27 2.95343 -0.340559 0
M  V30 8777 H 823.803 1.51569 -0.294331 0
M  V30 8778 H 825.761 3.53517 2.08653 0
M  V30 8779 H 824.422 2.36722 2.0645 0
M  V30 8780 H 823.615 4.72714 1.74806 0
M  V30 8781 H 823.217 3.72513 0.333156 0
M  V30 8782 H 825.509 6.52556 1.82145 0
M  V30 8783 H 826.452 7.06982 0.397724 0
M  V30 8784 H 826.86 5.51839 1.18889 0
M  V30 8785 N 826.258 0.243083 1.55714 0
M  V30 8786 C 827.19 -0.690766 2.18543 0
M  V30 8787 C 828.203 -1.14163 1.16064 0
M  V30 8788 O 829.392 -1.06906 1.42946 0
M  V30 8789 C 826.492 -1.95016 2.77168 0
M  V30 8790 C 825.665 -1.65137 4.05029 0
M  V30 8791 C 824.724 -2.75998 4.48009 0
M  V30 8792 O 823.75 -2.43547 5.14464 0
M  V30 8793 N 824.952 -4.05414 4.15476 0
M  V30 8794 H 827.717 -0.153203 2.99308 0
M  V30 8795 H 825.278 0.0628968 1.61778 0
M  V30 8796 H 827.27 -2.68414 3.0288 0
M  V30 8797 H 825.84 -2.39762 2.00582 0
M  V30 8798 H 825.06 -0.752768 3.86946 0
M  V30 8799 H 826.348 -1.42633 4.88399 0
M  V30 8800 H 825.746 -4.34613 3.62116 0
M  V30 8801 H 824.303 -4.75288 4.46032 0
M  V30 8802 N 827.736 -1.57571 -0.0300757 0
M  V30 8803 C 829.147 -1.77567 -0.576802 0
M  V30 8804 C 829.498 -0.874034 -1.75656 0
M  V30 8805 O 828.623 -0.0686124 -2.16291 0
M  V30 8806 C 829.218 -3.22016 -1.05315 0
M  V30 8807 C 827.777 -3.43212 -1.5454 0
M  V30 8808 C 826.924 -2.73061 -0.483033 0
M  V30 8809 H 829.875 -1.57483 0.196151 0
M  V30 8810 H 829.896 -3.28474 -1.92055 0
M  V30 8811 H 829.408 -3.87613 -0.194298 0
M  V30 8812 H 827.509 -2.82788 -2.42615 0
M  V30 8813 H 827.622 -4.5182 -1.5936 0
M  V30 8814 H 825.986 -2.36805 -0.937835 0
M  V30 8815 H 826.769 -3.4134 0.366341 0
M  V30 8816 N 829.214 0.302327 -1.54673 0
M  V30 8817 C 830.442 1.05669 -1.77881 0
M  V30 8818 C 830.857 1.80983 -0.537648 0
M  V30 8819 O 830.214 1.7573 0.492467 0
M  V30 8820 C 830.265 2.03828 -2.98557 0
M  V30 8821 O 829.986 1.3157 -4.17877 0
M  V30 8822 C 831.487 2.91314 -3.34143 0
M  V30 8823 H 828.707 0.313436 -0.593295 0
M  V30 8824 H 831.251 0.342003 -2.0162 0
M  V30 8825 H 829.406 2.70801 -2.7703 0
M  V30 8826 H 829.82 1.97481 -4.85903 0
M  V30 8827 H 831.294 3.56042 -4.21827 0
M  V30 8828 H 831.771 3.59544 -2.52239 0
M  V30 8829 H 832.377 2.29874 -3.57824 0
M  V30 8830 N 830.692 1.47107 0.565454 0
M  V30 8831 C 831.602 1.61591 1.70075 0
M  V30 8832 C 832.618 0.498931 1.66693 0
M  V30 8833 O 833.794 0.765372 1.8629 0
M  V30 8834 C 830.859 1.61887 3.06583 0
M  V30 8835 C 829.92 2.84949 3.21096 0
M  V30 8836 C 829.153 2.85221 4.51093 0
M  V30 8837 O 829.376 1.94959 5.36048 0
M  V30 8838 O 828.31 3.76982 4.69221 0
M  V30 8839 H 832.136 2.57638 1.60799 0
M  V30 8840 H 829.721 1.30097 0.73451 0
M  V30 8841 H 831.603 1.64809 3.87835 0
M  V30 8842 H 830.278 0.69005 3.16259 0
M  V30 8843 H 829.185 2.87575 2.39273 0
M  V30 8844 H 830.518 3.77098 3.1632 0
M  V30 8845 N 832.17 -0.811516 1.35101 0
M  V30 8846 C 833.102 -1.93102 1.23468 0
M  V30 8847 C 834.115 -1.62021 0.159095 0
M  V30 8848 O 835.304 -1.73682 0.411945 0
M  V30 8849 C 832.404 -3.27345 0.877404 0
M  V30 8850 C 831.577 -3.86368 2.05033 0
M  V30 8851 C 830.636 -4.99009 1.66963 0
M  V30 8852 O 829.662 -5.16698 2.38772 0
M  V30 8853 N 830.864 -5.7749 0.590394 0
M  V30 8854 H 833.629 -2.0361 2.19916 0
M  V30 8855 H 831.19 -0.988687 1.28205 0
M  V30 8856 H 833.182 -4.00163 0.604298 0
M  V30 8857 H 831.752 -3.126 0.00275267 0
M  V30 8858 H 830.972 -3.05804 2.48752 0
M  V30 8859 H 832.26 -4.22533 2.83449 0
M  V30 8860 H 831.658 -5.657 -0.00633259 0
M  V30 8861 H 830.215 -6.50708 0.377055 0
M  V30 8862 N 833.648 -1.19017 -1.03309 0
M  V30 8863 C 834.558 -0.939303 -2.14975 0
M  V30 8864 C 835.574 0.0992359 -1.73717 0
M  V30 8865 O 836.75 -0.0844362 -2.01223 0
M  V30 8866 C 833.815 -0.476712 -3.43407 0
M  V30 8867 C 832.876 -1.58413 -3.99003 0
M  V30 8868 C 832.109 -1.14352 -5.21305 0
M  V30 8869 O 832.332 -0.00534408 -5.704 0
M  V30 8870 O 831.266 -1.94436 -5.6963 0
M  V30 8871 H 835.092 -1.87386 -2.38998 0
M  V30 8872 H 832.677 -0.972635 -1.13403 0
M  V30 8873 H 834.559 -0.22718 -4.20787 0
M  V30 8874 H 833.234 0.429455 -3.20839 0
M  V30 8875 H 832.141 -1.88777 -3.22977 0
M  V30 8876 H 833.474 -2.4667 -4.25928 0
M  V30 8877 N 835.127 1.22348 -0.993418 0
M  V30 8878 C 836.352 1.95666 -0.687727 0
M  V30 8879 C 836.777 1.72883 0.741161 0
M  V30 8880 O 836.135 1.00837 1.50671 0
M  V30 8881 C 836.183 3.46457 -0.99998 0
M  V30 8882 O 835.287 4.12281 -0.0989386 0
M  V30 8883 H 834.628 0.612102 -0.257346 0
M  V30 8884 H 837.158 1.55428 -1.33054 0
M  V30 8885 H 837.168 3.96976 -0.942035 0
M  V30 8886 H 835.843 3.62365 -2.04118 0
M  V30 8887 H 834.42 3.72295 -0.212413 0
M  V30 8888 N 836.605 0.766683 1.37694 0
M  V30 8889 C 837.851 0.329201 2.0011 0
M  V30 8890 C 838.184 -1.09004 1.60723 0
M  V30 8891 O 837.459 -1.74895 0.850989 0
M  V30 8892 C 837.742 0.466989 3.57059 0
M  V30 8893 C 837.595 1.92828 4.06371 0
M  V30 8894 C 838.914 -0.131792 4.39903 0
M  V30 8895 H 836.033 0.12109 0.726984 0
M  V30 8896 H 838.675 0.968779 1.63446 0
M  V30 8897 H 836.825 -0.0775023 3.88423 0
M  V30 8898 H 838.497 2.53208 3.85595 0
M  V30 8899 H 836.74 2.43884 3.58752 0
M  V30 8900 H 837.411 1.97577 5.15429 0
M  V30 8901 H 839.887 0.332731 4.14768 0
M  V30 8902 H 838.763 -0.005217 5.489 0
M  V30 8903 H 839.024 -1.22156 4.24889 0
M  V30 8904 N 838.083 -1.48885 0.516809 0
M  V30 8905 C 839.308 -2.0739 -0.0205201 0
M  V30 8906 C 839.733 -1.37259 -1.28614 0
M  V30 8907 O 839.091 -0.434304 -1.76021 0
M  V30 8908 C 839.139 -3.59793 -0.24104 0
M  V30 8909 O 838.243 -3.90957 -1.31251 0
M  V30 8910 H 837.584 -0.663167 0.0332564 0
M  V30 8911 H 840.114 -1.91477 0.720956 0
M  V30 8912 H 840.124 -4.0531 -0.467737 0
M  V30 8913 H 838.799 -4.10244 0.68356 0
M  V30 8914 H 837.376 -3.57234 -1.06951 0
M  V30 8915 N 839.561 -0.251338 -1.55583 0
M  V30 8916 C 840.491 0.640437 -2.24545 0
M  V30 8917 C 841.472 1.17781 -1.22726 0
M  V30 8918 O 842.657 1.21633 -1.5139 0
M  V30 8919 C 839.787 1.8355 -2.94834 0
M  V30 8920 C 838.741 1.4307 -4.03379 0
M  V30 8921 C 838.067 2.70695 -4.61116 0
M  V30 8922 C 839.367 0.59848 -5.1886 0
M  V30 8923 H 841.061 0.0653772 -2.99329 0
M  V30 8924 H 838.607 0.0300042 -1.43969 0
M  V30 8925 H 840.56 2.46505 -3.4178 0
M  V30 8926 H 839.284 2.43601 -2.17546 0
M  V30 8927 H 837.943 0.824474 -3.57209 0
M  V30 8928 H 837.591 3.28954 -3.80524 0
M  V30 8929 H 837.291 2.44332 -5.34393 0
M  V30 8930 H 838.815 3.34541 -5.10798 0
M  V30 8931 H 840.229 1.13244 -5.62004 0
M  V30 8932 H 838.626 0.430728 -5.98552 0
M  V30 8933 H 839.696 -0.38829 -4.83343 0
M  V30 8934 N 841.039 1.57585 0.0217189 0
M  V30 8935 C 842.285 1.90733 0.706582 0
M  V30 8936 C 842.64 0.850732 1.7257 0
M  V30 8937 O 841.933 -0.139715 1.9109 0
M  V30 8938 C 842.127 3.28377 1.41079 0
M  V30 8939 C 841.956 4.47327 0.461395 0
M  V30 8940 C 840.726 5.05237 0.0797404 0
M  V30 8941 C 842.924 5.13626 -0.263302 0
M  V30 8942 N 840.906 6.07702 -0.870139 0
M  V30 8943 C 842.277 6.10722 -1.06859 0
M  V30 8944 C 844.332 4.96809 -0.329461 0
M  V30 8945 C 843.035 6.92813 -1.93397 0
M  V30 8946 C 845.061 5.79468 -1.18199 0
M  V30 8947 C 844.423 6.7614 -1.97519 0
M  V30 8948 H 840.522 0.74666 0.232427 0
M  V30 8949 H 843.106 1.94671 -0.0335228 0
M  V30 8950 H 841.277 3.25354 2.12131 0
M  V30 8951 H 843.009 3.49018 2.04862 0
M  V30 8952 H 839.764 4.71519 0.443498 0
M  V30 8953 H 840.188 6.6361 -1.33981 0
M  V30 8954 H 844.83 4.2194 0.269485 0
M  V30 8955 H 842.548 7.67022 -2.54369 0
M  V30 8956 H 846.134 5.68502 -1.23681 0
M  V30 8957 H 845.014 7.38989 -2.62421 0
M  V30 8958 N 842.517 -0.29412 1.54831 0
M  V30 8959 C 843.757 -1.03635 1.76179 0
M  V30 8960 C 844.121 -1.84251 0.539953 0
M  V30 8961 O 845.322 -2.61282 0.631295 0
M  V30 8962 C 843.593 -1.91275 3.01909 0
M  V30 8963 S 845.152 -2.7205 3.44288 0
M  V30 8964 H 841.97 -0.349403 0.619224 0
M  V30 8965 H 844.572 -0.309006 1.93042 0
M  V30 8966 H 843.276 -1.30937 3.88952 0
M  V30 8967 H 842.807 -2.68365 2.87652 0
M  V30 8968 H 844.822 -3.93791 3.01899 0
M  V30 8969 N 843.995 -1.47404 -0.557645 0
M  V30 8970 C 845.223 -1.57622 -1.34026 0
M  V30 8971 C 845.638 -0.226256 -1.87439 0
M  V30 8972 O 844.995 0.78043 -1.64971 0
M  V30 8973 C 845.046 -2.60111 -2.51047 0
M  V30 8974 O 844.767 -3.89866 -1.99841 0
M  V30 8975 C 846.268 -2.80508 -3.43264 0
M  V30 8976 H 843.488 -0.532271 -0.40857 0
M  V30 8977 H 846.032 -1.93019 -0.675555 0
M  V30 8978 H 844.187 -2.27648 -3.13457 0
M  V30 8979 H 844.601 -4.45864 -2.76234 0
M  V30 8980 H 846.075 -3.56084 -4.21792 0
M  V30 8981 H 846.552 -1.88314 -3.9678 0
M  V30 8982 H 847.158 -3.14166 -2.86671 0
M  V30 8983 N 845.473 0.80434 -1.35529 0
M  V30 8984 C 846.436 1.89788 -1.28503 0
M  V30 8985 C 847.436 1.59601 -0.195983 0
M  V30 8986 O 848.626 1.68292 -0.449827 0
M  V30 8987 C 845.758 3.26255 -0.98847 0
M  V30 8988 H 846.951 1.97436 -2.25741 0
M  V30 8989 H 844.504 1.00046 -1.20086 0
M  V30 8990 H 845.239 3.24294 -0.0200541 0
M  V30 8991 H 845.024 3.49551 -1.77641 0
M  V30 8992 H 846.514 4.06298 -0.964975 0
M  V30 8993 N 846.951 1.19563 1.02676 0
M  V30 8994 C 848.228 0.908857 1.73203 0
M  V30 8995 C 848.608 -0.584928 2.02834 0
M  V30 8996 O 847.956 -1.54372 1.68469 0
M  V30 8997 C 848.166 1.77105 3.00724 0
M  V30 8998 C 849.514 2.00667 3.7419 0
M  V30 8999 O 850.538 1.74274 3.10656 0
M  V30 9000 O 849.397 2.4518 4.88415 0
M  V30 9001 H 846.491 0.338909 0.754367 0
M  V30 9002 H 849.037 1.30387 1.08616 0
M  V30 9003 H 847.809 2.78303 2.7507 0
M  V30 9004 H 847.432 1.37546 3.73051 0
M  V30 9005 N 848.429 -1.21819 0.999893 0
M  V30 9006 C 849.845 -1.42847 0.711824 0
M  V30 9007 C 850.045 -1.88391 -0.714928 0
M  V30 9008 O 849.101 -2.0422 -1.48494 0
M  V30 9009 C 850.414 -2.46417 1.72334 0
M  V30 9010 C 851.962 -2.60207 1.73958 0
M  V30 9011 C 852.437 -3.67005 2.73992 0
M  V30 9012 N 853.928 -3.7447 2.72628 0
M  V30 9013 C 854.663 -4.56718 3.46693 0
M  V30 9014 N 854.159 -5.42904 4.3038 0
M  V30 9015 N 855.952 -4.51094 3.35366 0
M  V30 9016 H 848.103 -0.905656 1.92124 0
M  V30 9017 H 850.366 -0.459893 0.828977 0
M  V30 9018 H 850.072 -2.19914 2.74465 0
M  V30 9019 H 849.946 -3.45137 1.52186 0
M  V30 9020 H 852.333 -2.8605 0.725217 0
M  V30 9021 H 852.414 -1.61739 1.98177 0
M  V30 9022 H 852.058 -3.41908 3.75582 0
M  V30 9023 H 851.988 -4.65058 2.4704 0
M  V30 9024 H 854.479 -3.12895 2.11909 0
M  V30 9025 H 854.792 -6.02704 4.83702 0
M  V30 9026 H 853.137 -5.42463 4.34464 0
M  V30 9027 H 856.328 -3.82791 2.69423 0
M  V30 9028 H 856.501 -5.1496 3.93344 0
M  V30 9029 N 849.908 -0.773975 -1.37286 0
M  V30 9030 C 851.133 -0.349561 -2.04433 0
M  V30 9031 C 851.558 1.02082 -1.5799 0
M  V30 9032 O 850.916 1.65458 -0.741172 0
M  V30 9033 C 850.964 -0.404292 -3.58326 0
M  V30 9034 O 850.068 0.594447 -4.08093 0
M  V30 9035 H 849.409 -0.150959 -0.646612 0
M  V30 9036 H 851.939 -1.05079 -1.75555 0
M  V30 9037 H 851.949 -0.262378 -4.07155 0
M  V30 9038 H 850.624 -1.40403 -3.91484 0
M  V30 9039 H 849.201 0.415468 -3.70578 0
M  V30 9040 N 851.386 1.48609 -0.524698 0
M  V30 9041 C 852.614 2.06899 0.00742946 0
M  V30 9042 C 853.029 1.38196 1.28637 0
M  V30 9043 O 852.386 0.467771 1.76403 0
M  V30 9044 C 852.437 3.60699 0.240548 0
M  V30 9045 O 852.158 4.26821 -0.987715 0
M  V30 9046 C 853.659 4.35769 0.813652 0
M  V30 9047 H 850.879 0.670278 -0.0311294 0
M  V30 9048 H 853.423 1.91071 -0.728832 0
M  V30 9049 H 851.578 3.76149 0.926845 0
M  V30 9050 H 851.992 5.18889 -0.765175 0
M  V30 9051 H 853.466 5.44174 0.926219 0
M  V30 9052 H 853.943 3.9984 1.81728 0
M  V30 9053 H 854.549 4.24983 0.164086 0
M  V30 9054 N 852.864 0.259585 1.55447 0
M  V30 9055 C 854.111 -0.361607 1.99245 0
M  V30 9056 C 854.439 -1.57017 1.14787 0
M  V30 9057 O 853.694 -1.94658 0.201724 0
M  V30 9058 C 853.993 -0.802727 3.48269 0
M  V30 9059 C 853.659 0.299472 4.49904 0
M  V30 9060 C 852.321 0.602157 4.77418 0
M  V30 9061 C 854.673 1.04295 5.10658 0
M  V30 9062 C 852.001 1.65217 5.62957 0
M  V30 9063 C 854.353 2.08257 5.97337 0
M  V30 9064 C 853.017 2.39177 6.23178 0
M  V30 9065 H 852.287 -0.132322 0.72909 0
M  V30 9066 H 854.934 0.370059 1.8789 0
M  V30 9067 H 853.239 -1.61381 3.5702 0
M  V30 9068 H 854.936 -1.29385 3.79553 0
M  V30 9069 H 851.526 0.0534256 4.28567 0
M  V30 9070 H 855.71 0.822358 4.89439 0
M  V30 9071 H 850.966 1.89692 5.81229 0
M  V30 9072 H 855.14 2.6635 6.43452 0
M  V30 9073 H 852.767 3.20677 6.89253 0
M  V30 9074 N 854.342 -1.57594 -0.0133615 0
M  V30 9075 C 855.252 -2.10991 -1.02566 0
M  V30 9076 C 856.268 -1.05208 -1.3859 0
M  V30 9077 O 857.444 -1.37034 -1.47593 0
M  V30 9078 C 854.509 -2.59165 -2.30292 0
M  V30 9079 C 853.57 -3.79495 -2.00704 0
M  V30 9080 C 852.803 -4.25361 -3.22341 0
M  V30 9081 O 853.026 -3.70645 -4.33565 0
M  V30 9082 O 851.96 -5.17649 -3.07121 0
M  V30 9083 H 855.786 -2.97678 -0.601806 0
M  V30 9084 H 853.371 -1.47598 -0.23135 0
M  V30 9085 H 855.253 -2.90409 -3.05354 0
M  V30 9086 H 853.928 -1.75582 -2.71942 0
M  V30 9087 H 852.835 -3.53245 -1.23161 0
M  V30 9088 H 854.168 -4.64109 -1.639 0
M  V30 9089 N 855.82 0.285905 -1.54985 0
M  V30 9090 C 856.768 1.37302 -1.87752 0
M  V30 9091 C 857.762 1.51763 -0.752616 0
M  V30 9092 O 858.968 1.53701 -0.936805 0
M  V30 9093 H 855.343 0.458935 -0.59572 0
M  V30 9094 H 857.314 1.0691 -2.78591 0
M  V30 9095 C 856.063 2.72885 -2.15474 0
M  V30 9096 H 855.386 2.62545 -3.01513 0
M  V30 9097 H 856.826 3.47925 -2.42331 0
M  V30 9098 C 855.285 3.22989 -0.958124 0
M  V30 9099 O 855.815 4.01268 -0.186219 0
M  V30 9100 N 854.021 2.80503 -0.759354 0
M  V30 9101 H 853.568 2.16961 -1.38874 0
M  V30 9102 H 853.526 3.14375 0.0396937 0
M  V30 9103 N 857.298 1.47698 0.54982 0
M  V30 9104 C 858.228 1.63622 1.66583 0
M  V30 9105 C 859.209 0.485477 1.63025 0
M  V30 9106 O 860.394 0.715692 1.80531 0
M  V30 9107 C 857.524 1.65721 3.05211 0
M  V30 9108 C 856.478 2.80097 3.2362 0
M  V30 9109 C 855.804 2.67272 4.63109 0
M  V30 9110 C 857.104 4.21612 3.08286 0
M  V30 9111 H 858.798 2.57049 1.53512 0
M  V30 9112 H 856.344 1.23705 0.737099 0
M  V30 9113 H 858.297 1.75451 3.83138 0
M  V30 9114 H 857.021 0.688593 3.19258 0
M  V30 9115 H 855.68 2.69889 2.48104 0
M  V30 9116 H 855.328 1.68422 4.73965 0
M  V30 9117 H 855.028 3.44008 4.76374 0
M  V30 9118 H 856.552 2.78942 5.43161 0
M  V30 9119 H 857.966 4.32758 3.76024 0
M  V30 9120 H 856.363 4.99193 3.33057 0
M  V30 9121 H 857.433 4.39462 2.04942 0
M  V30 9122 N 858.776 -0.797141 1.35954 0
M  V30 9123 C 860.004 -1.5858 1.32891 0
M  V30 9124 C 860.419 -1.88578 -0.0915564 0
M  V30 9125 O 859.776 -1.49532 -1.04625 0
M  V30 9126 C 859.827 -2.91143 2.14284 0
M  V30 9127 O 859.548 -2.62442 3.50793 0
M  V30 9128 C 861.049 -3.85476 2.18914 0
M  V30 9129 H 858.269 -0.492111 0.456144 0
M  V30 9130 H 860.813 -0.98994 1.78943 0
M  V30 9131 H 858.968 -3.47219 1.71807 0
M  V30 9132 H 859.382 -3.4715 3.93175 0
M  V30 9133 H 860.856 -4.75574 2.80238 0
M  V30 9134 H 861.333 -4.22758 1.19047 0
M  V30 9135 H 861.939 -3.35334 2.61593 0
M  V30 9136 N 860.254 -1.20106 -1.0204 0
M  V30 9137 C 861.5 -1.02042 -1.75951 0
M  V30 9138 C 861.855 0.443229 -1.87225 0
M  V30 9139 O 861.148 1.32477 -1.38421 0
M  V30 9140 C 861.342 -1.63308 -3.17908 0
M  V30 9141 C 861.171 -3.15478 -3.20474 0
M  V30 9142 C 859.941 -3.84432 -3.27933 0
M  V30 9143 C 862.139 -4.12747 -3.06829 0
M  V30 9144 N 860.121 -5.23925 -3.19963 0
M  V30 9145 C 861.492 -5.38892 -3.06586 0
M  V30 9146 C 863.547 -4.03996 -2.91018 0
M  V30 9147 C 862.25 -6.57296 -2.92154 0
M  V30 9148 C 864.276 -5.22019 -2.77938 0
M  V30 9149 C 863.638 -6.47067 -2.78358 0
M  V30 9150 H 859.737 -0.427602 -0.654737 0
M  V30 9151 H 862.321 -1.52216 -1.21402 0
M  V30 9152 H 860.492 -1.15723 -3.7076 0
M  V30 9153 H 862.224 -1.38597 -3.80227 0
M  V30 9154 H 858.979 -3.35269 -3.34502 0
M  V30 9155 H 859.403 -5.9694 -3.19362 0
M  V30 9156 H 864.045 -3.0813 -2.8951 0
M  V30 9157 H 861.763 -7.5334 -2.92412 0
M  V30 9158 H 865.349 -5.17057 -2.66728 0
M  V30 9159 H 864.229 -7.36857 -2.6835 0
M  V30 9160 N 861.732 1.21287 -1.00634 0
M  V30 9161 C 862.962 1.94103 -0.70765 0
M  V30 9162 C 863.37 1.74382 0.733991 0
M  V30 9163 O 862.713 1.04843 1.50843 0
M  V30 9164 C 862.775 3.46705 -0.950581 0
M  V30 9165 C 862.439 3.90176 -2.37932 0
M  V30 9166 C 863.436 3.96769 -3.35961 0
M  V30 9167 C 861.121 4.22453 -2.71733 0
M  V30 9168 C 863.115 4.35034 -4.65858 0
M  V30 9169 C 860.802 4.60394 -4.01846 0
M  V30 9170 C 861.8 4.66656 -4.9872 0
M  V30 9171 O 861.488 5.03732 -6.26505 0
M  V30 9172 H 861.22 0.62405 -0.259881 0
M  V30 9173 H 863.774 1.55015 -1.34757 0
M  V30 9174 H 862.004 3.85868 -0.253492 0
M  V30 9175 H 863.693 4.00741 -0.645069 0
M  V30 9176 H 864.459 3.72009 -3.11182 0
M  V30 9177 H 860.338 4.16776 -1.97025 0
M  V30 9178 H 863.882 4.39836 -5.4147 0
M  V30 9179 H 859.779 4.84609 -4.26409 0
M  V30 9180 H 860.547 5.21761 -6.30641 0
M  V30 9181 N 863.21 0.781244 1.36873 0
M  V30 9182 C 864.157 0.172146 2.30157 0
M  V30 9183 C 865.127 -0.679328 1.51573 0
M  V30 9184 O 866.312 -0.629713 1.80109 0
M  V30 9185 C 863.452 -0.693534 3.38059 0
M  V30 9186 C 862.565 0.175586 4.31643 0
M  V30 9187 C 861.7 -0.695695 5.26625 0
M  V30 9188 C 860.739 0.17538 6.11849 0
M  V30 9189 N 859.876 -0.654416 6.99043 0
M  V30 9190 H 864.716 0.973133 2.81663 0
M  V30 9191 H 862.253 0.491469 1.38647 0
M  V30 9192 H 864.211 -1.21035 3.99257 0
M  V30 9193 H 862.841 -1.46003 2.87894 0
M  V30 9194 H 861.893 0.810295 3.7167 0
M  V30 9195 H 863.205 0.847107 4.91554 0
M  V30 9196 H 862.359 -1.27863 5.93073 0
M  V30 9197 H 861.098 -1.40087 4.67148 0
M  V30 9198 H 860.103 0.77078 5.4437 0
M  V30 9199 H 861.328 0.87803 6.734 0
M  V30 9200 H 859.274 -1.34403 6.42084 0
M  V30 9201 H 859.191 -0.0403998 7.55989 0
M  V30 9202 H 860.459 -1.22144 7.69871 0
M  V30 9203 N 864.689 -1.48329 0.532571 0
M  V30 9204 C 865.619 -2.32485 -0.217511 0
M  V30 9205 C 866.6 -1.42255 -0.932598 0
M  V30 9206 O 867.785 -1.7114 -0.917873 0
M  V30 9207 C 864.915 -3.23509 -1.26329 0
M  V30 9208 C 863.869 -4.22784 -0.666191 0
M  V30 9209 C 863.195 -5.0296 -1.81482 0
M  V30 9210 C 864.495 -5.21031 0.363813 0
M  V30 9211 H 866.189 -2.95445 0.485014 0
M  V30 9212 H 863.735 -1.42075 0.234694 0
M  V30 9213 H 865.688 -3.81211 -1.79601 0
M  V30 9214 H 864.412 -2.58554 -1.99543 0
M  V30 9215 H 863.071 -3.66272 -0.15498 0
M  V30 9216 H 862.719 -4.34427 -2.5354 0
M  V30 9217 H 862.419 -5.70154 -1.4212 0
M  V30 9218 H 863.943 -5.63514 -2.35126 0
M  V30 9219 H 865.357 -5.73241 -0.0819079 0
M  V30 9220 H 863.754 -5.96292 0.674956 0
M  V30 9221 H 864.824 -4.6801 1.26865 0
M  V30 9222 N 866.167 -0.267825 -1.55308 0
M  V30 9223 C 867.415 0.350343 -1.9904 0
M  V30 9224 C 867.736 1.56924 -1.15758 0
M  V30 9225 O 867.006 1.94358 -0.245336 0
M  V30 9226 H 865.586 0.132435 -0.735167 0
M  V30 9227 H 868.248 -0.371471 -1.91327 0
M  V30 9228 H 867.344 0.645203 -3.05358 0
M  V30 9229 N 867.645 1.57599 0.00500368 0
M  V30 9230 C 869.056 1.78462 0.54848 0
M  V30 9231 C 869.407 0.901869 1.74243 0
M  V30 9232 O 868.532 0.103014 2.16155 0
M  V30 9233 C 869.127 3.2365 1.00179 0
M  V30 9234 C 867.686 3.45627 1.49061 0
M  V30 9235 C 866.833 2.73794 0.439531 0
M  V30 9236 H 869.784 1.57151 -0.22118 0
M  V30 9237 H 869.805 3.31488 1.86805 0
M  V30 9238 H 869.317 3.87873 0.132607 0
M  V30 9239 H 867.418 2.86612 2.38085 0
M  V30 9240 H 867.531 4.54298 1.52152 0
M  V30 9241 H 865.895 2.38267 0.900043 0
M  V30 9242 H 866.678 3.40714 -0.420599 0
M  V30 9243 N 869.123 -0.277682 1.55134 0
M  V30 9244 C 870.055 -1.36531 1.84098 0
M  V30 9245 C 871.068 -1.45756 0.725194 0
M  V30 9246 O 872.257 -1.47656 1.00299 0
M  V30 9247 C 869.357 -2.74701 1.98476 0
M  V30 9248 C 868.53 -2.88125 3.29094 0
M  V30 9249 C 867.589 -4.0694 3.33596 0
M  V30 9250 O 866.615 -3.9792 4.06999 0
M  V30 9251 N 867.817 -5.18687 2.60661 0
M  V30 9252 H 870.582 -1.12032 2.77973 0
M  V30 9253 H 868.143 -0.467793 1.54995 0
M  V30 9254 H 870.135 -3.52471 1.98863 0
M  V30 9255 H 868.705 -2.92043 1.11488 0
M  V30 9256 H 867.925 -1.97277 3.41285 0
M  V30 9257 H 869.213 -2.94021 4.15246 0
M  V30 9258 H 868.611 -5.28901 2.00699 0
M  V30 9259 H 867.168 -5.94705 2.66776 0
M  V30 9260 N 870.601 -1.47988 -0.541979 0
M  V30 9261 C 872.012 -1.49073 -1.12402 0
M  V30 9262 C 872.363 -0.253825 -1.94551 0
M  V30 9263 O 871.488 0.640056 -2.06718 0
M  V30 9264 C 872.083 -2.7011 -2.04514 0
M  V30 9265 C 870.642 -2.74105 -2.5796 0
M  V30 9266 C 869.789 -2.42409 -1.3466 0
M  V30 9267 H 872.74 -1.55277 -0.327818 0
M  V30 9268 H 872.761 -2.47946 -2.88623 0
M  V30 9269 H 872.273 -3.60117 -1.44697 0
M  V30 9270 H 870.374 -1.88276 -3.21532 0
M  V30 9271 H 870.487 -3.75213 -2.97913 0
M  V30 9272 H 868.851 -1.9331 -1.65841 0
M  V30 9273 H 869.634 -3.34642 -0.766133 0
M  V30 9274 N 872.079 0.78992 -1.36375 0
M  V30 9275 C 873.009 1.91683 -1.33341 0
M  V30 9276 C 873.99 1.68861 -0.204965 0
M  V30 9277 O 875.175 1.89982 -0.402531 0
M  V30 9278 C 872.305 3.28696 -1.12143 0
M  V30 9279 C 871.259 3.66041 -2.21806 0
M  V30 9280 C 870.585 5.01399 -1.85751 0
M  V30 9281 C 871.885 3.74677 -3.63888 0
M  V30 9282 H 873.579 1.94478 -2.27637 0
M  V30 9283 H 871.125 0.934271 -1.09578 0
M  V30 9284 H 873.078 4.07151 -1.08656 0
M  V30 9285 H 871.802 3.26287 -0.142974 0
M  V30 9286 H 870.461 2.89883 -2.24418 0
M  V30 9287 H 870.109 4.9551 -0.864817 0
M  V30 9288 H 869.809 5.27355 -2.59173 0
M  V30 9289 H 871.333 5.82274 -1.83819 0
M  V30 9290 H 872.747 4.43324 -3.63506 0
M  V30 9291 H 871.144 4.12118 -4.3621 0
M  V30 9292 H 872.214 2.75795 -3.9883 0
M  V30 9293 N 873.557 1.20646 1.01402 0
M  V30 9294 C 874.968 1.01823 1.56489 0
M  V30 9295 C 875.319 -0.42463 1.9155 0
M  V30 9296 O 874.444 -1.30644 1.72514 0
M  V30 9297 C 875.039 1.84208 2.84347 0
M  V30 9298 C 873.598 1.69743 3.35953 0
M  V30 9299 C 872.745 1.8198 2.09233 0
M  V30 9300 H 875.696 1.348 0.837539 0
M  V30 9301 H 875.717 1.34698 3.55861 0
M  V30 9302 H 875.229 2.89215 2.58798 0
M  V30 9303 H 873.33 0.673833 3.66456 0
M  V30 9304 H 873.443 2.51173 4.07981 0
M  V30 9305 H 871.807 1.25193 2.21808 0
M  V30 9306 H 872.59 2.88477 1.86107 0
M  V30 9307 N 875.035 -1.20752 1.01276 0
M  V30 9308 C 876.284 -1.8934 0.695229 0
M  V30 9309 C 876.597 -1.79459 -0.77806 0
M  V30 9310 O 877.803 -2.43146 -1.20799 0
M  V30 9311 C 876.259 -3.39548 1.1931 0
M  V30 9312 C 875.867 -3.58023 2.69302 0
M  V30 9313 C 877.611 -4.13714 0.950823 0
M  V30 9314 C 875.518 -5.02037 3.1259 0
M  V30 9315 H 874.448 -0.709084 0.25635 0
M  V30 9316 H 877.099 -1.36629 1.22494 0
M  V30 9317 H 875.481 -3.91559 0.591395 0
M  V30 9318 H 876.655 -3.16416 3.34989 0
M  V30 9319 H 874.97 -2.97222 2.9163 0
M  V30 9320 H 877.567 -5.19891 1.24971 0
M  V30 9321 H 877.91 -4.16147 -0.112791 0
M  V30 9322 H 878.443 -3.67792 1.51571 0
M  V30 9323 H 875.182 -5.04757 4.18211 0
M  V30 9324 H 874.702 -5.44469 2.51621 0
M  V30 9325 H 876.381 -5.70594 3.0501 0
M  V30 9326 N 876.513 -0.788492 -1.36457 0
M  V30 9327 C 877.463 -0.159377 -2.27442 0
M  V30 9328 C 878.447 0.656146 -1.46913 0
M  V30 9329 O 879.639 0.516372 -1.693 0
M  V30 9330 C 876.768 0.705703 -3.35968 0
M  V30 9331 C 875.854 -0.11856 -4.23934 0
M  V30 9332 N 876.245 -1.1726 -4.9202 0
M  V30 9333 C 874.543 0.102752 -4.45882 0
M  V30 9334 C 875.244 -1.6743 -5.57083 0
M  V30 9335 N 874.22 -0.983682 -5.34626 0
M  V30 9336 H 878.022 -0.96614 -2.77566 0
M  V30 9337 H 875.536 -0.627864 -1.49772 0
M  V30 9338 H 877.533 1.17231 -4.00078 0
M  V30 9339 H 876.193 1.51102 -2.87399 0
M  V30 9340 H 877.204 -1.55502 -4.94004 0
M  V30 9341 H 873.881 0.878651 -4.08149 0
M  V30 9342 H 875.271 -2.55423 -6.21457 0
M  V30 9343 N 877.991 1.48044 -0.54043 0
M  V30 9344 C 879.237 2.02797 -0.0101718 0
M  V30 9345 C 879.57 1.41565 1.32939 0
M  V30 9346 O 878.845 0.565139 1.86109 0
M  V30 9347 C 879.128 3.59959 0.100758 0
M  V30 9348 C 878.981 4.31654 -1.26471 0
M  V30 9349 C 880.3 4.32347 0.822455 0
M  V30 9350 H 877.419 0.736982 -0.00517052 0
M  V30 9351 H 880.061 1.76656 -0.69948 0
M  V30 9352 H 878.211 3.82363 0.687824 0
M  V30 9353 H 879.883 4.20639 -1.89369 0
M  V30 9354 H 878.126 3.92663 -1.84386 0
M  V30 9355 H 878.797 5.401 -1.13998 0
M  V30 9356 H 881.273 4.14835 0.324164 0
M  V30 9357 H 880.149 5.41978 0.868993 0
M  V30 9358 H 880.41 4.00369 1.87501 0
M  V30 9359 N 879.47 0.276058 1.55163 0
M  V30 9360 C 880.718 -0.339782 1.99223 0
M  V30 9361 C 881.039 -1.56307 1.16589 0
M  V30 9362 O 880.309 -1.94225 0.25564 0
M  V30 9363 H 878.889 -0.128534 0.735859 0
M  V30 9364 H 881.551 0.381612 1.91128 0
M  V30 9365 H 880.647 -0.629 3.05696 0
M  V30 9366 N 880.948 -1.576 0.00335426 0
M  V30 9367 C 881.858 -2.12067 -1.00322 0
M  V30 9368 C 882.874 -1.06672 -1.37467 0
M  V30 9369 O 884.05 -1.38592 -1.46131 0
M  V30 9370 C 881.115 -2.61593 -2.27531 0
M  V30 9371 C 880.176 -3.81602 -1.96668 0
M  V30 9372 C 879.409 -4.28756 -3.17811 0
M  V30 9373 O 879.632 -3.75222 -4.2961 0
M  V30 9374 O 878.566 -5.20877 -3.01613 0
M  V30 9375 H 882.392 -2.98299 -0.570199 0
M  V30 9376 H 879.977 -1.47835 -0.215682 0
M  V30 9377 H 881.859 -2.93631 -3.02256 0
M  V30 9378 H 880.534 -1.78457 -2.70065 0
M  V30 9379 H 879.441 -3.54531 -1.19408 0
M  V30 9380 H 880.774 -4.65822 -1.58968 0
M  V30 9381 N 882.426 0.269451 -1.5528 0
M  V30 9382 C 883.356 1.33729 -1.91413 0
M  V30 9383 C 884.337 1.51348 -0.776391 0
M  V30 9384 O 885.522 1.64332 -1.03482 0
M  V30 9385 C 882.652 2.69618 -2.18914 0
M  V30 9386 C 881.606 2.66725 -3.34726 0
M  V30 9387 C 880.932 4.06199 -3.47716 0
M  V30 9388 C 882.232 2.25684 -4.71025 0
M  V30 9389 H 883.926 1.03736 -2.80854 0
M  V30 9390 H 881.472 0.497579 -1.3513 0
M  V30 9391 H 883.425 3.44436 -2.42779 0
M  V30 9392 H 882.149 3.01201 -1.26275 0
M  V30 9393 H 880.808 1.94365 -3.10834 0
M  V30 9394 H 880.456 4.3501 -2.52537 0
M  V30 9395 H 880.156 4.05157 -4.25583 0
M  V30 9396 H 881.68 4.8275 -3.73877 0
M  V30 9397 H 883.094 2.90225 -4.94411 0
M  V30 9398 H 881.491 2.35797 -5.51833 0
M  V30 9399 H 882.561 1.20819 -4.69607 0
M  V30 9400 N 883.904 1.48273 0.534124 0
M  V30 9401 C 885.315 1.49667 1.1161 0
M  V30 9402 C 885.666 0.264139 1.94414 0
M  V30 9403 O 884.791 -0.629084 2.07054 0
M  V30 9404 C 885.386 2.71191 2.03079 0
M  V30 9405 C 883.945 2.7547 2.56502 0
M  V30 9406 C 883.092 2.43119 1.33373 0
M  V30 9407 H 886.043 1.55449 0.319578 0
M  V30 9408 H 886.064 2.49473 2.87304 0
M  V30 9409 H 885.576 3.60879 1.42785 0
M  V30 9410 H 883.677 1.89979 3.20529 0
M  V30 9411 H 883.79 3.76787 2.95919 0
M  V30 9412 H 882.154 1.94187 1.64813 0
M  V30 9413 H 882.937 3.35044 0.748375 0
M  V30 9414 N 885.382 -0.782676 1.36792 0
M  V30 9415 C 886.61 -1.57162 1.34565 0
M  V30 9416 C 887.025 -1.88664 -0.0715501 0
M  V30 9417 O 886.382 -1.50633 -1.03033 0
M  V30 9418 C 886.433 -2.88854 2.1736 0
M  V30 9419 O 886.154 -2.58707 3.53557 0
M  V30 9420 C 887.655 -3.83132 2.2299 0
M  V30 9421 H 884.875 -0.487245 0.461338 0
M  V30 9422 H 887.419 -0.970905 1.79982 0
M  V30 9423 H 885.574 -3.45377 1.7548 0
M  V30 9424 H 885.988 -3.42961 3.96835 0
M  V30 9425 H 887.462 -4.72575 2.85266 0
M  V30 9426 H 887.939 -4.21472 1.23524 0
M  V30 9427 H 888.545 -3.32541 2.65135 0
M  V30 9428 N 886.86 -1.21182 -1.00761 0
M  V30 9429 C 888.271 -1.02652 -1.55947 0
M  V30 9430 C 888.622 0.414466 -1.91772 0
M  V30 9431 O 887.747 1.29727 -1.73204 0
M  V30 9432 C 888.342 -1.85713 -2.83366 0
M  V30 9433 C 886.901 -1.71523 -3.35048 0
M  V30 9434 C 886.048 -1.83087 -2.08265 0
M  V30 9435 H 888.999 -1.35242 -0.830379 0
M  V30 9436 H 889.02 -1.36583 -3.55141 0
M  V30 9437 H 888.532 -2.90584 -2.5726 0
M  V30 9438 H 886.633 -0.693257 -3.66094 0
M  V30 9439 H 886.746 -2.53333 -4.06644 0
M  V30 9440 H 885.11 -1.26367 -2.21141 0
M  V30 9441 H 885.893 -2.8946 -1.84575 0
M  V30 9442 N 888.338 1.20213 -1.01915 0
M  V30 9443 C 889.584 1.89928 -0.711007 0
M  V30 9444 C 889.917 1.7881 0.75767 0
M  V30 9445 O 889.192 1.17399 1.55073 0
M  V30 9446 C 889.475 3.41225 -1.15053 0
M  V30 9447 C 889.328 3.61264 -2.67971 0
M  V30 9448 C 890.647 4.34108 -0.72377 0
M  V30 9449 H 887.766 0.689702 -0.259768 0
M  V30 9450 H 890.408 1.41557 -1.26734 0
M  V30 9451 H 888.558 3.82552 -0.677199 0
M  V30 9452 H 890.23 3.29173 -3.23176 0
M  V30 9453 H 888.473 3.04647 -3.08824 0
M  V30 9454 H 889.144 4.67331 -2.93779 0
M  V30 9455 H 891.62 4.00442 -1.13073 0
M  V30 9456 H 890.496 5.38581 -1.05931 0
M  V30 9457 H 890.757 4.40512 0.374424 0
M  V30 9458 N 889.816 0.795718 1.36037 0
M  V30 9459 C 891.056 0.376514 2.00902 0
M  V30 9460 C 891.42 -1.03405 1.61776 0
M  V30 9461 O 892.621 -1.55468 2.19279 0
M  V30 9462 C 890.892 0.542086 3.53265 0
M  V30 9463 S 892.451 0.211694 4.38289 0
M  V30 9464 H 889.269 0.143527 0.696363 0
M  V30 9465 H 891.871 1.03559 1.65819 0
M  V30 9466 H 890.575 1.56888 3.79229 0
M  V30 9467 H 890.106 -0.132698 3.93176 0
M  V30 9468 H 892.121 -0.98452 4.86335 0
M  V30 9469 N 891.294 -1.47756 0.548274 0
M  V30 9470 C 892.241 -2.29893 -0.204408 0
M  V30 9471 C 893.211 -1.38509 -0.916761 0
M  V30 9472 O 894.396 -1.67472 -0.91421 0
M  V30 9473 C 891.536 -3.22282 -1.23403 0
M  V30 9474 C 890.649 -4.28753 -0.528654 0
M  V30 9475 C 889.784 -5.08303 -1.54279 0
M  V30 9476 C 888.823 -6.06557 -0.821893 0
M  V30 9477 N 887.96 -6.79098 -1.78243 0
M  V30 9478 H 892.8 -2.93739 0.502163 0
M  V30 9479 H 890.337 -1.44793 0.259471 0
M  V30 9480 H 892.295 -3.74262 -1.84348 0
M  V30 9481 H 890.925 -2.6032 -1.90875 0
M  V30 9482 H 889.977 -3.79899 0.195132 0
M  V30 9483 H 891.289 -4.98787 0.0365066 0
M  V30 9484 H 890.443 -5.64388 -2.22602 0
M  V30 9485 H 889.182 -4.3815 -2.14186 0
M  V30 9486 H 888.187 -5.49659 -0.12469 0
M  V30 9487 H 889.412 -6.78715 -0.228685 0
M  V30 9488 H 887.358 -6.11682 -2.37025 0
M  V30 9489 H 887.275 -7.4527 -1.26919 0
M  V30 9490 H 888.543 -7.39762 -2.45709 0
M  V30 9491 N 892.772 -0.284283 -1.55015 0
M  V30 9492 C 893.72 0.615091 -2.2432 0
M  V30 9493 C 894.714 1.15051 -1.24337 0
M  V30 9494 O 895.92 1.10308 -1.4224 0
M  V30 9495 H 892.295 0.216927 -0.720033 0
M  V30 9496 H 894.266 0.00783216 -2.98399 0
M  V30 9497 C 893.015 1.78355 -2.98471 0
M  V30 9498 H 892.338 1.38076 -3.752 0
M  V30 9499 H 893.778 2.38927 -3.50271 0
M  V30 9500 C 892.237 2.67757 -2.04469 0
M  V30 9501 O 892.767 3.6838 -1.60185 0
M  V30 9502 N 890.973 2.35125 -1.70776 0
M  V30 9503 H 890.52 1.53346 -2.06985 0
M  V30 9504 H 890.478 2.95212 -1.08153 0
M  V30 9505 N 894.251 1.57596 -0.0117121 0
M  V30 9506 C 895.181 2.12188 0.9746 0
M  V30 9507 C 896.162 1.03379 1.35081 0
M  V30 9508 O 897.347 1.31123 1.4325 0
M  V30 9509 C 894.477 2.63477 2.26268 0
M  V30 9510 C 893.431 3.76917 2.02774 0
M  V30 9511 C 892.757 4.14566 3.37697 0
M  V30 9512 C 894.057 5.03715 1.38089 0
M  V30 9513 H 895.751 2.9485 0.520007 0
M  V30 9514 H 893.297 1.41836 0.248685 0
M  V30 9515 H 895.25 3.00299 2.95633 0
M  V30 9516 H 893.974 1.77953 2.73862 0
M  V30 9517 H 892.633 3.40507 1.35832 0
M  V30 9518 H 892.281 3.26048 3.83016 0
M  V30 9519 H 891.981 4.91 3.22789 0
M  V30 9520 H 893.505 4.53956 4.08358 0
M  V30 9521 H 894.919 5.38233 1.97428 0
M  V30 9522 H 893.316 5.85032 1.33634 0
M  V30 9523 H 894.386 4.83624 0.351575 0
M  V30 9524 N 895.729 -0.261212 1.5542 0
M  V30 9525 C 897.006 -1.01321 1.67312 0
M  V30 9526 C 897.386 -2.0388 0.547356 0
M  V30 9527 O 896.734 -2.24003 -0.451083 0
M  V30 9528 C 896.944 -1.65943 3.07024 0
M  V30 9529 C 898.292 -2.16666 3.65159 0
M  V30 9530 O 899.316 -1.75909 3.09733 0
M  V30 9531 O 898.175 -2.91455 4.62294 0
M  V30 9532 H 895.269 -0.470714 0.679968 0
M  V30 9533 H 897.815 -0.256133 1.67756 0
M  V30 9534 H 896.587 -0.916868 3.80407 0
M  V30 9535 H 896.21 -2.48308 3.1053 0
M  V30 9536 N 897.207 -1.48554 -0.526253 0
M  V30 9537 C 898.435 -1.60429 -1.30652 0
M  V30 9538 C 898.85 -0.265963 -1.86917 0
M  V30 9539 O 898.207 0.745262 -1.6659 0
M  V30 9540 C 898.258 -2.65377 -2.45473 0
M  V30 9541 O 897.979 -3.94017 -1.91527 0
M  V30 9542 C 899.48 -2.87726 -3.37237 0
M  V30 9543 H 896.7 -0.540817 -0.397187 0
M  V30 9544 H 899.244 -1.94409 -0.634461 0
M  V30 9545 H 897.399 -2.34246 -3.08557 0
M  V30 9546 H 897.813 -4.51623 -2.66715 0
M  V30 9547 H 899.287 -3.64951 -4.14144 0
M  V30 9548 H 899.764 -1.96688 -3.92696 0
M  V30 9549 H 900.37 -3.20176 -2.79942 0
M  V30 9550 N 898.685 0.775411 -1.37205 0
M  V30 9551 C 899.615 1.90258 -1.35367 0
M  V30 9552 C 900.596 1.68634 -0.222864 0
M  V30 9553 O 901.781 1.89545 -0.422659 0
M  V30 9554 C 898.911 3.27488 -1.15623 0
M  V30 9555 C 897.865 3.63668 -2.25676 0
M  V30 9556 C 897.191 4.994 -1.91059 0
M  V30 9557 C 898.491 3.70797 -3.67841 0
M  V30 9558 H 900.185 1.92053 -2.29687 0
M  V30 9559 H 897.731 0.922597 -1.10563 0
M  V30 9560 H 899.684 4.05976 -1.12968 0
M  V30 9561 H 898.408 3.26117 -0.177573 0
M  V30 9562 H 897.067 2.87486 -2.2748 0
M  V30 9563 H 896.715 4.94565 -0.917324 0
M  V30 9564 H 896.415 5.24576 -2.64751 0
M  V30 9565 H 897.939 5.80291 -1.89985 0
M  V30 9566 H 899.353 4.39444 -3.68187 0
M  V30 9567 H 897.75 4.07468 -4.40556 0
M  V30 9568 H 898.82 2.71549 -4.01732 0
M  V30 9569 N 900.163 1.21714 1.00117 0
M  V30 9570 C 901.409 1.04829 1.74306 0
M  V30 9571 C 901.764 -0.413387 1.87907 0
M  V30 9572 O 901.057 -1.30258 1.40512 0
M  V30 9573 C 901.251 1.68345 3.15269 0
M  V30 9574 C 901.08 3.20537 3.15414 0
M  V30 9575 C 899.85 3.896 3.21776 0
M  V30 9576 C 902.048 4.17576 3.00224 0
M  V30 9577 N 900.03 5.28949 3.11587 0
M  V30 9578 C 901.401 5.43701 2.97974 0
M  V30 9579 C 903.456 4.08575 2.84554 0
M  V30 9580 C 902.159 6.61861 2.8166 0
M  V30 9581 C 904.185 5.26375 2.69598 0
M  V30 9582 C 903.547 6.51414 2.68028 0
M  V30 9583 H 899.646 0.437964 0.647852 0
M  V30 9584 H 902.23 1.54128 1.18965 0
M  V30 9585 H 900.401 1.21607 3.68872 0
M  V30 9586 H 902.133 1.44629 3.77974 0
M  V30 9587 H 898.888 3.40548 3.29126 0
M  V30 9588 H 899.312 6.01945 3.09825 0
M  V30 9589 H 903.954 3.12696 2.84571 0
M  V30 9590 H 901.672 7.57896 2.8039 0
M  V30 9591 H 905.258 5.21235 2.58468 0
M  V30 9592 H 904.138 7.41033 2.56593 0
M  V30 9593 N 901.641 -1.19671 1.02551 0
M  V30 9594 C 902.588 -2.22773 0.603394 0
M  V30 9595 C 903.558 -1.61669 -0.381081 0
M  V30 9596 O 904.743 -1.88756 -0.278505 0
M  V30 9597 C 901.883 -3.45073 -0.0431034 0
M  V30 9598 C 900.996 -4.20574 0.987006 0
M  V30 9599 C 900.131 -5.30291 0.310626 0
M  V30 9600 C 899.17 -5.97545 1.32688 0
M  V30 9601 N 898.307 -6.98833 0.676542 0
M  V30 9602 H 903.147 -2.58238 1.48719 0
M  V30 9603 H 900.684 -1.26881 0.744286 0
M  V30 9604 H 902.642 -4.14925 -0.435141 0
M  V30 9605 H 901.272 -3.10274 -0.890495 0
M  V30 9606 H 900.324 -3.497 1.49713 0
M  V30 9607 H 901.636 -4.66736 1.75952 0
M  V30 9608 H 900.79 -6.06547 -0.136438 0
M  V30 9609 H 899.529 -4.8519 -0.49412 0
M  V30 9610 H 898.534 -5.20043 1.78424 0
M  V30 9611 H 899.759 -6.4473 2.13306 0
M  V30 9612 H 897.705 -6.55911 -0.108172 0
M  V30 9613 H 897.622 -7.43168 1.38699 0
M  V30 9614 H 898.89 -7.79088 0.253367 0
M  V30 9615 N 903.119 -0.802921 -1.35613 0
M  V30 9616 C 904.049 -0.225131 -2.32412 0
M  V30 9617 C 905.03 0.647383 -1.57299 0
M  V30 9618 O 906.215 0.578414 -1.85386 0
M  V30 9619 C 903.345 0.630085 -3.41537 0
M  V30 9620 C 902.299 -0.143635 -4.27759 0
M  V30 9621 C 901.625 0.833046 -5.28171 0
M  V30 9622 C 902.925 -1.34054 -5.04804 0
M  V30 9623 H 904.619 -1.03385 -2.80984 0
M  V30 9624 H 902.165 -0.498593 -1.35093 0
M  V30 9625 H 904.118 1.04433 -4.08254 0
M  V30 9626 H 902.842 1.47165 -2.91565 0
M  V30 9627 H 901.501 -0.539015 -3.62616 0
M  V30 9628 H 901.149 1.67001 -4.74468 0
M  V30 9629 H 900.849 0.319697 -5.8673 0
M  V30 9630 H 902.373 1.24558 -5.97761 0
M  V30 9631 H 903.787 -1.00136 -5.64487 0
M  V30 9632 H 902.184 -1.78812 -5.72841 0
M  V30 9633 H 903.254 -2.12906 -4.35659 0
M  V30 9634 N 904.597 1.47463 -0.556102 0
M  V30 9635 C 905.545 2.31692 0.205299 0
M  V30 9636 C 906.539 1.42857 0.910394 0
M  V30 9637 O 907.745 1.59628 0.831806 0
M  V30 9638 H 904.12 0.747172 0.0850775 0
M  V30 9639 H 906.091 2.93758 -0.524305 0
M  V30 9640 C 904.84 3.25487 1.22283 0
M  V30 9641 H 904.163 3.93806 0.689697 0
M  V30 9642 H 905.603 3.87257 1.7265 0
M  V30 9643 C 904.062 2.48931 2.27013 0
M  V30 9644 O 904.592 2.23296 3.33919 0
M  V30 9645 N 902.798 2.0996 2.00911 0
M  V30 9646 H 902.345 2.31008 1.13986 0
M  V30 9647 H 902.303 1.59053 2.712 0
M  V30 9648 N 906.075 0.2925 1.54862 0
M  V30 9649 C 907.038 -0.574423 2.21885 0
M  V30 9650 C 908.038 -1.06791 1.20218 0
M  V30 9651 O 909.228 -0.9653 1.45009 0
M  V30 9652 C 906.36 -1.79438 2.89853 0
M  V30 9653 H 907.553 0.0110319 2.99898 0
M  V30 9654 H 905.106 0.043256 1.5624 0
M  V30 9655 H 905.841 -2.4199 2.15897 0
M  V30 9656 H 905.626 -1.44827 3.64373 0
M  V30 9657 H 907.116 -2.41048 3.41007 0
M  V30 9658 N 907.553 -1.57587 0.0200696 0
M  V30 9659 C 908.781 -1.95718 -0.670964 0
M  V30 9660 C 909.196 -0.896081 -1.6618 0
M  V30 9661 O 908.553 0.123037 -1.82085 0
M  V30 9662 C 908.604 -3.33904 -1.38529 0
M  V30 9663 O 908.325 -4.35943 -0.434167 0
M  V30 9664 C 909.826 -3.86614 -2.16898 0
M  V30 9665 H 907.046 -0.644819 -0.185606 0
M  V30 9666 H 909.59 -2.04354 0.0771495 0
M  V30 9667 H 907.745 -3.26515 -2.08487 0
M  V30 9668 H 908.159 -5.16001 -0.940378 0
M  V30 9669 H 909.633 -4.85673 -2.62346 0
M  V30 9670 H 910.11 -3.20379 -3.00423 0
M  V30 9671 H 910.716 -3.97243 -1.51916 0
M  V30 9672 N 909.032 0.252966 -1.55557 0
M  V30 9673 C 909.965 1.33928 -1.84766 0
M  V30 9674 C 910.943 1.46653 -0.702254 0
M  V30 9675 O 912.127 1.62963 -0.947375 0
M  V30 9676 C 909.254 2.71348 -2.02701 0
M  V30 9677 C 908.3 2.75804 -3.25322 0
M  V30 9678 S 909.133 2.33025 -4.82141 0
M  V30 9679 C 910.289 3.72382 -5.03073 0
M  V30 9680 H 910.522 1.08951 -2.76617 0
M  V30 9681 H 908.055 0.45364 -1.47585 0
M  V30 9682 H 910.013 3.50478 -2.13718 0
M  V30 9683 H 908.674 2.93566 -1.11703 0
M  V30 9684 H 907.867 3.76713 -3.34819 0
M  V30 9685 H 907.469 2.04713 -3.12999 0
M  V30 9686 H 909.761 4.67828 -4.90044 0
M  V30 9687 H 910.704 3.67824 -6.05071 0
M  V30 9688 H 911.112 3.64614 -4.30949 0
M  V30 9689 N 910.51 1.48831 0.518367 0
M  V30 9690 C 911.757 1.57439 1.27355 0
M  V30 9691 C 912.085 0.25338 1.92843 0
M  V30 9692 O 911.34 -0.757323 1.80452 0
M  V30 9693 C 911.639 2.67003 2.3758 0
M  V30 9694 C 911.305 4.09069 1.89667 0
M  V30 9695 C 909.967 4.47733 1.76319 0
M  V30 9696 C 912.319 4.98052 1.53603 0
M  V30 9697 C 909.647 5.73173 1.25258 0
M  V30 9698 C 911.999 6.23992 1.04001 0
M  V30 9699 C 910.663 6.61503 0.892784 0
M  V30 9700 H 909.933 0.57611 0.466023 0
M  V30 9701 H 912.58 1.82595 0.577166 0
M  V30 9702 H 910.885 2.35751 3.12936 0
M  V30 9703 H 912.582 2.70876 2.95681 0
M  V30 9704 H 909.172 3.7854 2.01011 0
M  V30 9705 H 913.356 4.68849 1.62771 0
M  V30 9706 H 908.612 6.0095 1.12557 0
M  V30 9707 H 912.786 6.92331 0.751706 0
M  V30 9708 H 910.413 7.58587 0.494939 0
M  V30 9709 N 911.988 -0.768124 1.37614 0
M  V30 9710 C 913.213 -1.56239 1.36397 0
M  V30 9711 C 913.638 -1.8804 -0.0475839 0
M  V30 9712 O 912.996 -1.495 -1.02564 0
M  V30 9713 C 913.044 -2.84716 2.21289 0
M  V30 9714 O 912.148 -3.79249 1.62001 0
M  V30 9715 H 911.489 -0.473119 0.465891 0
M  V30 9716 H 914.019 -0.950415 1.81186 0
M  V30 9717 H 914.029 -3.33784 2.34632 0
M  V30 9718 H 912.704 -2.60899 3.2389 0
M  V30 9719 H 911.281 -3.37904 1.57719 0
M  V30 9720 N 913.466 -1.22244 -0.994698 0
M  V30 9721 C 914.414 -0.988118 -2.10568 0
M  V30 9722 C 915.408 0.0681541 -1.69263 0
M  V30 9723 O 916.614 -0.0841311 -1.79803 0
M  V30 9724 H 912.989 -0.302343 -0.688544 0
M  V30 9725 H 914.96 -1.93091 -2.27505 0
M  V30 9726 C 913.709 -0.580557 -3.42819 0
M  V30 9727 H 913.032 -1.385 -3.75044 0
M  V30 9728 H 914.472 -0.456004 -4.21541 0
M  V30 9729 C 912.931 0.709692 -3.2934 0
M  V30 9730 O 913.461 1.76259 -3.60965 0
M  V30 9731 N 911.667 0.680155 -2.82528 0
M  V30 9732 H 911.214 -0.176977 -2.56991 0
M  V30 9733 H 911.172 1.54372 -2.73892 0
M  V30 9734 N 914.944 1.19125 -1.03184 0
M  V30 9735 C 916.169 1.93379 -0.749628 0
M  V30 9736 C 916.594 1.75153 0.685785 0
M  V30 9737 O 915.952 1.05579 1.47386 0
M  V30 9738 C 916 3.43101 -1.1097 0
M  V30 9739 O 915.104 4.11758 -0.230053 0
M  V30 9740 H 914.445 0.603605 -0.276689 0
M  V30 9741 H 916.975 1.51116 -1.37931 0
M  V30 9742 H 916.985 3.93778 -1.06785 0
M  V30 9743 H 915.66 3.55688 -2.15544 0
M  V30 9744 H 914.237 3.7143 -0.330748 0
M  V30 9745 N 916.422 0.810101 1.35185 0
M  V30 9746 C 917.65 0.404696 2.02903 0
M  V30 9747 C 918.065 -0.985434 1.61042 0
M  V30 9748 O 917.422 -1.63557 0.809658 0
M  V30 9749 C 917.473 0.482493 3.58266 0
M  V30 9750 O 917.194 1.81782 3.98606 0
M  V30 9751 C 918.695 0.070345 4.43244 0
M  V30 9752 H 915.915 0.163972 0.650657 0
M  V30 9753 H 918.459 1.0947 1.72733 0
M  V30 9754 H 916.614 -0.159296 3.87072 0
M  V30 9755 H 917.028 1.78306 4.93262 0
M  V30 9756 H 918.502 0.175888 5.5172 0
M  V30 9757 H 918.979 -0.984724 4.28018 0
M  V30 9758 H 919.585 0.685427 4.1974 0
M  V30 9759 N 917.9 -1.47166 0.563914 0
M  V30 9760 C 918.848 -2.31798 -0.193009 0
M  V30 9761 C 919.842 -1.43338 -0.902805 0
M  V30 9762 O 921.048 -1.60067 -0.823328 0
M  V30 9763 H 917.423 -0.747613 -0.0811139 0
M  V30 9764 H 919.394 -2.93476 0.539876 0
M  V30 9765 C 918.143 -3.26131 -1.20555 0
M  V30 9766 H 917.466 -3.94166 -0.668803 0
M  V30 9767 H 918.906 -3.88167 -1.70593 0
M  V30 9768 C 917.365 -2.50132 -2.25689 0
M  V30 9769 O 917.895 -2.25064 -3.3273 0
M  V30 9770 N 916.101 -2.11022 -1.99795 0
M  V30 9771 H 915.648 -2.3161 -1.1276 0
M  V30 9772 H 915.606 -1.60489 -2.70353 0
M  V30 9773 N 919.378 -0.300708 -1.54705 0
M  V30 9774 C 920.655 0.361757 -1.92226 0
M  V30 9775 C 921.035 1.71714 -1.2279 0
M  V30 9776 O 920.383 2.2559 -0.363542 0
M  V30 9777 C 920.593 0.476699 -3.45729 0
M  V30 9778 C 921.941 0.7477 -4.17965 0
M  V30 9779 O 922.965 0.560521 -3.51762 0
M  V30 9780 O 921.824 1.10724 -5.35166 0
M  V30 9781 H 918.918 0.202213 -0.801897 0
M  V30 9782 H 921.464 -0.348746 -1.66078 0
M  V30 9783 H 920.236 -0.476132 -3.88392 0
M  V30 9784 H 919.859 1.23568 -3.77911 0
M  V30 9785 N 920.856 1.57574 -0.0284266 0
M  V30 9786 C 922.105 1.9095 0.649704 0
M  V30 9787 C 922.418 0.906421 1.7333 0
M  V30 9788 O 923.624 1.1314 2.46803 0
M  V30 9789 C 922.08 3.39061 1.20687 0
M  V30 9790 C 921.688 4.47726 0.156597 0
M  V30 9791 C 923.432 3.81505 1.86156 0
M  V30 9792 C 921.339 5.86935 0.725365 0
M  V30 9793 H 920.269 0.712589 0.24644 0
M  V30 9794 H 922.92 1.83261 -0.0936143 0
M  V30 9795 H 921.302 3.41679 2.00178 0
M  V30 9796 H 922.476 4.56667 -0.6158 0
M  V30 9797 H 920.791 4.14481 -0.399288 0
M  V30 9798 H 923.388 4.82865 2.29665 0
M  V30 9799 H 923.731 3.16529 2.70398 0
M  V30 9800 H 924.264 3.81307 1.13356 0
M  V30 9801 H 921.003 6.55453 -0.0789081 0
M  V30 9802 H 920.523 5.81602 1.46627 0
M  V30 9803 H 922.202 6.35483 1.21532 0
M  V30 9804 N 922.334 -0.244713 1.55689 0
M  V30 9805 C 923.264 -1.30667 1.93516 0
M  V30 9806 C 924.245 -1.50094 0.800371 0
M  V30 9807 O 925.43 -1.62665 1.06083 0
M  V30 9808 C 922.56 -2.66101 2.23176 0
M  V30 9809 C 921.514 -2.61366 3.38927 0
M  V30 9810 C 920.84 -4.00616 3.54134 0
M  V30 9811 C 922.14 -2.18161 4.74555 0
M  V30 9812 H 923.834 -0.992546 2.82469 0
M  V30 9813 H 921.38 -0.476018 1.35905 0
M  V30 9814 H 923.333 -3.4053 2.48228 0
M  V30 9815 H 922.057 -2.99154 1.31051 0
M  V30 9816 H 920.716 -1.89395 3.13887 0
M  V30 9817 H 920.364 -4.30938 2.59426 0
M  V30 9818 H 920.064 -3.98335 4.31975 0
M  V30 9819 H 921.588 -4.76741 3.8151 0
M  V30 9820 H 923.002 -2.82323 4.98965 0
M  V30 9821 H 921.399 -2.26988 5.55515 0
M  V30 9822 H 922.469 -1.13333 4.7147 0
M  V30 9823 N 923.813 -1.49104 -0.510467 0
M  V30 9824 C 925.062 -1.57362 -1.26175 0
M  V30 9825 C 925.375 -0.261218 -1.93848 0
M  V30 9826 O 926.581 -0.222238 -2.70589 0
M  V30 9827 C 925.037 -2.77606 -2.29048 0
M  V30 9828 C 924.645 -4.15567 -1.67357 0
M  V30 9829 C 926.389 -2.95188 -3.05064 0
M  V30 9830 C 924.296 -5.27046 -2.68285 0
M  V30 9831 H 923.226 -0.585887 -0.474608 0
M  V30 9832 H 925.877 -1.75474 -0.536753 0
M  V30 9833 H 924.259 -2.52968 -3.04669 0
M  V30 9834 H 925.433 -4.50304 -0.977924 0
M  V30 9835 H 923.748 -4.03264 -1.03765 0
M  V30 9836 H 926.345 -3.75643 -3.80521 0
M  V30 9837 H 926.688 -2.05385 -3.62108 0
M  V30 9838 H 927.221 -3.19821 -2.36558 0
M  V30 9839 H 923.96 -6.18878 -2.16034 0
M  V30 9840 H 923.48 -4.96774 -3.36118 0
M  V30 9841 H 925.159 -5.55983 -3.30896 0
M  V30 9842 N 925.291 0.760815 -1.38019 0
M  V30 9843 C 926.224 1.88212 -1.2904 0
M  V30 9844 C 927.202 1.61721 -0.168805 0
M  V30 9845 O 928.386 1.85318 -0.344893 0
M  V30 9846 C 925.513 3.23672 -0.997702 0
M  V30 9847 C 924.559 3.6906 -2.13769 0
M  V30 9848 S 925.392 3.81445 -3.75845 0
M  V30 9849 C 926.548 5.19736 -3.48748 0
M  V30 9850 H 926.781 1.95541 -2.23944 0
M  V30 9851 H 924.314 0.923051 -1.2377 0
M  V30 9852 H 926.272 4.01904 -0.835657 0
M  V30 9853 H 924.933 3.14031 -0.065967 0
M  V30 9854 H 924.126 4.67295 -1.88816 0
M  V30 9855 H 923.728 2.97961 -2.26043 0
M  V30 9856 H 926.02 6.05259 -3.04414 0
M  V30 9857 H 926.963 5.49706 -4.46351 0
M  V30 9858 H 927.371 4.88191 -2.83425 0
M  V30 9859 N 926.769 1.22769 0.988202 0
M  V30 9860 C 927.679 1.01844 2.11341 0
M  V30 9861 C 928.695 -0.0346937 1.73965 0
M  V30 9862 O 929.871 0.159061 2.00771 0
M  V30 9863 C 926.936 0.603837 3.41401 0
M  V30 9864 C 925.997 1.73113 3.92849 0
M  V30 9865 C 925.23 1.33621 5.16702 0
M  V30 9866 O 925.453 0.217041 5.69987 0
M  V30 9867 O 924.387 2.15444 5.62021 0
M  V30 9868 H 928.213 1.96127 2.31879 0
M  V30 9869 H 925.798 1.01405 1.09715 0
M  V30 9870 H 927.68 0.383196 4.19654 0
M  V30 9871 H 926.355 -0.310082 3.22211 0
M  V30 9872 H 925.262 2.00634 3.15748 0
M  V30 9873 H 926.595 2.62308 4.1648 0
M  V30 9874 N 928.247 -1.18576 1.03814 0
M  V30 9875 C 929.177 -2.24334 0.647795 0
M  V30 9876 C 930.158 -1.66508 -0.34774 0
M  V30 9877 O 931.343 -1.92852 -0.228401 0
M  V30 9878 C 928.473 -3.47299 0.00734922 0
M  V30 9879 C 927.427 -4.17859 0.926152 0
M  V30 9880 C 926.753 -5.34489 0.150317 0
M  V30 9881 C 928.053 -4.71632 2.24411 0
M  V30 9882 H 929.747 -2.57241 1.53191 0
M  V30 9883 H 927.293 -1.23649 0.738028 0
M  V30 9884 H 929.246 -4.20486 -0.277434 0
M  V30 9885 H 927.97 -3.13619 -0.911626 0
M  V30 9886 H 926.629 -3.46567 1.19528 0
M  V30 9887 H 926.277 -4.97056 -0.770985 0
M  V30 9888 H 925.977 -5.82633 0.762407 0
M  V30 9889 H 927.501 -6.10467 -0.127508 0
M  V30 9890 H 928.915 -5.36526 2.02021 0
M  V30 9891 H 927.312 -5.303 2.80894 0
M  V30 9892 H 928.382 -3.89192 2.89236 0
M  V30 9893 N 929.725 -0.817259 -1.34754 0
M  V30 9894 C 930.672 -0.233108 -2.2962 0
M  V30 9895 C 931.642 0.638902 -1.53321 0
M  V30 9896 O 932.827 0.581739 -1.81715 0
M  V30 9897 C 929.967 0.603659 -3.39779 0
M  V30 9898 C 929.08 -0.289967 -4.31026 0
M  V30 9899 C 928.215 0.555825 -5.28284 0
M  V30 9900 C 927.254 -0.337539 -6.11169 0
M  V30 9901 N 926.391 0.468847 -7.00533 0
M  V30 9902 H 931.231 -1.04747 -2.78984 0
M  V30 9903 H 928.768 -0.528056 -1.37295 0
M  V30 9904 H 930.726 1.10407 -4.02326 0
M  V30 9905 H 929.356 1.38319 -2.91664 0
M  V30 9906 H 928.408 -0.908552 -3.69391 0
M  V30 9907 H 929.72 -0.977136 -4.89135 0
M  V30 9908 H 928.874 1.12094 -5.96255 0
M  V30 9909 H 927.613 1.27652 -4.70698 0
M  V30 9910 H 926.618 -0.914839 -5.42135 0
M  V30 9911 H 927.843 -1.05626 -6.70835 0
M  V30 9912 H 925.789 1.17332 -6.45422 0
M  V30 9913 H 925.706 -0.160052 -7.55831 0
M  V30 9914 H 926.974 1.01689 -7.72839 0
M  V30 9915 N 931.203 1.46865 -0.571711 0
M  V30 9916 C 932.151 2.31897 0.180714 0
M  V30 9917 C 933.145 1.43815 0.895191 0
M  V30 9918 O 934.351 1.60501 0.814828 0
M  V30 9919 H 930.726 0.748032 0.077148 0
M  V30 9920 H 932.697 2.93185 -0.555432 0
M  V30 9921 C 931.446 3.26766 1.18824 0
M  V30 9922 H 930.769 3.94515 0.64789 0
M  V30 9923 H 932.209 3.89067 1.68532 0
M  V30 9924 C 930.668 2.51325 2.2436 0
M  V30 9925 O 931.198 2.26825 3.31532 0
M  V30 9926 N 929.404 2.12079 1.98673 0
M  V30 9927 H 928.951 2.32204 1.1153 0
M  V30 9928 H 928.909 1.61921 2.69498 0
M  V30 9929 N 932.681 0.308908 1.54543 0
M  V30 9930 C 933.644 -0.550857 2.22482 0
M  V30 9931 C 934.644 -1.0551 1.21344 0
M  V30 9932 O 935.834 -0.949866 1.46025 0
M  V30 9933 C 932.966 -1.76354 2.9174 0
M  V30 9934 H 934.159 0.0428395 2.99869 0
M  V30 9935 H 931.712 0.059825 1.56185 0
M  V30 9936 H 932.447 -2.39686 2.18451 0
M  V30 9937 H 932.232 -1.40954 3.65889 0
M  V30 9938 H 933.722 -2.37417 3.43545 0
M  V30 9939 N 934.159 -1.57557 0.0367827 0
M  V30 9940 C 935.384 -1.96828 -0.653707 0
M  V30 9941 C 935.809 -0.913559 -1.64425 0
M  V30 9942 O 935.167 0.124749 -1.8087 0
M  V30 9943 C 935.215 -3.35189 -1.32969 0
M  V30 9944 O 934.319 -3.32095 -2.44513 0
M  V30 9945 H 933.66 -0.64157 -0.171124 0
M  V30 9946 H 936.19 -2.04351 0.100912 0
M  V30 9947 H 936.2 -3.71593 -1.68472 0
M  V30 9948 H 934.875 -4.11496 -0.603654 0
M  V30 9949 H 933.452 -3.07418 -2.11065 0
M  V30 9950 N 935.637 0.236453 -1.55816 0
M  V30 9951 C 936.567 1.29639 -1.94206 0
M  V30 9952 C 937.548 1.49667 -0.808319 0
M  V30 9953 O 938.733 1.621 -1.06945 0
M  V30 9954 C 935.863 2.64914 -2.24584 0
M  V30 9955 C 934.817 2.59565 -3.40308 0
M  V30 9956 C 934.143 3.98732 -3.56254 0
M  V30 9957 C 935.443 2.15642 -4.75706 0
M  V30 9958 H 937.137 0.977552 -2.82992 0
M  V30 9959 H 934.683 0.468804 -1.36155 0
M  V30 9960 H 936.636 3.39209 -2.50031 0
M  V30 9961 H 935.36 2.98455 -1.32636 0
M  V30 9962 H 934.019 1.87728 -3.14887 0
M  V30 9963 H 933.667 4.29556 -2.61707 0
M  V30 9964 H 933.367 3.96039 -4.34082 0
M  V30 9965 H 934.891 4.74711 -3.84033 0
M  V30 9966 H 936.305 2.79673 -5.00456 0
M  V30 9967 H 934.702 2.24039 -5.56711 0
M  V30 9968 H 935.772 1.10831 -4.72064 0
M  V30 9969 N 937.115 1.49373 0.502552 0
M  V30 9970 C 938.047 1.62045 1.62093 0
M  V30 9971 C 939.06 0.503221 1.54827 0
M  V30 9972 O 940.249 0.775208 1.60788 0
M  V30 9973 C 937.349 1.55971 3.00876 0
M  V30 9974 C 936.522 2.832 3.33341 0
M  V30 9975 C 935.581 2.702 4.51529 0
M  V30 9976 O 934.607 3.44132 4.53389 0
M  V30 9977 N 935.809 1.81642 5.5135 0
M  V30 9978 H 938.574 2.58501 1.51649 0
M  V30 9979 H 936.135 1.46442 0.690396 0
M  V30 9980 H 938.127 1.4493 3.77859 0
M  V30 9981 H 936.697 0.673795 3.05252 0
M  V30 9982 H 935.917 3.08604 2.4527 0
M  V30 9983 H 937.205 3.67551 3.51829 0
M  V30 9984 H 936.603 1.20829 5.52645 0
M  V30 9985 H 935.16 1.76524 6.27441 0
M  V30 9986 N 938.594 -0.753485 1.38421 0
M  V30 9987 C 939.871 -1.50318 1.25155 0
M  V30 9988 C 940.251 -2.10588 -0.147003 0
M  V30 9989 O 939.599 -1.97071 -1.15651 0
M  V30 9990 C 939.809 -2.56946 2.36177 0
M  V30 9991 C 941.157 -3.23846 2.74607 0
M  V30 9992 O 942.181 -2.67251 2.3549 0
M  V30 9993 O 941.04 -4.2621 3.42064 0
M  V30 9994 H 938.134 -0.666624 0.48943 0
M  V30 9995 H 940.68 -0.788887 1.50249 0
M  V30 9996 H 939.452 -2.1066 3.29754 0
M  V30 9997 H 939.075 -3.35956 2.12648 0
M  V30 9998 N 940.072 -1.23292 -0.981677 0
M  V30 9999 C 941.004 -0.970782 -2.07626 0
M  V30 10000 C 942.017 0.0547506 -1.62708 0
M  V30 10001 O 943.206 -0.180623 -1.77584 0
M  V30 10002 C 940.306 -0.44055 -3.36024 0
M  V30 10003 C 939.479 -1.52595 -4.09919 0
M  V30 10004 C 938.538 -1.00082 -5.16595 0
M  V30 10005 O 937.564 -1.68951 -5.43548 0
M  V30 10006 N 938.766 0.172017 -5.80245 0
M  V30 10007 H 941.531 -1.91316 -2.30691 0
M  V30 10008 H 939.092 -1.14133 -1.14828 0
M  V30 10009 H 941.084 -0.0743111 -4.04632 0
M  V30 10010 H 939.654 0.407211 -3.09936 0
M  V30 10011 H 938.874 -2.06501 -3.35784 0
M  V30 10012 H 940.162 -2.2559 -4.56055 0
M  V30 10013 H 939.56 0.748129 -5.60731 0
M  V30 10014 H 938.117 0.479532 -6.50034 0
M  V30 10015 N 941.55 1.18024 -1.04442 0
M  V30 10016 C 942.798 1.87727 -0.74854 0
M  V30 10017 C 943.119 1.80975 0.726156 0
M  V30 10018 O 942.389 1.23061 1.52423 0
M  V30 10019 H 940.969 0.694974 -0.273897 0
M  V30 10020 H 943.631 1.43213 -1.32197 0
M  V30 10021 H 942.727 2.93665 -1.05674 0
M  V30 10022 N 943.028 0.824394 1.34319 0
M  V30 10023 C 944.305 0.335692 1.92698 0
M  V30 10024 C 944.685 -1.17715 1.75232 0
M  V30 10025 O 944.033 -1.98493 1.13194 0
M  V30 10026 C 944.243 0.766647 3.40475 0
M  V30 10027 C 945.591 0.766323 4.17627 0
M  V30 10028 O 946.615 0.709321 3.49066 0
M  V30 10029 O 945.474 0.840856 5.39992 0
M  V30 10030 H 942.568 0.0919996 0.821867 0
M  V30 10031 H 945.114 0.909282 1.43283 0
M  V30 10032 H 943.886 1.80859 3.46995 0
M  V30 10033 H 943.509 0.168833 3.97241 0
M  V30 10034 N 944.506 -1.46559 0.579492 0
M  V30 10035 C 945.736 -2.06484 0.0692642 0
M  V30 10036 C 946.144 -1.4293 -1.23967 0
M  V30 10037 O 945.487 -0.527632 -1.75959 0
M  V30 10038 C 945.549 -3.59078 -0.174174 0
M  V30 10039 C 945.213 -4.44805 1.04867 0
M  V30 10040 C 946.21 -4.81543 1.95991 0
M  V30 10041 C 943.895 -4.8599 1.26961 0
M  V30 10042 C 945.889 -5.58288 3.0756 0
M  V30 10043 C 943.576 -5.62495 2.38836 0
M  V30 10044 C 944.574 -5.98558 3.28964 0
M  V30 10045 O 944.262 -6.73518 4.38896 0
M  V30 10046 H 943.994 -0.673917 0.0530331 0
M  V30 10047 H 946.548 -1.89223 0.79898 0
M  V30 10048 H 944.778 -3.74634 -0.958464 0
M  V30 10049 H 946.467 -4.00941 -0.632515 0
M  V30 10050 H 947.233 -4.50307 1.80136 0
M  V30 10051 H 943.112 -4.57372 0.577184 0
M  V30 10052 H 946.656 -5.86355 3.77933 0
M  V30 10053 H 942.553 -5.93145 2.54655 0
M  V30 10054 H 943.321 -6.91938 4.37223 0
M  V30 10055 N 945.984 -0.3171 -1.54377 0
M  V30 10056 C 947.23 0.287836 -2.00747 0
M  V30 10057 C 947.563 1.52292 -1.20502 0
M  V30 10058 O 946.838 1.92391 -0.285626 0
M  V30 10059 C 947.121 0.628423 -3.54574 0
M  V30 10060 C 946.974 -0.616922 -4.45549 0
M  V30 10061 C 948.293 1.44862 -4.15575 0
M  V30 10062 H 945.412 0.103144 -0.729747 0
M  V30 10063 H 948.054 -0.432396 -1.85014 0
M  V30 10064 H 946.204 1.24203 -3.68111 0
M  V30 10065 H 947.876 -1.25526 -4.43893 0
M  V30 10066 H 946.119 -1.24706 -4.15489 0
M  V30 10067 H 946.79 -0.334243 -5.50987 0
M  V30 10068 H 949.266 0.930015 -4.05574 0
M  V30 10069 H 948.142 1.6557 -5.23333 0
M  V30 10070 H 948.403 2.44279 -3.68484 0
M  V30 10071 N 947.462 1.57535 -0.0451378 0
M  V30 10072 C 948.702 1.9432 0.633955 0
M  V30 10073 C 949.066 0.922924 1.68363 0
M  V30 10074 O 950.267 1.17751 2.41636 0
M  V30 10075 C 948.538 3.35933 1.21999 0
M  V30 10076 S 950.097 3.94666 1.91793 0
M  V30 10077 H 946.915 0.679798 0.208318 0
M  V30 10078 H 949.517 1.95175 -0.112633 0
M  V30 10079 H 948.221 4.07993 0.443821 0
M  V30 10080 H 947.752 3.38559 2.00353 0
M  V30 10081 H 949.767 3.79401 3.19796 0
M  V30 10082 N 948.94 -0.228186 1.55939 0
M  V30 10083 C 949.87 -1.28607 1.94891 0
M  V30 10084 C 950.851 -1.49236 0.816245 0
M  V30 10085 O 952.036 -1.61531 1.07803 0
M  V30 10086 C 949.166 -2.63719 2.25986 0
M  V30 10087 C 948.12 -2.57757 3.4168 0
M  V30 10088 C 947.446 -3.96837 3.58364 0
M  V30 10089 C 948.746 -2.13116 4.76843 0
M  V30 10090 H 950.44 -0.962531 2.83506 0
M  V30 10091 H 947.986 -0.461577 1.36402 0
M  V30 10092 H 949.939 -3.37878 2.51826 0
M  V30 10093 H 948.663 -2.97747 1.34217 0
M  V30 10094 H 947.322 -1.86055 3.15878 0
M  V30 10095 H 946.97 -4.28162 2.63982 0
M  V30 10096 H 946.67 -3.93731 4.36176 0
M  V30 10097 H 948.194 -4.72668 3.86545 0
M  V30 10098 H 949.608 -2.77015 5.01932 0
M  V30 10099 H 948.005 -2.21083 5.57891 0
M  V30 10100 H 949.075 -1.08326 4.72645 0
M  V30 10101 N 950.418 -1.49637 -0.494624 0
M  V30 10102 C 951.381 -1.66252 -1.57775 0
M  V30 10103 C 952.381 -0.534054 -1.51672 0
M  V30 10104 O 953.571 -0.800637 -1.54711 0
M  V30 10105 C 950.703 -1.66584 -2.97426 0
M  V30 10106 H 951.896 -2.62864 -1.4437 0
M  V30 10107 H 949.449 -1.38764 -0.719323 0
M  V30 10108 H 950.184 -0.715798 -3.16302 0
M  V30 10109 H 949.969 -2.48543 -3.03264 0
M  V30 10110 H 951.459 -1.81474 -3.76108 0
M  V30 10111 N 951.896 0.746133 -1.38819 0
M  V30 10112 C 952.828 1.86991 -1.3254 0
M  V30 10113 C 953.841 1.61077 -0.236216 0
M  V30 10114 O 955.03 1.71518 -0.494341 0
M  V30 10115 C 952.13 3.22786 -1.03258 0
M  V30 10116 C 951.303 3.76145 -2.23234 0
M  V30 10117 C 950.362 4.90474 -1.90581 0
M  V30 10118 O 949.388 5.04717 -2.63153 0
M  V30 10119 N 950.59 5.74015 -0.86525 0
M  V30 10120 H 953.355 1.92885 -2.2938 0
M  V30 10121 H 950.916 0.926392 -1.32776 0
M  V30 10122 H 952.908 3.96824 -0.794533 0
M  V30 10123 H 951.478 3.12231 -0.151895 0
M  V30 10124 H 950.698 2.93587 -2.63059 0
M  V30 10125 H 951.986 4.08528 -3.03285 0
M  V30 10126 H 951.384 5.65086 -0.263577 0
M  V30 10127 H 949.941 6.48168 -0.687087 0
M  V30 10128 N 953.375 1.23811 0.975125 0
M  V30 10129 C 954.652 0.9815 1.69192 0
M  V30 10130 C 955.032 -0.498373 2.05133 0
M  V30 10131 O 954.38 -1.47087 1.74864 0
M  V30 10132 C 954.59 1.89701 2.92941 0
M  V30 10133 C 955.938 2.16357 3.65342 0
M  V30 10134 O 956.962 1.87293 3.02985 0
M  V30 10135 O 955.821 2.65675 4.77576 0
M  V30 10136 H 952.915 0.370599 0.739314 0
M  V30 10137 H 955.461 1.34876 1.02988 0
M  V30 10138 H 954.233 2.89719 2.63018 0
M  V30 10139 H 953.856 1.53244 3.66881 0
M  V30 10140 N 954.853 -1.17469 1.05066 0
M  V30 10141 C 956.269 -1.39699 0.771769 0
M  V30 10142 C 956.469 -1.91253 -0.634382 0
M  V30 10143 O 955.525 -2.10334 -1.39699 0
M  V30 10144 C 956.838 -2.38886 1.82631 0
M  V30 10145 C 958.386 -2.52595 1.84838 0
M  V30 10146 C 958.861 -3.55054 2.89311 0
M  V30 10147 N 960.352 -3.6257 2.88266 0
M  V30 10148 C 961.087 -4.41603 3.65752 0
M  V30 10149 N 960.583 -5.24162 4.53019 0
M  V30 10150 N 962.376 -4.36464 3.54197 0
M  V30 10151 H 954.527 -0.823355 1.95792 0
M  V30 10152 H 956.79 -0.42432 0.847736 0
M  V30 10153 H 956.496 -2.08075 2.83545 0
M  V30 10154 H 956.37 -3.38371 1.66687 0
M  V30 10155 H 958.757 -2.82717 0.845888 0
M  V30 10156 H 958.838 -1.53188 2.04859 0
M  V30 10157 H 958.482 -3.2567 3.89745 0
M  V30 10158 H 958.412 -4.54162 2.66542 0
M  V30 10159 H 960.903 -3.03625 2.24989 0
M  V30 10160 H 961.216 -5.81646 5.0883 0
M  V30 10161 H 959.561 -5.23547 4.57081 0
M  V30 10162 H 962.752 -3.7102 2.85416 0
M  V30 10163 H 962.925 -4.97814 4.14832 0
M  V30 10164 N 956.331 -0.831506 -1.3388 0
M  V30 10165 C 957.278 -0.257449 -2.2936 0
M  V30 10166 C 958.248 0.622604 -1.5399 0
M  V30 10167 O 959.433 0.562432 -1.82322 0
M  V30 10168 C 956.573 0.567587 -3.404 0
M  V30 10169 C 955.686 -0.335666 -4.30694 0
M  V30 10170 C 954.821 0.499762 -5.28844 0
M  V30 10171 C 953.86 -0.402343 -6.10776 0
M  V30 10172 N 952.997 0.39452 -7.00991 0
M  V30 10173 H 957.837 -1.077 -2.77857 0
M  V30 10174 H 955.374 -0.542589 -1.36727 0
M  V30 10175 H 957.332 1.06133 -4.03474 0
M  V30 10176 H 955.962 1.35217 -2.93115 0
M  V30 10177 H 955.014 -0.94768 -3.68406 0
M  V30 10178 H 956.326 -1.02896 -4.88072 0
M  V30 10179 H 955.48 1.05763 -5.9741 0
M  V30 10180 H 954.219 1.22652 -4.72025 0
M  V30 10181 H 953.224 -0.972288 -5.41135 0
M  V30 10182 H 954.449 -1.12735 -6.69677 0
M  V30 10183 H 952.395 1.1048 -6.4663 0
M  V30 10184 H 952.312 -0.240209 -7.55618 0
M  V30 10185 H 953.58 0.934867 -7.73874 0
M  V30 10186 N 957.809 1.4625 -0.587256 0
M  V30 10187 C 959.037 2.06744 -0.08033 0
M  V30 10188 C 959.452 1.43527 1.2266 0
M  V30 10189 O 958.809 0.542168 1.74261 0
M  V30 10190 C 958.86 3.61394 0.0873469 0
M  V30 10191 O 958.581 4.22247 -1.16785 0
M  V30 10192 C 960.082 4.38828 0.628095 0
M  V30 10193 H 957.302 0.668354 -0.0595301 0
M  V30 10194 H 959.846 1.87808 -0.809217 0
M  V30 10195 H 958.001 3.79742 0.766473 0
M  V30 10196 H 958.415 5.15176 -0.984565 0
M  V30 10197 H 959.889 5.47613 0.694583 0
M  V30 10198 H 960.366 4.07188 1.64606 0
M  V30 10199 H 960.972 4.25297 -0.0163115 0
M  V30 10200 N 959.287 0.325282 1.54207 0
M  V30 10201 C 960.234 -0.539889 2.24397 0
M  V30 10202 C 961.204 -1.11028 1.2354 0
M  V30 10203 O 962.389 -1.1503 1.52226 0
M  V30 10204 C 959.529 -1.69405 3.00659 0
M  V30 10205 C 958.642 -1.15273 4.16337 0
M  V30 10206 C 957.777 -2.27272 4.80126 0
M  V30 10207 C 956.816 -1.70397 5.87904 0
M  V30 10208 N 955.953 -2.76065 6.45548 0
M  V30 10209 H 960.793 0.0652318 2.97929 0
M  V30 10210 H 958.33 0.043964 1.47034 0
M  V30 10211 H 960.288 -2.37325 3.43122 0
M  V30 10212 H 958.918 -2.27043 2.29458 0
M  V30 10213 H 957.97 -0.365034 3.78645 0
M  V30 10214 H 959.282 -0.696576 4.93912 0
M  V30 10215 H 958.436 -3.03092 5.25566 0
M  V30 10216 H 957.175 -2.76224 4.01935 0
M  V30 10217 H 956.18 -0.930752 5.41864 0
M  V30 10218 H 957.405 -1.22319 6.67993 0
M  V30 10219 H 955.351 -3.24306 5.7023 0
M  V30 10220 H 955.268 -2.35018 7.18542 0
M  V30 10221 H 956.536 -3.5171 6.95644 0
M  V30 10222 N 960.765 -1.57509 0.0534917 0
M  V30 10223 C 961.712 -2.11667 -0.920101 0
M  V30 10224 C 962.682 -1.0246 -1.30733 0
M  V30 10225 O 963.867 -1.30021 -1.39639 0
M  V30 10226 C 961.007 -2.66803 -2.18883 0
M  V30 10227 C 960.12 -3.90104 -1.85588 0
M  V30 10228 C 959.255 -4.33547 -3.06937 0
M  V30 10229 C 958.294 -5.49542 -2.69573 0
M  V30 10230 N 957.431 -5.88029 -3.83623 0
M  V30 10231 H 962.271 -2.94562 -0.451371 0
M  V30 10232 H 959.808 -1.45576 -0.211168 0
M  V30 10233 H 961.766 -2.96871 -2.93127 0
M  V30 10234 H 960.396 -1.86702 -2.63329 0
M  V30 10235 H 959.448 -3.66613 -1.01484 0
M  V30 10236 H 960.76 -4.74404 -1.54087 0
M  V30 10237 H 959.914 -4.6518 -3.89477 0
M  V30 10238 H 958.653 -3.48064 -3.41618 0
M  V30 10239 H 957.658 -5.17579 -1.8545 0
M  V30 10240 H 958.883 -6.36743 -2.36082 0
M  V30 10241 H 956.829 -5.05498 -4.181 0
M  V30 10242 H 956.746 -6.67025 -3.55828 0
M  V30 10243 H 958.014 -6.24277 -4.66796 0
M  V30 10244 N 962.243 0.219913 -1.56058 0
M  V30 10245 C 963.659 0.569685 -1.49086 0
M  V30 10246 C 963.859 1.87066 -0.748903 0
M  V30 10247 O 962.915 2.50838 -0.289235 0
M  V30 10248 C 964.228 0.647397 -2.93648 0
M  V30 10249 C 965.776 0.737914 -3.04177 0
M  V30 10250 C 966.251 0.846957 -4.50101 0
M  V30 10251 N 967.742 0.911136 -4.5415 0
M  V30 10252 C 968.477 1.01525 -5.64341 0
M  V30 10253 N 967.973 1.0832 -6.8428 0
M  V30 10254 N 969.766 1.05051 -5.52196 0
M  V30 10255 H 961.917 -0.633778 -2.02724 0
M  V30 10256 H 964.18 -0.222583 -0.921499 0
M  V30 10257 H 963.886 -0.238987 -3.50887 0
M  V30 10258 H 963.76 1.51046 -3.45637 0
M  V30 10259 H 966.147 1.61474 -2.47002 0
M  V30 10260 H 966.228 -0.150845 -2.55355 0
M  V30 10261 H 965.872 -0.0254166 -5.07894 0
M  V30 10262 H 965.802 1.75116 -4.96631 0
M  V30 10263 H 968.293 0.868869 -3.67776 0
M  V30 10264 H 968.606 1.16247 -7.64007 0
M  V30 10265 H 966.951 1.05231 -6.86987 0
M  V30 10266 H 970.142 0.994086 -4.57423 0
M  V30 10267 H 970.315 1.12819 -6.38103 0
M  V30 10268 N 963.721 1.49897 0.486681 0
M  V30 10269 C 964.671 1.6401 1.58381 0
M  V30 10270 C 965.655 0.495215 1.5309 0
M  V30 10271 O 966.847 0.748876 1.60377 0
M  V30 10272 C 963.976 1.72321 2.96918 0
M  V30 10273 C 963.062 2.92435 3.07152 0
M  V30 10274 N 963.453 4.16326 2.87238 0
M  V30 10275 C 961.751 2.90669 3.38271 0
M  V30 10276 C 962.452 4.97144 3.02031 0
M  V30 10277 N 961.428 4.3079 3.31544 0
M  V30 10278 H 965.23 2.57506 1.41661 0
M  V30 10279 H 962.744 1.46867 0.693106 0
M  V30 10280 H 964.741 1.80532 3.75784 0
M  V30 10281 H 963.401 0.799724 3.14697 0
M  V30 10282 H 964.412 4.46076 2.63128 0
M  V30 10283 H 961.089 2.07758 3.62137 0
M  V30 10284 H 962.479 6.05611 2.91006 0
M  V30 10285 N 965.199 -0.738761 1.39212 0
M  V30 10286 C 966.439 -1.51093 1.3766 0
M  V30 10287 C 966.803 -1.91978 -0.0289655 0
M  V30 10288 O 968.004 -2.68265 -0.169465 0
M  V30 10289 C 966.275 -2.71988 2.31856 0
M  V30 10290 S 967.834 -3.61683 2.48458 0
M  V30 10291 H 964.652 -0.516868 0.48823 0
M  V30 10292 H 967.254 -0.865961 1.75275 0
M  V30 10293 H 965.958 -2.40085 3.32847 0
M  V30 10294 H 965.489 -3.41417 1.95443 0
M  V30 10295 H 967.504 -4.65447 1.71969 0
M  V30 10296 N 966.677 -1.24326 -0.968545 0
M  V30 10297 C 967.923 -1.08406 -1.71394 0
M  V30 10298 C 968.256 0.376353 -1.90518 0
M  V30 10299 O 967.531 1.27816 -1.46606 0
M  V30 10300 C 967.814 -1.82344 -3.1052 0
M  V30 10301 C 967.667 -3.3613 -2.98893 0
M  V30 10302 C 968.986 -1.59545 -4.10163 0
M  V30 10303 H 966.105 -0.395205 -0.622079 0
M  V30 10304 H 968.747 -1.52983 -1.12677 0
M  V30 10305 H 966.897 -1.44452 -3.60646 0
M  V30 10306 H 968.569 -3.83614 -2.56199 0
M  V30 10307 H 966.812 -3.64553 -2.35124 0
M  V30 10308 H 967.483 -3.83064 -3.97449 0
M  V30 10309 H 969.959 -1.92504 -3.68892 0
M  V30 10310 H 968.835 -2.13736 -5.05577 0
M  V30 10311 H 969.096 -0.533503 -4.38869 0
M  V30 10312 N 968.156 1.1691 -1.05688 0
M  V30 10313 C 969.402 1.8757 -0.771071 0
M  V30 10314 C 969.735 1.8113 0.700399 0
M  V30 10315 O 969.01 1.22273 1.5126 0
M  V30 10316 C 969.293 3.37392 -1.25851 0
M  V30 10317 C 969.146 3.52556 -2.79329 0
M  V30 10318 C 970.465 4.31585 -0.861512 0
M  V30 10319 H 967.584 0.681089 -0.281579 0
M  V30 10320 H 970.226 1.37453 -1.31174 0
M  V30 10321 H 968.376 3.80204 -0.798563 0
M  V30 10322 H 970.048 3.18725 -3.33485 0
M  V30 10323 H 968.291 2.94668 -3.1836 0
M  V30 10324 H 968.962 4.57748 -3.08498 0
M  V30 10325 H 971.438 3.96642 -1.25756 0
M  V30 10326 H 970.314 5.34939 -1.23012 0
M  V30 10327 H 970.575 4.4148 0.234089 0
M  V30 10328 N 969.634 0.838594 1.33437 0
M  V30 10329 C 971.05 0.526347 1.50671 0
M  V30 10330 C 971.25 -0.946387 1.77893 0
M  V30 10331 O 970.306 -1.7302 1.83903 0
M  V30 10332 C 971.619 1.39945 2.6615 0
M  V30 10333 C 973.167 1.3982 2.80035 0
M  V30 10334 C 973.642 2.25614 3.98576 0
M  V30 10335 N 975.133 2.23322 4.0581 0
M  V30 10336 C 975.868 2.86443 4.96727 0
M  V30 10337 N 975.364 3.58616 5.92762 0
M  V30 10338 N 977.157 2.75915 4.89722 0
M  V30 10339 H 969.308 1.79195 1.1403 0
M  V30 10340 H 971.571 0.764491 0.560586 0
M  V30 10341 H 971.277 2.44599 2.52714 0
M  V30 10342 H 971.151 1.07529 3.61548 0
M  V30 10343 H 973.538 0.35937 2.92904 0
M  V30 10344 H 973.619 1.76241 1.85399 0
M  V30 10345 H 973.263 3.29555 3.86466 0
M  V30 10346 H 973.193 1.86533 4.92456 0
M  V30 10347 H 975.684 1.70836 3.37081 0
M  V30 10348 H 975.997 4.03987 6.58798 0
M  V30 10349 H 974.342 3.62724 5.92838 0
M  V30 10350 H 977.533 2.19094 4.13661 0
M  V30 10351 H 977.706 3.25393 5.60378 0
M  V30 10352 N 971.112 -1.45937 0.595003 0
M  V30 10353 C 972.044 -2.28575 -0.169137 0
M  V30 10354 C 973.057 -1.39226 -0.843792 0
M  V30 10355 O 974.246 -1.63716 -0.711291 0
M  V30 10356 C 971.346 -3.14616 -1.25976 0
M  V30 10357 C 970.519 -4.32166 -0.67466 0
M  V30 10358 C 969.578 -4.99511 -1.65456 0
M  V30 10359 O 968.604 -5.56712 -1.18578 0
M  V30 10360 N 969.806 -4.97643 -2.98885 0
M  V30 10361 H 972.571 -2.94797 0.539908 0
M  V30 10362 H 970.132 -1.55985 0.433614 0
M  V30 10363 H 972.124 -3.56534 -1.91483 0
M  V30 10364 H 970.694 -2.50387 -1.8715 0
M  V30 10365 H 969.914 -3.93882 0.158184 0
M  V30 10366 H 971.202 -5.08116 -0.263753 0
M  V30 10367 H 970.6 -4.52438 -3.39583 0
M  V30 10368 H 969.157 -5.43463 -3.59848 0
M  V30 10369 N 972.59 -0.333456 -1.54032 0
M  V30 10370 C 973.52 0.52051 -2.27625 0
M  V30 10371 C 974.501 1.1111 -1.28797 0
M  V30 10372 O 975.686 1.13438 -1.57625 0
M  V30 10373 C 972.816 1.67663 -3.04149 0
M  V30 10374 C 971.77 1.21487 -4.10396 0
M  V30 10375 C 971.096 2.45872 -4.74817 0
M  V30 10376 C 972.396 0.322603 -5.21303 0
M  V30 10377 H 974.09 -0.0933823 -2.99254 0
M  V30 10378 H 971.636 -0.0463526 -1.43925 0
M  V30 10379 H 973.589 2.28041 -3.54366 0
M  V30 10380 H 972.313 2.31727 -2.30153 0
M  V30 10381 H 970.972 0.633966 -3.61077 0
M  V30 10382 H 970.62 3.0832 -3.97426 0
M  V30 10383 H 970.32 2.15662 -5.46593 0
M  V30 10384 H 971.844 3.06994 -5.27814 0
M  V30 10385 H 973.258 0.832942 -5.67217 0
M  V30 10386 H 971.655 0.112843 -5.99994 0
M  V30 10387 H 972.725 -0.643954 -4.80605 0
M  V30 10388 N 974.068 1.57479 -0.061844 0
M  V30 10389 C 975.296 1.97429 0.618837 0
M  V30 10390 C 975.711 0.939826 1.63746 0
M  V30 10391 O 975.068 -0.0747173 1.82347 0
M  V30 10392 C 975.119 3.3746 1.29628 0
M  V30 10393 O 974.84 4.36941 0.318431 0
M  V30 10394 C 976.341 3.92228 2.06572 0
M  V30 10395 H 973.561 0.649513 0.168444 0
M  V30 10396 H 976.105 2.04078 -0.131303 0
M  V30 10397 H 974.26 3.31928 1.99757 0
M  V30 10398 H 974.674 5.18313 0.803239 0
M  V30 10399 H 976.148 4.92458 2.49377 0
M  V30 10400 H 976.625 3.28231 2.91824 0
M  V30 10401 H 977.231 4.01131 1.4133 0
M  V30 10402 N 975.546 -0.211634 1.56173 0
M  V30 10403 C 976.792 -0.935935 1.79911 0
M  V30 10404 C 977.125 -1.83589 0.633155 0
M  V30 10405 O 976.4 -1.91004 -0.367132 0
M  V30 10406 C 976.683 -1.76638 3.13801 0
M  V30 10407 C 976.536 -0.892259 4.40861 0
M  V30 10408 C 977.855 -2.74224 3.44223 0
M  V30 10409 H 974.974 -0.338822 0.654499 0
M  V30 10410 H 977.616 -0.20422 1.88899 0
M  V30 10411 H 975.766 -2.39021 3.0627 0
M  V30 10412 H 977.438 -0.284407 4.60422 0
M  V30 10413 H 975.681 -0.198145 4.33347 0
M  V30 10414 H 976.352 -1.50793 5.31004 0
M  V30 10415 H 978.828 -2.21975 3.51946 0
M  V30 10416 H 977.704 -3.29424 4.39057 0
M  V30 10417 H 977.965 -3.52455 2.66885 0
M  V30 10418 N 977.024 -1.50153 -0.478725 0
M  V30 10419 C 977.954 -1.71384 -1.58587 0
M  V30 10420 C 978.935 -0.562705 -1.60523 0
M  V30 10421 O 980.12 -0.80101 -1.76911 0
M  V30 10422 C 977.25 -1.80094 -2.96957 0
M  V30 10423 C 976.204 -2.95218 -3.09888 0
M  V30 10424 C 975.53 -2.89063 -4.49829 0
M  V30 10425 C 976.83 -4.35841 -2.8782 0
M  V30 10426 H 978.524 -2.64081 -1.41073 0
M  V30 10427 H 976.07 -1.27081 -0.677239 0
M  V30 10428 H 978.023 -1.93531 -3.74331 0
M  V30 10429 H 976.747 -0.840131 -3.1561 0
M  V30 10430 H 975.406 -2.81419 -2.34944 0
M  V30 10431 H 975.054 -1.90844 -4.6539 0
M  V30 10432 H 974.754 -3.66345 -4.59418 0
M  V30 10433 H 976.278 -3.04539 -5.29234 0
M  V30 10434 H 977.692 -4.50205 -3.54948 0
M  V30 10435 H 976.089 -5.14515 -3.0886 0
M  V30 10436 H 977.159 -4.48739 -1.83742 0
M  V30 10437 N 978.502 0.731368 -1.39602 0
M  V30 10438 C 979.412 1.87579 -1.40894 0
M  V30 10439 C 980.428 1.71336 -0.303319 0
M  V30 10440 O 981.604 1.93875 -0.545377 0
M  V30 10441 C 978.669 3.23211 -1.25442 0
M  V30 10442 C 977.73 3.51822 -2.46008 0
M  V30 10443 C 976.963 4.80982 -2.31284 0
M  V30 10444 O 977.186 5.54958 -1.31824 0
M  V30 10445 O 976.12 5.09574 -3.20341 0
M  V30 10446 H 979.946 1.89444 -2.3737 0
M  V30 10447 H 977.531 0.879675 -1.20756 0
M  V30 10448 H 979.413 4.04257 -1.18972 0
M  V30 10449 H 978.088 3.22108 -0.320637 0
M  V30 10450 H 976.995 2.70847 -2.58055 0
M  V30 10451 H 978.328 3.57707 -3.38093 0
M  V30 10452 N 979.98 1.24838 0.961938 0
M  V30 10453 C 981.396 1.01502 1.23165 0
M  V30 10454 C 981.596 -0.272651 1.99647 0
M  V30 10455 O 980.652 -0.987297 2.32398 0
M  V30 10456 C 981.965 2.23366 2.01316 0
M  V30 10457 C 983.513 2.28051 2.14387 0
M  V30 10458 C 983.988 3.49552 2.95935 0
M  V30 10459 N 985.479 3.49904 3.03515 0
M  V30 10460 C 986.214 4.40577 3.66987 0
M  V30 10461 N 985.71 5.41512 4.3213 0
M  V30 10462 N 987.503 4.28275 3.64056 0
M  V30 10463 H 979.654 2.07576 0.450086 0
M  V30 10464 H 981.917 0.911205 0.261551 0
M  V30 10465 H 981.623 3.16913 1.5251 0
M  V30 10466 H 981.497 2.25949 3.02038 0
M  V30 10467 H 983.884 1.35032 2.62393 0
M  V30 10468 H 983.965 2.29491 1.12994 0
M  V30 10469 H 983.609 4.42889 2.4862 0
M  V30 10470 H 983.539 3.45357 3.97538 0
M  V30 10471 H 986.03 2.76885 2.57183 0
M  V30 10472 H 986.343 6.06924 4.78396 0
M  V30 10473 H 984.688 5.45393 4.3078 0
M  V30 10474 H 987.879 3.48653 3.12344 0
M  V30 10475 H 988.052 4.99138 4.13237 0
M  V30 10476 N 981.458 -1.16348 1.06306 0
M  V30 10477 C 982.704 -1.87158 0.781007 0
M  V30 10478 C 983.037 -1.81499 -0.690784 0
M  V30 10479 O 982.312 -1.23074 -1.50609 0
M  V30 10480 C 982.595 -3.3672 1.27639 0
M  V30 10481 C 982.448 -3.51069 2.81194 0
M  V30 10482 C 983.767 -4.31122 0.884388 0
M  V30 10483 H 980.886 -0.679586 0.285187 0
M  V30 10484 H 983.528 -1.36756 1.31901 0
M  V30 10485 H 981.678 -3.79775 0.818715 0
M  V30 10486 H 983.35 -3.16952 3.35171 0
M  V30 10487 H 981.593 -2.92976 3.19918 0
M  V30 10488 H 982.264 -4.56105 3.10921 0
M  V30 10489 H 984.74 -3.95969 1.27858 0
M  V30 10490 H 983.616 -5.34279 1.25847 0
M  V30 10491 H 983.877 -4.41598 -0.210673 0
M  V30 10492 N 982.937 -0.845659 -1.3299 0
M  V30 10493 C 983.9 -0.288905 -2.27372 0
M  V30 10494 C 984.9 0.546263 -1.51237 0
M  V30 10495 O 986.09 0.359072 -1.70459 0
M  V30 10496 C 983.222 0.59224 -3.35716 0
M  V30 10497 H 984.415 -1.12181 -2.78128 0
M  V30 10498 H 981.968 -0.619276 -1.43508 0
M  V30 10499 H 982.703 1.44732 -2.90212 0
M  V30 10500 H 982.488 -0.00543255 -3.921 0
M  V30 10501 H 983.978 0.974848 -4.06062 0
M  V30 10502 N 984.415 1.45619 -0.602734 0
M  V30 10503 C 985.826 1.85814 -0.181636 0
M  V30 10504 C 986.177 1.5037 1.26029 0
M  V30 10505 O 985.302 0.928068 1.95489 0
M  V30 10506 C 985.897 3.37258 -0.322866 0
M  V30 10507 C 984.456 3.76375 0.043504 0
M  V30 10508 C 983.603 2.69585 -0.649561 0
M  V30 10509 H 986.554 1.36489 -0.809721 0
M  V30 10510 H 986.575 3.77874 0.446279 0
M  V30 10511 H 986.087 3.63024 -1.37241 0
M  V30 10512 H 984.188 3.56226 1.09241 0
M  V30 10513 H 984.301 4.77843 -0.346765 0
M  V30 10514 H 982.665 2.54549 -0.087706 0
M  V30 10515 H 983.448 2.98188 -1.70115 0
M  V30 10516 N 985.893 0.34162 1.53853 0
M  V30 10517 C 987.121 -0.256929 2.05299 0
M  V30 10518 C 987.536 -1.44366 1.21671 0
M  V30 10519 O 986.893 -1.80758 0.251584 0
M  V30 10520 C 986.944 -0.673854 3.55164 0
M  V30 10521 O 986.665 0.465687 4.35618 0
M  V30 10522 C 988.166 -1.33332 4.22773 0
M  V30 10523 H 985.386 -0.0499445 0.669139 0
M  V30 10524 H 987.93 0.493048 1.98467 0
M  V30 10525 H 986.085 -1.37378 3.62224 0
M  V30 10526 H 986.499 0.133723 5.2433 0
M  V30 10527 H 987.973 -1.57582 5.29029 0
M  V30 10528 H 988.45 -2.28628 3.75001 0
M  V30 10529 H 989.056 -0.675489 4.19901 0
M  V30 10530 N 987.371 -1.57444 0.0701946 0
M  V30 10531 C 988.62 -1.92605 -0.598849 0
M  V30 10532 C 988.933 -0.952058 -1.70866 0
M  V30 10533 O 990.139 -1.19643 -2.43716 0
M  V30 10534 C 988.595 -3.42142 -1.11655 0
M  V30 10535 C 988.203 -4.47984 -0.0378355 0
M  V30 10536 C 989.947 -3.86307 -1.75975 0
M  V30 10537 C 987.854 -5.88652 -0.569495 0
M  V30 10538 H 986.784 -0.718873 -0.22746 0
M  V30 10539 H 989.435 -1.82948 0.14217 0
M  V30 10540 H 987.817 -3.46866 -1.91049 0
M  V30 10541 H 988.991 -4.54874 0.736661 0
M  V30 10542 H 987.306 -4.13277 0.50904 0
M  V30 10543 H 989.903 -4.88784 -2.16782 0
M  V30 10544 H 990.246 -3.23587 -2.61911 0
M  V30 10545 H 990.779 -3.84179 -1.03206 0
M  V30 10546 H 987.518 -6.55013 0.252662 0
M  V30 10547 H 987.038 -5.85285 -1.31155 0
M  V30 10548 H 988.717 -6.38482 -1.04641 0
M  V30 10549 N 988.849 0.203349 -1.56283 0
M  V30 10550 C 990.077 0.941426 -1.84241 0
M  V30 10551 C 990.492 1.77197 -0.651658 0
M  V30 10552 O 989.849 1.78506 0.379713 0
M  V30 10553 C 989.9 1.84429 -3.10915 0
M  V30 10554 O 989.621 1.04729 -4.25398 0
M  V30 10555 C 991.122 2.69474 -3.51993 0
M  V30 10556 H 988.342 0.27507 -0.612027 0
M  V30 10557 H 990.886 0.213088 -2.03387 0
M  V30 10558 H 989.041 2.52635 -2.93691 0
M  V30 10559 H 989.455 1.66179 -4.97478 0
M  V30 10560 H 990.929 3.28495 -4.43616 0
M  V30 10561 H 991.406 3.42775 -2.74594 0
M  V30 10562 H 992.012 2.06652 -3.71719 0
M  V30 10563 N 990.327 1.50405 0.470755 0
M  V30 10564 C 991.575 1.61092 1.2204 0
M  V30 10565 C 991.896 0.313487 1.92464 0
M  V30 10566 O 991.166 -0.669043 1.84121 0
M  V30 10567 H 989.746 0.593618 0.45346 0
M  V30 10568 H 992.408 1.87184 0.542985 0
M  V30 10569 H 991.504 2.42222 1.96812 0
M  V30 10570 N 991.805 -0.723954 1.39988 0
M  V30 10571 C 992.753 -1.85938 1.39749 0
M  V30 10572 C 993.747 -1.67085 0.279112 0
M  V30 10573 O 994.953 -1.74291 0.44972 0
M  V30 10574 H 991.328 -0.612246 0.436644 0
M  V30 10575 H 993.299 -1.83255 2.355 0
M  V30 10576 C 992.048 -3.23726 1.26874 0
M  V30 10577 H 991.371 -3.38835 2.12206 0
M  V30 10578 H 992.811 -4.03332 1.30765 0
M  V30 10579 C 991.27 -3.36893 -0.0218317 0
M  V30 10580 O 991.8 -3.89363 -0.987905 0
M  V30 10581 N 990.006 -2.90465 -0.0885618 0
M  V30 10582 H 989.553 -2.47954 0.698314 0
M  V30 10583 H 989.511 -2.99654 -0.951557 0
M  V30 10584 N 993.283 -1.25346 -0.955304 0
M  V30 10585 C 994.213 -1.08152 -2.06943 0
M  V30 10586 C 995.194 0.00922598 -1.70097 0
M  V30 10587 O 996.379 -0.160181 -1.93538 0
M  V30 10588 C 993.509 -0.698745 -3.40198 0
M  V30 10589 C 992.463 -1.73965 -3.9105 0
M  V30 10590 C 991.789 -1.21158 -5.20792 0
M  V30 10591 C 993.089 -3.13829 -4.17503 0
M  V30 10592 H 994.783 -2.01345 -2.21586 0
M  V30 10593 H 992.329 -0.969459 -1.06478 0
M  V30 10594 H 994.282 -0.565394 -4.1759 0
M  V30 10595 H 993.006 0.268892 -3.25491 0
M  V30 10596 H 991.665 -1.86143 -3.15827 0
M  V30 10597 H 991.313 -0.234193 -5.02455 0
M  V30 10598 H 991.013 -1.90728 -5.55785 0
M  V30 10599 H 992.537 -1.09061 -6.00781 0
M  V30 10600 H 993.951 -3.04809 -4.85556 0
M  V30 10601 H 992.348 -3.80863 -4.63749 0
M  V30 10602 H 993.418 -3.6094 -3.23806 0
M  V30 10603 N 994.761 1.15782 -1.06922 0
M  V30 10604 C 995.671 2.24008 -0.696948 0
M  V30 10605 C 996.687 1.71569 0.289862 0
M  V30 10606 O 997.863 2.00929 0.137585 0
M  V30 10607 C 994.928 3.46568 -0.0957895 0
M  V30 10608 C 993.989 4.14017 -1.13528 0
M  V30 10609 C 993.222 5.30725 -0.562713 0
M  V30 10610 O 993.445 5.66992 0.62259 0
M  V30 10611 O 992.379 5.87572 -1.30549 0
M  V30 10612 H 996.205 2.58174 -1.59938 0
M  V30 10613 H 993.79 1.2342 -0.841889 0
M  V30 10614 H 995.672 4.20731 0.237407 0
M  V30 10615 H 994.347 3.14161 0.780027 0
M  V30 10616 H 993.254 3.41795 -1.52076 0
M  V30 10617 H 994.587 4.50493 -1.98285 0
M  V30 10618 N 996.239 0.8527 1.3254 0
M  V30 10619 C 997.187 0.284659 2.30852 0
M  V30 10620 C 998.181 -0.5909 1.5876 0
M  V30 10621 O 999.387 -0.478922 1.73512 0
M  V30 10622 H 995.762 0.0733452 0.748415 0
M  V30 10623 H 997.733 1.1281 2.76254 0
M  V30 10624 C 996.482 -0.51379 3.43883 0
M  V30 10625 H 995.805 0.150644 3.99516 0
M  V30 10626 H 997.245 -0.876866 4.14834 0
M  V30 10627 C 995.704 -1.69823 2.90967 0
M  V30 10628 O 996.234 -2.79727 2.88298 0
M  V30 10629 N 994.44 -1.52465 2.47392 0
M  V30 10630 H 993.987 -0.630599 2.49762 0
M  V30 10631 H 993.945 -2.31859 2.12341 0
M  V30 10632 N 997.718 -1.45297 0.610449 0
M  V30 10633 C 998.65 -2.28742 -0.144884 0
M  V30 10634 C 999.663 -1.40114 -0.828977 0
M  V30 10635 O 1000.85 -1.64461 -0.693887 0
M  V30 10636 C 997.952 -3.15934 -1.22632 0
M  V30 10637 C 997.125 -4.32857 -0.628785 0
M  V30 10638 C 996.184 -5.01237 -1.60148 0
M  V30 10639 O 995.21 -5.57938 -1.12667 0
M  V30 10640 N 996.412 -5.00785 -2.9359 0
M  V30 10641 H 999.177 -2.94207 0.571145 0
M  V30 10642 H 996.738 -1.55517 0.450134 0
M  V30 10643 H 998.73 -3.58545 -1.87691 0
M  V30 10644 H 997.3 -2.52358 -1.84483 0
M  V30 10645 H 996.52 -3.93693 0.199951 0
M  V30 10646 H 997.808 -5.08367 -0.209845 0
M  V30 10647 H 997.206 -4.56014 -3.34765 0
M  V30 10648 H 995.763 -5.4725 -3.54064 0
M  V30 10649 N 999.196 -0.349774 -1.5367 0
M  V30 10650 C 1000.42 0.246038 -2.05432 0
M  V30 10651 C 1000.84 1.43719 -1.22435 0
M  V30 10652 O 1000.2 1.80622 -0.261166 0
M  V30 10653 C 1000.25 0.65501 -3.55516 0
M  V30 10654 O 999.968 -0.488782 -4.35365 0
M  V30 10655 C 1001.47 1.31088 -4.23475 0
M  V30 10656 H 998.689 0.0463952 -0.669394 0
M  V30 10657 H 1001.23 -0.503566 -1.98203 0
M  V30 10658 H 999.388 1.35455 -3.62947 0
M  V30 10659 H 999.802 -0.161528 -5.24251 0
M  V30 10660 H 1001.28 1.54774 -5.29857 0
M  V30 10661 H 1001.75 2.26636 -3.76208 0
M  V30 10662 H 1002.36 0.653211 -4.20254 0
M  V30 10663 N 1000.67 1.57404 -0.0785433 0
M  V30 10664 C 1001.9 1.98074 0.597862 0
M  V30 10665 C 1002.32 0.95714 1.6274 0
M  V30 10666 O 1001.67 -0.0553728 1.82416 0
M  V30 10667 C 1001.72 3.38815 1.26041 0
M  V30 10668 O 1001.45 4.37254 0.27207 0
M  V30 10669 C 1002.95 3.94397 2.024 0
M  V30 10670 H 1000.17 0.651263 0.161546 0
M  V30 10671 H 1002.71 2.03927 -0.152941 0
M  V30 10672 H 1000.87 3.34028 1.96225 0
M  V30 10673 H 1001.28 5.19136 0.74822 0
M  V30 10674 H 1002.75 4.95075 2.4414 0
M  V30 10675 H 1003.23 3.31308 2.88326 0
M  V30 10676 H 1003.84 4.02607 1.37068 0
M  V30 10677 N 1002.15 -0.195058 1.56388 0
M  V30 10678 C 1003.38 -0.935745 1.85091 0
M  V30 10679 C 1003.8 -1.76061 0.662118 0
M  V30 10680 O 1003.16 -1.77076 -0.389083 0
M  V30 10681 C 1003.21 -1.80764 3.1202 0
M  V30 10682 O 1002.31 -2.90643 2.92575 0
M  V30 10683 H 1001.65 -0.26351 0.609474 0
M  V30 10684 H 1004.18 -0.200362 2.03617 0
M  V30 10685 H 1004.19 -2.21229 3.42815 0
M  V30 10686 H 1002.87 -1.20157 3.98165 0
M  V30 10687 H 1001.44 -2.53934 2.73079 0
M  V30 10688 N 1003.63 -1.50653 -0.462772 0
M  V30 10689 C 1004.88 -1.61296 -1.21105 0
M  V30 10690 C 1005.19 -0.322757 -1.92919 0
M  V30 10691 O 1006.4 -0.308211 -2.69745 0
M  V30 10692 C 1004.85 -2.84752 -2.201 0
M  V30 10693 C 1004.46 -4.20681 -1.54051 0
M  V30 10694 C 1006.21 -3.04744 -2.95518 0
M  V30 10695 C 1004.11 -5.35314 -2.51381 0
M  V30 10696 H 1003.04 -0.60069 -0.455728 0
M  V30 10697 H 1005.69 -1.77093 -0.480656 0
M  V30 10698 H 1004.08 -2.62532 -2.96467 0
M  V30 10699 H 1005.25 -4.53187 -0.834168 0
M  V30 10700 H 1003.56 -4.06361 -0.908828 0
M  V30 10701 H 1006.16 -3.87559 -3.68378 0
M  V30 10702 H 1006.5 -2.16802 -3.55391 0
M  V30 10703 H 1007.04 -3.27185 -2.26263 0
M  V30 10704 H 1003.78 -6.25437 -1.96235 0
M  V30 10705 H 1003.3 -5.07216 -3.20144 0
M  V30 10706 H 1004.98 -5.66229 -3.1304 0
M  V30 10707 N 1005.11 0.71652 -1.4037 0
M  V30 10708 C 1006.36 1.47347 -1.38324 0
M  V30 10709 C 1006.68 1.94995 0.0139949 0
M  V30 10710 O 1005.95 1.7028 0.968585 0
M  V30 10711 H 1004.53 0.546662 -0.509087 0
M  V30 10712 H 1007.19 0.849455 -1.75415 0
M  V30 10713 H 1006.29 2.34675 -2.05752 0
M  V30 10714 N 1006.59 1.25851 0.948643 0
M  V30 10715 C 1007.5 1.08516 2.07994 0
M  V30 10716 C 1008.51 0.0206696 1.73988 0
M  V30 10717 O 1009.69 0.222854 2.00163 0
M  V30 10718 C 1006.75 0.712145 3.39307 0
M  V30 10719 C 1005.81 1.85523 3.87143 0
M  V30 10720 C 1005.05 1.49992 5.1219 0
M  V30 10721 O 1005.27 0.398268 5.69008 0
M  V30 10722 O 1004.2 2.33215 5.54882 0
M  V30 10723 H 1008.03 2.03405 2.25522 0
M  V30 10724 H 1005.62 1.04844 1.06433 0
M  V30 10725 H 1007.5 0.516512 4.18223 0
M  V30 10726 H 1006.17 -0.207416 3.23035 0
M  V30 10727 H 1005.08 2.10578 3.09205 0
M  V30 10728 H 1006.41 2.75425 4.07924 0
M  V30 10729 N 1008.06 -1.15214 1.07534 0
M  V30 10730 C 1009.29 -1.90463 0.820883 0
M  V30 10731 C 1009.71 -1.77578 -0.620305 0
M  V30 10732 O 1009.07 -1.10976 -1.43366 0
M  V30 10733 C 1009.12 -3.38746 1.23627 0
M  V30 10734 O 1008.22 -4.1062 0.382715 0
M  V30 10735 H 1007.57 -0.59292 0.298901 0
M  V30 10736 H 1010.1 -1.45893 1.43445 0
M  V30 10737 H 1010.11 -3.89543 1.21327 0
M  V30 10738 H 1008.78 -3.47443 2.28596 0
M  V30 10739 H 1007.36 -3.69947 0.468374 0
M  V30 10740 N 1009.54 -0.859717 -1.32086 0
M  V30 10741 C 1010.79 -0.461779 -1.96343 0
M  V30 10742 C 1011.1 0.988837 -1.68764 0
M  V30 10743 O 1012.31 1.49244 -2.268 0
M  V30 10744 C 1010.77 -0.77484 -3.5146 0
M  V30 10745 C 1010.37 -2.24153 -3.87891 0
M  V30 10746 C 1012.12 -0.444873 -4.22162 0
M  V30 10747 C 1010.03 -2.49754 -5.36075 0
M  V30 10748 H 1008.96 -0.168951 -0.734828 0
M  V30 10749 H 1011.61 -1.0512 -1.50406 0
M  V30 10750 H 1009.99 -0.114792 -3.95834 0
M  V30 10751 H 1011.16 -2.94378 -3.54511 0
M  V30 10752 H 1009.48 -2.53651 -3.30227 0
M  V30 10753 H 1012.07 -0.613508 -5.31169 0
M  V30 10754 H 1012.42 0.61391 -4.11749 0
M  V30 10755 H 1012.95 -1.06103 -3.83389 0
M  V30 10756 H 1009.69 -3.54276 -5.51515 0
M  V30 10757 H 1009.21 -1.84112 -5.70844 0
M  V30 10758 H 1010.89 -2.3396 -6.03218 0
M  V30 10759 N 1011.02 1.44971 -0.618145 0
M  V30 10760 C 1011.93 2.34403 0.0960457 0
M  V30 10761 C 1012.95 1.51862 0.849355 0
M  V30 10762 O 1014.12 1.84632 0.804557 0
M  V30 10763 C 1011.19 3.29646 1.07397 0
M  V30 10764 C 1010.25 4.28095 0.321466 0
M  V30 10765 C 1009.48 5.18787 1.25281 0
M  V30 10766 O 1009.7 5.1313 2.49106 0
M  V30 10767 O 1008.64 5.97282 0.744156 0
M  V30 10768 H 1012.46 2.96898 -0.639176 0
M  V30 10769 H 1010.05 1.44529 -0.37837 0
M  V30 10770 H 1011.93 3.88307 1.63694 0
M  V30 10771 H 1010.61 2.69702 1.79004 0
M  V30 10772 H 1009.51 3.73019 -0.284223 0
M  V30 10773 H 1010.85 4.90923 -0.354315 0
M  V30 10774 N 1012.5 0.357919 1.53482 0
M  V30 10775 C 1013.74 -0.23451 2.0144 0
M  V30 10776 C 1014.08 -1.49044 1.24497 0
M  V30 10777 O 1013.35 -1.91566 0.336535 0
M  V30 10778 C 1013.64 -0.534193 3.56116 0
M  V30 10779 C 1013.49 0.734834 4.43757 0
M  V30 10780 C 1014.81 -1.33793 4.1927 0
M  V30 10781 H 1011.93 -0.0837595 0.732225 0
M  V30 10782 H 1014.57 0.481297 1.83803 0
M  V30 10783 H 1012.72 -1.144 3.71275 0
M  V30 10784 H 1014.39 1.37251 4.40409 0
M  V30 10785 H 1012.63 1.35678 4.12036 0
M  V30 10786 H 1013.3 0.48021 5.49907 0
M  V30 10787 H 1015.78 -0.822158 4.07897 0
M  V30 10788 H 1014.66 -1.51636 5.27539 0
M  V30 10789 H 1014.92 -2.34423 3.74831 0
M  V30 10790 N 1013.98 -1.5736 0.0868897 0
M  V30 10791 C 1015.2 -1.98809 -0.590757 0
M  V30 10792 C 1015.63 -0.965407 -1.61436 0
M  V30 10793 O 1014.98 0.067143 -1.81176 0
M  V30 10794 C 1015.03 -3.39249 -1.22238 0
M  V30 10795 O 1014.14 -3.39706 -2.33824 0
M  V30 10796 H 1013.48 -0.64669 -0.150626 0
M  V30 10797 H 1016.01 -2.03927 0.165873 0
M  V30 10798 H 1016.02 -3.76765 -1.56564 0
M  V30 10799 H 1014.69 -4.13208 -0.472434 0
M  V30 10800 H 1013.27 -3.13977 -2.01178 0
M  V30 10801 N 1015.45 0.186762 -1.56489 0
M  V30 10802 C 1016.69 0.912523 -1.829 0
M  V30 10803 C 1017.06 1.80094 -0.665598 0
M  V30 10804 O 1018.26 2.56312 -0.809787 0
M  V30 10805 C 1016.53 1.70022 -3.14368 0
M  V30 10806 S 1018.09 2.47686 -3.62211 0
M  V30 10807 H 1014.91 0.305916 -0.641823 0
M  V30 10808 H 1017.51 0.175289 -1.94713 0
M  V30 10809 H 1016.21 1.03832 -3.97048 0
M  V30 10810 H 1015.74 2.47912 -3.05456 0
M  V30 10811 H 1017.76 3.72058 -3.28309 0
M  V30 10812 N 1016.93 1.50896 0.454776 0
M  V30 10813 C 1018.16 1.6648 1.22849 0
M  V30 10814 C 1018.58 0.354841 1.85435 0
M  V30 10815 O 1017.93 -0.664931 1.69956 0
M  V30 10816 C 1017.98 2.76787 2.32532 0
M  V30 10817 O 1017.7 4.02706 1.72509 0
M  V30 10818 C 1019.21 3.03488 3.23125 0
M  V30 10819 H 1016.43 0.559152 0.370932 0
M  V30 10820 H 1018.97 1.97215 0.540983 0
M  V30 10821 H 1017.12 2.48701 2.9703 0
M  V30 10822 H 1017.54 4.63834 2.44863 0
M  V30 10823 H 1019.01 3.84294 3.9626 0
M  V30 10824 H 1019.49 2.152 3.82865 0
M  V30 10825 H 1020.1 3.33167 2.64347 0
M  V30 10826 N 1018.41 -0.709066 1.40748 0
M  V30 10827 C 1019.37 -1.80485 1.41272 0
M  V30 10828 C 1020.37 -1.57872 0.305463 0
M  V30 10829 O 1021.56 -1.64793 0.564691 0
M  V30 10830 C 1018.7 -3.1867 1.21087 0
M  V30 10831 H 1019.89 -1.81417 2.38805 0
M  V30 10832 H 1017.44 -0.915356 1.26692 0
M  V30 10833 H 1018.18 -3.23385 0.243406 0
M  V30 10834 H 1017.96 -3.36484 2.01299 0
M  V30 10835 H 1019.45 -3.98685 1.24257 0
M  V30 10836 N 1019.89 -1.26353 -0.941956 0
M  V30 10837 C 1021.11 -1.14731 -1.72776 0
M  V30 10838 C 1021.54 0.293766 -1.85792 0
M  V30 10839 O 1020.9 1.21284 -1.34759 0
M  V30 10840 C 1020.95 -1.82041 -3.11277 0
M  V30 10841 O 1020.05 -1.10867 -3.97218 0
M  V30 10842 H 1019.39 -0.399823 -0.53013 0
M  V30 10843 H 1021.92 -1.67157 -1.17981 0
M  V30 10844 H 1021.93 -1.88834 -3.61671 0
M  V30 10845 H 1020.61 -2.86879 -3.0112 0
M  V30 10846 H 1019.18 -1.12044 -3.55669 0
M  V30 10847 N 1021.37 1.14642 -1.08144 0
M  V30 10848 C 1022.62 1.8525 -0.807885 0
M  V30 10849 C 1022.94 1.83194 0.668213 0
M  V30 10850 O 1022.21 1.27848 1.48431 0
M  V30 10851 H 1020.79 0.685909 -0.295868 0
M  V30 10852 H 1023.45 1.38935 -1.36686 0
M  V30 10853 H 1022.54 2.90155 -1.14964 0
M  V30 10854 N 1022.85 0.866709 1.31628 0
M  V30 10855 C 1023.79 0.309128 2.30537 0
M  V30 10856 C 1024.79 -0.574028 1.59378 0
M  V30 10857 O 1025.99 -0.460491 1.7401 0
M  V30 10858 H 1022.37 0.081279 0.747595 0
M  V30 10859 H 1024.34 1.15734 2.75042 0
M  V30 10860 C 1023.09 -0.477287 3.44409 0
M  V30 10861 H 1022.41 0.19301 3.99334 0
M  V30 10862 H 1023.85 -0.832818 4.1574 0
M  V30 10863 C 1022.31 -1.66727 2.92752 0
M  V30 10864 O 1022.84 -2.76654 2.91248 0
M  V30 10865 N 1021.05 -1.49833 2.48995 0
M  V30 10866 H 1020.59 -0.604073 2.50417 0
M  V30 10867 H 1020.55 -2.29594 2.14788 0
M  V30 10868 N 1024.32 -1.44642 0.625825 0
M  V30 10869 C 1025.73 -1.85502 0.211175 0
M  V30 10870 C 1026.09 -1.52356 -1.2362 0
M  V30 10871 O 1025.21 -0.959051 -1.93988 0
M  V30 10872 C 1025.81 -3.36702 0.37648 0
M  V30 10873 C 1024.36 -3.76396 0.0163795 0
M  V30 10874 C 1023.51 -2.68517 0.692368 0
M  V30 10875 H 1026.46 -1.35183 0.831333 0
M  V30 10876 H 1026.48 -3.78536 -0.386106 0
M  V30 10877 H 1026 -3.60795 1.42999 0
M  V30 10878 H 1024.1 -3.57919 -1.0356 0
M  V30 10879 H 1024.21 -4.77231 0.422742 0
M  V30 10880 H 1022.57 -2.54377 0.128191 0
M  V30 10881 H 1023.36 -2.95444 1.74837 0
M  V30 10882 N 1025.8 -0.366053 -1.5329 0
M  V30 10883 C 1027.21 0.113056 -1.86357 0
M  V30 10884 C 1027.56 1.48123 -1.28662 0
M  V30 10885 O 1026.69 2.07658 -0.608849 0
M  V30 10886 C 1027.28 0.211923 -3.38137 0
M  V30 10887 C 1025.84 0.635289 -3.71 0
M  V30 10888 C 1024.99 -0.217203 -2.76448 0
M  V30 10889 H 1027.94 -0.584829 -1.47531 0
M  V30 10890 H 1027.96 1.0354 -3.66142 0
M  V30 10891 H 1027.47 -0.783994 -3.80099 0
M  V30 10892 H 1025.57 1.63942 -3.34595 0
M  V30 10893 H 1025.69 0.409571 -4.77346 0
M  V30 10894 H 1024.05 0.313988 -2.52757 0
M  V30 10895 H 1024.83 -1.21067 -3.21244 0
M  V30 10896 N 1027.28 1.57312 -0.0952337 0
M  V30 10897 C 1028.69 1.81589 0.433875 0
M  V30 10898 C 1029.04 1.01086 1.68155 0
M  V30 10899 O 1028.17 0.240272 2.15062 0
M  V30 10900 C 1028.76 3.29366 0.793931 0
M  V30 10901 C 1027.32 3.54407 1.26778 0
M  V30 10902 C 1026.47 2.76035 0.264518 0
M  V30 10903 H 1029.42 1.55426 -0.320675 0
M  V30 10904 H 1029.44 3.42697 1.65345 0
M  V30 10905 H 1028.95 3.87932 -0.114334 0
M  V30 10906 H 1027.05 3.01173 2.19376 0
M  V30 10907 H 1027.17 4.63055 1.22952 0
M  V30 10908 H 1025.53 2.43509 0.746691 0
M  V30 10909 H 1026.31 3.37349 -0.636429 0
M  V30 10910 N 1028.76 -0.17846 1.56586 0
M  V30 10911 C 1029.69 -1.24547 1.92408 0
M  V30 10912 C 1030.7 -1.40849 0.816421 0
M  V30 10913 O 1031.89 -1.40979 1.09486 0
M  V30 10914 C 1028.99 -2.61523 2.15544 0
M  V30 10915 C 1028.16 -2.66613 3.46751 0
M  V30 10916 C 1027.22 -3.84901 3.588 0
M  V30 10917 O 1026.25 -3.71231 4.31482 0
M  V30 10918 N 1027.45 -5.0106 2.9312 0
M  V30 10919 H 1030.22 -0.941275 2.84535 0
M  V30 10920 H 1027.78 -0.368275 1.57656 0
M  V30 10921 H 1029.77 -3.3911 2.20876 0
M  V30 10922 H 1028.34 -2.84362 1.29835 0
M  V30 10923 H 1027.56 -1.75174 3.5314 0
M  V30 10924 H 1028.85 -2.67018 4.33104 0
M  V30 10925 H 1028.25 -5.15067 2.33928 0
M  V30 10926 H 1026.8 -5.76535 3.04057 0
M  V30 10927 N 1030.24 -1.51135 -0.446768 0
M  V30 10928 C 1031.48 -1.62571 -1.19388 0
M  V30 10929 C 1031.8 -0.3432 -1.92566 0
M  V30 10930 O 1033 -0.336804 -2.69403 0
M  V30 10931 C 1031.46 -2.87071 -2.17068 0
M  V30 10932 C 1031.07 -4.22291 -1.49581 0
M  V30 10933 C 1032.81 -3.07862 -2.9227 0
M  V30 10934 C 1030.72 -5.3795 -2.45689 0
M  V30 10935 H 1029.65 -0.60549 -0.449331 0
M  V30 10936 H 1032.3 -1.77593 -0.461846 0
M  V30 10937 H 1030.68 -2.65662 -2.93666 0
M  V30 10938 H 1031.86 -4.54046 -0.786054 0
M  V30 10939 H 1030.17 -4.07302 -0.865677 0
M  V30 10940 H 1032.77 -3.91444 -3.64246 0
M  V30 10941 H 1033.11 -2.20559 -3.53072 0
M  V30 10942 H 1033.64 -3.29566 -2.2278 0
M  V30 10943 H 1030.38 -6.27484 -1.89591 0
M  V30 10944 H 1029.9 -5.10583 -3.14746 0
M  V30 10945 H 1031.58 -5.69517 -3.07017 0
M  V30 10946 N 1031.71 0.701592 -1.41122 0
M  V30 10947 C 1032.65 1.8257 -1.36907 0
M  V30 10948 C 1033.62 1.6086 -0.237245 0
M  V30 10949 O 1034.81 1.83688 -0.423182 0
M  V30 10950 C 1031.94 3.19149 -1.13408 0
M  V30 10951 C 1030.98 3.59661 -2.29229 0
M  V30 10952 S 1031.81 3.65161 -3.91685 0
M  V30 10953 C 1032.97 5.04477 -3.70478 0
M  V30 10954 H 1033.2 1.85867 -2.32036 0
M  V30 10955 H 1030.74 0.869726 -1.27574 0
M  V30 10956 H 1032.69 3.97998 -1.00537 0
M  V30 10957 H 1031.36 3.13468 -0.199099 0
M  V30 10958 H 1030.55 4.58866 -2.08466 0
M  V30 10959 H 1030.15 2.88105 -2.38477 0
M  V30 10960 H 1032.44 5.91803 -3.29811 0
M  V30 10961 H 1033.39 5.3028 -4.69264 0
M  V30 10962 H 1033.79 4.75731 -3.03876 0
M  V30 10963 N 1033.19 1.2685 0.935242 0
M  V30 10964 C 1034.44 1.13921 1.68504 0
M  V30 10965 C 1034.79 -0.313201 1.89834 0
M  V30 10966 O 1034.09 -1.22626 1.47219 0
M  V30 10967 C 1034.28 1.8482 3.05903 0
M  V30 10968 C 1034.11 3.36806 2.9798 0
M  V30 10969 C 1032.88 4.06109 3.00672 0
M  V30 10970 C 1035.08 4.32904 2.77667 0
M  V30 10971 N 1033.06 5.44722 2.83111 0
M  V30 10972 C 1034.43 5.58732 2.68735 0
M  V30 10973 C 1036.48 4.23084 2.62496 0
M  V30 10974 C 1035.19 6.75861 2.4618 0
M  V30 10975 C 1037.21 5.39926 2.41317 0
M  V30 10976 C 1036.58 6.64706 2.33121 0
M  V30 10977 H 1032.67 0.471689 0.623725 0
M  V30 10978 H 1035.26 1.60217 1.10628 0
M  V30 10979 H 1033.43 1.40989 3.61907 0
M  V30 10980 H 1035.16 1.64461 3.69777 0
M  V30 10981 H 1031.92 3.57516 3.10611 0
M  V30 10982 H 1032.34 6.17522 2.77481 0
M  V30 10983 H 1036.98 3.27341 2.67596 0
M  V30 10984 H 1034.7 7.71694 2.39821 0
M  V30 10985 H 1038.29 5.34203 2.30475 0
M  V30 10986 H 1037.17 7.53592 2.16952 0
M  V30 10987 N 1034.67 -1.14067 1.0875 0
M  V30 10988 C 1035.92 -1.85185 0.819317 0
M  V30 10989 C 1036.25 -1.8314 -0.654969 0
M  V30 10990 O 1035.5 -1.25974 -1.49763 0
M  V30 10991 C 1035.8 -3.33273 1.29089 0
M  V30 10992 C 1035.47 -3.55504 2.77359 0
M  V30 10993 C 1034.13 -3.61279 3.17853 0
M  V30 10994 C 1036.48 -3.64041 3.72992 0
M  V30 10995 C 1033.81 -3.73119 4.52768 0
M  V30 10996 C 1036.16 -3.77407 5.07687 0
M  V30 10997 C 1034.82 -3.81433 5.47782 0
M  V30 10998 H 1034.09 -0.67764 0.299809 0
M  V30 10999 H 1036.74 -1.34713 1.36106 0
M  V30 11000 H 1035.05 -3.86049 0.668811 0
M  V30 11001 H 1036.74 -3.86734 1.06009 0
M  V30 11002 H 1033.33 -3.51659 2.45019 0
M  V30 11003 H 1037.52 -3.58866 3.42825 0
M  V30 11004 H 1032.77 -3.74499 4.83281 0
M  V30 11005 H 1036.95 -3.82956 5.81651 0
M  V30 11006 H 1034.57 -3.9036 6.52321 0
M  V30 11007 N 1036.15 -0.873678 -1.31166 0
M  V30 11008 C 1037.1 -0.330288 -2.28424 0
M  V30 11009 C 1038.07 0.573299 -1.55893 0
M  V30 11010 O 1039.25 0.504143 -1.84019 0
M  V30 11011 C 1036.39 0.459004 -3.42034 0
M  V30 11012 C 1035.5 -0.472519 -4.29408 0
M  V30 11013 C 1034.64 0.331261 -5.30166 0
M  V30 11014 C 1033.68 -0.596453 -6.09187 0
M  V30 11015 N 1032.81 0.171305 -7.01891 0
M  V30 11016 H 1037.65 -1.16485 -2.7429 0
M  V30 11017 H 1035.19 -0.585813 -1.34932 0
M  V30 11018 H 1037.15 0.932432 -4.06647 0
M  V30 11019 H 1035.78 1.25824 -2.97268 0
M  V30 11020 H 1034.83 -1.06441 -3.65205 0
M  V30 11021 H 1036.14 -1.18372 -4.84551 0
M  V30 11022 H 1035.3 0.867038 -6.00473 0
M  V30 11023 H 1034.04 1.07573 -4.75688 0
M  V30 11024 H 1033.04 -1.14395 -5.37767 0
M  V30 11025 H 1034.27 -1.33983 -6.65752 0
M  V30 11026 H 1032.21 0.89852 -6.49817 0
M  V30 11027 H 1032.13 -0.480481 -7.54472 0
M  V30 11028 H 1033.4 0.688192 -7.76456 0
M  V30 11029 N 1037.63 1.44308 -0.633487 0
M  V30 11030 C 1038.9 1.95476 -0.0697262 0
M  V30 11031 C 1039.28 1.57539 1.40516 0
M  V30 11032 O 1038.63 0.850632 2.12077 0
M  V30 11033 C 1038.84 3.4775 -0.295093 0
M  V30 11034 C 1040.19 4.24177 -0.189542 0
M  V30 11035 O 1041.21 3.55479 -0.226586 0
M  V30 11036 O 1040.07 5.46415 -0.096479 0
M  V30 11037 H 1037.17 0.826734 0.0209582 0
M  V30 11038 H 1039.71 1.54347 -0.705354 0
M  V30 11039 H 1038.48 3.6842 -1.31841 0
M  V30 11040 H 1038.11 3.95832 0.37456 0
M  V30 11041 N 1039.1 0.374177 1.53094 0
M  V30 11042 C 1040.05 -0.48326 2.27524 0
M  V30 11043 C 1041.05 -1.07606 1.30833 0
M  V30 11044 O 1042.25 -1.01827 1.48429 0
M  V30 11045 H 1038.63 -0.174578 0.731455 0
M  V30 11046 H 1040.6 0.166156 2.97937 0
M  V30 11047 C 1039.35 -1.6065 3.08362 0
M  V30 11048 H 1038.67 -1.15966 3.82612 0
M  V30 11049 H 1040.11 -2.18099 3.63606 0
M  V30 11050 C 1038.57 -2.55381 2.19732 0
M  V30 11051 O 1039.1 -3.58414 1.8139 0
M  V30 11052 N 1037.31 -2.24769 1.84194 0
M  V30 11053 H 1036.85 -1.41018 2.15573 0
M  V30 11054 H 1036.81 -2.88404 1.25181 0
M  V30 11055 N 1040.58 -1.57259 0.103575 0
M  V30 11056 C 1041.49 -2.18018 -0.866327 0
M  V30 11057 C 1042.51 -1.15198 -1.30404 0
M  V30 11058 O 1043.68 -1.47605 -1.37021 0
M  V30 11059 C 1040.75 -2.75533 -2.10434 0
M  V30 11060 C 1039.81 -3.93337 -1.72002 0
M  V30 11061 C 1039.04 -4.481 -2.89901 0
M  V30 11062 O 1039.27 -4.01784 -4.04877 0
M  V30 11063 O 1038.2 -5.39004 -2.67877 0
M  V30 11064 H 1042.03 -3.01322 -0.379338 0
M  V30 11065 H 1039.61 -1.48907 -0.121228 0
M  V30 11066 H 1041.49 -3.12259 -2.8297 0
M  V30 11067 H 1040.17 -1.9527 -2.58169 0
M  V30 11068 H 1039.08 -3.61408 -0.966193 0
M  V30 11069 H 1040.41 -4.74989 -1.29022 0
M  V30 11070 N 1042.06 0.170153 -1.56679 0
M  V30 11071 C 1043.29 0.902134 -1.86197 0
M  V30 11072 C 1043.7 1.75775 -0.689098 0
M  V30 11073 O 1043.06 1.79271 0.341763 0
M  V30 11074 C 1043.11 1.77792 -3.14757 0
M  V30 11075 O 1042.83 0.956817 -4.27524 0
M  V30 11076 C 1044.33 2.61947 -3.57629 0
M  V30 11077 H 1041.55 0.262026 -0.617724 0
M  V30 11078 H 1044.1 0.169899 -2.03793 0
M  V30 11079 H 1042.25 2.46348 -2.98984 0
M  V30 11080 H 1042.67 1.5559 -5.00891 0
M  V30 11081 H 1044.14 3.19011 -4.50484 0
M  V30 11082 H 1044.62 3.36873 -2.81803 0
M  V30 11083 H 1045.22 1.98721 -3.76019 0
M  V30 11084 N 1043.54 1.5137 0.438746 0
M  V30 11085 C 1044.47 1.75528 1.53987 0
M  V30 11086 C 1045.45 0.605067 1.58975 0
M  V30 11087 O 1046.63 0.847634 1.74725 0
M  V30 11088 C 1043.76 1.87904 2.92078 0
M  V30 11089 C 1042.72 3.0333 3.01951 0
M  V30 11090 C 1042.04 3.00888 4.42007 0
M  V30 11091 C 1043.34 4.43319 2.76163 0
M  V30 11092 H 1045.04 2.67728 1.34022 0
M  V30 11093 H 1042.58 1.28831 0.643308 0
M  V30 11094 H 1044.54 2.03388 3.69068 0
M  V30 11095 H 1043.26 0.923514 3.13271 0
M  V30 11096 H 1041.92 2.87549 2.274 0
M  V30 11097 H 1041.57 2.03116 4.60166 0
M  V30 11098 H 1041.27 3.78397 4.49544 0
M  V30 11099 H 1042.79 3.18464 5.20973 0
M  V30 11100 H 1044.21 4.59458 3.42887 0
M  V30 11101 H 1042.6 5.22523 2.9511 0
M  V30 11102 H 1043.67 4.53453 1.71779 0
M  V30 11103 N 1045.02 -0.694098 1.41492 0
M  V30 11104 C 1046.26 -1.4563 1.41137 0
M  V30 11105 C 1046.6 -1.94189 0.0208428 0
M  V30 11106 O 1045.87 -1.69628 -0.951655 0
M  V30 11107 C 1046.15 -2.66714 2.41941 0
M  V30 11108 C 1046.01 -2.23912 3.90107 0
M  V30 11109 C 1047.33 -3.68913 2.39981 0
M  V30 11110 H 1044.44 -0.52821 0.513968 0
M  V30 11111 H 1047.09 -0.790437 1.72778 0
M  V30 11112 H 1045.24 -3.23525 2.1509 0
M  V30 11113 H 1046.91 -1.72417 4.27867 0
M  V30 11114 H 1045.15 -1.5568 4.04903 0
M  V30 11115 H 1045.82 -3.108 4.56188 0
M  V30 11116 H 1048.3 -3.21779 2.63813 0
M  V30 11117 H 1047.17 -4.51242 3.12524 0
M  V30 11118 H 1047.44 -4.18711 1.41892 0
M  V30 11119 N 1046.49 -1.27344 -0.928501 0
M  V30 11120 C 1047.4 -1.11812 -2.06241 0
M  V30 11121 C 1048.42 -0.048347 -1.73933 0
M  V30 11122 O 1049.6 -0.25467 -1.99783 0
M  V30 11123 C 1046.66 -0.766036 -3.38131 0
M  V30 11124 C 1045.72 -1.91659 -3.84142 0
M  V30 11125 C 1044.96 -1.58121 -5.09738 0
M  V30 11126 O 1045.18 -0.488742 -5.68302 0
M  V30 11127 O 1044.11 -2.42013 -5.51102 0
M  V30 11128 H 1047.94 -2.06967 -2.22258 0
M  V30 11129 H 1045.52 -1.06524 -1.04752 0
M  V30 11130 H 1047.41 -0.582982 -4.17348 0
M  V30 11131 H 1046.08 0.155998 -3.23324 0
M  V30 11132 H 1044.99 -2.1547 -3.05816 0
M  V30 11133 H 1046.32 -2.8188 -4.0349 0
M  V30 11134 N 1047.97 1.13488 -1.09353 0
M  V30 11135 C 1049.25 1.80998 -0.741559 0
M  V30 11136 C 1049.63 1.96418 0.773505 0
M  V30 11137 O 1048.98 1.53168 1.69563 0
M  V30 11138 C 1049.19 3.16078 -1.47972 0
M  V30 11139 C 1050.54 3.91438 -1.64504 0
M  V30 11140 O 1051.56 3.25699 -1.44218 0
M  V30 11141 O 1050.42 5.0935 -1.98054 0
M  V30 11142 H 1047.51 0.782953 -0.266297 0
M  V30 11143 H 1050.06 1.20422 -1.19569 0
M  V30 11144 H 1048.83 3.00076 -2.51137 0
M  V30 11145 H 1048.45 3.84354 -1.01772 0
M  V30 11146 N 1049.45 0.880621 1.30701 0
M  V30 11147 C 1050.68 0.510909 2.01009 0
M  V30 11148 C 1051.1 -0.892041 1.65603 0
M  V30 11149 O 1050.46 -1.59045 0.870309 0
M  V30 11150 C 1050.51 0.687759 3.53981 0
M  V30 11151 O 1049.61 -0.268275 4.11526 0
M  V30 11152 H 1048.95 0.201864 0.632572 0
M  V30 11153 H 1051.48 1.18697 1.6665 0
M  V30 11154 H 1051.49 0.585095 4.03783 0
M  V30 11155 H 1050.17 1.71068 3.79089 0
M  V30 11156 H 1048.74 -0.119673 3.72708 0
M  V30 11157 N 1050.93 -1.4397 0.641131 0
M  V30 11158 C 1052.18 -2.01548 0.149333 0
M  V30 11159 C 1052.5 -1.50759 -1.23679 0
M  V30 11160 O 1051.77 -0.715257 -1.82376 0
M  V30 11161 H 1050.35 -0.745173 0.0522161 0
M  V30 11162 H 1053.01 -1.7634 0.830082 0
M  V30 11163 H 1052.11 -3.11851 0.124676 0
M  V30 11164 N 1052.41 -0.382291 -1.52893 0
M  V30 11165 C 1053.66 0.203342 -2.00672 0
M  V30 11166 C 1053.97 1.48487 -1.27322 0
M  V30 11167 O 1055.18 2.15013 -1.65776 0
M  V30 11168 C 1053.63 0.412922 -3.57523 0
M  V30 11169 C 1053.24 -0.854949 -4.39767 0
M  V30 11170 C 1054.98 0.955301 -4.13611 0
M  V30 11171 C 1052.89 -0.614033 -5.88204 0
M  V30 11172 H 1051.82 0.0797635 -0.749769 0
M  V30 11173 H 1054.47 -0.50361 -1.76454 0
M  V30 11174 H 1052.85 1.18155 -3.77962 0
M  V30 11175 H 1054.03 -1.62765 -4.31096 0
M  V30 11176 H 1052.34 -1.32176 -3.94865 0
M  V30 11177 H 1054.94 1.15114 -5.22162 0
M  V30 11178 H 1055.28 1.92233 -3.69259 0
M  V30 11179 H 1055.82 0.24642 -3.97036 0
M  V30 11180 H 1052.55 -1.55187 -6.36865 0
M  V30 11181 H 1052.07 0.119865 -5.9968 0
M  V30 11182 H 1053.75 -0.245895 -6.46533 0
M  V30 11183 N 1053.89 1.57202 -0.111913 0
M  V30 11184 C 1055.13 1.95239 0.548607 0
M  V30 11185 C 1055.46 0.994897 1.6678 0
M  V30 11186 O 1054.74 0.0308603 1.94476 0
M  V30 11187 C 1055.02 3.43271 1.08798 0
M  V30 11188 C 1054.88 4.49792 -0.0273064 0
M  V30 11189 C 1056.19 3.92989 1.98109 0
M  V30 11190 H 1053.31 0.709919 0.197951 0
M  V30 11191 H 1055.96 1.89087 -0.186036 0
M  V30 11192 H 1054.11 3.48644 1.71404 0
M  V30 11193 H 1055.78 4.56521 -0.662302 0
M  V30 11194 H 1054.02 4.28254 -0.691426 0
M  V30 11195 H 1054.69 5.50612 0.391201 0
M  V30 11196 H 1057.17 3.89875 1.45385 0
M  V30 11197 H 1056.04 4.97101 2.32769 0
M  V30 11198 H 1056.3 3.33267 2.90492 0
M  V30 11199 N 1055.36 -0.161842 1.56767 0
M  V30 11200 C 1056.29 -1.20226 2.0017 0
M  V30 11201 C 1057.27 -1.4564 0.878807 0
M  V30 11202 O 1058.46 -1.56813 1.14557 0
M  V30 11203 C 1055.59 -2.53897 2.36968 0
M  V30 11204 C 1054.54 -2.43033 3.52305 0
M  V30 11205 C 1053.87 -3.81281 3.74872 0
M  V30 11206 C 1055.17 -1.927 4.85453 0
M  V30 11207 H 1056.86 -0.84142 2.87333 0
M  V30 11208 H 1054.41 -0.403309 1.38237 0
M  V30 11209 H 1056.36 -3.26893 2.6593 0
M  V30 11210 H 1055.09 -2.91787 1.46724 0
M  V30 11211 H 1053.75 -1.7249 3.23485 0
M  V30 11212 H 1053.39 -4.1658 2.81904 0
M  V30 11213 H 1053.09 -3.74877 4.52483 0
M  V30 11214 H 1054.62 -4.55848 4.06245 0
M  V30 11215 H 1056.03 -2.55477 5.13229 0
M  V30 11216 H 1054.43 -1.97222 5.66766 0
M  V30 11217 H 1055.5 -0.881816 4.76814 0
M  V30 11218 N 1056.84 -1.516 -0.430713 0
M  V30 11219 C 1057.79 -1.73392 -1.52328 0
M  V30 11220 C 1058.76 -0.575758 -1.55802 0
M  V30 11221 O 1059.94 -0.810931 -1.72709 0
M  V30 11222 C 1057.08 -1.87092 -2.89984 0
M  V30 11223 C 1056.2 -3.14668 -2.95987 0
M  V30 11224 C 1055.33 -3.18923 -4.24807 0
M  V30 11225 C 1054.37 -4.40787 -4.24703 0
M  V30 11226 N 1053.51 -4.42556 -5.45059 0
M  V30 11227 H 1058.35 -2.6665 -1.33048 0
M  V30 11228 H 1055.88 -1.32146 -0.646207 0
M  V30 11229 H 1057.84 -1.93017 -3.69865 0
M  V30 11230 H 1056.47 -0.972363 -3.07807 0
M  V30 11231 H 1055.52 -3.1802 -2.08728 0
M  V30 11232 H 1056.84 -4.04562 -2.91772 0
M  V30 11233 H 1055.99 -3.23801 -5.13067 0
M  V30 11234 H 1054.73 -2.2693 -4.31688 0
M  V30 11235 H 1053.73 -4.36079 -3.34836 0
M  V30 11236 H 1054.96 -5.34053 -4.19481 0
M  V30 11237 H 1052.91 -3.53435 -5.52648 0
M  V30 11238 H 1052.82 -5.26267 -5.42751 0
M  V30 11239 H 1054.09 -4.51634 -6.35332 0
M  V30 11240 N 1058.32 0.686584 -1.41858 0
M  V30 11241 C 1059.6 1.44176 -1.32185 0
M  V30 11242 C 1059.98 2.11049 0.046362 0
M  V30 11243 O 1059.32 2.02365 1.06117 0
M  V30 11244 C 1059.53 2.45385 -2.48168 0
M  V30 11245 C 1060.88 3.10375 -2.89746 0
M  V30 11246 O 1061.91 2.55711 -2.47973 0
M  V30 11247 O 1060.77 4.09404 -3.62009 0
M  V30 11248 H 1057.86 0.642513 -0.520678 0
M  V30 11249 H 1060.41 0.716303 -1.53841 0
M  V30 11250 H 1059.18 1.94687 -3.3943 0
M  V30 11251 H 1058.8 3.25428 -2.28435 0
M  V30 11252 N 1059.8 1.27835 0.921735 0
M  V30 11253 C 1061.05 1.14296 1.66676 0
M  V30 11254 C 1061.37 -0.310493 1.92512 0
M  V30 11255 O 1060.64 -1.21637 1.53562 0
M  V30 11256 H 1059.22 0.419994 0.617749 0
M  V30 11257 H 1061.88 1.60449 1.10644 0
M  V30 11258 H 1060.97 1.67654 2.63246 0
M  V30 11259 N 1061.28 -1.12907 1.09954 0
M  V30 11260 C 1062.22 -2.20561 0.73863 0
M  V30 11261 C 1063.22 -1.67347 -0.262944 0
M  V30 11262 O 1064.42 -1.79574 -0.123834 0
M  V30 11263 H 1060.8 -0.718823 0.220901 0
M  V30 11264 H 1062.77 -2.4826 1.65559 0
M  V30 11265 C 1061.52 -3.47227 0.181239 0
M  V30 11266 H 1060.84 -3.88516 0.943144 0
M  V30 11267 H 1062.28 -4.23987 -0.0332888 0
M  V30 11268 C 1060.74 -3.18956 -1.08485 0
M  V30 11269 O 1061.27 -3.38224 -2.1672 0
M  V30 11270 N 1059.48 -2.72797 -1.00151 0
M  V30 11271 H 1059.02 -2.57317 -0.120645 0
M  V30 11272 H 1058.98 -2.54256 -1.84935 0
M  V30 11273 N 1062.75 -0.88754 -1.30232 0
M  V30 11274 C 1064.17 -0.581904 -1.48614 0
M  V30 11275 C 1064.37 0.879711 -1.81282 0
M  V30 11276 O 1063.43 1.66076 -1.90198 0
M  V30 11277 C 1064.74 -1.49726 -2.60773 0
M  V30 11278 C 1066.29 -1.50117 -2.74653 0
M  V30 11279 C 1066.76 -2.40251 -3.89927 0
M  V30 11280 N 1068.25 -2.38229 -3.97242 0
M  V30 11281 C 1068.99 -3.04682 -4.85754 0
M  V30 11282 N 1068.48 -3.80369 -5.79043 0
M  V30 11283 N 1070.28 -2.93901 -4.79144 0
M  V30 11284 H 1062.43 -1.83304 -1.073 0
M  V30 11285 H 1064.69 -0.78477 -0.531826 0
M  V30 11286 H 1064.4 -2.5381 -2.43462 0
M  V30 11287 H 1064.27 -1.20874 -3.57308 0
M  V30 11288 H 1066.66 -0.467832 -2.91368 0
M  V30 11289 H 1066.74 -1.83001 -1.7873 0
M  V30 11290 H 1066.38 -3.43671 -3.73969 0
M  V30 11291 H 1066.31 -2.04682 -4.85194 0
M  V30 11292 H 1068.8 -1.83229 -3.30508 0
M  V30 11293 H 1069.12 -4.28159 -6.4335 0
M  V30 11294 H 1067.46 -3.84477 -5.78967 0
M  V30 11295 H 1070.65 -2.34296 -4.05245 0
M  V30 11296 H 1070.83 -3.45967 -5.47915 0
M  V30 11297 N 1064.23 1.43628 -0.648757 0
M  V30 11298 C 1065.18 2.32529 0.057536 0
M  V30 11299 C 1066.17 1.48358 0.817699 0
M  V30 11300 O 1067.38 1.64595 0.728605 0
M  V30 11301 H 1063.76 0.75107 0.037388 0
M  V30 11302 H 1065.73 2.89829 -0.710062 0
M  V30 11303 C 1064.48 3.32605 1.01336 0
M  V30 11304 H 1063.8 3.97395 0.437855 0
M  V30 11305 H 1065.24 3.97453 1.47672 0
M  V30 11306 C 1063.7 2.62865 2.10722 0
M  V30 11307 O 1064.23 2.4408 3.19042 0
M  V30 11308 N 1062.43 2.22312 1.87152 0
M  V30 11309 H 1061.98 2.3779 0.990644 0
M  V30 11310 H 1061.94 1.75979 2.60536 0
M  V30 11311 N 1065.71 0.390394 1.52688 0
M  V30 11312 C 1066.64 -0.43567 2.294 0
M  V30 11313 C 1067.62 -1.06253 1.32832 0
M  V30 11314 O 1068.81 -1.07509 1.61726 0
M  V30 11315 C 1065.94 -1.56259 3.10162 0
M  V30 11316 C 1064.89 -1.06172 4.14622 0
M  V30 11317 C 1064.22 -2.2808 4.83615 0
M  V30 11318 C 1065.52 -0.128902 5.22141 0
M  V30 11319 H 1067.21 0.204384 2.98702 0
M  V30 11320 H 1064.76 0.0997377 1.43654 0
M  V30 11321 H 1066.71 -2.14732 3.62585 0
M  V30 11322 H 1065.43 -2.23025 2.38595 0
M  V30 11323 H 1064.09 -0.499518 3.63181 0
M  V30 11324 H 1063.74 -2.93358 4.08595 0
M  V30 11325 H 1063.44 -1.95227 5.5422 0
M  V30 11326 H 1064.96 -2.87193 5.38844 0
M  V30 11327 H 1066.38 -0.621849 5.69917 0
M  V30 11328 H 1064.78 0.109919 5.99999 0
M  V30 11329 H 1065.85 0.821884 4.77884 0
M  V30 11330 N 1067.19 -1.57141 0.120249 0
M  V30 11331 C 1068.42 -1.99589 -0.545136 0
M  V30 11332 C 1068.83 -0.999951 -1.60145 0
M  V30 11333 O 1068.19 0.00698897 -1.82499 0
M  V30 11334 C 1068.24 -3.42038 -1.17014 0
M  V30 11335 O 1067.96 -4.37822 -0.156044 0
M  V30 11336 C 1069.46 -3.99625 -1.91872 0
M  V30 11337 H 1066.68 -0.655318 -0.144222 0
M  V30 11338 H 1069.23 -2.0345 0.206955 0
M  V30 11339 H 1067.38 -3.39113 -1.873 0
M  V30 11340 H 1067.79 -5.20937 -0.610317 0
M  V30 11341 H 1069.27 -5.01374 -2.30928 0
M  V30 11342 H 1069.75 -3.38836 -2.7944 0
M  V30 11343 H 1070.35 -4.061 -1.26345 0
M  V30 11344 N 1068.67 0.153526 -1.5685 0
M  V30 11345 C 1069.92 0.865628 -1.82181 0
M  V30 11346 C 1070.23 1.82629 -0.700434 0
M  V30 11347 O 1071.43 2.58206 -0.839155 0
M  V30 11348 C 1069.89 1.58993 -3.22877 0
M  V30 11349 C 1069.5 0.672006 -4.42931 0
M  V30 11350 C 1071.24 2.2892 -3.57486 0
M  V30 11351 C 1069.15 1.39755 -5.7465 0
M  V30 11352 H 1068.08 0.326993 -0.679406 0
M  V30 11353 H 1070.73 0.118403 -1.83118 0
M  V30 11354 H 1069.11 2.38255 -3.16308 0
M  V30 11355 H 1070.29 -0.0849226 -4.60722 0
M  V30 11356 H 1068.6 0.0814825 -4.1632 0
M  V30 11357 H 1071.2 2.8383 -4.5315 0
M  V30 11358 H 1071.54 3.05105 -2.83226 0
M  V30 11359 H 1072.07 1.56583 -3.65686 0
M  V30 11360 H 1068.81 0.677686 -6.51987 0
M  V30 11361 H 1068.33 2.12736 -5.60806 0
M  V30 11362 H 1070.01 1.94024 -6.17223 0
M  V30 11363 N 1070.14 1.51827 0.422667 0
M  V30 11364 C 1071.56 1.40328 0.760275 0
M  V30 11365 C 1071.76 0.497119 1.95272 0
M  V30 11366 O 1070.82 -0.0422083 2.52465 0
M  V30 11367 C 1072.13 2.82622 1.02689 0
M  V30 11368 C 1073.68 2.91874 1.13044 0
M  V30 11369 C 1074.15 4.35107 1.4299 0
M  V30 11370 N 1075.64 4.3828 1.49883 0
M  V30 11371 C 1076.38 5.46153 1.74655 0
M  V30 11372 N 1075.87 6.64165 1.9712 0
M  V30 11373 N 1077.67 5.33651 1.76558 0
M  V30 11374 H 1069.82 2.09285 -0.362455 0
M  V30 11375 H 1072.08 0.94273 -0.0998161 0
M  V30 11376 H 1071.79 3.50991 0.223226 0
M  V30 11377 H 1071.66 3.22844 1.95068 0
M  V30 11378 H 1074.05 2.23694 1.92471 0
M  V30 11379 H 1074.13 2.55128 0.185326 0
M  V30 11380 H 1073.77 5.03841 0.640848 0
M  V30 11381 H 1073.7 4.69377 2.38731 0
M  V30 11382 H 1076.19 3.53206 1.34366 0
M  V30 11383 H 1076.51 7.42165 2.15434 0
M  V30 11384 H 1074.85 6.67255 1.94413 0
M  V30 11385 H 1078.04 4.40436 1.58536 0
M  V30 11386 H 1078.22 6.17798 1.95525 0
M  V30 11387 N 1071.62 -0.679052 1.4222 0
M  V30 11388 C 1073.04 -0.991665 1.25053 0
M  V30 11389 C 1073.24 -2.00928 0.151665 0
M  V30 11390 O 1072.29 -2.47925 -0.478507 0
M  V30 11391 C 1073.61 -1.50053 2.60585 0
M  V30 11392 C 1075.16 -1.61852 2.67905 0
M  V30 11393 C 1075.63 -2.16135 4.03794 0
M  V30 11394 N 1077.12 -2.23474 4.05726 0
M  V30 11395 C 1077.86 -2.66541 5.07685 0
M  V30 11396 N 1077.35 -3.09092 6.20028 0
M  V30 11397 N 1079.15 -2.66252 4.95042 0
M  V30 11398 H 1071.3 -0.00521851 2.12399 0
M  V30 11399 H 1073.56 -0.0648465 0.94578 0
M  V30 11400 H 1073.27 -0.82731 3.41831 0
M  V30 11401 H 1073.14 -2.47998 2.84213 0
M  V30 11402 H 1075.53 -2.28281 1.87008 0
M  V30 11403 H 1075.61 -0.624074 2.4807 0
M  V30 11404 H 1075.25 -1.50316 4.85147 0
M  V30 11405 H 1075.18 -3.16363 4.20978 0
M  V30 11406 H 1077.67 -1.93467 3.24621 0
M  V30 11407 H 1077.99 -3.40627 6.93681 0
M  V30 11408 H 1076.33 -3.06959 6.23539 0
M  V30 11409 H 1079.52 -2.32369 4.06352 0
M  V30 11410 H 1079.69 -2.99496 5.74636 0
M  V30 11411 N 1073.1 -1.28322 -0.914942 0
M  V30 11412 C 1074.35 -1.15578 -1.66642 0
M  V30 11413 C 1074.68 0.295209 -1.91943 0
M  V30 11414 O 1073.95 1.21482 -1.51896 0
M  V30 11415 C 1074.24 -1.9535 -3.02507 0
M  V30 11416 C 1074.09 -3.48504 -2.84367 0
M  V30 11417 C 1075.41 -1.76798 -4.03027 0
M  V30 11418 H 1072.53 -0.421234 -0.604757 0
M  V30 11419 H 1075.17 -1.57625 -1.06087 0
M  V30 11420 H 1073.32 -1.59619 -3.54195 0
M  V30 11421 H 1074.99 -3.94135 -2.39699 0
M  V30 11422 H 1073.24 -3.74198 -2.1945 0
M  V30 11423 H 1073.91 -3.99576 -3.80845 0
M  V30 11424 H 1076.38 -2.07977 -3.60395 0
M  V30 11425 H 1075.26 -2.34987 -4.96057 0
M  V30 11426 H 1075.52 -0.719162 -4.36211 0
M  V30 11427 N 1074.58 1.12322 -1.10551 0
M  V30 11428 C 1075.99 1.35858 -0.837543 0
M  V30 11429 C 1076.19 1.94062 0.54241 0
M  V30 11430 O 1075.25 2.1676 1.29505 0
M  V30 11431 C 1076.56 2.299 -1.9382 0
M  V30 11432 C 1078.11 2.43488 -1.96679 0
M  V30 11433 C 1078.59 3.40846 -3.05922 0
M  V30 11434 N 1080.08 3.48404 -3.05236 0
M  V30 11435 C 1080.81 4.2365 -3.86405 0
M  V30 11436 N 1080.31 5.01951 -4.77512 0
M  V30 11437 N 1082.1 4.19068 -3.74618 0
M  V30 11438 H 1074.25 0.729002 -1.99498 0
M  V30 11439 H 1076.52 0.38339 -0.867016 0
M  V30 11440 H 1076.22 1.94309 -2.9315 0
M  V30 11441 H 1076.1 3.30033 -1.82641 0
M  V30 11442 H 1078.48 2.78359 -0.979813 0
M  V30 11443 H 1078.56 1.43239 -2.11934 0
M  V30 11444 H 1078.21 3.06704 -4.04839 0
M  V30 11445 H 1078.14 4.40927 -2.87907 0
M  V30 11446 H 1080.63 2.92545 -2.39219 0
M  V30 11447 H 1080.94 5.56707 -5.36002 0
M  V30 11448 H 1079.29 5.01143 -4.8154 0
M  V30 11449 H 1082.48 3.5698 -3.02792 0
M  V30 11450 H 1082.65 4.77455 -4.38111 0
M  V30 11451 N 1076.06 0.894434 1.2976 0
M  V30 11452 C 1077 0.366586 2.2787 0
M  V30 11453 C 1077.97 -0.548425 1.56785 0
M  V30 11454 O 1079.16 -0.474804 1.84798 0
M  V30 11455 C 1076.3 -0.404531 3.42721 0
M  V30 11456 C 1075.41 0.540774 4.28602 0
M  V30 11457 C 1074.55 -0.246875 5.30626 0
M  V30 11458 C 1073.59 0.693294 6.08161 0
M  V30 11459 N 1072.72 -0.059619 7.02075 0
M  V30 11460 H 1077.56 1.20834 2.72402 0
M  V30 11461 H 1075.1 0.607205 1.33983 0
M  V30 11462 H 1077.06 -0.86762 4.08079 0
M  V30 11463 H 1075.69 -1.21078 2.99232 0
M  V30 11464 H 1074.74 1.12237 3.63465 0
M  V30 11465 H 1076.05 1.26065 4.82606 0
M  V30 11466 H 1075.21 -0.771398 6.01776 0
M  V30 11467 H 1073.94 -0.999918 4.77339 0
M  V30 11468 H 1072.95 1.22936 5.35879 0
M  V30 11469 H 1074.17 1.44558 6.63536 0
M  V30 11470 H 1072.12 -0.795026 6.51165 0
M  V30 11471 H 1072.04 0.60045 7.53612 0
M  V30 11472 H 1073.31 -0.564577 7.77453 0
M  V30 11473 N 1077.53 -1.43282 0.656365 0
M  V30 11474 C 1078.44 -2.34576 -0.033864 0
M  V30 11475 C 1079.46 -1.5406 -0.808793 0
M  V30 11476 O 1080.64 -1.867 -0.755322 0
M  V30 11477 C 1077.7 -3.32378 -0.986197 0
M  V30 11478 C 1076.76 -4.28797 -0.207851 0
M  V30 11479 C 1076 -5.21927 -1.11482 0
M  V30 11480 O 1076.22 -5.19554 -2.35414 0
M  V30 11481 O 1075.15 -5.99045 -0.585536 0
M  V30 11482 H 1078.98 -2.95099 0.717668 0
M  V30 11483 H 1076.56 -1.43475 0.416556 0
M  V30 11484 H 1078.45 -3.9251 -1.53341 0
M  V30 11485 H 1077.12 -2.74354 -1.7179 0
M  V30 11486 H 1076.03 -3.72134 0.383022 0
M  V30 11487 H 1077.36 -4.89811 0.48435 0
M  V30 11488 N 1079.01 -0.398486 -1.52479 0
M  V30 11489 C 1080.29 0.238776 -1.94137 0
M  V30 11490 C 1080.67 1.63558 -1.33462 0
M  V30 11491 O 1080.02 2.22821 -0.506272 0
M  V30 11492 C 1080.23 0.255863 -3.48061 0
M  V30 11493 C 1081.58 0.480376 -4.21874 0
M  V30 11494 O 1082.6 0.335679 -3.54615 0
M  V30 11495 O 1081.46 0.764654 -5.41124 0
M  V30 11496 H 1078.55 0.150806 -0.813134 0
M  V30 11497 H 1081.1 -0.453659 -1.63524 0
M  V30 11498 H 1079.87 -0.722171 -3.84578 0
M  V30 11499 H 1079.49 0.99284 -3.85004 0
M  V30 11500 N 1080.49 1.57075 -0.12858 0
M  V30 11501 C 1081.4 2.19369 0.831533 0
M  V30 11502 C 1082.42 1.17258 1.28555 0
M  V30 11503 O 1083.59 1.49766 1.34656 0
M  V30 11504 C 1080.66 2.78846 2.06024 0
M  V30 11505 C 1079.72 3.96024 1.65722 0
M  V30 11506 C 1078.95 4.52655 2.82735 0
M  V30 11507 O 1079.18 4.08175 3.98434 0
M  V30 11508 O 1078.11 5.43198 2.59268 0
M  V30 11509 H 1081.94 3.01887 0.331352 0
M  V30 11510 H 1079.52 1.49081 0.0975226 0
M  V30 11511 H 1081.4 3.16721 2.77967 0
M  V30 11512 H 1080.08 1.99353 2.5503 0
M  V30 11513 H 1078.98 3.62899 0.908574 0
M  V30 11514 H 1080.32 4.76981 1.21449 0
M  V30 11515 N 1081.97 -0.145205 1.5693 0
M  V30 11516 C 1083.22 -0.855822 1.83085 0
M  V30 11517 C 1083.54 -1.81625 0.709747 0
M  V30 11518 O 1082.81 -1.94052 -0.268456 0
M  V30 11519 H 1081.39 -0.319032 0.675446 0
M  V30 11520 H 1084.05 -0.138781 1.94405 0
M  V30 11521 H 1083.15 -1.41698 2.78079 0
M  V30 11522 N 1083.45 -1.52049 -0.414609 0
M  V30 11523 C 1084.38 -1.77956 -1.51175 0
M  V30 11524 C 1085.36 -0.630282 -1.57992 0
M  V30 11525 O 1086.54 -0.875324 -1.73354 0
M  V30 11526 C 1083.67 -1.92527 -2.89051 0
M  V30 11527 C 1082.63 -3.08096 -2.97087 0
M  V30 11528 C 1081.95 -3.07882 -4.37164 0
M  V30 11529 C 1083.25 -4.47656 -2.69075 0
M  V30 11530 H 1084.95 -2.69827 -1.29746 0
M  V30 11531 H 1082.49 -1.29839 -0.62273 0
M  V30 11532 H 1084.45 -2.09234 -3.65786 0
M  V30 11533 H 1083.17 -0.973235 -3.11762 0
M  V30 11534 H 1081.83 -2.91131 -2.22797 0
M  V30 11535 H 1081.48 -2.10411 -4.56877 0
M  V30 11536 H 1081.18 -3.85501 -4.43467 0
M  V30 11537 H 1082.7 -3.26712 -5.15841 0
M  V30 11538 H 1084.12 -4.64855 -3.35534 0
M  V30 11539 H 1082.51 -5.27151 -2.8676 0
M  V30 11540 H 1083.58 -4.56129 -1.64544 0
M  V30 11541 N 1084.93 0.6715 -1.42579 0
M  V30 11542 C 1086.16 1.4576 -1.46416 0
M  V30 11543 C 1086.56 1.89051 -0.0749843 0
M  V30 11544 O 1085.91 1.58927 0.921296 0
M  V30 11545 C 1085.97 2.7365 -2.33144 0
M  V30 11546 C 1085.63 2.52414 -3.80968 0
M  V30 11547 C 1086.63 2.16804 -4.72538 0
M  V30 11548 C 1084.31 2.67306 -4.25268 0
M  V30 11549 C 1086.31 1.96358 -6.06401 0
M  V30 11550 C 1084 2.46475 -5.5919 0
M  V30 11551 C 1084.99 2.11055 -6.49573 0
M  V30 11552 O 1084.68 1.90428 -7.8102 0
M  V30 11553 H 1084.41 0.454896 -0.500045 0
M  V30 11554 H 1086.97 0.832198 -1.87786 0
M  V30 11555 H 1085.2 3.38684 -1.86629 0
M  V30 11556 H 1086.89 3.35543 -2.28398 0
M  V30 11557 H 1087.65 2.04891 -4.39596 0
M  V30 11558 H 1083.53 2.93854 -3.55206 0
M  V30 11559 H 1087.08 1.68634 -6.76911 0
M  V30 11560 H 1082.97 2.57985 -5.91704 0
M  V30 11561 H 1083.74 2.05 -7.92412 0
M  V30 11562 N 1086.4 1.28806 0.908124 0
M  V30 11563 C 1087.63 1.19153 1.69146 0
M  V30 11564 C 1088.05 -0.249056 1.8715 0
M  V30 11565 O 1087.4 -1.16772 1.40251 0
M  V30 11566 C 1087.45 1.89167 3.08055 0
M  V30 11567 O 1087.18 3.27599 2.90879 0
M  V30 11568 C 1088.68 1.85886 4.02444 0
M  V30 11569 H 1085.9 0.413359 0.528559 0
M  V30 11570 H 1088.44 1.7003 1.13622 0
M  V30 11571 H 1086.6 1.42146 3.60379 0
M  V30 11572 H 1087.01 3.62743 3.78837 0
M  V30 11573 H 1088.48 2.39454 4.97359 0
M  V30 11574 H 1088.96 0.832483 4.31238 0
M  V30 11575 H 1089.57 2.32612 3.5605 0
M  V30 11576 N 1087.88 -1.11734 1.11145 0
M  V30 11577 C 1089.12 -1.85039 0.868318 0
M  V30 11578 C 1089.49 -1.82538 -0.595294 0
M  V30 11579 O 1090.69 -2.5126 -0.955071 0
M  V30 11580 C 1088.96 -3.28381 1.4107 0
M  V30 11581 S 1090.52 -4.18973 1.3041 0
M  V30 11582 H 1087.33 -0.638114 0.313578 0
M  V30 11583 H 1089.94 -1.34548 1.41835 0
M  V30 11584 H 1088.64 -3.27764 2.46979 0
M  V30 11585 H 1088.17 -3.83939 0.857576 0
M  V30 11586 H 1090.19 -4.95483 0.266605 0
M  V30 11587 N 1089.36 -0.901303 -1.29284 0
M  V30 11588 C 1090.29 -0.337552 -2.26701 0
M  V30 11589 C 1091.3 0.517039 -1.54371 0
M  V30 11590 O 1092.49 0.333937 -1.75349 0
M  V30 11591 C 1089.59 0.537214 -3.34615 0
M  V30 11592 C 1088.77 -0.292017 -4.36424 0
M  V30 11593 C 1087.83 0.515837 -5.23666 0
M  V30 11594 O 1086.85 -0.0672303 -5.6916 0
M  V30 11595 N 1088.05 1.82159 -5.51179 0
M  V30 11596 H 1090.82 -1.17484 -2.75713 0
M  V30 11597 H 1088.38 -0.765957 -1.42635 0
M  V30 11598 H 1090.37 1.0841 -3.8991 0
M  V30 11599 H 1088.94 1.2752 -2.85408 0
M  V30 11600 H 1088.16 -1.02031 -3.80767 0
M  V30 11601 H 1089.45 -0.859855 -5.01482 0
M  V30 11602 H 1088.85 2.318 -5.16028 0
M  V30 11603 H 1087.4 2.31556 -6.09282 0
M  V30 11604 N 1090.84 1.42931 -0.663954 0
M  V30 11605 C 1091.8 2.29197 0.0117626 0
M  V30 11606 C 1092.8 1.42767 0.739875 0
M  V30 11607 O 1093.99 1.64278 0.579509 0
M  V30 11608 C 1091.12 3.2505 1.02738 0
M  V30 11609 H 1092.32 2.90438 -0.747391 0
M  V30 11610 H 1089.87 1.5039 -0.425733 0
M  V30 11611 H 1090.6 2.68726 1.8154 0
M  V30 11612 H 1090.39 3.88785 0.508809 0
M  V30 11613 H 1091.88 3.89771 1.49893 0
M  V30 11614 N 1092.32 0.406567 1.52266 0
M  V30 11615 C 1093.56 -0.169611 2.03695 0
M  V30 11616 C 1093.92 -1.42596 1.2857 0
M  V30 11617 O 1095.12 -2.08041 1.70212 0
M  V30 11618 C 1093.39 -0.413924 3.54995 0
M  V30 11619 S 1094.95 -0.957916 4.28217 0
M  V30 11620 H 1091.77 -0.0462362 0.709495 0
M  V30 11621 H 1094.37 0.558895 1.87341 0
M  V30 11622 H 1093.07 0.507285 4.07253 0
M  V30 11623 H 1092.61 -1.17038 3.75587 0
M  V30 11624 H 1094.62 -2.2387 4.42828 0
M  V30 11625 N 1093.79 -1.57004 0.136909 0
M  V30 11626 C 1095.02 -2.00587 -0.527209 0
M  V30 11627 C 1095.44 -1.01628 -1.58283 0
M  V30 11628 O 1094.8 0.00946934 -1.81298 0
M  V30 11629 C 1094.85 -3.42967 -1.11384 0
M  V30 11630 O 1093.95 -3.46973 -2.22898 0
M  V30 11631 H 1093.3 -0.651155 -0.129976 0
M  V30 11632 H 1095.83 -2.03296 0.230667 0
M  V30 11633 H 1095.84 -3.81555 -1.44499 0
M  V30 11634 H 1094.51 -4.14502 -0.340736 0
M  V30 11635 H 1093.09 -3.20219 -1.91087 0
M  V30 11636 N 1095.27 0.136881 -1.57004 0
M  V30 11637 C 1096.52 0.849031 -1.84172 0
M  V30 11638 C 1096.85 1.80359 -0.720027 0
M  V30 11639 O 1096.13 1.92538 0.275584 0
M  V30 11640 C 1096.41 1.61465 -3.21871 0
M  V30 11641 C 1096.26 0.680902 -4.44616 0
M  V30 11642 C 1097.58 2.57488 -3.56914 0
M  V30 11643 H 1094.7 0.307209 -0.669919 0
M  V30 11644 H 1097.34 0.113862 -1.89659 0
M  V30 11645 H 1095.49 2.24137 -3.17325 0
M  V30 11646 H 1097.16 0.0644094 -4.61255 0
M  V30 11647 H 1095.41 -0.00883629 -4.33799 0
M  V30 11648 H 1096.08 1.25286 -5.37594 0
M  V30 11649 H 1098.55 2.0493 -3.62136 0
M  V30 11650 H 1097.43 3.08101 -4.54274 0
M  V30 11651 H 1097.69 3.39321 -2.83397 0
M  V30 11652 N 1096.75 1.52266 0.40654 0
M  V30 11653 C 1097.68 1.78755 1.50229 0
M  V30 11654 C 1098.66 0.638652 1.57655 0
M  V30 11655 O 1099.85 0.884505 1.72888 0
M  V30 11656 C 1096.98 1.94057 2.88026 0
M  V30 11657 C 1095.93 3.09667 2.95449 0
M  V30 11658 C 1095.26 3.10196 4.35526 0
M  V30 11659 C 1096.56 4.49077 2.66697 0
M  V30 11660 H 1098.25 2.70511 1.28313 0
M  V30 11661 H 1095.8 1.30167 0.615836 0
M  V30 11662 H 1097.75 2.11171 3.64671 0
M  V30 11663 H 1096.47 0.989755 3.11242 0
M  V30 11664 H 1095.13 2.92308 2.2125 0
M  V30 11665 H 1094.78 2.12831 4.55754 0
M  V30 11666 H 1094.48 3.87847 4.41416 0
M  V30 11667 H 1096 3.29443 5.14101 0
M  V30 11668 H 1097.42 4.66628 3.33064 0
M  V30 11669 H 1095.82 5.28665 2.8396 0
M  V30 11670 H 1096.89 4.56995 1.62122 0
M  V30 11671 N 1098.23 -0.663929 1.42933 0
M  V30 11672 C 1099.48 -1.42111 1.43697 0
M  V30 11673 C 1099.8 -1.94913 0.0583858 0
M  V30 11674 O 1099.07 -1.73757 -0.904719 0
M  V30 11675 H 1097.65 -0.527391 0.529026 0
M  V30 11676 H 1100.31 -0.783766 1.78446 0
M  V30 11677 H 1099.41 -2.26877 2.1432 0
M  V30 11678 N 1099.71 -1.29285 -0.901281 0
M  V30 11679 C 1100.95 -1.18431 -1.66594 0
M  V30 11680 C 1101.31 0.260312 -1.90227 0
M  V30 11681 O 1102.51 0.4918 -2.64263 0
M  V30 11682 C 1100.78 -1.97357 -2.97968 0
M  V30 11683 S 1102.34 -2.03019 -3.8901 0
M  V30 11684 H 1099.16 -0.422323 -0.571983 0
M  V30 11685 H 1101.76 -1.63551 -1.07105 0
M  V30 11686 H 1100.47 -3.01459 -2.78479 0
M  V30 11687 H 1100 -1.52836 -3.62498 0
M  V30 11688 H 1102.01 -1.14572 -4.82791 0
M  V30 11689 N 1101.18 1.11143 -1.11736 0
M  V30 11690 C 1102.15 2.15456 -0.78174 0
M  V30 11691 C 1103.15 1.59547 0.200383 0
M  V30 11692 O 1104.34 1.74183 -0.0244893 0
M  V30 11693 C 1101.47 3.40523 -0.160364 0
M  V30 11694 H 1102.66 2.46658 -1.70586 0
M  V30 11695 H 1100.22 1.26381 -0.919644 0
M  V30 11696 H 1100.95 3.14932 0.773835 0
M  V30 11697 H 1100.74 3.82386 -0.867378 0
M  V30 11698 H 1102.23 4.17559 0.0582175 0
M  V30 11699 N 1102.66 0.908147 1.28804 0
M  V30 11700 C 1103.61 0.390734 2.27468 0
M  V30 11701 C 1104.58 -0.531765 1.57358 0
M  V30 11702 O 1105.76 -0.455177 1.85291 0
M  V30 11703 C 1102.9 -0.368159 3.43131 0
M  V30 11704 C 1102.02 0.586202 4.28004 0
M  V30 11705 C 1101.15 -0.190581 5.30858 0
M  V30 11706 C 1100.19 0.757758 6.07391 0
M  V30 11707 N 1099.33 0.0148488 7.02098 0
M  V30 11708 H 1104.17 1.23717 2.71105 0
M  V30 11709 H 1101.71 0.621382 1.33331 0
M  V30 11710 H 1103.66 -0.824289 4.08976 0
M  V30 11711 H 1102.29 -1.17898 3.00499 0
M  V30 11712 H 1101.35 1.16086 3.62254 0
M  V30 11713 H 1102.66 1.31177 4.81242 0
M  V30 11714 H 1101.81 -0.707528 6.0256 0
M  V30 11715 H 1100.55 -0.949234 4.78373 0
M  V30 11716 H 1099.56 1.28613 5.34545 0
M  V30 11717 H 1100.78 1.51588 6.61965 0
M  V30 11718 H 1098.73 -0.725916 6.51971 0
M  V30 11719 H 1098.64 0.680347 7.52932 0
M  V30 11720 H 1099.91 -0.482086 7.78008 0
M  V30 11721 N 1104.14 -1.42577 0.671525 0
M  V30 11722 C 1105.39 -2.01882 0.192716 0
M  V30 11723 C 1105.72 -1.52959 -1.19654 0
M  V30 11724 O 1104.99 -0.730404 -1.80265 0
M  V30 11725 C 1105.28 -3.59404 0.223734 0
M  V30 11726 C 1105.13 -4.18514 1.64821 0
M  V30 11727 C 1106.45 -4.37996 -0.429858 0
M  V30 11728 H 1103.57 -0.733523 0.0715026 0
M  V30 11729 H 1106.21 -1.69641 0.855689 0
M  V30 11730 H 1104.36 -3.87003 -0.340776 0
M  V30 11731 H 1106.03 -4.01881 2.26472 0
M  V30 11732 H 1104.28 -3.74467 2.1899 0
M  V30 11733 H 1104.95 -5.27643 1.62162 0
M  V30 11734 H 1107.42 -4.16069 0.0506433 0
M  V30 11735 H 1106.3 -5.476 -0.377503 0
M  V30 11736 H 1106.56 -4.15625 -1.50693 0
M  V30 11737 N 1105.62 -0.414636 -1.52048 0
M  V30 11738 C 1106.53 0.414861 -2.30903 0
M  V30 11739 C 1107.54 1.04855 -1.38858 0
M  V30 11740 O 1108.72 1.04886 -1.71933 0
M  V30 11741 C 1105.79 1.51356 -3.11917 0
M  V30 11742 C 1104.85 0.902359 -4.19709 0
M  V30 11743 C 1104.08 1.9487 -4.96852 0
M  V30 11744 O 1104.3 3.16766 -4.74358 0
M  V30 11745 O 1103.24 1.55186 -5.8155 0
M  V30 11746 H 1107.06 -0.228251 -3.02841 0
M  V30 11747 H 1104.65 -0.177704 -1.48339 0
M  V30 11748 H 1106.53 2.15127 -3.62351 0
M  V30 11749 H 1105.2 2.14117 -2.42767 0
M  V30 11750 H 1104.11 0.22721 -3.73409 0
M  V30 11751 H 1105.44 0.318587 -4.91168 0
M  V30 11752 N 1107.1 1.56929 -0.145233 0
M  V30 11753 C 1108.06 2.15483 0.781002 0
M  V30 11754 C 1109.06 1.09617 1.17647 0
M  V30 11755 O 1110.25 1.35265 1.09768 0
M  V30 11756 C 1107.38 2.7165 2.05959 0
M  V30 11757 H 1108.57 2.98667 0.271685 0
M  V30 11758 H 1106.13 1.55952 0.1042 0
M  V30 11759 H 1106.86 1.92127 2.61262 0
M  V30 11760 H 1106.65 3.491 1.78526 0
M  V30 11761 H 1108.14 3.16769 2.72116 0
M  V30 11762 N 1108.58 -0.128553 1.57075 0
M  V30 11763 C 1109.82 -0.83801 1.84347 0
M  V30 11764 C 1110.15 -1.80325 0.728906 0
M  V30 11765 O 1109.41 -1.93678 -0.280571 0
M  V30 11766 C 1109.7 -1.63027 3.18052 0
M  V30 11767 C 1109.37 -0.810171 4.43562 0
M  V30 11768 C 1108.03 -0.583984 4.77643 0
M  V30 11769 C 1110.38 -0.237896 5.20657 0
M  V30 11770 C 1107.71 0.224887 5.86269 0
M  V30 11771 C 1110.06 0.558114 6.30133 0
M  V30 11772 C 1108.73 0.794706 6.62752 0
M  V30 11773 H 1108 -0.30665 0.674572 0
M  V30 11774 H 1110.65 -0.100797 1.91235 0
M  V30 11775 H 1108.95 -2.43812 3.06697 0
M  V30 11776 H 1110.65 -2.183 3.36372 0
M  V30 11777 H 1107.24 -0.996547 4.16854 0
M  V30 11778 H 1111.42 -0.399881 4.94686 0
M  V30 11779 H 1106.68 0.417507 6.09973 0
M  V30 11780 H 1110.85 1.00859 6.89058 0
M  V30 11781 H 1108.48 1.42331 7.46757 0
M  V30 11782 N 1110.05 -1.5248 -0.398459 0
M  V30 11783 C 1111.3 -1.67061 -1.14441 0
M  V30 11784 C 1111.63 -0.405821 -1.90219 0
M  V30 11785 O 1110.88 0.611532 -1.859 0
M  V30 11786 C 1111.18 -2.85038 -2.15611 0
M  V30 11787 C 1110.85 -4.22847 -1.56561 0
M  V30 11788 C 1109.51 -4.60329 -1.40182 0
M  V30 11789 C 1111.86 -5.08683 -1.1354 0
M  V30 11790 C 1109.19 -5.81314 -0.793149 0
M  V30 11791 C 1111.54 -6.30284 -0.540866 0
M  V30 11792 C 1110.21 -6.66505 -0.364297 0
M  V30 11793 H 1109.48 -0.611321 -0.418769 0
M  V30 11794 H 1112.12 -1.86604 -0.430241 0
M  V30 11795 H 1110.43 -2.59873 -2.93212 0
M  V30 11796 H 1112.13 -2.93516 -2.73221 0
M  V30 11797 H 1108.72 -3.93316 -1.70295 0
M  V30 11798 H 1112.9 -4.80301 -1.24999 0
M  V30 11799 H 1108.16 -6.07994 -0.64446 0
M  V30 11800 H 1112.33 -6.96115 -0.199167 0
M  V30 11801 H 1109.96 -7.60121 0.109439 0
M  V30 11802 N 1111.53 0.65634 -1.43283 0
M  V30 11803 C 1112.78 1.41212 -1.44021 0
M  V30 11804 C 1113.09 1.95485 -0.0669783 0
M  V30 11805 O 1114.3 2.71457 0.0481909 0
M  V30 11806 C 1112.76 2.55541 -2.5343 0
M  V30 11807 C 1112.36 2.07889 -3.96845 0
M  V30 11808 C 1114.11 3.3293 -2.63359 0
M  V30 11809 C 1112.01 3.19411 -4.97726 0
M  V30 11810 H 1110.94 0.530566 -0.535739 0
M  V30 11811 H 1113.6 0.708743 -1.6926 0
M  V30 11812 H 1111.98 3.28335 -2.21387 0
M  V30 11813 H 1113.15 1.42127 -4.38334 0
M  V30 11814 H 1111.47 1.43388 -3.90933 0
M  V30 11815 H 1114.06 4.1602 -3.35903 0
M  V30 11816 H 1114.41 3.80753 -1.68324 0
M  V30 11817 H 1114.94 2.67216 -2.94687 0
M  V30 11818 H 1111.68 2.7656 -5.94302 0
M  V30 11819 H 1111.2 3.83895 -4.60853 0
M  V30 11820 H 1112.88 3.84591 -5.20287 0
M  V30 11821 N 1113.01 1.29761 0.894412 0
M  V30 11822 C 1114.26 1.17409 1.64006 0
M  V30 11823 C 1114.57 -0.272355 1.93695 0
M  V30 11824 O 1115.78 -0.517269 2.66527 0
M  V30 11825 C 1114.23 2.05379 2.95546 0
M  V30 11826 C 1113.84 3.54878 2.73433 0
M  V30 11827 C 1115.59 2.01765 3.73485 0
M  V30 11828 C 1113.49 4.34935 4.00731 0
M  V30 11829 H 1112.42 0.43583 0.615279 0
M  V30 11830 H 1115.07 1.5444 0.990983 0
M  V30 11831 H 1113.46 1.61222 3.61695 0
M  V30 11832 H 1114.63 4.07122 2.15844 0
M  V30 11833 H 1112.94 3.60218 2.08882 0
M  V30 11834 H 1115.54 2.58835 4.67877 0
M  V30 11835 H 1115.88 0.998876 4.04139 0
M  V30 11836 H 1116.42 2.43994 3.14184 0
M  V30 11837 H 1113.16 5.3747 3.75241 0
M  V30 11838 H 1112.68 3.87458 4.5786 0
M  V30 11839 H 1114.36 4.45875 4.68833 0
M  V30 11840 N 1114.49 -1.10549 1.12324 0
M  V30 11841 C 1115.4 -2.20428 0.803032 0
M  V30 11842 C 1116.41 -1.72756 -0.207674 0
M  V30 11843 O 1117.59 -2.01357 -0.0415623 0
M  V30 11844 C 1114.65 -3.45716 0.261032 0
M  V30 11845 C 1113.72 -4.08129 1.33152 0
M  V30 11846 C 1112.95 -5.27436 0.815288 0
M  V30 11847 O 1113.17 -5.69317 -0.351361 0
M  V30 11848 O 1112.11 -5.80674 1.58434 0
M  V30 11849 H 1115.93 -2.50249 1.72073 0
M  V30 11850 H 1113.52 -1.19263 0.899815 0
M  V30 11851 H 1115.4 -4.21384 -0.0364007 0
M  V30 11852 H 1114.07 -3.17525 -0.629249 0
M  V30 11853 H 1112.98 -3.3415 1.6821 0
M  V30 11854 H 1114.31 -4.4052 2.19552 0
M  V30 11855 N 1115.97 -0.914965 -1.28321 0
M  V30 11856 C 1117.21 -0.547665 -1.94538 0
M  V30 11857 C 1117.53 0.911834 -1.72368 0
M  V30 11858 O 1116.8 1.64481 -1.06408 0
M  V30 11859 H 1115.38 -0.199549 -0.719853 0
M  V30 11860 H 1118.05 -1.16459 -1.5628 0
M  V30 11861 H 1117.14 -0.743138 -3.03124 0
M  V30 11862 N 1117.44 1.42219 -0.679077 0
M  V30 11863 C 1118.41 2.29197 -0.0125475 0
M  V30 11864 C 1119.41 1.43544 0.724691 0
M  V30 11865 O 1120.6 1.64884 0.562052 0
M  V30 11866 C 1117.73 3.26122 0.992846 0
M  V30 11867 H 1118.92 2.89629 -0.778154 0
M  V30 11868 H 1116.47 1.4993 -0.44166 0
M  V30 11869 H 1117.21 2.70637 1.78679 0
M  V30 11870 H 1116.99 3.89302 0.467544 0
M  V30 11871 H 1118.48 3.91339 1.45751 0
M  V30 11872 N 1118.92 0.422693 1.51826 0
M  V30 11873 C 1119.85 -0.43167 2.25098 0
M  V30 11874 C 1120.87 -0.998758 1.28564 0
M  V30 11875 O 1122.06 -0.89539 1.54418 0
M  V30 11876 C 1119.16 -1.61426 2.97985 0
M  V30 11877 C 1118.33 -1.16866 4.21499 0
M  V30 11878 C 1117.39 -2.2197 4.77091 0
M  V30 11879 O 1116.41 -1.82004 5.39317 0
M  V30 11880 N 1117.62 -3.54293 4.59844 0
M  V30 11881 H 1120.38 0.196255 2.99057 0
M  V30 11882 H 1117.94 0.25079 1.59946 0
M  V30 11883 H 1119.93 -2.31331 3.32066 0
M  V30 11884 H 1118.5 -2.14783 2.27128 0
M  V30 11885 H 1117.72 -0.297217 3.93078 0
M  V30 11886 H 1119.01 -0.848106 5.01682 0
M  V30 11887 H 1118.41 -3.89505 4.10247 0
M  V30 11888 H 1116.97 -4.20135 4.98327 0
M  V30 11889 N 1120.4 -1.5685 0.153553 0
M  V30 11890 C 1121.31 -2.20664 -0.796528 0
M  V30 11891 C 1122.33 -1.19289 -1.26674 0
M  V30 11892 O 1123.5 -1.51889 -1.32256 0
M  V30 11893 C 1120.57 -2.82088 -2.01561 0
M  V30 11894 C 1119.63 -3.9861 -1.59401 0
M  V30 11895 C 1118.86 -4.57096 -2.75498 0
M  V30 11896 O 1119.08 -4.14462 -3.9189 0
M  V30 11897 O 1118.02 -5.47254 -2.50593 0
M  V30 11898 H 1121.84 -3.02376 -0.283282 0
M  V30 11899 H 1119.43 -1.49218 -0.0737927 0
M  V30 11900 H 1121.31 -3.21103 -2.72893 0
M  V30 11901 H 1119.99 -2.03385 -2.51826 0
M  V30 11902 H 1118.89 -3.64299 -0.850725 0
M  V30 11903 H 1120.23 -4.78853 -1.13845 0
M  V30 11904 N 1121.88 0.120221 -1.57141 0
M  V30 11905 C 1122.82 1.14751 -2.00252 0
M  V30 11906 C 1123.79 1.41217 -0.874462 0
M  V30 11907 O 1124.98 1.53104 -1.13859 0
M  V30 11908 C 1122.12 2.46923 -2.41087 0
M  V30 11909 C 1121.23 2.27403 -3.67303 0
M  V30 11910 C 1120.37 3.52797 -3.97125 0
M  V30 11911 C 1119.41 3.28429 -5.16528 0
M  V30 11912 N 1118.54 4.46022 -5.42226 0
M  V30 11913 H 1123.38 0.772884 -2.87803 0
M  V30 11914 H 1120.92 0.370137 -1.42367 0
M  V30 11915 H 1122.88 3.24025 -2.62799 0
M  V30 11916 H 1121.51 2.82281 -1.5658 0
M  V30 11917 H 1120.56 1.41224 -3.53214 0
M  V30 11918 H 1121.87 2.05373 -4.54558 0
M  V30 11919 H 1121.03 4.38318 -4.19479 0
M  V30 11920 H 1119.77 3.77857 -3.08343 0
M  V30 11921 H 1118.77 2.41299 -4.94019 0
M  V30 11922 H 1120 3.0474 -6.06886 0
M  V30 11923 H 1117.94 4.71205 -4.56401 0
M  V30 11924 H 1117.86 4.27092 -6.23802 0
M  V30 11925 H 1119.13 5.3268 -5.69098 0
M  V30 11926 N 1123.36 1.52689 0.390367 0
M  V30 11927 C 1124.58 1.71541 1.15678 0
M  V30 11928 C 1125 0.433171 1.83764 0
M  V30 11929 O 1124.36 -0.592248 1.72623 0
M  V30 11930 C 1124.41 2.864 2.20584 0
M  V30 11931 O 1124.13 4.0966 1.55274 0
M  V30 11932 C 1125.63 3.1692 3.09962 0
M  V30 11933 H 1122.85 0.574381 0.346883 0
M  V30 11934 H 1125.39 1.99332 0.456851 0
M  V30 11935 H 1123.55 2.61075 2.86214 0
M  V30 11936 H 1123.96 4.73802 2.2497 0
M  V30 11937 H 1125.44 4.00755 3.79604 0
M  V30 11938 H 1125.91 2.31245 3.73393 0
M  V30 11939 H 1126.52 3.4408 2.49979 0
M  V30 11940 N 1124.83 -0.648732 1.43629 0
M  V30 11941 C 1125.78 -1.78269 1.49409 0
M  V30 11942 C 1126.78 -1.6537 0.367288 0
M  V30 11943 O 1127.98 -1.71663 0.541476 0
M  V30 11944 H 1124.36 -0.58824 0.468484 0
M  V30 11945 H 1126.33 -1.70514 2.44883 0
M  V30 11946 C 1125.08 -3.16545 1.43856 0
M  V30 11947 H 1124.4 -3.2711 2.29868 0
M  V30 11948 H 1125.84 -3.95833 1.51961 0
M  V30 11949 C 1124.3 -3.36535 0.156779 0
M  V30 11950 O 1124.83 -3.94052 -0.780124 0
M  V30 11951 N 1123.04 -2.90526 0.0655319 0
M  V30 11952 H 1122.58 -2.43904 0.828768 0
M  V30 11953 H 1122.54 -3.04277 -0.791379 0
M  V30 11954 N 1126.31 -1.30234 -0.887518 0
M  V30 11955 C 1127.24 -1.18969 -2.00919 0
M  V30 11956 C 1128.22 -0.080952 -1.69907 0
M  V30 11957 O 1129.41 -0.262546 -1.92417 0
M  V30 11958 C 1126.54 -0.878094 -3.36016 0
M  V30 11959 C 1125.49 -1.94449 -3.81279 0
M  V30 11960 C 1124.82 -1.48594 -5.13638 0
M  V30 11961 C 1126.12 -3.35519 -4.00281 0
M  V30 11962 H 1127.81 -2.12808 -2.10602 0
M  V30 11963 H 1125.36 -1.02454 -1.01189 0
M  V30 11964 H 1127.31 -0.785954 -4.14006 0
M  V30 11965 H 1126.04 0.0959779 -3.26459 0
M  V30 11966 H 1124.69 -2.02622 -3.05516 0
M  V30 11967 H 1124.34 -0.500204 -5.00507 0
M  V30 11968 H 1124.04 -2.19921 -5.44893 0
M  V30 11969 H 1125.57 -1.40754 -5.94156 0
M  V30 11970 H 1126.98 -3.30119 -4.68716 0
M  V30 11971 H 1125.38 -4.0491 -4.42909 0
M  V30 11972 H 1126.45 -3.77597 -3.04218 0
M  V30 11973 N 1127.79 1.09952 -1.12909 0
M  V30 11974 C 1128.7 2.19999 -0.81471 0
M  V30 11975 C 1129.72 1.72864 0.19851 0
M  V30 11976 O 1130.89 2.01376 0.0308832 0
M  V30 11977 C 1127.96 3.45573 -0.279363 0
M  V30 11978 C 1127.02 4.07417 -1.35314 0
M  V30 11979 C 1126.25 5.26996 -0.843247 0
M  V30 11980 O 1126.47 5.69495 0.321164 0
M  V30 11981 O 1125.41 5.79826 -1.61511 0
M  V30 11982 H 1129.23 2.49333 -1.73398 0
M  V30 11983 H 1126.82 1.18784 -0.906128 0
M  V30 11984 H 1128.7 4.21398 0.0140531 0
M  V30 11985 H 1127.38 3.17854 0.612401 0
M  V30 11986 H 1126.28 3.33253 -1.6998 0
M  V30 11987 H 1127.62 4.39349 -2.21885 0
M  V30 11988 N 1129.27 0.921757 1.27833 0
M  V30 11989 C 1130.52 0.55493 1.93916 0
M  V30 11990 C 1130.83 -0.907191 1.7329 0
M  V30 11991 O 1132.04 -1.38253 2.33663 0
M  V30 11992 C 1130.49 0.941644 3.47363 0
M  V30 11993 C 1130.1 2.42404 3.76755 0
M  V30 11994 C 1131.84 0.645785 4.19559 0
M  V30 11995 C 1129.75 2.75046 5.23549 0
M  V30 11996 H 1128.68 0.203818 0.72593 0
M  V30 11997 H 1131.33 1.12176 1.4522 0
M  V30 11998 H 1129.71 0.303519 3.94835 0
M  V30 11999 H 1130.89 3.10957 3.40062 0
M  V30 12000 H 1129.2 2.69118 3.17749 0
M  V30 12001 H 1131.8 0.866237 5.27637 0
M  V30 12002 H 1132.14 -0.41676 4.14209 0
M  V30 12003 H 1132.68 1.24274 3.7789 0
M  V30 12004 H 1129.42 3.80186 5.33984 0
M  V30 12005 H 1128.94 2.11138 5.6141 0
M  V30 12006 H 1130.61 2.62474 5.91368 0
M  V30 12007 N 1130.75 -1.41857 0.686609 0
M  V30 12008 C 1132 -2.00594 0.21095 0
M  V30 12009 C 1132.31 -1.54974 -1.19341 0
M  V30 12010 O 1133.51 -2.0621 -1.76607 0
M  V30 12011 C 1131.97 -3.58418 0.326261 0
M  V30 12012 C 1131.58 -4.13022 1.73542 0
M  V30 12013 C 1133.32 -4.24404 -0.0900816 0
M  V30 12014 C 1131.23 -5.6325 1.80287 0
M  V30 12015 H 1130.16 -0.75025 0.0751077 0
M  V30 12016 H 1132.81 -1.62442 0.853508 0
M  V30 12017 H 1131.19 -3.9413 -0.384394 0
M  V30 12018 H 1132.37 -3.88747 2.47411 0
M  V30 12019 H 1130.68 -3.5953 2.10065 0
M  V30 12020 H 1133.28 -5.34666 -0.060004 0
M  V30 12021 H 1133.62 -4.00745 -1.12733 0
M  V30 12022 H 1134.15 -3.93695 0.569979 0
M  V30 12023 H 1130.89 -5.91724 2.82034 0
M  V30 12024 H 1130.41 -5.89479 1.1079 0
M  V30 12025 H 1132.09 -6.2787 1.56167 0
M  V30 12026 N 1132.22 -0.430739 -1.51599 0
M  V30 12027 C 1133.47 0.139396 -2.01218 0
M  V30 12028 C 1133.79 1.44361 -1.31982 0
M  V30 12029 O 1134.99 2.0963 -1.72533 0
M  V30 12030 C 1133.45 0.298969 -3.58656 0
M  V30 12031 C 1133.06 -0.994424 -4.36824 0
M  V30 12032 C 1134.8 0.82323 -4.16441 0
M  V30 12033 C 1132.71 -0.800855 -5.85952 0
M  V30 12034 H 1131.64 0.0558698 -0.751927 0
M  V30 12035 H 1134.29 -0.559493 -1.74762 0
M  V30 12036 H 1132.67 1.06071 -3.8153 0
M  V30 12037 H 1133.84 -1.76398 -4.257 0
M  V30 12038 H 1132.16 -1.44672 -3.9046 0
M  V30 12039 H 1134.76 0.984434 -5.2556 0
M  V30 12040 H 1135.1 1.80388 -3.75188 0
M  V30 12041 H 1135.63 0.119982 -3.97619 0
M  V30 12042 H 1132.37 -1.75369 -6.31606 0
M  V30 12043 H 1131.89 -0.0709793 -5.99758 0
M  V30 12044 H 1133.57 -0.451459 -6.45423 0
M  V30 12045 N 1133.7 1.56767 -0.161869 0
M  V30 12046 C 1134.63 2.20511 0.767918 0
M  V30 12047 C 1135.61 1.15783 1.24612 0
M  V30 12048 O 1136.8 1.44179 1.301 0
M  V30 12049 C 1133.93 2.83844 2.00125 0
M  V30 12050 C 1132.88 3.94528 1.65926 0
M  V30 12051 C 1132.21 4.44866 2.96646 0
M  V30 12052 C 1133.51 5.14583 0.894497 0
M  V30 12053 H 1135.2 2.98464 0.236607 0
M  V30 12054 H 1132.75 1.43561 0.112363 0
M  V30 12055 H 1134.7 3.27109 2.65664 0
M  V30 12056 H 1133.43 2.03246 2.55654 0
M  V30 12057 H 1132.08 3.51904 1.02759 0
M  V30 12058 H 1131.73 3.61071 3.50196 0
M  V30 12059 H 1131.43 5.19531 2.74521 0
M  V30 12060 H 1132.96 4.90812 3.6323 0
M  V30 12061 H 1134.37 5.54601 1.45228 0
M  V30 12062 H 1132.77 5.95105 0.772636 0
M  V30 12063 H 1133.84 4.84773 -0.110986 0
M  V30 12064 N 1135.18 -0.111886 1.57202 0
M  V30 12065 C 1136.43 -0.819623 1.85499 0
M  V30 12066 C 1136.76 -1.7919 0.748629 0
M  V30 12067 O 1136.03 -1.92952 -0.244918 0
M  V30 12068 C 1136.32 -1.56324 3.24399 0
M  V30 12069 C 1136.17 -0.610081 4.45643 0
M  V30 12070 C 1137.49 -2.51777 3.60966 0
M  V30 12071 H 1134.61 -0.296512 0.674722 0
M  V30 12072 H 1137.25 -0.0836741 1.89816 0
M  V30 12073 H 1135.4 -2.1906 3.2085 0
M  V30 12074 H 1137.07 0.00898038 4.61299 0
M  V30 12075 H 1135.32 0.0778488 4.3373 0
M  V30 12076 H 1135.99 -1.16718 5.39519 0
M  V30 12077 H 1138.46 -1.99143 3.65351 0
M  V30 12078 H 1137.34 -3.00835 4.59118 0
M  V30 12079 H 1137.6 -3.34769 2.8876 0
M  V30 12080 N 1136.66 -1.52894 -0.382264 0
M  V30 12081 C 1137.91 -1.67933 -1.1244 0
M  V30 12082 C 1138.23 -0.425166 -1.90309 0
M  V30 12083 O 1137.5 0.560557 -1.87709 0
M  V30 12084 H 1136.08 -0.619047 -0.418079 0
M  V30 12085 H 1138.74 -1.90031 -0.432928 0
M  V30 12086 H 1137.84 -2.53285 -1.82355 0
M  V30 12087 N 1138.14 0.641106 -1.43971 0
M  V30 12088 C 1139.37 1.42829 -1.49692 0
M  V30 12089 C 1139.78 1.88427 -0.118594 0
M  V30 12090 O 1139.14 1.60234 0.873581 0
M  V30 12091 C 1139.19 2.65524 -2.45314 0
M  V30 12092 O 1138.91 2.2183 -3.77787 0
M  V30 12093 C 1140.41 3.58758 -2.60399 0
M  V30 12094 H 1137.63 0.438367 -0.508011 0
M  V30 12095 H 1140.17 0.784933 -1.88836 0
M  V30 12096 H 1138.33 3.25973 -2.09332 0
M  V30 12097 H 1138.74 3.01303 -4.29321 0
M  V30 12098 H 1140.22 4.41483 -3.31357 0
M  V30 12099 H 1140.69 4.06909 -1.65294 0
M  V30 12100 H 1141.3 3.04184 -2.97241 0
M  V30 12101 N 1139.62 1.30703 0.880598 0
M  V30 12102 C 1140.58 1.17429 1.96832 0
M  V30 12103 C 1141.58 0.104305 1.60461 0
M  V30 12104 O 1142.77 0.352758 1.70591 0
M  V30 12105 C 1139.9 0.800099 3.31378 0
M  V30 12106 H 1141.09 2.14069 2.10034 0
M  V30 12107 H 1138.65 1.14162 1.06755 0
M  V30 12108 H 1139.38 -0.165606 3.23877 0
M  V30 12109 H 1139.17 1.57341 3.59146 0
M  V30 12110 H 1140.66 0.730826 4.11155 0
M  V30 12111 N 1141.09 -1.09351 1.1349 0
M  V30 12112 C 1142.34 -1.81812 0.898452 0
M  V30 12113 C 1142.67 -1.85525 -0.573959 0
M  V30 12114 O 1141.95 -1.32403 -1.42477 0
M  V30 12115 C 1142.23 -3.27921 1.48794 0
M  V30 12116 C 1142.08 -3.32476 3.02952 0
M  V30 12117 C 1143.4 -4.24625 1.15678 0
M  V30 12118 H 1140.52 -0.660074 0.327829 0
M  V30 12119 H 1143.16 -1.28091 1.40331 0
M  V30 12120 H 1141.31 -3.738 1.05858 0
M  V30 12121 H 1142.99 -2.94994 3.54649 0
M  V30 12122 H 1141.23 -2.72037 3.37903 0
M  V30 12123 H 1141.9 -4.35409 3.39298 0
M  V30 12124 H 1144.38 -3.87036 1.52781 0
M  V30 12125 H 1143.25 -5.25194 1.59571 0
M  V30 12126 H 1143.51 -4.42044 0.0705933 0
M  V30 12127 N 1142.57 -0.928524 -1.27343 0
M  V30 12128 C 1143.82 -0.565207 -1.93619 0
M  V30 12129 C 1144.13 0.897988 -1.73769 0
M  V30 12130 O 1145.34 1.37012 -2.34393 0
M  V30 12131 C 1143.8 -0.960052 -3.46859 0
M  V30 12132 C 1143.4 -2.44399 -3.75464 0
M  V30 12133 C 1145.15 -0.668026 -4.19211 0
M  V30 12134 C 1143.05 -2.77819 -5.22083 0
M  V30 12135 H 1141.98 -0.207665 -0.724839 0
M  V30 12136 H 1144.64 -1.12945 -1.44623 0
M  V30 12137 H 1143.02 -0.324454 -3.94669 0
M  V30 12138 H 1144.19 -3.12756 -3.38408 0
M  V30 12139 H 1142.51 -2.70799 -3.16317 0
M  V30 12140 H 1145.1 -0.894207 -5.2717 0
M  V30 12141 H 1145.45 0.394788 -4.14424 0
M  V30 12142 H 1145.98 -1.26276 -3.77226 0
M  V30 12143 H 1142.72 -3.83013 -5.3196 0
M  V30 12144 H 1142.24 -2.14112 -5.60282 0
M  V30 12145 H 1143.92 -2.65607 -5.89968 0
M  V30 12146 N 1144.05 1.41491 -0.694123 0
M  V30 12147 C 1145.01 2.2917 -0.0368562 0
M  V30 12148 C 1146.01 1.44305 0.709426 0
M  V30 12149 O 1147.2 1.6547 0.544533 0
M  V30 12150 C 1144.33 3.27156 0.958201 0
M  V30 12151 H 1145.53 2.88787 -0.808829 0
M  V30 12152 H 1143.08 1.49453 -0.457538 0
M  V30 12153 H 1143.82 2.72516 1.75799 0
M  V30 12154 H 1143.6 3.89776 0.426227 0
M  V30 12155 H 1145.09 3.92863 1.41592 0
M  V30 12156 N 1145.53 0.438773 1.51369 0
M  V30 12157 C 1146.46 -0.417215 2.24354 0
M  V30 12158 C 1147.44 -1.02351 1.26345 0
M  V30 12159 O 1148.62 -1.06569 1.55484 0
M  V30 12160 C 1145.75 -1.58163 2.99503 0
M  V30 12161 C 1144.8 -1.09588 4.1218 0
M  V30 12162 S 1145.63 -0.0367491 5.35487 0
M  V30 12163 C 1146.78 -1.2058 6.14175 0
M  V30 12164 H 1147.02 0.202416 2.9661 0
M  V30 12165 H 1144.55 0.223306 1.52777 0
M  V30 12166 H 1146.51 -2.24917 3.43399 0
M  V30 12167 H 1145.17 -2.17268 2.26833 0
M  V30 12168 H 1144.36 -1.96667 4.64045 0
M  V30 12169 H 1143.96 -0.506564 3.70554 0
M  V30 12170 H 1146.26 -2.12387 6.43349 0
M  V30 12171 H 1147.2 -0.727087 7.04357 0
M  V30 12172 H 1147.61 -1.44501 5.45692 0
M  V30 12173 N 1147.01 -1.56678 0.170181 0
M  V30 12174 C 1148.25 -1.96849 -0.475064 0
M  V30 12175 C 1148.58 -1.05611 -1.6333 0
M  V30 12176 O 1147.84 -0.0899708 -1.95493 0
M  V30 12177 C 1148.13 -3.43103 -1.00076 0
M  V30 12178 C 1147.8 -4.50881 0.0414538 0
M  V30 12179 C 1146.46 -4.80082 0.327894 0
M  V30 12180 C 1148.81 -5.15791 0.748936 0
M  V30 12181 C 1146.14 -5.71491 1.32722 0
M  V30 12182 C 1148.49 -6.08278 1.73724 0
M  V30 12183 C 1147.16 -6.35847 2.03114 0
M  V30 12184 H 1146.43 -0.72032 -0.173838 0
M  V30 12185 H 1149.08 -1.89701 0.261903 0
M  V30 12186 H 1147.38 -3.47197 -1.81553 0
M  V30 12187 H 1149.08 -3.71525 -1.50899 0
M  V30 12188 H 1145.67 -4.2817 -0.191976 0
M  V30 12189 H 1149.85 -4.93344 0.540852 0
M  V30 12190 H 1145.11 -5.91134 1.56112 0
M  V30 12191 H 1149.28 -6.57643 2.29082 0
M  V30 12192 H 1146.91 -7.06479 2.80698 0
M  V30 12193 N 1148.48 0.103547 -1.57259 0
M  V30 12194 C 1149.73 0.808576 -1.85656 0
M  V30 12195 C 1150.06 1.79143 -0.757502 0
M  V30 12196 O 1149.31 1.941 0.249723 0
M  V30 12197 C 1149.61 1.57946 -3.20605 0
M  V30 12198 C 1149.28 0.739502 -4.44795 0
M  V30 12199 C 1147.94 0.507921 -4.78512 0
M  V30 12200 C 1150.29 0.155034 -5.20969 0
M  V30 12201 C 1147.62 -0.318129 -5.85837 0
M  V30 12202 C 1149.97 -0.658292 -6.29166 0
M  V30 12203 C 1148.64 -0.900044 -6.61404 0
M  V30 12204 H 1147.91 0.295879 -0.679365 0
M  V30 12205 H 1150.55 0.0703604 -1.91371 0
M  V30 12206 H 1148.86 2.38902 -3.10537 0
M  V30 12207 H 1150.56 2.12921 -3.39803 0
M  V30 12208 H 1147.15 0.930103 -4.18386 0
M  V30 12209 H 1151.33 0.32113 -4.9526 0
M  V30 12210 H 1146.59 -0.514495 -6.09231 0
M  V30 12211 H 1150.76 -1.11809 -6.87366 0
M  V30 12212 H 1148.39 -1.54194 -7.44398 0
M  V30 12213 N 1149.96 1.53094 0.37415 0
M  V30 12214 C 1151.21 1.70059 1.11586 0
M  V30 12215 C 1151.56 0.442567 1.87241 0
M  V30 12216 O 1150.86 -0.564198 1.83105 0
M  V30 12217 C 1151.05 2.88432 2.11049 0
M  V30 12218 C 1150.88 4.25625 1.45166 0
M  V30 12219 C 1149.65 4.90613 1.20942 0
M  V30 12220 C 1151.85 5.06472 0.893887 0
M  V30 12221 N 1149.83 6.11751 0.513196 0
M  V30 12222 C 1151.2 6.19139 0.326549 0
M  V30 12223 C 1153.25 4.91565 0.791739 0
M  V30 12224 C 1151.96 7.18529 -0.332963 0
M  V30 12225 C 1153.98 5.9122 0.146023 0
M  V30 12226 C 1153.35 7.03203 -0.410477 0
M  V30 12227 H 1149.44 0.675625 0.39377 0
M  V30 12228 H 1152.03 1.90475 0.403383 0
M  V30 12229 H 1150.2 2.6957 2.79619 0
M  V30 12230 H 1151.93 2.94261 2.77835 0
M  V30 12231 H 1148.69 4.49604 1.48841 0
M  V30 12232 H 1149.11 6.76759 0.180695 0
M  V30 12233 H 1153.75 4.05183 1.20776 0
M  V30 12234 H 1151.47 8.04509 -0.76096 0
M  V30 12235 H 1155.06 5.8176 0.0680321 0
M  V30 12236 H 1153.94 7.78993 -0.90223 0
M  V30 12237 N 1151.44 -0.633461 1.44309 0
M  V30 12238 C 1152.37 -1.75676 1.53819 0
M  V30 12239 C 1153.35 -1.65537 0.391365 0
M  V30 12240 O 1154.54 -1.84332 0.611181 0
M  V30 12241 C 1151.67 -3.14197 1.47979 0
M  V30 12242 C 1150.62 -3.39122 2.61113 0
M  V30 12243 C 1149.95 -4.77648 2.40325 0
M  V30 12244 C 1151.25 -3.31914 4.03274 0
M  V30 12245 H 1152.94 -1.67974 2.47841 0
M  V30 12246 H 1150.49 -0.8067 1.19283 0
M  V30 12247 H 1152.44 -3.92553 1.53233 0
M  V30 12248 H 1151.16 -3.22677 0.504718 0
M  V30 12249 H 1149.82 -2.63145 2.55245 0
M  V30 12250 H 1149.47 -4.82829 1.41016 0
M  V30 12251 H 1149.17 -4.95284 3.16177 0
M  V30 12252 H 1150.69 -5.58237 2.47394 0
M  V30 12253 H 1152.11 -4.00178 4.10524 0
M  V30 12254 H 1150.5 -3.61085 4.7931 0
M  V30 12255 H 1151.57 -2.29761 4.2701 0
M  V30 12256 N 1152.92 -1.31168 -0.873655 0
M  V30 12257 C 1153.85 -1.21094 -1.99646 0
M  V30 12258 C 1154.83 -0.0989684 -1.69812 0
M  V30 12259 O 1156.01 -0.282939 -1.92128 0
M  V30 12260 C 1153.14 -0.913684 -3.35066 0
M  V30 12261 C 1152.1 -1.98482 -3.79195 0
M  V30 12262 C 1151.42 -1.54033 -5.12033 0
M  V30 12263 C 1152.72 -3.39745 -3.96699 0
M  V30 12264 H 1154.42 -2.1503 -2.08333 0
M  V30 12265 H 1151.96 -1.03521 -1.00097 0
M  V30 12266 H 1153.92 -0.829821 -4.13149 0
M  V30 12267 H 1152.64 0.0613471 -3.26542 0
M  V30 12268 H 1151.3 -2.05851 -3.03349 0
M  V30 12269 H 1150.95 -0.553261 -4.99948 0
M  V30 12270 H 1150.65 -2.25688 -5.4253 0
M  V30 12271 H 1152.17 -1.47047 -5.92629 0
M  V30 12272 H 1153.59 -3.35071 -4.65188 0
M  V30 12273 H 1151.98 -4.09585 -4.38589 0
M  V30 12274 H 1153.05 -3.80802 -3.00196 0
M  V30 12275 N 1154.4 1.08748 -1.14068 0
M  V30 12276 C 1155.33 2.17591 -0.84714 0
M  V30 12277 C 1156.31 1.68962 0.196415 0
M  V30 12278 O 1157.49 1.94125 0.0538415 0
M  V30 12279 C 1154.62 3.45823 -0.320005 0
M  V30 12280 C 1153.58 4.07824 -1.2986 0
M  V30 12281 C 1152.9 5.30965 -0.630925 0
M  V30 12282 C 1154.2 4.49512 -2.65963 0
M  V30 12283 H 1155.9 2.42404 -1.75729 0
M  V30 12284 H 1153.44 1.16502 -0.846356 0
M  V30 12285 H 1155.4 4.21276 -0.102271 0
M  V30 12286 H 1154.12 3.20553 0.625561 0
M  V30 12287 H 1152.78 3.34398 -1.50245 0
M  V30 12288 H 1152.43 5.01979 0.320337 0
M  V30 12289 H 1152.13 5.73402 -1.28388 0
M  V30 12290 H 1153.65 6.09136 -0.422635 0
M  V30 12291 H 1155.06 5.16159 -2.49506 0
M  V30 12292 H 1153.46 5.02857 -3.27498 0
M  V30 12293 H 1154.53 3.6157 -3.23102 0
M  V30 12294 N 1155.87 0.935264 1.26849 0
M  V30 12295 C 1157.12 0.580548 1.94313 0
M  V30 12296 C 1157.45 -0.877205 1.73259 0
M  V30 12297 O 1156.73 -1.62679 1.06611 0
M  V30 12298 C 1157.01 0.916445 3.48243 0
M  V30 12299 C 1156.86 2.42851 3.78607 0
M  V30 12300 C 1158.18 0.427665 4.38017 0
M  V30 12301 H 1155.3 0.21239 0.705733 0
M  V30 12302 H 1157.94 1.16841 1.49827 0
M  V30 12303 H 1156.09 0.416169 3.86265 0
M  V30 12304 H 1157.77 3.00106 3.50335 0
M  V30 12305 H 1156.01 2.8745 3.24892 0
M  V30 12306 H 1156.68 2.61405 4.8618 0
M  V30 12307 H 1159.16 0.856525 4.07189 0
M  V30 12308 H 1158.03 0.691571 5.44526 0
M  V30 12309 H 1158.29 -0.672344 4.36958 0
M  V30 12310 N 1157.35 -1.41121 0.701616 0
M  V30 12311 C 1158.6 -2.00359 0.232214 0
M  V30 12312 C 1158.91 -1.56231 -1.17691 0
M  V30 12313 O 1160.12 -2.08071 -1.74409 0
M  V30 12314 C 1158.58 -3.58052 0.364257 0
M  V30 12315 C 1158.18 -4.11158 1.77913 0
M  V30 12316 C 1159.93 -4.24476 -0.0450628 0
M  V30 12317 C 1157.84 -5.61306 1.8625 0
M  V30 12318 H 1156.77 -0.749411 0.0830609 0
M  V30 12319 H 1159.42 -1.61528 0.870689 0
M  V30 12320 H 1157.8 -3.94515 -0.342569 0
M  V30 12321 H 1158.97 -3.86101 2.5152 0
M  V30 12322 H 1157.29 -3.57282 2.13866 0
M  V30 12323 H 1159.88 -5.347 -0.00329209 0
M  V30 12324 H 1160.23 -4.01919 -1.08477 0
M  V30 12325 H 1160.76 -3.93069 0.611704 0
M  V30 12326 H 1157.5 -5.88699 2.88294 0
M  V30 12327 H 1157.02 -5.88271 1.17036 0
M  V30 12328 H 1158.7 -6.26179 1.62817 0
M  V30 12329 N 1158.83 -0.446794 -1.51134 0
M  V30 12330 C 1160.08 0.118047 -2.01354 0
M  V30 12331 C 1160.39 1.42953 -1.33505 0
M  V30 12332 O 1161.6 2.07788 -1.74747 0
M  V30 12333 C 1160.05 0.260912 -3.58953 0
M  V30 12334 C 1159.66 -1.0407 -4.35745 0
M  V30 12335 C 1161.41 0.779014 -4.17291 0
M  V30 12336 C 1159.31 -0.862958 -5.8507 0
M  V30 12337 H 1158.24 0.0478915 -0.752478 0
M  V30 12338 H 1160.89 -0.577997 -1.74159 0
M  V30 12339 H 1159.28 1.02018 -3.82633 0
M  V30 12340 H 1160.45 -1.80903 -4.23805 0
M  V30 12341 H 1158.77 -1.48805 -3.88904 0
M  V30 12342 H 1161.36 0.928636 -5.26574 0
M  V30 12343 H 1161.71 1.76399 -3.7708 0
M  V30 12344 H 1162.24 0.0778022 -3.97724 0
M  V30 12345 H 1158.98 -1.82059 -6.2971 0
M  V30 12346 H 1158.5 -0.134588 -5.99649 0
M  V30 12347 H 1160.18 -0.51989 -6.44908 0
M  V30 12348 N 1160.31 1.56586 -0.178487 0
M  V30 12349 C 1161.24 2.21313 0.744486 0
M  V30 12350 C 1162.22 1.17098 1.23377 0
M  V30 12351 O 1163.4 1.45551 1.28563 0
M  V30 12352 C 1160.53 2.8595 1.97103 0
M  V30 12353 C 1159.49 3.96266 1.61732 0
M  V30 12354 C 1158.81 4.47987 2.91911 0
M  V30 12355 C 1160.11 5.15503 0.839868 0
M  V30 12356 H 1161.81 2.98698 0.204938 0
M  V30 12357 H 1159.35 1.43672 0.0971306 0
M  V30 12358 H 1161.31 3.29909 2.6218 0
M  V30 12359 H 1160.03 2.05946 2.53484 0
M  V30 12360 H 1158.69 3.52974 0.990208 0
M  V30 12361 H 1158.34 3.64765 3.46346 0
M  V30 12362 H 1158.04 5.22413 2.68995 0
M  V30 12363 H 1159.56 4.94637 3.58004 0
M  V30 12364 H 1160.98 5.5611 1.39337 0
M  V30 12365 H 1159.37 5.95891 0.709473 0
M  V30 12366 H 1160.44 4.84628 -0.162396 0
M  V30 12367 N 1161.79 -0.095206 1.57312 0
M  V30 12368 C 1163.2 -0.449411 1.53142 0
M  V30 12369 C 1163.4 -1.80523 0.895187 0
M  V30 12370 O 1162.46 -2.47746 0.487649 0
M  V30 12371 C 1163.77 -0.412002 2.97864 0
M  V30 12372 C 1165.32 -0.493866 3.09079 0
M  V30 12373 C 1165.79 -0.486606 4.55408 0
M  V30 12374 N 1167.29 -0.547363 4.59955 0
M  V30 12375 C 1168.02 -0.563582 5.70624 0
M  V30 12376 N 1167.52 -0.536015 6.90723 0
M  V30 12377 N 1169.31 -0.608385 5.58798 0
M  V30 12378 H 1161.46 0.792869 1.97047 0
M  V30 12379 H 1163.72 0.295106 0.900898 0
M  V30 12380 H 1163.43 0.517064 3.47878 0
M  V30 12381 H 1163.3 -1.23102 3.56547 0
M  V30 12382 H 1165.69 -1.41335 2.59053 0
M  V30 12383 H 1165.77 0.353286 2.53349 0
M  V30 12384 H 1165.42 0.428935 5.06086 0
M  V30 12385 H 1165.35 -1.35097 5.08976 0
M  V30 12386 H 1167.84 -0.573867 3.73517 0
M  V30 12387 H 1168.15 -0.551671 7.70828 0
M  V30 12388 H 1166.49 -0.503064 6.93177 0
M  V30 12389 H 1169.69 -0.627451 4.63876 0
M  V30 12390 H 1169.86 -0.617556 6.45051 0
M  V30 12391 N 1163.26 -1.53291 -0.366026 0
M  V30 12392 C 1164.49 -1.73359 -1.12934 0
M  V30 12393 C 1164.91 -0.462352 -1.83051 0
M  V30 12394 O 1164.26 0.564711 -1.73543 0
M  V30 12395 C 1164.32 -2.89873 -2.15999 0
M  V30 12396 O 1164.04 -4.12079 -1.48737 0
M  V30 12397 C 1165.54 -3.21811 -3.04881 0
M  V30 12398 H 1162.76 -0.579827 -0.337701 0
M  V30 12399 H 1165.3 -2.00033 -0.425081 0
M  V30 12400 H 1163.46 -2.65595 -2.82025 0
M  V30 12401 H 1163.87 -4.77322 -2.17404 0
M  V30 12402 H 1165.34 -4.06744 -3.7318 0
M  V30 12403 H 1165.82 -2.37156 -3.69667 0
M  V30 12404 H 1166.43 -3.48013 -2.44473 0
M  V30 12405 N 1164.74 0.6258 -1.44643 0
M  V30 12406 C 1165.99 1.3873 -1.47925 0
M  V30 12407 C 1166.32 1.93868 -0.113469 0
M  V30 12408 O 1165.6 1.73976 0.869639 0
M  V30 12409 C 1165.88 2.54867 -2.54391 0
M  V30 12410 C 1165.73 2.05044 -4.00346 0
M  V30 12411 C 1167.05 3.57043 -2.57309 0
M  V30 12412 H 1164.17 0.503087 -0.538584 0
M  V30 12413 H 1166.81 0.707102 -1.76352 0
M  V30 12414 H 1164.96 3.12894 -2.30281 0
M  V30 12415 H 1166.63 1.51807 -4.35606 0
M  V30 12416 H 1164.88 1.36185 -4.11869 0
M  V30 12417 H 1165.55 2.88681 -4.70497 0
M  V30 12418 H 1168.02 3.08826 -2.78865 0
M  V30 12419 H 1166.9 4.35818 -3.33698 0
M  V30 12420 H 1167.16 4.11464 -1.61708 0
M  V30 12421 N 1166.22 1.31629 0.866686 0
M  V30 12422 C 1167.17 1.19556 1.97421 0
M  V30 12423 C 1168.14 0.0805578 1.65905 0
M  V30 12424 O 1169.32 0.253997 1.89102 0
M  V30 12425 C 1166.46 0.912234 3.32825 0
M  V30 12426 C 1165.58 2.11088 3.76916 0
M  V30 12427 C 1164.71 1.76406 5.01053 0
M  V30 12428 C 1163.75 2.9266 5.37602 0
M  V30 12429 N 1162.89 2.58152 6.52918 0
M  V30 12430 H 1167.73 2.14294 2.0708 0
M  V30 12431 H 1165.26 1.06595 1.0137 0
M  V30 12432 H 1167.22 0.72851 4.1079 0
M  V30 12433 H 1165.85 0.00167404 3.228 0
M  V30 12434 H 1164.9 2.40527 2.94705 0
M  V30 12435 H 1166.22 2.98089 3.99931 0
M  V30 12436 H 1165.37 1.54515 5.86694 0
M  V30 12437 H 1164.11 0.866018 4.79949 0
M  V30 12438 H 1163.11 3.15196 4.50479 0
M  V30 12439 H 1164.34 3.83179 5.6067 0
M  V30 12440 H 1162.28 1.70874 6.33355 0
M  V30 12441 H 1162.2 3.38682 6.75892 0
M  V30 12442 H 1163.47 2.39662 7.41743 0
M  V30 12443 N 1167.7 -1.08142 1.14644 0
M  V30 12444 C 1169.12 -1.32656 0.887388 0
M  V30 12445 C 1169.32 -1.95942 -0.470012 0
M  V30 12446 O 1168.37 -2.21417 -1.21371 0
M  V30 12447 C 1169.68 -2.22549 2.02219 0
M  V30 12448 C 1171.23 -2.36021 2.0558 0
M  V30 12449 C 1171.71 -3.29257 3.18361 0
M  V30 12450 N 1173.2 -3.36835 3.17957 0
M  V30 12451 C 1173.93 -4.09017 4.01862 0
M  V30 12452 N 1173.43 -4.83882 4.95812 0
M  V30 12453 N 1175.22 -4.04875 3.89913 0
M  V30 12454 H 1167.37 -0.654457 2.02066 0
M  V30 12455 H 1169.64 -0.350947 0.880648 0
M  V30 12456 H 1169.34 -1.83296 3.00159 0
M  V30 12457 H 1169.22 -3.23027 1.94765 0
M  V30 12458 H 1171.6 -2.74531 1.08245 0
M  V30 12459 H 1171.68 -1.35275 2.17105 0
M  V30 12460 H 1171.33 -2.91468 4.15944 0
M  V30 12461 H 1171.26 -4.29938 3.04074 0
M  V30 12462 H 1173.75 -2.83465 2.49912 0
M  V30 12463 H 1174.06 -5.3643 5.56294 0
M  V30 12464 H 1172.41 -4.82926 4.99808 0
M  V30 12465 H 1175.6 -3.45496 3.15833 0
M  V30 12466 H 1175.77 -4.60866 4.55529 0
M  V30 12467 N 1169.18 -0.941978 -1.26351 0
M  V30 12468 C 1170.14 -0.456768 -2.24602 0
M  V30 12469 C 1171.14 0.432574 -1.54872 0
M  V30 12470 O 1172.33 0.23164 -1.72653 0
M  V30 12471 C 1169.46 0.341583 -3.39184 0
M  V30 12472 H 1170.66 -1.32503 -2.69041 0
M  V30 12473 H 1168.21 -0.724021 -1.38519 0
M  V30 12474 H 1168.94 1.22806 -3.00149 0
M  V30 12475 H 1168.73 -0.296268 -3.90979 0
M  V30 12476 H 1170.22 0.670955 -4.12175 0
M  V30 12477 N 1170.66 1.40747 -0.709091 0
M  V30 12478 C 1171.6 2.32564 -0.0411392 0
M  V30 12479 C 1172.6 1.51692 0.75404 0
M  V30 12480 O 1173.8 1.67537 0.658139 0
M  V30 12481 H 1170.18 0.75198 0.00549889 0
M  V30 12482 H 1172.15 2.86556 -0.83235 0
M  V30 12483 C 1170.9 3.36604 0.871378 0
M  V30 12484 H 1170.22 3.98895 0.268912 0
M  V30 12485 H 1171.66 4.03359 1.30682 0
M  V30 12486 C 1170.12 2.71566 1.99384 0
M  V30 12487 O 1170.65 2.57392 3.08403 0
M  V30 12488 N 1168.86 2.3005 1.77554 0
M  V30 12489 H 1168.4 2.41778 0.888898 0
M  V30 12490 H 1168.36 1.8687 2.52838 0
M  V30 12491 N 1172.13 0.454803 1.50895 0
M  V30 12492 C 1173.38 -0.105562 2.01824 0
M  V30 12493 C 1173.7 -1.41673 1.33992 0
M  V30 12494 O 1172.97 -1.89929 0.479994 0
M  V30 12495 H 1171.55 -0.0420011 0.745818 0
M  V30 12496 H 1174.21 0.601504 1.85386 0
M  V30 12497 H 1173.31 -0.268872 3.1094 0
M  V30 12498 N 1173.61 -1.56489 0.186789 0
M  V30 12499 C 1174.86 -1.96952 -0.453261 0
M  V30 12500 C 1175.18 -1.07451 -1.62725 0
M  V30 12501 O 1174.45 -0.144046 -1.9537 0
M  V30 12502 H 1173.03 -0.727295 -0.170445 0
M  V30 12503 H 1175.69 -1.92999 0.271584 0
M  V30 12504 H 1174.79 -3.01594 -0.802951 0
M  V30 12505 N 1175.09 0.086862 -1.5736 0
M  V30 12506 C 1176 1.12297 -2.05977 0
M  V30 12507 C 1177.02 1.43347 -0.986284 0
M  V30 12508 O 1178.19 1.53825 -1.3 0
M  V30 12509 C 1175.26 2.42131 -2.4814 0
M  V30 12510 C 1174.32 2.18189 -3.69719 0
M  V30 12511 C 1173.55 3.41833 -4.09861 0
M  V30 12512 O 1173.77 4.50383 -3.50016 0
M  V30 12513 O 1172.71 3.30934 -5.02759 0
M  V30 12514 H 1176.53 0.740012 -2.94546 0
M  V30 12515 H 1174.12 0.29995 -1.46358 0
M  V30 12516 H 1176 3.18568 -2.75848 0
M  V30 12517 H 1174.68 2.79837 -1.62705 0
M  V30 12518 H 1173.58 1.39506 -3.47115 0
M  V30 12519 H 1174.92 1.85372 -4.55959 0
M  V30 12520 N 1176.57 1.53483 0.357892 0
M  V30 12521 C 1177.5 1.83444 1.44466 0
M  V30 12522 C 1178.48 0.688486 1.55544 0
M  V30 12523 O 1179.66 0.93906 1.69986 0
M  V30 12524 C 1176.79 2.03122 2.81707 0
M  V30 12525 C 1175.75 3.1891 2.85448 0
M  V30 12526 C 1175.07 3.23895 4.25436 0
M  V30 12527 C 1176.37 4.57334 2.52275 0
M  V30 12528 H 1178.07 2.74456 1.19642 0
M  V30 12529 H 1175.61 1.3206 0.574112 0
M  V30 12530 H 1177.57 2.22666 3.57768 0
M  V30 12531 H 1176.29 1.08827 3.07935 0
M  V30 12532 H 1174.95 2.99199 2.11838 0
M  V30 12533 H 1174.6 2.27223 4.48753 0
M  V30 12534 H 1174.3 4.01694 4.28854 0
M  V30 12535 H 1175.82 3.45632 5.0336 0
M  V30 12536 H 1177.24 4.76988 3.1805 0
M  V30 12537 H 1175.63 5.37431 2.66998 0
M  V30 12538 H 1176.7 4.61921 1.47501 0
M  V30 12539 N 1178.05 -0.61812 1.44973 0
M  V30 12540 C 1178.99 -1.72942 1.52838 0
M  V30 12541 C 1179.96 -1.6181 0.375056 0
M  V30 12542 O 1181.15 -1.81544 0.587075 0
M  V30 12543 C 1178.29 -3.11228 1.49101 0
M  V30 12544 C 1177.4 -3.33243 2.74906 0
M  V30 12545 C 1176.54 -4.61574 2.62912 0
M  V30 12546 C 1175.57 -4.76811 3.8382 0
M  V30 12547 N 1174.71 -5.96432 3.70424 0
M  V30 12548 H 1179.55 -1.65556 2.47781 0
M  V30 12549 H 1177.09 -0.807411 1.2296 0
M  V30 12550 H 1179.05 -3.9122 1.44923 0
M  V30 12551 H 1177.68 -3.17598 0.577163 0
M  V30 12552 H 1176.73 -2.471 2.89216 0
M  V30 12553 H 1178.04 -3.40377 3.64616 0
M  V30 12554 H 1177.19 -5.49746 2.56641 0
M  V30 12555 H 1175.93 -4.5682 1.70784 0
M  V30 12556 H 1174.94 -3.87066 3.90461 0
M  V30 12557 H 1176.16 -4.83371 4.77001 0
M  V30 12558 H 1174.11 -5.92742 2.81057 0
M  V30 12559 H 1174.03 -6.0468 4.5376 0
M  V30 12560 H 1175.29 -6.8713 3.68067 0
M  V30 12561 N 1179.52 -1.32087 -0.859693 0
M  V30 12562 C 1180.75 -1.25348 -1.64607 0
M  V30 12563 C 1181.17 0.179425 -1.87945 0
M  V30 12564 O 1180.52 1.11487 -1.44489 0
M  V30 12565 C 1180.57 -2.0047 -3.00822 0
M  V30 12566 O 1180.3 -3.38169 -2.7852 0
M  V30 12567 C 1181.8 -2.00694 -3.95268 0
M  V30 12568 H 1179.02 -0.432692 -0.512854 0
M  V30 12569 H 1181.56 -1.7413 -1.07234 0
M  V30 12570 H 1179.72 -1.55423 -3.54855 0
M  V30 12571 H 1180.13 -3.76553 -3.65113 0
M  V30 12572 H 1181.6 -2.57748 -4.88129 0
M  V30 12573 H 1182.08 -0.99196 -4.27851 0
M  V30 12574 H 1182.69 -2.45666 -3.47172 0
M  V30 12575 N 1181 1.07532 -1.15215 0
M  V30 12576 C 1182.25 1.79737 -0.924062 0
M  V30 12577 C 1182.57 1.87072 0.550356 0
M  V30 12578 O 1181.84 1.37029 1.4 0
M  V30 12579 H 1180.42 0.665704 -0.338891 0
M  V30 12580 H 1183.08 1.29961 -1.45245 0
M  V30 12581 H 1182.18 2.82256 -1.33184 0
M  V30 12582 N 1182.48 0.948665 1.2585 0
M  V30 12583 C 1183.71 0.616334 1.97193 0
M  V30 12584 C 1184.12 -0.814538 1.70769 0
M  V30 12585 O 1183.46 -1.55569 0.976926 0
M  V30 12586 C 1183.52 0.787814 3.50762 0
M  V30 12587 C 1183.19 2.19472 4.0085 0
M  V30 12588 C 1184.18 3.17087 4.12009 0
M  V30 12589 C 1181.87 2.51731 4.34669 0
M  V30 12590 C 1183.86 4.45058 4.56292 0
M  V30 12591 C 1181.55 3.79932 4.78639 0
M  V30 12592 C 1182.55 4.76408 4.89412 0
M  V30 12593 O 1182.24 6.02325 5.32409 0
M  V30 12594 H 1181.97 0.230487 0.635493 0
M  V30 12595 H 1184.52 1.27379 1.61133 0
M  V30 12596 H 1182.75 0.0732154 3.86631 0
M  V30 12597 H 1184.44 0.457427 4.03314 0
M  V30 12598 H 1185.21 2.9349 3.8612 0
M  V30 12599 H 1181.09 1.77369 4.25513 0
M  V30 12600 H 1184.63 5.20363 4.64616 0
M  V30 12601 H 1180.53 4.03338 5.03973 0
M  V30 12602 H 1181.3 6.05615 5.50611 0
M  V30 12603 N 1183.96 -1.40369 0.716545 0
M  V30 12604 C 1184.89 -2.33365 0.0793533 0
M  V30 12605 C 1185.87 -1.52943 -0.744482 0
M  V30 12606 O 1187.05 -1.81406 -0.693212 0
M  V30 12607 C 1184.18 -3.36928 -0.842429 0
M  V30 12608 C 1183.14 -4.2782 -0.124142 0
M  V30 12609 C 1182.46 -5.21928 -1.1617 0
M  V30 12610 C 1183.76 -5.12199 1.02224 0
M  V30 12611 H 1185.46 -2.86899 0.856115 0
M  V30 12612 H 1183 -1.37946 0.413138 0
M  V30 12613 H 1184.96 -4.00925 -1.29759 0
M  V30 12614 H 1183.68 -2.81791 -1.6511 0
M  V30 12615 H 1182.34 -3.65277 0.311201 0
M  V30 12616 H 1181.99 -4.63096 -1.96345 0
M  V30 12617 H 1181.69 -5.83582 -0.685978 0
M  V30 12618 H 1183.21 -5.88802 -1.61694 0
M  V30 12619 H 1184.63 -5.69644 0.646399 0
M  V30 12620 H 1183.02 -5.82901 1.4264 0
M  V30 12621 H 1184.09 -4.4812 1.85246 0
M  V30 12622 N 1185.44 -0.462799 -1.50652 0
M  V30 12623 C 1186.66 0.0952726 -2.07181 0
M  V30 12624 C 1187.09 1.33479 -1.32533 0
M  V30 12625 O 1186.44 1.77473 -0.370564 0
M  V30 12626 C 1186.49 0.370592 -3.58691 0
M  V30 12627 O 1185.6 1.4526 -3.85971 0
M  V30 12628 H 1184.94 -0.00932702 -0.663934 0
M  V30 12629 H 1187.47 -0.651458 -1.93951 0
M  V30 12630 H 1187.48 0.613551 -4.0336 0
M  V30 12631 H 1186.15 -0.535219 -4.12442 0
M  V30 12632 H 1184.73 1.1976 -3.53146 0
M  V30 12633 N 1186.91 1.56388 -0.195085 0
M  V30 12634 C 1188.16 1.96755 0.443901 0
M  V30 12635 C 1188.48 1.08483 1.6276 0
M  V30 12636 O 1189.68 1.38632 2.33438 0
M  V30 12637 C 1188.14 3.49933 0.841139 0
M  V30 12638 C 1187.75 4.46868 -0.318275 0
M  V30 12639 C 1189.49 3.99069 1.44721 0
M  V30 12640 C 1187.4 5.91316 0.0999211 0
M  V30 12641 H 1186.33 0.734674 0.169616 0
M  V30 12642 H 1188.98 1.8124 -0.287101 0
M  V30 12643 H 1187.36 3.60951 1.62881 0
M  V30 12644 H 1188.53 4.47581 -1.0958 0
M  V30 12645 H 1186.85 4.07925 -0.835842 0
M  V30 12646 H 1189.45 5.04465 1.77255 0
M  V30 12647 H 1189.79 3.43376 2.35369 0
M  V30 12648 H 1190.32 3.91165 0.723513 0
M  V30 12649 H 1187.06 6.50934 -0.77237 0
M  V30 12650 H 1186.58 5.93856 0.842304 0
M  V30 12651 H 1188.26 6.44778 0.535726 0
M  V30 12652 N 1188.39 -0.0785156 1.57404 0
M  V30 12653 C 1189.64 -0.780092 1.87196 0
M  V30 12654 C 1189.97 -1.77562 0.78647 0
M  V30 12655 O 1189.25 -1.93428 -0.203935 0
M  V30 12656 C 1189.53 -1.49408 3.27642 0
M  V30 12657 C 1189.38 -0.515416 4.46837 0
M  V30 12658 C 1190.7 -2.44064 3.66225 0
M  V30 12659 H 1187.82 -0.282134 0.680859 0
M  V30 12660 H 1190.46 -0.0433926 1.8995 0
M  V30 12661 H 1188.61 -2.12205 3.25425 0
M  V30 12662 H 1190.28 0.106827 4.61176 0
M  V30 12663 H 1188.53 0.169832 4.33467 0
M  V30 12664 H 1189.2 -1.05247 5.41874 0
M  V30 12665 H 1191.67 -1.91349 3.69493 0
M  V30 12666 H 1190.55 -2.91029 4.65396 0
M  V30 12667 H 1190.81 -3.28569 2.95796 0
M  V30 12668 N 1189.87 -1.5367 -0.349747 0
M  V30 12669 C 1190.8 -1.7603 -1.4522 0
M  V30 12670 C 1191.78 -0.609171 -1.50758 0
M  V30 12671 O 1192.97 -0.843613 -1.68569 0
M  V30 12672 C 1190.09 -1.85336 -2.83493 0
M  V30 12673 C 1189.14 -3.07438 -2.95608 0
M  V30 12674 S 1189.97 -4.66625 -2.62719 0
M  V30 12675 C 1191.13 -4.78802 -4.03112 0
M  V30 12676 H 1191.36 -2.69263 -1.26035 0
M  V30 12677 H 1188.89 -1.4446 -0.545044 0
M  V30 12678 H 1190.85 -1.91383 -3.63157 0
M  V30 12679 H 1189.51 -0.931267 -2.99977 0
M  V30 12680 H 1188.71 -3.10606 -3.96913 0
M  V30 12681 H 1188.31 -2.99585 -2.23886 0
M  V30 12682 H 1190.6 -4.5983 -4.97557 0
M  V30 12683 H 1191.54 -5.80886 -4.04941 0
M  V30 12684 H 1191.95 -4.07305 -3.90849 0
M  V30 12685 N 1191.35 0.610423 -1.45298 0
M  V30 12686 C 1192.63 1.36966 -1.39641 0
M  V30 12687 C 1193.01 2.10998 -0.0655757 0
M  V30 12688 O 1192.35 2.07705 0.952407 0
M  V30 12689 C 1192.56 2.31885 -2.60826 0
M  V30 12690 C 1193.91 2.9458 -3.05791 0
M  V30 12691 O 1194.94 2.42207 -2.61179 0
M  V30 12692 O 1193.79 3.89639 -3.83202 0
M  V30 12693 H 1190.89 0.61401 -0.554004 0
M  V30 12694 H 1193.43 0.633748 -1.57422 0
M  V30 12695 H 1192.21 1.76421 -3.49272 0
M  V30 12696 H 1191.83 3.12861 -2.45364 0
M  V30 12697 N 1192.83 1.32541 0.852676 0
M  V30 12698 C 1194.24 1.20863 1.42299 0
M  V30 12699 C 1194.59 -0.178051 1.9539 0
M  V30 12700 O 1193.71 -1.07689 1.87702 0
M  V30 12701 C 1194.31 2.18811 2.58664 0
M  V30 12702 C 1192.87 2.11015 3.11689 0
M  V30 12703 C 1192.01 2.07067 1.84441 0
M  V30 12704 H 1194.97 1.44341 0.659657 0
M  V30 12705 H 1194.99 1.78779 3.35884 0
M  V30 12706 H 1194.5 3.19726 2.19993 0
M  V30 12707 H 1192.6 1.13354 3.54939 0
M  V30 12708 H 1192.71 3.00929 3.72799 0
M  V30 12709 H 1191.08 1.52335 2.04123 0
M  V30 12710 H 1191.86 3.09767 1.47984 0
M  V30 12711 N 1194.3 -1.0692 1.15784 0
M  V30 12712 C 1195.58 -1.76367 0.845825 0
M  V30 12713 C 1195.96 -2.00594 -0.657672 0
M  V30 12714 O 1195.31 -1.62794 -1.60345 0
M  V30 12715 C 1195.52 -3.06913 1.66149 0
M  V30 12716 C 1196.87 -3.81181 1.87046 0
M  V30 12717 O 1197.89 -3.16737 1.62961 0
M  V30 12718 O 1196.75 -4.96936 2.27413 0
M  V30 12719 H 1193.84 -0.766095 0.311493 0
M  V30 12720 H 1196.39 -1.13246 1.26386 0
M  V30 12721 H 1195.16 -2.84924 2.68205 0
M  V30 12722 H 1194.79 -3.77767 1.24007 0
M  V30 12723 N 1195.78 -0.955326 -1.25345 0
M  V30 12724 C 1196.69 -0.482707 -2.2958 0
M  V30 12725 C 1197.71 0.450283 -1.68073 0
M  V30 12726 O 1198.88 0.326358 -1.98738 0
M  V30 12727 C 1195.95 0.231293 -3.45928 0
M  V30 12728 C 1195.01 -0.739995 -4.22874 0
M  V30 12729 C 1194.24 -0.0599748 -5.33666 0
M  V30 12730 O 1194.47 1.15423 -5.586 0
M  V30 12731 O 1193.4 -0.745865 -5.97261 0
M  V30 12732 H 1197.23 -1.34892 -2.72099 0
M  V30 12733 H 1194.81 -0.721812 -1.30806 0
M  V30 12734 H 1196.69 0.632908 -4.1662 0
M  V30 12735 H 1195.37 1.07267 -3.0541 0
M  V30 12736 H 1194.28 -1.19183 -3.54607 0
M  V30 12737 H 1195.61 -1.54941 -4.67177 0
M  V30 12738 N 1197.26 1.39987 -0.723979 0
M  V30 12739 C 1198.19 2.3332 -0.0917282 0
M  V30 12740 C 1199.17 1.53335 0.736361 0
M  V30 12741 O 1200.36 1.81771 0.683582 0
M  V30 12742 C 1197.49 3.3737 0.824549 0
M  V30 12743 C 1196.44 4.2788 0.101452 0
M  V30 12744 C 1195.77 5.22536 1.13401 0
M  V30 12745 C 1197.07 5.11649 -1.04939 0
M  V30 12746 H 1198.76 2.86441 -0.871318 0
M  V30 12747 H 1196.31 1.37725 -0.420448 0
M  V30 12748 H 1198.26 4.01607 1.27631 0
M  V30 12749 H 1196.98 2.82663 1.63613 0
M  V30 12750 H 1195.64 3.65107 -0.330569 0
M  V30 12751 H 1195.29 4.64131 1.93886 0
M  V30 12752 H 1194.99 5.83938 0.65502 0
M  V30 12753 H 1196.52 5.89651 1.58569 0
M  V30 12754 H 1197.93 5.69293 -0.6766 0
M  V30 12755 H 1196.33 5.82137 -1.45729 0
M  V30 12756 H 1197.4 4.47132 -1.8762 0
M  V30 12757 N 1198.74 0.470782 1.50404 0
M  V30 12758 C 1200.15 0.0155901 1.86693 0
M  V30 12759 C 1200.5 -1.38908 1.38561 0
M  V30 12760 O 1199.63 -2.02971 0.750454 0
M  V30 12761 C 1200.22 0.0215152 3.38793 0
M  V30 12762 C 1198.78 -0.378206 3.74495 0
M  V30 12763 C 1197.93 0.407126 2.74295 0
M  V30 12764 H 1200.88 0.68507 1.43152 0
M  V30 12765 H 1200.9 -0.780717 3.72404 0
M  V30 12766 H 1200.41 1.04397 3.73795 0
M  V30 12767 H 1198.51 -1.40503 3.45094 0
M  V30 12768 H 1198.63 -0.0797643 4.79034 0
M  V30 12769 H 1196.99 -0.139123 2.5432 0
M  V30 12770 H 1197.77 1.42909 3.12141 0
M  V30 12771 N 1200.22 -1.56282 0.203376 0
M  V30 12772 C 1201.15 -2.2247 -0.709183 0
M  V30 12773 C 1202.13 -1.19046 -1.21499 0
M  V30 12774 O 1203.31 -1.47578 -1.26231 0
M  V30 12775 C 1200.44 -2.8905 -1.92529 0
M  V30 12776 C 1199.4 -3.98789 -1.55407 0
M  V30 12777 C 1198.72 -4.52574 -2.84747 0
M  V30 12778 C 1200.02 -5.16774 -0.75775 0
M  V30 12779 H 1201.72 -2.98986 -0.157392 0
M  V30 12780 H 1199.26 -1.43808 -0.0742613 0
M  V30 12781 H 1201.22 -3.34038 -2.56898 0
M  V30 12782 H 1199.94 -2.09952 -2.50175 0
M  V30 12783 H 1198.6 -3.54504 -0.933928 0
M  V30 12784 H 1198.25 -3.70229 -3.40499 0
M  V30 12785 H 1197.95 -5.26627 -2.6065 0
M  V30 12786 H 1199.47 -5.00269 -3.5009 0
M  V30 12787 H 1200.89 -5.58256 -1.30472 0
M  V30 12788 H 1199.28 -5.96945 -0.614583 0
M  V30 12789 H 1200.35 -4.84308 0.239476 0
M  V30 12790 N 1201.7 0.070167 -1.57444 0
M  V30 12791 C 1202.97 0.802108 -1.78397 0
M  V30 12792 C 1203.35 1.95706 -0.791356 0
M  V30 12793 O 1202.7 2.27827 0.17518 0
M  V30 12794 C 1202.91 1.27354 -3.24934 0
M  V30 12795 C 1204.26 1.70626 -3.88808 0
M  V30 12796 O 1205.28 1.36916 -3.28835 0
M  V30 12797 O 1204.14 2.33041 -4.94322 0
M  V30 12798 H 1201.24 0.384483 -0.73219 0
M  V30 12799 H 1203.78 0.0501168 -1.69626 0
M  V30 12800 H 1202.55 0.447204 -3.88736 0
M  V30 12801 H 1202.18 2.0868 -3.38435 0
M  V30 12802 N 1203.17 1.53854 0.341593 0
M  V30 12803 C 1204.08 1.84975 1.44297 0
M  V30 12804 C 1205.1 0.740057 1.57477 0
M  V30 12805 O 1206.28 1.03256 1.72917 0
M  V30 12806 C 1203.34 2.05464 2.79259 0
M  V30 12807 C 1202.4 3.29318 2.75405 0
M  V30 12808 C 1201.63 3.4882 4.03931 0
M  V30 12809 O 1201.86 2.7212 5.01305 0
M  V30 12810 O 1200.79 4.42253 4.08284 0
M  V30 12811 H 1204.62 2.78592 1.20913 0
M  V30 12812 H 1202.2 1.39532 0.533953 0
M  V30 12813 H 1204.08 2.20374 3.59184 0
M  V30 12814 H 1202.76 1.15035 3.0257 0
M  V30 12815 H 1201.67 3.1981 1.94094 0
M  V30 12816 H 1203 4.19746 2.57049 0
M  V30 12817 N 1204.65 -0.602709 1.4562 0
M  V30 12818 C 1205.6 -1.70753 1.51088 0
M  V30 12819 C 1206.59 -1.56501 0.373662 0
M  V30 12820 O 1207.78 -1.65755 0.620828 0
M  V30 12821 C 1204.91 -3.09515 1.48511 0
M  V30 12822 C 1203.99 -3.29135 2.67453 0
M  V30 12823 N 1204.38 -3.18996 3.92524 0
M  V30 12824 C 1202.68 -3.60019 2.63253 0
M  V30 12825 C 1203.38 -3.40079 4.71933 0
M  V30 12826 N 1202.36 -3.64299 4.03469 0
M  V30 12827 H 1206.16 -1.61414 2.45607 0
M  V30 12828 H 1203.67 -0.806122 1.4098 0
M  V30 12829 H 1205.67 -3.88782 1.50513 0
M  V30 12830 H 1204.33 -3.19999 0.550526 0
M  V30 12831 H 1205.34 -2.97292 4.24073 0
M  V30 12832 H 1202.02 -3.77311 1.78725 0
M  V30 12833 H 1203.41 -3.37593 5.80931 0
M  V30 12834 N 1206.13 -1.32992 -0.845635 0
M  V30 12835 C 1207.37 -1.2539 -1.61421 0
M  V30 12836 C 1207.73 0.179395 -1.9116 0
M  V30 12837 O 1208.93 0.379275 -2.66111 0
M  V30 12838 C 1207.21 -2.09817 -2.8933 0
M  V30 12839 S 1208.76 -2.19335 -3.80049 0
M  V30 12840 H 1205.58 -0.446202 -0.553556 0
M  V30 12841 H 1208.18 -1.67946 -1.00072 0
M  V30 12842 H 1206.89 -3.12999 -2.65443 0
M  V30 12843 H 1206.42 -1.68073 -3.5569 0
M  V30 12844 H 1208.43 -1.34946 -4.77498 0
M  V30 12845 N 1207.61 1.06304 -1.1635 0
M  V30 12846 C 1208.52 2.17296 -0.884289 0
M  V30 12847 C 1209.53 1.73408 0.143414 0
M  V30 12848 O 1210.71 2.01373 -0.0331987 0
M  V30 12849 C 1207.77 3.44509 -0.389163 0
M  V30 12850 C 1206.84 4.02906 -1.48208 0
M  V30 12851 C 1206.07 5.24047 -1.01048 0
M  V30 12852 O 1206.29 5.70229 0.139821 0
M  V30 12853 O 1205.23 5.74394 -1.79876 0
M  V30 12854 H 1209.05 2.4369 -1.81243 0
M  V30 12855 H 1206.64 1.15841 -0.943459 0
M  V30 12856 H 1208.52 4.21229 -0.120018 0
M  V30 12857 H 1207.19 3.19642 0.510968 0
M  V30 12858 H 1206.1 3.27677 -1.80496 0
M  V30 12859 H 1207.43 4.32068 -2.35751 0
M  V30 12860 N 1209.09 0.96196 1.24836 0
M  V30 12861 C 1210.5 0.667561 1.44968 0
M  V30 12862 C 1210.7 -0.772521 1.86103 0
M  V30 12863 O 1209.76 -1.54704 1.99557 0
M  V30 12864 C 1211.07 1.64675 2.516 0
M  V30 12865 C 1212.62 1.65874 2.65433 0
M  V30 12866 C 1213.09 2.62576 3.75257 0
M  V30 12867 N 1214.58 2.60984 3.82677 0
M  V30 12868 C 1215.32 3.32484 4.67163 0
M  V30 12869 N 1214.82 4.13482 5.55882 0
M  V30 12870 N 1216.61 3.21336 4.61193 0
M  V30 12871 H 1208.76 1.89248 0.964307 0
M  V30 12872 H 1211.02 0.814443 0.485167 0
M  V30 12873 H 1210.73 2.67572 2.2825 0
M  V30 12874 H 1210.6 1.415 3.49653 0
M  V30 12875 H 1212.99 0.636912 2.88145 0
M  V30 12876 H 1213.07 1.9311 1.67756 0
M  V30 12877 H 1212.71 3.6489 3.53295 0
M  V30 12878 H 1212.64 2.32622 4.72435 0
M  V30 12879 H 1215.14 2.02187 3.19263 0
M  V30 12880 H 1215.45 4.6494 6.17293 0
M  V30 12881 H 1213.79 4.17578 5.55566 0
M  V30 12882 H 1216.98 2.57524 3.90895 0
M  V30 12883 H 1217.16 3.77323 5.26812 0
M  V30 12884 N 1210.56 -1.39601 0.731392 0
M  V30 12885 C 1211.49 -2.33268 0.1041 0
M  V30 12886 C 1212.47 -1.53724 -0.728219 0
M  V30 12887 O 1213.66 -1.82131 -0.673933 0
M  V30 12888 C 1210.79 -3.37802 -0.806646 0
M  V30 12889 C 1209.74 -4.27928 -0.0787588 0
M  V30 12890 C 1209.07 -5.23131 -1.10628 0
M  V30 12891 C 1210.37 -5.11086 1.07651 0
M  V30 12892 H 1212.06 -2.85975 0.886496 0
M  V30 12893 H 1209.61 -1.375 0.427746 0
M  V30 12894 H 1211.56 -4.02278 -1.25499 0
M  V30 12895 H 1210.29 -2.83527 -1.62112 0
M  V30 12896 H 1208.95 -3.64926 0.349926 0
M  V30 12897 H 1208.59 -4.65152 -1.91422 0
M  V30 12898 H 1208.29 -5.84277 -0.624043 0
M  V30 12899 H 1209.82 -5.90483 -1.5544 0
M  V30 12900 H 1211.23 -5.68927 0.706781 0
M  V30 12901 H 1209.63 -5.81356 1.48814 0
M  V30 12902 H 1210.7 -4.46131 1.89988 0
M  V30 12903 N 1212.04 -0.478751 -1.50152 0
M  V30 12904 C 1213.45 -0.0254907 -1.86683 0
M  V30 12905 C 1213.8 1.38171 -1.39295 0
M  V30 12906 O 1212.93 2.0257 -0.761207 0
M  V30 12907 C 1213.52 -0.0394819 -3.38777 0
M  V30 12908 C 1212.08 0.35834 -3.7469 0
M  V30 12909 C 1211.23 -0.421667 -2.74075 0
M  V30 12910 H 1214.18 -0.692653 -1.42787 0
M  V30 12911 H 1214.2 0.760957 -3.72813 0
M  V30 12912 H 1213.71 -1.06378 -3.73236 0
M  V30 12913 H 1211.82 1.38671 -3.45834 0
M  V30 12914 H 1211.93 0.0543589 -4.79069 0
M  V30 12915 H 1210.29 0.125634 -2.5439 0
M  V30 12916 H 1211.08 -1.44562 -3.11379 0
M  V30 12917 N 1213.52 1.56172 -0.211661 0
M  V30 12918 C 1214.75 2.02135 0.427222 0
M  V30 12919 C 1215.16 1.09084 1.54587 0
M  V30 12920 O 1214.5 0.090906 1.83475 0
M  V30 12921 C 1214.56 3.44459 1.029 0
M  V30 12922 C 1214.23 4.56976 0.0470243 0
M  V30 12923 C 1215.22 5.14466 -0.749724 0
M  V30 12924 C 1212.91 5.02253 -0.0688634 0
M  V30 12925 C 1214.9 6.15696 -1.64916 0
M  V30 12926 C 1212.59 6.03323 -0.971844 0
M  V30 12927 C 1213.59 6.5992 -1.76055 0
M  V30 12928 O 1213.28 7.59024 -2.64837 0
M  V30 12929 H 1213.01 0.667008 0.109894 0
M  V30 12930 H 1215.56 2.02851 -0.322595 0
M  V30 12931 H 1213.79 3.4078 1.82772 0
M  V30 12932 H 1215.48 3.74128 1.57425 0
M  V30 12933 H 1216.25 4.80342 -0.670588 0
M  V30 12934 H 1212.13 4.57886 0.534889 0
M  V30 12935 H 1215.67 6.59798 -2.26521 0
M  V30 12936 H 1211.57 6.36869 -1.05203 0
M  V30 12937 H 1212.34 7.76508 -2.58801 0
M  V30 12938 N 1215 -0.0618163 1.57479 0
M  V30 12939 C 1216.28 -0.792636 1.7882 0
M  V30 12940 C 1216.66 -1.95283 0.801724 0
M  V30 12941 O 1216 -2.27917 -0.163095 0
M  V30 12942 C 1216.21 -1.25629 3.25605 0
M  V30 12943 C 1217.56 -1.68561 3.89708 0
M  V30 12944 O 1218.59 -1.35171 3.29556 0
M  V30 12945 O 1217.44 -2.30417 4.95551 0
M  V30 12946 H 1214.54 -0.380595 0.734218 0
M  V30 12947 H 1217.08 -0.0411205 1.6965 0
M  V30 12948 H 1215.86 -0.426582 3.88968 0
M  V30 12949 H 1215.48 -2.06882 3.39537 0
M  V30 12950 N 1216.48 -1.54033 -0.333429 0
M  V30 12951 C 1217.44 -1.82021 -1.39288 0
M  V30 12952 C 1218.44 -0.691623 -1.45166 0
M  V30 12953 O 1219.63 -0.959925 -1.45365 0
M  V30 12954 C 1216.76 -1.97136 -2.78119 0
M  V30 12955 H 1217.95 -2.76671 -1.1573 0
M  V30 12956 H 1215.51 -1.45599 -0.568376 0
M  V30 12957 H 1216.24 -1.04663 -3.06946 0
M  V30 12958 H 1216.03 -2.79251 -2.75247 0
M  V30 12959 H 1217.52 -2.20271 -3.54782 0
M  V30 12960 N 1217.95 0.594978 -1.45938 0
M  V30 12961 C 1219.18 1.38482 -1.54394 0
M  V30 12962 C 1219.6 1.87222 -0.181563 0
M  V30 12963 O 1218.96 1.60869 0.836119 0
M  V30 12964 C 1219.01 2.55676 -2.54287 0
M  V30 12965 O 1218.11 3.5672 -2.06941 0
M  V30 12966 H 1217.46 0.412918 -0.519995 0
M  V30 12967 H 1219.99 0.722899 -1.91404 0
M  V30 12968 H 1220 3.02756 -2.73501 0
M  V30 12969 H 1218.67 2.19552 -3.53228 0
M  V30 12970 H 1217.25 3.16204 -1.97661 0
M  V30 12971 N 1219.43 1.33438 0.838571 0
M  V30 12972 C 1220.38 1.23717 1.94841 0
M  V30 12973 C 1221.35 0.11573 1.65696 0
M  V30 12974 O 1222.53 0.294051 1.8852 0
M  V30 12975 C 1219.67 0.982626 3.30815 0
M  V30 12976 C 1218.79 2.19036 3.72354 0
M  V30 12977 C 1217.92 1.86995 4.97199 0
M  V30 12978 C 1216.96 3.03998 5.31274 0
M  V30 12979 N 1216.1 2.71943 6.47295 0
M  V30 12980 H 1220.94 2.18639 2.02487 0
M  V30 12981 H 1218.48 1.08721 0.990861 0
M  V30 12982 H 1220.43 0.81548 4.09152 0
M  V30 12983 H 1219.06 0.0701443 3.22724 0
M  V30 12984 H 1218.12 2.46724 2.89537 0
M  V30 12985 H 1219.43 3.06505 3.93518 0
M  V30 12986 H 1218.58 1.66925 5.83285 0
M  V30 12987 H 1217.32 0.967628 4.78004 0
M  V30 12988 H 1216.33 3.24681 4.43692 0
M  V30 12989 H 1217.55 3.94985 5.52416 0
M  V30 12990 H 1215.5 1.8427 6.29588 0
M  V30 12991 H 1215.41 3.52943 6.68556 0
M  V30 12992 H 1216.68 2.55342 7.36492 0
M  V30 12993 N 1220.91 -1.05686 1.16912 0
M  V30 12994 C 1222.16 -1.79006 0.965835 0
M  V30 12995 C 1222.51 -1.85774 -0.500593 0
M  V30 12996 O 1221.8 -1.34282 -1.3667 0
M  V30 12997 C 1222 -3.22779 1.53455 0
M  V30 12998 C 1221.83 -3.30023 3.05474 0
M  V30 12999 C 1220.6 -3.396 3.74166 0
M  V30 13000 C 1222.8 -3.19376 4.03117 0
M  V30 13001 N 1220.78 -3.35923 5.13838 0
M  V30 13002 C 1222.15 -3.23013 5.2921 0
M  V30 13003 C 1224.2 -3.03304 3.94856 0
M  V30 13004 C 1222.91 -3.12228 6.48002 0
M  V30 13005 C 1224.93 -2.93859 5.13226 0
M  V30 13006 C 1224.29 -2.98124 6.38202 0
M  V30 13007 H 1220.39 -0.667577 0.407266 0
M  V30 13008 H 1222.98 -1.26025 1.48411 0
M  V30 13009 H 1221.15 -3.74143 1.04268 0
M  V30 13010 H 1222.88 -3.8431 1.26839 0
M  V30 13011 H 1219.64 -3.44654 3.24824 0
M  V30 13012 H 1220.06 -3.37567 5.86837 0
M  V30 13013 H 1224.7 -2.98848 2.99081 0
M  V30 13014 H 1222.42 -3.15439 7.43992 0
M  V30 13015 H 1226.01 -2.82501 5.0861 0
M  V30 13016 H 1224.89 -2.90882 7.28256 0
M  V30 13017 N 1222.39 -0.968567 -1.24324 0
M  V30 13018 C 1223.3 -0.50703 -2.29055 0
M  V30 13019 C 1224.31 0.432431 -1.68541 0
M  V30 13020 O 1225.49 0.30526 -1.99073 0
M  V30 13021 C 1222.56 0.194589 -3.46153 0
M  V30 13022 C 1221.62 -0.784805 -4.22066 0
M  V30 13023 C 1220.85 -0.116574 -5.33573 0
M  V30 13024 O 1221.07 1.09492 -5.59792 0
M  V30 13025 O 1220.01 -0.809171 -5.96436 0
M  V30 13026 H 1223.83 -1.3777 -2.70653 0
M  V30 13027 H 1221.42 -0.735645 -1.30033 0
M  V30 13028 H 1223.3 0.588684 -4.17268 0
M  V30 13029 H 1221.97 1.04021 -3.06531 0
M  V30 13030 H 1220.88 -1.22938 -3.53323 0
M  V30 13031 H 1222.21 -1.59887 -4.65507 0
M  V30 13032 N 1223.87 1.39211 -0.738786 0
M  V30 13033 C 1225.11 2.00436 -0.28839 0
M  V30 13034 C 1225.44 1.58626 1.12552 0
M  V30 13035 O 1224.7 0.808154 1.78234 0
M  V30 13036 C 1225 3.55758 -0.342224 0
M  V30 13037 C 1224.66 4.1723 -1.70968 0
M  V30 13038 C 1223.32 4.33734 -2.08395 0
M  V30 13039 C 1225.68 4.51294 -2.60736 0
M  V30 13040 C 1223 4.81592 -3.35091 0
M  V30 13041 C 1225.36 5.00562 -3.86808 0
M  V30 13042 C 1224.02 5.15274 -4.24322 0
M  V30 13043 H 1223.29 0.733447 -0.105529 0
M  V30 13044 H 1225.94 1.66481 -0.94637 0
M  V30 13045 H 1224.24 3.8976 0.399331 0
M  V30 13046 H 1225.94 4.00993 0.0244582 0
M  V30 13047 H 1222.53 4.04788 -1.4087 0
M  V30 13048 H 1226.71 4.38158 -2.3309 0
M  V30 13049 H 1221.97 4.91167 -3.64095 0
M  V30 13050 H 1226.14 5.25892 -4.5652 0
M  V30 13051 H 1223.77 5.52119 -5.2256 0
M  V30 13052 N 1225.34 0.486708 1.49896 0
M  V30 13053 C 1226.76 0.0353906 1.86666 0
M  V30 13054 C 1227.11 -1.3743 1.40026 0
M  V30 13055 O 1226.23 -2.02163 0.77194 0
M  V30 13056 C 1226.83 0.0574475 3.38751 0
M  V30 13057 C 1225.39 -0.338464 3.74875 0
M  V30 13058 C 1224.53 0.436196 2.73848 0
M  V30 13059 H 1227.48 0.700215 1.42417 0
M  V30 13060 H 1227.5 -0.741175 3.73212 0
M  V30 13061 H 1227.02 1.08356 3.72667 0
M  V30 13062 H 1225.12 -1.36835 3.46565 0
M  V30 13063 H 1225.23 -0.0289519 4.79091 0
M  V30 13064 H 1223.59 -0.112141 2.54453 0
M  V30 13065 H 1224.38 1.46212 3.10608 0
M  V30 13066 N 1226.82 -1.56058 0.219941 0
M  V30 13067 C 1228.24 -1.59024 -0.135476 0
M  V30 13068 C 1228.44 -1.23672 -1.59083 0
M  V30 13069 O 1227.5 -0.971197 -2.33075 0
M  V30 13070 C 1228.81 -3.00103 0.189356 0
M  V30 13071 C 1230.36 -3.12724 0.131463 0
M  V30 13072 C 1230.83 -4.55977 0.429947 0
M  V30 13073 N 1232.32 -4.61643 0.37946 0
M  V30 13074 C 1233.06 -5.70419 0.58393 0
M  V30 13075 N 1232.55 -6.87565 0.850088 0
M  V30 13076 N 1234.35 -5.59722 0.516477 0
M  V30 13077 H 1226.5 -1.77313 1.16935 0
M  V30 13078 H 1228.76 -0.824096 0.468583 0
M  V30 13079 H 1228.47 -3.30616 1.19941 0
M  V30 13080 H 1228.34 -3.73919 -0.49641 0
M  V30 13081 H 1230.73 -2.82008 -0.869223 0
M  V30 13082 H 1230.81 -2.41241 0.85068 0
M  V30 13083 H 1230.45 -4.8741 1.42806 0
M  V30 13084 H 1230.38 -5.25684 -0.310444 0
M  V30 13085 H 1232.87 -3.77465 0.181373 0
M  V30 13086 H 1233.19 -7.66378 0.994251 0
M  V30 13087 H 1231.53 -6.89313 0.887265 0
M  V30 13088 H 1234.72 -4.6708 0.308784 0
M  V30 13089 H 1234.9 -6.4443 0.679236 0
M  V30 13090 N 1228.3 0.053464 -1.57509 0
M  V30 13091 C 1229.58 0.783141 -1.79238 0
M  V30 13092 C 1229.96 1.94855 -0.812069 0
M  V30 13093 O 1229.31 2.28 0.151006 0
M  V30 13094 C 1229.52 1.239 -3.26266 0
M  V30 13095 C 1230.86 1.66492 -3.90596 0
M  V30 13096 O 1231.89 1.33421 -3.30269 0
M  V30 13097 O 1230.75 2.27785 -4.96766 0
M  V30 13098 H 1227.84 0.376696 -0.736226 0
M  V30 13099 H 1230.39 0.0321229 -1.6967 0
M  V30 13100 H 1229.16 0.405948 -3.89189 0
M  V30 13101 H 1228.78 2.05078 -3.4063 0
M  V30 13102 N 1229.78 1.54207 0.325255 0
M  V30 13103 C 1231.2 1.44879 0.669492 0
M  V30 13104 C 1231.4 0.620298 1.91715 0
M  V30 13105 O 1230.45 0.118435 2.52222 0
M  V30 13106 C 1231.76 2.88581 0.845077 0
M  V30 13107 C 1233.31 2.98472 0.942527 0
M  V30 13108 C 1233.79 4.4332 1.15029 0
M  V30 13109 N 1235.28 4.46925 1.21707 0
M  V30 13110 C 1236.01 5.56155 1.39568 0
M  V30 13111 N 1235.51 6.75357 1.54483 0
M  V30 13112 N 1237.3 5.43799 1.42263 0
M  V30 13113 H 1229.45 2.06556 -0.494819 0
M  V30 13114 H 1231.72 0.934474 -0.159568 0
M  V30 13115 H 1231.42 3.517 -0.000442996 0
M  V30 13116 H 1231.3 3.34596 1.74141 0
M  V30 13117 H 1233.68 2.35481 1.77855 0
M  V30 13118 H 1233.76 2.5579 0.0226995 0
M  V30 13119 H 1233.41 5.06896 0.319127 0
M  V30 13120 H 1233.34 4.8361 2.08397 0
M  V30 13121 H 1235.83 3.61036 1.11632 0
M  V30 13122 H 1236.14 7.54363 1.67799 0
M  V30 13123 H 1234.49 6.78268 1.51584 0
M  V30 13124 H 1237.68 4.49627 1.30205 0
M  V30 13125 H 1237.85 6.28982 1.5584 0
M  V30 13126 N 1231.26 -0.58723 1.46251 0
M  V30 13127 C 1232.19 -1.70694 1.5933 0
M  V30 13128 C 1233.17 -1.64208 0.443831 0
M  V30 13129 O 1234.35 -1.82294 0.669516 0
M  V30 13130 C 1231.48 -3.0933 1.579 0
M  V30 13131 C 1230.44 -3.30643 2.7177 0
M  V30 13132 C 1229.76 -4.69761 2.554 0
M  V30 13133 C 1231.06 -3.18916 4.1363 0
M  V30 13134 H 1232.76 -1.60004 2.53059 0
M  V30 13135 H 1230.3 -0.768343 1.21789 0
M  V30 13136 H 1232.26 -3.87479 1.65644 0
M  V30 13137 H 1230.98 -3.20907 0.60712 0
M  V30 13138 H 1229.64 -2.54892 2.63488 0
M  V30 13139 H 1229.29 -4.78098 1.56306 0
M  V30 13140 H 1228.99 -4.84974 3.31774 0
M  V30 13141 H 1230.51 -5.50084 2.65028 0
M  V30 13142 H 1231.93 -3.86915 4.23048 0
M  V30 13143 H 1230.32 -3.45653 4.90555 0
M  V30 13144 H 1231.39 -2.1606 4.34104 0
M  V30 13145 N 1232.74 -1.33881 -0.831482 0
M  V30 13146 C 1233.68 -1.24748 -1.94182 0
M  V30 13147 C 1234.65 -0.124516 -1.65633 0
M  V30 13148 O 1235.84 -0.304045 -1.88362 0
M  V30 13149 C 1232.98 -1.00016 -3.30289 0
M  V30 13150 C 1232.09 -2.21007 -3.71187 0
M  V30 13151 C 1231.23 -1.89629 -4.962 0
M  V30 13152 C 1230.26 -3.06811 -5.29654 0
M  V30 13153 N 1229.4 -2.75372 -6.45844 0
M  V30 13154 H 1234.24 -2.19709 -2.01325 0
M  V30 13155 H 1231.78 -1.09245 -0.985081 0
M  V30 13156 H 1233.74 -0.837167 -4.08714 0
M  V30 13157 H 1232.37 -0.0872582 -3.22682 0
M  V30 13158 H 1231.42 -2.48256 -2.88224 0
M  V30 13159 H 1232.73 -3.08587 -3.91887 0
M  V30 13160 H 1231.88 -1.70016 -5.82391 0
M  V30 13161 H 1230.62 -0.992964 -4.77485 0
M  V30 13162 H 1229.63 -3.27029 -4.41964 0
M  V30 13163 H 1230.85 -3.97909 -5.50314 0
M  V30 13164 H 1228.8 -1.87607 -6.28601 0
M  V30 13165 H 1228.72 -3.56483 -6.66675 0
M  V30 13166 H 1229.98 -2.59244 -7.35128 0
M  V30 13167 N 1234.21 1.05064 -1.1747 0
M  V30 13168 C 1235.14 2.14786 -0.915936 0
M  V30 13169 C 1236.12 1.69502 0.142561 0
M  V30 13170 O 1237.31 1.94198 -0.00794522 0
M  V30 13171 C 1234.44 3.44629 -0.429864 0
M  V30 13172 C 1233.39 4.03486 -1.42769 0
M  V30 13173 C 1232.72 5.28689 -0.799528 0
M  V30 13174 C 1234.02 4.40823 -2.80129 0
M  V30 13175 H 1235.71 2.3669 -1.83352 0
M  V30 13176 H 1233.26 1.13751 -0.882992 0
M  V30 13177 H 1235.21 4.20737 -0.236245 0
M  V30 13178 H 1233.94 3.22381 0.523263 0
M  V30 13179 H 1232.6 3.29449 -1.60808 0
M  V30 13180 H 1232.24 5.02744 0.160474 0
M  V30 13181 H 1231.94 5.69028 -1.46565 0
M  V30 13182 H 1233.47 6.07483 -0.616212 0
M  V30 13183 H 1234.88 5.07959 -2.65801 0
M  V30 13184 H 1233.28 4.92183 -3.43331 0
M  V30 13185 H 1234.35 3.51108 -3.34441 0
M  V30 13186 N 1235.69 0.975146 1.23809 0
M  V30 13187 C 1236.94 0.639858 1.91704 0
M  V30 13188 C 1237.26 -0.828557 1.76522 0
M  V30 13189 O 1236.53 -1.59217 1.14135 0
M  V30 13190 H 1235.11 0.233667 0.709513 0
M  V30 13191 H 1237.77 1.23782 1.50545 0
M  V30 13192 H 1236.87 0.886915 2.99233 0
M  V30 13193 N 1237.17 -1.38817 0.746158 0
M  V30 13194 C 1238.12 -2.30521 0.113517 0
M  V30 13195 C 1239.09 -1.49795 -0.717682 0
M  V30 13196 O 1240.27 -1.78448 -0.675345 0
M  V30 13197 C 1237.41 -3.36185 -0.779343 0
M  V30 13198 C 1236.52 -4.3195 0.0656784 0
M  V30 13199 C 1235.66 -5.24684 -0.829492 0
M  V30 13200 C 1234.7 -6.12097 0.0196112 0
M  V30 13201 N 1233.84 -6.97152 -0.832107 0
M  V30 13202 H 1238.68 -2.84048 0.901136 0
M  V30 13203 H 1236.21 -1.39853 0.456025 0
M  V30 13204 H 1238.17 -3.96048 -1.31156 0
M  V30 13205 H 1236.8 -2.84085 -1.53282 0
M  V30 13206 H 1235.85 -3.73611 0.715445 0
M  V30 13207 H 1237.16 -4.93551 0.721735 0
M  V30 13208 H 1236.32 -5.89627 -1.42915 0
M  V30 13209 H 1235.06 -4.63431 -1.5193 0
M  V30 13210 H 1234.06 -5.46156 0.631991 0
M  V30 13211 H 1235.29 -6.75416 0.706369 0
M  V30 13212 H 1233.23 -6.38456 -1.507 0
M  V30 13213 H 1233.15 -7.55642 -0.232782 0
M  V30 13214 H 1234.42 -7.66513 -1.41697 0
M  V30 13215 N 1238.65 -0.49465 -1.49636 0
M  V30 13216 C 1240.06 -0.0452894 -1.86645 0
M  V30 13217 C 1240.41 1.36686 -1.40753 0
M  V30 13218 O 1239.53 2.01751 -0.78265 0
M  V30 13219 C 1240.13 -0.0754115 -3.38716 0
M  V30 13220 C 1238.69 0.318579 -3.75049 0
M  V30 13221 C 1237.84 -0.450712 -2.73613 0
M  V30 13222 H 1240.79 -0.707758 -1.42044 0
M  V30 13223 H 1240.81 0.721372 -3.73599 0
M  V30 13224 H 1240.32 -1.10331 -3.72087 0
M  V30 13225 H 1238.42 1.34995 -3.47285 0
M  V30 13226 H 1238.53 0.00354416 -4.791 0
M  V30 13227 H 1236.9 0.0986455 -2.54509 0
M  V30 13228 H 1237.68 -1.47857 -3.09828 0
M  V30 13229 N 1240.13 1.55939 -0.228214 0
M  V30 13230 C 1241.06 2.2357 0.6737 0
M  V30 13231 C 1242.04 1.20964 1.1959 0
M  V30 13232 O 1243.22 1.49568 1.23867 0
M  V30 13233 C 1240.35 2.92076 1.87906 0
M  V30 13234 C 1239.31 4.01211 1.49043 0
M  V30 13235 C 1238.63 4.57047 2.77511 0
M  V30 13236 C 1239.93 5.17914 0.67544 0
M  V30 13237 H 1241.63 2.99199 0.109806 0
M  V30 13238 H 1239.17 1.43908 0.0513732 0
M  V30 13239 H 1241.12 3.38083 2.51551 0
M  V30 13240 H 1239.85 2.13906 2.46803 0
M  V30 13241 H 1238.51 3.55945 0.877411 0
M  V30 13242 H 1238.16 3.75599 3.34566 0
M  V30 13243 H 1237.86 5.30707 2.52239 0
M  V30 13244 H 1239.38 5.05776 3.42087 0
M  V30 13245 H 1240.79 5.60261 1.21575 0
M  V30 13246 H 1239.19 5.97847 0.519536 0
M  V30 13247 H 1240.26 4.83866 -0.316495 0
M  V30 13248 N 1241.6 -0.0451101 1.57535 0
M  V30 13249 C 1242.85 -0.737654 1.88157 0
M  V30 13250 C 1243.17 -1.76743 0.823817 0
M  V30 13251 O 1242.44 -1.95366 -0.144503 0
M  V30 13252 H 1241.02 -0.275431 0.694368 0
M  V30 13253 H 1243.69 -0.0148651 1.94894 0
M  V30 13254 H 1242.78 -1.23726 2.86528 0
M  V30 13255 N 1243.08 -1.54377 -0.317073 0
M  V30 13256 C 1244.5 -1.45232 -0.6618 0
M  V30 13257 C 1244.7 -0.630457 -1.91383 0
M  V30 13258 O 1243.75 -0.13181 -2.52156 0
M  V30 13259 C 1245.07 -2.89025 -0.829761 0
M  V30 13260 C 1246.62 -2.98967 -0.926685 0
M  V30 13261 C 1247.09 -4.43923 -1.12677 0
M  V30 13262 N 1248.58 -4.47564 -1.19335 0
M  V30 13263 C 1249.32 -5.56887 -1.36617 0
M  V30 13264 N 1248.81 -6.76167 -1.50899 0
M  V30 13265 N 1250.61 -5.44546 -1.39377 0
M  V30 13266 H 1242.76 -2.0629 0.505766 0
M  V30 13267 H 1245.02 -0.933615 0.164522 0
M  V30 13268 H 1244.73 -3.51695 0.0190945 0
M  V30 13269 H 1244.6 -3.35515 -1.72364 0
M  V30 13270 H 1246.99 -2.36421 -1.76604 0
M  V30 13271 H 1247.07 -2.55798 -0.00913402 0
M  V30 13272 H 1246.71 -5.07059 -0.29224 0
M  V30 13273 H 1246.64 -4.84708 -2.05829 0
M  V30 13274 H 1249.13 -3.61623 -1.09715 0
M  V30 13275 H 1249.45 -7.55242 -1.63796 0
M  V30 13276 H 1247.79 -6.79062 -1.47985 0
M  V30 13277 H 1250.98 -4.50311 -1.27819 0
M  V30 13278 H 1251.15 -6.29799 -1.52502 0
M  V30 13279 N 1244.56 0.579466 -1.4656 0
M  V30 13280 C 1245.81 1.33492 -1.51738 0
M  V30 13281 C 1246.13 1.94241 -0.171926 0
M  V30 13282 O 1245.4 1.78737 0.801875 0
M  V30 13283 H 1243.98 0.49565 -0.558874 0
M  V30 13284 H 1246.64 0.678394 -1.82712 0
M  V30 13285 H 1245.74 2.13995 -2.27183 0
M  V30 13286 N 1246.04 1.3432 0.824371 0
M  V30 13287 C 1247 1.25672 1.91675 0
M  V30 13288 C 1248 0.172269 1.59875 0
M  V30 13289 O 1249.19 0.424794 1.68941 0
M  V30 13290 C 1246.32 0.939928 3.27686 0
M  V30 13291 H 1247.52 2.22785 2.00766 0
M  V30 13292 H 1245.07 1.18587 1.01817 0
M  V30 13293 H 1245.8 -0.0280898 3.24288 0
M  V30 13294 H 1245.59 1.72432 3.5215 0
M  V30 13295 H 1247.08 0.904553 4.07686 0
M  V30 13296 N 1247.52 -1.0444 1.18026 0
M  V30 13297 C 1248.76 -1.77575 0.973314 0
M  V30 13298 C 1249.09 -1.88032 -0.4974 0
M  V30 13299 O 1248.35 -1.38214 -1.38548 0
M  V30 13300 C 1248.65 -3.21134 1.56869 0
M  V30 13301 C 1248.31 -3.30718 3.0649 0
M  V30 13302 C 1246.97 -3.33041 3.47328 0
M  V30 13303 C 1249.33 -3.3112 4.02503 0
M  V30 13304 C 1246.65 -3.33404 4.82762 0
M  V30 13305 C 1249.01 -3.33023 5.37846 0
M  V30 13306 C 1247.67 -3.33636 5.78138 0
M  V30 13307 H 1246.94 -0.649793 0.356161 0
M  V30 13308 H 1249.59 -1.22693 1.47033 0
M  V30 13309 H 1247.89 -3.78992 0.993584 0
M  V30 13310 H 1249.59 -3.76358 1.38404 0
M  V30 13311 H 1246.18 -3.29628 2.7394 0
M  V30 13312 H 1250.36 -3.2852 3.72006 0
M  V30 13313 H 1245.62 -3.32194 5.13281 0
M  V30 13314 H 1249.79 -3.32283 6.12014 0
M  V30 13315 H 1247.42 -3.33671 6.83058 0
M  V30 13316 N 1248.99 -0.981699 -1.2329 0
M  V30 13317 C 1250.24 -0.650015 -1.91361 0
M  V30 13318 C 1250.56 0.819184 -1.76959 0
M  V30 13319 O 1249.83 1.5861 -1.14977 0
M  V30 13320 H 1248.41 -0.237427 -0.708264 0
M  V30 13321 H 1251.08 -1.24579 -1.49887 0
M  V30 13322 H 1250.17 -0.902772 -2.98758 0
M  V30 13323 N 1250.47 1.3842 -0.753509 0
M  V30 13324 C 1251.4 2.29039 -0.0859463 0
M  V30 13325 C 1252.42 1.47742 0.68383 0
M  V30 13326 O 1253.61 1.70607 0.524933 0
M  V30 13327 C 1250.71 3.26668 0.902296 0
M  V30 13328 C 1249.88 4.36986 0.190178 0
M  V30 13329 C 1248.94 5.14805 1.08916 0
M  V30 13330 O 1247.96 5.66441 0.559715 0
M  V30 13331 N 1249.17 5.27777 2.41726 0
M  V30 13332 H 1251.93 2.8697 -0.864196 0
M  V30 13333 H 1249.49 1.502 -0.604288 0
M  V30 13334 H 1251.48 3.75606 1.50672 0
M  V30 13335 H 1250.05 2.69636 1.58163 0
M  V30 13336 H 1249.27 3.89684 -0.594959 0
M  V30 13337 H 1250.56 5.07899 -0.302594 0
M  V30 13338 H 1249.96 4.87376 2.87196 0
M  V30 13339 H 1248.52 5.8009 2.97219 0
M  V30 13340 N 1251.95 0.502579 1.49372 0
M  V30 13341 C 1253.2 -0.0414423 2.02758 0
M  V30 13342 C 1253.53 -1.36499 1.38136 0
M  V30 13343 O 1252.8 -1.87487 0.517593 0
M  V30 13344 C 1253.09 -0.192333 3.59586 0
M  V30 13345 C 1252.94 1.15445 4.34733 0
M  V30 13346 C 1254.26 -0.932218 4.30114 0
M  V30 13347 H 1251.38 -0.0135869 0.736875 0
M  V30 13348 H 1254.02 0.654296 1.78379 0
M  V30 13349 H 1252.17 -0.78491 3.80488 0
M  V30 13350 H 1253.84 1.78603 4.25322 0
M  V30 13351 H 1252.09 1.74333 3.97228 0
M  V30 13352 H 1252.76 1.00216 5.42827 0
M  V30 13353 H 1255.23 -0.429632 4.13876 0
M  V30 13354 H 1254.11 -1.00664 5.39591 0
M  V30 13355 H 1254.37 -1.9763 3.95468 0
M  V30 13356 N 1253.43 -1.55816 0.23648 0
M  V30 13357 C 1254.68 -1.97862 -0.391579 0
M  V30 13358 C 1254.99 -1.1276 -1.59827 0
M  V30 13359 O 1256.2 -1.44772 -2.29681 0
M  V30 13360 C 1254.65 -3.5204 -0.748065 0
M  V30 13361 C 1254.26 -4.45867 0.436643 0
M  V30 13362 C 1256 -4.02766 -1.3409 0
M  V30 13363 C 1253.91 -5.91373 0.0568909 0
M  V30 13364 H 1252.84 -0.738913 -0.150078 0
M  V30 13365 H 1255.49 -1.80415 0.335052 0
M  V30 13366 H 1253.87 -3.65143 -1.53254 0
M  V30 13367 H 1255.05 -4.44519 1.21408 0
M  V30 13368 H 1253.36 -4.05565 0.943702 0
M  V30 13369 H 1255.96 -5.08987 -1.63817 0
M  V30 13370 H 1256.3 -3.49496 -2.26182 0
M  V30 13371 H 1256.84 -3.92946 -0.619548 0
M  V30 13372 H 1253.58 -6.48657 0.944682 0
M  V30 13373 H 1253.1 -5.95881 -0.684557 0
M  V30 13374 H 1254.77 -6.45972 -0.364586 0
M  V30 13375 N 1254.91 0.036755 -1.57557 0
M  V30 13376 C 1255.82 1.05687 -2.09446 0
M  V30 13377 C 1256.83 1.40137 -1.03139 0
M  V30 13378 O 1258.01 1.49611 -1.34828 0
M  V30 13379 C 1255.07 2.34114 -2.55717 0
M  V30 13380 C 1254.13 2.06316 -3.76473 0
M  V30 13381 C 1253.37 3.2862 -4.20529 0
M  V30 13382 O 1253.59 4.3902 -3.64167 0
M  V30 13383 O 1252.52 3.14772 -5.13033 0
M  V30 13384 H 1256.35 0.64593 -2.96751 0
M  V30 13385 H 1253.94 0.253235 -1.47238 0
M  V30 13386 H 1255.82 3.09631 -2.85844 0
M  V30 13387 H 1254.49 2.74519 -1.71526 0
M  V30 13388 H 1253.4 1.28392 -3.51378 0
M  V30 13389 H 1254.73 1.70772 -4.61625 0
M  V30 13390 N 1256.39 1.54543 0.308881 0
M  V30 13391 C 1257.35 1.84214 1.36374 0
M  V30 13392 C 1258.35 0.71463 1.44047 0
M  V30 13393 O 1259.54 0.98293 1.4382 0
M  V30 13394 C 1256.67 2.01535 2.74948 0
M  V30 13395 H 1257.86 2.78477 1.11314 0
M  V30 13396 H 1255.42 1.46485 0.545141 0
M  V30 13397 H 1256.15 1.09533 3.05242 0
M  V30 13398 H 1255.94 2.83595 2.7077 0
M  V30 13399 H 1257.43 2.25888 3.51233 0
M  V30 13400 N 1257.86 -0.571685 1.46866 0
M  V30 13401 C 1259.14 -1.33216 1.43223 0
M  V30 13402 C 1259.52 -2.1075 0.121495 0
M  V30 13403 O 1258.87 -2.10157 -0.897003 0
M  V30 13404 C 1259.08 -2.24888 2.66882 0
M  V30 13405 C 1260.43 -2.86369 3.13493 0
M  V30 13406 O 1261.45 -2.35197 2.67509 0
M  V30 13407 O 1260.31 -3.79342 3.93398 0
M  V30 13408 H 1257.4 -0.599106 0.570089 0
M  V30 13409 H 1259.95 -0.591788 1.59047 0
M  V30 13410 H 1258.72 -1.67099 3.53827 0
M  V30 13411 H 1258.34 -3.06246 2.53573 0
M  V30 13412 N 1259.34 -1.34755 -0.817236 0
M  V30 13413 C 1260.3 -1.26687 -1.91006 0
M  V30 13414 C 1261.3 -0.180745 -1.59781 0
M  V30 13415 O 1262.49 -0.433748 -1.68714 0
M  V30 13416 C 1259.63 -0.957293 -3.27183 0
M  V30 13417 H 1260.82 -2.23846 -1.99582 0
M  V30 13418 H 1258.37 -1.19125 -1.01187 0
M  V30 13419 H 1259.11 0.0108917 -3.24298 0
M  V30 13420 H 1258.89 -1.74297 -3.5123 0
M  V30 13421 H 1260.38 -0.926161 -4.072 0
M  V30 13422 N 1260.82 1.03812 -1.18578 0
M  V30 13423 C 1262.07 1.77056 -0.982718 0
M  V30 13424 C 1262.39 1.88294 0.487421 0
M  V30 13425 O 1261.65 1.38946 1.37813 0
M  V30 13426 C 1261.95 3.20297 -1.5857 0
M  V30 13427 C 1261.61 3.29088 -3.0824 0
M  V30 13428 C 1260.28 3.31194 -3.4909 0
M  V30 13429 C 1262.63 3.28981 -4.04253 0
M  V30 13430 C 1259.96 3.30839 -4.84523 0
M  V30 13431 C 1262.31 3.30166 -5.39605 0
M  V30 13432 C 1260.97 3.30565 -5.79899 0
M  V30 13433 H 1260.24 0.647895 -0.359602 0
M  V30 13434 H 1262.89 1.21911 -1.47682 0
M  V30 13435 H 1261.19 3.7846 -1.01367 0
M  V30 13436 H 1262.89 3.75619 -1.40398 0
M  V30 13437 H 1259.48 3.28171 -2.75685 0
M  V30 13438 H 1263.67 3.26543 -3.73743 0
M  V30 13439 H 1258.92 3.29467 -5.15035 0
M  V30 13440 H 1263.1 3.29033 -6.13767 0
M  V30 13441 H 1260.72 3.30044 -6.84818 0
M  V30 13442 N 1262.3 0.988223 1.22768 0
M  V30 13443 C 1263.55 0.660154 1.91014 0
M  V30 13444 C 1263.87 -0.809788 1.77391 0
M  V30 13445 O 1263.14 -1.57998 1.15817 0
M  V30 13446 H 1261.72 0.24118 0.706995 0
M  V30 13447 H 1264.38 1.25372 1.49224 0
M  V30 13448 H 1263.47 0.918603 2.98275 0
M  V30 13449 N 1263.78 -1.38018 0.760839 0
M  V30 13450 C 1265.02 -1.99194 0.316984 0
M  V30 13451 C 1265.34 -1.61083 -1.10958 0
M  V30 13452 O 1266.54 -2.15281 -1.65428 0
M  V30 13453 C 1265 -3.56185 0.515792 0
M  V30 13454 C 1264.61 -4.03242 1.95191 0
M  V30 13455 C 1266.35 -4.24285 0.135013 0
M  V30 13456 C 1264.26 -5.52902 2.0989 0
M  V30 13457 H 1263.19 -0.745214 0.114771 0
M  V30 13458 H 1265.84 -1.5769 0.938415 0
M  V30 13459 H 1264.22 -3.95613 -0.174934 0
M  V30 13460 H 1265.4 -3.75086 2.6767 0
M  V30 13461 H 1263.71 -3.47889 2.28827 0
M  V30 13462 H 1266.31 -5.34233 0.223495 0
M  V30 13463 H 1266.65 -4.06158 -0.913322 0
M  V30 13464 H 1267.18 -3.90121 0.777868 0
M  V30 13465 H 1263.92 -5.75942 3.13003 0
M  V30 13466 H 1263.44 -5.82778 1.41881 0
M  V30 13467 H 1265.12 -6.18709 1.89229 0
M  V30 13468 N 1265.25 -0.510493 -1.49103 0
M  V30 13469 C 1266.53 0.0941122 -1.95373 0
M  V30 13470 C 1266.91 1.53207 -1.45227 0
M  V30 13471 O 1266.26 2.18452 -0.670161 0
M  V30 13472 C 1266.47 -0.00302507 -3.49 0
M  V30 13473 C 1267.82 0.166117 -4.24275 0
M  V30 13474 O 1268.84 0.0717097 -3.56128 0
M  V30 13475 O 1267.7 0.361155 -5.45305 0
M  V30 13476 H 1264.79 0.0900741 -0.82208 0
M  V30 13477 H 1267.34 -0.573707 -1.59708 0
M  V30 13478 H 1266.11 -1.00545 -3.78162 0
M  V30 13479 H 1265.73 0.704518 -3.91308 0
M  V30 13480 N 1266.73 1.55688 -0.24474 0
M  V30 13481 C 1267.68 2.21289 0.655723 0
M  V30 13482 C 1268.65 1.17606 1.17295 0
M  V30 13483 O 1269.83 1.46045 1.22782 0
M  V30 13484 C 1266.97 2.91453 1.84794 0
M  V30 13485 C 1266.09 4.09787 1.36744 0
M  V30 13486 C 1265.22 4.67672 2.51905 0
M  V30 13487 C 1264.26 5.78259 2.00706 0
M  V30 13488 N 1263.4 6.30336 3.09225 0
M  V30 13489 H 1268.24 2.97865 0.0896156 0
M  V30 13490 H 1265.77 1.47064 0.0324725 0
M  V30 13491 H 1267.73 3.30331 2.54828 0
M  V30 13492 H 1266.36 2.17355 2.38656 0
M  V30 13493 H 1265.41 3.76237 0.561228 0
M  V30 13494 H 1266.73 4.89627 0.952199 0
M  V30 13495 H 1265.88 5.09113 3.29984 0
M  V30 13496 H 1264.62 3.87044 2.9673 0
M  V30 13497 H 1263.62 5.36298 1.21097 0
M  V30 13498 H 1264.85 6.60737 1.56853 0
M  V30 13499 H 1262.8 5.52614 3.53489 0
M  V30 13500 H 1262.71 7.05364 2.72025 0
M  V30 13501 H 1263.98 6.76435 3.8737 0
M  V30 13502 N 1268.21 -0.0283989 1.57574 0
M  V30 13503 C 1269.44 -0.730831 1.93563 0
M  V30 13504 C 1269.85 -1.68857 0.844556 0
M  V30 13505 O 1269.21 -1.8162 -0.178971 0
M  V30 13506 C 1269.26 -1.48731 3.29486 0
M  V30 13507 O 1268.98 -0.568017 4.34402 0
M  V30 13508 C 1270.48 -2.28684 3.79761 0
M  V30 13509 H 1267.7 -0.205346 0.638807 0
M  V30 13510 H 1270.25 0.0142728 2.04495 0
M  V30 13511 H 1268.4 -2.18429 3.19949 0
M  V30 13512 H 1268.82 -1.09861 5.12865 0
M  V30 13513 H 1270.29 -2.77157 4.77376 0
M  V30 13514 H 1270.77 -3.10133 3.10989 0
M  V30 13515 H 1271.37 -1.64059 3.92383 0
M  V30 13516 N 1269.69 -1.54705 -0.300681 0
M  V30 13517 C 1270.65 -1.84934 -1.35395 0
M  V30 13518 C 1271.65 -0.72226 -1.43666 0
M  V30 13519 O 1272.84 -0.990543 -1.43296 0
M  V30 13520 C 1269.97 -2.02991 -2.73875 0
M  V30 13521 H 1271.17 -2.79063 -1.09835 0
M  V30 13522 H 1268.72 -1.46772 -0.537365 0
M  V30 13523 H 1269.45 -1.11151 -3.04657 0
M  V30 13524 H 1269.24 -2.85027 -2.69262 0
M  V30 13525 H 1270.73 -2.27747 -3.5003 0
M  V30 13526 N 1271.17 0.563888 -1.47167 0
M  V30 13527 C 1272.39 1.34693 -1.57052 0
M  V30 13528 C 1272.81 1.87534 -0.218308 0
M  V30 13529 O 1272.17 1.64639 0.787416 0
M  V30 13530 C 1272.22 2.52148 -2.59044 0
M  V30 13531 O 1271.94 2.01492 -3.89015 0
M  V30 13532 C 1273.44 3.4445 -2.7905 0
M  V30 13533 H 1270.66 0.410822 -0.530534 0
M  V30 13534 H 1273.2 0.683731 -1.92731 0
M  V30 13535 H 1271.36 3.14419 -2.26317 0
M  V30 13536 H 1271.77 2.78122 -4.44689 0
M  V30 13537 H 1273.25 4.23297 -3.54293 0
M  V30 13538 H 1273.72 3.97575 -1.86631 0
M  V30 13539 H 1274.33 2.88 -3.12948 0
M  V30 13540 N 1272.64 1.35187 0.810078 0
M  V30 13541 C 1273.88 1.29626 1.58039 0
M  V30 13542 C 1274.25 -0.12865 1.91569 0
M  V30 13543 O 1275.45 -0.308587 2.67023 0
M  V30 13544 C 1273.72 2.17414 2.83665 0
M  V30 13545 S 1275.28 2.29334 3.741 0
M  V30 13546 H 1272.1 0.460722 0.541531 0
M  V30 13547 H 1274.7 1.7054 0.955839 0
M  V30 13548 H 1273.4 3.19927 2.57051 0
M  V30 13549 H 1272.93 1.77444 3.51108 0
M  V30 13550 H 1274.95 1.47559 4.73752 0
M  V30 13551 N 1274.12 -1.03182 1.19127 0
M  V30 13552 C 1275.54 -1.28773 0.942854 0
M  V30 13553 C 1275.74 -1.97759 -0.386483 0
M  V30 13554 O 1274.79 -2.26365 -1.1187 0
M  V30 13555 C 1276.11 -2.13771 2.11476 0
M  V30 13556 C 1277.66 -2.27089 2.15406 0
M  V30 13557 C 1278.13 -3.15458 3.32039 0
M  V30 13558 N 1279.62 -3.23046 3.31957 0
M  V30 13559 C 1280.36 -3.91604 4.18848 0
M  V30 13560 N 1279.85 -4.62418 5.15889 0
M  V30 13561 N 1281.65 -3.87974 4.06734 0
M  V30 13562 H 1273.8 -0.568165 2.0466 0
M  V30 13563 H 1276.06 -0.31328 0.89474 0
M  V30 13564 H 1275.77 -1.704 3.07663 0
M  V30 13565 H 1275.64 -3.14476 2.0829 0
M  V30 13566 H 1278.03 -2.69693 1.19791 0
M  V30 13567 H 1278.11 -1.25945 2.22647 0
M  V30 13568 H 1277.75 -2.73564 4.27931 0
M  V30 13569 H 1277.68 -4.16654 3.22035 0
M  V30 13570 H 1280.17 -2.7261 2.6171 0
M  V30 13571 H 1280.49 -5.12353 5.78545 0
M  V30 13572 H 1278.83 -4.61293 5.1984 0
M  V30 13573 H 1282.02 -3.31789 3.30202 0
M  V30 13574 H 1282.19 -4.4113 4.74666 0
M  V30 13575 N 1275.6 -0.99472 -1.22242 0
M  V30 13576 C 1276.83 -0.690097 -1.95052 0
M  V30 13577 C 1277.24 0.745543 -1.73456 0
M  V30 13578 O 1276.6 1.50329 -1.03477 0
M  V30 13579 C 1276.65 -0.988798 -3.47714 0
M  V30 13580 O 1276.37 -2.36803 -3.68587 0
M  V30 13581 C 1277.87 -0.702132 -4.37704 0
M  V30 13582 H 1275.09 -0.255142 -0.620599 0
M  V30 13583 H 1277.64 -1.32998 -1.55344 0
M  V30 13584 H 1275.79 -0.394684 -3.85384 0
M  V30 13585 H 1276.21 -2.4687 -4.62769 0
M  V30 13586 H 1277.68 -0.961389 -5.43564 0
M  V30 13587 H 1278.16 0.363866 -4.3769 0
M  V30 13588 H 1278.76 -1.27738 -4.05664 0
M  V30 13589 N 1277.08 1.37613 -0.768148 0
M  V30 13590 C 1278.32 2.00075 -0.331331 0
M  V30 13591 C 1278.66 1.60839 1.08833 0
M  V30 13592 O 1277.93 0.852849 1.74805 0
M  V30 13593 C 1278.22 3.57009 -0.470789 0
M  V30 13594 C 1278.07 4.06166 -1.9326 0
M  V30 13595 C 1279.39 4.39916 0.127111 0
M  V30 13596 H 1276.51 0.726855 -0.121864 0
M  V30 13597 H 1279.15 1.63343 -0.970518 0
M  V30 13598 H 1277.3 3.88431 0.0733688 0
M  V30 13599 H 1278.97 3.85325 -2.53618 0
M  V30 13600 H 1277.21 3.58492 -2.44266 0
M  V30 13601 H 1277.88 5.15219 -1.98125 0
M  V30 13602 H 1280.36 4.14732 -0.337144 0
M  V30 13603 H 1279.24 5.489 -0.000624226 0
M  V30 13604 H 1279.5 4.25018 1.21704 0
M  V30 13605 N 1278.56 0.518393 1.4883 0
M  V30 13606 C 1279.52 -0.23983 2.27942 0
M  V30 13607 C 1280.52 -0.878302 1.34694 0
M  V30 13608 O 1281.71 -0.740142 1.57694 0
M  V30 13609 C 1278.84 -1.34581 3.1321 0
M  V30 13610 H 1280.03 0.454599 2.96434 0
M  V30 13611 H 1277.59 0.273932 1.53881 0
M  V30 13612 H 1278.32 -2.07385 2.49323 0
M  V30 13613 H 1278.11 -0.893251 3.8179 0
M  V30 13614 H 1279.6 -1.87944 3.72917 0
M  V30 13615 N 1280.03 -1.55556 0.252993 0
M  V30 13616 C 1281.28 -1.99385 -0.370599 0
M  V30 13617 C 1281.61 -1.14101 -1.57145 0
M  V30 13618 O 1280.89 -0.205828 -1.93408 0
M  V30 13619 C 1281.17 -3.51672 -0.774503 0
M  V30 13620 C 1281.02 -4.47719 0.432159 0
M  V30 13621 C 1282.34 -4.0923 -1.61923 0
M  V30 13622 H 1279.46 -0.724858 -0.133231 0
M  V30 13623 H 1282.1 -1.86644 0.355522 0
M  V30 13624 H 1280.25 -3.62661 -1.39318 0
M  V30 13625 H 1281.93 -4.48704 1.07063 0
M  V30 13626 H 1280.17 -4.2029 1.07419 0
M  V30 13627 H 1280.84 -5.51898 0.106123 0
M  V30 13628 H 1283.32 -4.01381 -1.09693 0
M  V30 13629 H 1282.19 -5.16039 -1.87068 0
M  V30 13630 H 1282.45 -3.58067 -2.59307 0
M  V30 13631 N 1281.51 0.0200419 -1.57587 0
M  V30 13632 C 1282.46 1.01784 -2.07144 0
M  V30 13633 C 1283.43 1.3537 -0.962501 0
M  V30 13634 O 1284.61 1.45553 -1.23365 0
M  V30 13635 C 1281.75 2.31091 -2.56302 0
M  V30 13636 C 1280.87 2.03584 -3.81022 0
M  V30 13637 C 1280 3.26827 -4.18757 0
M  V30 13638 C 1279.04 2.94915 -5.36369 0
M  V30 13639 N 1278.18 4.10636 -5.69493 0
M  V30 13640 H 1283.02 0.588288 -2.92136 0
M  V30 13641 H 1280.56 0.278848 -1.44433 0
M  V30 13642 H 1282.51 3.06656 -2.82874 0
M  V30 13643 H 1281.14 2.71752 -1.74215 0
M  V30 13644 H 1280.2 1.18475 -3.6148 0
M  V30 13645 H 1281.51 1.76049 -4.66699 0
M  V30 13646 H 1280.66 4.10753 -4.46505 0
M  V30 13647 H 1279.4 3.57483 -3.31749 0
M  V30 13648 H 1278.41 2.09392 -5.08365 0
M  V30 13649 H 1279.63 2.65528 -6.25037 0
M  V30 13650 H 1277.58 4.41226 -4.85444 0
M  V30 13651 H 1277.49 3.86556 -6.497 0
M  V30 13652 H 1278.76 4.95409 -6.01822 0
M  V30 13653 N 1282.99 1.54862 0.292472 0
M  V30 13654 C 1283.92 1.81298 1.38586 0
M  V30 13655 C 1284.9 0.664704 1.48393 0
M  V30 13656 O 1286.09 0.905595 1.65322 0
M  V30 13657 C 1283.21 1.9573 2.76419 0
M  V30 13658 C 1282.26 3.18197 2.83994 0
M  V30 13659 S 1283.09 4.76054 2.45219 0
M  V30 13660 C 1284.25 4.93433 3.85064 0
M  V30 13661 H 1284.48 2.73755 1.15955 0
M  V30 13662 H 1282.01 1.46383 0.491053 0
M  V30 13663 H 1283.97 2.0473 3.55803 0
M  V30 13664 H 1282.63 1.04196 2.96314 0
M  V30 13665 H 1281.83 3.25123 3.85112 0
M  V30 13666 H 1281.43 3.07688 2.12613 0
M  V30 13667 H 1283.72 4.7798 4.80148 0
M  V30 13668 H 1284.66 5.95515 3.83103 0
M  V30 13669 H 1285.07 4.2153 3.75463 0
M  V30 13670 N 1284.47 -0.556076 1.47464 0
M  V30 13671 C 1285.4 -1.67275 1.62915 0
M  V30 13672 C 1286.38 -1.63229 0.478562 0
M  V30 13673 O 1287.56 -1.80833 0.708032 0
M  V30 13674 C 1284.69 -3.05911 1.64426 0
M  V30 13675 C 1283.65 -3.24804 2.78722 0
M  V30 13676 C 1282.97 -4.64238 2.65307 0
M  V30 13677 C 1284.27 -3.10071 4.20302 0
M  V30 13678 H 1285.97 -1.54601 2.56396 0
M  V30 13679 H 1283.51 -0.742337 1.23391 0
M  V30 13680 H 1285.47 -3.83878 1.73826 0
M  V30 13681 H 1284.19 -3.19547 0.675053 0
M  V30 13682 H 1282.85 -2.49246 2.68835 0
M  V30 13683 H 1282.5 -4.74675 1.66412 0
M  V30 13684 H 1282.2 -4.77828 3.41986 0
M  V30 13685 H 1283.72 -5.44339 2.76637 0
M  V30 13686 H 1285.14 -3.77855 4.3116 0
M  V30 13687 H 1283.53 -3.3517 4.97776 0
M  V30 13688 H 1284.6 -2.06803 4.38589 0
M  V30 13689 N 1285.95 -1.35615 -0.802897 0
M  V30 13690 C 1286.89 -1.28839 -1.91492 0
M  V30 13691 C 1287.86 -0.159621 -1.65331 0
M  V30 13692 O 1289.05 -0.343931 -1.87675 0
M  V30 13693 C 1286.19 -1.06999 -3.28093 0
M  V30 13694 C 1285.3 -2.28831 -3.66416 0
M  V30 13695 C 1284.44 -2.00111 -4.92066 0
M  V30 13696 C 1283.48 -3.17977 -5.23027 0
M  V30 13697 N 1282.61 -2.89009 -6.39858 0
M  V30 13698 H 1287.45 -2.2393 -1.96619 0
M  V30 13699 H 1284.99 -1.1131 -0.961687 0
M  V30 13700 H 1286.95 -0.923673 -4.06847 0
M  V30 13701 H 1285.58 -0.155684 -3.22424 0
M  V30 13702 H 1284.63 -2.54314 -2.82893 0
M  V30 13703 H 1285.94 -3.1683 -3.85253 0
M  V30 13704 H 1285.1 -1.82331 -5.78654 0
M  V30 13705 H 1283.84 -1.09402 -4.75271 0
M  V30 13706 H 1282.84 -3.3633 -4.34928 0
M  V30 13707 H 1284.07 -4.09493 -5.41749 0
M  V30 13708 H 1282.01 -2.00898 -6.24481 0
M  V30 13709 H 1281.93 -3.70544 -6.58964 0
M  V30 13710 H 1283.2 -2.74779 -7.29463 0
M  V30 13711 N 1287.43 1.02549 -1.19673 0
M  V30 13712 C 1288.34 2.14373 -0.952972 0
M  V30 13713 C 1289.35 1.73776 0.0881727 0
M  V30 13714 O 1290.53 2.01165 -0.0972471 0
M  V30 13715 C 1287.59 3.43096 -0.498569 0
M  V30 13716 C 1286.65 3.97987 -1.60951 0
M  V30 13717 C 1285.89 5.20567 -1.17669 0
M  V30 13718 O 1286.11 5.70385 -0.0416636 0
M  V30 13719 O 1285.04 5.6838 -1.98059 0
M  V30 13720 H 1288.87 2.378 -1.88904 0
M  V30 13721 H 1286.45 1.12781 -0.979836 0
M  V30 13722 H 1288.34 4.20634 -0.253968 0
M  V30 13723 H 1287.01 3.21105 0.409018 0
M  V30 13724 H 1285.92 3.21768 -1.90829 0
M  V30 13725 H 1287.25 4.24349 -2.49377 0
M  V30 13726 N 1288.9 1.00119 1.21713 0
M  V30 13727 C 1290.15 0.680377 1.90303 0
M  V30 13728 C 1290.47 -0.790927 1.7824 0
M  V30 13729 O 1289.74 -1.5676 1.17486 0
M  V30 13730 H 1288.32 0.248665 0.704397 0
M  V30 13731 H 1290.98 1.26948 1.47886 0
M  V30 13732 H 1290.08 0.950188 2.97284 0
M  V30 13733 N 1290.38 -1.37203 0.775435 0
M  V30 13734 C 1291.34 -2.28566 0.170406 0
M  V30 13735 C 1292.34 -1.48195 -0.624085 0
M  V30 13736 O 1293.53 -1.68364 -0.447132 0
M  V30 13737 C 1290.67 -3.32186 -0.765829 0
M  V30 13738 H 1291.86 -2.8358 0.975824 0
M  V30 13739 H 1289.41 -1.46531 0.543895 0
M  V30 13740 H 1290.15 -2.82303 -1.59611 0
M  V30 13741 H 1289.93 -3.91598 -0.198251 0
M  V30 13742 H 1291.42 -4.0045 -1.18446 0
M  V30 13743 N 1291.86 -0.526279 -1.48553 0
M  V30 13744 C 1293.09 0.0052277 -2.06899 0
M  V30 13745 C 1293.5 1.2849 -1.38332 0
M  V30 13746 O 1292.86 1.76354 -0.469648 0
M  V30 13747 C 1292.91 0.236709 -3.60724 0
M  V30 13748 O 1292.63 -0.992256 -4.26715 0
M  V30 13749 C 1294.13 0.809014 -4.35855 0
M  V30 13750 H 1291.35 -0.0318426 -0.670244 0
M  V30 13751 H 1293.9 -0.730865 -1.90994 0
M  V30 13752 H 1292.05 0.922842 -3.76248 0
M  V30 13753 H 1292.47 -0.770697 -5.18807 0
M  V30 13754 H 1293.94 0.920428 -5.44272 0
M  V30 13755 H 1294.42 1.81302 -4.00033 0
M  V30 13756 H 1295.02 0.159564 -4.25001 0
M  V30 13757 N 1293.34 1.5542 -0.261239 0
M  V30 13758 C 1294.29 2.18644 0.646442 0
M  V30 13759 C 1295.27 1.14672 1.12868 0
M  V30 13760 O 1296.46 1.40534 1.07606 0
M  V30 13761 C 1293.59 2.90045 1.83655 0
M  V30 13762 C 1292.68 4.01289 1.37214 0
M  V30 13763 N 1293.07 5.01949 0.622927 0
M  V30 13764 C 1291.37 4.14107 1.65625 0
M  V30 13765 C 1292.07 5.80454 0.380569 0
M  V30 13766 N 1291.04 5.35253 0.94897 0
M  V30 13767 H 1294.85 2.93826 0.0660348 0
M  V30 13768 H 1292.36 1.62273 -0.0641794 0
M  V30 13769 H 1294.36 3.33778 2.49796 0
M  V30 13770 H 1293.02 2.16369 2.42104 0
M  V30 13771 H 1294.03 5.17187 0.271619 0
M  V30 13772 H 1290.71 3.51613 2.2511 0
M  V30 13773 H 1292.1 6.71545 -0.218528 0
M  V30 13774 N 1294.82 -0.0116844 1.57596 0
M  V30 13775 C 1296.04 -0.713924 1.94725 0
M  V30 13776 C 1296.47 -1.67157 0.862565 0
M  V30 13777 O 1295.82 -1.80401 -0.180308 0
M  V30 13778 C 1295.87 -1.43214 3.30941 0
M  V30 13779 O 1294.98 -2.5461 3.24419 0
M  V30 13780 H 1294.32 -0.190772 0.636005 0
M  V30 13781 H 1296.85 0.0380247 2.04565 0
M  V30 13782 H 1296.86 -1.79819 3.66237 0
M  V30 13783 H 1295.53 -0.729906 4.09445 0
M  V30 13784 H 1294.11 -2.20419 3.00782 0
M  V30 13785 N 1296.29 -1.55015 -0.284256 0
M  V30 13786 C 1297.2 -1.90203 -1.37332 0
M  V30 13787 C 1298.22 -0.797994 -1.54622 0
M  V30 13788 O 1299.4 -1.09602 -1.68965 0
M  V30 13789 C 1296.46 -2.15687 -2.71441 0
M  V30 13790 C 1295.52 -3.39313 -2.62993 0
M  V30 13791 C 1294.75 -3.63571 -3.90707 0
M  V30 13792 O 1294.98 -2.90538 -4.9086 0
M  V30 13793 O 1293.91 -4.57102 -3.91589 0
M  V30 13794 H 1297.74 -2.82888 -1.1049 0
M  V30 13795 H 1295.32 -1.41418 -0.481798 0
M  V30 13796 H 1297.2 -2.33553 -3.50758 0
M  V30 13797 H 1295.88 -1.26185 -2.98092 0
M  V30 13798 H 1294.79 -3.26793 -1.82091 0
M  V30 13799 H 1296.12 -4.28997 -2.41293 0
M  V30 13800 N 1297.77 0.548248 -1.47757 0
M  V30 13801 C 1298.72 1.65028 -1.57321 0
M  V30 13802 C 1299.71 1.55006 -0.431489 0
M  V30 13803 O 1300.9 1.63337 -0.681919 0
M  V30 13804 C 1298.03 3.0379 -1.59896 0
M  V30 13805 C 1297.11 3.18982 -2.79484 0
M  V30 13806 N 1297.5 3.04208 -4.04093 0
M  V30 13807 C 1295.8 3.50001 -2.76433 0
M  V30 13808 C 1296.5 3.2233 -4.8423 0
M  V30 13809 N 1295.48 3.49073 -4.16712 0
M  V30 13810 H 1299.28 1.52187 -2.51428 0
M  V30 13811 H 1296.79 0.753242 -1.43875 0
M  V30 13812 H 1298.79 3.82928 -1.64839 0
M  V30 13813 H 1297.45 3.17735 -0.668912 0
M  V30 13814 H 1298.46 2.81348 -4.34814 0
M  V30 13815 H 1295.14 3.70418 -1.92606 0
M  V30 13816 H 1296.53 3.15799 -5.9306 0
M  V30 13817 N 1299.25 1.36039 0.795694 0
M  V30 13818 C 1300.67 1.16315 1.09284 0
M  V30 13819 C 1300.87 -0.017024 2.01493 0
M  V30 13820 O 1299.92 -0.684316 2.4305 0
M  V30 13821 C 1301.23 2.47113 1.71335 0
M  V30 13822 C 1302.78 2.5342 1.83705 0
M  V30 13823 C 1303.26 3.84289 2.49171 0
M  V30 13824 N 1304.75 3.856 2.56645 0
M  V30 13825 C 1305.48 4.83597 3.08094 0
M  V30 13826 N 1304.98 5.91985 3.59897 0
M  V30 13827 N 1306.77 4.71023 3.06748 0
M  V30 13828 H 1298.92 2.11611 0.182957 0
M  V30 13829 H 1301.19 0.937035 0.143771 0
M  V30 13830 H 1300.89 3.33708 1.11049 0
M  V30 13831 H 1300.77 2.62461 2.70914 0
M  V30 13832 H 1303.15 1.67247 2.43131 0
M  V30 13833 H 1303.23 2.41977 0.829495 0
M  V30 13834 H 1302.88 4.70865 1.90391 0
M  V30 13835 H 1302.81 3.93025 3.50484 0
M  V30 13836 H 1305.3 3.07291 2.19956 0
M  V30 13837 H 1305.61 6.6274 3.97487 0
M  V30 13838 H 1303.96 5.95662 3.58066 0
M  V30 13839 H 1307.15 3.8548 2.65561 0
M  V30 13840 H 1307.32 5.47555 3.46536 0
M  V30 13841 N 1300.73 -1.01913 1.20215 0
M  V30 13842 C 1301.69 -2.08563 0.950481 0
M  V30 13843 C 1302.69 -1.60634 -0.0729659 0
M  V30 13844 O 1303.88 -1.73437 0.162826 0
M  V30 13845 C 1301.01 -3.38171 0.430453 0
M  V30 13846 H 1302.21 -2.32323 1.89647 0
M  V30 13847 H 1299.76 -1.18674 1.01716 0
M  V30 13848 H 1300.49 -3.20086 -0.521126 0
M  V30 13849 H 1300.28 -3.74284 1.1685 0
M  V30 13850 H 1301.77 -4.16702 0.273781 0
M  V30 13851 N 1302.21 -1.00763 -1.2118 0
M  V30 13852 C 1303.14 -0.590493 -2.2591 0
M  V30 13853 C 1304.12 0.390002 -1.65569 0
M  V30 13854 O 1305.3 0.277406 -1.92208 0
M  V30 13855 C 1302.43 0.0810388 -3.47205 0
M  V30 13856 C 1301.39 -0.81951 -4.20081 0
M  V30 13857 C 1300.71 -0.014244 -5.34698 0
M  V30 13858 C 1302.01 -2.12336 -4.7719 0
M  V30 13859 H 1303.71 -1.46595 -2.61056 0
M  V30 13860 H 1301.25 -0.706321 -1.25487 0
M  V30 13861 H 1303.21 0.384355 -4.19644 0
M  V30 13862 H 1301.93 0.991145 -3.11197 0
M  V30 13863 H 1300.59 -1.10669 -3.49497 0
M  V30 13864 H 1300.24 0.897233 -4.94933 0
M  V30 13865 H 1299.94 -0.613883 -5.84384 0
M  V30 13866 H 1301.46 0.282827 -6.09945 0
M  V30 13867 H 1302.87 -1.88301 -5.41494 0
M  V30 13868 H 1301.27 -2.67308 -5.37277 0
M  V30 13869 H 1302.34 -2.79238 -3.96427 0
M  V30 13870 N 1303.68 1.3679 -0.7827 0
M  V30 13871 C 1304.62 2.27871 -0.122531 0
M  V30 13872 C 1305.6 1.46885 0.697399 0
M  V30 13873 O 1306.78 1.76198 0.669819 0
M  V30 13874 C 1303.91 3.28314 0.832311 0
M  V30 13875 C 1302.95 4.26394 0.0950152 0
M  V30 13876 S 1303.79 5.2131 -1.22457 0
M  V30 13877 C 1304.94 6.25302 -0.273558 0
M  V30 13878 H 1305.17 2.83514 -0.894814 0
M  V30 13879 H 1302.71 1.43229 -0.5766 0
M  V30 13880 H 1304.67 3.86688 1.37778 0
M  V30 13881 H 1303.33 2.71597 1.57779 0
M  V30 13882 H 1302.52 4.97297 0.819278 0
M  V30 13883 H 1302.12 3.72067 -0.379778 0
M  V30 13884 H 1304.41 6.75263 0.550064 0
M  V30 13885 H 1305.36 7.01684 -0.951071 0
M  V30 13886 H 1305.76 5.64372 0.120115 0
M  V30 13887 N 1305.16 0.53415 1.48272 0
M  V30 13888 C 1306.39 0.00368464 2.074 0
M  V30 13889 C 1306.81 -1.27003 1.38751 0
M  V30 13890 O 1306.17 -1.75502 0.454817 0
M  V30 13891 C 1306.22 -0.199034 3.6005 0
M  V30 13892 O 1305.32 -1.26679 3.92462 0
M  V30 13893 H 1304.66 0.0409936 0.662733 0
M  V30 13894 H 1307.19 0.743253 1.90622 0
M  V30 13895 H 1307.2 -0.420404 4.05828 0
M  V30 13896 H 1305.88 0.731391 4.09418 0
M  V30 13897 H 1304.46 -1.02775 3.58457 0
M  V30 13898 N 1306.64 -1.55279 0.269478 0
M  V30 13899 C 1307.55 -2.25965 -0.63065 0
M  V30 13900 C 1308.57 -1.28357 -1.17476 0
M  V30 13901 O 1309.74 -1.61281 -1.20625 0
M  V30 13902 C 1306.81 -2.96263 -1.80081 0
M  V30 13903 C 1305.87 -4.09336 -1.29394 0
M  V30 13904 C 1305.1 -4.76272 -2.40833 0
M  V30 13905 O 1305.32 -4.42389 -3.60066 0
M  V30 13906 O 1304.26 -5.64334 -2.09309 0
M  V30 13907 H 1308.08 -3.03644 -0.0582069 0
M  V30 13908 H 1305.67 -1.49354 0.0370966 0
M  V30 13909 H 1307.55 -3.40461 -2.48322 0
M  V30 13910 H 1306.23 -2.21505 -2.36045 0
M  V30 13911 H 1305.13 -3.69605 -0.578154 0
M  V30 13912 H 1306.47 -4.85978 -0.780117 0
M  V30 13913 N 1308.12 0.00332656 -1.576 0
M  V30 13914 C 1309.05 0.994803 -2.11248 0
M  V30 13915 C 1310.03 1.36061 -1.02085 0
M  V30 13916 O 1311.21 1.44494 -1.2975 0
M  V30 13917 C 1308.34 2.28772 -2.61306 0
M  V30 13918 C 1307.3 2.06362 -3.74965 0
M  V30 13919 C 1306.62 3.41638 -4.11324 0
M  V30 13920 C 1307.92 1.4289 -5.02374 0
M  V30 13921 H 1309.62 0.548119 -2.9434 0
M  V30 13922 H 1307.16 0.262208 -1.41593 0
M  V30 13923 H 1309.12 2.98485 -2.97464 0
M  V30 13924 H 1307.84 2.75547 -1.75332 0
M  V30 13925 H 1306.5 1.39076 -3.39195 0
M  V30 13926 H 1306.15 3.8611 -3.22379 0
M  V30 13927 H 1305.85 3.2746 -4.87897 0
M  V30 13928 H 1307.37 4.12671 -4.50039 0
M  V30 13929 H 1308.79 2.02555 -5.36325 0
M  V30 13930 H 1307.18 1.3921 -5.8373 0
M  V30 13931 H 1308.25 0.397708 -4.83266 0
M  V30 13932 N 1309.6 1.55164 0.276031 0
M  V30 13933 C 1310.54 1.87836 1.34113 0
M  V30 13934 C 1311.51 0.729562 1.4922 0
M  V30 13935 O 1312.7 0.980549 1.63676 0
M  V30 13936 C 1309.84 2.15313 2.69693 0
M  V30 13937 C 1308.95 3.42845 2.62833 0
M  V30 13938 C 1308.09 3.60038 3.90572 0
M  V30 13939 C 1307.13 4.81273 3.7821 0
M  V30 13940 N 1306.26 4.95139 4.97777 0
M  V30 13941 H 1311.1 2.78681 1.0555 0
M  V30 13942 H 1308.64 1.37976 0.510001 0
M  V30 13943 H 1310.6 2.29243 3.48573 0
M  V30 13944 H 1309.23 1.27706 2.96464 0
M  V30 13945 H 1308.28 3.37403 1.75679 0
M  V30 13946 H 1309.59 4.3186 2.49597 0
M  V30 13947 H 1308.75 3.73769 4.77893 0
M  V30 13948 H 1307.48 2.69203 4.06671 0
M  V30 13949 H 1306.49 4.67549 2.89271 0
M  V30 13950 H 1307.71 5.7354 3.63632 0
M  V30 13951 H 1305.66 4.07234 5.14292 0
M  V30 13952 H 1305.58 5.78194 4.8706 0
M  V30 13953 H 1306.85 5.13253 5.86679 0
M  V30 13954 N 1311.07 -0.540404 1.48045 0
M  V30 13955 C 1312.32 -1.2932 1.54787 0
M  V30 13956 C 1312.64 -1.94335 0.222109 0
M  V30 13957 O 1313.84 -2.70982 0.167675 0
M  V30 13958 C 1312.3 -2.34594 2.72935 0
M  V30 13959 C 1311.91 -1.75696 4.1211 0
M  V30 13960 C 1313.65 -3.10949 2.88982 0
M  V30 13961 C 1311.56 -2.78849 5.21534 0
M  V30 13962 H 1310.49 -0.486315 0.576206 0
M  V30 13963 H 1313.14 -0.571998 1.74357 0
M  V30 13964 H 1311.52 -3.09704 2.46778 0
M  V30 13965 H 1312.69 -1.06845 4.48242 0
M  V30 13966 H 1311.01 -1.11869 4.01091 0
M  V30 13967 H 1313.61 -3.88012 3.679 0
M  V30 13968 H 1313.95 -3.66173 1.98048 0
M  V30 13969 H 1314.48 -2.42953 3.1499 0
M  V30 13970 H 1311.22 -2.28459 6.144 0
M  V30 13971 H 1310.74 -3.46059 4.89901 0
M  V30 13972 H 1312.42 -3.4203 5.49203 0
M  V30 13973 N 1312.55 -1.36459 -0.788468 0
M  V30 13974 C 1313.48 -1.33545 -1.91541 0
M  V30 13975 C 1314.46 -0.206762 -1.68839 0
M  V30 13976 O 1315.65 -0.404553 -1.89939 0
M  V30 13977 C 1312.78 -1.12492 -3.28577 0
M  V30 13978 C 1311.73 -2.22196 -3.65805 0
M  V30 13979 C 1311.06 -1.86285 -5.01201 0
M  V30 13980 C 1312.36 -3.64286 -3.7429 0
M  V30 13981 H 1314.05 -2.27844 -1.94236 0
M  V30 13982 H 1311.6 -1.09677 -0.933105 0
M  V30 13983 H 1313.55 -1.09089 -4.07035 0
M  V30 13984 H 1312.28 -0.146446 -3.26272 0
M  V30 13985 H 1310.93 -2.24727 -2.89644 0
M  V30 13986 H 1310.58 -0.87009 -4.95417 0
M  V30 13987 H 1310.28 -2.59734 -5.27079 0
M  V30 13988 H 1311.81 -1.84439 -5.82078 0
M  V30 13989 H 1313.22 -3.63977 -4.42937 0
M  V30 13990 H 1311.62 -4.36648 -4.11653 0
M  V30 13991 H 1312.69 -3.99123 -2.75371 0
M  V30 13992 N 1314.03 1.01274 -1.20754 0
M  V30 13993 C 1315.28 1.74342 -1.01428 0
M  V30 13994 C 1315.59 1.90265 0.453708 0
M  V30 13995 O 1316.8 2.60465 0.76618 0
M  V30 13996 C 1315.25 3.13588 -1.76609 0
M  V30 13997 C 1314.86 3.05664 -3.27526 0
M  V30 13998 C 1316.61 3.9084 -1.65664 0
M  V30 13999 C 1314.51 4.39942 -3.95228 0
M  V30 14000 H 1313.44 0.653619 -0.375897 0
M  V30 14001 H 1316.09 1.13214 -1.44412 0
M  V30 14002 H 1314.48 3.75281 -1.26413 0
M  V30 14003 H 1315.65 2.53256 -3.84965 0
M  V30 14004 H 1313.97 2.41904 -3.38927 0
M  V30 14005 H 1316.56 4.9019 -2.13583 0
M  V30 14006 H 1316.91 4.11754 -0.61351 0
M  V30 14007 H 1317.44 3.35783 -2.13294 0
M  V30 14008 H 1314.18 4.24229 -4.9971 0
M  V30 14009 H 1313.7 4.92342 -3.42578 0
M  V30 14010 H 1315.38 5.08771 -3.99701 0
M  V30 14011 N 1315.51 1.01404 1.20644 0
M  V30 14012 C 1316.46 0.552956 2.21193 0
M  V30 14013 C 1317.44 -0.390324 1.56094 0
M  V30 14014 O 1318.64 -0.213705 1.75705 0
M  V30 14015 C 1315.76 -0.10995 3.43124 0
M  V30 14016 C 1314.85 0.854886 4.15394 0
M  V30 14017 N 1315.24 2.01137 4.64088 0
M  V30 14018 C 1313.54 0.675168 4.4086 0
M  V30 14019 C 1314.24 2.6187 5.19422 0
M  V30 14020 N 1313.22 1.89952 5.09332 0
M  V30 14021 H 1317.02 1.43467 2.56504 0
M  V30 14022 H 1314.53 0.87905 1.36552 0
M  V30 14023 H 1316.53 -0.457802 4.14379 0
M  V30 14024 H 1315.19 -0.987534 3.09318 0
M  V30 14025 H 1316.2 2.3914 4.59383 0
M  V30 14026 H 1312.88 -0.154577 4.17214 0
M  V30 14027 H 1314.27 3.59727 5.67491 0
M  V30 14028 N 1316.99 -1.36373 0.789944 0
M  V30 14029 C 1318.24 -1.98476 0.359165 0
M  V30 14030 C 1318.55 -1.634 -1.07517 0
M  V30 14031 O 1319.76 -2.18742 -1.60824 0
M  V30 14032 C 1318.21 -3.55011 0.591228 0
M  V30 14033 C 1317.82 -3.99011 2.03701 0
M  V30 14034 C 1319.56 -4.23903 0.224979 0
M  V30 14035 C 1317.47 -5.48325 2.2157 0
M  V30 14036 H 1316.4 -0.742612 0.130552 0
M  V30 14037 H 1319.05 -1.55664 0.971652 0
M  V30 14038 H 1317.43 -3.95895 -0.0909788 0
M  V30 14039 H 1318.61 -3.69324 2.75566 0
M  V30 14040 H 1316.92 -3.42957 2.36155 0
M  V30 14041 H 1319.52 -5.33638 0.336764 0
M  V30 14042 H 1319.86 -4.08004 -0.826964 0
M  V30 14043 H 1320.4 -3.88383 0.860443 0
M  V30 14044 H 1317.13 -5.69173 3.25149 0
M  V30 14045 H 1316.65 -5.79637 1.54211 0
M  V30 14046 H 1318.33 -6.14556 2.0231 0
M  V30 14047 N 1318.47 -0.542005 -1.47987 0
M  V30 14048 C 1319.71 -0.0122873 -2.02096 0
M  V30 14049 C 1320.03 1.3362 -1.42024 0
M  V30 14050 O 1319.3 1.86807 -0.589911 0
M  V30 14051 H 1317.88 -0.00155365 -0.746998 0
M  V30 14052 H 1320.55 -0.708566 -1.81564 0
M  V30 14053 H 1319.64 0.0871275 -3.11978 0
M  V30 14054 N 1319.94 1.55134 -0.277709 0
M  V30 14055 C 1320.89 2.19317 0.623216 0
M  V30 14056 C 1321.88 1.15863 1.11645 0
M  V30 14057 O 1323.07 1.41668 1.0611 0
M  V30 14058 C 1320.2 2.91976 1.80568 0
M  V30 14059 C 1319.28 4.02722 1.3295 0
M  V30 14060 N 1319.68 5.02582 0.569654 0
M  V30 14061 C 1317.97 4.1584 1.61224 0
M  V30 14062 C 1318.67 5.80825 0.318983 0
M  V30 14063 N 1317.65 5.36229 0.892145 0
M  V30 14064 H 1321.45 2.93879 0.0348669 0
M  V30 14065 H 1318.97 1.62196 -0.0813871 0
M  V30 14066 H 1320.96 3.36408 2.46242 0
M  V30 14067 H 1319.62 2.18925 2.39796 0
M  V30 14068 H 1320.63 5.17446 0.216749 0
M  V30 14069 H 1317.31 3.53981 2.21368 0
M  V30 14070 H 1318.7 6.71275 -0.289742 0
M  V30 14071 N 1321.42 0.00503138 1.57599 0
M  V30 14072 C 1322.37 -0.993379 2.05222 0
M  V30 14073 C 1323.36 -1.30013 0.947919 0
M  V30 14074 O 1324.55 -1.29027 1.21166 0
M  V30 14075 C 1321.68 -2.28375 2.5632 0
M  V30 14076 C 1320.76 -2.00642 3.73636 0
M  V30 14077 N 1321.15 -1.43087 4.85139 0
M  V30 14078 C 1319.45 -2.30759 3.81662 0
M  V30 14079 C 1320.15 -1.31939 5.66539 0
M  V30 14080 N 1319.13 -1.80672 5.12697 0
M  V30 14081 H 1322.93 -0.542951 2.88841 0
M  V30 14082 H 1320.44 -0.20055 1.61157 0
M  V30 14083 H 1322.44 -3.00748 2.88715 0
M  V30 14084 H 1321.1 -2.74066 1.74121 0
M  V30 14085 H 1322.11 -1.10901 5.05887 0
M  V30 14086 H 1318.79 -2.7929 3.10327 0
M  V30 14087 H 1320.18 -0.876391 6.6616 0
M  V30 14088 N 1322.9 -1.55308 -0.267798 0
M  V30 14089 C 1323.83 -1.91555 -1.33525 0
M  V30 14090 C 1324.81 -0.778001 -1.51265 0
M  V30 14091 O 1326 -1.03657 -1.64222 0
M  V30 14092 C 1323.13 -2.19201 -2.69385 0
M  V30 14093 C 1322.08 -3.3501 -2.66369 0
M  V30 14094 C 1321.41 -3.48148 -4.05829 0
M  V30 14095 C 1322.71 -4.71265 -2.25182 0
M  V30 14096 H 1324.4 -2.80965 -1.03437 0
M  V30 14097 H 1321.95 -1.35183 -0.496141 0
M  V30 14098 H 1323.9 -2.43146 -3.44177 0
M  V30 14099 H 1322.62 -1.26596 -3.01067 0
M  V30 14100 H 1321.28 -3.11041 -1.94034 0
M  V30 14101 H 1320.93 -2.53 -4.34741 0
M  V30 14102 H 1320.63 -4.26014 -4.04704 0
M  V30 14103 H 1322.15 -3.74391 -4.82352 0
M  V30 14104 H 1323.57 -4.94719 -2.89699 0
M  V30 14105 H 1321.96 -5.52084 -2.3521 0
M  V30 14106 H 1323.03 -4.69735 -1.20319 0
M  V30 14107 N 1324.38 0.532545 -1.4833 0
M  V30 14108 C 1325.33 1.65832 -1.63103 0
M  V30 14109 C 1326.32 1.61929 -0.497538 0
M  V30 14110 O 1327.53 1.66817 -0.676176 0
M  V30 14111 H 1323.9 0.549152 -0.513748 0
M  V30 14112 H 1325.87 1.50515 -2.57658 0
M  V30 14113 C 1324.62 3.04113 -1.68555 0
M  V30 14114 H 1323.94 3.07809 -2.55135 0
M  V30 14115 H 1325.38 3.82506 -1.82936 0
M  V30 14116 C 1323.84 3.34225 -0.423711 0
M  V30 14117 O 1324.37 3.99005 0.464523 0
M  V30 14118 N 1322.58 2.89087 -0.296192 0
M  V30 14119 H 1322.13 2.36547 -1.01997 0
M  V30 14120 H 1322.08 3.09604 0.547082 0
M  V30 14121 N 1325.86 1.36875 0.78122 0
M  V30 14122 C 1327.1 1.31754 1.54171 0
M  V30 14123 C 1327.43 -0.100632 1.93939 0
M  V30 14124 O 1326.71 -1.05587 1.63345 0
M  V30 14125 C 1326.99 2.24789 2.81322 0
M  V30 14126 C 1326.85 3.75342 2.47868 0
M  V30 14127 C 1328.16 2.16442 3.83198 0
M  V30 14128 H 1325.28 0.479931 0.559317 0
M  V30 14129 H 1327.93 1.67497 0.896935 0
M  V30 14130 H 1326.08 1.94438 3.36342 0
M  V30 14131 H 1327.75 4.16247 1.98836 0
M  V30 14132 H 1325.99 3.94375 1.80696 0
M  V30 14133 H 1326.66 4.3586 3.38719 0
M  V30 14134 H 1329.14 2.43175 3.37647 0
M  V30 14135 H 1328.01 2.83695 4.69903 0
M  V30 14136 H 1328.27 1.15431 4.26765 0
M  V30 14137 N 1327.33 -1.00632 1.21289 0
M  V30 14138 C 1328.58 -1.74647 1.03084 0
M  V30 14139 C 1328.91 -1.89271 -0.43476 0
M  V30 14140 O 1328.19 -1.42607 -1.32263 0
M  V30 14141 C 1328.47 -3.15981 1.72709 0
M  V30 14142 C 1328.32 -3.09088 3.2678 0
M  V30 14143 C 1329.64 -4.14875 1.46857 0
M  V30 14144 H 1326.76 -0.633938 0.375889 0
M  V30 14145 H 1329.4 -1.17328 1.49446 0
M  V30 14146 H 1327.55 -3.64918 1.33294 0
M  V30 14147 H 1329.23 -2.67875 3.75554 0
M  V30 14148 H 1327.47 -2.46223 3.57151 0
M  V30 14149 H 1328.14 -4.09041 3.70661 0
M  V30 14150 H 1330.62 -3.74637 1.81069 0
M  V30 14151 H 1329.49 -5.1191 1.98088 0
M  V30 14152 H 1329.75 -4.40302 0.398296 0
M  V30 14153 N 1328.81 -1.02043 -1.20104 0
M  V30 14154 C 1329.76 -0.587332 -2.25063 0
M  V30 14155 C 1330.75 0.375844 -1.65178 0
M  V30 14156 O 1331.96 0.245347 -1.7832 0
M  V30 14157 H 1328.33 -0.171637 -0.732151 0
M  V30 14158 H 1330.31 -1.48339 -2.58917 0
M  V30 14159 C 1329.05 0.0546893 -3.47657 0
M  V30 14160 H 1328.38 -0.677457 -3.94018 0
M  V30 14161 H 1329.82 0.320786 -4.22785 0
M  V30 14162 C 1328.28 1.29869 -3.10863 0
M  V30 14163 O 1328.81 2.39161 -3.22746 0
M  V30 14164 N 1327.01 1.18423 -2.65376 0
M  V30 14165 H 1326.56 0.294895 -2.55906 0
M  V30 14166 H 1326.52 2.01755 -2.41128 0
M  V30 14167 N 1330.29 1.35952 -0.797165 0
M  V30 14168 C 1331.22 2.32506 -0.215277 0
M  V30 14169 C 1332.2 1.57023 0.654046 0
M  V30 14170 O 1333.39 1.85139 0.586268 0
M  V30 14171 C 1330.52 3.41266 0.644557 0
M  V30 14172 C 1329.47 4.27816 -0.125501 0
M  V30 14173 C 1328.8 5.27813 0.855428 0
M  V30 14174 C 1330.1 5.05367 -1.31913 0
M  V30 14175 H 1331.79 2.8142 -1.02193 0
M  V30 14176 H 1329.34 1.35303 -0.492862 0
M  V30 14177 H 1331.29 4.07808 1.06163 0
M  V30 14178 H 1330.01 2.90938 1.484 0
M  V30 14179 H 1328.67 3.62841 -0.523639 0
M  V30 14180 H 1328.32 4.73755 1.69011 0
M  V30 14181 H 1328.02 5.86589 0.344566 0
M  V30 14182 H 1329.54 5.97227 1.2709 0
M  V30 14183 H 1330.96 5.64907 -0.977418 0
M  V30 14184 H 1329.36 5.73593 -1.76382 0
M  V30 14185 H 1330.43 4.36558 -2.11057 0
M  V30 14186 N 1331.77 0.549846 1.47697 0
M  V30 14187 C 1332.7 -0.190364 2.32723 0
M  V30 14188 C 1333.68 -0.915933 1.43334 0
M  V30 14189 O 1334.86 -0.897838 1.72199 0
M  V30 14190 C 1331.99 -1.22545 3.24961 0
M  V30 14191 C 1330.95 -0.616805 4.23532 0
M  V30 14192 C 1330.27 -1.75599 5.05044 0
M  V30 14193 C 1331.57 0.424595 5.20571 0
M  V30 14194 H 1333.27 0.519461 2.94859 0
M  V30 14195 H 1330.81 0.251259 1.41791 0
M  V30 14196 H 1332.77 -1.75139 3.83281 0
M  V30 14197 H 1331.49 -1.96512 2.60865 0
M  V30 14198 H 1330.15 -0.112224 3.66428 0
M  V30 14199 H 1329.8 -2.48453 4.37356 0
M  V30 14200 H 1329.5 -1.35456 5.71774 0
M  V30 14201 H 1331.02 -2.28533 5.6622 0
M  V30 14202 H 1332.44 -0.0150025 5.73298 0
M  V30 14203 H 1330.83 0.7445 5.95464 0
M  V30 14204 H 1331.9 1.32318 4.66497 0
M  V30 14205 N 1333.25 -1.54984 0.285932 0
M  V30 14206 C 1334.49 -1.99436 -0.32709 0
M  V30 14207 C 1334.82 -1.17582 -1.55562 0
M  V30 14208 O 1334.09 -0.268002 -1.94058 0
M  V30 14209 H 1332.67 -0.736662 -0.123846 0
M  V30 14210 H 1335.33 -1.90881 0.393774 0
M  V30 14211 H 1334.42 -3.0609 -0.609523 0
M  V30 14212 N 1334.72 -0.0133892 -1.57594 0
M  V30 14213 C 1335.69 0.958601 -2.08191 0
M  V30 14214 C 1336.69 1.26408 -0.993865 0
M  V30 14215 O 1337.88 1.20703 -1.25604 0
M  V30 14216 C 1335.01 2.27971 -2.5346 0
M  V30 14217 H 1336.2 0.520686 -2.95345 0
M  V30 14218 H 1333.76 0.234351 -1.54533 0
M  V30 14219 H 1334.49 2.76424 -1.69588 0
M  V30 14220 H 1334.28 2.07116 -3.32935 0
M  V30 14221 H 1335.77 2.97672 -2.92884 0
M  V30 14222 N 1336.2 1.55448 0.259558 0
M  V30 14223 C 1337.44 1.78444 0.996849 0
M  V30 14224 C 1337.81 0.580862 1.83003 0
M  V30 14225 O 1339.01 0.68934 2.59811 0
M  V30 14226 C 1337.28 3.06094 1.84502 0
M  V30 14227 S 1338.84 3.50263 2.64313 0
M  V30 14228 H 1335.66 0.626854 0.335523 0
M  V30 14229 H 1338.26 1.93683 0.265929 0
M  V30 14230 H 1336.96 3.91772 1.22241 0
M  V30 14231 H 1336.49 2.93558 2.61891 0
M  V30 14232 H 1338.51 3.10596 3.86968 0
M  V30 14233 N 1337.68 -0.524672 1.4861 0
M  V30 14234 C 1338.91 -1.30482 1.60568 0
M  V30 14235 C 1339.32 -1.86889 0.267952 0
M  V30 14236 O 1338.68 -1.66669 -0.743488 0
M  V30 14237 C 1338.73 -2.45191 2.65638 0
M  V30 14238 O 1338.45 -1.91107 3.9422 0
M  V30 14239 C 1339.95 -3.36931 2.88084 0
M  V30 14240 H 1337.17 -0.396612 0.541239 0
M  V30 14241 H 1339.72 -0.632392 1.94476 0
M  V30 14242 H 1337.87 -3.08308 2.34574 0
M  V30 14243 H 1338.29 -2.66234 4.51907 0
M  V30 14244 H 1339.76 -4.13755 3.65391 0
M  V30 14245 H 1340.24 -3.92487 1.97106 0
M  V30 14246 H 1340.84 -2.79601 3.20473 0
M  V30 14247 N 1339.16 -1.37287 -0.77395 0
M  V30 14248 C 1340.11 -1.32872 -1.88716 0
M  V30 14249 C 1341.08 -0.194655 -1.64955 0
M  V30 14250 O 1342.26 -0.383662 -1.86903 0
M  V30 14251 C 1339.4 -1.13934 -3.2575 0
M  V30 14252 C 1338.51 -2.36552 -3.61479 0
M  V30 14253 C 1337.65 -2.10504 -4.87711 0
M  V30 14254 C 1336.69 -3.28999 -5.16165 0
M  V30 14255 N 1335.82 -3.02517 -6.33584 0
M  V30 14256 H 1340.66 -2.28051 -1.91825 0
M  V30 14257 H 1338.2 -1.13325 -0.93786 0
M  V30 14258 H 1340.16 -1.00976 -4.04796 0
M  V30 14259 H 1338.79 -0.22404 -3.22022 0
M  V30 14260 H 1337.84 -2.60257 -2.77435 0
M  V30 14261 H 1339.15 -3.24931 -3.78446 0
M  V30 14262 H 1338.31 -1.94564 -5.74656 0
M  V30 14263 H 1337.05 -1.19459 -4.72843 0
M  V30 14264 H 1336.05 -3.4548 -4.27696 0
M  V30 14265 H 1337.28 -4.20892 -5.32942 0
M  V30 14266 H 1335.22 -2.14099 -6.20079 0
M  V30 14267 H 1335.14 -3.84439 -6.50955 0
M  V30 14268 H 1336.41 -2.9019 -7.23471 0
M  V30 14269 N 1340.64 0.999871 -1.21821 0
M  V30 14270 C 1342.05 1.5529 -1.03642 0
M  V30 14271 C 1342.4 1.92032 0.402246 0
M  V30 14272 O 1341.52 1.74027 1.28622 0
M  V30 14273 C 1342.12 2.82177 -1.87514 0
M  V30 14274 C 1340.68 3.33949 -1.73653 0
M  V30 14275 C 1339.82 2.07095 -1.84409 0
M  V30 14276 H 1342.78 0.821751 -1.35768 0
M  V30 14277 H 1342.8 3.54264 -1.38842 0
M  V30 14278 H 1342.31 2.55405 -2.92216 0
M  V30 14279 H 1340.41 3.65645 -0.716554 0
M  V30 14280 H 1340.52 4.05022 -2.55918 0
M  V30 14281 H 1338.89 2.20332 -1.27773 0
M  V30 14282 H 1339.67 1.82728 -2.90629 0
M  V30 14283 N 1342.11 1.02678 1.19562 0
M  V30 14284 C 1343.36 0.72059 1.88817 0
M  V30 14285 C 1343.68 -0.752942 1.79877 0
M  V30 14286 O 1342.95 -1.54233 1.20785 0
M  V30 14287 H 1341.53 0.26355 0.698964 0
M  V30 14288 H 1344.2 1.30056 1.4516 0
M  V30 14289 H 1343.29 1.01303 2.95202 0
M  V30 14290 N 1343.59 -1.35528 0.804364 0
M  V30 14291 C 1344.84 -1.98439 0.382934 0
M  V30 14292 C 1345.16 -1.64132 -1.05289 0
M  V30 14293 O 1344.43 -0.922693 -1.7281 0
M  V30 14294 H 1343.01 -0.734028 0.138605 0
M  V30 14295 H 1345.67 -1.65478 1.02971 0
M  V30 14296 H 1344.77 -3.08279 0.486846 0
M  V30 14297 N 1345.07 -0.557671 -1.47404 0
M  V30 14298 C 1346.48 -0.124411 -1.86285 0
M  V30 14299 C 1346.83 1.30593 -1.46424 0
M  V30 14300 O 1345.96 1.9825 -0.867515 0
M  V30 14301 C 1346.55 -0.219005 -3.38091 0
M  V30 14302 C 1345.11 0.159221 -3.76063 0
M  V30 14303 C 1344.26 -0.566355 -2.71455 0
M  V30 14304 H 1347.21 -0.767367 -1.38914 0
M  V30 14305 H 1347.23 0.562267 -3.76323 0
M  V30 14306 H 1346.74 -1.26013 -3.67073 0
M  V30 14307 H 1344.84 1.20144 -3.52698 0
M  V30 14308 H 1344.96 -0.199662 -4.78684 0
M  V30 14309 H 1343.32 -0.00938921 -2.54698 0
M  V30 14310 H 1344.1 -1.60865 -3.03278 0
M  V30 14311 N 1346.55 1.54831 -0.294147 0
M  V30 14312 C 1347.48 2.26226 0.57827 0
M  V30 14313 C 1348.46 1.25928 1.14351 0
M  V30 14314 O 1349.65 1.54687 1.17412 0
M  V30 14315 C 1346.78 2.99783 1.75349 0
M  V30 14316 C 1345.73 4.07171 1.31892 0
M  V30 14317 C 1345.06 4.68406 2.57876 0
M  V30 14318 C 1346.36 5.20313 0.455167 0
M  V30 14319 H 1348.05 2.99395 -0.0171936 0
M  V30 14320 H 1345.6 1.43997 -0.00970944 0
M  V30 14321 H 1347.55 3.48448 2.36986 0
M  V30 14322 H 1346.27 2.24181 2.37509 0
M  V30 14323 H 1344.93 3.59346 0.725653 0
M  V30 14324 H 1344.58 3.89451 3.18335 0
M  V30 14325 H 1344.28 5.40927 2.29502 0
M  V30 14326 H 1345.8 5.1983 3.20327 0
M  V30 14327 H 1347.22 5.64913 0.977026 0
M  V30 14328 H 1345.61 5.99512 0.265501 0
M  V30 14329 H 1346.68 4.82088 -0.521434 0
M  V30 14330 N 1348.03 0.0217466 1.57585 0
M  V30 14331 C 1348.96 -0.997112 2.05263 0
M  V30 14332 C 1349.94 -1.32186 0.946873 0
M  V30 14333 O 1351.12 -1.43979 1.21665 0
M  V30 14334 C 1348.25 -2.3191 2.46851 0
M  V30 14335 C 1347.3 -2.14948 3.68375 0
M  V30 14336 S 1348.13 -1.45517 5.15349 0
M  V30 14337 C 1349.28 -2.79101 5.60226 0
M  V30 14338 H 1349.52 -0.591229 2.91362 0
M  V30 14339 H 1347.05 -0.189741 1.5323 0
M  V30 14340 H 1349.01 -3.07913 2.71477 0
M  V30 14341 H 1347.67 -2.69633 1.61112 0
M  V30 14342 H 1346.86 -3.12661 3.95296 0
M  V30 14343 H 1346.46 -1.47088 3.43862 0
M  V30 14344 H 1348.76 -3.75357 5.64015 0
M  V30 14345 H 1349.7 -2.56853 6.59873 0
M  V30 14346 H 1350.11 -2.84009 4.87851 0
M  V30 14347 N 1349.51 -1.55583 -0.251311 0
M  V30 14348 C 1350.75 -1.77471 -0.981418 0
M  V30 14349 C 1351.08 -0.586228 -1.85141 0
M  V30 14350 O 1350.36 0.415623 -1.90007 0
M  V30 14351 C 1350.64 -3.09204 -1.84567 0
M  V30 14352 C 1350.5 -4.38448 -1.00417 0
M  V30 14353 C 1351.81 -3.37133 -2.82895 0
M  V30 14354 H 1348.93 -0.645664 -0.355369 0
M  V30 14355 H 1351.58 -1.88318 -0.252228 0
M  V30 14356 H 1349.73 -3.00087 -2.46738 0
M  V30 14357 H 1351.4 -4.5955 -0.40149 0
M  V30 14358 H 1349.64 -4.32703 -0.308365 0
M  V30 14359 H 1350.31 -5.26995 -1.64258 0
M  V30 14360 H 1352.79 -3.46183 -2.3086 0
M  V30 14361 H 1351.66 -4.30531 -3.40491 0
M  V30 14362 H 1351.92 -2.57829 -3.59133 0
M  V30 14363 N 1350.98 0.516783 -1.48886 0
M  V30 14364 C 1352.23 1.26841 -1.56825 0
M  V30 14365 C 1352.55 1.93957 -0.252998 0
M  V30 14366 O 1353.75 2.70681 -0.210765 0
M  V30 14367 C 1352.21 2.30223 -2.76633 0
M  V30 14368 C 1351.82 1.69117 -4.14853 0
M  V30 14369 C 1353.56 3.06313 -2.93893 0
M  V30 14370 C 1351.47 2.70516 -5.25904 0
M  V30 14371 H 1350.4 0.477087 -0.58387 0
M  V30 14372 H 1353.05 0.544187 -1.75245 0
M  V30 14373 H 1351.43 3.05739 -2.51674 0
M  V30 14374 H 1352.6 0.997003 -4.49885 0
M  V30 14375 H 1350.92 1.05473 -4.0282 0
M  V30 14376 H 1353.52 3.8211 -3.74027 0
M  V30 14377 H 1353.86 3.62976 -2.03848 0
M  V30 14378 H 1354.39 2.37911 -3.18815 0
M  V30 14379 H 1351.13 2.18655 -6.17956 0
M  V30 14380 H 1350.65 3.38221 -4.95345 0
M  V30 14381 H 1352.33 3.3325 -5.54575 0
M  V30 14382 N 1352.46 1.37696 0.766659 0
M  V30 14383 C 1353.71 1.33382 1.52765 0
M  V30 14384 C 1354.04 -0.0800569 1.94035 0
M  V30 14385 O 1353.32 -1.03848 1.64456 0
M  V30 14386 C 1353.6 2.2776 2.78922 0
M  V30 14387 C 1353.45 3.77949 2.43874 0
M  V30 14388 C 1354.77 2.20494 3.80881 0
M  V30 14389 H 1351.89 0.485836 0.554195 0
M  V30 14390 H 1354.53 1.68438 0.879119 0
M  V30 14391 H 1352.68 1.97994 3.34261 0
M  V30 14392 H 1354.35 4.18333 1.9441 0
M  V30 14393 H 1352.6 3.96269 1.76503 0
M  V30 14394 H 1353.27 4.39428 3.34077 0
M  V30 14395 H 1355.74 2.46742 3.35048 0
M  V30 14396 H 1354.62 2.88663 4.66867 0
M  V30 14397 H 1354.88 1.19951 4.25516 0
M  V30 14398 N 1353.94 -0.993397 1.22349 0
M  V30 14399 C 1354.85 -2.11771 1.00947 0
M  V30 14400 C 1355.87 -1.73949 -0.0420679 0
M  V30 14401 O 1357.04 -2.00837 0.150548 0
M  V30 14402 C 1354.11 -3.41654 0.589359 0
M  V30 14403 C 1353.17 -3.93579 1.71446 0
M  V30 14404 C 1352.4 -5.17264 1.3143 0
M  V30 14405 O 1352.62 -5.70074 0.192876 0
M  V30 14406 O 1351.56 -5.62929 2.13059 0
M  V30 14407 H 1355.38 -2.32708 1.95142 0
M  V30 14408 H 1352.97 -1.10144 1.00939 0
M  V30 14409 H 1354.85 -4.19813 0.365403 0
M  V30 14410 H 1353.53 -3.22077 -0.323738 0
M  V30 14411 H 1352.43 -3.16596 1.99294 0
M  V30 14412 H 1353.77 -4.17588 2.6054 0
M  V30 14413 N 1355.42 -1.03311 -1.19015 0
M  V30 14414 C 1356.66 -0.732039 -1.88805 0
M  V30 14415 C 1356.99 0.739688 -1.79886 0
M  V30 14416 O 1356.25 1.55476 -1.18851 0
M  V30 14417 C 1356.55 -1.13402 -3.38932 0
M  V30 14418 C 1356.21 -2.60473 -3.68055 0
M  V30 14419 C 1354.87 -3.00654 -3.75713 0
M  V30 14420 C 1357.23 -3.55604 -3.81045 0
M  V30 14421 C 1354.55 -4.3487 -3.93833 0
M  V30 14422 C 1356.91 -4.89529 -4.00679 0
M  V30 14423 C 1355.57 -5.29392 -4.06571 0
M  V30 14424 H 1354.84 -0.267872 -0.690888 0
M  V30 14425 H 1357.49 -1.29673 -1.40915 0
M  V30 14426 H 1355.79 -0.487997 -3.88749 0
M  V30 14427 H 1357.49 -0.878532 -3.91258 0
M  V30 14428 H 1354.08 -2.28348 -3.62706 0
M  V30 14429 H 1358.26 -3.25711 -3.74467 0
M  V30 14430 H 1353.52 -4.65285 -3.96636 0
M  V30 14431 H 1357.69 -5.63153 -4.09672 0
M  V30 14432 H 1355.32 -6.33402 -4.20364 0
M  V30 14433 N 1356.9 1.35099 -0.81154 0
M  V30 14434 C 1358.14 2.00449 -0.399935 0
M  V30 14435 C 1358.5 1.62971 1.0151 0
M  V30 14436 O 1359.7 2.21078 1.52898 0
M  V30 14437 C 1357.97 3.52608 -0.583277 0
M  V30 14438 S 1359.53 4.38012 -0.26283 0
M  V30 14439 H 1356.35 0.69464 -0.151644 0
M  V30 14440 H 1358.95 1.64599 -1.05487 0
M  V30 14441 H 1357.65 3.77372 -1.61303 0
M  V30 14442 H 1357.19 3.93304 0.0868032 0
M  V30 14443 H 1359.2 4.87451 0.927696 0
M  V30 14444 N 1358.37 0.56548 1.47106 0
M  V30 14445 C 1359.32 -0.177564 2.30116 0
M  V30 14446 C 1360.29 -0.900534 1.39569 0
M  V30 14447 O 1361.48 -0.894603 1.68527 0
M  V30 14448 C 1358.62 -1.19633 3.237 0
M  V30 14449 C 1357.73 -0.47858 4.29341 0
M  V30 14450 C 1356.86 -1.48336 5.10068 0
M  V30 14451 C 1355.9 -0.751049 6.07475 0
M  V30 14452 N 1355.04 -1.70306 6.81132 0
M  V30 14453 H 1359.88 0.536409 2.93132 0
M  V30 14454 H 1357.42 0.276352 1.44481 0
M  V30 14455 H 1359.37 -1.79967 3.76388 0
M  V30 14456 H 1358 -1.87823 2.6253 0
M  V30 14457 H 1357.06 0.239454 3.79646 0
M  V30 14458 H 1358.37 0.0947147 4.9871 0
M  V30 14459 H 1357.52 -2.16 5.66947 0
M  V30 14460 H 1356.26 -2.09058 4.4062 0
M  V30 14461 H 1355.27 -0.0605336 5.49767 0
M  V30 14462 H 1356.49 -0.14946 6.78936 0
M  V30 14463 H 1354.44 -2.2987 6.14407 0
M  V30 14464 H 1354.35 -1.18213 7.46701 0
M  V30 14465 H 1355.62 -2.37058 7.42579 0
M  V30 14466 N 1359.85 -1.54672 0.302354 0
M  V30 14467 C 1361.1 -2.00167 -0.306524 0
M  V30 14468 C 1361.43 -1.19073 -1.53791 0
M  V30 14469 O 1360.68 -0.255328 -1.94027 0
M  V30 14470 C 1360.98 -3.5035 -0.70638 0
M  V30 14471 C 1360.65 -4.48907 0.423429 0
M  V30 14472 C 1359.31 -4.75575 0.733586 0
M  V30 14473 C 1361.66 -5.07588 1.18338 0
M  V30 14474 C 1358.99 -5.58186 1.80679 0
M  V30 14475 C 1361.34 -5.91367 2.24651 0
M  V30 14476 C 1360.01 -6.16345 2.56272 0
M  V30 14477 H 1359.28 -0.732462 -0.112165 0
M  V30 14478 H 1361.92 -1.86798 0.421732 0
M  V30 14479 H 1360.23 -3.61335 -1.51474 0
M  V30 14480 H 1361.92 -3.82977 -1.18869 0
M  V30 14481 H 1358.51 -4.28256 0.171591 0
M  V30 14482 H 1362.7 -4.86985 0.957018 0
M  V30 14483 H 1357.95 -5.75776 2.05649 0
M  V30 14484 H 1362.13 -6.35862 2.83994 0
M  V30 14485 H 1359.76 -6.80148 3.39563 0
M  V30 14486 N 1361.33 -0.0301034 -1.57571 0
M  V30 14487 C 1362.58 0.647042 -1.91462 0
M  V30 14488 C 1362.9 1.72612 -0.907206 0
M  V30 14489 O 1362.17 1.95833 0.0511268 0
M  V30 14490 H 1360.75 0.241988 -0.706718 0
M  V30 14491 H 1363.41 -0.0781385 -1.94743 0
M  V30 14492 H 1362.51 1.09915 -2.92105 0
M  V30 14493 N 1362.81 1.55714 0.243056 0
M  V30 14494 C 1363.76 1.91467 1.32072 0
M  V30 14495 C 1364.75 0.794182 1.4963 0
M  V30 14496 O 1365.96 0.978835 1.51059 0
M  V30 14497 H 1362.33 0.60815 0.442333 0
M  V30 14498 H 1364.3 2.81433 0.991865 0
M  V30 14499 C 1363.05 2.22917 2.6684 0
M  V30 14500 H 1362.37 3.08639 2.5413 0
M  V30 14501 H 1363.81 2.51833 3.4111 0
M  V30 14502 C 1362.27 1.04683 3.20223 0
M  V30 14503 O 1362.8 0.296806 4.00602 0
M  V30 14504 N 1361.01 0.836419 2.78303 0
M  V30 14505 H 1360.56 1.44804 2.13048 0
M  V30 14506 H 1360.51 0.0470167 3.14365 0
M  V30 14507 N 1364.29 -0.50888 1.49158 0
M  V30 14508 C 1365.22 -1.62008 1.68154 0
M  V30 14509 C 1366.2 -1.61624 0.53025 0
M  V30 14510 O 1367.38 -1.78489 0.765205 0
M  V30 14511 C 1364.51 -3.00525 1.74075 0
M  V30 14512 C 1363.47 -3.15773 2.88915 0
M  V30 14513 C 1362.79 -4.55562 2.79942 0
M  V30 14514 C 1364.09 -2.96542 4.29953 0
M  V30 14515 H 1365.79 -1.46365 2.61185 0
M  V30 14516 H 1363.33 -0.702705 1.2569 0
M  V30 14517 H 1365.29 -3.78154 1.8595 0
M  V30 14518 H 1364.01 -3.17238 0.776373 0
M  V30 14519 H 1362.67 -2.40567 2.76628 0
M  V30 14520 H 1362.32 -4.6914 1.81429 0
M  V30 14521 H 1362.02 -4.66706 3.57015 0
M  V30 14522 H 1363.54 -5.35262 2.93814 0
M  V30 14523 H 1364.95 -3.63947 4.42963 0
M  V30 14524 H 1363.35 -3.19164 5.08187 0
M  V30 14525 H 1364.42 -1.92745 4.44946 0
M  V30 14526 N 1365.76 -1.381 -0.759346 0
M  V30 14527 C 1366.99 -1.37389 -1.55367 0
M  V30 14528 C 1367.41 0.0356097 -1.88066 0
M  V30 14529 O 1366.77 1.0161 -1.5015 0
M  V30 14530 C 1366.82 -2.23098 -2.83302 0
M  V30 14531 O 1365.92 -1.64412 -3.7821 0
M  V30 14532 H 1365.27 -0.468894 -0.470143 0
M  V30 14533 H 1367.8 -1.81787 -0.938858 0
M  V30 14534 H 1367.81 -2.36753 -3.32283 0
M  V30 14535 H 1366.48 -3.25544 -2.58831 0
M  V30 14536 H 1365.06 -1.59867 -3.36893 0
M  V30 14537 N 1367.24 0.986894 -1.22875 0
M  V30 14538 C 1368.47 1.76266 -1.08342 0
M  V30 14539 C 1368.89 1.85226 0.365602 0
M  V30 14540 O 1368.24 1.32675 1.25314 0
M  V30 14541 C 1368.29 3.19282 -1.69533 0
M  V30 14542 O 1368.01 3.10796 -3.08768 0
M  V30 14543 C 1369.52 4.13281 -1.60355 0
M  V30 14544 H 1366.74 0.553374 -0.379497 0
M  V30 14545 H 1369.28 1.24033 -1.62592 0
M  V30 14546 H 1367.43 3.68563 -1.19332 0
M  V30 14547 H 1367.85 4.0078 -3.38343 0
M  V30 14548 H 1369.32 5.11359 -2.07884 0
M  V30 14549 H 1369.8 4.356 -0.561182 0
M  V30 14550 H 1370.41 3.699 -2.09891 0
M  V30 14551 N 1368.72 1.0394 1.18466 0
M  V30 14552 C 1369.95 0.760909 1.92077 0
M  V30 14553 C 1370.36 -0.685622 1.7634 0
M  V30 14554 O 1369.7 -1.47894 1.08963 0
M  V30 14555 C 1369.76 1.04583 3.43952 0
M  V30 14556 C 1369.43 2.48602 3.83466 0
M  V30 14557 C 1370.42 3.46775 3.87354 0
M  V30 14558 C 1368.11 2.8328 4.14798 0
M  V30 14559 C 1370.1 4.77678 4.22022 0
M  V30 14560 C 1367.79 4.1439 4.49138 0
M  V30 14561 C 1368.79 5.11399 4.52725 0
M  V30 14562 O 1368.48 6.40159 4.86264 0
M  V30 14563 H 1368.21 0.276991 0.616646 0
M  V30 14564 H 1370.76 1.3898 1.5124 0
M  V30 14565 H 1368.99 0.359807 3.85022 0
M  V30 14566 H 1370.68 0.755336 3.9881 0
M  V30 14567 H 1371.45 3.21323 3.63286 0
M  V30 14568 H 1367.33 2.08444 4.11184 0
M  V30 14569 H 1370.87 5.53393 4.24737 0
M  V30 14570 H 1366.77 4.39611 4.72666 0
M  V30 14571 H 1367.54 6.4479 5.04171 0
M  V30 14572 N 1370.2 -1.34667 0.818693 0
M  V30 14573 C 1371.13 -2.32134 0.252239 0
M  V30 14574 C 1372.11 -1.58044 -0.628982 0
M  V30 14575 O 1373.29 -1.86049 -0.55674 0
M  V30 14576 C 1370.42 -3.42249 -0.590183 0
M  V30 14577 C 1369.38 -4.27562 0.193547 0
M  V30 14578 C 1368.7 -5.29107 -0.771349 0
M  V30 14579 C 1370 -5.03205 1.39936 0
M  V30 14580 H 1371.7 -2.79758 1.06657 0
M  V30 14581 H 1369.24 -1.34502 0.514325 0
M  V30 14582 H 1371.2 -4.09445 -0.996616 0
M  V30 14583 H 1369.92 -2.93262 -1.43752 0
M  V30 14584 H 1368.58 -3.61962 0.581297 0
M  V30 14585 H 1368.23 -4.76384 -1.61453 0
M  V30 14586 H 1367.93 -5.87063 -0.251201 0
M  V30 14587 H 1369.45 -5.99174 -1.17573 0
M  V30 14588 H 1370.87 -5.6328 1.06717 0
M  V30 14589 H 1369.26 -5.70715 1.85485 0
M  V30 14590 H 1370.33 -4.33145 2.17976 0
M  V30 14591 N 1371.68 -0.573274 -1.46804 0
M  V30 14592 C 1373.09 -0.23423 -1.57872 0
M  V30 14593 C 1373.29 1.26342 -1.56971 0
M  V30 14594 O 1372.35 2.04459 -1.48165 0
M  V30 14595 C 1373.66 -0.875097 -2.87685 0
M  V30 14596 C 1375.21 -0.847812 -3.01299 0
M  V30 14597 C 1375.68 -1.46804 -4.33835 0
M  V30 14598 N 1377.18 -1.43196 -4.4051 0
M  V30 14599 C 1377.91 -1.88133 -5.41658 0
M  V30 14600 N 1377.41 -2.41001 -6.49531 0
M  V30 14601 N 1379.2 -1.79107 -5.32801 0
M  V30 14602 H 1371.35 -1.54612 -1.45633 0
M  V30 14603 H 1373.61 -0.645703 -0.694098 0
M  V30 14604 H 1373.32 -1.92826 -2.94127 0
M  V30 14605 H 1373.19 -0.377671 -3.75305 0
M  V30 14606 H 1375.58 0.196707 -2.94444 0
M  V30 14607 H 1375.66 -1.38316 -2.1518 0
M  V30 14608 H 1375.31 -2.51171 -4.41447 0
M  V30 14609 H 1375.24 -0.908 -5.18713 0
M  V30 14610 H 1377.73 -1.04541 -3.63152 0
M  V30 14611 H 1378.04 -2.73172 -7.22908 0
M  V30 14612 H 1376.38 -2.45021 -6.50377 0
M  V30 14613 H 1379.58 -1.37569 -4.47429 0
M  V30 14614 H 1379.75 -2.14445 -6.11488 0
M  V30 14615 N 1373.15 1.5451 -0.310553 0
M  V30 14616 C 1374.38 2.05204 0.301013 0
M  V30 14617 C 1374.8 1.1859 1.46007 0
M  V30 14618 O 1374.16 0.192081 1.8028 0
M  V30 14619 C 1374.21 3.53221 0.725767 0
M  V30 14620 O 1373.31 3.69596 1.82955 0
M  V30 14621 H 1372.66 0.661566 0.0568026 0
M  V30 14622 H 1375.19 1.99473 -0.455178 0
M  V30 14623 H 1375.2 3.9525 1.01198 0
M  V30 14624 H 1373.87 4.15721 -0.122046 0
M  V30 14625 H 1372.45 3.39472 1.54315 0
M  V30 14626 N 1374.63 0.0384594 1.57553 0
M  V30 14627 C 1375.58 -0.940256 2.10779 0
M  V30 14628 C 1376.55 -1.31705 1.01208 0
M  V30 14629 O 1377.74 -1.40874 1.28683 0
M  V30 14630 C 1374.88 -2.21419 2.64703 0
M  V30 14631 C 1373.99 -1.89302 3.88315 0
M  V30 14632 C 1373.12 -3.1106 4.30599 0
M  V30 14633 C 1372.16 -2.74805 5.46945 0
M  V30 14634 N 1371.3 -3.89217 5.84341 0
M  V30 14635 H 1376.14 -0.479458 2.94118 0
M  V30 14636 H 1373.68 -0.22505 1.45368 0
M  V30 14637 H 1375.63 -2.95946 2.94061 0
M  V30 14638 H 1374.26 -2.65099 1.84181 0
M  V30 14639 H 1373.32 -1.04977 3.65628 0
M  V30 14640 H 1374.63 -1.58607 4.72912 0
M  V30 14641 H 1373.78 -3.93898 4.61442 0
M  V30 14642 H 1372.52 -3.44924 3.44788 0
M  V30 14643 H 1371.53 -1.9038 5.15786 0
M  V30 14644 H 1372.75 -2.42147 6.34462 0
M  V30 14645 H 1370.7 -4.22905 5.01485 0
M  V30 14646 H 1370.61 -3.62177 6.63599 0
M  V30 14647 H 1371.88 -4.72732 6.19794 0
M  V30 14648 N 1376.11 -1.55841 -0.234795 0
M  V30 14649 C 1377.53 -1.48536 -0.583885 0
M  V30 14650 C 1377.73 -0.731018 -1.87772 0
M  V30 14651 O 1376.78 -0.265287 -2.51103 0
M  V30 14652 C 1378.1 -2.93017 -0.675389 0
M  V30 14653 C 1379.64 -3.03459 -0.766906 0
M  V30 14654 C 1380.12 -4.49272 -0.889868 0
M  V30 14655 N 1381.61 -4.5326 -0.95443 0
M  V30 14656 C 1382.35 -5.63346 -1.06905 0
M  V30 14657 N 1381.84 -6.83215 -1.14845 0
M  V30 14658 N 1383.63 -5.51169 -1.10315 0
M  V30 14659 H 1375.79 -2.0332 0.614405 0
M  V30 14660 H 1378.05 -0.923581 0.213779 0
M  V30 14661 H 1377.75 -3.51099 0.205493 0
M  V30 14662 H 1377.63 -3.4418 -1.54337 0
M  V30 14663 H 1380.02 -2.4545 -1.63823 0
M  V30 14664 H 1380.1 -2.55487 0.126472 0
M  V30 14665 H 1379.74 -5.07895 -0.0230489 0
M  V30 14666 H 1379.67 -4.94937 -1.79847 0
M  V30 14667 H 1382.16 -3.6693 -0.903923 0
M  V30 14668 H 1382.47 -7.62863 -1.23532 0
M  V30 14669 H 1380.82 -6.85952 -1.11781 0
M  V30 14670 H 1384.01 -4.56453 -1.03769 0
M  V30 14671 H 1384.18 -6.36998 -1.18903 0
M  V30 14672 N 1377.59 0.500963 -1.49426 0
M  V30 14673 C 1378.54 1.62335 -1.66584 0
M  V30 14674 C 1379.53 1.60837 -0.531773 0
M  V30 14675 O 1380.74 1.65345 -0.711408 0
M  V30 14676 H 1377.11 0.538131 -0.52528 0
M  V30 14677 H 1379.08 1.45016 -2.60793 0
M  V30 14678 C 1377.83 3.00469 -1.74968 0
M  V30 14679 H 1377.16 3.02328 -2.61607 0
M  V30 14680 H 1378.6 3.78539 -1.91008 0
M  V30 14681 C 1377.05 3.33251 -0.49451 0
M  V30 14682 O 1377.58 3.99901 0.379783 0
M  V30 14683 N 1375.79 2.88393 -0.357445 0
M  V30 14684 H 1375.34 2.3433 -1.06991 0
M  V30 14685 H 1375.3 3.10694 0.481287 0
M  V30 14686 N 1379.07 1.38501 0.752011 0
M  V30 14687 C 1379.98 1.38094 1.8965 0
M  V30 14688 C 1380.99 0.277851 1.71767 0
M  V30 14689 O 1382.17 0.516536 1.94663 0
M  V30 14690 C 1379.23 1.2063 3.25037 0
M  V30 14691 C 1378.3 2.40758 3.55435 0
M  V30 14692 C 1377.53 2.24118 4.84362 0
M  V30 14693 O 1377.75 1.23571 5.56854 0
M  V30 14694 O 1376.69 3.12741 5.14273 0
M  V30 14695 H 1380.51 2.34532 1.92947 0
M  V30 14696 H 1378.1 1.19437 0.897504 0
M  V30 14697 H 1379.98 1.12957 4.05979 0
M  V30 14698 H 1378.65 0.272785 3.22549 0
M  V30 14699 H 1377.56 2.54006 2.74648 0
M  V30 14700 H 1378.89 3.32745 3.62686 0
M  V30 14701 N 1380.55 -0.980364 1.23396 0
M  V30 14702 C 1381.79 -1.72166 1.06607 0
M  V30 14703 C 1382.12 -1.90405 -0.397029 0
M  V30 14704 O 1381.38 -1.45363 -1.31027 0
M  V30 14705 C 1381.67 -3.12367 1.73671 0
M  V30 14706 C 1381.34 -3.14007 3.2359 0
M  V30 14707 C 1380 -3.14162 3.64494 0
M  V30 14708 C 1382.35 -3.09319 4.19489 0
M  V30 14709 C 1379.68 -3.07345 4.99756 0
M  V30 14710 C 1382.03 -3.04044 5.54743 0
M  V30 14711 C 1380.7 -3.02521 5.9501 0
M  V30 14712 H 1379.97 -0.63 0.390104 0
M  V30 14713 H 1382.62 -1.14727 1.5333 0
M  V30 14714 H 1380.92 -3.73193 1.19308 0
M  V30 14715 H 1382.62 -3.68493 1.58159 0
M  V30 14716 H 1379.21 -3.14644 2.91028 0
M  V30 14717 H 1383.39 -3.08339 3.88897 0
M  V30 14718 H 1378.65 -3.04519 5.30168 0
M  V30 14719 H 1382.82 -2.99374 6.28767 0
M  V30 14720 H 1380.45 -2.96994 6.99785 0
M  V30 14721 N 1382.02 -1.04567 -1.17913 0
M  V30 14722 C 1383.27 -0.753137 -1.88297 0
M  V30 14723 C 1383.6 0.717651 -1.80453 0
M  V30 14724 O 1382.88 1.5242 -1.20824 0
M  V30 14725 C 1383.16 -1.22626 -3.38578 0
M  V30 14726 C 1383.01 -2.75952 -3.55205 0
M  V30 14727 C 1384.33 -0.82029 -4.32388 0
M  V30 14728 H 1381.45 -0.275067 -0.683745 0
M  V30 14729 H 1384.09 -1.29856 -1.38699 0
M  V30 14730 H 1382.24 -0.762246 -3.80949 0
M  V30 14731 H 1383.92 -3.30429 -3.21892 0
M  V30 14732 H 1382.16 -3.15534 -2.97693 0
M  V30 14733 H 1382.83 -3.04116 -4.60671 0
M  V30 14734 H 1385.31 -1.21965 -3.97824 0
M  V30 14735 H 1384.18 -1.17902 -5.36088 0
M  V30 14736 H 1384.44 0.276205 -4.41236 0
M  V30 14737 N 1383.5 1.34231 -0.825823 0
M  V30 14738 C 1384.91 1.8059 -0.473724 0
M  V30 14739 C 1385.26 1.68438 1.00614 0
M  V30 14740 O 1384.39 1.22606 1.78317 0
M  V30 14741 C 1384.98 3.27884 -0.853099 0
M  V30 14742 C 1383.54 3.72311 -0.553327 0
M  V30 14743 C 1382.69 2.55889 -1.06845 0
M  V30 14744 H 1385.64 1.21937 -1.01573 0
M  V30 14745 H 1385.66 3.80172 -0.158014 0
M  V30 14746 H 1385.17 3.36696 -1.93021 0
M  V30 14747 H 1383.27 3.69034 0.514256 0
M  V30 14748 H 1383.39 4.66315 -1.09942 0
M  V30 14749 H 1381.75 2.49945 -0.489874 0
M  V30 14750 H 1382.53 2.67471 -2.15207 0
M  V30 14751 N 1384.98 0.581051 1.46498 0
M  V30 14752 C 1386.21 0.0714615 2.06476 0
M  V30 14753 C 1386.62 -1.23815 1.43061 0
M  V30 14754 O 1385.96 -1.75903 0.529504 0
M  V30 14755 C 1386.02 -0.170353 3.59096 0
M  V30 14756 C 1385.69 1.05341 4.44694 0
M  V30 14757 C 1386.68 1.96503 4.81334 0
M  V30 14758 C 1384.37 1.27479 4.85854 0
M  V30 14759 C 1386.36 3.08154 5.57961 0
M  V30 14760 C 1384.05 2.39434 5.62241 0
M  V30 14761 C 1385.05 3.29601 5.98207 0
M  V30 14762 O 1384.74 4.39612 6.7305 0
M  V30 14763 H 1384.47 0.0537502 0.67386 0
M  V30 14764 H 1387.02 0.800993 1.89138 0
M  V30 14765 H 1385.25 -0.954477 3.74735 0
M  V30 14766 H 1386.94 -0.628248 4.01009 0
M  V30 14767 H 1387.71 1.80615 4.50115 0
M  V30 14768 H 1383.59 0.582051 4.57311 0
M  V30 14769 H 1387.13 3.78557 5.85953 0
M  V30 14770 H 1383.03 2.55286 5.92874 0
M  V30 14771 H 1383.79 4.37959 6.91473 0
M  V30 14772 N 1386.46 -1.54343 0.318742 0
M  V30 14773 C 1387.4 -2.24166 -0.549397 0
M  V30 14774 C 1388.37 -1.23068 -1.1155 0
M  V30 14775 O 1389.56 -1.51737 -1.15674 0
M  V30 14776 C 1386.7 -2.99938 -1.70678 0
M  V30 14777 C 1385.81 -4.15844 -1.17037 0
M  V30 14778 C 1384.95 -4.79158 -2.29305 0
M  V30 14779 C 1383.99 -5.87176 -1.72888 0
M  V30 14780 N 1383.12 -6.44372 -2.78799 0
M  V30 14781 H 1387.96 -2.97954 0.0526018 0
M  V30 14782 H 1385.5 -1.47052 0.0377307 0
M  V30 14783 H 1387.46 -3.42113 -2.38777 0
M  V30 14784 H 1386.09 -2.28494 -2.28014 0
M  V30 14785 H 1385.14 -3.78486 -0.381082 0
M  V30 14786 H 1386.45 -4.93612 -0.717507 0
M  V30 14787 H 1385.61 -5.24277 -3.05317 0
M  V30 14788 H 1384.35 -4.0076 -2.77926 0
M  V30 14789 H 1383.35 -5.41465 -0.953714 0
M  V30 14790 H 1384.58 -6.67469 -1.2515 0
M  V30 14791 H 1382.52 -5.6885 -3.2672 0
M  V30 14792 H 1382.44 -7.17539 -2.38062 0
M  V30 14793 H 1383.71 -6.94147 -3.54655 0
M  V30 14794 N 1387.94 -0.0468143 -1.5753 0
M  V30 14795 C 1389.16 0.637648 -1.96829 0
M  V30 14796 C 1389.58 1.64635 -0.924158 0
M  V30 14797 O 1388.94 1.82267 0.0921139 0
M  V30 14798 C 1388.99 1.32842 -3.36207 0
M  V30 14799 O 1388.71 0.360111 -4.36617 0
M  V30 14800 C 1390.21 2.10305 -3.90239 0
M  V30 14801 H 1387.43 0.174634 -0.647876 0
M  V30 14802 H 1389.97 -0.111824 -2.04194 0
M  V30 14803 H 1388.13 2.02915 -3.30006 0
M  V30 14804 H 1388.54 0.852661 -5.17523 0
M  V30 14805 H 1390.02 2.54065 -4.90056 0
M  V30 14806 H 1390.49 2.94942 -3.25432 0
M  V30 14807 H 1391.1 1.45152 -3.99764 0
M  V30 14808 N 1389.41 1.55964 0.226527 0
M  V30 14809 C 1390.36 1.92007 1.28069 0
M  V30 14810 C 1391.33 0.776666 1.46823 0
M  V30 14811 O 1392.52 1.03213 1.60474 0
M  V30 14812 C 1389.66 2.23784 2.62707 0
M  V30 14813 C 1388.77 3.51034 2.51792 0
M  V30 14814 C 1387.9 3.72281 3.7892 0
M  V30 14815 C 1386.94 4.93062 3.62707 0
M  V30 14816 N 1386.08 5.10725 4.81772 0
M  V30 14817 H 1390.92 2.81898 0.96631 0
M  V30 14818 H 1388.46 1.39529 0.465847 0
M  V30 14819 H 1390.42 2.40217 3.41104 0
M  V30 14820 H 1389.05 1.37073 2.92251 0
M  V30 14821 H 1388.1 3.42822 1.64856 0
M  V30 14822 H 1389.41 4.39582 2.35731 0
M  V30 14823 H 1388.56 3.88783 4.6576 0
M  V30 14824 H 1387.3 2.82004 3.97901 0
M  V30 14825 H 1386.31 4.76515 2.7425 0
M  V30 14826 H 1387.53 5.84819 3.45201 0
M  V30 14827 H 1385.48 4.2339 5.01076 0
M  V30 14828 H 1385.4 5.93397 4.68419 0
M  V30 14829 H 1386.66 5.31658 5.70053 0
M  V30 14830 N 1390.89 -0.493031 1.4969 0
M  V30 14831 C 1392.14 -1.24418 1.59263 0
M  V30 14832 C 1392.46 -1.92908 0.284882 0
M  V30 14833 O 1391.73 -1.83108 -0.696302 0
M  V30 14834 H 1390.31 -0.462223 0.586821 0
M  V30 14835 H 1392.97 -0.570713 1.86357 0
M  V30 14836 H 1392.07 -2.00386 2.39274 0
M  V30 14837 N 1392.37 -1.38898 -0.744656 0
M  V30 14838 C 1393.33 -1.36633 -1.84022 0
M  V30 14839 C 1394.33 -0.265187 -1.58598 0
M  V30 14840 O 1395.52 -0.522569 -1.66177 0
M  V30 14841 C 1392.66 -1.12938 -3.21649 0
M  V30 14842 H 1393.85 -2.34111 -1.87435 0
M  V30 14843 H 1391.4 -1.24322 -0.947302 0
M  V30 14844 H 1392.14 -0.161027 -3.239 0
M  V30 14845 H 1391.92 -1.9267 -3.41498 0
M  V30 14846 H 1393.41 -1.14071 -4.01718 0
M  V30 14847 N 1393.85 0.973806 -1.23914 0
M  V30 14848 C 1395.26 1.24128 -1.00322 0
M  V30 14849 C 1395.46 1.99378 0.29169 0
M  V30 14850 O 1394.52 2.31445 1.00943 0
M  V30 14851 C 1395.83 2.03438 -2.21435 0
M  V30 14852 C 1397.38 2.16553 -2.25995 0
M  V30 14853 C 1397.86 2.99257 -3.46712 0
M  V30 14854 N 1399.35 3.0684 -3.46992 0
M  V30 14855 C 1400.08 3.71174 -4.37055 0
M  V30 14856 N 1399.58 4.37277 -5.37364 0
M  V30 14857 N 1401.37 3.68126 -4.24782 0
M  V30 14858 H 1393.52 0.469872 -2.07138 0
M  V30 14859 H 1395.79 0.270234 -0.908668 0
M  V30 14860 H 1395.49 1.55527 -3.15443 0
M  V30 14861 H 1395.37 3.0418 -2.23057 0
M  V30 14862 H 1397.75 2.6367 -1.32522 0
M  V30 14863 H 1397.83 1.15179 -2.28402 0
M  V30 14864 H 1397.48 2.52835 -4.40496 0
M  V30 14865 H 1397.41 4.00815 -3.41547 0
M  V30 14866 H 1399.9 2.59813 -2.74419 0
M  V30 14867 H 1400.21 4.84166 -6.02331 0
M  V30 14868 H 1398.56 4.35965 -5.41257 0
M  V30 14869 H 1401.75 3.15657 -3.45656 0
M  V30 14870 H 1401.92 4.17981 -4.95173 0
M  V30 14871 N 1395.33 1.05191 1.17357 0
M  V30 14872 C 1396.57 0.761984 1.87617 0
M  V30 14873 C 1396.9 -0.710976 1.8104 0
M  V30 14874 O 1396.16 -1.53566 1.21309 0
M  V30 14875 C 1396.46 1.18779 3.37085 0
M  V30 14876 C 1396.12 2.66296 3.63864 0
M  V30 14877 C 1394.78 3.06594 3.70882 0
M  V30 14878 C 1397.14 3.61622 3.75339 0
M  V30 14879 C 1394.46 4.41081 3.86865 0
M  V30 14880 C 1396.82 4.95842 3.9284 0
M  V30 14881 C 1395.48 5.35793 3.98097 0
M  V30 14882 H 1394.75 0.27883 0.686538 0
M  V30 14883 H 1397.4 1.31899 1.38834 0
M  V30 14884 H 1395.7 0.549782 3.87923 0
M  V30 14885 H 1397.4 0.940667 3.89811 0
M  V30 14886 H 1393.99 2.34089 3.59027 0
M  V30 14887 H 1398.17 3.31628 3.69238 0
M  V30 14888 H 1393.43 4.71536 3.89183 0
M  V30 14889 H 1397.6 5.696 4.00661 0
M  V30 14890 H 1395.23 6.40009 4.10234 0
M  V30 14891 N 1396.8 -1.33791 0.83293 0
M  V30 14892 C 1398.22 -1.50893 0.519955 0
M  V30 14893 C 1398.42 -1.7749 -0.953919 0
M  V30 14894 O 1397.48 -1.83168 -1.73798 0
M  V30 14895 C 1398.79 -2.66741 1.38815 0
M  V30 14896 C 1400.34 -2.80625 1.38631 0
M  V30 14897 C 1400.81 -3.99528 2.23922 0
M  V30 14898 N 1402.3 -4.06753 2.21599 0
M  V30 14899 C 1403.04 -4.97937 2.84335 0
M  V30 14900 N 1402.53 -5.94276 3.561 0
M  V30 14901 N 1404.33 -4.90887 2.73837 0
M  V30 14902 H 1396.48 -1.14788 1.7871 0
M  V30 14903 H 1398.74 -0.563822 0.762108 0
M  V30 14904 H 1398.45 -2.53748 2.43525 0
M  V30 14905 H 1398.32 -3.62001 1.05996 0
M  V30 14906 H 1400.71 -2.93053 0.346951 0
M  V30 14907 H 1400.79 -1.86144 1.75454 0
M  V30 14908 H 1400.43 -3.8786 3.27914 0
M  V30 14909 H 1400.36 -4.93242 1.84444 0
M  V30 14910 H 1402.85 -3.37802 1.69406 0
M  V30 14911 H 1403.17 -6.60504 4.01191 0
M  V30 14912 H 1401.51 -5.9437 3.60207 0
M  V30 14913 H 1404.7 -4.14586 2.17338 0
M  V30 14914 H 1404.88 -5.61752 3.23014 0
M  V30 14915 N 1398.28 -0.588812 -1.46187 0
M  V30 14916 C 1399.21 0.178825 -2.28501 0
M  V30 14917 C 1400.23 0.849686 -1.38867 0
M  V30 14918 O 1401.42 0.718224 -1.63413 0
M  V30 14919 C 1398.52 1.27309 -3.14079 0
M  V30 14920 C 1397.69 0.692974 -4.31876 0
M  V30 14921 C 1396.75 1.67572 -4.98805 0
M  V30 14922 O 1395.77 1.20937 -5.56204 0
M  V30 14923 N 1396.98 3.00992 -4.96371 0
M  V30 14924 H 1399.74 -0.527407 -2.95023 0
M  V30 14925 H 1397.3 -0.426998 -1.56168 0
M  V30 14926 H 1399.29 1.92993 -3.55719 0
M  V30 14927 H 1397.86 1.88209 -2.49592 0
M  V30 14928 H 1397.08 -0.141485 -3.93946 0
M  V30 14929 H 1398.37 0.28529 -5.08 0
M  V30 14930 H 1397.77 3.41498 -4.50994 0
M  V30 14931 H 1396.33 3.62149 -5.41933 0
M  V30 14932 N 1399.76 1.54172 -0.326923 0
M  V30 14933 C 1401.01 2.00233 0.274098 0
M  V30 14934 C 1401.33 1.21665 1.5239 0
M  V30 14935 O 1400.6 0.319359 1.93279 0
M  V30 14936 H 1399.18 0.739687 0.104271 0
M  V30 14937 H 1401.84 1.8977 -0.444244 0
M  V30 14938 H 1400.94 3.07599 0.528154 0
M  V30 14939 N 1401.24 0.0551678 1.57503 0
M  V30 14940 C 1402.19 -0.917847 2.11764 0
M  V30 14941 C 1403.16 -1.30624 1.02599 0
M  V30 14942 O 1404.34 -1.39501 1.30169 0
M  V30 14943 C 1401.48 -2.18599 2.67036 0
M  V30 14944 C 1400.59 -1.85173 3.90301 0
M  V30 14945 C 1399.73 -3.06475 4.33874 0
M  V30 14946 C 1398.77 -2.68988 5.49829 0
M  V30 14947 N 1397.9 -3.82997 5.88437 0
M  V30 14948 H 1402.74 -0.448236 2.9461 0
M  V30 14949 H 1400.28 -0.209619 1.45599 0
M  V30 14950 H 1402.24 -2.92811 2.97183 0
M  V30 14951 H 1400.87 -2.6313 1.86982 0
M  V30 14952 H 1399.92 -1.01094 3.66721 0
M  V30 14953 H 1401.23 -1.53582 4.74567 0
M  V30 14954 H 1400.39 -3.88982 4.65594 0
M  V30 14955 H 1399.13 -3.41247 3.48427 0
M  V30 14956 H 1398.13 -1.84899 5.17776 0
M  V30 14957 H 1399.36 -2.35404 6.36994 0
M  V30 14958 H 1397.3 -4.17562 5.05942 0
M  V30 14959 H 1397.22 -3.55118 6.67403 0
M  V30 14960 H 1398.49 -4.66131 6.24773 0
M  V30 14961 N 1402.72 -1.56081 -0.218252 0
M  V30 14962 C 1403.99 -1.70043 -0.966684 0
M  V30 14963 C 1404.37 -0.603372 -2.02293 0
M  V30 14964 O 1403.72 0.389138 -2.25162 0
M  V30 14965 C 1403.93 -3.11484 -1.57413 0
M  V30 14966 C 1405.28 -3.70995 -2.06513 0
M  V30 14967 O 1406.3 -3.14466 -1.67301 0
M  V30 14968 O 1405.16 -4.70156 -2.78596 0
M  V30 14969 H 1402.26 -0.692691 -0.451784 0
M  V30 14970 H 1404.8 -1.68398 -0.209774 0
M  V30 14971 H 1403.57 -3.8279 -0.811614 0
M  V30 14972 H 1403.2 -3.1726 -2.3965 0
M  V30 14973 N 1404.2 0.485086 -1.49949 0
M  V30 14974 C 1405.43 1.25996 -1.63733 0
M  V30 14975 C 1405.83 1.8657 -0.31435 0
M  V30 14976 O 1405.18 1.69336 0.71211 0
M  V30 14977 C 1405.24 2.41842 -2.65994 0
M  V30 14978 C 1404.9 2.02014 -4.09926 0
M  V30 14979 C 1405.9 1.55068 -4.96236 0
M  V30 14980 C 1403.58 2.11162 -4.55759 0
M  V30 14981 C 1405.58 1.17796 -6.26421 0
M  V30 14982 C 1403.27 1.73501 -5.85953 0
M  V30 14983 C 1404.26 1.26894 -6.71109 0
M  V30 14984 O 1403.95 0.89749 -7.98874 0
M  V30 14985 H 1403.68 0.387743 -0.553743 0
M  V30 14986 H 1406.24 0.5871 -1.96831 0
M  V30 14987 H 1404.47 3.12254 -2.2811 0
M  V30 14988 H 1406.16 3.03837 -2.69143 0
M  V30 14989 H 1406.92 1.47434 -4.62048 0
M  V30 14990 H 1402.8 2.46389 -3.89633 0
M  V30 14991 H 1406.35 0.813467 -6.92841 0
M  V30 14992 H 1402.24 1.8079 -6.19665 0
M  V30 14993 H 1403.01 1.02757 -8.12024 0
M  V30 14994 N 1405.67 1.39291 0.737279 0
M  V30 14995 C 1406.92 1.36592 1.49901 0
M  V30 14996 C 1407.25 -0.0388812 1.94161 0
M  V30 14997 O 1406.53 -1.00337 1.66622 0
M  V30 14998 C 1406.81 2.33625 2.74028 0
M  V30 14999 C 1406.66 3.83037 2.35802 0
M  V30 15000 C 1407.98 2.28524 3.76118 0
M  V30 15001 H 1405.1 0.497482 0.543765 0
M  V30 15002 H 1407.74 1.70265 0.843193 0
M  V30 15003 H 1405.89 2.0504 3.29986 0
M  V30 15004 H 1407.57 4.22363 1.85493 0
M  V30 15005 H 1405.81 3.99924 1.68058 0
M  V30 15006 H 1406.48 4.46415 3.24681 0
M  V30 15007 H 1408.96 2.53794 3.29739 0
M  V30 15008 H 1407.83 2.98501 4.60639 0
M  V30 15009 H 1408.09 1.28949 4.22876 0
M  V30 15010 N 1407.15 -0.967221 1.24429 0
M  V30 15011 C 1408.4 -1.70688 1.08213 0
M  V30 15012 C 1408.72 -1.91268 -0.379693 0
M  V30 15013 O 1407.99 -1.49077 -1.27094 0
M  V30 15014 H 1406.57 -0.632489 0.39745 0
M  V30 15015 H 1409.23 -1.16356 1.56356 0
M  V30 15016 H 1408.33 -2.69119 1.58055 0
M  V30 15017 N 1408.63 -1.05812 -1.16797 0
M  V30 15018 C 1409.59 -0.668766 -2.19226 0
M  V30 15019 C 1410.59 0.28299 -1.5829 0
M  V30 15020 O 1411.78 0.0660233 -1.74075 0
M  V30 15021 C 1408.91 0.0167379 -3.40896 0
M  V30 15022 H 1410.11 -1.57543 -2.55187 0
M  V30 15023 H 1407.66 -0.852753 -1.30988 0
M  V30 15024 H 1408.4 0.936382 -3.10487 0
M  V30 15025 H 1408.18 -0.667576 -3.86375 0
M  V30 15026 H 1409.67 0.275041 -4.16693 0
M  V30 15027 N 1410.11 1.33347 -0.840014 0
M  V30 15028 C 1411.36 1.97007 -0.432581 0
M  V30 15029 C 1411.67 1.67278 1.01378 0
M  V30 15030 O 1412.88 2.2456 1.52595 0
M  V30 15031 C 1411.33 3.52572 -0.72258 0
M  V30 15032 C 1410.94 3.91176 -2.1837 0
M  V30 15033 C 1412.68 4.22776 -0.382153 0
M  V30 15034 C 1410.59 5.39724 -2.41768 0
M  V30 15035 H 1409.52 0.737255 -0.158024 0
M  V30 15036 H 1412.17 1.5195 -1.02876 0
M  V30 15037 H 1410.55 3.9596 -0.0560179 0
M  V30 15038 H 1411.73 3.58842 -2.89083 0
M  V30 15039 H 1410.04 3.33956 -2.48721 0
M  V30 15040 H 1412.64 5.32021 -0.534588 0
M  V30 15041 H 1412.98 4.10792 0.674967 0
M  V30 15042 H 1413.52 3.84922 -1.004 0
M  V30 15043 H 1410.25 5.56713 -3.4605 0
M  V30 15044 H 1409.77 5.73514 -1.75617 0
M  V30 15045 H 1411.45 6.06624 -2.2498 0
M  V30 15046 N 1411.59 0.596556 1.45873 0
M  V30 15047 C 1413 0.173758 1.8589 0
M  V30 15048 C 1413.35 -1.26665 1.49835 0
M  V30 15049 O 1412.47 -1.9588 0.919773 0
M  V30 15050 C 1413.07 0.308567 3.37392 0
M  V30 15051 C 1411.63 -0.0594585 3.76353 0
M  V30 15052 C 1410.77 0.638127 2.69858 0
M  V30 15053 H 1413.72 0.803928 1.36831 0
M  V30 15054 H 1413.75 -0.462294 3.77681 0
M  V30 15055 H 1413.26 1.35701 3.63603 0
M  V30 15056 H 1411.36 -1.1075 3.5576 0
M  V30 15057 H 1411.47 0.326506 4.77986 0
M  V30 15058 H 1409.84 0.0769147 2.54584 0
M  V30 15059 H 1410.62 1.68849 2.98906 0
M  V30 15060 N 1413.06 -1.53996 0.335095 0
M  V30 15061 C 1414.31 -2.01069 -0.264388 0
M  V30 15062 C 1414.64 -1.22271 -1.50876 0
M  V30 15063 O 1413.92 -0.30806 -1.92045 0
M  V30 15064 C 1414.2 -3.55283 -0.587 0
M  V30 15065 C 1414.05 -4.44799 0.668877 0
M  V30 15066 C 1415.37 -4.17238 -1.40003 0
M  V30 15067 H 1412.49 -0.730901 -0.0946202 0
M  V30 15068 H 1415.13 -1.84497 0.453958 0
M  V30 15069 H 1413.28 -3.69536 -1.19899 0
M  V30 15070 H 1414.96 -4.42398 1.30698 0
M  V30 15071 H 1413.2 -4.14005 1.29547 0
M  V30 15072 H 1413.87 -5.5056 0.398523 0
M  V30 15073 H 1416.35 -4.06631 -0.88262 0
M  V30 15074 H 1415.22 -5.2523 -1.59451 0
M  V30 15075 H 1415.48 -3.71309 -2.39962 0
M  V30 15076 N 1414.54 -0.0635198 -1.57472 0
M  V30 15077 C 1415.82 0.648029 -1.84553 0
M  V30 15078 C 1416.2 1.88295 -0.954371 0
M  V30 15079 O 1415.55 2.28492 -0.0185351 0
M  V30 15080 C 1415.76 0.993573 -3.34558 0
M  V30 15081 C 1417.1 1.3706 -4.0187 0
M  V30 15082 O 1418.13 1.08555 -3.39255 0
M  V30 15083 O 1416.99 1.90309 -5.12294 0
M  V30 15084 H 1414.08 0.321047 -0.76214 0
M  V30 15085 H 1416.63 -0.0938223 -1.6944 0
M  V30 15086 H 1415.4 0.116139 -3.91128 0
M  V30 15087 H 1415.02 1.79246 -3.54904 0
M  V30 15088 N 1416.02 1.56195 0.209972 0
M  V30 15089 C 1416.95 1.96378 1.26324 0
M  V30 15090 C 1417.93 0.833606 1.48273 0
M  V30 15091 O 1419.12 1.0968 1.60262 0
M  V30 15092 C 1416.25 2.29048 2.61064 0
M  V30 15093 C 1415.2 3.44665 2.53752 0
M  V30 15094 C 1414.53 3.6297 3.92628 0
M  V30 15095 C 1415.83 4.79297 2.07536 0
M  V30 15096 H 1417.52 2.8461 0.929379 0
M  V30 15097 H 1415.07 1.36931 0.445627 0
M  V30 15098 H 1417.02 2.55752 3.34916 0
M  V30 15099 H 1415.74 1.37682 2.96161 0
M  V30 15100 H 1414.4 3.18028 1.82356 0
M  V30 15101 H 1414.05 2.68961 4.25052 0
M  V30 15102 H 1413.75 4.40741 3.88614 0
M  V30 15103 H 1415.27 3.92035 4.68125 0
M  V30 15104 H 1416.69 5.05131 2.71138 0
M  V30 15105 H 1415.08 5.60433 2.14557 0
M  V30 15106 H 1416.15 4.73877 1.02802 0
M  V30 15107 N 1417.5 -0.477127 1.50204 0
M  V30 15108 C 1418.44 -1.57587 1.68626 0
M  V30 15109 C 1419.41 -1.57499 0.527576 0
M  V30 15110 O 1420.6 -1.75121 0.757438 0
M  V30 15111 C 1417.74 -2.956 1.78086 0
M  V30 15112 C 1416.85 -3.05523 3.05417 0
M  V30 15113 C 1415.99 -4.34414 3.05709 0
M  V30 15114 C 1415.03 -4.38057 4.27519 0
M  V30 15115 N 1414.16 -5.5841 4.25585 0
M  V30 15116 H 1419 -1.41185 2.62433 0
M  V30 15117 H 1416.54 -0.686537 1.30096 0
M  V30 15118 H 1418.5 -3.75626 1.81552 0
M  V30 15119 H 1417.13 -3.10651 0.877251 0
M  V30 15120 H 1416.18 -2.18409 3.11451 0
M  V30 15121 H 1417.49 -3.04075 3.95398 0
M  V30 15122 H 1416.65 -5.22782 3.07871 0
M  V30 15123 H 1415.39 -4.38462 2.13548 0
M  V30 15124 H 1414.39 -3.48087 4.25577 0
M  V30 15125 H 1415.62 -4.35705 5.20901 0
M  V30 15126 H 1413.56 -5.63255 3.36274 0
M  V30 15127 H 1413.48 -5.58677 5.09328 0
M  V30 15128 H 1414.75 -6.4892 4.31884 0
M  V30 15129 N 1418.98 -1.3968 -0.729882 0
M  V30 15130 C 1420.39 -1.21396 -1.0361 0
M  V30 15131 C 1420.59 -0.0791302 -2.01345 0
M  V30 15132 O 1419.65 0.567575 -2.46038 0
M  V30 15133 C 1420.96 -2.55006 -1.59349 0
M  V30 15134 C 1422.51 -2.61896 -1.71405 0
M  V30 15135 C 1422.98 -3.9574 -2.30552 0
M  V30 15136 N 1424.48 -3.97406 -2.37955 0
M  V30 15137 C 1425.21 -4.97745 -2.8467 0
M  V30 15138 N 1424.71 -6.08482 -3.31243 0
M  V30 15139 N 1426.5 -4.85121 -2.83925 0
M  V30 15140 H 1418.65 -2.12242 -0.081787 0
M  V30 15141 H 1420.91 -0.942827 -0.0989005 0
M  V30 15142 H 1420.62 -3.38626 -0.950005 0
M  V30 15143 H 1420.49 -2.75087 -2.58083 0
M  V30 15144 H 1422.88 -1.78656 -2.34874 0
M  V30 15145 H 1422.96 -2.45659 -0.7131 0
M  V30 15146 H 1422.61 -4.79412 -1.67709 0
M  V30 15147 H 1422.54 -4.09299 -3.31334 0
M  V30 15148 H 1425.03 -3.17435 -2.05044 0
M  V30 15149 H 1425.34 -6.8095 -3.65414 0
M  V30 15150 H 1423.68 -6.12068 -3.29239 0
M  V30 15151 H 1426.88 -3.97711 -2.46867 0
M  V30 15152 H 1427.05 -5.63465 -3.20017 0
M  V30 15153 N 1420.45 0.960609 -1.2494 0
M  V30 15154 C 1421.87 1.23057 -1.01633 0
M  V30 15155 C 1422.07 1.99676 0.270527 0
M  V30 15156 O 1421.13 2.32503 0.984823 0
M  V30 15157 C 1422.44 2.01078 -2.2358 0
M  V30 15158 C 1423.99 2.14144 -2.28279 0
M  V30 15159 C 1424.46 2.95563 -3.49867 0
M  V30 15160 N 1425.95 3.03143 -3.50227 0
M  V30 15161 C 1426.69 3.66518 -4.40967 0
M  V30 15162 N 1426.18 4.31553 -5.41972 0
M  V30 15163 N 1427.98 3.636 -4.28663 0
M  V30 15164 H 1420.13 0.447876 -2.07624 0
M  V30 15165 H 1422.39 0.260581 -0.911483 0
M  V30 15166 H 1422.1 1.52172 -3.17075 0
M  V30 15167 H 1421.97 3.01797 -2.2627 0
M  V30 15168 H 1424.36 2.6225 -1.35311 0
M  V30 15169 H 1424.44 1.1275 -2.29611 0
M  V30 15170 H 1424.08 2.48149 -4.43153 0
M  V30 15171 H 1424.01 3.9717 -3.45779 0
M  V30 15172 H 1426.5 2.56888 -2.77159 0
M  V30 15173 H 1426.82 4.7775 -6.07433 0
M  V30 15174 H 1425.16 4.302 -5.45851 0
M  V30 15175 H 1428.35 3.11973 -3.48985 0
M  V30 15176 H 1428.53 4.12706 -4.99578 0
M  V30 15177 N 1421.93 1.0643 1.16234 0
M  V30 15178 C 1422.86 0.697605 2.22836 0
M  V30 15179 C 1423.84 -0.310563 1.67241 0
M  V30 15180 O 1425.03 -0.185385 1.93313 0
M  V30 15181 C 1422.16 0.0847097 3.47197 0
M  V30 15182 C 1421.11 1.019 4.15693 0
M  V30 15183 C 1420.44 0.269339 5.34021 0
M  V30 15184 C 1421.74 2.34861 4.66516 0
M  V30 15185 H 1423.43 1.58883 2.53765 0
M  V30 15186 H 1420.98 0.765388 1.21975 0
M  V30 15187 H 1422.93 -0.1837 4.20999 0
M  V30 15188 H 1421.66 -0.84154 3.15572 0
M  V30 15189 H 1420.31 1.27218 3.43818 0
M  V30 15190 H 1419.96 -0.660072 4.9865 0
M  V30 15191 H 1419.66 0.892001 5.8079 0
M  V30 15192 H 1421.19 0.00850775 6.10599 0
M  V30 15193 H 1422.6 2.13922 5.31893 0
M  V30 15194 H 1421 2.92637 5.23912 0
M  V30 15195 H 1422.07 2.97834 3.82653 0
M  V30 15196 N 1423.41 -1.329 0.847073 0
M  V30 15197 C 1424.69 -1.921 0.368351 0
M  V30 15198 C 1425.07 -1.77205 -1.14724 0
M  V30 15199 O 1424.42 -1.16547 -1.96543 0
M  V30 15200 C 1424.63 -3.39125 0.824326 0
M  V30 15201 C 1425.97 -4.16267 0.837097 0
M  V30 15202 O 1427 -3.47812 0.768466 0
M  V30 15203 O 1425.86 -5.38487 0.932389 0
M  V30 15204 H 1422.95 -0.820187 0.105936 0
M  V30 15205 H 1425.5 -1.41719 0.933471 0
M  V30 15206 H 1424.27 -3.43875 1.86723 0
M  V30 15207 H 1423.89 -3.96898 0.236233 0
M  V30 15208 N 1424.89 -0.604284 -1.45555 0
M  V30 15209 C 1426.11 -0.102634 -2.07146 0
M  V30 15210 C 1426.54 1.20239 -1.44652 0
M  V30 15211 O 1425.9 1.73133 -0.538033 0
M  V30 15212 C 1425.94 0.0270231 -3.6059 0
M  V30 15213 O 1425.05 1.0781 -3.98059 0
M  V30 15214 H 1424.39 -0.0725667 -0.660023 0
M  V30 15215 H 1426.92 -0.833355 -1.86859 0
M  V30 15216 H 1426.93 0.226299 -4.07372 0
M  V30 15217 H 1425.6 -0.925896 -4.05463 0
M  V30 15218 H 1424.18 0.855552 -3.62953 0
M  V30 15219 N 1426.37 1.53816 -0.343257 0
M  V30 15220 C 1427.62 2.0009 0.254346 0
M  V30 15221 C 1427.93 1.23502 1.51679 0
M  V30 15222 O 1429.13 1.60251 2.19162 0
M  V30 15223 C 1427.59 3.56357 0.503775 0
M  V30 15224 C 1427.2 4.418 -0.742754 0
M  V30 15225 C 1428.94 4.11046 1.06025 0
M  V30 15226 C 1426.85 5.89576 -0.46414 0
M  V30 15227 H 1425.78 0.747496 0.0988189 0
M  V30 15228 H 1428.43 1.77679 -0.45854 0
M  V30 15229 H 1426.81 3.74833 1.27736 0
M  V30 15230 H 1427.99 4.35099 -1.51742 0
M  V30 15231 H 1426.3 3.98101 -1.22085 0
M  V30 15232 H 1428.9 5.19063 1.28365 0
M  V30 15233 H 1429.24 3.64247 2.01568 0
M  V30 15234 H 1429.77 3.9628 0.347384 0
M  V30 15235 H 1426.51 6.40608 -1.38928 0
M  V30 15236 H 1426.03 5.99181 0.272441 0
M  V30 15237 H 1427.71 6.46949 -0.0812761 0
M  V30 15238 N 1427.84 0.0718701 1.57436 0
M  V30 15239 C 1429.07 -0.606253 1.97819 0
M  V30 15240 C 1429.49 -1.63144 0.950233 0
M  V30 15241 O 1428.84 -1.82391 -0.0631051 0
M  V30 15242 C 1428.9 -1.27476 3.38278 0
M  V30 15243 O 1428.62 -0.290603 4.37135 0
M  V30 15244 C 1430.12 -2.0407 3.93536 0
M  V30 15245 H 1427.34 -0.164305 0.650573 0
M  V30 15246 H 1429.88 0.144295 2.0399 0
M  V30 15247 H 1428.04 -1.97639 3.33193 0
M  V30 15248 H 1428.45 -0.77022 5.18814 0
M  V30 15249 H 1429.92 -2.46237 4.94036 0
M  V30 15250 H 1430.4 -2.89728 3.30083 0
M  V30 15251 H 1431.01 -1.38773 4.02022 0
M  V30 15252 N 1429.32 -1.56304 -0.201686 0
M  V30 15253 C 1430.55 -1.84692 -0.943583 0
M  V30 15254 C 1430.97 -0.654649 -1.7634 0
M  V30 15255 O 1430.33 0.396586 -1.76909 0
M  V30 15256 C 1430.38 -3.11251 -1.82085 0
M  V30 15257 O 1429.48 -2.9134 -2.91881 0
M  V30 15258 H 1428.82 -0.608351 -0.266092 0
M  V30 15259 H 1431.35 -2.0353 -0.208992 0
M  V30 15260 H 1431.36 -3.41874 -2.2268 0
M  V30 15261 H 1430.04 -3.97652 -1.21844 0
M  V30 15262 H 1428.62 -2.72 -2.55089 0
M  V30 15263 N 1430.8 0.469154 -1.50455 0
M  V30 15264 C 1432.03 1.24899 -1.65575 0
M  V30 15265 C 1432.45 1.85009 -0.339581 0
M  V30 15266 O 1431.81 1.67376 0.696774 0
M  V30 15267 C 1431.86 2.33205 -2.75041 0
M  V30 15268 O 1430.96 3.37898 -2.36429 0
M  V30 15269 H 1430.3 0.367362 -0.553119 0
M  V30 15270 H 1432.83 0.558083 -1.96842 0
M  V30 15271 H 1432.84 2.78487 -2.98176 0
M  V30 15272 H 1431.52 1.88826 -3.70564 0
M  V30 15273 H 1430.09 2.98314 -2.23748 0
M  V30 15274 N 1432.28 1.40065 0.722464 0
M  V30 15275 C 1433.21 1.35695 1.84715 0
M  V30 15276 C 1434.22 0.263522 1.60653 0
M  V30 15277 O 1435.41 0.523382 1.70655 0
M  V30 15278 C 1432.51 1.08722 3.20987 0
M  V30 15279 C 1431.69 2.29586 3.72302 0
M  V30 15280 C 1430.74 1.98879 4.87169 0
M  V30 15281 O 1429.77 2.71681 5.00178 0
M  V30 15282 N 1430.97 0.962554 5.72464 0
M  V30 15283 H 1433.74 2.32621 1.88964 0
M  V30 15284 H 1431.3 1.3433 0.903723 0
M  V30 15285 H 1433.29 0.861772 3.95418 0
M  V30 15286 H 1431.86 0.204869 3.11928 0
M  V30 15287 H 1431.08 2.68004 2.8908 0
M  V30 15288 H 1432.37 3.10176 4.03322 0
M  V30 15289 H 1431.77 0.359452 5.64557 0
M  V30 15290 H 1430.32 0.797003 6.46909 0
M  V30 15291 N 1433.76 -0.95397 1.25448 0
M  V30 15292 C 1434.98 -1.73863 1.13077 0
M  V30 15293 C 1435.41 -1.85503 -0.311481 0
M  V30 15294 O 1434.77 -1.33596 -1.22564 0
M  V30 15295 C 1434.81 -3.13 1.79062 0
M  V30 15296 O 1433.92 -3.98258 1.07072 0
M  V30 15297 H 1433.26 -0.533921 0.394746 0
M  V30 15298 H 1435.79 -1.19571 1.66024 0
M  V30 15299 H 1435.8 -3.63456 1.85374 0
M  V30 15300 H 1434.47 -3.03844 2.83992 0
M  V30 15301 H 1433.05 -3.56722 1.08645 0
M  V30 15302 N 1435.24 -1.07045 -1.15668 0
M  V30 15303 C 1436.46 -0.812802 -1.9081 0
M  V30 15304 C 1436.89 0.627827 -1.77313 0
M  V30 15305 O 1436.24 1.43836 -1.10368 0
M  V30 15306 C 1436.29 -1.2219 -3.39267 0
M  V30 15307 O 1435.4 -0.365305 -4.10779 0
M  V30 15308 H 1434.74 -0.296385 -0.594182 0
M  V30 15309 H 1437.27 -1.42825 -1.465 0
M  V30 15310 H 1437.28 -1.19674 -3.90054 0
M  V30 15311 H 1435.95 -2.27121 -3.48409 0
M  V30 15312 H 1434.53 -0.452687 -3.70142 0
M  V30 15313 N 1436.71 1.32449 -0.85411 0
M  V30 15314 C 1437.68 2.27183 -0.303377 0
M  V30 15315 C 1438.68 1.51582 0.536622 0
M  V30 15316 O 1439.87 1.70684 0.348211 0
M  V30 15317 C 1437 3.36086 0.570852 0
M  V30 15318 H 1438.19 2.77408 -1.1395 0
M  V30 15319 H 1435.74 1.43111 -0.628402 0
M  V30 15320 H 1436.48 2.91128 1.42881 0
M  V30 15321 H 1436.26 3.92088 -0.030399 0
M  V30 15322 H 1437.75 4.06675 0.948972 0
M  V30 15323 N 1438.19 0.611994 1.45232 0
M  V30 15324 C 1439.42 0.113618 2.07089 0
M  V30 15325 C 1439.84 -1.1947 1.45288 0
M  V30 15326 O 1439.2 -1.72845 0.547207 0
M  V30 15327 C 1439.25 -0.00789978 3.60599 0
M  V30 15328 O 1438.35 -1.05697 3.98625 0
M  V30 15329 H 1437.69 0.076066 0.659629 0
M  V30 15330 H 1440.22 0.843253 1.86415 0
M  V30 15331 H 1440.23 -0.204692 4.07486 0
M  V30 15332 H 1438.91 0.947386 4.04966 0
M  V30 15333 H 1437.48 -0.836291 3.63401 0
M  V30 15334 N 1439.67 -1.53632 0.351409 0
M  V30 15335 C 1440.89 -2.0593 -0.246501 0
M  V30 15336 C 1441.32 -1.22419 -1.42812 0
M  V30 15337 O 1440.68 -0.239811 -1.79707 0
M  V30 15338 C 1440.73 -3.55021 -0.631862 0
M  V30 15339 O 1439.83 -3.74317 -1.73092 0
M  V30 15340 H 1439.17 -0.662839 -0.0392424 0
M  V30 15341 H 1441.7 -1.98196 0.507904 0
M  V30 15342 H 1441.71 -3.97795 -0.906831 0
M  V30 15343 H 1440.39 -4.15251 0.232224 0
M  V30 15344 H 1438.96 -3.43444 -1.4526 0
M  V30 15345 N 1441.15 -0.0802183 -1.57396 0
M  V30 15346 C 1442.4 0.585802 -1.93424 0
M  V30 15347 C 1442.72 1.69638 -0.961662 0
M  V30 15348 O 1441.99 1.95897 -0.011202 0
M  V30 15349 H 1440.57 0.219382 -0.714059 0
M  V30 15350 H 1443.23 -0.140055 -1.94396 0
M  V30 15351 H 1442.32 1.00566 -2.95454 0
M  V30 15352 N 1442.63 1.56409 0.193394 0
M  V30 15353 C 1443.87 1.80724 0.913521 0
M  V30 15354 C 1444.2 0.653718 1.83185 0
M  V30 15355 O 1443.46 -0.360417 1.92353 0
M  V30 15356 C 1443.75 3.11039 1.76039 0
M  V30 15357 C 1443.42 4.39832 0.992892 0
M  V30 15358 C 1442.08 4.7482 0.780991 0
M  V30 15359 C 1444.43 5.19228 0.452985 0
M  V30 15360 C 1441.76 5.86697 0.0177286 0
M  V30 15361 C 1444.11 6.31902 -0.297075 0
M  V30 15362 C 1442.78 6.65472 -0.519977 0
M  V30 15363 H 1442.05 0.661315 0.334281 0
M  V30 15364 H 1444.7 1.90654 0.179786 0
M  V30 15365 H 1443 2.96353 2.56285 0
M  V30 15366 H 1444.7 3.27058 2.32022 0
M  V30 15367 H 1441.29 4.12376 1.16806 0
M  V30 15368 H 1445.47 4.9261 0.604092 0
M  V30 15369 H 1440.73 6.11178 -0.164925 0
M  V30 15370 H 1444.9 6.92639 -0.7228 0
M  V30 15371 H 1442.53 7.52004 -1.11331 0
M  V30 15372 N 1444.1 -0.461169 1.50702 0
M  V30 15373 C 1445.35 -1.21431 1.62427 0
M  V30 15374 C 1445.68 -1.91406 0.328228 0
M  V30 15375 O 1444.96 -1.82563 -0.670898 0
M  V30 15376 C 1445.24 -2.25016 2.8114 0
M  V30 15377 C 1445.09 -1.5928 4.20654 0
M  V30 15378 C 1446.41 -3.26234 2.95397 0
M  V30 15379 H 1443.53 -0.440113 0.59116 0
M  V30 15380 H 1446.17 -0.506726 1.83118 0
M  V30 15381 H 1444.32 -2.85363 2.63629 0
M  V30 15382 H 1446 -1.02454 4.49779 0
M  V30 15383 H 1444.24 -0.895665 4.24453 0
M  V30 15384 H 1444.91 -2.34602 4.99666 0
M  V30 15385 H 1447.39 -2.7592 3.1146 0
M  V30 15386 H 1446.26 -3.96031 3.80067 0
M  V30 15387 H 1446.52 -3.90943 2.06436 0
M  V30 15388 N 1445.58 -1.40446 -0.715026 0
M  V30 15389 C 1446.49 -1.43074 -1.85922 0
M  V30 15390 C 1447.51 -0.323294 -1.7097 0
M  V30 15391 O 1448.68 -0.567966 -1.93226 0
M  V30 15392 C 1445.75 -1.29206 -3.21725 0
M  V30 15393 C 1444.81 -2.50097 -3.48927 0
M  V30 15394 C 1444.04 -2.36881 -4.7825 0
M  V30 15395 O 1444.27 -1.38292 -5.53382 0
M  V30 15396 O 1443.2 -3.26266 -5.058 0
M  V30 15397 H 1447.03 -2.39565 -1.86661 0
M  V30 15398 H 1444.61 -1.21775 -0.865522 0
M  V30 15399 H 1446.49 -1.23681 -4.02841 0
M  V30 15400 H 1445.17 -0.358207 -3.21712 0
M  V30 15401 H 1444.07 -2.61199 -2.67817 0
M  V30 15402 H 1445.41 -3.42244 -3.53737 0
M  V30 15403 N 1447.06 0.947303 -1.25952 0
M  V30 15404 C 1447.97 2.07878 -1.08738 0
M  V30 15405 C 1448.99 1.73985 -0.0225212 0
M  V30 15406 O 1450.16 2.00139 -0.224984 0
M  V30 15407 C 1447.23 3.39231 -0.715756 0
M  V30 15408 C 1446.29 3.86945 -1.85935 0
M  V30 15409 C 1445.52 5.1203 -1.50537 0
M  V30 15410 O 1445.74 5.68965 -0.404323 0
M  V30 15411 O 1444.68 5.54634 -2.33805 0
M  V30 15412 H 1448.5 2.25305 -2.03645 0
M  V30 15413 H 1446.09 1.06321 -1.04958 0
M  V30 15414 H 1447.97 4.18167 -0.520962 0
M  V30 15415 H 1446.65 3.23057 0.203978 0
M  V30 15416 H 1445.55 3.08981 -2.10906 0
M  V30 15417 H 1446.89 4.0763 -2.75859 0
M  V30 15418 N 1448.54 1.07657 1.15099 0
M  V30 15419 C 1449.49 0.699678 2.19939 0
M  V30 15420 C 1450.46 -0.310432 1.63173 0
M  V30 15421 O 1451.64 -0.196177 1.89789 0
M  V30 15422 C 1448.78 0.106963 3.44934 0
M  V30 15423 C 1447.89 1.16892 4.15885 0
M  V30 15424 C 1447.03 0.540884 5.28439 0
M  V30 15425 C 1446.07 1.58542 5.91211 0
M  V30 15426 N 1445.2 0.979731 6.95231 0
M  V30 15427 H 1450.04 1.59805 2.51528 0
M  V30 15428 H 1447.58 0.798746 1.23525 0
M  V30 15429 H 1449.54 -0.254335 4.16424 0
M  V30 15430 H 1448.17 -0.754756 3.13852 0
M  V30 15431 H 1447.22 1.64775 3.4286 0
M  V30 15432 H 1448.53 1.96078 4.58645 0
M  V30 15433 H 1447.69 0.127397 6.06566 0
M  V30 15434 H 1446.43 -0.282708 4.8688 0
M  V30 15435 H 1445.43 2.00865 5.11794 0
M  V30 15436 H 1446.66 2.41135 6.34847 0
M  V30 15437 H 1444.6 0.177098 6.55761 0
M  V30 15438 H 1444.52 1.70878 7.36435 0
M  V30 15439 H 1445.79 0.591849 7.7725 0
M  V30 15440 N 1450.02 -1.31994 0.861122 0
M  V30 15441 C 1451.24 -2.01745 0.481013 0
M  V30 15442 C 1451.67 -1.6426 -0.916527 0
M  V30 15443 O 1451.02 -0.846603 -1.60319 0
M  V30 15444 C 1451.07 -3.54963 0.635134 0
M  V30 15445 O 1450.18 -4.11083 -0.329337 0
M  V30 15446 H 1449.52 -0.635499 0.192452 0
M  V30 15447 H 1452.05 -1.68394 1.1621 0
M  V30 15448 H 1452.06 -4.04607 0.525089 0
M  V30 15449 H 1450.73 -3.81587 1.65422 0
M  V30 15450 H 1449.31 -3.72489 -0.174989 0
M  V30 15451 N 1451.49 -0.619688 -1.44906 0
M  V30 15452 C 1452.42 0.0791121 -2.33366 0
M  V30 15453 C 1453.41 0.846503 -1.47541 0
M  V30 15454 O 1454.59 0.814657 -1.76287 0
M  V30 15455 C 1451.72 1.06901 -3.30438 0
M  V30 15456 C 1450.67 0.41403 -4.25993 0
M  V30 15457 C 1450 1.51303 -5.12846 0
M  V30 15458 C 1451.3 -0.672483 -5.17953 0
M  V30 15459 H 1452.99 -0.659551 -2.92045 0
M  V30 15460 H 1450.54 -0.318623 -1.40431 0
M  V30 15461 H 1452.49 1.56653 -3.912 0
M  V30 15462 H 1451.22 1.83842 -2.69944 0
M  V30 15463 H 1449.88 -0.0627315 -3.66546 0
M  V30 15464 H 1449.52 2.27303 -4.48712 0
M  V30 15465 H 1449.22 1.08022 -5.77586 0
M  V30 15466 H 1450.75 2.01258 -5.76479 0
M  V30 15467 H 1452.16 -0.258542 -5.72717 0
M  V30 15468 H 1450.56 -1.02776 -5.91234 0
M  V30 15469 H 1451.63 -1.54425 -4.59653 0
M  V30 15470 N 1452.97 1.53444 -0.359552 0
M  V30 15471 C 1454.2 2.06058 0.235576 0
M  V30 15472 C 1454.62 1.23175 1.42161 0
M  V30 15473 O 1453.98 0.249338 1.79577 0
M  V30 15474 C 1454.03 3.55351 0.613025 0
M  V30 15475 O 1453.13 3.75229 1.71104 0
M  V30 15476 H 1452.47 0.663038 0.0357266 0
M  V30 15477 H 1455 1.97923 -0.518408 0
M  V30 15478 H 1455.01 3.9827 0.885722 0
M  V30 15479 H 1453.69 4.15122 -0.254243 0
M  V30 15480 H 1452.27 3.4421 1.43437 0
M  V30 15481 N 1454.45 0.0885642 1.57351 0
M  V30 15482 C 1455.73 -0.618587 1.85561 0
M  V30 15483 C 1456.11 -1.86753 0.984206 0
M  V30 15484 O 1455.46 -2.28434 0.0548839 0
M  V30 15485 C 1455.67 -0.940222 3.36096 0
M  V30 15486 C 1457.01 -1.30649 4.04 0
M  V30 15487 O 1458.04 -1.03144 3.4094 0
M  V30 15488 O 1456.9 -1.82135 5.15256 0
M  V30 15489 H 1453.99 -0.308881 0.767152 0
M  V30 15490 H 1456.54 0.120767 1.6927 0
M  V30 15491 H 1455.31 -0.0538991 3.91263 0
M  V30 15492 H 1454.93 -1.73577 3.5771 0
M  V30 15493 N 1455.93 -1.56509 -0.185096 0
M  V30 15494 C 1457.17 -1.81474 -0.905263 0
M  V30 15495 C 1457.51 -0.664225 -1.82488 0
M  V30 15496 O 1456.78 0.33466 -1.91599 0
M  V30 15497 C 1457.07 -3.16754 -1.71287 0
M  V30 15498 C 1456.92 -4.42312 -0.817302 0
M  V30 15499 C 1458.24 -3.48828 -2.68342 0
M  V30 15500 H 1455.36 -0.660155 -0.327664 0
M  V30 15501 H 1458 -1.89219 -0.172129 0
M  V30 15502 H 1456.15 -3.10282 -2.33789 0
M  V30 15503 H 1457.82 -4.60839 -0.206218 0
M  V30 15504 H 1456.06 -4.33621 -0.124564 0
M  V30 15505 H 1456.73 -5.33487 -1.41758 0
M  V30 15506 H 1459.21 -3.55663 -2.15969 0
M  V30 15507 H 1458.09 -4.44585 -3.21924 0
M  V30 15508 H 1458.35 -2.72829 -3.47875 0
M  V30 15509 N 1457.41 0.45317 -1.50944 0
M  V30 15510 C 1458.32 1.57435 -1.73929 0
M  V30 15511 C 1459.33 1.62467 -0.622935 0
M  V30 15512 O 1460.51 1.80004 -0.903365 0
M  V30 15513 C 1457.57 2.93534 -1.84495 0
M  V30 15514 C 1456.63 2.98747 -3.083 0
M  V30 15515 C 1455.87 4.28354 -3.18352 0
M  V30 15516 O 1456.09 5.1986 -2.34738 0
M  V30 15517 O 1455.02 4.39527 -4.11217 0
M  V30 15518 H 1458.85 1.40959 -2.69006 0
M  V30 15519 H 1456.44 0.634545 -1.35255 0
M  V30 15520 H 1458.32 3.74336 -1.93522 0
M  V30 15521 H 1456.99 3.10171 -0.926044 0
M  V30 15522 H 1455.9 2.16958 -3.04762 0
M  V30 15523 H 1457.23 2.87051 -3.99828 0
M  V30 15524 N 1458.88 1.40823 0.707568 0
M  V30 15525 C 1459.79 1.44058 1.85161 0
M  V30 15526 C 1460.81 0.332357 1.70796 0
M  V30 15527 O 1461.99 0.578205 1.92922 0
M  V30 15528 C 1459.05 1.3091 3.21035 0
M  V30 15529 C 1458.11 2.51944 3.47595 0
M  V30 15530 C 1457.35 2.39414 4.76987 0
M  V30 15531 O 1457.57 1.41224 5.52641 0
M  V30 15532 O 1456.5 3.28944 5.04063 0
M  V30 15533 H 1460.33 2.40551 1.85388 0
M  V30 15534 H 1457.91 1.22232 0.859052 0
M  V30 15535 H 1459.8 1.25816 4.02179 0
M  V30 15536 H 1458.47 0.375263 3.21517 0
M  V30 15537 H 1457.38 2.62615 2.66428 0
M  V30 15538 H 1458.71 3.44115 3.51917 0
M  V30 15539 N 1460.36 -0.94061 1.26453 0
M  V30 15540 C 1461.27 -2.07298 1.09839 0
M  V30 15541 C 1462.29 -1.73971 0.0317477 0
M  V30 15542 O 1463.46 -2.00017 0.235594 0
M  V30 15543 C 1460.53 -3.38847 0.733736 0
M  V30 15544 C 1459.59 -3.85954 1.87985 0
M  V30 15545 C 1458.82 -5.11224 1.5325 0
M  V30 15546 O 1459.05 -5.68743 0.434491 0
M  V30 15547 O 1457.98 -5.53386 2.36743 0
M  V30 15548 H 1461.81 -2.24222 2.04837 0
M  V30 15549 H 1459.39 -1.05763 1.0552 0
M  V30 15550 H 1461.27 -4.17885 0.543131 0
M  V30 15551 H 1459.95 -3.2316 -0.186843 0
M  V30 15552 H 1458.86 -3.07858 2.12542 0
M  V30 15553 H 1460.19 -4.06162 2.78017 0
M  V30 15554 N 1461.84 -1.08266 -1.14527 0
M  V30 15555 C 1462.75 -0.723043 -2.2318 0
M  V30 15556 C 1463.77 0.269819 -1.71895 0
M  V30 15557 O 1464.94 0.114126 -2.01076 0
M  V30 15558 C 1462.01 -0.136229 -3.46432 0
M  V30 15559 C 1461.07 -1.18352 -4.12664 0
M  V30 15560 C 1460.3 -0.624612 -5.30032 0
M  V30 15561 O 1460.52 0.556377 -5.6768 0
M  V30 15562 O 1459.46 -1.37397 -5.86008 0
M  V30 15563 H 1463.28 -1.6294 -2.56289 0
M  V30 15564 H 1460.87 -0.856235 -1.22429 0
M  V30 15565 H 1462.75 0.18829 -4.20979 0
M  V30 15566 H 1461.43 0.74331 -3.1505 0
M  V30 15567 H 1460.33 -1.56054 -3.39997 0
M  V30 15568 H 1461.67 -2.03528 -4.48148 0
M  V30 15569 N 1463.32 1.31536 -0.86811 0
M  V30 15570 C 1464.28 2.26849 -0.327456 0
M  V30 15571 C 1465.28 1.52142 0.520514 0
M  V30 15572 O 1466.47 1.71044 0.330088 0
M  V30 15573 C 1463.6 3.36673 0.535174 0
M  V30 15574 H 1464.8 2.76184 -1.16886 0
M  V30 15575 H 1462.35 1.42437 -0.643545 0
M  V30 15576 H 1463.09 2.92627 1.39785 0
M  V30 15577 H 1462.87 3.92034 -0.0719835 0
M  V30 15578 H 1464.36 4.07658 0.905786 0
M  V30 15579 N 1464.8 0.627364 1.44575 0
M  V30 15580 C 1466.21 0.213149 1.85479 0
M  V30 15581 C 1466.56 -1.23458 1.52488 0
M  V30 15582 O 1465.68 -1.93885 0.961115 0
M  V30 15583 C 1466.28 0.380063 3.36661 0
M  V30 15584 C 1464.84 0.020385 3.76394 0
M  V30 15585 C 1463.99 0.695225 2.68444 0
M  V30 15586 H 1466.94 0.832771 1.35095 0
M  V30 15587 H 1466.96 -0.382078 3.78577 0
M  V30 15588 H 1466.47 1.43383 3.60642 0
M  V30 15589 H 1464.57 -1.03179 3.58029 0
M  V30 15590 H 1464.68 0.42782 4.77186 0
M  V30 15591 H 1463.05 0.130898 2.54363 0
M  V30 15592 H 1463.83 1.75151 2.95257 0
M  V30 15593 N 1466.28 -1.53251 0.367684 0
M  V30 15594 C 1467.19 -2.29518 -0.485669 0
M  V30 15595 C 1468.2 -1.35568 -1.09075 0
M  V30 15596 O 1469.38 -1.68626 -1.10124 0
M  V30 15597 C 1466.44 -3.07115 -1.60876 0
M  V30 15598 C 1465.5 -4.16736 -1.031 0
M  V30 15599 C 1464.74 -4.90624 -2.10056 0
M  V30 15600 O 1464.96 -4.64393 -3.31203 0
M  V30 15601 O 1463.89 -5.76503 -1.72996 0
M  V30 15602 H 1467.72 -3.034 0.135017 0
M  V30 15603 H 1465.3 -1.48816 0.132005 0
M  V30 15604 H 1467.19 -3.55564 -2.26168 0
M  V30 15605 H 1465.86 -2.36068 -2.21481 0
M  V30 15606 H 1464.77 -3.72534 -0.341928 0
M  V30 15607 H 1466.1 -4.89956 -0.469473 0
M  V30 15608 N 1467.75 -0.0969077 -1.57302 0
M  V30 15609 C 1469.03 0.608737 -1.85886 0
M  V30 15610 C 1469.41 1.86228 -0.994096 0
M  V30 15611 O 1468.76 2.28402 -0.0669975 0
M  V30 15612 C 1468.97 0.922385 -3.3659 0
M  V30 15613 C 1470.32 1.28505 -4.04687 0
M  V30 15614 O 1471.34 1.01334 -3.41482 0
M  V30 15615 O 1470.2 1.794 -5.16215 0
M  V30 15616 H 1467.29 0.304808 -0.768779 0
M  V30 15617 H 1469.84 -0.129742 -1.69203 0
M  V30 15618 H 1468.61 0.0331488 -3.91286 0
M  V30 15619 H 1468.23 1.71678 -3.58626 0
M  V30 15620 N 1469.23 1.56605 0.176793 0
M  V30 15621 C 1470.16 1.99014 1.2213 0
M  V30 15622 C 1471.14 0.86487 1.46472 0
M  V30 15623 O 1472.33 1.13055 1.57899 0
M  V30 15624 C 1469.46 2.34534 2.56146 0
M  V30 15625 C 1468.41 3.4997 2.46384 0
M  V30 15626 C 1467.74 3.71217 3.8484 0
M  V30 15627 C 1469.04 4.83592 1.97323 0
M  V30 15628 H 1470.73 2.86517 0.8688 0
M  V30 15629 H 1468.28 1.37846 0.416481 0
M  V30 15630 H 1470.23 2.62799 3.29416 0
M  V30 15631 H 1468.95 1.43933 2.93174 0
M  V30 15632 H 1467.61 3.21824 1.75569 0
M  V30 15633 H 1467.26 2.77916 4.19251 0
M  V30 15634 H 1466.96 4.48885 3.79178 0
M  V30 15635 H 1468.49 4.01877 4.59704 0
M  V30 15636 H 1469.9 5.10768 2.60363 0
M  V30 15637 H 1468.3 5.64858 2.02622 0
M  V30 15638 H 1469.37 4.75951 0.927275 0
M  V30 15639 N 1470.71 -0.445159 1.51182 0
M  V30 15640 C 1471.94 -1.2161 1.67016 0
M  V30 15641 C 1472.35 -1.85671 0.363705 0
M  V30 15642 O 1471.69 -1.71165 -0.666963 0
M  V30 15643 C 1471.75 -2.34705 2.72312 0
M  V30 15644 C 1471.42 -1.91074 4.15138 0
M  V30 15645 C 1472.41 -1.41857 5.00173 0
M  V30 15646 C 1470.1 -1.99004 4.61197 0
M  V30 15647 C 1472.09 -1.01146 6.29324 0
M  V30 15648 C 1469.78 -1.57904 5.90347 0
M  V30 15649 C 1470.78 -1.09056 6.74237 0
M  V30 15650 O 1470.47 -0.685367 8.00973 0
M  V30 15651 H 1470.2 -0.372925 0.563829 0
M  V30 15652 H 1472.75 -0.534708 1.98318 0
M  V30 15653 H 1470.98 -3.06097 2.36309 0
M  V30 15654 H 1472.67 -2.96594 2.77104 0
M  V30 15655 H 1473.44 -1.35132 4.65794 0
M  V30 15656 H 1469.32 -2.35972 3.96028 0
M  V30 15657 H 1472.86 -0.629486 6.94754 0
M  V30 15658 H 1468.76 -1.64297 6.24241 0
M  V30 15659 H 1469.52 -0.811915 8.14463 0
M  V30 15660 N 1472.19 -1.41197 -0.700089 0
M  V30 15661 C 1473.13 -1.42688 -1.81407 0
M  V30 15662 C 1474.1 -0.28182 -1.63692 0
M  V30 15663 O 1475.29 -0.482196 -1.84606 0
M  V30 15664 C 1472.43 -1.31041 -3.19252 0
M  V30 15665 C 1471.54 -2.5538 -3.48432 0
M  V30 15666 C 1470.68 -2.3606 -4.75867 0
M  V30 15667 C 1469.72 -3.55898 -4.97999 0
M  V30 15668 N 1468.85 -3.35676 -6.16657 0
M  V30 15669 H 1473.69 -2.37898 -1.79467 0
M  V30 15670 H 1471.23 -1.18137 -0.87647 0
M  V30 15671 H 1473.19 -1.22292 -3.98874 0
M  V30 15672 H 1471.82 -0.394422 -3.20381 0
M  V30 15673 H 1470.87 -2.74598 -2.6325 0
M  V30 15674 H 1472.18 -3.44535 -3.6069 0
M  V30 15675 H 1471.34 -2.24752 -5.63535 0
M  V30 15676 H 1470.08 -1.44355 -4.65846 0
M  V30 15677 H 1469.08 -3.67665 -4.08781 0
M  V30 15678 H 1470.31 -4.4855 -5.09882 0
M  V30 15679 H 1468.25 -2.46667 -6.07858 0
M  V30 15680 H 1468.17 -4.18404 -6.29662 0
M  V30 15681 H 1469.44 -3.28132 -7.07071 0
M  V30 15682 N 1473.67 0.933891 -1.2695 0
M  V30 15683 C 1474.94 1.65874 -1.0366 0
M  V30 15684 C 1475.32 2.0666 0.43066 0
M  V30 15685 O 1474.67 1.79606 1.41259 0
M  V30 15686 C 1474.88 2.86546 -1.99229 0
M  V30 15687 C 1476.23 3.58031 -2.28251 0
M  V30 15688 O 1477.25 2.96663 -1.97154 0
M  V30 15689 O 1476.11 4.68583 -2.81233 0
M  V30 15690 H 1473.21 0.72673 -0.394706 0
M  V30 15691 H 1475.75 0.984975 -1.38189 0
M  V30 15692 H 1474.52 2.53351 -2.9821 0
M  V30 15693 H 1474.15 3.61645 -1.65224 0
M  V30 15694 N 1475.14 1.08871 1.13951 0
M  V30 15695 C 1476.39 0.821287 1.85098 0
M  V30 15696 C 1476.72 -0.65302 1.8321 0
M  V30 15697 O 1475.97 -1.49629 1.26134 0
M  V30 15698 C 1476.27 1.29443 3.33135 0
M  V30 15699 C 1475.94 2.77737 3.55208 0
M  V30 15700 C 1474.6 3.18238 3.60941 0
M  V30 15701 C 1476.95 3.7338 3.63644 0
M  V30 15702 C 1474.28 4.53165 3.72637 0
M  V30 15703 C 1476.63 5.08089 3.76867 0
M  V30 15704 C 1475.3 5.48187 3.8085 0
M  V30 15705 H 1474.57 0.30053 0.67732 0
M  V30 15706 H 1477.21 1.36249 1.34568 0
M  V30 15707 H 1475.52 0.672919 3.85978 0
M  V30 15708 H 1477.22 1.06421 3.86621 0
M  V30 15709 H 1473.81 2.45393 3.51398 0
M  V30 15710 H 1477.99 3.43207 3.58501 0
M  V30 15711 H 1473.25 4.83679 3.73985 0
M  V30 15712 H 1477.42 5.82058 3.82337 0
M  V30 15713 H 1475.05 6.52737 3.89665 0
M  V30 15714 N 1476.62 -1.31073 0.875073 0
M  V30 15715 C 1477.55 -2.30855 0.350468 0
M  V30 15716 C 1478.53 -1.60569 -0.561384 0
M  V30 15717 O 1479.72 -1.88242 -0.477329 0
M  V30 15718 C 1476.85 -3.44444 -0.444493 0
M  V30 15719 C 1475.8 -4.26357 0.374716 0
M  V30 15720 C 1475.13 -5.31903 -0.546243 0
M  V30 15721 C 1476.43 -4.96817 1.61153 0
M  V30 15722 H 1478.12 -2.74983 1.18427 0
M  V30 15723 H 1475.67 -1.32199 0.570909 0
M  V30 15724 H 1477.62 -4.13304 -0.82206 0
M  V30 15725 H 1476.34 -2.99096 -1.31185 0
M  V30 15726 H 1475 -3.59171 0.734295 0
M  V30 15727 H 1474.65 -4.82803 -1.41102 0
M  V30 15728 H 1474.35 -5.876 -0.00198173 0
M  V30 15729 H 1475.88 -6.03621 -0.920542 0
M  V30 15730 H 1477.29 -5.58247 1.30511 0
M  V30 15731 H 1475.69 -5.62334 2.09524 0
M  V30 15732 H 1476.76 -4.2351 2.36151 0
M  V30 15733 N 1478.1 -0.635022 -1.4424 0
M  V30 15734 C 1479.33 -0.14826 -2.06368 0
M  V30 15735 C 1479.74 1.17875 -1.47482 0
M  V30 15736 O 1479.1 1.72384 -0.599168 0
M  V30 15737 C 1479.15 -0.031519 -3.61486 0
M  V30 15738 O 1478.87 -1.30605 -4.18179 0
M  V30 15739 C 1480.37 0.483479 -4.40656 0
M  V30 15740 H 1477.59 -0.081472 -0.666036 0
M  V30 15741 H 1480.14 -0.870526 -1.85046 0
M  V30 15742 H 1478.29 0.641208 -3.82057 0
M  V30 15743 H 1478.71 -1.15341 -5.11661 0
M  V30 15744 H 1480.18 0.514164 -5.496 0
M  V30 15745 H 1480.66 1.51129 -4.12379 0
M  V30 15746 H 1481.26 -0.156131 -4.25013 0
M  V30 15747 N 1479.58 1.53054 -0.375806 0
M  V30 15748 C 1480.51 2.28973 0.45754 0
M  V30 15749 C 1481.49 1.31812 1.07516 0
M  V30 15750 O 1482.67 1.60693 1.09048 0
M  V30 15751 C 1479.8 3.08657 1.59212 0
M  V30 15752 C 1478.76 4.1359 1.10123 0
M  V30 15753 C 1478.08 4.81417 2.32684 0
M  V30 15754 C 1479.38 5.21994 0.17872 0
M  V30 15755 H 1481.08 2.98883 -0.175872 0
M  V30 15756 H 1478.62 1.43743 -0.0860253 0
M  V30 15757 H 1480.58 3.6052 2.18182 0
M  V30 15758 H 1479.3 2.36456 2.25291 0
M  V30 15759 H 1477.96 3.62688 0.534151 0
M  V30 15760 H 1477.61 4.05778 2.97243 0
M  V30 15761 H 1477.31 5.52332 2.00506 0
M  V30 15762 H 1478.83 5.36079 2.92322 0
M  V30 15763 H 1480.25 5.69298 0.676204 0
M  V30 15764 H 1478.64 6.00077 -0.0526605 0
M  V30 15765 H 1479.71 4.78646 -0.776246 0
M  V30 15766 N 1481.06 0.105248 1.57248 0
M  V30 15767 C 1481.97 -0.864007 2.1811 0
M  V30 15768 C 1482.98 -1.30282 1.15337 0
M  V30 15769 O 1484.16 -1.36864 1.4775 0
M  V30 15770 C 1481.22 -2.1014 2.75757 0
M  V30 15771 C 1480.28 -1.71583 3.9352 0
M  V30 15772 C 1479.52 -2.89424 4.48408 0
M  V30 15773 O 1479.74 -4.04449 4.02215 0
M  V30 15774 O 1478.67 -2.67303 5.39289 0
M  V30 15775 H 1482.5 -0.376131 3.01362 0
M  V30 15776 H 1480.09 -0.119643 1.4892 0
M  V30 15777 H 1481.97 -2.82638 3.1256 0
M  V30 15778 H 1480.64 -2.57961 1.95545 0
M  V30 15779 H 1479.55 -0.962347 3.6151 0
M  V30 15780 H 1480.88 -1.28517 4.75126 0
M  V30 15781 N 1482.53 -1.56697 -0.168486 0
M  V30 15782 C 1483.48 -1.93039 -1.21325 0
M  V30 15783 C 1484.47 -0.799039 -1.39657 0
M  V30 15784 O 1485.66 -1.06226 -1.41581 0
M  V30 15785 C 1482.79 -2.29622 -2.55203 0
M  V30 15786 C 1481.88 -3.49278 -2.40553 0
M  V30 15787 N 1482.27 -4.6644 -1.95622 0
M  V30 15788 C 1480.56 -3.53941 -2.71371 0
M  V30 15789 C 1481.27 -5.48572 -1.93502 0
M  V30 15790 N 1480.24 -4.89693 -2.36012 0
M  V30 15791 H 1484.04 -2.81109 -0.857611 0
M  V30 15792 H 1481.56 -1.5797 -0.376734 0
M  V30 15793 H 1483.55 -2.53854 -3.30702 0
M  V30 15794 H 1482.21 -1.42893 -2.91568 0
M  V30 15795 H 1483.23 -4.90604 -1.65916 0
M  V30 15796 H 1479.9 -2.77697 -3.11754 0
M  V30 15797 H 1481.29 -6.52464 -1.60438 0
M  V30 15798 N 1484.01 0.437135 -1.51416 0
M  V30 15799 C 1484.94 1.538 -1.75692 0
M  V30 15800 C 1485.92 1.5891 -0.606759 0
M  V30 15801 O 1487.11 1.74635 -0.849492 0
M  V30 15802 C 1484.24 2.91877 -1.88215 0
M  V30 15803 C 1483.19 3.01628 -3.03652 0
M  V30 15804 C 1482.52 4.41687 -3.01358 0
M  V30 15805 C 1483.82 2.75691 -4.43612 0
M  V30 15806 H 1485.51 1.33737 -2.67871 0
M  V30 15807 H 1483.06 0.641936 -1.289 0
M  V30 15808 H 1485.01 3.68851 -2.03781 0
M  V30 15809 H 1483.74 3.13173 -0.926847 0
M  V30 15810 H 1482.39 2.27094 -2.87791 0
M  V30 15811 H 1482.04 4.5995 -2.03605 0
M  V30 15812 H 1481.74 4.49141 -3.78875 0
M  V30 15813 H 1483.27 5.20634 -3.19018 0
M  V30 15814 H 1484.68 3.42398 -4.59822 0
M  V30 15815 H 1483.08 2.94554 -5.22836 0
M  V30 15816 H 1484.15 1.71297 -4.53636 0
M  V30 15817 N 1485.49 1.41566 0.692592 0
M  V30 15818 C 1486.74 1.40381 1.44831 0
M  V30 15819 C 1487.05 0.0172068 1.95592 0
M  V30 15820 O 1488.26 -0.11726 2.71247 0
M  V30 15821 C 1486.71 2.46844 2.61908 0
M  V30 15822 C 1486.32 3.91426 2.17921 0
M  V30 15823 C 1488.07 2.548 3.39525 0
M  V30 15824 C 1485.97 4.89436 3.31974 0
M  V30 15825 H 1484.9 0.522062 0.544028 0
M  V30 15826 H 1487.55 1.67402 0.751589 0
M  V30 15827 H 1485.94 2.12959 3.33863 0
M  V30 15828 H 1487.11 4.34575 1.53236 0
M  V30 15829 H 1485.43 3.87158 1.5329 0
M  V30 15830 H 1488.02 3.25207 4.24434 0
M  V30 15831 H 1488.37 1.58579 3.84913 0
M  V30 15832 H 1488.9 2.87791 2.74629 0
M  V30 15833 H 1485.64 5.87071 2.91595 0
M  V30 15834 H 1485.16 4.50933 3.95499 0
M  V30 15835 H 1486.84 5.10331 3.97708 0
M  V30 15836 N 1486.97 -0.927146 1.27443 0
M  V30 15837 C 1488.21 -1.68946 1.15051 0
M  V30 15838 C 1488.57 -1.89664 -0.298585 0
M  V30 15839 O 1489.77 -2.63218 -0.544943 0
M  V30 15840 C 1488.04 -3.01884 1.91313 0
M  V30 15841 S 1489.6 -3.93021 1.9514 0
M  V30 15842 H 1486.42 -0.580376 0.410713 0
M  V30 15843 H 1489.02 -1.10378 1.61359 0
M  V30 15844 H 1487.73 -2.84496 2.95787 0
M  V30 15845 H 1487.26 -3.65504 1.45501 0
M  V30 15846 H 1489.27 -4.85002 1.04822 0
M  V30 15847 N 1488.45 -1.09474 -1.13372 0
M  V30 15848 C 1489.68 -0.851685 -1.88228 0
M  V30 15849 C 1490.08 0.600707 -1.79411 0
M  V30 15850 O 1489.43 1.42527 -1.15895 0
M  V30 15851 C 1489.49 -1.20874 -3.3857 0
M  V30 15852 C 1489.15 -2.66614 -3.71168 0
M  V30 15853 C 1490.15 -3.64862 -3.70367 0
M  V30 15854 C 1487.84 -3.02748 -4.0081 0
M  V30 15855 C 1489.83 -4.97269 -3.98751 0
M  V30 15856 C 1487.52 -4.35347 -4.28855 0
M  V30 15857 C 1488.51 -5.32417 -4.2781 0
M  V30 15858 O 1488.2 -6.6263 -4.55167 0
M  V30 15859 H 1487.93 -0.306097 -0.602728 0
M  V30 15860 H 1490.49 -1.46038 -1.44437 0
M  V30 15861 H 1488.72 -0.543096 -3.82867 0
M  V30 15862 H 1490.41 -0.944753 -3.94752 0
M  V30 15863 H 1491.17 -3.3829 -3.47541 0
M  V30 15864 H 1487.05 -2.27824 -4.00771 0
M  V30 15865 H 1490.6 -5.73028 -3.9785 0
M  V30 15866 H 1486.49 -4.61661 -4.51153 0
M  V30 15867 H 1487.26 -6.6811 -4.72833 0
M  V30 15868 N 1489.92 1.30607 -0.882012 0
M  V30 15869 C 1491.15 2.00954 -0.513048 0
M  V30 15870 C 1491.57 1.65697 0.890279 0
M  V30 15871 O 1490.93 0.872001 1.58952 0
M  V30 15872 C 1490.98 3.53907 -0.691525 0
M  V30 15873 O 1490.08 4.11555 0.263896 0
M  V30 15874 H 1489.43 0.632356 -0.202537 0
M  V30 15875 H 1491.96 1.66524 -1.18874 0
M  V30 15876 H 1491.97 4.0372 -0.589392 0
M  V30 15877 H 1490.64 3.78907 -1.71471 0
M  V30 15878 H 1489.22 3.7272 0.115707 0
M  V30 15879 N 1491.4 0.642663 1.43901 0
M  V30 15880 C 1492.65 0.151778 2.0193 0
M  V30 15881 C 1492.98 -1.23052 1.50627 0
M  V30 15882 O 1492.23 -1.83305 0.685404 0
M  V30 15883 C 1492.53 0.100139 3.5726 0
M  V30 15884 C 1492.2 1.42276 4.27865 0
M  V30 15885 C 1490.86 1.78497 4.46869 0
M  V30 15886 C 1493.21 2.29526 4.67939 0
M  V30 15887 C 1490.54 3.01655 5.03211 0
M  V30 15888 C 1492.89 3.51966 5.25645 0
M  V30 15889 C 1491.56 3.88396 5.42867 0
M  V30 15890 H 1490.83 0.0555394 0.738916 0
M  V30 15891 H 1493.47 0.831273 1.72517 0
M  V30 15892 H 1491.78 -0.66277 3.86154 0
M  V30 15893 H 1493.47 -0.29638 3.99903 0
M  V30 15894 H 1490.06 1.13091 4.13411 0
M  V30 15895 H 1494.25 2.02835 4.52959 0
M  V30 15896 H 1489.5 3.29943 5.14731 0
M  V30 15897 H 1493.68 4.19799 5.55645 0
M  V30 15898 H 1491.31 4.83909 5.8629 0
M  V30 15899 N 1492.88 -1.52852 0.383918 0
M  V30 15900 C 1493.81 -2.23927 -0.488816 0
M  V30 15901 C 1494.83 -1.2598 -1.03115 0
M  V30 15902 O 1496.02 -1.5209 -0.934398 0
M  V30 15903 C 1493.12 -2.9378 -1.68957 0
M  V30 15904 C 1492.29 -4.18388 -1.27555 0
M  V30 15905 C 1491.35 -4.71287 -2.3404 0
M  V30 15906 O 1490.37 -5.34511 -1.9567 0
M  V30 15907 N 1491.58 -4.50679 -3.65881 0
M  V30 15908 H 1494.34 -2.99459 0.120084 0
M  V30 15909 H 1491.9 -1.60532 0.210004 0
M  V30 15910 H 1493.89 -3.26071 -2.39707 0
M  V30 15911 H 1492.46 -2.21588 -2.20493 0
M  V30 15912 H 1491.68 -3.92194 -0.397157 0
M  V30 15913 H 1492.97 -4.99361 -0.975506 0
M  V30 15914 H 1492.37 -4.00201 -3.9982 0
M  V30 15915 H 1490.93 -4.87473 -4.32681 0
M  V30 15916 N 1494.36 -0.113586 -1.5719 0
M  V30 15917 C 1495.61 0.546529 -1.95297 0
M  V30 15918 C 1495.94 1.66674 -0.996671 0
M  V30 15919 O 1495.21 1.94472 -0.0329298 0
M  V30 15920 C 1495.5 1.08433 -3.43387 0
M  V30 15921 C 1495.35 -0.0320929 -4.49789 0
M  V30 15922 C 1496.67 1.97691 -3.932 0
M  V30 15923 H 1493.79 0.197195 -0.710129 0
M  V30 15924 H 1496.43 -0.188048 -1.89067 0
M  V30 15925 H 1494.58 1.71033 -3.48827 0
M  V30 15926 H 1496.25 -0.66716 -4.5645 0
M  V30 15927 H 1494.49 -0.695983 -4.2818 0
M  V30 15928 H 1495.17 0.385341 -5.50653 0
M  V30 15929 H 1497.64 1.4497 -3.90029 0
M  V30 15930 H 1496.52 2.3224 -4.97349 0
M  V30 15931 H 1496.78 2.90137 -3.33576 0
M  V30 15932 N 1495.84 1.56784 0.160173 0
M  V30 15933 C 1496.8 1.96373 1.18195 0
M  V30 15934 C 1497.8 0.848674 1.3658 0
M  V30 15935 O 1498.99 1.11553 1.33796 0
M  V30 15936 C 1496.12 2.26824 2.54487 0
M  V30 15937 H 1497.32 2.87819 0.842641 0
M  V30 15938 H 1494.87 1.51014 0.403038 0
M  V30 15939 H 1495.6 1.38129 2.93413 0
M  V30 15940 H 1495.39 3.08112 2.42507 0
M  V30 15941 H 1496.88 2.58337 3.28104 0
M  V30 15942 N 1497.32 -0.429099 1.51646 0
M  V30 15943 C 1498.26 -1.52143 1.73554 0
M  V30 15944 C 1499.23 -1.55741 0.577416 0
M  V30 15945 O 1500.42 -1.72623 0.812768 0
M  V30 15946 C 1497.56 -2.89785 1.874 0
M  V30 15947 C 1496.67 -2.95652 3.14982 0
M  V30 15948 C 1495.81 -4.24468 3.19375 0
M  V30 15949 C 1494.84 -4.24234 4.41239 0
M  V30 15950 N 1493.98 -5.44587 4.43135 0
M  V30 15951 H 1498.82 -1.32764 2.66791 0
M  V30 15952 H 1496.36 -0.6448 1.32215 0
M  V30 15953 H 1498.32 -3.6966 1.9341 0
M  V30 15954 H 1496.95 -3.07703 0.975638 0
M  V30 15955 H 1496 -2.0839 3.18242 0
M  V30 15956 H 1497.31 -2.91342 4.04872 0
M  V30 15957 H 1496.46 -5.12722 3.24347 0
M  V30 15958 H 1495.2 -4.31446 2.27389 0
M  V30 15959 H 1494.21 -3.34371 4.36435 0
M  V30 15960 H 1495.43 -4.18913 5.34499 0
M  V30 15961 H 1493.38 -5.52271 3.54023 0
M  V30 15962 H 1493.3 -5.42191 5.26845 0
M  V30 15963 H 1494.56 -6.34851 4.5231 0
M  V30 15964 N 1498.79 -1.41931 -0.685074 0
M  V30 15965 C 1500.04 -1.41571 -1.44229 0
M  V30 15966 C 1500.36 -0.0294445 -1.94978 0
M  V30 15967 O 1499.63 0.930414 -1.72395 0
M  V30 15968 H 1498.21 -0.521138 -0.535186 0
M  V30 15969 H 1500.87 -1.77263 -0.81017 0
M  V30 15970 H 1499.97 -2.10929 -2.30034 0
M  V30 15971 N 1500.27 0.920374 -1.27933 0
M  V30 15972 C 1501.2 2.0229 -1.05612 0
M  V30 15973 C 1502.18 1.6258 0.0257603 0
M  V30 15974 O 1503.37 1.88112 -0.120852 0
M  V30 15975 C 1500.49 3.33279 -0.603563 0
M  V30 15976 C 1499.54 3.91971 -1.6811 0
M  V30 15977 S 1500.37 4.23645 -3.27544 0
M  V30 15978 C 1501.53 5.57704 -2.84107 0
M  V30 15979 H 1501.76 2.20913 -1.98959 0
M  V30 15980 H 1499.29 1.06441 -1.11847 0
M  V30 15981 H 1501.25 4.09012 -0.349146 0
M  V30 15982 H 1499.91 3.12567 0.309962 0
M  V30 15983 H 1499.11 4.86518 -1.31592 0
M  V30 15984 H 1498.71 3.22849 -1.88797 0
M  V30 15985 H 1501 6.37313 -2.29866 0
M  V30 15986 H 1501.94 5.99129 -3.77426 0
M  V30 15987 H 1502.35 5.18576 -2.23024 0
M  V30 15988 N 1501.75 1.10074 1.1279 0
M  V30 15989 C 1502.66 0.758458 2.22001 0
M  V30 15990 C 1503.68 -0.242438 1.72303 0
M  V30 15991 O 1504.85 -0.0821223 2.01233 0
M  V30 15992 C 1501.92 0.191326 3.46172 0
M  V30 15993 C 1500.98 1.24902 4.10729 0
M  V30 15994 C 1500.21 0.708857 5.28972 0
M  V30 15995 O 1500.43 -0.465993 5.68493 0
M  V30 15996 O 1499.37 1.46703 5.83748 0
M  V30 15997 H 1503.19 1.66997 2.53665 0
M  V30 15998 H 1500.78 0.875604 1.21052 0
M  V30 15999 H 1502.66 -0.121292 4.21225 0
M  V30 16000 H 1501.34 -0.693094 3.16193 0
M  V30 16001 H 1500.24 1.61444 3.37471 0
M  V30 16002 H 1501.58 2.10632 4.44854 0
M  V30 16003 N 1503.23 -1.30138 0.888926 0
M  V30 16004 C 1504.47 -1.95989 0.509365 0
M  V30 16005 C 1504.8 -1.70153 -0.942249 0
M  V30 16006 O 1504.06 -1.00123 -1.68148 0
M  V30 16007 C 1504.36 -3.4975 0.735488 0
M  V30 16008 C 1504.02 -3.95644 2.1628 0
M  V30 16009 C 1502.68 -4.07886 2.55309 0
M  V30 16010 C 1505.04 -4.1952 3.09277 0
M  V30 16011 C 1502.36 -4.41367 3.86539 0
M  V30 16012 C 1504.72 -4.54472 4.40043 0
M  V30 16013 C 1503.38 -4.64923 4.7896 0
M  V30 16014 H 1502.65 -0.717175 0.18639 0
M  V30 16015 H 1505.3 -1.54932 1.12553 0
M  V30 16016 H 1503.6 -3.91783 0.0363165 0
M  V30 16017 H 1505.3 -3.9878 0.421351 0
M  V30 16018 H 1501.89 -3.86624 1.84985 0
M  V30 16019 H 1506.07 -4.09539 2.80342 0
M  V30 16020 H 1501.33 -4.47659 4.16427 0
M  V30 16021 H 1505.5 -4.71897 5.12138 0
M  V30 16022 H 1503.13 -4.90622 5.80685 0
M  V30 16023 N 1504.71 -0.650285 -1.43559 0
M  V30 16024 C 1505.64 0.0295939 -2.33481 0
M  V30 16025 C 1506.62 0.815017 -1.49303 0
M  V30 16026 O 1507.8 0.77708 -1.77975 0
M  V30 16027 C 1504.93 0.998683 -3.32631 0
M  V30 16028 C 1503.89 0.323577 -4.26775 0
M  V30 16029 C 1503.21 1.40391 -5.1594 0
M  V30 16030 C 1504.51 -0.782197 -5.1641 0
M  V30 16031 H 1506.21 -0.721349 -2.9058 0
M  V30 16032 H 1503.75 -0.348339 -1.39723 0
M  V30 16033 H 1505.7 1.4832 -3.94435 0
M  V30 16034 H 1504.43 1.78075 -2.73782 0
M  V30 16035 H 1503.09 -0.140467 -3.66331 0
M  V30 16036 H 1502.74 2.17734 -4.53432 0
M  V30 16037 H 1502.44 0.957462 -5.79747 0
M  V30 16038 H 1503.96 1.88985 -5.80618 0
M  V30 16039 H 1505.37 -0.379966 -5.72039 0
M  V30 16040 H 1503.77 -1.15293 -5.88921 0
M  V30 16041 H 1504.84 -1.6414 -4.56274 0
M  V30 16042 N 1506.18 1.52647 -0.392018 0
M  V30 16043 C 1507.15 2.25135 0.429754 0
M  V30 16044 C 1508.15 1.26871 0.987946 0
M  V30 16045 O 1509.34 1.50947 0.86952 0
M  V30 16046 C 1506.47 3.00849 1.60321 0
M  V30 16047 H 1507.66 2.99199 -0.204918 0
M  V30 16048 H 1505.21 1.55634 -0.144188 0
M  V30 16049 H 1505.95 2.31092 2.27524 0
M  V30 16050 H 1505.73 3.72975 1.20964 0
M  V30 16051 H 1507.22 3.55879 2.18494 0
M  V30 16052 N 1507.66 0.121921 1.57128 0
M  V30 16053 C 1508.89 -0.546325 2.00075 0
M  V30 16054 C 1509.31 -1.59245 1.00113 0
M  V30 16055 O 1508.67 -1.8128 -0.0267687 0
M  V30 16056 C 1508.72 -1.14651 3.41888 0
M  V30 16057 O 1507.82 -2.26199 3.4483 0
M  V30 16058 H 1507.16 -0.136184 0.649885 0
M  V30 16059 H 1509.69 0.211257 2.03506 0
M  V30 16060 H 1509.7 -1.48133 3.80159 0
M  V30 16061 H 1508.38 -0.380273 4.14158 0
M  V30 16062 H 1506.96 -1.94134 3.18381 0
M  V30 16063 N 1509.14 -1.56867 -0.151857 0
M  V30 16064 C 1510.56 -1.51422 -0.504328 0
M  V30 16065 C 1510.76 -0.829524 -1.83633 0
M  V30 16066 O 1509.81 -0.398018 -2.49343 0
M  V30 16067 C 1511.13 -2.96185 -0.519117 0
M  V30 16068 C 1512.67 -3.07098 -0.60497 0
M  V30 16069 C 1513.15 -4.53357 -0.650468 0
M  V30 16070 N 1514.64 -4.57682 -0.712825 0
M  V30 16071 C 1515.37 -5.68221 -0.768931 0
M  V30 16072 N 1514.87 -6.88342 -0.784678 0
M  V30 16073 N 1516.66 -5.56241 -0.809441 0
M  V30 16074 H 1508.81 -1.99777 0.721316 0
M  V30 16075 H 1511.08 -0.910951 0.262436 0
M  V30 16076 H 1510.78 -3.49516 0.391315 0
M  V30 16077 H 1510.66 -3.51877 -1.35876 0
M  V30 16078 H 1513.04 -2.53789 -1.50582 0
M  V30 16079 H 1513.13 -2.54458 0.261722 0
M  V30 16080 H 1512.77 -5.07303 0.246207 0
M  V30 16081 H 1512.7 -5.03775 -1.53358 0
M  V30 16082 H 1515.19 -3.71206 -0.708151 0
M  V30 16083 H 1515.5 -7.68339 -0.829202 0
M  V30 16084 H 1513.85 -6.90913 -0.752634 0
M  V30 16085 H 1517.04 -4.61312 -0.794274 0
M  V30 16086 H 1517.21 -6.42405 -0.849701 0
M  V30 16087 N 1510.62 0.421051 -1.51871 0
M  V30 16088 C 1511.57 1.5122 -1.74359 0
M  V30 16089 C 1512.54 1.55432 -0.585667 0
M  V30 16090 O 1513.72 1.7219 -0.821912 0
M  V30 16091 C 1510.86 2.88787 -1.88935 0
M  V30 16092 C 1509.97 2.93977 -3.16546 0
M  V30 16093 C 1509.11 4.22768 -3.21622 0
M  V30 16094 C 1508.15 4.21888 -4.43483 0
M  V30 16095 N 1507.28 5.4223 -4.46017 0
M  V30 16096 H 1512.12 1.31348 -2.67492 0
M  V30 16097 H 1509.66 0.637779 -1.32555 0
M  V30 16098 H 1511.62 3.68629 -1.95368 0
M  V30 16099 H 1510.25 3.07181 -0.991942 0
M  V30 16100 H 1509.3 2.06699 -3.19343 0
M  V30 16101 H 1510.61 2.8919 -4.06412 0
M  V30 16102 H 1509.77 5.10995 -3.27061 0
M  V30 16103 H 1508.51 4.30234 -2.29674 0
M  V30 16104 H 1507.51 3.32052 -4.38202 0
M  V30 16105 H 1508.74 4.16072 -5.36713 0
M  V30 16106 H 1506.68 5.50386 -3.56947 0
M  V30 16107 H 1506.6 5.39389 -5.29713 0
M  V30 16108 H 1507.87 6.32443 -4.55671 0
M  V30 16109 N 1512.1 1.42293 0.677538 0
M  V30 16110 C 1513.34 1.44099 1.44965 0
M  V30 16111 C 1513.7 0.0545275 1.91923 0
M  V30 16112 O 1514.9 -0.0526718 2.68748 0
M  V30 16113 C 1513.17 2.43462 2.61651 0
M  V30 16114 S 1514.73 2.63947 3.50538 0
M  V30 16115 H 1511.55 0.51024 0.495153 0
M  V30 16116 H 1514.15 1.78874 0.788939 0
M  V30 16117 H 1512.86 3.42971 2.25387 0
M  V30 16118 H 1512.39 2.10102 3.32597 0
M  V30 16119 H 1514.4 1.92042 4.57531 0
M  V30 16120 N 1513.57 -0.913576 1.28419 0
M  V30 16121 C 1514.82 -1.65731 1.14961 0
M  V30 16122 C 1515.14 -1.93269 -0.301079 0
M  V30 16123 O 1516.34 -2.6573 -0.556778 0
M  V30 16124 C 1514.8 -2.98562 2.00969 0
M  V30 16125 C 1514.41 -2.78671 3.5078 0
M  V30 16126 C 1516.15 -3.76439 1.96198 0
M  V30 16127 C 1514.06 -4.07144 4.28938 0
M  V30 16128 H 1512.99 -0.621681 0.426648 0
M  V30 16129 H 1515.64 -1.0138 1.52952 0
M  V30 16130 H 1514.02 -3.64049 1.55835 0
M  V30 16131 H 1515.19 -2.21864 4.03873 0
M  V30 16132 H 1513.51 -2.14206 3.57078 0
M  V30 16133 H 1516.11 -4.71668 2.51861 0
M  V30 16134 H 1516.45 -4.05577 0.938771 0
M  V30 16135 H 1516.98 -3.17772 2.39303 0
M  V30 16136 H 1513.72 -3.83178 5.31841 0
M  V30 16137 H 1513.24 -4.63562 3.80619 0
M  V30 16138 H 1514.92 -4.754 4.38866 0
M  V30 16139 N 1515.05 -1.1067 -1.12204 0
M  V30 16140 C 1516 -0.726979 -2.161 0
M  V30 16141 C 1516.99 0.26505 -1.58702 0
M  V30 16142 O 1518.18 0.0734052 -1.76848 0
M  V30 16143 C 1515.31 -0.163062 -3.42913 0
M  V30 16144 C 1514.39 -1.18228 -4.07287 0
M  V30 16145 N 1514.78 -2.3738 -4.46637 0
M  V30 16146 C 1513.08 -1.02336 -4.34101 0
M  V30 16147 C 1513.78 -3.02318 -4.9697 0
M  V30 16148 N 1512.76 -2.29826 -4.92627 0
M  V30 16149 H 1516.56 -1.63396 -2.44293 0
M  V30 16150 H 1514.08 -0.984782 -1.29135 0
M  V30 16151 H 1516.07 0.127067 -4.16706 0
M  V30 16152 H 1514.73 0.738611 -3.16188 0
M  V30 16153 H 1515.74 -2.74889 -4.38926 0
M  V30 16154 H 1512.42 -0.177452 -4.17123 0
M  V30 16155 H 1513.81 -4.03685 -5.3711 0
M  V30 16156 N 1516.53 1.29665 -0.895815 0
M  V30 16157 C 1517.95 1.4824 -0.591355 0
M  V30 16158 C 1518.15 1.81839 0.86815 0
M  V30 16159 O 1517.2 1.91251 1.64861 0
M  V30 16160 C 1518.52 2.59814 -1.51384 0
M  V30 16161 C 1520.06 2.73691 -1.51862 0
M  V30 16162 C 1520.54 3.8839 -2.42729 0
M  V30 16163 N 1522.03 3.95717 -2.40754 0
M  V30 16164 C 1522.76 4.83804 -3.07769 0
M  V30 16165 N 1522.26 5.7661 -3.84048 0
M  V30 16166 N 1524.05 4.77263 -2.96946 0
M  V30 16167 H 1516.2 1.06131 -1.83984 0
M  V30 16168 H 1518.47 0.526819 -0.788141 0
M  V30 16169 H 1518.17 2.4184 -2.55355 0
M  V30 16170 H 1518.05 3.56532 -1.23147 0
M  V30 16171 H 1520.43 2.91064 -0.486375 0
M  V30 16172 H 1520.52 1.77561 -1.84135 0
M  V30 16173 H 1520.16 3.71773 -3.46045 0
M  V30 16174 H 1520.09 4.8388 -2.07767 0
M  V30 16175 H 1522.58 3.29334 -1.8533 0
M  V30 16176 H 1522.89 6.40611 -4.32247 0
M  V30 16177 H 1521.24 5.76507 -3.88155 0
M  V30 16178 H 1524.43 4.03744 -2.36871 0
M  V30 16179 H 1524.6 5.45701 -3.49448 0
M  V30 16180 N 1518.01 0.657889 1.43212 0
M  V30 16181 C 1519.29 0.102895 1.95329 0
M  V30 16182 C 1519.67 -1.37821 1.59901 0
M  V30 16183 O 1519.01 -2.10602 0.886505 0
M  V30 16184 C 1519.22 0.354075 3.47199 0
M  V30 16185 C 1520.57 0.261511 4.23794 0
M  V30 16186 O 1521.6 0.286889 3.55043 0
M  V30 16187 O 1520.45 0.189209 5.46172 0
M  V30 16188 H 1517.55 -0.00692284 0.826971 0
M  V30 16189 H 1520.09 0.73145 1.53127 0
M  V30 16190 H 1518.87 1.38075 3.6613 0
M  V30 16191 H 1518.49 -0.307321 3.96411 0
M  V30 16192 N 1519.49 -1.52437 0.400108 0
M  V30 16193 C 1520.42 -2.29672 -0.421054 0
M  V30 16194 C 1521.4 -1.33506 -1.05405 0
M  V30 16195 O 1522.58 -1.62408 -1.06477 0
M  V30 16196 C 1519.71 -3.1115 -1.54281 0
M  V30 16197 C 1518.67 -4.1529 -1.0353 0
M  V30 16198 C 1517.99 -4.85058 -2.24996 0
M  V30 16199 C 1519.29 -5.22212 -0.0956529 0
M  V30 16200 H 1520.99 -2.98565 0.2234 0
M  V30 16201 H 1518.53 -1.43588 0.108883 0
M  V30 16202 H 1520.49 -3.63945 -2.12419 0
M  V30 16203 H 1519.21 -2.4001 -2.21501 0
M  V30 16204 H 1517.87 -3.63492 -0.476383 0
M  V30 16205 H 1517.52 -4.10455 -2.9075 0
M  V30 16206 H 1517.22 -5.55452 -1.91694 0
M  V30 16207 H 1518.74 -5.40661 -2.83756 0
M  V30 16208 H 1520.15 -5.70302 -0.585548 0
M  V30 16209 H 1518.55 -5.99917 0.148121 0
M  V30 16210 H 1519.62 -4.77351 0.852296 0
M  V30 16211 N 1520.96 -0.130252 -1.57061 0
M  V30 16212 C 1521.93 0.801529 -2.14728 0
M  V30 16213 C 1522.93 1.18687 -1.08489 0
M  V30 16214 O 1524.12 1.11054 -1.34211 0
M  V30 16215 C 1521.25 2.08542 -2.69672 0
M  V30 16216 H 1522.44 0.300172 -2.98394 0
M  V30 16217 H 1520 0.119077 -1.55846 0
M  V30 16218 H 1520.73 2.63083 -1.89625 0
M  V30 16219 H 1520.52 1.81849 -3.47381 0
M  V30 16220 H 1522.01 2.75126 -3.14158 0
M  V30 16221 N 1522.44 1.56945 0.143535 0
M  V30 16222 C 1523.41 1.97616 1.16106 0
M  V30 16223 C 1524.41 0.863113 1.35672 0
M  V30 16224 O 1525.6 1.12966 1.32606 0
M  V30 16225 C 1522.73 2.29511 2.52067 0
M  V30 16226 H 1523.92 2.88696 0.812066 0
M  V30 16227 H 1521.47 1.51433 0.386999 0
M  V30 16228 H 1522.21 1.41233 2.91931 0
M  V30 16229 H 1521.99 3.10667 2.39225 0
M  V30 16230 H 1523.48 2.61802 3.25345 0
M  V30 16231 N 1523.92 -0.412991 1.52093 0
M  V30 16232 C 1525.34 -0.751324 1.40809 0
M  V30 16233 C 1525.54 -1.94951 0.509543 0
M  V30 16234 O 1524.59 -2.52486 -0.026132 0
M  V30 16235 C 1525.91 -1.00888 2.8327 0
M  V30 16236 C 1527.45 -1.11183 2.92587 0
M  V30 16237 C 1527.93 -1.40217 4.36008 0
M  V30 16238 N 1529.42 -1.4709 4.39225 0
M  V30 16239 C 1530.16 -1.71174 5.47254 0
M  V30 16240 N 1529.65 -1.92887 6.65407 0
M  V30 16241 N 1531.44 -1.73157 5.34765 0
M  V30 16242 H 1523.6 0.375774 2.0905 0
M  V30 16243 H 1525.86 0.105817 0.942076 0
M  V30 16244 H 1525.56 -0.200872 3.51126 0
M  V30 16245 H 1525.44 -1.93008 3.2408 0
M  V30 16246 H 1527.83 -1.91043 2.24915 0
M  V30 16247 H 1527.91 -0.169078 2.55241 0
M  V30 16248 H 1527.55 -0.608754 5.04239 0
M  V30 16249 H 1527.48 -2.35737 4.70888 0
M  V30 16250 H 1529.97 -1.32114 3.54054 0
M  V30 16251 H 1530.28 -2.10704 7.43521 0
M  V30 16252 H 1528.63 -1.9016 6.68479 0
M  V30 16253 H 1531.82 -1.55728 4.41437 0
M  V30 16254 H 1531.99 -1.91587 6.1903 0
M  V30 16255 N 1525.4 -1.4265 -0.669982 0
M  V30 16256 C 1526.35 -1.46746 -1.80467 0
M  V30 16257 C 1527.34 -0.342698 -1.65897 0
M  V30 16258 O 1528.55 -0.515933 -1.72447 0
M  V30 16259 H 1524.92 -0.4597 -0.59513 0
M  V30 16260 H 1526.89 -2.42325 -1.7413 0
M  V30 16261 C 1525.64 -1.39141 -3.18646 0
M  V30 16262 H 1524.97 -2.24987 -3.30486 0
M  V30 16263 H 1526.41 -1.46068 -3.98045 0
M  V30 16264 C 1524.86 -0.106802 -3.36731 0
M  V30 16265 O 1525.39 0.838535 -3.9285 0
M  V30 16266 N 1523.6 -0.0223958 -2.90591 0
M  V30 16267 H 1523.15 -0.792469 -2.45108 0
M  V30 16268 H 1523.11 0.836462 -3.03069 0
M  V30 16269 N 1526.88 0.906753 -1.28902 0
M  V30 16270 C 1528.13 1.65119 -1.15839 0
M  V30 16271 C 1528.44 1.93426 0.290825 0
M  V30 16272 O 1529.65 2.66021 0.542678 0
M  V30 16273 C 1528.1 2.97492 -2.0255 0
M  V30 16274 C 1527.71 2.76807 -3.52253 0
M  V30 16275 C 1529.45 3.75393 -1.98192 0
M  V30 16276 C 1527.36 4.04863 -4.31091 0
M  V30 16277 H 1526.29 0.619409 -0.429939 0
M  V30 16278 H 1528.94 1.00567 -1.53488 0
M  V30 16279 H 1527.32 3.63217 -1.57763 0
M  V30 16280 H 1528.5 2.19719 -4.05044 0
M  V30 16281 H 1526.81 2.1231 -3.58209 0
M  V30 16282 H 1529.41 4.70325 -2.54358 0
M  V30 16283 H 1529.75 4.05074 -0.960267 0
M  V30 16284 H 1530.29 3.16498 -2.40985 0
M  V30 16285 H 1527.02 3.80353 -5.33865 0
M  V30 16286 H 1526.54 4.61537 -3.83072 0
M  V30 16287 H 1528.22 4.73066 -4.41381 0
M  V30 16288 N 1528.36 1.11264 1.11616 0
M  V30 16289 C 1529.29 0.79149 2.19676 0
M  V30 16290 C 1530.27 -0.239351 1.68408 0
M  V30 16291 O 1531.45 -0.103228 1.93925 0
M  V30 16292 C 1528.58 0.231891 3.46525 0
M  V30 16293 C 1527.54 1.19439 4.10997 0
M  V30 16294 C 1526.86 0.495593 5.32398 0
M  V30 16295 C 1528.16 2.54437 4.56135 0
M  V30 16296 H 1529.86 1.69503 2.46797 0
M  V30 16297 H 1527.4 0.816433 1.18619 0
M  V30 16298 H 1529.35 -0.00497468 4.214 0
M  V30 16299 H 1528.08 -0.706938 3.18857 0
M  V30 16300 H 1526.74 1.41686 3.38113 0
M  V30 16301 H 1526.39 -0.447984 5.01001 0
M  V30 16302 H 1526.09 1.13753 5.76484 0
M  V30 16303 H 1527.61 0.267476 6.10014 0
M  V30 16304 H 1529.02 2.36289 5.22341 0
M  V30 16305 H 1527.42 3.14595 5.11028 0
M  V30 16306 H 1528.49 3.13795 3.69676 0
M  V30 16307 N 1529.83 -1.29188 0.902679 0
M  V30 16308 C 1530.76 -2.3006 0.399357 0
M  V30 16309 C 1531.74 -1.61724 -0.527199 0
M  V30 16310 O 1532.93 -1.89213 -0.437293 0
M  V30 16311 C 1530.06 -3.45309 -0.371331 0
M  V30 16312 C 1529.01 -4.25466 0.465068 0
M  V30 16313 C 1528.34 -5.32941 -0.433295 0
M  V30 16314 C 1529.64 -4.93287 1.71655 0
M  V30 16315 H 1531.33 -2.72409 1.24233 0
M  V30 16316 H 1528.88 -1.30958 0.598822 0
M  V30 16317 H 1530.83 -4.14955 -0.734207 0
M  V30 16318 H 1529.56 -3.01811 -1.24811 0
M  V30 16319 H 1528.22 -3.57532 0.810315 0
M  V30 16320 H 1527.86 -4.85688 -1.3083 0
M  V30 16321 H 1527.56 -5.87472 0.122657 0
M  V30 16322 H 1529.09 -6.05438 -0.792298 0
M  V30 16323 H 1530.5 -5.55353 1.42323 0
M  V30 16324 H 1528.9 -5.57763 2.21405 0
M  V30 16325 H 1529.97 -4.18406 2.45081 0
M  V30 16326 N 1531.31 -0.665475 -1.42861 0
M  V30 16327 C 1532.54 -0.190399 -2.06524 0
M  V30 16328 C 1532.96 1.13995 -1.49622 0
M  V30 16329 O 1532.32 1.70695 -0.610981 0
M  V30 16330 C 1532.37 -0.12594 -3.6038 0
M  V30 16331 O 1531.47 0.908299 -4.02273 0
M  V30 16332 H 1530.81 -0.100495 -0.656351 0
M  V30 16333 H 1533.34 -0.911858 -1.83156 0
M  V30 16334 H 1533.35 0.0533153 -4.07965 0
M  V30 16335 H 1532.03 -1.09703 -4.01171 0
M  V30 16336 H 1530.6 0.700841 -3.66255 0
M  V30 16337 N 1532.79 1.52222 -0.408187 0
M  V30 16338 C 1533.7 2.30725 0.424645 0
M  V30 16339 C 1534.72 1.38412 1.05442 0
M  V30 16340 O 1535.89 1.71486 1.05614 0
M  V30 16341 C 1532.96 3.11273 1.52677 0
M  V30 16342 C 1532.02 4.19323 0.920143 0
M  V30 16343 C 1531.25 4.96021 1.96974 0
M  V30 16344 O 1531.47 4.73011 3.18774 0
M  V30 16345 O 1530.41 5.80887 1.5765 0
M  V30 16346 H 1534.23 3.02935 -0.215411 0
M  V30 16347 H 1531.82 1.48413 -0.171414 0
M  V30 16348 H 1533.7 3.61436 2.16661 0
M  V30 16349 H 1532.38 2.41857 2.15144 0
M  V30 16350 H 1531.28 3.7331 0.243037 0
M  V30 16351 H 1532.62 4.91028 0.339405 0
M  V30 16352 N 1534.27 0.138579 1.5699 0
M  V30 16353 C 1535.21 -0.804305 2.16332 0
M  V30 16354 C 1536.18 -1.25002 1.09379 0
M  V30 16355 O 1537.37 -1.32405 1.37381 0
M  V30 16356 C 1534.51 -2.04137 2.78248 0
M  V30 16357 C 1533.62 -1.64223 3.99568 0
M  V30 16358 C 1532.76 -2.83046 4.49509 0
M  V30 16359 C 1531.8 -2.39465 5.63314 0
M  V30 16360 N 1530.93 -3.51267 6.07911 0
M  V30 16361 H 1535.77 -0.29144 2.96571 0
M  V30 16362 H 1533.31 -0.132146 1.46505 0
M  V30 16363 H 1535.27 -2.76646 3.12286 0
M  V30 16364 H 1533.9 -2.52849 2.00667 0
M  V30 16365 H 1532.95 -0.815123 3.71564 0
M  V30 16366 H 1534.26 -1.2821 4.82041 0
M  V30 16367 H 1533.42 -3.63755 4.85559 0
M  V30 16368 H 1532.16 -3.22298 3.66026 0
M  V30 16369 H 1531.16 -1.57193 5.2685 0
M  V30 16370 H 1532.39 -2.01307 6.48577 0
M  V30 16371 H 1530.33 -3.90156 5.27365 0
M  V30 16372 H 1530.25 -3.19241 6.85289 0
M  V30 16373 H 1531.52 -4.32358 6.48604 0
M  V30 16374 N 1535.75 -1.57019 -0.13521 0
M  V30 16375 C 1536.69 -2.0011 -1.18569 0
M  V30 16376 C 1537.69 -0.895372 -1.43804 0
M  V30 16377 O 1538.89 -1.08057 -1.43957 0
M  V30 16378 H 1535.27 -0.637176 -0.399388 0
M  V30 16379 H 1537.24 -2.87597 -0.795636 0
M  V30 16380 C 1535.99 -2.40769 -2.50849 0
M  V30 16381 H 1535.31 -3.25412 -2.32265 0
M  V30 16382 H 1536.75 -2.74733 -3.22951 0
M  V30 16383 C 1535.21 -1.26494 -3.12251 0
M  V30 16384 O 1535.74 -0.572067 -3.97606 0
M  V30 16385 N 1533.95 -1.02615 -2.7188 0
M  V30 16386 H 1533.49 -1.59136 -2.02567 0
M  V30 16387 H 1533.45 -0.263464 -3.13294 0
M  V30 16388 N 1537.22 0.404919 -1.52309 0
M  V30 16389 C 1538.47 1.15319 -1.66822 0
M  V30 16390 C 1538.8 1.90056 -0.399041 0
M  V30 16391 O 1538.08 1.84927 0.602679 0
M  V30 16392 C 1538.36 2.14426 -2.89298 0
M  V30 16393 C 1538.21 1.43558 -4.26276 0
M  V30 16394 C 1539.53 3.15046 -3.07301 0
M  V30 16395 H 1536.65 0.417869 -0.607087 0
M  V30 16396 H 1539.29 0.438414 -1.84873 0
M  V30 16397 H 1537.44 2.75382 -2.74039 0
M  V30 16398 H 1539.12 0.856899 -4.53271 0
M  V30 16399 H 1537.36 0.737515 -4.27485 0
M  V30 16400 H 1538.03 2.15895 -5.08029 0
M  V30 16401 H 1540.51 2.6417 -3.21486 0
M  V30 16402 H 1539.38 3.81652 -3.94503 0
M  V30 16403 H 1539.64 3.83012 -2.20803 0
M  V30 16404 N 1538.7 1.43003 0.662408 0
M  V30 16405 C 1539.95 1.44346 1.4245 0
M  V30 16406 C 1540.28 0.064094 1.94094 0
M  V30 16407 O 1539.56 -0.913633 1.71706 0
M  V30 16408 C 1539.84 2.47822 2.61259 0
M  V30 16409 C 1539.69 3.94998 2.15166 0
M  V30 16410 C 1541.01 2.48139 3.63476 0
M  V30 16411 H 1538.13 0.525606 0.51663 0
M  V30 16412 H 1540.77 1.74495 0.751754 0
M  V30 16413 H 1538.92 2.22244 3.18653 0
M  V30 16414 H 1540.59 4.31601 1.62843 0
M  V30 16415 H 1538.84 4.0827 1.46622 0
M  V30 16416 H 1539.51 4.62998 3.00561 0
M  V30 16417 H 1541.98 2.70916 3.15823 0
M  V30 16418 H 1540.86 3.22498 4.44169 0
M  V30 16419 H 1541.12 1.51184 4.15447 0
M  V30 16420 N 1540.18 -0.899904 1.29381 0
M  V30 16421 C 1541.13 -2.004 1.14493 0
M  V30 16422 C 1542.1 -1.66056 0.0383099 0
M  V30 16423 O 1543.28 -1.89687 0.20579 0
M  V30 16424 C 1540.42 -3.35039 0.827237 0
M  V30 16425 C 1539.54 -3.82166 2.01427 0
M  V30 16426 C 1538.67 -5.0538 1.63598 0
M  V30 16427 C 1537.71 -5.44876 2.78884 0
M  V30 16428 N 1536.85 -6.59276 2.41452 0
M  V30 16429 H 1541.69 -2.12466 2.08955 0
M  V30 16430 H 1539.22 -1.0405 1.03981 0
M  V30 16431 H 1541.18 -4.12511 0.62373 0
M  V30 16432 H 1539.81 -3.227 -0.0804772 0
M  V30 16433 H 1538.86 -3.00731 2.32949 0
M  V30 16434 H 1540.18 -4.07387 2.87814 0
M  V30 16435 H 1539.33 -5.90436 1.39534 0
M  V30 16436 H 1538.07 -4.81998 0.743593 0
M  V30 16437 H 1537.07 -4.58355 3.0363 0
M  V30 16438 H 1538.3 -5.7024 3.68786 0
M  V30 16439 H 1536.24 -6.37498 1.54701 0
M  V30 16440 H 1536.16 -6.84293 3.21372 0
M  V30 16441 H 1537.43 -7.47602 2.20708 0
M  V30 16442 N 1541.66 -1.11854 -1.11024 0
M  V30 16443 C 1542.91 -0.864814 -1.82219 0
M  V30 16444 C 1543.22 0.611349 -1.85801 0
M  V30 16445 O 1544.43 0.981475 -2.53139 0
M  V30 16446 C 1542.88 -1.49745 -3.27268 0
M  V30 16447 C 1542.49 -3.00796 -3.32003 0
M  V30 16448 C 1544.23 -1.32374 -4.03333 0
M  V30 16449 C 1542.14 -3.57023 -4.71475 0
M  V30 16450 H 1541.07 -0.319877 -0.682784 0
M  V30 16451 H 1543.72 -1.34431 -1.24903 0
M  V30 16452 H 1542.1 -0.94562 -3.84544 0
M  V30 16453 H 1543.28 -3.6242 -2.84585 0
M  V30 16454 H 1541.59 -3.17493 -2.6942 0
M  V30 16455 H 1544.19 -1.7181 -5.06345 0
M  V30 16456 H 1544.53 -0.26676 -4.15444 0
M  V30 16457 H 1545.07 -1.84444 -3.52456 0
M  V30 16458 H 1541.81 -4.62453 -4.64562 0
M  V30 16459 H 1541.33 -3.00172 -5.19285 0
M  V30 16460 H 1543 -3.5572 -5.40437 0
M  V30 16461 N 1543.14 1.28707 -0.909517 0
M  V30 16462 C 1544.38 1.9693 -0.547521 0
M  V30 16463 C 1544.74 1.70052 0.891417 0
M  V30 16464 O 1545.94 2.31811 1.36078 0
M  V30 16465 C 1544.21 3.4731 -0.843226 0
M  V30 16466 S 1545.77 4.34856 -0.587013 0
M  V30 16467 H 1542.59 0.681478 -0.202753 0
M  V30 16468 H 1545.19 1.5632 -1.17406 0
M  V30 16469 H 1543.9 3.64367 -1.88851 0
M  V30 16470 H 1543.43 3.92865 -0.205179 0
M  V30 16471 H 1545.44 4.92989 0.563561 0
M  V30 16472 N 1544.61 0.673042 1.42506 0
M  V30 16473 C 1545.89 0.123606 1.95209 0
M  V30 16474 C 1546.27 -1.36118 1.61354 0
M  V30 16475 O 1545.62 -2.0965 0.908793 0
M  V30 16476 C 1545.83 0.39088 3.46804 0
M  V30 16477 C 1547.18 0.306445 4.23493 0
M  V30 16478 O 1548.2 0.32453 3.54719 0
M  V30 16479 O 1547.06 0.247127 5.45941 0
M  V30 16480 H 1544.15 0.00184868 0.826998 0
M  V30 16481 H 1546.7 0.74765 1.52343 0
M  V30 16482 H 1545.47 1.41951 3.64645 0
M  V30 16483 H 1545.1 -0.265259 3.96714 0
M  V30 16484 N 1546.09 -1.52004 0.416254 0
M  V30 16485 C 1547.34 -2.01889 -0.157201 0
M  V30 16486 C 1547.67 -1.30153 -1.44535 0
M  V30 16487 O 1546.92 -0.39855 -1.91599 0
M  V30 16488 C 1547.22 -3.54624 -0.444553 0
M  V30 16489 C 1546.89 -4.4453 0.755251 0
M  V30 16490 C 1545.55 -4.68824 1.08433 0
M  V30 16491 C 1547.9 -4.97412 1.55663 0
M  V30 16492 C 1545.23 -5.43246 2.21586 0
M  V30 16493 C 1547.58 -5.73074 2.67898 0
M  V30 16494 C 1546.25 -5.95637 3.01285 0
M  V30 16495 H 1545.52 -0.738764 -0.0575239 0
M  V30 16496 H 1548.16 -1.83156 0.559133 0
M  V30 16497 H 1546.47 -3.71575 -1.24254 0
M  V30 16498 H 1548.16 -3.90739 -0.901333 0
M  V30 16499 H 1544.75 -4.25804 0.488789 0
M  V30 16500 H 1548.94 -4.78545 1.31562 0
M  V30 16501 H 1544.19 -5.58936 2.47792 0
M  V30 16502 H 1548.37 -6.13044 3.30378 0
M  V30 16503 H 1546 -6.53086 3.89079 0
M  V30 16504 N 1547.57 -0.146903 -1.56914 0
M  V30 16505 C 1548.82 0.503237 -1.95734 0
M  V30 16506 C 1549.14 1.65407 -1.03275 0
M  V30 16507 O 1548.41 1.95673 -0.0942784 0
M  V30 16508 H 1546.99 0.188899 -0.722721 0
M  V30 16509 H 1549.65 -0.222379 -1.93627 0
M  V30 16510 H 1548.75 0.879445 -2.99453 0
M  V30 16511 N 1549.05 1.57088 0.126881 0
M  V30 16512 C 1549.98 2.02799 1.15737 0
M  V30 16513 C 1550.96 0.911031 1.43646 0
M  V30 16514 O 1552.14 1.18021 1.54223 0
M  V30 16515 C 1549.27 2.42565 2.48555 0
M  V30 16516 C 1548.23 3.57631 2.35125 0
M  V30 16517 C 1547.55 3.83272 3.72836 0
M  V30 16518 C 1548.85 4.89625 1.81838 0
M  V30 16519 H 1550.55 2.89136 0.777207 0
M  V30 16520 H 1548.09 1.39101 0.372416 0
M  V30 16521 H 1550.05 2.73146 3.20888 0
M  V30 16522 H 1548.77 1.53188 2.88446 0
M  V30 16523 H 1547.43 3.27247 1.65242 0
M  V30 16524 H 1547.08 2.91114 4.10197 0
M  V30 16525 H 1546.78 4.60721 3.64705 0
M  V30 16526 H 1548.3 4.16298 4.46686 0
M  V30 16527 H 1549.72 5.18793 2.43981 0
M  V30 16528 H 1548.11 5.71018 1.84548 0
M  V30 16529 H 1549.18 4.7866 0.775385 0
M  V30 16530 N 1550.53 -0.396836 1.52522 0
M  V30 16531 C 1551.49 -1.46695 1.76106 0
M  V30 16532 C 1552.49 -1.47902 0.631005 0
M  V30 16533 O 1553.68 -1.4921 0.898995 0
M  V30 16534 C 1550.81 -2.86033 1.85467 0
M  V30 16535 H 1552 -1.27071 2.71649 0
M  V30 16536 H 1549.56 -0.628096 1.43125 0
M  V30 16537 H 1550.29 -3.11012 0.918816 0
M  V30 16538 H 1550.08 -2.86559 2.67631 0
M  V30 16539 H 1551.57 -3.63587 2.05412 0
M  V30 16540 N 1552.01 -1.43353 -0.654814 0
M  V30 16541 C 1553.42 -1.26718 -0.970297 0
M  V30 16542 C 1553.62 -0.185747 -2.00642 0
M  V30 16543 O 1552.68 0.436357 -2.48701 0
M  V30 16544 C 1553.99 -2.63095 -1.45608 0
M  V30 16545 C 1555.54 -2.70613 -1.57281 0
M  V30 16546 C 1556.01 -4.07404 -2.0925 0
M  V30 16547 N 1557.5 -4.09461 -2.16555 0
M  V30 16548 C 1558.24 -5.12135 -2.57885 0
M  V30 16549 N 1557.74 -6.25185 -2.98523 0
M  V30 16550 N 1559.53 -4.9949 -2.57811 0
M  V30 16551 H 1551.68 -2.12378 0.0308331 0
M  V30 16552 H 1553.94 -0.946744 -0.0487843 0
M  V30 16553 H 1553.65 -3.43186 -0.769171 0
M  V30 16554 H 1553.52 -2.88381 -2.43138 0
M  V30 16555 H 1555.91 -1.90855 -2.25074 0
M  V30 16556 H 1555.99 -2.49094 -0.581879 0
M  V30 16557 H 1555.63 -4.87628 -1.4206 0
M  V30 16558 H 1555.56 -4.26287 -3.09172 0
M  V30 16559 H 1558.06 -3.27858 -1.87929 0
M  V30 16560 H 1558.37 -6.99362 -3.28804 0
M  V30 16561 H 1556.71 -6.28659 -2.96332 0
M  V30 16562 H 1559.9 -4.10238 -2.25438 0
M  V30 16563 H 1560.08 -5.79637 -2.89699 0
M  V30 16564 N 1553.48 0.89303 -1.29857 0
M  V30 16565 C 1554.76 1.62492 -1.08884 0
M  V30 16566 C 1555.14 2.07926 0.364695 0
M  V30 16567 O 1554.49 1.84009 1.35473 0
M  V30 16568 C 1554.7 2.80063 -2.08245 0
M  V30 16569 C 1556.05 3.50589 -2.39526 0
M  V30 16570 O 1557.07 2.90241 -2.06492 0
M  V30 16571 O 1555.93 4.59399 -2.95998 0
M  V30 16572 H 1553.02 0.713805 -0.417626 0
M  V30 16573 H 1555.57 0.940513 -1.41253 0
M  V30 16574 H 1554.34 2.43735 -3.06119 0
M  V30 16575 H 1553.96 3.56205 -1.76645 0
M  V30 16576 N 1554.96 1.12442 1.10429 0
M  V30 16577 C 1556.21 0.874466 1.81758 0
M  V30 16578 C 1556.52 -0.601487 1.86122 0
M  V30 16579 O 1557.73 -0.968037 2.53656 0
M  V30 16580 C 1556.19 1.51478 3.2647 0
M  V30 16581 C 1555.79 3.02552 3.30403 0
M  V30 16582 C 1557.54 1.34511 4.02625 0
M  V30 16583 C 1555.44 3.59518 4.69575 0
M  V30 16584 H 1554.37 0.323494 0.681078 0
M  V30 16585 H 1557.03 1.35091 1.24188 0
M  V30 16586 H 1555.41 0.966 3.84037 0
M  V30 16587 H 1556.58 3.63924 2.82659 0
M  V30 16588 H 1554.9 3.18917 2.67733 0
M  V30 16589 H 1557.49 1.74492 5.05427 0
M  V30 16590 H 1557.84 0.288788 4.15297 0
M  V30 16591 H 1558.37 1.86311 3.51473 0
M  V30 16592 H 1555.11 4.6491 4.62103 0
M  V30 16593 H 1554.63 3.02922 5.17686 0
M  V30 16594 H 1556.31 3.58581 5.38543 0
M  V30 16595 N 1556.44 -1.28223 0.91633 0
M  V30 16596 C 1557.67 -1.98697 0.56595 0
M  V30 16597 C 1558.08 -1.6864 -0.857734 0
M  V30 16598 O 1557.42 -0.937018 -1.58005 0
M  V30 16599 C 1557.48 -3.52653 0.698292 0
M  V30 16600 C 1557.15 -4.06306 2.092 0
M  V30 16601 C 1558.14 -4.19946 3.06499 0
M  V30 16602 C 1555.83 -4.40934 2.40587 0
M  V30 16603 C 1557.82 -4.67471 4.33301 0
M  V30 16604 C 1555.51 -4.88153 3.67628 0
M  V30 16605 C 1556.51 -5.01378 4.63798 0
M  V30 16606 O 1556.2 -5.47566 5.8858 0
M  V30 16607 H 1555.93 -0.641153 0.214239 0
M  V30 16608 H 1558.48 -1.64322 1.23237 0
M  V30 16609 H 1556.71 -3.86692 -0.0252036 0
M  V30 16610 H 1558.4 -4.04348 0.354638 0
M  V30 16611 H 1559.17 -3.93464 2.83569 0
M  V30 16612 H 1555.05 -4.29889 1.66482 0
M  V30 16613 H 1558.59 -4.77709 5.0837 0
M  V30 16614 H 1554.49 -5.14074 3.90382 0
M  V30 16615 H 1555.25 -5.65845 5.91406 0
M  V30 16616 N 1557.92 -0.68059 -1.42147 0
M  V30 16617 C 1558.86 -0.00585926 -2.30799 0
M  V30 16618 C 1559.83 0.786778 -1.46284 0
M  V30 16619 O 1561.02 0.757853 -1.75103 0
M  V30 16620 C 1558.16 0.935319 -3.32183 0
M  V30 16621 C 1557.27 0.13589 -4.31786 0
M  V30 16622 C 1556.41 1.07335 -5.20243 0
M  V30 16623 C 1555.45 0.265943 -6.11522 0
M  V30 16624 N 1554.58 1.15641 -6.92511 0
M  V30 16625 H 1559.42 -0.767651 -2.87943 0
M  V30 16626 H 1556.96 -0.39029 -1.41828 0
M  V30 16627 H 1558.92 1.49489 -3.89498 0
M  V30 16628 H 1557.55 1.66368 -2.76626 0
M  V30 16629 H 1556.6 -0.540383 -3.76542 0
M  V30 16630 H 1557.91 -0.490716 -4.9638 0
M  V30 16631 H 1557.07 1.70265 -5.82319 0
M  V30 16632 H 1555.81 1.73383 -4.55839 0
M  V30 16633 H 1554.81 -0.376531 -5.48509 0
M  V30 16634 H 1556.04 -0.39053 -6.77976 0
M  V30 16635 H 1553.98 1.80319 -6.30731 0
M  V30 16636 H 1553.9 0.585022 -7.53733 0
M  V30 16637 H 1555.17 1.773 -7.59069 0
M  V30 16638 N 1559.4 1.51781 -0.424309 0
M  V30 16639 C 1560.67 1.94514 0.205791 0
M  V30 16640 C 1561.05 1.36219 1.61269 0
M  V30 16641 O 1560.4 0.544019 2.21929 0
M  V30 16642 C 1560.61 3.48445 0.196749 0
M  V30 16643 C 1561.96 4.22628 0.408702 0
M  V30 16644 O 1562.98 3.55133 0.275441 0
M  V30 16645 O 1561.84 5.42344 0.672698 0
M  V30 16646 H 1558.94 0.815576 0.136983 0
M  V30 16647 H 1561.48 1.6273 -0.481349 0
M  V30 16648 H 1560.25 3.83297 -0.787342 0
M  V30 16649 H 1559.88 3.86634 0.92735 0
M  V30 16650 N 1560.87 0.155222 1.56834 0
M  V30 16651 C 1562.28 -0.364232 1.83113 0
M  V30 16652 C 1562.64 -1.64173 1.07432 0
M  V30 16653 O 1561.76 -2.13988 0.322202 0
M  V30 16654 C 1562.36 -0.667608 3.32157 0
M  V30 16655 C 1560.91 -1.13156 3.58989 0
M  V30 16656 C 1560.06 -0.158941 2.76844 0
M  V30 16657 H 1563.01 0.379779 1.54089 0
M  V30 16658 H 1563.03 -1.52141 3.4876 0
M  V30 16659 H 1562.55 0.262355 3.87212 0
M  V30 16660 H 1560.65 -2.07717 3.09329 0
M  V30 16661 H 1560.76 -1.05184 4.67411 0
M  V30 16662 H 1559.12 -0.653181 2.46182 0
M  V30 16663 H 1559.91 0.764757 3.34674 0
M  V30 16664 N 1562.35 -1.57153 -0.118549 0
M  V30 16665 C 1563.63 -1.75846 -0.856587 0
M  V30 16666 C 1564.01 -0.730801 -1.98047 0
M  V30 16667 O 1563.36 0.245156 -2.27181 0
M  V30 16668 C 1563.57 -3.20864 -1.37286 0
M  V30 16669 C 1564.91 -3.83378 -1.82501 0
M  V30 16670 O 1565.94 -3.24469 -1.46964 0
M  V30 16671 O 1564.8 -4.86922 -2.48132 0
M  V30 16672 H 1561.89 -0.72002 -0.406817 0
M  V30 16673 H 1564.44 -1.69392 -0.102254 0
M  V30 16674 H 1563.21 -3.87177 -0.566531 0
M  V30 16675 H 1562.83 -3.31858 -2.18988 0
M  V30 16676 N 1563.83 0.388742 -1.5273 0
M  V30 16677 C 1565.06 1.15328 -1.71415 0
M  V30 16678 C 1565.47 1.84193 -0.432366 0
M  V30 16679 O 1564.81 1.73522 0.602977 0
M  V30 16680 C 1564.87 2.24436 -2.80836 0
M  V30 16681 C 1564.54 1.75535 -4.21944 0
M  V30 16682 C 1565.53 1.23196 -5.05093 0
M  V30 16683 C 1563.22 1.8175 -4.68265 0
M  V30 16684 C 1565.21 0.777194 -6.32644 0
M  V30 16685 C 1562.9 1.35885 -5.95801 0
M  V30 16686 C 1563.9 0.839573 -6.7782 0
M  V30 16687 O 1563.59 0.387619 -8.02965 0
M  V30 16688 H 1563.32 0.351742 -0.577281 0
M  V30 16689 H 1565.87 0.460735 -2.00166 0
M  V30 16690 H 1564.1 2.97115 -2.47506 0
M  V30 16691 H 1565.79 2.86106 -2.87921 0
M  V30 16692 H 1566.56 1.17751 -4.70489 0
M  V30 16693 H 1562.44 2.21111 -4.04513 0
M  V30 16694 H 1565.98 0.371199 -6.96612 0
M  V30 16695 H 1561.88 1.41016 -6.29909 0
M  V30 16696 H 1562.64 0.509073 -8.16915 0
M  V30 16697 N 1565.31 1.43698 0.647203 0
M  V30 16698 C 1566.55 1.45849 1.40911 0
M  V30 16699 C 1566.89 0.0846767 1.94015 0
M  V30 16700 O 1566.16 -0.89537 1.72665 0
M  V30 16701 C 1566.44 2.50579 2.58616 0
M  V30 16702 C 1566.3 3.97258 2.10965 0
M  V30 16703 C 1567.62 2.51981 3.60824 0
M  V30 16704 H 1564.74 0.531056 0.511027 0
M  V30 16705 H 1567.38 1.75283 0.733204 0
M  V30 16706 H 1565.53 2.25611 3.16278 0
M  V30 16707 H 1567.2 4.33304 1.58257 0
M  V30 16708 H 1565.44 4.09802 1.42284 0
M  V30 16709 H 1566.11 4.6616 2.95633 0
M  V30 16710 H 1568.59 2.7425 3.12932 0
M  V30 16711 H 1567.47 3.27191 4.40723 0
M  V30 16712 H 1567.73 1.55582 4.1382 0
M  V30 16713 N 1566.79 -0.886131 1.30328 0
M  V30 16714 C 1568.2 -1.16922 1.08634 0
M  V30 16715 C 1568.4 -2.00913 -0.15365 0
M  V30 16716 O 1567.46 -2.37849 -0.847592 0
M  V30 16717 C 1568.77 -1.87701 2.34923 0
M  V30 16718 C 1570.32 -2.0047 2.40376 0
M  V30 16719 C 1570.79 -2.74662 3.66504 0
M  V30 16720 N 1572.29 -2.82208 3.67305 0
M  V30 16721 C 1573.02 -3.40185 4.61586 0
M  V30 16722 N 1572.52 -3.99221 5.66211 0
M  V30 16723 N 1574.31 -3.37989 4.49132 0
M  V30 16724 H 1566.46 -0.326064 2.09882 0
M  V30 16725 H 1568.72 -0.206996 0.925125 0
M  V30 16726 H 1568.43 -1.33427 3.25408 0
M  V30 16727 H 1568.3 -2.88092 2.43481 0
M  V30 16728 H 1570.69 -2.53914 1.50371 0
M  V30 16729 H 1570.77 -0.991709 2.35794 0
M  V30 16730 H 1570.42 -2.2189 4.56867 0
M  V30 16731 H 1570.35 -3.76335 3.68347 0
M  V30 16732 H 1572.84 -2.40292 2.91665 0
M  V30 16733 H 1573.15 -4.41522 6.34254 0
M  V30 16734 H 1571.49 -3.97643 5.70004 0
M  V30 16735 H 1574.69 -2.91096 3.6658 0
M  V30 16736 H 1574.86 -3.82877 5.2279 0
M  V30 16737 N 1568.26 -1.13026 -1.09832 0
M  V30 16738 C 1569.21 -0.803817 -2.1635 0
M  V30 16739 C 1570.18 0.232226 -1.64469 0
M  V30 16740 O 1571.37 0.105403 -1.90509 0
M  V30 16741 C 1568.51 -0.271414 -3.44031 0
M  V30 16742 C 1567.62 -1.36602 -4.09834 0
M  V30 16743 C 1566.75 -0.792393 -5.25257 0
M  V30 16744 C 1565.79 -1.86569 -5.82974 0
M  V30 16745 N 1564.93 -1.31032 -6.89764 0
M  V30 16746 H 1569.77 -1.71624 -2.43617 0
M  V30 16747 H 1567.31 -0.856772 -1.19574 0
M  V30 16748 H 1569.27 0.0553638 -4.17163 0
M  V30 16749 H 1567.9 0.604154 -3.17096 0
M  V30 16750 H 1566.95 -1.80946 -3.34608 0
M  V30 16751 H 1568.26 -2.17737 -4.48767 0
M  V30 16752 H 1567.41 -0.416652 -6.05268 0
M  V30 16753 H 1566.15 0.0500894 -4.87674 0
M  V30 16754 H 1565.16 -2.25054 -5.01628 0
M  V30 16755 H 1566.38 -2.7115 -6.22619 0
M  V30 16756 H 1564.33 -0.489768 -6.54169 0
M  V30 16757 H 1564.25 -2.0582 -7.27444 0
M  V30 16758 H 1565.51 -0.962011 -7.73541 0
M  V30 16759 N 1569.74 1.27735 -0.923117 0
M  V30 16760 C 1570.99 1.94185 -0.56004 0
M  V30 16761 C 1571.31 1.72945 0.90084 0
M  V30 16762 O 1570.58 1.07453 1.63801 0
M  V30 16763 H 1569.16 0.718568 -0.204129 0
M  V30 16764 H 1571.82 1.55535 -1.17451 0
M  V30 16765 H 1570.92 3.02644 -0.762424 0
M  V30 16766 N 1571.22 0.688118 1.41784 0
M  V30 16767 C 1572.5 0.144304 1.95067 0
M  V30 16768 C 1572.88 -1.34399 1.62789 0
M  V30 16769 O 1572.23 -2.08675 0.930978 0
M  V30 16770 C 1572.44 0.427641 3.4637 0
M  V30 16771 C 1573.78 0.351345 4.23144 0
M  V30 16772 O 1574.81 0.362134 3.54354 0
M  V30 16773 O 1573.67 0.305018 5.45648 0
M  V30 16774 H 1570.76 0.01062 0.826932 0
M  V30 16775 H 1573.31 0.763766 1.51541 0
M  V30 16776 H 1572.08 1.4581 3.63119 0
M  V30 16777 H 1571.7 -0.223167 3.96973 0
M  V30 16778 N 1572.7 -1.51554 0.432352 0
M  V30 16779 C 1573.66 -2.26195 -0.369912 0
M  V30 16780 C 1574.66 -1.29446 -0.953961 0
M  V30 16781 O 1575.85 -1.53199 -0.829193 0
M  V30 16782 C 1572.98 -3.04993 -1.52289 0
M  V30 16783 H 1574.18 -2.98551 0.284173 0
M  V30 16784 H 1571.73 -1.55197 0.1854 0
M  V30 16785 H 1572.46 -2.37043 -2.21317 0
M  V30 16786 H 1572.25 -3.76051 -1.11032 0
M  V30 16787 H 1573.74 -3.61547 -2.08982 0
M  V30 16788 N 1574.18 -0.163538 -1.56749 0
M  V30 16789 C 1575.59 0.192717 -1.58432 0
M  V30 16790 C 1575.79 1.63438 -1.17856 0
M  V30 16791 O 1574.85 2.36425 -0.88654 0
M  V30 16792 C 1576.16 -0.0810427 -3.00591 0
M  V30 16793 C 1577.71 -0.0186378 -3.12994 0
M  V30 16794 C 1578.18 -0.265283 -4.57231 0
M  V30 16795 N 1579.68 -0.212787 -4.62711 0
M  V30 16796 C 1580.41 -0.37791 -5.72153 0
M  V30 16797 N 1579.91 -0.601663 -6.90182 0
M  V30 16798 N 1581.7 -0.314357 -5.6122 0
M  V30 16799 H 1573.85 -1.10467 -1.81413 0
M  V30 16800 H 1576.11 -0.438569 -0.840453 0
M  V30 16801 H 1575.82 -1.07944 -3.34725 0
M  V30 16802 H 1575.69 0.630888 -3.71887 0
M  V30 16803 H 1578.08 0.970324 -2.78691 0
M  V30 16804 H 1578.16 -0.763158 -2.44151 0
M  V30 16805 H 1577.81 -1.25142 -4.92242 0
M  V30 16806 H 1577.74 0.499756 -5.24223 0
M  V30 16807 H 1580.23 -0.0451754 -3.77873 0
M  V30 16808 H 1580.54 -0.717319 -7.69464 0
M  V30 16809 H 1578.88 -0.638184 -6.92064 0
M  V30 16810 H 1582.08 -0.140197 -4.6789 0
M  V30 16811 H 1582.25 -0.446472 -6.4646 0
M  V30 16812 N 1575.65 1.57214 0.110213 0
M  V30 16813 C 1576.58 2.04015 1.13579 0
M  V30 16814 C 1577.57 0.926215 1.42672 0
M  V30 16815 O 1578.75 1.19651 1.52962 0
M  V30 16816 C 1575.88 2.45187 2.45969 0
M  V30 16817 C 1574.83 3.60105 2.31319 0
M  V30 16818 C 1574.16 3.87205 3.68749 0
M  V30 16819 C 1575.46 4.91526 1.76635 0
M  V30 16820 H 1577.15 2.89944 0.746496 0
M  V30 16821 H 1574.7 1.39488 0.357642 0
M  V30 16822 H 1576.65 2.76534 3.17973 0
M  V30 16823 H 1575.38 1.56238 2.86805 0
M  V30 16824 H 1574.04 3.28981 1.61762 0
M  V30 16825 H 1573.68 2.95448 4.07087 0
M  V30 16826 H 1573.38 4.64563 3.59798 0
M  V30 16827 H 1574.91 4.21013 4.42245 0
M  V30 16828 H 1576.32 5.21351 2.38465 0
M  V30 16829 H 1574.72 5.72944 1.78482 0
M  V30 16830 H 1575.79 4.79456 0.724573 0
M  V30 16831 N 1577.13 -0.380637 1.52934 0
M  V30 16832 C 1578.54 -0.958182 1.60237 0
M  V30 16833 C 1578.89 -1.90722 0.460393 0
M  V30 16834 O 1578.02 -2.12376 -0.415354 0
M  V30 16835 C 1578.61 -1.7446 2.90429 0
M  V30 16836 C 1577.17 -2.27172 3.00116 0
M  V30 16837 C 1576.32 -1.07969 2.55417 0
M  V30 16838 H 1579.27 -0.159908 1.57892 0
M  V30 16839 H 1579.29 -2.60456 2.77385 0
M  V30 16840 H 1578.8 -1.05362 3.73524 0
M  V30 16841 H 1576.91 -2.99557 2.21577 0
M  V30 16842 H 1577.02 -2.56086 4.04916 0
M  V30 16843 H 1575.38 -1.4422 2.09935 0
M  V30 16844 H 1576.17 -0.403925 3.40915 0
M  V30 16845 N 1578.61 -1.44039 -0.639573 0
M  V30 16846 C 1579.54 -1.53073 -1.76327 0
M  V30 16847 C 1580.52 -0.384344 -1.65701 0
M  V30 16848 O 1581.71 -0.603362 -1.84589 0
M  V30 16849 C 1578.84 -1.46646 -3.14821 0
M  V30 16850 C 1577.79 -2.59673 -3.40226 0
M  V30 16851 C 1577.12 -2.38298 -4.78663 0
M  V30 16852 C 1578.42 -4.01864 -3.33621 0
M  V30 16853 H 1580.11 -2.47126 -1.69023 0
M  V30 16854 H 1577.66 -1.1894 -0.811749 0
M  V30 16855 H 1579.61 -1.51567 -3.93199 0
M  V30 16856 H 1578.33 -0.491035 -3.22888 0
M  V30 16857 H 1576.99 -2.54127 -2.64225 0
M  V30 16858 H 1576.64 -1.38968 -4.83422 0
M  V30 16859 H 1576.34 -3.14074 -4.9662 0
M  V30 16860 H 1577.86 -2.45025 -5.59281 0
M  V30 16861 H 1579.28 -4.08824 -4.01915 0
M  V30 16862 H 1577.68 -4.77775 -3.63113 0
M  V30 16863 H 1578.75 -4.26033 -2.31569 0
M  V30 16864 N 1580.09 0.879207 -1.30796 0
M  V30 16865 C 1581.04 1.98553 -1.17667 0
M  V30 16866 C 1582.01 1.65974 -0.0647231 0
M  V30 16867 O 1583.19 1.89336 -0.235941 0
M  V30 16868 C 1580.33 3.3368 -0.880434 0
M  V30 16869 C 1579.44 3.78913 -2.07482 0
M  V30 16870 C 1578.58 5.02714 -1.71617 0
M  V30 16871 C 1577.62 5.40371 -2.87517 0
M  V30 16872 N 1576.75 6.55352 -2.5191 0
M  V30 16873 H 1581.59 2.09115 -2.12309 0
M  V30 16874 H 1579.13 1.02382 -1.05623 0
M  V30 16875 H 1581.09 4.11467 -0.689278 0
M  V30 16876 H 1579.72 3.22787 0.0291283 0
M  V30 16877 H 1578.77 2.96987 -2.37704 0
M  V30 16878 H 1580.08 4.02757 -2.94259 0
M  V30 16879 H 1579.24 5.88142 -1.4891 0
M  V30 16880 H 1577.98 4.80754 -0.820181 0
M  V30 16881 H 1576.98 4.53466 -3.10883 0
M  V30 16882 H 1578.21 5.64301 -3.77811 0
M  V30 16883 H 1576.15 6.34956 -1.64823 0
M  V30 16884 H 1576.07 6.79093 -3.32217 0
M  V30 16885 H 1577.34 7.43996 -2.32573 0
M  V30 16886 N 1581.57 1.13606 1.09231 0
M  V30 16887 C 1582.81 0.910333 1.81891 0
M  V30 16888 C 1583.17 -0.557482 1.84146 0
M  V30 16889 O 1582.46 -1.40735 1.30016 0
M  V30 16890 C 1582.66 1.43456 3.27345 0
M  V30 16891 C 1582.48 2.95182 3.39261 0
M  V30 16892 C 1581.25 3.63546 3.50945 0
M  V30 16893 C 1583.45 3.93105 3.31621 0
M  V30 16894 N 1581.43 5.03265 3.51564 0
M  V30 16895 C 1582.81 5.19026 3.39133 0
M  V30 16896 C 1584.86 3.85343 3.15302 0
M  V30 16897 C 1583.56 6.38094 3.32007 0
M  V30 16898 C 1585.59 5.03947 3.09502 0
M  V30 16899 C 1584.95 6.28733 3.17608 0
M  V30 16900 H 1581.05 0.386545 0.679785 0
M  V30 16901 H 1583.63 1.44465 1.30529 0
M  V30 16902 H 1581.81 0.927132 3.77172 0
M  V30 16903 H 1583.54 1.14962 3.88028 0
M  V30 16904 H 1580.29 3.14072 3.54479 0
M  V30 16905 H 1580.72 5.76179 3.55453 0
M  V30 16906 H 1585.36 2.8975 3.07904 0
M  V30 16907 H 1583.08 7.3394 3.38168 0
M  V30 16908 H 1586.66 4.99683 2.98008 0
M  V30 16909 H 1585.54 7.18967 3.13139 0
M  V30 16910 N 1583.05 -1.27244 0.929878 0
M  V30 16911 C 1583.98 -2.25097 0.375024 0
M  V30 16912 C 1584.96 -1.53726 -0.529833 0
M  V30 16913 O 1586.14 -1.82551 -0.469846 0
M  V30 16914 C 1583.27 -3.35531 -0.462271 0
M  V30 16915 C 1582.31 -4.24809 0.379462 0
M  V30 16916 S 1583.15 -5.04471 1.79637 0
M  V30 16917 C 1584.3 -6.18388 0.966815 0
M  V30 16918 H 1584.54 -2.71813 1.20436 0
M  V30 16919 H 1582.07 -1.35934 0.732211 0
M  V30 16920 H 1584.03 -3.99605 -0.939489 0
M  V30 16921 H 1582.69 -2.87449 -1.26616 0
M  V30 16922 H 1581.88 -5.03321 -0.261515 0
M  V30 16923 H 1581.48 -3.65541 0.790935 0
M  V30 16924 H 1583.77 -6.77193 0.203821 0
M  V30 16925 H 1584.72 -6.86767 1.72502 0
M  V30 16926 H 1585.13 -5.62211 0.507864 0
M  V30 16927 N 1584.52 -0.695628 -1.41417 0
M  V30 16928 C 1585.49 -0.0392949 -2.29166 0
M  V30 16929 C 1586.49 0.70789 -1.4438 0
M  V30 16930 O 1587.68 0.542771 -1.65528 0
M  V30 16931 C 1584.81 0.954719 -3.27258 0
M  V30 16932 H 1586 -0.811902 -2.88701 0
M  V30 16933 H 1583.55 -0.459128 -1.49405 0
M  V30 16934 H 1584.29 1.75509 -2.72703 0
M  V30 16935 H 1584.07 0.422079 -3.89822 0
M  V30 16936 H 1585.56 1.41174 -3.93014 0
M  V30 16937 N 1586 1.51322 -0.440383 0
M  V30 16938 C 1587.41 1.86687 0.0220272 0
M  V30 16939 C 1587.76 1.35734 1.41671 0
M  V30 16940 O 1586.89 0.709408 2.04442 0
M  V30 16941 C 1587.48 3.38768 0.0467477 0
M  V30 16942 C 1586.04 3.73657 0.45358 0
M  V30 16943 C 1585.19 2.7506 -0.351779 0
M  V30 16944 H 1588.14 1.44503 -0.65609 0
M  V30 16945 H 1588.16 3.70756 0.855589 0
M  V30 16946 H 1587.67 3.75823 -0.968451 0
M  V30 16947 H 1585.77 3.42193 1.47427 0
M  V30 16948 H 1585.89 4.78776 0.176262 0
M  V30 16949 H 1584.25 2.53988 0.190334 0
M  V30 16950 H 1585.03 3.14957 -1.36591 0
M  V30 16951 N 1587.48 0.171848 1.5666 0
M  V30 16952 C 1588.39 -0.770721 2.21579 0
M  V30 16953 C 1589.41 -1.25273 1.20759 0
M  V30 16954 O 1590.58 -1.30474 1.53422 0
M  V30 16955 C 1587.65 -1.98256 2.84422 0
M  V30 16956 C 1586.71 -1.54738 4.00443 0
M  V30 16957 C 1585.94 -2.70145 4.6028 0
M  V30 16958 O 1586.16 -3.87026 4.19007 0
M  V30 16959 O 1585.1 -2.44189 5.50141 0
M  V30 16960 H 1588.92 -0.247974 3.02686 0
M  V30 16961 H 1586.51 -0.0563734 1.49294 0
M  V30 16962 H 1588.39 -2.69127 3.24266 0
M  V30 16963 H 1587.07 -2.49435 2.0631 0
M  V30 16964 H 1585.97 -0.808152 3.65267 0
M  V30 16965 H 1587.31 -1.08249 4.80149 0
M  V30 16966 N 1588.96 -1.5727 -0.101874 0
M  V30 16967 C 1590.19 -1.89943 -0.820329 0
M  V30 16968 C 1590.6 -0.764867 -1.72613 0
M  V30 16969 O 1589.96 0.263499 -1.80588 0
M  V30 16970 C 1590.01 -3.2219 -1.63939 0
M  V30 16971 O 1589.73 -4.31279 -0.770039 0
M  V30 16972 C 1591.23 -3.6868 -2.46151 0
M  V30 16973 H 1588.45 -0.628532 -0.234922 0
M  V30 16974 H 1590.99 -2.04339 -0.0811362 0
M  V30 16975 H 1589.15 -3.09411 -2.33117 0
M  V30 16976 H 1589.56 -5.07182 -1.33665 0
M  V30 16977 H 1591.04 -4.63928 -2.99124 0
M  V30 16978 H 1591.51 -2.96183 -3.24303 0
M  V30 16979 H 1592.12 -3.84303 -1.82185 0
M  V30 16980 N 1590.44 0.372521 -1.53134 0
M  V30 16981 C 1591.68 1.11316 -1.68201 0
M  V30 16982 C 1592 1.90662 -0.436714 0
M  V30 16983 O 1593.2 2.67439 -0.467802 0
M  V30 16984 C 1591.66 2.02808 -2.97317 0
M  V30 16985 C 1591.27 1.28806 -4.29084 0
M  V30 16986 C 1593.01 2.76906 -3.2175 0
M  V30 16987 C 1590.92 2.19159 -5.49294 0
M  V30 16988 H 1589.85 0.419264 -0.626685 0
M  V30 16989 H 1592.5 0.374677 -1.79634 0
M  V30 16990 H 1590.88 2.80359 -2.79669 0
M  V30 16991 H 1592.06 0.563661 -4.5734 0
M  V30 16992 H 1590.37 0.665989 -4.1104 0
M  V30 16993 H 1592.97 3.44721 -4.08744 0
M  V30 16994 H 1593.31 3.41894 -2.37517 0
M  V30 16995 H 1593.84 2.06441 -3.4004 0
M  V30 16996 H 1590.58 1.5876 -6.35984 0
M  V30 16997 H 1590.1 2.89468 -5.25327 0
M  V30 16998 H 1591.78 2.78874 -5.83814 0
M  V30 16999 N 1591.91 1.44376 0.631925 0
M  V30 17000 C 1593.16 1.47117 1.3915 0
M  V30 17001 C 1593.49 0.10347 1.94225 0
M  V30 17002 O 1592.74 -0.894623 1.74055 0
M  V30 17003 C 1593.04 2.47828 2.57519 0
M  V30 17004 C 1592.71 3.93174 2.20738 0
M  V30 17005 C 1591.37 4.32755 2.1042 0
M  V30 17006 C 1593.72 4.8468 1.91664 0
M  V30 17007 C 1591.05 5.61768 1.69214 0
M  V30 17008 C 1593.4 6.14079 1.51951 0
M  V30 17009 C 1592.07 6.52616 1.40174 0
M  V30 17010 H 1591.34 0.538341 0.509186 0
M  V30 17011 H 1593.98 1.77584 0.716663 0
M  V30 17012 H 1592.29 2.10841 3.30232 0
M  V30 17013 H 1593.99 2.47196 3.15746 0
M  V30 17014 H 1590.58 3.61859 2.29687 0
M  V30 17015 H 1594.76 4.54855 1.98546 0
M  V30 17016 H 1590.02 5.90444 1.58699 0
M  V30 17017 H 1594.19 6.84443 1.28493 0
M  V30 17018 H 1591.82 7.52487 1.08017 0
M  V30 17019 N 1593.39 -0.872258 1.31261 0
M  V30 17020 C 1594.67 -1.60739 1.11456 0
M  V30 17021 C 1595.05 -2.0848 -0.331569 0
M  V30 17022 O 1594.4 -1.86141 -1.32528 0
M  V30 17023 C 1594.61 -2.76714 2.12674 0
M  V30 17024 C 1595.95 -3.46734 2.45074 0
M  V30 17025 O 1596.98 -2.86919 2.11083 0
M  V30 17026 O 1595.84 -4.54632 3.0327 0
M  V30 17027 H 1592.93 -0.70707 0.428929 0
M  V30 17028 H 1595.48 -0.917922 1.42732 0
M  V30 17029 H 1594.25 -2.38834 3.09958 0
M  V30 17030 H 1593.87 -3.5335 1.8229 0
M  V30 17031 N 1594.87 -1.14184 -1.08627 0
M  V30 17032 C 1596.29 -0.881757 -1.33031 0
M  V30 17033 C 1596.49 0.478313 -1.95741 0
M  V30 17034 O 1595.54 1.22308 -2.209 0
M  V30 17035 C 1596.85 -2.01274 -2.23404 0
M  V30 17036 C 1598.4 -2.04578 -2.3689 0
M  V30 17037 C 1598.88 -3.16962 -3.30604 0
M  V30 17038 N 1600.37 -3.16526 -3.3818 0
M  V30 17039 C 1601.1 -4.00124 -4.10716 0
M  V30 17040 N 1600.6 -4.93757 -4.8598 0
M  V30 17041 N 1602.39 -3.88193 -4.06525 0
M  V30 17042 H 1594.54 -2.01787 -0.663017 0
M  V30 17043 H 1596.81 -0.879152 -0.354677 0
M  V30 17044 H 1596.51 -2.9938 -1.84566 0
M  V30 17045 H 1596.39 -1.93393 -3.2385 0
M  V30 17046 H 1598.77 -1.0708 -2.74987 0
M  V30 17047 H 1598.85 -2.16529 -1.36194 0
M  V30 17048 H 1598.5 -4.14704 -2.93228 0
M  V30 17049 H 1598.43 -3.02248 -4.31223 0
M  V30 17050 H 1600.92 -2.48708 -2.84522 0
M  V30 17051 H 1601.23 -5.54015 -5.38783 0
M  V30 17052 H 1599.58 -4.97756 -4.8504 0
M  V30 17053 H 1602.77 -3.14365 -3.46831 0
M  V30 17054 H 1602.94 -4.53571 -4.62793 0
M  V30 17055 N 1596.35 1.26749 -0.936613 0
M  V30 17056 C 1597.59 1.94251 -0.582616 0
M  V30 17057 C 1597.93 1.73352 0.875361 0
M  V30 17058 O 1597.2 1.06784 1.62565 0
M  V30 17059 C 1597.49 3.48145 -0.920151 0
M  V30 17060 C 1597.34 3.78349 -2.43253 0
M  V30 17061 C 1598.66 4.37971 -0.432326 0
M  V30 17062 H 1595.78 0.705507 -0.213141 0
M  V30 17063 H 1598.42 1.49703 -1.17001 0
M  V30 17064 H 1596.57 3.8622 -0.420279 0
M  V30 17065 H 1598.24 3.50015 -3.00478 0
M  V30 17066 H 1596.48 3.24586 -2.87795 0
M  V30 17067 H 1597.15 4.85902 -2.61922 0
M  V30 17068 H 1599.63 4.07098 -0.860857 0
M  V30 17069 H 1598.51 5.44452 -0.697366 0
M  V30 17070 H 1598.77 4.37029 0.667694 0
M  V30 17071 N 1597.83 0.703118 1.41046 0
M  V30 17072 C 1599.06 0.246194 2.05128 0
M  V30 17073 C 1599.46 -1.11245 1.5304 0
M  V30 17074 O 1598.81 -1.70783 0.676678 0
M  V30 17075 C 1598.87 0.134596 3.59248 0
M  V30 17076 C 1598.53 1.4265 4.34166 0
M  V30 17077 C 1599.53 2.3659 4.62948 0
M  V30 17078 C 1597.22 1.68196 4.73303 0
M  V30 17079 C 1599.21 3.54332 5.29837 0
M  V30 17080 C 1596.9 2.86223 5.39926 0
M  V30 17081 C 1597.89 3.79114 5.68121 0
M  V30 17082 O 1597.58 4.95072 6.33371 0
M  V30 17083 H 1597.31 0.110667 0.66688 0
M  V30 17084 H 1599.87 0.958407 1.81669 0
M  V30 17085 H 1598.1 -0.633453 3.81476 0
M  V30 17086 H 1599.79 -0.286131 4.0489 0
M  V30 17087 H 1600.55 2.18113 4.33188 0
M  V30 17088 H 1596.43 0.96753 4.50733 0
M  V30 17089 H 1599.98 4.26855 5.51762 0
M  V30 17090 H 1595.87 3.04614 5.69105 0
M  V30 17091 H 1596.64 4.94986 6.51868 0
M  V30 17092 N 1599.3 -1.51086 0.448402 0
M  V30 17093 C 1600.53 -2.06593 -0.112695 0
M  V30 17094 C 1600.95 -1.31471 -1.35502 0
M  V30 17095 O 1600.3 -0.377406 -1.78555 0
M  V30 17096 C 1600.36 -3.59008 -0.423769 0
M  V30 17097 O 1600.08 -4.31293 0.769259 0
M  V30 17098 C 1601.58 -4.31064 -1.03433 0
M  V30 17099 H 1598.8 -0.670993 -0.00301626 0
M  V30 17100 H 1601.34 -1.94532 0.630667 0
M  V30 17101 H 1599.5 -3.70946 -1.11704 0
M  V30 17102 H 1599.91 -5.2211 0.500162 0
M  V30 17103 H 1601.38 -5.38756 -1.20191 0
M  V30 17104 H 1601.86 -3.90075 -2.01837 0
M  V30 17105 H 1602.47 -4.23598 -0.380115 0
M  V30 17106 N 1600.78 -0.180154 -1.56567 0
M  V30 17107 C 1602.03 0.462656 -1.96322 0
M  V30 17108 C 1602.34 1.63788 -1.06925 0
M  V30 17109 O 1603.55 2.34751 -1.36398 0
M  V30 17110 C 1602.01 0.874492 -3.49114 0
M  V30 17111 C 1601.61 -0.27562 -4.47151 0
M  V30 17112 C 1603.36 1.48522 -3.9767 0
M  V30 17113 C 1601.27 0.156341 -5.91193 0
M  V30 17114 H 1600.2 0.176619 -0.733022 0
M  V30 17115 H 1602.85 -0.269793 -1.81506 0
M  V30 17116 H 1601.23 1.66318 -3.59381 0
M  V30 17117 H 1602.4 -1.05304 -4.48606 0
M  V30 17118 H 1600.72 -0.796878 -4.08704 0
M  V30 17119 H 1603.31 1.8206 -5.02751 0
M  V30 17120 H 1603.66 2.38634 -3.41115 0
M  V30 17121 H 1604.19 0.760806 -3.90457 0
M  V30 17122 H 1600.93 -0.710221 -6.51641 0
M  V30 17123 H 1600.45 0.898933 -5.93025 0
M  V30 17124 H 1602.13 0.597228 -6.44238 0
M  V30 17125 N 1602.26 1.57322 0.0935319 0
M  V30 17126 C 1603.19 1.98861 1.13961 0
M  V30 17127 C 1604.21 0.891385 1.36228 0
M  V30 17128 O 1605.39 1.16949 1.34853 0
M  V30 17129 C 1602.49 2.29369 2.49485 0
M  V30 17130 C 1601.67 3.6066 2.47473 0
M  V30 17131 C 1600.73 3.79087 3.64937 0
M  V30 17132 O 1599.75 4.50923 3.47357 0
M  V30 17133 N 1600.95 3.19784 4.84478 0
M  V30 17134 H 1603.72 2.89208 0.786048 0
M  V30 17135 H 1601.28 1.59416 0.282491 0
M  V30 17136 H 1603.27 2.38889 3.26671 0
M  V30 17137 H 1601.84 1.45021 2.76925 0
M  V30 17138 H 1601.06 3.62095 1.55823 0
M  V30 17139 H 1602.35 4.46908 2.43209 0
M  V30 17140 H 1601.75 2.61436 5.01665 0
M  V30 17141 H 1600.31 3.34786 5.59251 0
M  V30 17142 N 1603.74 -0.364395 1.53329 0
M  V30 17143 C 1604.96 -1.13196 1.73786 0
M  V30 17144 C 1605.39 -1.82231 0.466224 0
M  V30 17145 O 1604.75 -1.71778 -0.579817 0
M  V30 17146 C 1604.79 -2.13704 2.90453 0
M  V30 17147 O 1603.9 -3.20808 2.59144 0
M  V30 17148 H 1603.24 -0.328387 0.577112 0
M  V30 17149 H 1605.77 -0.421157 2.00218 0
M  V30 17150 H 1605.78 -2.57285 3.16652 0
M  V30 17151 H 1604.45 -1.6285 3.82691 0
M  V30 17152 H 1603.03 -2.82192 2.43767 0
M  V30 17153 N 1605.22 -1.44709 -0.62426 0
M  V30 17154 C 1606.49 -1.38328 -1.38292 0
M  V30 17155 C 1606.87 -0.0454388 -2.11051 0
M  V30 17156 O 1606.22 0.972183 -2.06787 0
M  V30 17157 C 1606.43 -2.58602 -2.34364 0
M  V30 17158 C 1607.78 -3.02966 -2.97484 0
M  V30 17159 O 1608.8 -2.58856 -2.44688 0
M  V30 17160 O 1607.66 -3.79466 -3.93278 0
M  V30 17161 H 1604.76 -0.54812 -0.619269 0
M  V30 17162 H 1607.3 -1.5681 -0.648741 0
M  V30 17163 H 1606.07 -3.47573 -1.79746 0
M  V30 17164 H 1605.7 -2.42368 -3.15188 0
M  V30 17165 N 1606.69 0.865285 -1.31722 0
M  V30 17166 C 1607.94 1.62108 -1.21855 0
M  V30 17167 C 1608.27 1.9293 0.221714 0
M  V30 17168 O 1607.55 1.56423 1.15595 0
M  V30 17169 C 1607.83 2.94828 -2.06756 0
M  V30 17170 C 1607.68 2.70855 -3.59107 0
M  V30 17171 C 1609 3.95983 -1.92055 0
M  V30 17172 H 1606.12 0.588234 -0.444015 0
M  V30 17173 H 1608.76 0.999922 -1.6156 0
M  V30 17174 H 1606.91 3.47843 -1.73025 0
M  V30 17175 H 1608.59 2.24477 -4.02999 0
M  V30 17176 H 1606.83 2.05004 -3.82303 0
M  V30 17177 H 1607.5 3.65312 -4.13825 0
M  V30 17178 H 1609.98 3.52193 -2.21584 0
M  V30 17179 H 1608.85 4.86724 -2.53754 0
M  V30 17180 H 1609.11 4.33148 -0.885174 0
M  V30 17181 N 1608.17 1.14759 1.0802 0
M  V30 17182 C 1609.42 0.929574 1.80916 0
M  V30 17183 C 1609.77 -0.53792 1.84727 0
M  V30 17184 O 1609.07 -1.39348 1.31501 0
M  V30 17185 C 1609.26 1.4692 3.25805 0
M  V30 17186 C 1609.09 2.98763 3.36111 0
M  V30 17187 C 1607.86 3.67248 3.47069 0
M  V30 17188 C 1610.06 3.966 3.27433 0
M  V30 17189 N 1608.04 5.06965 3.46207 0
M  V30 17190 C 1609.41 5.22594 3.33609 0
M  V30 17191 C 1611.47 3.88665 3.11197 0
M  V30 17192 C 1610.17 6.41579 3.25221 0
M  V30 17193 C 1612.19 5.07201 3.0414 0
M  V30 17194 C 1611.56 6.32066 3.10921 0
M  V30 17195 H 1607.66 0.393733 0.675647 0
M  V30 17196 H 1610.24 1.45842 1.2899 0
M  V30 17197 H 1608.41 0.967084 3.76168 0
M  V30 17198 H 1610.14 1.19071 3.86787 0
M  V30 17199 H 1606.9 3.17815 3.51128 0
M  V30 17200 H 1607.32 5.79917 3.49322 0
M  V30 17201 H 1611.96 2.93 3.04813 0
M  V30 17202 H 1609.68 7.37485 3.30365 0
M  V30 17203 H 1613.27 5.02815 2.92691 0
M  V30 17204 H 1612.15 7.22248 3.05495 0
M  V30 17205 N 1609.65 -1.26251 0.943322 0
M  V30 17206 C 1610.88 -1.98278 0.608341 0
M  V30 17207 C 1611.3 -1.69756 -0.810208 0
M  V30 17208 O 1610.66 -0.946846 -1.54611 0
M  V30 17209 C 1610.71 -3.50205 0.859591 0
M  V30 17210 O 1609.81 -4.12345 -0.0672371 0
M  V30 17211 H 1609.15 -0.621973 0.232477 0
M  V30 17212 H 1611.68 -1.60662 1.26684 0
M  V30 17213 H 1611.69 -4.00449 0.781341 0
M  V30 17214 H 1610.37 -3.70294 1.89354 0
M  V30 17215 H 1608.94 -3.72848 0.0622543 0
M  V30 17216 N 1611.13 -0.710588 -1.40671 0
M  V30 17217 C 1612.38 -0.247949 -2.00976 0
M  V30 17218 C 1612.7 1.15725 -1.56327 0
M  V30 17219 O 1611.96 1.79826 -0.77208 0
M  V30 17220 C 1612.26 -0.270478 -3.56375 0
M  V30 17221 C 1611.92 -1.62528 -4.2059 0
M  V30 17222 C 1610.59 -1.99614 -4.37844 0
M  V30 17223 C 1612.94 -2.51591 -4.56455 0
M  V30 17224 C 1610.27 -3.2532 -4.88246 0
M  V30 17225 C 1612.62 -3.76644 -5.08254 0
M  V30 17226 C 1611.28 -4.13855 -5.23718 0
M  V30 17227 H 1610.55 -0.0907308 -0.735424 0
M  V30 17228 H 1613.2 -0.912636 -1.68354 0
M  V30 17229 H 1611.5 0.477777 -3.88876 0
M  V30 17230 H 1613.2 0.105243 -4.00862 0
M  V30 17231 H 1609.79 -1.32686 -4.07544 0
M  V30 17232 H 1613.98 -2.24215 -4.42766 0
M  V30 17233 H 1609.23 -3.54125 -4.98403 0
M  V30 17234 H 1613.41 -4.45832 -5.34983 0
M  V30 17235 H 1611.03 -5.1133 -5.62535 0
M  V30 17236 N 1612.61 1.50847 -0.456408 0
M  V30 17237 C 1613.86 2.01835 0.103414 0
M  V30 17238 C 1614.18 1.34142 1.4153 0
M  V30 17239 O 1613.45 0.482015 1.89877 0
M  V30 17240 H 1612.03 0.745863 0.0412074 0
M  V30 17241 H 1614.69 1.85322 -0.603477 0
M  V30 17242 H 1613.78 3.10968 0.265562 0
M  V30 17243 N 1614.09 0.188454 1.56469 0
M  V30 17244 C 1615.33 -0.452728 1.97682 0
M  V30 17245 C 1615.66 -1.61729 1.07506 0
M  V30 17246 O 1614.94 -1.94094 0.125677 0
M  V30 17247 C 1615.22 -0.919257 3.48169 0
M  V30 17248 C 1615.08 0.246656 4.49123 0
M  V30 17249 C 1616.39 -1.78706 4.02184 0
M  V30 17250 H 1613.51 -0.16309 0.718729 0
M  V30 17251 H 1616.16 0.27804 1.87955 0
M  V30 17252 H 1614.31 -1.54195 3.5659 0
M  V30 17253 H 1615.98 0.884178 4.52747 0
M  V30 17254 H 1614.22 0.89948 4.24372 0
M  V30 17255 H 1614.89 -0.122179 5.51865 0
M  V30 17256 H 1617.37 -1.26196 3.96502 0
M  V30 17257 H 1616.24 -2.08247 5.07863 0
M  V30 17258 H 1616.5 -2.73891 3.47039 0
M  V30 17259 N 1615.56 -1.5737 -0.0851874 0
M  V30 17260 C 1616.49 -2.05796 -1.10319 0
M  V30 17261 C 1617.47 -0.948796 -1.4118 0
M  V30 17262 O 1618.66 -1.22069 -1.51039 0
M  V30 17263 C 1615.79 -2.49069 -2.42037 0
M  V30 17264 C 1614.74 -3.6374 -2.25561 0
M  V30 17265 C 1614.07 -3.93023 -3.62543 0
M  V30 17266 C 1615.37 -4.94274 -1.68793 0
M  V30 17267 H 1617.06 -2.91095 -0.700274 0
M  V30 17268 H 1614.61 -1.40039 -0.335405 0
M  V30 17269 H 1616.56 -2.81558 -3.13534 0
M  V30 17270 H 1615.29 -1.60781 -2.84283 0
M  V30 17271 H 1613.95 -3.31513 -1.56507 0
M  V30 17272 H 1613.59 -3.01887 -4.02335 0
M  V30 17273 H 1613.29 -4.70229 -3.52362 0
M  V30 17274 H 1614.82 -4.27995 -4.35491 0
M  V30 17275 H 1616.23 -5.25079 -2.30141 0
M  V30 17276 H 1614.63 -5.75711 -1.69344 0
M  V30 17277 H 1615.7 -4.80548 -0.648204 0
M  V30 17278 N 1617.04 0.356258 -1.53521 0
M  V30 17279 C 1617.97 1.44271 -1.83598 0
M  V30 17280 C 1618.95 1.5547 -0.690141 0
M  V30 17281 O 1620.14 1.69886 -0.940868 0
M  V30 17282 C 1617.27 2.8149 -2.03422 0
M  V30 17283 C 1616.22 2.85108 -3.19213 0
M  V30 17284 C 1615.55 4.25091 -3.24348 0
M  V30 17285 C 1616.85 2.51788 -4.57602 0
M  V30 17286 H 1618.54 1.1935 -2.74583 0
M  V30 17287 H 1616.09 0.572707 -1.32121 0
M  V30 17288 H 1618.04 3.57531 -2.23046 0
M  V30 17289 H 1616.76 3.07819 -1.09155 0
M  V30 17290 H 1615.42 2.1152 -2.99424 0
M  V30 17291 H 1615.07 4.4851 -2.277 0
M  V30 17292 H 1614.77 4.28426 -4.0215 0
M  V30 17293 H 1616.3 5.02992 -3.46167 0
M  V30 17294 H 1617.71 3.17542 -4.77326 0
M  V30 17295 H 1616.11 2.66426 -5.37715 0
M  V30 17296 H 1617.18 1.4701 -4.62078 0
M  V30 17297 N 1618.52 1.45038 0.616577 0
M  V30 17298 C 1619.77 1.49797 1.37595 0
M  V30 17299 C 1620.12 0.134243 1.91931 0
M  V30 17300 O 1619.41 -0.852613 1.71584 0
M  V30 17301 C 1619.61 2.50545 2.54876 0
M  V30 17302 C 1619.44 3.9658 2.12024 0
M  V30 17303 C 1618.21 4.64628 1.98618 0
M  V30 17304 C 1620.4 4.85377 1.70041 0
M  V30 17305 N 1618.39 5.95423 1.49481 0
M  V30 17306 C 1619.76 6.0573 1.32255 0
M  V30 17307 C 1621.81 4.72315 1.57552 0
M  V30 17308 C 1620.52 7.14469 0.832279 0
M  V30 17309 C 1622.54 5.81093 1.09929 0
M  V30 17310 C 1621.9 7.00596 0.731022 0
M  V30 17311 H 1618 0.603131 0.497752 0
M  V30 17312 H 1620.59 1.81456 0.70582 0
M  V30 17313 H 1618.76 2.20853 3.19497 0
M  V30 17314 H 1620.49 2.45508 3.21726 0
M  V30 17315 H 1617.24 4.1965 2.19524 0
M  V30 17316 H 1617.67 6.64949 1.2717 0
M  V30 17317 H 1622.31 3.80347 1.84652 0
M  V30 17318 H 1620.03 8.06234 0.548815 0
M  V30 17319 H 1623.61 5.73018 1.00704 0
M  V30 17320 H 1622.49 7.83335 0.368177 0
M  V30 17321 N 1620 -0.858287 1.32179 0
M  V30 17322 C 1620.91 -1.99894 1.228 0
M  V30 17323 C 1621.92 -1.73417 0.142323 0
M  V30 17324 O 1623.1 -1.98114 0.362321 0
M  V30 17325 C 1620.16 -3.33495 0.947745 0
M  V30 17326 C 1619.23 -3.73217 2.12149 0
M  V30 17327 C 1618.46 -5.00443 1.85452 0
M  V30 17328 O 1618.68 -5.64828 0.79531 0
M  V30 17329 O 1617.62 -5.3721 2.71457 0
M  V30 17330 H 1621.44 -2.10742 2.18682 0
M  V30 17331 H 1619.03 -0.988385 1.12033 0
M  V30 17332 H 1620.91 -4.13585 0.807791 0
M  V30 17333 H 1619.58 -3.23694 0.019053 0
M  V30 17334 H 1618.49 -2.93718 2.3169 0
M  V30 17335 H 1619.82 -3.87659 3.03285 0
M  V30 17336 N 1621.48 -1.1533 -1.07409 0
M  V30 17337 C 1622.72 -0.922348 -1.79376 0
M  V30 17338 C 1623.04 0.551929 -1.87652 0
M  V30 17339 O 1624.24 0.900444 -2.56133 0
M  V30 17340 C 1622.7 -1.60081 -3.22339 0
M  V30 17341 C 1622.31 -3.11206 -3.22265 0
M  V30 17342 C 1624.05 -1.45138 -3.98917 0
M  V30 17343 C 1621.96 -3.71842 -4.59878 0
M  V30 17344 H 1620.89 -0.341438 -0.672262 0
M  V30 17345 H 1623.54 -1.38336 -1.20562 0
M  V30 17346 H 1621.92 -1.06748 -3.81341 0
M  V30 17347 H 1623.1 -3.7129 -2.72911 0
M  V30 17348 H 1621.41 -3.25903 -2.59183 0
M  V30 17349 H 1624.01 -1.87832 -5.00623 0
M  V30 17350 H 1624.35 -0.398796 -4.14385 0
M  V30 17351 H 1624.88 -1.95564 -3.46409 0
M  V30 17352 H 1621.62 -4.76998 -4.49614 0
M  V30 17353 H 1621.14 -3.16541 -5.09472 0
M  V30 17354 H 1622.82 -3.72733 -5.28847 0
M  V30 17355 N 1622.95 1.25748 -0.950004 0
M  V30 17356 C 1624.2 1.93336 -0.602294 0
M  V30 17357 C 1624.53 1.74454 0.859994 0
M  V30 17358 O 1623.78 1.08032 1.6318 0
M  V30 17359 C 1624.08 3.45843 -0.901521 0
M  V30 17360 C 1623.75 3.84874 -2.3491 0
M  V30 17361 C 1622.41 3.9524 -2.74479 0
M  V30 17362 C 1624.76 4.04286 -3.28941 0
M  V30 17363 C 1622.09 4.22422 -4.07157 0
M  V30 17364 C 1624.44 4.32959 -4.61225 0
M  V30 17365 C 1623.11 4.41541 -5.00597 0
M  V30 17366 H 1622.38 0.707465 -0.220395 0
M  V30 17367 H 1625.02 1.49386 -1.19817 0
M  V30 17368 H 1623.33 3.91164 -0.2232 0
M  V30 17369 H 1625.03 3.96316 -0.611134 0
M  V30 17370 H 1621.62 3.77358 -2.03221 0
M  V30 17371 H 1625.8 3.95697 -2.99563 0
M  V30 17372 H 1621.06 4.27281 -4.37311 0
M  V30 17373 H 1625.23 4.46925 -5.3407 0
M  V30 17374 H 1622.86 4.62358 -6.03431 0
M  V30 17375 N 1624.43 0.718038 1.40292 0
M  V30 17376 C 1625.66 0.266918 2.05675 0
M  V30 17377 C 1626.08 -1.08364 1.53749 0
M  V30 17378 O 1625.44 -1.6831 0.673912 0
M  V30 17379 C 1625.49 0.259606 3.59664 0
M  V30 17380 O 1624.59 -0.758372 4.05367 0
M  V30 17381 H 1623.93 0.124786 0.652169 0
M  V30 17382 H 1626.46 0.979207 1.79646 0
M  V30 17383 H 1626.47 0.098135 4.07882 0
M  V30 17384 H 1625.15 1.24517 3.96823 0
M  V30 17385 H 1623.72 -0.564425 3.68604 0
M  V30 17386 N 1625.91 -1.50602 0.464402 0
M  V30 17387 C 1626.84 -2.31252 -0.323263 0
M  V30 17388 C 1627.82 -1.37856 -0.996476 0
M  V30 17389 O 1629.01 -1.66777 -0.994933 0
M  V30 17390 C 1626.14 -3.17414 -1.40945 0
M  V30 17391 C 1625.09 -4.19307 -0.858226 0
M  V30 17392 C 1624.42 -4.94164 -2.0422 0
M  V30 17393 C 1625.72 -5.22148 0.125921 0
M  V30 17394 H 1627.41 -2.97349 0.34983 0
M  V30 17395 H 1624.96 -1.42997 0.169685 0
M  V30 17396 H 1626.91 -3.72627 -1.96791 0
M  V30 17397 H 1625.63 -2.49189 -2.11122 0
M  V30 17398 H 1624.29 -3.65185 -0.321785 0
M  V30 17399 H 1623.94 -4.22417 -2.7308 0
M  V30 17400 H 1623.64 -5.63083 -1.67963 0
M  V30 17401 H 1625.16 -5.5221 -2.60569 0
M  V30 17402 H 1626.58 -5.72272 -0.343136 0
M  V30 17403 H 1624.98 -5.98749 0.402433 0
M  V30 17404 H 1626.05 -4.73307 1.05399 0
M  V30 17405 N 1627.39 -0.19675 -1.56367 0
M  V30 17406 C 1628.64 0.440711 -1.97236 0
M  V30 17407 C 1628.96 1.62037 -1.08485 0
M  V30 17408 O 1628.23 1.95274 -0.156483 0
M  V30 17409 H 1626.81 0.16581 -0.728365 0
M  V30 17410 H 1629.47 -0.283867 -1.92822 0
M  V30 17411 H 1628.57 0.783731 -3.02099 0
M  V30 17412 N 1628.87 1.57413 0.0768405 0
M  V30 17413 C 1629.83 2.02363 1.0762 0
M  V30 17414 C 1630.83 0.919879 1.3189 0
M  V30 17415 O 1632.02 1.18489 1.27695 0
M  V30 17416 C 1629.15 2.39995 2.42106 0
M  V30 17417 H 1630.34 2.91881 0.688889 0
M  V30 17418 H 1627.9 1.52938 0.322422 0
M  V30 17419 H 1628.63 1.53488 2.85678 0
M  V30 17420 H 1628.42 3.20534 2.25833 0
M  V30 17421 H 1629.91 2.75365 3.13948 0
M  V30 17422 N 1630.34 -0.348112 1.53707 0
M  V30 17423 C 1631.57 -1.11346 1.74976 0
M  V30 17424 C 1631.99 -1.81726 0.485525 0
M  V30 17425 O 1631.35 -1.72384 -0.561565 0
M  V30 17426 C 1631.4 -2.10611 2.92703 0
M  V30 17427 O 1630.5 -3.18042 2.62532 0
M  V30 17428 H 1629.85 -0.322247 0.580563 0
M  V30 17429 H 1632.38 -0.399898 2.00654 0
M  V30 17430 H 1632.39 -2.53912 3.19363 0
M  V30 17431 H 1631.06 -1.58782 3.84397 0
M  V30 17432 H 1629.64 -2.79591 2.46746 0
M  V30 17433 N 1631.82 -1.45363 -0.608876 0
M  V30 17434 C 1633.23 -1.43794 -1.19081 0
M  V30 17435 C 1633.58 -0.164874 -1.95506 0
M  V30 17436 O 1632.71 0.733623 -2.03585 0
M  V30 17437 C 1633.3 -2.60506 -2.16615 0
M  V30 17438 C 1631.86 -2.62061 -2.70187 0
M  V30 17439 C 1631.01 -2.36018 -1.4557 0
M  V30 17440 H 1633.96 -1.53622 -0.39826 0
M  V30 17441 H 1633.98 -2.34531 -2.99625 0
M  V30 17442 H 1633.49 -3.53147 -1.60963 0
M  V30 17443 H 1631.6 -1.73423 -3.2978 0
M  V30 17444 H 1631.71 -3.61242 -3.14708 0
M  V30 17445 H 1630.07 -1.8555 -1.74481 0
M  V30 17446 H 1630.86 -3.30802 -0.917884 0
M  V30 17447 N 1633.3 0.851265 -1.32632 0
M  V30 17448 C 1634.53 1.63568 -1.26211 0
M  V30 17449 C 1634.94 1.8842 0.171578 0
M  V30 17450 O 1634.28 1.45592 1.12021 0
M  V30 17451 C 1634.34 3.01653 -1.95566 0
M  V30 17452 C 1634.01 2.99827 -3.44896 0
M  V30 17453 C 1635 2.76431 -4.4032 0
M  V30 17454 C 1632.69 3.20355 -3.86883 0
M  V30 17455 C 1634.68 2.73572 -5.75706 0
M  V30 17456 C 1632.37 3.17122 -5.22376 0
M  V30 17457 C 1633.37 2.9376 -6.16599 0
M  V30 17458 O 1633.06 2.90408 -7.49612 0
M  V30 17459 H 1632.79 0.516079 -0.436622 0
M  V30 17460 H 1635.34 1.06941 -1.75365 0
M  V30 17461 H 1633.57 3.60083 -1.40986 0
M  V30 17462 H 1635.26 3.62403 -1.82809 0
M  V30 17463 H 1636.03 2.60335 -4.09208 0
M  V30 17464 H 1631.91 3.37563 -3.13962 0
M  V30 17465 H 1635.45 2.55257 -6.49222 0
M  V30 17466 H 1631.35 3.32764 -5.53117 0
M  V30 17467 H 1632.12 3.06338 -7.59012 0
M  V30 17468 N 1634.78 1.15898 1.06796 0
M  V30 17469 C 1636.19 0.945837 1.60968 0
M  V30 17470 C 1636.54 -0.511507 1.89415 0
M  V30 17471 O 1635.67 -1.38372 1.66379 0
M  V30 17472 C 1636.26 1.71054 2.92448 0
M  V30 17473 C 1634.82 1.54252 3.43341 0
M  V30 17474 C 1633.97 1.72253 2.17311 0
M  V30 17475 H 1636.92 1.30842 0.898118 0
M  V30 17476 H 1636.94 1.18336 3.61631 0
M  V30 17477 H 1636.45 2.77117 2.71712 0
M  V30 17478 H 1634.55 0.506082 3.69147 0
M  V30 17479 H 1634.66 2.32314 4.19007 0
M  V30 17480 H 1633.03 1.14952 2.27284 0
M  V30 17481 H 1633.81 2.79693 1.99064 0
M  V30 17482 N 1636.26 -1.25243 0.956659 0
M  V30 17483 C 1637.5 -1.92632 0.611328 0
M  V30 17484 C 1637.83 -1.75272 -0.85467 0
M  V30 17485 O 1637.1 -1.11758 -1.60894 0
M  V30 17486 H 1635.68 -0.712904 0.223109 0
M  V30 17487 H 1638.34 -1.52366 1.21534 0
M  V30 17488 H 1637.43 -3.00516 0.842396 0
M  V30 17489 N 1637.73 -0.725468 -1.3991 0
M  V30 17490 C 1638.98 -0.26965 -2.00999 0
M  V30 17491 C 1639.31 1.13727 -1.57416 0
M  V30 17492 O 1638.59 1.77345 -0.798693 0
M  V30 17493 C 1638.87 -0.360784 -3.58288 0
M  V30 17494 C 1638.72 -1.80679 -4.11916 0
M  V30 17495 C 1640.04 0.262328 -4.39317 0
M  V30 17496 H 1637.16 -0.0994547 -0.730259 0
M  V30 17497 H 1639.8 -0.91983 -1.6625 0
M  V30 17498 H 1637.95 0.192779 -3.88021 0
M  V30 17499 H 1639.63 -2.4165 -3.92942 0
M  V30 17500 H 1637.87 -2.33127 -3.65834 0
M  V30 17501 H 1638.54 -1.82189 -5.21068 0
M  V30 17502 H 1641.02 -0.209452 -4.15573 0
M  V30 17503 H 1639.89 0.168166 -5.48642 0
M  V30 17504 H 1640.15 1.34716 -4.21075 0
M  V30 17505 N 1639.21 1.50354 -0.472382 0
M  V30 17506 C 1640.16 2.28555 0.321118 0
M  V30 17507 C 1641.13 1.33665 0.98605 0
M  V30 17508 O 1642.31 1.62603 0.998239 0
M  V30 17509 C 1639.45 3.15586 1.39641 0
M  V30 17510 C 1638.57 4.25508 0.746129 0
M  V30 17511 C 1637.7 4.99794 1.79943 0
M  V30 17512 C 1636.74 6.01589 1.12946 0
M  V30 17513 N 1635.88 6.69149 2.12567 0
M  V30 17514 H 1640.72 2.95913 -0.352051 0
M  V30 17515 H 1638.26 1.45926 -0.185461 0
M  V30 17516 H 1640.21 3.64397 2.03152 0
M  V30 17517 H 1638.84 2.50271 2.03873 0
M  V30 17518 H 1637.9 3.804 -0.00157718 0
M  V30 17519 H 1639.21 4.98326 0.217335 0
M  V30 17520 H 1638.36 5.5233 2.51031 0
M  V30 17521 H 1637.1 4.26684 2.36203 0
M  V30 17522 H 1636.11 5.48312 0.404207 0
M  V30 17523 H 1637.33 6.76672 0.573735 0
M  V30 17524 H 1635.28 5.9883 2.67841 0
M  V30 17525 H 1635.19 7.37847 1.64676 0
M  V30 17526 H 1636.46 7.26301 2.83031 0
M  V30 17527 N 1640.69 0.205039 1.56261 0
M  V30 17528 C 1641.94 -0.431364 1.97033 0
M  V30 17529 C 1642.25 -1.62066 1.09517 0
M  V30 17530 O 1643.46 -2.32551 1.40116 0
M  V30 17531 C 1641.92 -0.818841 3.50461 0
M  V30 17532 C 1641.52 0.346723 4.46656 0
M  V30 17533 C 1643.27 -1.42177 3.99982 0
M  V30 17534 C 1641.17 -0.0622677 5.91367 0
M  V30 17535 H 1640.1 -0.164934 0.73574 0
M  V30 17536 H 1642.76 0.298635 1.81054 0
M  V30 17537 H 1641.14 -1.60579 3.61981 0
M  V30 17538 H 1642.31 1.12427 4.46874 0
M  V30 17539 H 1640.63 0.861799 4.07384 0
M  V30 17540 H 1643.22 -1.74039 5.05583 0
M  V30 17541 H 1643.57 -2.33177 3.44868 0
M  V30 17542 H 1644.1 -0.698591 3.91618 0
M  V30 17543 H 1640.84 0.813802 6.50429 0
M  V30 17544 H 1640.36 -0.804474 5.94381 0
M  V30 17545 H 1642.04 -0.49466 6.45106 0
M  V30 17546 N 1642.17 -1.57451 -0.0684915 0
M  V30 17547 C 1643.45 -1.78483 -0.800209 0
M  V30 17548 C 1643.83 -0.793438 -1.95621 0
M  V30 17549 O 1643.17 0.172756 -2.27846 0
M  V30 17550 C 1643.38 -3.25069 -1.27008 0
M  V30 17551 C 1644.73 -3.8899 -1.70212 0
M  V30 17552 O 1645.76 -3.2898 -1.36566 0
M  V30 17553 O 1644.62 -4.94569 -2.32515 0
M  V30 17554 H 1641.71 -0.732598 -0.383704 0
M  V30 17555 H 1644.26 -1.69631 -0.0483117 0
M  V30 17556 H 1643.03 -3.88784 -0.443067 0
M  V30 17557 H 1642.65 -3.38657 -2.08319 0
M  V30 17558 N 1643.65 0.339955 -1.5389 0
M  V30 17559 C 1644.56 1.441 -1.85128 0
M  V30 17560 C 1645.57 1.57399 -0.741733 0
M  V30 17561 O 1646.75 1.72807 -1.0344 0
M  V30 17562 C 1643.81 2.7904 -2.05761 0
M  V30 17563 C 1642.88 2.75055 -3.29611 0
M  V30 17564 C 1642.11 4.0356 -3.4925 0
M  V30 17565 O 1642.33 5.01015 -2.72653 0
M  V30 17566 O 1641.27 4.07813 -4.42687 0
M  V30 17567 H 1645.09 1.20616 -2.78721 0
M  V30 17568 H 1642.68 0.532468 -1.39589 0
M  V30 17569 H 1644.56 3.5895 -2.20756 0
M  V30 17570 H 1643.23 3.02447 -1.15357 0
M  V30 17571 H 1642.14 1.93753 -3.20016 0
M  V30 17572 H 1643.47 2.56602 -4.20019 0
M  V30 17573 N 1645.13 1.45684 0.601159 0
M  V30 17574 C 1646.04 1.57396 1.73965 0
M  V30 17575 C 1647.05 0.458133 1.6786 0
M  V30 17576 O 1648.23 0.719717 1.88101 0
M  V30 17577 C 1645.29 1.54363 3.1044 0
M  V30 17578 C 1644.35 2.77034 3.27949 0
M  V30 17579 C 1643.59 2.74136 4.57914 0
M  V30 17580 O 1643.81 1.81829 5.40643 0
M  V30 17581 O 1642.74 3.65428 4.78274 0
M  V30 17582 H 1646.57 2.5364 1.67034 0
M  V30 17583 H 1644.15 1.28267 0.766017 0
M  V30 17584 H 1646.04 1.55302 3.91739 0
M  V30 17585 H 1644.71 0.612723 3.17848 0
M  V30 17586 H 1643.62 2.81655 2.46214 0
M  V30 17587 H 1644.95 3.69272 3.25422 0
M  V30 17588 N 1646.6 -0.84422 1.33082 0
M  V30 17589 C 1647.85 -1.59912 1.24235 0
M  V30 17590 C 1648.18 -1.93538 -0.193223 0
M  V30 17591 O 1647.43 -1.58418 -1.14901 0
M  V30 17592 C 1647.73 -2.92225 2.05765 0
M  V30 17593 C 1647.4 -2.77985 3.55014 0
M  V30 17594 C 1646.06 -2.73809 3.95705 0
M  V30 17595 C 1648.41 -2.63171 4.49878 0
M  V30 17596 C 1645.74 -2.5271 5.29485 0
M  V30 17597 C 1648.09 -2.43607 5.83814 0
M  V30 17598 C 1646.76 -2.37829 6.23693 0
M  V30 17599 H 1646.03 -0.58516 0.454608 0
M  V30 17600 H 1648.67 -0.978493 1.64614 0
M  V30 17601 H 1646.98 -3.58465 1.58146 0
M  V30 17602 H 1648.68 -3.49678 1.96281 0
M  V30 17603 H 1645.27 -2.82065 3.22703 0
M  V30 17604 H 1649.45 -2.65435 4.19354 0
M  V30 17605 H 1644.71 -2.4668 5.59427 0
M  V30 17606 H 1648.88 -2.31126 6.56927 0
M  V30 17607 H 1646.51 -2.21241 7.27294 0
M  V30 17608 N 1648.08 -1.16463 -1.0618 0
M  V30 17609 C 1649.32 -0.957536 -1.80584 0
M  V30 17610 C 1649.69 0.505554 -1.85225 0
M  V30 17611 O 1650.89 0.831384 -2.5562 0
M  V30 17612 C 1649.16 -1.56919 -3.21109 0
M  V30 17613 S 1650.72 -1.5069 -4.12114 0
M  V30 17614 H 1647.53 -0.344329 -0.62206 0
M  V30 17615 H 1650.14 -1.48228 -1.2747 0
M  V30 17616 H 1648.84 -2.62672 -3.15328 0
M  V30 17617 H 1648.37 -1.04382 -3.79299 0
M  V30 17618 H 1650.39 -0.507956 -4.93593 0
M  V30 17619 N 1649.56 1.24734 -0.963288 0
M  V30 17620 C 1650.98 1.44897 -0.669103 0
M  V30 17621 C 1651.18 1.86185 0.770541 0
M  V30 17622 O 1650.23 1.99721 1.54492 0
M  V30 17623 C 1651.54 2.51425 -1.64943 0
M  V30 17624 C 1653.09 2.65256 -1.66157 0
M  V30 17625 C 1653.57 3.74977 -2.62976 0
M  V30 17626 N 1655.06 3.82399 -2.61391 0
M  V30 17627 C 1655.79 4.66809 -3.32981 0
M  V30 17628 N 1655.29 5.55441 -4.14073 0
M  V30 17629 N 1657.08 4.60851 -3.21827 0
M  V30 17630 H 1649.23 0.962292 -1.89351 0
M  V30 17631 H 1651.5 0.4843 -0.814958 0
M  V30 17632 H 1651.2 2.27965 -2.67815 0
M  V30 17633 H 1651.08 3.49503 -1.41872 0
M  V30 17634 H 1653.46 2.88077 -0.639978 0
M  V30 17635 H 1653.54 1.67551 -1.93288 0
M  V30 17636 H 1653.19 3.52907 -3.65266 0
M  V30 17637 H 1653.12 4.72187 -2.33125 0
M  V30 17638 H 1655.61 3.19048 -2.02527 0
M  V30 17639 H 1655.92 6.16798 -4.65597 0
M  V30 17640 H 1654.27 5.55121 -4.18169 0
M  V30 17641 H 1657.46 3.90621 -2.5794 0
M  V30 17642 H 1657.63 5.26411 -3.77883 0
M  V30 17643 N 1651.04 0.732878 1.39523 0
M  V30 17644 C 1652.45 0.408236 1.54291 0
M  V30 17645 C 1652.65 -1.08114 1.7004 0
M  V30 17646 O 1651.71 -1.86726 1.6997 0
M  V30 17647 C 1653.02 1.1894 2.76177 0
M  V30 17648 C 1654.57 1.17742 2.9001 0
M  V30 17649 C 1655.05 1.94111 4.14831 0
M  V30 17650 N 1656.54 1.91266 4.21867 0
M  V30 17651 C 1657.27 2.47167 5.17394 0
M  V30 17652 N 1656.77 3.11696 6.18723 0
M  V30 17653 N 1658.56 2.37212 5.09595 0
M  V30 17654 H 1650.71 1.69839 1.27548 0
M  V30 17655 H 1652.97 0.718844 0.618035 0
M  V30 17656 H 1652.68 2.24321 2.70875 0
M  V30 17657 H 1652.55 0.792439 3.68782 0
M  V30 17658 H 1654.94 0.131752 2.94806 0
M  V30 17659 H 1655.02 1.61374 1.98474 0
M  V30 17660 H 1654.67 2.98677 4.10797 0
M  V30 17661 H 1654.6 1.47886 5.05408 0
M  V30 17662 H 1657.09 1.44254 3.49284 0
M  V30 17663 H 1657.4 3.51823 6.8807 0
M  V30 17664 H 1655.75 3.15785 6.19116 0
M  V30 17665 H 1658.94 1.86444 4.29367 0
M  V30 17666 H 1659.11 2.81076 5.83866 0
M  V30 17667 N 1652.52 -1.50101 0.480349 0
M  V30 17668 C 1653.45 -2.31581 -0.298718 0
M  V30 17669 C 1654.43 -1.38905 -0.981798 0
M  V30 17670 O 1655.61 -1.67823 -0.977188 0
M  V30 17671 C 1652.74 -3.18891 -1.37571 0
M  V30 17672 C 1651.7 -4.20194 -0.813704 0
M  V30 17673 C 1651.02 -4.96302 -1.98968 0
M  V30 17674 C 1652.32 -5.21985 0.181295 0
M  V30 17675 H 1654.02 -2.96961 0.381349 0
M  V30 17676 H 1651.56 -1.42809 0.184842 0
M  V30 17677 H 1653.51 -3.74694 -1.92828 0
M  V30 17678 H 1652.24 -2.51414 -2.08467 0
M  V30 17679 H 1650.9 -3.65506 -0.283034 0
M  V30 17680 H 1650.55 -4.2529 -2.68584 0
M  V30 17681 H 1650.25 -5.64833 -1.61981 0
M  V30 17682 H 1651.77 -5.54943 -2.54698 0
M  V30 17683 H 1653.18 -5.72604 -0.28242 0
M  V30 17684 H 1651.58 -5.98289 0.465916 0
M  V30 17685 H 1652.65 -4.72162 1.10413 0
M  V30 17686 N 1653.99 -0.213323 -1.5615 0
M  V30 17687 C 1654.94 0.700175 -2.19923 0
M  V30 17688 C 1655.91 1.19641 -1.15218 0
M  V30 17689 O 1657.1 1.257 -1.43542 0
M  V30 17690 C 1654.24 1.90629 -2.87671 0
M  V30 17691 C 1653.35 1.44973 -4.06948 0
M  V30 17692 C 1652.48 2.61277 -4.62502 0
M  V30 17693 C 1651.52 2.12316 -5.74098 0
M  V30 17694 N 1650.66 3.21862 -6.23978 0
M  V30 17695 H 1655.5 0.14961 -2.97624 0
M  V30 17696 H 1653.04 0.0620957 -1.46969 0
M  V30 17697 H 1654.99 2.61431 -3.2513 0
M  V30 17698 H 1653.62 2.42987 -2.12502 0
M  V30 17699 H 1652.68 0.636917 -3.7503 0
M  V30 17700 H 1653.99 1.05065 -4.87609 0
M  V30 17701 H 1653.14 3.40174 -5.02361 0
M  V30 17702 H 1651.88 3.04468 -3.80987 0
M  V30 17703 H 1650.89 1.31877 -5.33749 0
M  V30 17704 H 1652.11 1.70134 -6.57443 0
M  V30 17705 H 1650.06 3.64551 -5.45379 0
M  V30 17706 H 1649.97 2.86181 -6.9974 0
M  V30 17707 H 1651.24 4.0092 -6.68493 0
M  V30 17708 N 1655.47 1.57485 0.0601405 0
M  V30 17709 C 1656.38 2.07853 1.08785 0
M  V30 17710 C 1657.4 1.01047 1.41653 0
M  V30 17711 O 1658.57 1.32592 1.51596 0
M  V30 17712 C 1655.64 2.52214 2.37885 0
M  V30 17713 C 1654.7 3.73369 2.11882 0
M  V30 17714 C 1653.93 4.15604 3.34827 0
M  V30 17715 O 1654.16 3.5761 4.44377 0
M  V30 17716 O 1653.09 5.08303 3.22353 0
M  V30 17717 H 1656.92 2.9576 0.689912 0
M  V30 17718 H 1654.5 1.46846 0.275065 0
M  V30 17719 H 1656.38 2.81216 3.1384 0
M  V30 17720 H 1655.06 1.67432 2.77035 0
M  V30 17721 H 1653.97 3.49433 1.33594 0
M  V30 17722 H 1655.3 4.59039 1.77606 0
M  V30 17723 N 1656.95 -0.331789 1.54068 0
M  V30 17724 C 1658.2 -1.06858 1.71539 0
M  V30 17725 C 1658.52 -1.88808 0.487506 0
M  V30 17726 O 1657.79 -1.8945 -0.498539 0
M  V30 17727 H 1656.37 -0.3975 0.632457 0
M  V30 17728 H 1659.03 -0.370216 1.91352 0
M  V30 17729 H 1658.13 -1.73929 2.59143 0
M  V30 17730 N 1658.43 -1.46001 -0.593424 0
M  V30 17731 C 1659.66 -1.54307 -1.3783 0
M  V30 17732 C 1660.07 -0.18048 -1.87935 0
M  V30 17733 O 1659.43 0.820427 -1.63019 0
M  V30 17734 C 1659.48 -2.53911 -2.57316 0
M  V30 17735 O 1659.2 -3.84876 -2.09289 0
M  V30 17736 C 1660.7 -2.72054 -3.50002 0
M  V30 17737 H 1657.92 -0.522149 -0.421428 0
M  V30 17738 H 1660.47 -1.91315 -0.722423 0
M  V30 17739 H 1658.62 -2.19937 -3.18915 0
M  V30 17740 H 1659.03 -4.38996 -2.87025 0
M  V30 17741 H 1660.51 -3.45692 -4.3035 0
M  V30 17742 H 1660.99 -1.78583 -4.01254 0
M  V30 17743 H 1661.59 -3.07082 -2.94246 0
M  V30 17744 N 1659.91 0.83715 -1.33527 0
M  V30 17745 C 1661.32 1.12809 -1.12899 0
M  V30 17746 C 1661.52 2.01345 0.0789761 0
M  V30 17747 O 1660.58 2.40831 0.758732 0
M  V30 17748 C 1661.89 1.78852 -2.41728 0
M  V30 17749 C 1663.44 1.91411 -2.47651 0
M  V30 17750 C 1663.91 2.6087 -3.76445 0
M  V30 17751 N 1665.41 2.68381 -3.77526 0
M  V30 17752 C 1666.14 3.22819 -4.73894 0
M  V30 17753 N 1665.64 3.77931 -5.80638 0
M  V30 17754 N 1667.43 3.21087 -4.61367 0
M  V30 17755 H 1659.58 0.247942 -2.10948 0
M  V30 17756 H 1661.84 0.172518 -0.93217 0
M  V30 17757 H 1661.55 1.21258 -3.30135 0
M  V30 17758 H 1661.42 2.78856 -2.54006 0
M  V30 17759 H 1663.81 2.48159 -1.59691 0
M  V30 17760 H 1663.89 0.903512 -2.39312 0
M  V30 17761 H 1663.54 2.0478 -4.64787 0
M  V30 17762 H 1663.47 3.62404 -3.82061 0
M  V30 17763 H 1665.96 2.29301 -3.00382 0
M  V30 17764 H 1666.27 4.17678 -6.50204 0
M  V30 17765 H 1664.61 3.76214 -5.8437 0
M  V30 17766 H 1667.81 2.7729 -3.77131 0
M  V30 17767 H 1667.98 3.6321 -5.3664 0
M  V30 17768 N 1661.38 1.17024 1.05561 0
M  V30 17769 C 1662.32 0.827019 2.12687 0
M  V30 17770 C 1663.3 -0.204573 1.61308 0
M  V30 17771 O 1664.48 -0.0869578 1.88299 0
M  V30 17772 C 1661.61 0.233018 3.37897 0
M  V30 17773 C 1660.65 1.2394 4.08094 0
M  V30 17774 S 1661.49 2.78918 4.57127 0
M  V30 17775 C 1662.64 2.20988 5.8559 0
M  V30 17776 H 1662.87 1.73431 2.41472 0
M  V30 17777 H 1660.41 0.994498 1.18106 0
M  V30 17778 H 1662.37 -0.103221 4.1037 0
M  V30 17779 H 1661.03 -0.652154 3.07255 0
M  V30 17780 H 1660.22 0.772359 4.98047 0
M  V30 17781 H 1659.82 1.5211 3.4167 0
M  V30 17782 H 1662.11 1.58313 6.58744 0
M  V30 17783 H 1663.06 3.0918 6.37035 0
M  V30 17784 H 1663.46 1.64583 5.39975 0
M  V30 17785 N 1662.86 -1.24221 0.969889 0
M  V30 17786 C 1664.28 -1.4454 0.676778 0
M  V30 17787 C 1664.48 -1.86591 -0.760656 0
M  V30 17788 O 1663.53 -2.00538 -1.5343 0
M  V30 17789 C 1664.85 -2.50546 1.66274 0
M  V30 17790 C 1666.4 -2.64372 1.67561 0
M  V30 17791 C 1666.87 -3.73577 2.6496 0
M  V30 17792 N 1668.36 -3.81007 2.63416 0
M  V30 17793 C 1669.1 -4.65037 3.35452 0
M  V30 17794 N 1668.59 -5.53238 4.17013 0
M  V30 17795 N 1670.39 -4.59138 3.24266 0
M  V30 17796 H 1662.54 -0.952237 1.89858 0
M  V30 17797 H 1664.8 -0.479972 0.817515 0
M  V30 17798 H 1664.51 -2.26541 2.6902 0
M  V30 17799 H 1664.38 -3.48745 1.43724 0
M  V30 17800 H 1666.77 -2.87733 0.655247 0
M  V30 17801 H 1666.85 -1.66523 1.94174 0
M  V30 17802 H 1666.49 -3.50965 3.67132 0
M  V30 17803 H 1666.42 -4.70944 2.35626 0
M  V30 17804 H 1668.91 -3.17969 2.04216 0
M  V30 17805 H 1669.23 -6.1432 4.68861 0
M  V30 17806 H 1667.57 -5.52896 4.21107 0
M  V30 17807 H 1670.76 -3.89247 2.60008 0
M  V30 17808 H 1670.93 -5.24399 3.8067 0
M  V30 17809 N 1664.34 -0.740267 -1.39132 0
M  V30 17810 C 1665.3 -0.112183 -2.28925 0
M  V30 17811 C 1666.3 0.661598 -1.46559 0
M  V30 17812 O 1667.49 0.489835 -1.67171 0
M  V30 17813 C 1664.63 0.850121 -3.3013 0
M  V30 17814 H 1665.82 -0.903339 -2.85972 0
M  V30 17815 H 1663.37 -0.506427 -1.47868 0
M  V30 17816 H 1664.11 1.66744 -2.78149 0
M  V30 17817 H 1663.89 0.297847 -3.90967 0
M  V30 17818 H 1665.38 1.28599 -3.97306 0
M  V30 17819 N 1665.82 1.49844 -0.488302 0
M  V30 17820 C 1667.23 1.86663 -0.037377 0
M  V30 17821 C 1667.58 1.40172 1.37281 0
M  V30 17822 O 1666.71 0.77409 2.02081 0
M  V30 17823 C 1667.3 3.38745 -0.0610523 0
M  V30 17824 C 1665.86 3.74911 0.334475 0
M  V30 17825 C 1665.01 2.73801 -0.439109 0
M  V30 17826 H 1667.96 1.42343 -0.70173 0
M  V30 17827 H 1667.98 3.7329 0.737203 0
M  V30 17828 H 1667.49 3.72551 -1.08753 0
M  V30 17829 H 1665.59 3.4671 1.36466 0
M  V30 17830 H 1665.7 4.79094 0.0238536 0
M  V30 17831 H 1664.07 2.54465 0.109433 0
M  V30 17832 H 1664.85 3.10452 -1.46542 0
M  V30 17833 N 1667.3 0.221601 1.56034 0
M  V30 17834 C 1668.57 -0.459097 1.90136 0
M  V30 17835 C 1668.95 -1.7774 1.13894 0
M  V30 17836 O 1668.3 -2.27147 0.248285 0
M  V30 17837 C 1668.51 -0.651996 3.42856 0
M  V30 17838 C 1669.86 -0.959402 4.13619 0
M  V30 17839 O 1670.88 -0.73878 3.48454 0
M  V30 17840 O 1669.74 -1.37811 5.28839 0
M  V30 17841 H 1666.84 -0.242753 0.790569 0
M  V30 17842 H 1669.38 0.263789 1.67637 0
M  V30 17843 H 1668.15 0.277892 3.90312 0
M  V30 17844 H 1667.78 -1.42637 3.71134 0
M  V30 17845 N 1668.77 -1.57515 -0.0517878 0
M  V30 17846 C 1670 -1.92177 -0.758384 0
M  V30 17847 C 1670.41 -0.817721 -1.70616 0
M  V30 17848 O 1669.76 0.216391 -1.82421 0
M  V30 17849 C 1669.82 -3.22471 -1.58912 0
M  V30 17850 C 1669.48 -4.4979 -0.808569 0
M  V30 17851 C 1670.48 -5.19764 -0.118871 0
M  V30 17852 C 1668.16 -4.96366 -0.769824 0
M  V30 17853 C 1670.16 -6.34578 0.599123 0
M  V30 17854 C 1667.84 -6.11081 -0.0480698 0
M  V30 17855 C 1668.84 -6.8004 0.635185 0
M  V30 17856 O 1668.53 -7.92564 1.34527 0
M  V30 17857 H 1668.26 -0.639335 -0.219607 0
M  V30 17858 H 1670.82 -2.0539 -0.0202648 0
M  V30 17859 H 1669.05 -3.05522 -2.37051 0
M  V30 17860 H 1670.74 -3.4263 -2.17622 0
M  V30 17861 H 1671.5 -4.84798 -0.139982 0
M  V30 17862 H 1667.38 -4.42551 -1.29112 0
M  V30 17863 H 1670.92 -6.88338 1.13298 0
M  V30 17864 H 1666.82 -6.45495 -0.0249563 0
M  V30 17865 H 1667.59 -8.08797 1.2566 0
M  V30 17866 N 1670.25 0.323614 -1.54242 0
M  V30 17867 C 1671.48 1.0811 -1.76408 0
M  V30 17868 C 1671.9 1.81707 -0.512656 0
M  V30 17869 O 1671.25 1.75035 0.516638 0
M  V30 17870 C 1671.3 2.07923 -2.9572 0
M  V30 17871 O 1671.03 1.37317 -4.16024 0
M  V30 17872 C 1672.53 2.95891 -3.30096 0
M  V30 17873 H 1669.75 0.321583 -0.588919 0
M  V30 17874 H 1672.29 0.369756 -2.01129 0
M  V30 17875 H 1670.45 2.74593 -2.73272 0
M  V30 17876 H 1670.86 2.04158 -4.83135 0
M  V30 17877 H 1672.33 3.61822 -4.1688 0
M  V30 17878 H 1672.81 3.62986 -2.47261 0
M  V30 17879 H 1673.42 2.34783 -3.54622 0
M  V30 17880 N 1671.73 1.46313 0.585673 0
M  V30 17881 C 1672.96 1.55035 1.3701 0
M  V30 17882 C 1673.37 0.190444 1.87837 0
M  V30 17883 O 1672.73 -0.81177 1.63452 0
M  V30 17884 C 1672.78 2.55272 2.55965 0
M  V30 17885 O 1672.5 3.85981 2.07245 0
M  V30 17886 C 1674 2.73906 3.48555 0
M  V30 17887 H 1671.22 0.524377 0.418653 0
M  V30 17888 H 1673.77 1.91695 0.712267 0
M  V30 17889 H 1671.92 2.21625 3.17744 0
M  V30 17890 H 1672.34 4.40512 2.84692 0
M  V30 17891 H 1673.81 3.4797 4.2851 0
M  V30 17892 H 1674.29 1.80708 4.00301 0
M  V30 17893 H 1674.89 3.08638 2.92614 0
M  V30 17894 N 1673.21 -0.830057 1.33969 0
M  V30 17895 C 1674.62 -1.40227 1.23261 0
M  V30 17896 C 1674.97 -1.95664 -0.144862 0
M  V30 17897 O 1674.1 -1.89503 -1.04488 0
M  V30 17898 C 1674.69 -2.54913 2.2317 0
M  V30 17899 C 1673.25 -3.08062 2.16274 0
M  V30 17900 C 1672.4 -1.809 2.10168 0
M  V30 17901 H 1675.35 -0.635062 1.4544 0
M  V30 17902 H 1675.37 -3.32801 1.84455 0
M  V30 17903 H 1674.88 -2.14534 3.23414 0
M  V30 17904 H 1672.98 -3.52964 1.19362 0
M  V30 17905 H 1673.1 -3.67637 3.07213 0
M  V30 17906 H 1671.46 -2.01508 1.55778 0
M  V30 17907 H 1672.24 -1.42705 3.12234 0
M  V30 17908 N 1674.69 -1.17582 -1.04939 0
M  V30 17909 C 1675.6 -0.909588 -2.16249 0
M  V30 17910 C 1676.61 0.123166 -1.73564 0
M  V30 17911 O 1677.79 -0.0566976 -2.0132 0
M  V30 17912 C 1674.85 -0.429342 -3.44031 0
M  V30 17913 C 1673.92 -1.529 -4.01149 0
M  V30 17914 C 1673.15 -1.07157 -5.22832 0
M  V30 17915 O 1673.37 0.0732634 -5.70353 0
M  V30 17916 O 1672.31 -1.86567 -5.72255 0
M  V30 17917 H 1676.13 -1.84074 -2.41558 0
M  V30 17918 H 1673.72 -0.956914 -1.14732 0
M  V30 17919 H 1675.6 -0.16917 -4.2106 0
M  V30 17920 H 1674.27 0.473629 -3.20216 0
M  V30 17921 H 1673.18 -1.84308 -3.25548 0
M  V30 17922 H 1674.51 -2.40777 -4.29287 0
M  V30 17923 N 1676.17 1.23705 -0.976463 0
M  V30 17924 C 1677.1 2.2355 -0.458309 0
M  V30 17925 C 1678.08 1.55586 0.472414 0
M  V30 17926 O 1679.26 1.84169 0.40177 0
M  V30 17927 C 1676.39 3.37015 0.337422 0
M  V30 17928 C 1675.43 4.23108 -0.536865 0
M  V30 17929 S 1676.27 4.97456 -1.98236 0
M  V30 17930 C 1677.42 6.14374 -1.19566 0
M  V30 17931 H 1677.66 2.67156 -1.30442 0
M  V30 17932 H 1675.19 1.33123 -0.782157 0
M  V30 17933 H 1677.15 4.02816 0.790531 0
M  V30 17934 H 1675.81 2.91951 1.15861 0
M  V30 17935 H 1675 5.03945 0.07453 0
M  V30 17936 H 1674.6 3.62354 -0.926058 0
M  V30 17937 H 1676.89 6.7597 -0.455017 0
M  V30 17938 H 1677.84 6.79891 -1.97872 0
M  V30 17939 H 1678.25 5.59939 -0.716175 0
M  V30 17940 N 1677.64 0.747635 1.38738 0
M  V30 17941 C 1678.87 0.311329 2.04241 0
M  V30 17942 C 1679.28 -1.06319 1.56502 0
M  V30 17943 O 1678.62 -1.68544 0.730669 0
M  V30 17944 C 1678.69 0.24882 3.58638 0
M  V30 17945 C 1678.35 1.5639 4.29408 0
M  V30 17946 C 1679.35 2.51198 4.55187 0
M  V30 17947 C 1677.03 1.83169 4.67712 0
M  V30 17948 C 1679.03 3.71009 5.18296 0
M  V30 17949 C 1676.71 3.03255 5.30546 0
M  V30 17950 C 1677.71 3.96996 5.55773 0
M  V30 17951 O 1677.4 5.14971 6.173 0
M  V30 17952 H 1677.13 0.131827 0.663022 0
M  V30 17953 H 1679.69 1.01572 1.78528 0
M  V30 17954 H 1677.92 -0.511769 3.83299 0
M  V30 17955 H 1679.6 -0.157174 4.05596 0
M  V30 17956 H 1680.37 2.31784 4.2603 0
M  V30 17957 H 1676.25 1.11044 4.47426 0
M  V30 17958 H 1679.79 4.44193 5.37902 0
M  V30 17959 H 1675.69 3.22565 5.59126 0
M  V30 17960 H 1676.46 5.15474 6.3579 0
M  V30 17961 N 1679.12 -1.49583 0.496242 0
M  V30 17962 C 1680.05 -2.26936 -0.321366 0
M  V30 17963 C 1681.07 -1.33282 -0.934863 0
M  V30 17964 O 1682.26 -1.58602 -0.819008 0
M  V30 17965 C 1679.36 -3.05503 -1.467 0
M  V30 17966 C 1678.53 -4.26697 -0.961687 0
M  V30 17967 C 1677.59 -4.8735 -1.98436 0
M  V30 17968 O 1676.61 -5.47553 -1.55482 0
M  V30 17969 N 1677.82 -4.76577 -3.31443 0
M  V30 17970 H 1680.58 -2.97744 0.341884 0
M  V30 17971 H 1678.14 -1.58532 0.328504 0
M  V30 17972 H 1680.13 -3.42954 -2.1486 0
M  V30 17973 H 1678.7 -2.37334 -2.03449 0
M  V30 17974 H 1677.92 -3.9406 -0.105143 0
M  V30 17975 H 1679.21 -5.05221 -0.602405 0
M  V30 17976 H 1678.61 -4.28756 -3.69032 0
M  V30 17977 H 1677.17 -5.18226 -3.95329 0
M  V30 17978 N 1680.6 -0.229873 -1.55915 0
M  V30 17979 C 1681.83 0.404189 -2.02914 0
M  V30 17980 C 1682.24 1.52758 -1.10952 0
M  V30 17981 O 1681.6 1.82101 -0.120685 0
M  V30 17982 C 1681.65 0.928016 -3.49385 0
M  V30 17983 O 1681.37 -0.150592 -4.37841 0
M  V30 17984 C 1682.87 1.63448 -4.12067 0
M  V30 17985 H 1680.09 0.0980294 -0.663801 0
M  V30 17986 H 1682.64 -0.34876 -2.01504 0
M  V30 17987 H 1680.79 1.63121 -3.51384 0
M  V30 17988 H 1681.21 0.244429 -5.2393 0
M  V30 17989 H 1682.68 1.95292 -5.16299 0
M  V30 17990 H 1683.16 2.55055 -3.57553 0
M  V30 17991 H 1683.76 0.976292 -4.13943 0
M  V30 17992 N 1682.08 1.5754 0.0434337 0
M  V30 17993 C 1683.01 2.00964 1.08114 0
M  V30 17994 C 1683.99 0.891404 1.35988 0
M  V30 17995 O 1685.17 1.15607 1.48887 0
M  V30 17996 C 1682.3 2.3705 2.41919 0
M  V30 17997 C 1681.35 3.59171 2.29996 0
M  V30 17998 S 1682.18 5.08892 1.66702 0
M  V30 17999 C 1683.33 5.48206 3.02028 0
M  V30 18000 H 1683.57 2.88668 0.711202 0
M  V30 18001 H 1681.1 1.52314 0.25294 0
M  V30 18002 H 1683.06 2.58513 3.18875 0
M  V30 18003 H 1681.72 1.49824 2.76064 0
M  V30 18004 H 1680.91 3.82029 3.28739 0
M  V30 18005 H 1680.51 3.37486 1.61181 0
M  V30 18006 H 1682.81 5.48012 3.98358 0
M  V30 18007 H 1683.75 6.48688 2.83919 0
M  V30 18008 H 1684.16 4.7569 3.03939 0
M  V30 18009 N 1683.56 -0.31543 1.54411 0
M  V30 18010 C 1684.49 -1.39353 1.87358 0
M  V30 18011 C 1685.47 -1.53586 0.731118 0
M  V30 18012 O 1686.65 -1.67332 0.98558 0
M  V30 18013 C 1683.78 -2.75998 2.10814 0
M  V30 18014 C 1682.74 -2.76545 3.2666 0
M  V30 18015 C 1682.06 -4.16343 3.35504 0
M  V30 18016 C 1683.36 -2.39567 4.64117 0
M  V30 18017 H 1685.06 -1.12028 2.77651 0
M  V30 18018 H 1682.6 -0.537476 1.33593 0
M  V30 18019 H 1684.55 -3.51491 2.32447 0
M  V30 18020 H 1683.28 -3.04817 1.17278 0
M  V30 18021 H 1681.94 -2.03507 3.04927 0
M  V30 18022 H 1681.59 -4.42316 2.39512 0
M  V30 18023 H 1681.29 -4.17613 4.13368 0
M  V30 18024 H 1682.81 -4.93637 3.59381 0
M  V30 18025 H 1684.22 -3.04775 4.85577 0
M  V30 18026 H 1682.62 -2.52075 5.4459 0
M  V30 18027 H 1683.69 -1.34707 4.65813 0
M  V30 18028 N 1685.03 -1.46622 -0.577906 0
M  V30 18029 C 1686.31 -1.42657 -1.33822 0
M  V30 18030 C 1686.69 -0.11256 -2.108 0
M  V30 18031 O 1686.04 0.905903 -2.09775 0
M  V30 18032 C 1686.25 -2.65927 -2.26018 0
M  V30 18033 C 1687.6 -3.12277 -2.87695 0
M  V30 18034 O 1688.62 -2.66509 -2.36329 0
M  V30 18035 O 1687.48 -3.91786 -3.81007 0
M  V30 18036 H 1684.57 -0.567544 -0.601517 0
M  V30 18037 H 1687.12 -1.58795 -0.598524 0
M  V30 18038 H 1685.89 -3.53116 -1.68597 0
M  V30 18039 H 1685.52 -2.52272 -3.07318 0
M  V30 18040 N 1686.51 0.822941 -1.34408 0
M  V30 18041 C 1687.75 1.59269 -1.28112 0
M  V30 18042 C 1688.12 1.91437 0.146924 0
M  V30 18043 O 1689.32 2.66716 0.334053 0
M  V30 18044 C 1687.59 2.85727 -2.14698 0
M  V30 18045 S 1689.15 3.76272 -2.25754 0
M  V30 18046 H 1685.97 0.545903 -0.455534 0
M  V30 18047 H 1688.57 0.972069 -1.6962 0
M  V30 18048 H 1687.27 2.60092 -3.17459 0
M  V30 18049 H 1686.8 3.52786 -1.74086 0
M  V30 18050 H 1688.82 4.75138 -1.43031 0
M  V30 18051 N 1687.99 1.18137 1.04314 0
M  V30 18052 C 1689.24 0.98666 1.77867 0
M  V30 18053 C 1689.59 -0.478878 1.86345 0
M  V30 18054 O 1688.88 -1.35094 1.35868 0
M  V30 18055 C 1689.08 1.57211 3.20966 0
M  V30 18056 C 1688.91 3.09305 3.26436 0
M  V30 18057 C 1687.68 3.78104 3.3521 0
M  V30 18058 C 1689.88 4.06817 3.1465 0
M  V30 18059 N 1687.86 5.17723 3.29903 0
M  V30 18060 C 1689.23 5.32943 3.16815 0
M  V30 18061 C 1691.28 3.98369 2.98675 0
M  V30 18062 C 1689.99 6.51601 3.04645 0
M  V30 18063 C 1692.01 5.1662 2.8785 0
M  V30 18064 C 1691.37 6.41638 2.90655 0
M  V30 18065 H 1687.47 0.415029 0.662778 0
M  V30 18066 H 1690.06 1.49871 1.24284 0
M  V30 18067 H 1688.23 1.08627 3.729 0
M  V30 18068 H 1689.96 1.31316 3.82803 0
M  V30 18069 H 1686.72 3.28825 3.40839 0
M  V30 18070 H 1687.14 5.90736 3.30695 0
M  V30 18071 H 1691.78 3.02549 2.95337 0
M  V30 18072 H 1689.5 7.47622 3.06735 0
M  V30 18073 H 1693.09 5.11872 2.76546 0
M  V30 18074 H 1691.97 7.31602 2.82363 0
M  V30 18075 N 1689.47 -1.23186 0.98301 0
M  V30 18076 C 1690.42 -2.22529 0.496484 0
M  V30 18077 C 1691.4 -1.5505 -0.429923 0
M  V30 18078 O 1692.59 -1.75104 -0.258352 0
M  V30 18079 C 1689.72 -3.42733 -0.197237 0
M  V30 18080 C 1688.81 -4.17435 0.748894 0
M  V30 18081 N 1689.2 -4.69056 1.89261 0
M  V30 18082 C 1687.5 -4.42435 0.562753 0
M  V30 18083 C 1688.2 -5.25918 2.48566 0
M  V30 18084 N 1687.18 -5.14001 1.76929 0
M  V30 18085 H 1690.98 -2.60072 1.36893 0
M  V30 18086 H 1688.49 -1.38745 0.844014 0
M  V30 18087 H 1690.49 -4.1308 -0.56311 0
M  V30 18088 H 1689.15 -3.06705 -1.06593 0
M  V30 18089 H 1690.16 -4.6532 2.27372 0
M  V30 18090 H 1686.84 -4.16685 -0.260705 0
M  V30 18091 H 1688.23 -5.76462 3.45168 0
M  V30 18092 N 1690.95 -0.754982 -1.38339 0
M  V30 18093 C 1692.19 -0.311146 -1.9969 0
M  V30 18094 C 1692.52 1.11138 -1.60229 0
M  V30 18095 O 1691.79 1.76024 -0.859794 0
M  V30 18096 H 1690.37 -0.112052 -0.738548 0
M  V30 18097 H 1693.03 -0.969386 -1.69083 0
M  V30 18098 H 1692.12 -0.375392 -3.09834 0
M  V30 18099 N 1692.42 1.49318 -0.504168 0
M  V30 18100 C 1693.33 2.32958 0.277053 0
M  V30 18101 C 1694.35 1.44838 0.964266 0
M  V30 18102 O 1695.53 1.77856 0.944947 0
M  V30 18103 C 1692.59 3.20352 1.32572 0
M  V30 18104 C 1691.65 4.24326 0.651606 0
M  V30 18105 C 1690.89 5.07544 1.65031 0
M  V30 18106 O 1691.11 4.92326 2.88047 0
M  V30 18107 O 1690.04 5.89737 1.20388 0
M  V30 18108 H 1693.87 3.00952 -0.40763 0
M  V30 18109 H 1691.45 1.47023 -0.265453 0
M  V30 18110 H 1693.34 3.74483 1.93237 0
M  V30 18111 H 1692.01 2.5505 1.99327 0
M  V30 18112 H 1690.92 3.741 0.00513384 0
M  V30 18113 H 1692.25 4.92193 0.0264424 0
M  V30 18114 N 1693.9 0.238138 1.5579 0
M  V30 18115 C 1695.31 -0.266656 1.84786 0
M  V30 18116 C 1695.66 -1.58248 1.15983 0
M  V30 18117 O 1694.79 -2.11979 0.43518 0
M  V30 18118 C 1695.38 -0.4906 3.35229 0
M  V30 18119 C 1693.94 -0.939672 3.64482 0
M  V30 18120 C 1693.09 -0.0119682 2.77297 0
M  V30 18121 H 1696.04 0.460924 1.51859 0
M  V30 18122 H 1696.06 -1.3344 3.56334 0
M  V30 18123 H 1695.57 0.467239 3.85277 0
M  V30 18124 H 1693.68 -1.91029 3.19904 0
M  V30 18125 H 1693.79 -0.8026 4.72329 0
M  V30 18126 H 1692.15 -0.521767 2.49298 0
M  V30 18127 H 1692.94 0.941085 3.30149 0
M  V30 18128 N 1695.38 -1.57561 -0.0350783 0
M  V30 18129 C 1696.61 -1.93644 -0.742753 0
M  V30 18130 C 1697.03 -0.837655 -1.68419 0
M  V30 18131 O 1696.39 0.207069 -1.80114 0
M  V30 18132 C 1696.44 -3.28779 -1.48111 0
M  V30 18133 O 1695.54 -3.20604 -2.59398 0
M  V30 18134 H 1694.88 -0.633103 -0.200192 0
M  V30 18135 H 1697.41 -2.04599 0.00765271 0
M  V30 18136 H 1697.42 -3.63527 -1.85236 0
M  V30 18137 H 1696.1 -4.08316 -0.790608 0
M  V30 18138 H 1694.67 -2.97477 -2.2486 0
M  V30 18139 N 1696.86 0.307236 -1.54576 0
M  V30 18140 C 1697.79 1.40019 -1.81459 0
M  V30 18141 C 1698.8 1.47113 -0.697246 0
M  V30 18142 O 1699.99 1.49544 -0.974626 0
M  V30 18143 C 1697.09 2.78439 -1.93197 0
M  V30 18144 C 1696.27 2.94353 -3.23536 0
M  V30 18145 C 1695.32 4.13232 -3.25769 0
M  V30 18146 O 1694.35 4.05614 -3.99331 0
M  V30 18147 N 1695.55 5.23567 -2.50715 0
M  V30 18148 H 1698.32 1.17317 -2.75784 0
M  V30 18149 H 1695.88 0.497286 -1.54074 0
M  V30 18150 H 1697.87 3.56202 -1.921 0
M  V30 18151 H 1696.44 2.94117 -1.05895 0
M  V30 18152 H 1695.66 2.03754 -3.37458 0
M  V30 18153 H 1696.95 3.01892 -4.09559 0
M  V30 18154 H 1696.35 5.32635 -1.90569 0
M  V30 18155 H 1694.9 5.99687 -2.55379 0
M  V30 18156 N 1698.34 1.46926 0.570122 0
M  V30 18157 C 1699.75 1.32159 0.894766 0
M  V30 18158 C 1699.95 0.302411 1.99218 0
M  V30 18159 O 1699.01 -0.290615 2.50822 0
M  V30 18160 C 1700.32 2.71136 1.30021 0
M  V30 18161 C 1701.87 2.79323 1.41236 0
M  V30 18162 C 1702.34 4.18911 1.85142 0
M  V30 18163 N 1703.84 4.2139 1.92314 0
M  V30 18164 C 1704.57 5.263 2.27588 0
M  V30 18165 N 1704.07 6.41526 2.61565 0
M  V30 18166 N 1705.86 5.13671 2.28251 0
M  V30 18167 H 1698.01 2.11837 -0.154603 0
M  V30 18168 H 1700.27 0.947978 -0.00649658 0
M  V30 18169 H 1699.98 3.47087 0.567775 0
M  V30 18170 H 1699.85 3.02066 2.25911 0
M  V30 18171 H 1702.24 2.03653 2.13564 0
M  V30 18172 H 1702.32 2.52063 0.43566 0
M  V30 18173 H 1701.97 4.95081 1.13389 0
M  V30 18174 H 1701.9 4.43587 2.83792 0
M  V30 18175 H 1704.39 3.38257 1.68495 0
M  V30 18176 H 1704.7 7.17343 2.8747 0
M  V30 18177 H 1703.04 6.44867 2.59175 0
M  V30 18178 H 1706.24 4.22684 2.01137 0
M  V30 18179 H 1706.41 5.95541 2.55412 0
M  V30 18180 N 1699.82 -0.815801 1.34842 0
M  V30 18181 C 1701.23 -1.38911 1.24742 0
M  V30 18182 C 1701.58 -1.95807 -0.124101 0
M  V30 18183 O 1700.7 -1.906 -1.02472 0
M  V30 18184 C 1701.3 -2.52532 2.25861 0
M  V30 18185 C 1699.86 -3.05751 2.1953 0
M  V30 18186 C 1699 -1.78661 2.12075 0
M  V30 18187 H 1701.95 -0.619601 1.46105 0
M  V30 18188 H 1701.98 -3.30826 1.87974 0
M  V30 18189 H 1701.49 -2.11092 3.25671 0
M  V30 18190 H 1699.59 -3.51678 1.23099 0
M  V30 18191 H 1699.7 -3.64358 3.11095 0
M  V30 18192 H 1698.07 -1.99844 1.57907 0
M  V30 18193 H 1698.85 -1.39385 3.1373 0
M  V30 18194 N 1701.29 -1.18689 -1.03686 0
M  V30 18195 C 1702.52 -1.00961 -1.80595 0
M  V30 18196 C 1702.94 0.44188 -1.83556 0
M  V30 18197 O 1702.29 1.30693 -1.27379 0
M  V30 18198 C 1702.34 -1.56185 -3.26019 0
M  V30 18199 O 1702.07 -2.95652 -3.23298 0
M  V30 18200 C 1703.57 -1.43129 -4.19558 0
M  V30 18201 H 1700.79 -0.356291 -0.568593 0
M  V30 18202 H 1703.33 -1.57324 -1.3065 0
M  V30 18203 H 1701.49 -1.03989 -3.73182 0
M  V30 18204 H 1701.9 -3.21481 -4.14427 0
M  V30 18205 H 1703.37 -1.86561 -5.19518 0
M  V30 18206 H 1703.85 -0.380581 -4.37548 0
M  V30 18207 H 1704.46 -1.94416 -3.78262 0
M  V30 18208 N 1702.77 1.22662 -0.989529 0
M  V30 18209 C 1704.02 1.91322 -0.663497 0
M  V30 18210 C 1704.35 1.77102 0.804057 0
M  V30 18211 O 1703.6 1.13169 1.5966 0
M  V30 18212 C 1703.9 3.428 -1.01109 0
M  V30 18213 C 1703.57 3.77206 -2.47035 0
M  V30 18214 C 1702.23 3.86308 -2.86914 0
M  V30 18215 C 1704.58 3.93617 -3.41636 0
M  V30 18216 C 1701.91 4.09255 -4.20389 0
M  V30 18217 C 1704.26 4.18067 -4.74766 0
M  V30 18218 C 1702.92 4.25392 -5.14391 0
M  V30 18219 H 1702.19 0.700095 -0.242791 0
M  V30 18220 H 1704.84 1.45498 -1.24509 0
M  V30 18221 H 1703.15 3.90256 -0.347533 0
M  V30 18222 H 1704.84 3.94171 -0.736909 0
M  V30 18223 H 1701.43 3.70702 -2.15123 0
M  V30 18224 H 1705.62 3.85966 -3.12 0
M  V30 18225 H 1700.87 4.13152 -4.50683 0
M  V30 18226 H 1705.05 4.29708 -5.48018 0
M  V30 18227 H 1702.67 4.42926 -6.17835 0
M  V30 18228 N 1704.25 0.762308 1.37937 0
M  V30 18229 C 1705.47 0.332217 2.04722 0
M  V30 18230 C 1705.9 -1.03417 1.57119 0
M  V30 18231 O 1705.26 -1.6608 0.727117 0
M  V30 18232 C 1705.31 0.373899 3.58656 0
M  V30 18233 O 1704.41 -0.629024 4.07575 0
M  V30 18234 H 1703.75 0.145471 0.647869 0
M  V30 18235 H 1706.28 1.03586 1.7644 0
M  V30 18236 H 1706.29 0.22785 4.07363 0
M  V30 18237 H 1704.97 1.37079 3.92661 0
M  V30 18238 H 1703.54 -0.446871 3.70213 0
M  V30 18239 N 1705.73 -1.49049 0.51208 0
M  V30 18240 C 1706.64 -2.33102 -0.264695 0
M  V30 18241 C 1707.65 -1.45347 -0.956571 0
M  V30 18242 O 1708.83 -1.78355 -0.935501 0
M  V30 18243 C 1705.89 -3.21051 -1.30871 0
M  V30 18244 C 1704.96 -4.24666 -0.629094 0
M  V30 18245 C 1704.19 -5.08412 -1.62337 0
M  V30 18246 O 1704.41 -4.93847 -2.85432 0
M  V30 18247 O 1703.35 -5.90368 -1.17259 0
M  V30 18248 H 1707.17 -3.00732 0.423585 0
M  V30 18249 H 1704.76 -1.4688 0.273246 0
M  V30 18250 H 1706.64 -3.75503 -1.91248 0
M  V30 18251 H 1705.31 -2.56103 -1.97972 0
M  V30 18252 H 1704.22 -3.74097 0.0147056 0
M  V30 18253 H 1705.55 -4.922 -0.000339859 0
M  V30 18254 N 1707.21 -0.246397 -1.55662 0
M  V30 18255 C 1708.14 0.647563 -2.24341 0
M  V30 18256 C 1709.12 1.1817 -1.22352 0
M  V30 18257 O 1710.3 1.22114 -1.51003 0
M  V30 18258 C 1707.43 1.84485 -2.94249 0
M  V30 18259 C 1706.39 1.4435 -4.02923 0
M  V30 18260 C 1705.71 2.72158 -4.60255 0
M  V30 18261 C 1707.01 0.614951 -5.18667 0
M  V30 18262 H 1708.71 0.0748803 -2.99306 0
M  V30 18263 H 1706.25 0.034575 -1.43958 0
M  V30 18264 H 1708.2 2.47588 -3.40995 0
M  V30 18265 H 1706.93 2.4429 -2.16772 0
M  V30 18266 H 1705.59 0.835811 -3.56945 0
M  V30 18267 H 1705.24 3.3016 -3.79478 0
M  V30 18268 H 1704.94 2.46028 -5.33614 0
M  V30 18269 H 1706.46 3.36161 -5.09734 0
M  V30 18270 H 1707.87 1.15028 -5.61642 0
M  V30 18271 H 1706.27 0.449729 -5.98412 0
M  V30 18272 H 1707.34 -0.372943 -4.83464 0
M  V30 18273 N 1708.68 1.57577 0.026722 0
M  V30 18274 C 1709.93 1.8966 0.718124 0
M  V30 18275 C 1710.26 0.844423 1.7488 0
M  V30 18276 O 1709.54 -0.14023 1.93994 0
M  V30 18277 C 1709.82 3.32377 1.38555 0
M  V30 18278 C 1709.67 4.4829 0.368227 0
M  V30 18279 C 1710.99 3.74051 2.31891 0
M  V30 18280 H 1708.11 0.689767 0.259596 0
M  V30 18281 H 1710.75 1.8999 -0.0190825 0
M  V30 18282 H 1708.9 3.32226 2.01391 0
M  V30 18283 H 1710.58 4.60576 -0.258394 0
M  V30 18284 H 1708.82 4.32675 -0.312255 0
M  V30 18285 H 1709.49 5.45041 0.873749 0
M  V30 18286 H 1711.97 3.75584 1.79097 0
M  V30 18287 H 1710.84 4.74713 2.7557 0
M  V30 18288 H 1711.1 3.06438 3.18666 0
M  V30 18289 N 1710.16 -0.299034 1.54737 0
M  V30 18290 C 1711.07 -1.39141 1.88884 0
M  V30 18291 C 1712.09 -1.55377 0.783203 0
M  V30 18292 O 1713.26 -1.70003 1.07985 0
M  V30 18293 C 1710.33 -2.73487 2.13087 0
M  V30 18294 C 1709.39 -2.66219 3.36788 0
M  V30 18295 C 1708.62 -3.94158 3.59827 0
M  V30 18296 O 1708.85 -4.9361 2.85841 0
M  V30 18297 O 1707.78 -3.95933 4.53344 0
M  V30 18298 H 1711.61 -1.13184 2.81821 0
M  V30 18299 H 1709.19 -0.495271 1.40952 0
M  V30 18300 H 1711.07 -3.5297 2.30195 0
M  V30 18301 H 1709.75 -2.99283 1.23335 0
M  V30 18302 H 1708.65 -1.85201 3.25041 0
M  V30 18303 H 1709.99 -2.45376 4.26675 0
M  V30 18304 N 1711.64 -1.47227 -0.562322 0
M  V30 18305 C 1712.59 -1.55739 -1.66521 0
M  V30 18306 C 1713.57 -0.416678 -1.55411 0
M  V30 18307 O 1714.77 -0.666302 -1.6398 0
M  V30 18308 C 1711.89 -1.5699 -3.05302 0
M  V30 18309 C 1710.98 -2.76427 -3.21634 0
M  V30 18310 N 1711.37 -4.01172 -3.0805 0
M  V30 18311 C 1709.67 -2.73081 -3.52623 0
M  V30 18312 C 1710.37 -4.81132 -3.26936 0
M  V30 18313 N 1709.35 -4.13362 -3.53034 0
M  V30 18314 H 1713.15 -2.49965 -1.5458 0
M  V30 18315 H 1710.66 -1.4315 -0.766937 0
M  V30 18316 H 1712.66 -1.61178 -3.84483 0
M  V30 18317 H 1711.32 -0.638563 -3.18359 0
M  V30 18318 H 1712.33 -4.3211 -2.85485 0
M  V30 18319 H 1709.01 -1.89062 -3.72239 0
M  V30 18320 H 1710.4 -5.9002 -3.21444 0
M  V30 18321 N 1713.12 0.808639 -1.35273 0
M  V30 18322 C 1714.05 1.93502 -1.30687 0
M  V30 18323 C 1715.03 1.69127 -0.181675 0
M  V30 18324 O 1716.21 1.90519 -0.376312 0
M  V30 18325 C 1713.34 3.30211 -1.07602 0
M  V30 18326 C 1712.3 3.69063 -2.16741 0
M  V30 18327 C 1711.62 5.03911 -1.78824 0
M  V30 18328 C 1712.92 3.79656 -3.5869 0
M  V30 18329 H 1714.62 1.97597 -2.24935 0
M  V30 18330 H 1712.16 0.949284 -1.0828 0
M  V30 18331 H 1714.12 4.0861 -1.03034 0
M  V30 18332 H 1712.84 3.26453 -0.0979944 0
M  V30 18333 H 1711.5 2.92948 -2.20402 0
M  V30 18334 H 1711.15 4.96655 -0.796449 0
M  V30 18335 H 1710.85 5.30877 -2.51881 0
M  V30 18336 H 1712.37 5.84752 -1.75777 0
M  V30 18337 H 1713.79 4.48292 -3.57362 0
M  V30 18338 H 1712.18 4.1809 -4.30489 0
M  V30 18339 H 1713.25 2.81265 -3.94991 0
M  V30 18340 N 1714.6 1.19237 1.03055 0
M  V30 18341 C 1715.84 0.992008 1.76078 0
M  V30 18342 C 1716.17 -0.478535 1.89037 0
M  V30 18343 O 1715.44 -1.34666 1.42274 0
M  V30 18344 H 1714.02 0.364059 0.652281 0
M  V30 18345 H 1716.68 1.50101 1.24321 0
M  V30 18346 H 1715.77 1.43862 2.76966 0
M  V30 18347 N 1716.07 -1.22136 0.99602 0
M  V30 18348 C 1717.02 -2.262 0.541868 0
M  V30 18349 C 1718.02 -1.64387 -0.409047 0
M  V30 18350 O 1719.22 -1.7779 -0.281224 0
M  V30 18351 H 1715.6 -0.73546 0.156851 0
M  V30 18352 H 1717.57 -2.61853 1.43092 0
M  V30 18353 C 1716.32 -3.47476 -0.124723 0
M  V30 18354 H 1715.64 -3.95303 0.597934 0
M  V30 18355 H 1717.08 -4.22053 -0.405902 0
M  V30 18356 C 1715.54 -3.08183 -1.36105 0
M  V30 18357 O 1716.07 -3.17862 -2.45615 0
M  V30 18358 N 1714.28 -2.62936 -1.23746 0
M  V30 18359 H 1713.82 -2.5526 -0.346394 0
M  V30 18360 H 1713.78 -2.37014 -2.06572 0
M  V30 18361 N 1717.55 -0.769612 -1.37531 0
M  V30 18362 C 1718.48 -0.168389 -2.32892 0
M  V30 18363 C 1719.46 0.685549 -1.55673 0
M  V30 18364 O 1720.65 0.62345 -1.8392 0
M  V30 18365 C 1717.78 0.713183 -3.39898 0
M  V30 18366 C 1716.73 -0.0392808 -4.27982 0
M  V30 18367 C 1716.06 0.961596 -5.25982 0
M  V30 18368 C 1717.36 -1.21704 -5.07923 0
M  V30 18369 H 1719.05 -0.965022 -2.83421 0
M  V30 18370 H 1716.6 -0.465502 -1.36268 0
M  V30 18371 H 1718.55 1.14358 -4.05586 0
M  V30 18372 H 1717.28 1.54231 -2.87889 0
M  V30 18373 H 1715.93 -0.450429 -3.63822 0
M  V30 18374 H 1715.58 1.78522 -4.70254 0
M  V30 18375 H 1715.28 0.462679 -5.85776 0
M  V30 18376 H 1716.81 1.39097 -5.94545 0
M  V30 18377 H 1718.22 -0.863405 -5.66761 0
M  V30 18378 H 1716.62 -1.6479 -5.77031 0
M  V30 18379 H 1717.69 -2.02219 -4.40722 0
M  V30 18380 N 1719.03 1.48775 -0.519977 0
M  V30 18381 C 1719.96 2.32292 0.237213 0
M  V30 18382 C 1720.94 1.4146 0.944625 0
M  V30 18383 O 1722.13 1.70355 0.932349 0
M  V30 18384 C 1719.26 3.22426 1.29068 0
M  V30 18385 C 1718.21 4.22204 0.702011 0
M  V30 18386 C 1717.54 5.01403 1.85739 0
M  V30 18387 C 1718.84 5.21321 -0.319626 0
M  V30 18388 H 1720.53 2.95846 -0.459949 0
M  V30 18389 H 1718.08 1.42268 -0.222641 0
M  V30 18390 H 1720.03 3.79674 1.82826 0
M  V30 18391 H 1718.75 2.56853 2.01728 0
M  V30 18392 H 1717.41 3.66128 0.186027 0
M  V30 18393 H 1717.06 4.32262 2.57214 0
M  V30 18394 H 1716.76 5.68929 1.46949 0
M  V30 18395 H 1718.28 5.615 2.39895 0
M  V30 18396 H 1719.7 5.73151 0.130505 0
M  V30 18397 H 1718.1 5.96843 -0.624377 0
M  V30 18398 H 1719.17 4.69069 -1.22893 0
M  V30 18399 N 1720.51 0.254649 1.55529 0
M  V30 18400 C 1721.44 -0.674506 2.1905 0
M  V30 18401 C 1722.45 -1.13297 1.16909 0
M  V30 18402 O 1723.64 -1.0584 1.43736 0
M  V30 18403 C 1720.74 -1.92951 2.78609 0
M  V30 18404 C 1719.92 -1.62123 4.06245 0
M  V30 18405 C 1718.97 -2.72661 4.50047 0
M  V30 18406 O 1718 -2.39717 5.1626 0
M  V30 18407 N 1719.2 -4.02315 4.18477 0
M  V30 18408 H 1721.97 -0.130956 2.99414 0
M  V30 18409 H 1719.53 0.0749176 1.61727 0
M  V30 18410 H 1721.52 -2.66155 3.04866 0
M  V30 18411 H 1720.09 -2.38265 2.02358 0
M  V30 18412 H 1719.31 -0.723991 3.87495 0
M  V30 18413 H 1720.6 -1.39 4.89445 0
M  V30 18414 H 1720 -4.3191 3.65336 0
M  V30 18415 H 1718.55 -4.7196 4.49552 0
M  V30 18416 N 1721.99 -1.57589 -0.0183649 0
M  V30 18417 C 1722.95 -2.06217 -1.00035 0
M  V30 18418 C 1723.95 -0.968195 -1.28385 0
M  V30 18419 O 1725.14 -1.23147 -1.23209 0
M  V30 18420 C 1722.27 -2.48815 -2.33032 0
M  V30 18421 H 1723.46 -2.94236 -0.580085 0
M  V30 18422 H 1721.02 -1.5403 -0.265438 0
M  V30 18423 H 1721.75 -1.63985 -2.79785 0
M  V30 18424 H 1721.54 -3.28694 -2.13781 0
M  V30 18425 H 1723.03 -2.86828 -3.03512 0
M  V30 18426 N 1723.46 0.290824 -1.54893 0
M  V30 18427 C 1724.41 1.37898 -1.87315 0
M  V30 18428 C 1725.41 1.52001 -0.747794 0
M  V30 18429 O 1726.61 1.53998 -0.93192 0
M  V30 18430 H 1722.99 0.460824 -0.59426 0
M  V30 18431 H 1724.96 1.07794 -2.7825 0
M  V30 18432 C 1723.71 2.73568 -2.14606 0
M  V30 18433 H 1723.03 2.63501 -3.00678 0
M  V30 18434 H 1724.47 3.48693 -2.41225 0
M  V30 18435 C 1722.93 3.23291 -0.947865 0
M  V30 18436 O 1723.46 4.01325 -0.173479 0
M  V30 18437 N 1721.67 2.80743 -0.750444 0
M  V30 18438 H 1721.21 2.174 -1.38184 0
M  V30 18439 H 1721.17 3.14361 0.0496746 0
M  V30 18440 N 1724.94 1.47523 0.554506 0
M  V30 18441 C 1725.91 1.59761 1.64345 0
M  V30 18442 C 1726.91 0.472516 1.53701 0
M  V30 18443 O 1728.1 0.737659 1.57811 0
M  V30 18444 C 1725.23 1.54467 3.03896 0
M  V30 18445 H 1726.42 2.56834 1.54842 0
M  V30 18446 H 1723.97 1.35753 0.774643 0
M  V30 18447 H 1724.71 0.587789 3.18929 0
M  V30 18448 H 1724.49 2.36123 3.13031 0
M  V30 18449 H 1725.98 1.66174 3.83113 0
M  V30 18450 N 1726.42 -0.801453 1.357 0
M  V30 18451 C 1727.35 -1.92179 1.24899 0
M  V30 18452 C 1728.37 -1.61898 0.171131 0
M  V30 18453 O 1729.55 -1.73371 0.42484 0
M  V30 18454 C 1726.65 -3.26684 0.901706 0
M  V30 18455 C 1725.83 -3.84833 2.07899 0
M  V30 18456 C 1724.89 -4.97754 1.70667 0
M  V30 18457 O 1723.91 -5.14909 2.42605 0
M  V30 18458 N 1725.11 -5.77035 0.633294 0
M  V30 18459 H 1727.88 -2.0197 2.21423 0
M  V30 18460 H 1725.44 -0.979132 1.28936 0
M  V30 18461 H 1727.43 -3.99703 0.63402 0
M  V30 18462 H 1726 -3.12589 0.0259836 0
M  V30 18463 H 1725.22 -3.03947 2.51018 0
M  V30 18464 H 1726.51 -4.20415 2.86581 0
M  V30 18465 H 1725.91 -5.65689 0.0357078 0
M  V30 18466 H 1724.47 -6.5041 0.425402 0
M  V30 18467 N 1727.9 -1.19782 -1.02421 0
M  V30 18468 C 1728.83 -0.897544 -2.10895 0
M  V30 18469 C 1729.84 0.111644 -1.62417 0
M  V30 18470 O 1731.03 -0.118381 -1.78107 0
M  V30 18471 C 1728.13 -0.322714 -3.3736 0
M  V30 18472 C 1727.31 -1.38159 -4.15007 0
M  V30 18473 C 1726.36 -0.819462 -5.1978 0
M  V30 18474 O 1725.39 -1.4983 -5.49126 0
M  V30 18475 N 1726.59 0.374925 -5.79288 0
M  V30 18476 H 1729.36 -1.83127 -2.37243 0
M  V30 18477 H 1726.92 -1.10045 -1.1875 0
M  V30 18478 H 1728.91 0.0673046 -4.04644 0
M  V30 18479 H 1727.48 0.5154 -3.08322 0
M  V30 18480 H 1726.7 -1.94627 -3.42803 0
M  V30 18481 H 1727.99 -2.09496 -4.63669 0
M  V30 18482 H 1727.39 0.943856 -5.5777 0
M  V30 18483 H 1725.94 0.706668 -6.47958 0
M  V30 18484 N 1729.38 1.21606 -1.00248 0
M  V30 18485 C 1730.65 1.86191 -0.599348 0
M  V30 18486 C 1731.03 1.89847 0.923104 0
M  V30 18487 O 1730.38 1.39595 1.80902 0
M  V30 18488 C 1730.59 3.26576 -1.23082 0
M  V30 18489 C 1731.94 4.02989 -1.33736 0
M  V30 18490 O 1732.96 3.35877 -1.18595 0
M  V30 18491 O 1731.82 5.23142 -1.58065 0
M  V30 18492 H 1728.92 0.801204 -0.204943 0
M  V30 18493 H 1731.46 1.29309 -1.09897 0
M  V30 18494 H 1730.24 3.18601 -2.27176 0
M  V30 18495 H 1729.86 3.91074 -0.717394 0
M  V30 18496 N 1730.86 0.776895 1.37121 0
M  V30 18497 C 1732.1 0.342876 1.9917 0
M  V30 18498 C 1732.42 -1.08574 1.61977 0
M  V30 18499 O 1731.69 -1.74634 0.887689 0
M  V30 18500 H 1730.27 0.123788 0.736672 0
M  V30 18501 H 1732.94 0.996163 1.67519 0
M  V30 18502 H 1732.03 0.424637 3.09198 0
M  V30 18503 N 1732.33 -1.48497 0.527859 0
M  V30 18504 C 1733.28 -2.2959 -0.23607 0
M  V30 18505 C 1734.25 -1.37232 -0.935762 0
M  V30 18506 O 1735.44 -1.66196 -0.937202 0
M  V30 18507 C 1732.58 -3.20551 -1.27832 0
M  V30 18508 C 1731.69 -4.27984 -0.58769 0
M  V30 18509 C 1730.82 -5.06128 -1.61269 0
M  V30 18510 C 1729.86 -6.05367 -0.905404 0
M  V30 18511 N 1729 -6.76577 -1.87585 0
M  V30 18512 H 1733.84 -2.94403 0.461635 0
M  V30 18513 H 1731.38 -1.45137 0.239493 0
M  V30 18514 H 1733.33 -3.71686 -1.89488 0
M  V30 18515 H 1731.96 -2.57665 -1.94444 0
M  V30 18516 H 1731.02 -3.80132 0.142759 0
M  V30 18517 H 1732.33 -4.9879 -0.0322348 0
M  V30 18518 H 1731.48 -5.61266 -2.30359 0
M  V30 18519 H 1730.22 -4.35157 -2.20204 0
M  V30 18520 H 1729.23 -5.49435 -0.200426 0
M  V30 18521 H 1730.45 -6.78335 -0.322197 0
M  V30 18522 H 1728.4 -6.08358 -2.45432 0
M  V30 18523 H 1728.31 -7.4345 -1.37178 0
M  V30 18524 H 1729.58 -7.36305 -2.5588 0
M  V30 18525 N 1733.81 -0.262893 -1.55392 0
M  V30 18526 C 1735.09 0.408525 -1.91286 0
M  V30 18527 C 1735.47 1.74657 -1.18566 0
M  V30 18528 O 1734.82 2.26409 -0.308422 0
M  V30 18529 C 1735.03 0.560865 -3.44464 0
M  V30 18530 C 1736.37 0.849401 -4.16017 0
M  V30 18531 O 1737.4 0.646134 -3.50291 0
M  V30 18532 O 1736.26 1.23741 -5.32307 0
M  V30 18533 H 1733.35 0.221707 -0.796728 0
M  V30 18534 H 1735.9 -0.308143 -1.66879 0
M  V30 18535 H 1734.67 -0.381279 -3.89438 0
M  V30 18536 H 1734.29 1.32747 -3.74785 0
M  V30 18537 N 1735.29 1.57597 0.0100073 0
M  V30 18538 C 1736.52 1.9412 0.707165 0
M  V30 18539 C 1736.93 0.862669 1.68388 0
M  V30 18540 O 1736.27 -0.167949 1.82931 0
M  V30 18541 C 1736.33 3.26571 1.50306 0
M  V30 18542 C 1736 4.51776 0.689031 0
M  V30 18543 C 1736.99 5.19897 -0.018977 0
M  V30 18544 C 1734.68 4.98232 0.637951 0
M  V30 18545 C 1736.67 6.32766 -0.76716 0
M  V30 18546 C 1734.36 6.10994 -0.113964 0
M  V30 18547 C 1735.36 6.78117 -0.815262 0
M  V30 18548 O 1735.05 7.88719 -1.55493 0
M  V30 18549 H 1734.78 0.644932 0.202579 0
M  V30 18550 H 1737.33 2.05372 -0.0341978 0
M  V30 18551 H 1735.56 3.11699 2.28868 0
M  V30 18552 H 1737.25 3.4828 2.08461 0
M  V30 18553 H 1738.02 4.84999 0.0113968 0
M  V30 18554 H 1733.9 4.45818 1.17333 0
M  V30 18555 H 1737.44 6.85092 -1.31508 0
M  V30 18556 H 1733.34 6.45334 -0.146194 0
M  V30 18557 H 1734.1 8.05181 -1.47059 0
M  V30 18558 N 1736.77 -0.282606 1.55045 0
M  V30 18559 C 1738.02 -1.0132 1.74405 0
M  V30 18560 C 1738.33 -1.87792 0.547133 0
M  V30 18561 O 1739.54 -2.64257 0.622931 0
M  V30 18562 C 1737.99 -1.85128 3.08635 0
M  V30 18563 C 1737.6 -1.0357 4.35864 0
M  V30 18564 C 1739.34 -2.57676 3.37347 0
M  V30 18565 C 1737.25 -1.86761 5.61137 0
M  V30 18566 H 1736.18 -0.382013 0.650063 0
M  V30 18567 H 1738.83 -0.269307 1.81513 0
M  V30 18568 H 1737.21 -2.63576 2.95539 0
M  V30 18569 H 1738.39 -0.296061 4.59848 0
M  V30 18570 H 1736.7 -0.425208 4.14223 0
M  V30 18571 H 1739.3 -3.20303 4.28147 0
M  V30 18572 H 1739.64 -3.27464 2.57046 0
M  V30 18573 H 1740.18 -1.86264 3.51497 0
M  V30 18574 H 1736.91 -1.2141 6.44158 0
M  V30 18575 H 1736.43 -2.58348 5.4131 0
M  V30 18576 H 1738.11 -2.44361 5.9908 0
M  V30 18577 N 1738.25 -1.47815 -0.546675 0
M  V30 18578 C 1739.49 -1.5521 -1.30529 0
M  V30 18579 C 1739.82 -0.218129 -1.92971 0
M  V30 18580 O 1739.1 0.774298 -1.78423 0
M  V30 18581 C 1739.38 -2.67799 -2.40739 0
M  V30 18582 C 1739.24 -4.10847 -1.83097 0
M  V30 18583 C 1740.55 -2.76238 -3.42608 0
M  V30 18584 H 1737.67 -0.564998 -0.473229 0
M  V30 18585 H 1740.32 -1.79917 -0.610713 0
M  V30 18586 H 1738.47 -2.46863 -2.99985 0
M  V30 18587 H 1740.14 -4.43177 -1.28031 0
M  V30 18588 H 1738.38 -4.1863 -1.13716 0
M  V30 18589 H 1739.05 -4.85418 -2.62818 0
M  V30 18590 H 1741.53 -2.95156 -2.93296 0
M  V30 18591 H 1740.4 -3.56774 -4.17137 0
M  V30 18592 H 1740.66 -1.83719 -4.02119 0
M  V30 18593 N 1739.72 0.794246 -1.36123 0
M  V30 18594 C 1740.65 1.92105 -1.32732 0
M  V30 18595 C 1741.63 1.68925 -0.199603 0
M  V30 18596 O 1742.82 1.90109 -0.396498 0
M  V30 18597 C 1739.95 3.29051 -1.11098 0
M  V30 18598 C 1738.9 3.66743 -2.20643 0
M  V30 18599 C 1738.23 5.01986 -1.84159 0
M  V30 18600 C 1739.53 3.75831 -3.62696 0
M  V30 18601 H 1741.22 1.952 -2.27018 0
M  V30 18602 H 1738.77 0.937746 -1.09281 0
M  V30 18603 H 1740.72 4.07494 -1.07362 0
M  V30 18604 H 1739.45 3.26331 -0.132614 0
M  V30 18605 H 1738.11 2.90594 -2.23497 0
M  V30 18606 H 1737.75 4.95782 -0.849081 0
M  V30 18607 H 1737.45 5.28175 -2.57497 0
M  V30 18608 H 1738.98 5.82855 -1.8197 0
M  V30 18609 H 1740.39 4.44476 -3.62096 0
M  V30 18610 H 1738.79 4.135 -4.34899 0
M  V30 18611 H 1739.86 2.7706 -3.97952 0
M  V30 18612 N 1741.2 1.20323 1.01785 0
M  V30 18613 C 1742.61 1.01326 1.56812 0
M  V30 18614 C 1742.96 -0.430709 1.91414 0
M  V30 18615 O 1742.09 -1.31191 1.72098 0
M  V30 18616 C 1742.68 1.83304 2.8493 0
M  V30 18617 C 1741.24 1.68676 3.3649 0
M  V30 18618 C 1740.39 1.81315 2.0981 0
M  V30 18619 H 1743.34 1.34533 0.841815 0
M  V30 18620 H 1743.36 1.33567 3.56286 0
M  V30 18621 H 1742.87 2.88392 2.59714 0
M  V30 18622 H 1740.97 0.662195 3.66668 0
M  V30 18623 H 1741.09 2.49877 4.08777 0
M  V30 18624 H 1739.45 1.24488 2.22204 0
M  V30 18625 H 1740.23 2.87885 1.87022 0
M  V30 18626 N 1742.68 -1.21073 1.00892 0
M  V30 18627 C 1743.93 -1.89559 0.689214 0
M  V30 18628 C 1744.24 -1.79211 -0.783753 0
M  V30 18629 O 1745.45 -2.42761 -1.2157 0
M  V30 18630 C 1743.9 -3.39925 1.18232 0
M  V30 18631 C 1743.51 -3.58876 2.68164 0
M  V30 18632 C 1745.26 -4.14014 0.937683 0
M  V30 18633 C 1743.16 -5.03027 3.10995 0
M  V30 18634 H 1742.09 -0.709895 0.254098 0
M  V30 18635 H 1744.74 -1.37017 1.2206 0
M  V30 18636 H 1743.13 -3.91745 0.578961 0
M  V30 18637 H 1744.3 -3.17478 3.33983 0
M  V30 18638 H 1742.61 -2.98146 2.90685 0
M  V30 18639 H 1745.21 -5.20285 1.23319 0
M  V30 18640 H 1745.55 -4.16109 -0.126003 0
M  V30 18641 H 1746.09 -3.68271 1.50403 0
M  V30 18642 H 1742.83 -5.06082 4.16607 0
M  V30 18643 H 1742.35 -5.45266 2.49891 0
M  V30 18644 H 1744.03 -5.7156 3.03197 0
M  V30 18645 N 1744.16 -0.784156 -1.36707 0
M  V30 18646 C 1745.38 -0.364744 -2.04168 0
M  V30 18647 C 1745.81 1.00905 -1.58745 0
M  V30 18648 O 1745.17 1.64903 -0.753447 0
M  V30 18649 C 1745.21 -0.43091 -3.58016 0
M  V30 18650 O 1744.32 0.564103 -4.08524 0
M  V30 18651 H 1743.66 -0.15576 -0.645473 0
M  V30 18652 H 1746.19 -1.0638 -1.74769 0
M  V30 18653 H 1746.2 -0.292629 -4.06949 0
M  V30 18654 H 1744.87 -1.43308 -3.9043 0
M  V30 18655 H 1743.45 0.387917 -3.70877 0
M  V30 18656 N 1745.64 1.48215 -0.535727 0
M  V30 18657 C 1746.55 2.33494 0.227577 0
M  V30 18658 C 1747.56 1.4685 0.933327 0
M  V30 18659 O 1748.74 1.7982 0.907008 0
M  V30 18660 C 1745.8 3.23092 1.25747 0
M  V30 18661 C 1744.86 4.25613 0.561454 0
M  V30 18662 C 1744.1 5.1093 1.54228 0
M  V30 18663 O 1744.32 4.98325 2.77539 0
M  V30 18664 O 1743.25 5.92158 1.07852 0
M  V30 18665 H 1747.08 3.0002 -0.471375 0
M  V30 18666 H 1744.67 1.46427 -0.296579 0
M  V30 18667 H 1746.55 3.78498 1.8525 0
M  V30 18668 H 1745.22 2.5922 1.93872 0
M  V30 18669 H 1744.13 3.74026 -0.0742194 0
M  V30 18670 H 1745.46 4.92138 -0.0779649 0
M  V30 18671 N 1747.11 0.27113 1.5525 0
M  V30 18672 C 1748.34 -0.350248 2.03914 0
M  V30 18673 C 1748.76 -1.49763 1.14963 0
M  V30 18674 O 1748.11 -1.81717 0.168923 0
M  V30 18675 C 1748.17 -0.835056 3.51723 0
M  V30 18676 O 1747.89 0.266625 4.37288 0
M  V30 18677 C 1749.39 -1.52466 4.16256 0
M  V30 18678 H 1746.61 -0.0803955 0.666166 0
M  V30 18679 H 1749.15 0.402063 2.00509 0
M  V30 18680 H 1747.31 -1.53747 3.55585 0
M  V30 18681 H 1747.72 -0.105433 5.24394 0
M  V30 18682 H 1749.19 -1.81534 5.21296 0
M  V30 18683 H 1749.67 -2.45485 3.64189 0
M  V30 18684 H 1750.28 -0.8662 4.16386 0
M  V30 18685 N 1748.59 -1.576 -0.00164943 0
M  V30 18686 C 1749.52 -2.11354 -0.992554 0
M  V30 18687 C 1750.5 -1.0223 -1.35952 0
M  V30 18688 O 1751.69 -1.29904 -1.44356 0
M  V30 18689 C 1748.82 -2.61549 -2.28494 0
M  V30 18690 C 1747.77 -3.75185 -2.05962 0
M  V30 18691 C 1747.1 -4.11688 -3.412 0
M  V30 18692 C 1748.4 -5.02526 -1.42355 0
M  V30 18693 H 1750.09 -2.94398 -0.544986 0
M  V30 18694 H 1747.64 -1.4162 -0.260702 0
M  V30 18695 H 1749.59 -2.97782 -2.98168 0
M  V30 18696 H 1748.32 -1.75625 -2.75361 0
M  V30 18697 H 1746.97 -3.39343 -1.38714 0
M  V30 18698 H 1746.62 -3.22789 -3.85767 0
M  V30 18699 H 1746.32 -4.88246 -3.2694 0
M  V30 18700 H 1747.85 -4.50478 -4.12192 0
M  V30 18701 H 1749.26 -5.3654 -2.01984 0
M  V30 18702 H 1747.66 -5.83878 -1.38589 0
M  V30 18703 H 1748.73 -4.83308 -0.392565 0
M  V30 18704 N 1750.07 0.274379 -1.55193 0
M  V30 18705 C 1751.3 1.02871 -1.8009 0
M  V30 18706 C 1751.72 1.79202 -0.571676 0
M  V30 18707 O 1751.08 1.74867 0.478679 0
M  V30 18708 C 1751.13 1.96406 -3.02418 0
M  V30 18709 O 1750.23 3.05154 -2.77408 0
M  V30 18710 H 1749.57 0.294181 -0.595276 0
M  V30 18711 H 1752.1 0.303708 -2.02333 0
M  V30 18712 H 1752.11 2.38385 -3.31114 0
M  V30 18713 H 1750.79 1.40261 -3.91535 0
M  V30 18714 H 1749.36 2.675 -2.59805 0
M  V30 18715 N 1751.55 1.48103 0.538828 0
M  V30 18716 C 1752.48 1.56526 1.66057 0
M  V30 18717 C 1753.46 0.416225 1.57182 0
M  V30 18718 O 1754.64 0.626601 1.77781 0
M  V30 18719 C 1751.77 1.485 3.0441 0
M  V30 18720 C 1750.82 2.68135 3.31672 0
M  V30 18721 S 1751.65 4.30182 3.1891 0
M  V30 18722 C 1752.81 4.24739 4.59725 0
M  V30 18723 H 1753.04 2.51425 1.5866 0
M  V30 18724 H 1750.57 1.36527 0.721101 0
M  V30 18725 H 1752.53 1.44556 3.84206 0
M  V30 18726 H 1751.19 0.549541 3.09255 0
M  V30 18727 H 1750.38 2.58633 4.3258 0
M  V30 18728 H 1749.99 2.69296 2.5953 0
M  V30 18729 H 1752.28 3.94127 5.51063 0
M  V30 18730 H 1753.22 5.25796 4.74283 0
M  V30 18731 H 1753.63 3.55332 4.38634 0
M  V30 18732 N 1753.03 -0.787016 1.36542 0
M  V30 18733 C 1753.94 -1.93103 1.33223 0
M  V30 18734 C 1754.95 -1.72419 0.234047 0
M  V30 18735 O 1756.13 -1.95915 0.466828 0
M  V30 18736 C 1753.19 -3.28002 1.12319 0
M  V30 18737 C 1752.25 -3.61447 2.31635 0
M  V30 18738 C 1751.49 -4.89909 2.11719 0
M  V30 18739 O 1751.71 -5.59818 1.0936 0
M  V30 18740 O 1750.64 -5.22065 2.99552 0
M  V30 18741 H 1754.47 -1.98853 2.29545 0
M  V30 18742 H 1752.06 -0.92761 1.17114 0
M  V30 18743 H 1753.94 -4.08722 1.02589 0
M  V30 18744 H 1752.61 -3.23138 0.19061 0
M  V30 18745 H 1751.52 -2.81024 2.46934 0
M  V30 18746 H 1752.85 -3.71037 3.23407 0
M  V30 18747 N 1754.5 -1.20861 -1.01145 0
M  V30 18748 C 1755.41 -0.977926 -2.13246 0
M  V30 18749 C 1756.43 0.0678862 -1.73868 0
M  V30 18750 O 1757.61 -0.120717 -2.01038 0
M  V30 18751 C 1754.67 -0.538575 -3.42491 0
M  V30 18752 C 1753.73 -1.65584 -3.96081 0
M  V30 18753 C 1752.97 -1.23736 -5.19158 0
M  V30 18754 O 1753.19 -0.108227 -5.70297 0
M  V30 18755 O 1752.12 -2.04679 -5.6603 0
M  V30 18756 H 1755.95 -1.91666 -2.3558 0
M  V30 18757 H 1753.53 -0.992931 -1.1163 0
M  V30 18758 H 1755.42 -0.303041 -4.20309 0
M  V30 18759 H 1754.09 0.371515 -3.21561 0
M  V30 18760 H 1753 -1.94572 -3.19519 0
M  V30 18761 H 1754.33 -2.54313 -4.21409 0
M  V30 18762 N 1755.98 1.20536 -1.01532 0
M  V30 18763 C 1757.26 1.85545 -0.619063 0
M  V30 18764 C 1757.64 1.90816 0.902916 0
M  V30 18765 O 1756.99 1.41506 1.79411 0
M  V30 18766 C 1757.2 3.25252 -1.26539 0
M  V30 18767 C 1758.55 4.01547 -1.38003 0
M  V30 18768 O 1759.57 3.34601 -1.22151 0
M  V30 18769 O 1758.43 5.21436 -1.63605 0
M  V30 18770 H 1755.52 0.798985 -0.21343 0
M  V30 18771 H 1758.07 1.28136 -1.11262 0
M  V30 18772 H 1756.84 3.16174 -2.30542 0
M  V30 18773 H 1756.46 3.90292 -0.758833 0
M  V30 18774 N 1757.46 0.791395 1.36289 0
M  V30 18775 C 1758.69 0.375566 2.03971 0
M  V30 18776 C 1759.11 -1.00061 1.59277 0
M  V30 18777 O 1758.47 -1.64501 0.762182 0
M  V30 18778 C 1758.52 0.449891 3.57783 0
M  V30 18779 O 1757.62 -0.54243 4.08817 0
M  V30 18780 H 1756.96 0.159181 0.644637 0
M  V30 18781 H 1759.49 1.07306 1.74203 0
M  V30 18782 H 1759.5 0.314206 4.06788 0
M  V30 18783 H 1758.18 1.45377 3.89665 0
M  V30 18784 H 1756.75 -0.368243 3.71077 0
M  V30 18785 N 1758.94 -1.47929 0.54358 0
M  V30 18786 C 1760.19 -2.02095 0.0144379 0
M  V30 18787 C 1760.51 -1.42166 -1.33469 0
M  V30 18788 O 1759.78 -0.591899 -1.86744 0
M  V30 18789 H 1758.36 -0.746996 0.00234858 0
M  V30 18790 H 1761.02 -1.81488 0.710498 0
M  V30 18791 H 1760.12 -3.11987 -0.0838074 0
M  V30 18792 N 1760.42 -0.27936 -1.55104 0
M  V30 18793 C 1761.35 0.599831 -2.25664 0
M  V30 18794 C 1762.33 1.15548 -1.24831 0
M  V30 18795 O 1763.51 1.18883 -1.53559 0
M  V30 18796 C 1760.64 1.78202 -2.98096 0
M  V30 18797 C 1759.6 1.35771 -4.05894 0
M  V30 18798 C 1758.92 2.62334 -4.65924 0
M  V30 18799 C 1760.22 0.504795 -5.19855 0
M  V30 18800 H 1761.92 0.0113761 -2.99398 0
M  V30 18801 H 1759.46 0.00403149 -1.43999 0
M  V30 18802 H 1761.42 2.403 -3.4617 0
M  V30 18803 H 1760.14 2.39637 -2.21905 0
M  V30 18804 H 1758.8 0.75991 -3.58638 0
M  V30 18805 H 1758.45 3.22036 -3.86396 0
M  V30 18806 H 1758.15 2.34654 -5.38713 0
M  V30 18807 H 1759.67 3.25273 -5.16749 0
M  V30 18808 H 1761.09 1.03089 -5.63955 0
M  V30 18809 H 1759.48 0.322696 -5.99232 0
M  V30 18810 H 1760.55 -0.475409 -4.82564 0
M  V30 18811 N 1761.9 1.57599 -0.0067085 0
M  V30 18812 C 1763.12 1.95545 0.69115 0
M  V30 18813 C 1763.55 0.882014 1.66139 0
M  V30 18814 O 1762.9 -0.159242 1.80599 0
M  V30 18815 C 1762.95 3.3259 1.39342 0
M  V30 18816 O 1762.06 3.27368 2.50806 0
M  V30 18817 H 1761.4 0.638188 0.183336 0
M  V30 18818 H 1763.93 2.04506 -0.0618957 0
M  V30 18819 H 1763.94 3.6831 1.75532 0
M  V30 18820 H 1762.61 4.10269 0.682072 0
M  V30 18821 H 1761.19 3.03334 2.16894 0
M  V30 18822 N 1763.37 -0.266145 1.55336 0
M  V30 18823 C 1764.3 -1.33322 1.91697 0
M  V30 18824 C 1765.28 -1.51182 0.77961 0
M  V30 18825 O 1766.47 -1.64112 1.03832 0
M  V30 18826 C 1763.6 -2.69151 2.19488 0
M  V30 18827 C 1762.55 -2.66012 3.35293 0
M  V30 18828 C 1761.88 -4.05458 3.4858 0
M  V30 18829 C 1763.18 -2.24681 4.71504 0
M  V30 18830 H 1764.87 -1.03138 2.81075 0
M  V30 18831 H 1762.42 -0.494702 1.35236 0
M  V30 18832 H 1764.37 -3.43918 2.43512 0
M  V30 18833 H 1763.1 -3.00932 1.26916 0
M  V30 18834 H 1761.76 -1.93703 3.11247 0
M  V30 18835 H 1761.4 -4.34472 2.53462 0
M  V30 18836 H 1761.1 -4.04251 4.26445 0
M  V30 18837 H 1762.63 -4.81954 3.74904 0
M  V30 18838 H 1764.04 -2.89173 4.95027 0
M  V30 18839 H 1762.44 -2.34622 5.52334 0
M  V30 18840 H 1763.51 -1.19819 4.69863 0
M  V30 18841 N 1764.85 -1.48386 -0.530967 0
M  V30 18842 C 1766.26 -1.49904 -1.11291 0
M  V30 18843 C 1766.61 -0.268276 -1.94357 0
M  V30 18844 O 1765.74 0.624676 -2.07188 0
M  V30 18845 C 1766.33 -2.71622 -2.02501 0
M  V30 18846 C 1764.89 -2.76015 -2.55916 0
M  V30 18847 C 1764.04 -2.43403 -1.32855 0
M  V30 18848 H 1766.99 -1.55517 -0.316269 0
M  V30 18849 H 1767.01 -2.50084 -2.86772 0
M  V30 18850 H 1766.52 -3.61182 -1.42017 0
M  V30 18851 H 1764.62 -1.9066 -3.20124 0
M  V30 18852 H 1764.74 -3.77416 -2.95116 0
M  V30 18853 H 1763.1 -1.94537 -1.644 0
M  V30 18854 H 1763.88 -3.35202 -0.741242 0
M  V30 18855 N 1766.33 0.779763 -1.36958 0
M  V30 18856 C 1767.56 1.56875 -1.34899 0
M  V30 18857 C 1767.97 1.88679 0.0675345 0
M  V30 18858 O 1767.33 1.50852 1.02712 0
M  V30 18859 C 1767.38 2.88391 -2.17975 0
M  V30 18860 O 1767.1 2.57954 -3.54107 0
M  V30 18861 C 1768.6 3.82657 -2.23805 0
M  V30 18862 H 1765.82 0.486262 -0.462374 0
M  V30 18863 H 1768.37 0.967072 -1.80189 0
M  V30 18864 H 1766.52 3.45003 -1.76215 0
M  V30 18865 H 1766.94 3.42115 -3.97564 0
M  V30 18866 H 1768.41 4.71967 -2.86272 0
M  V30 18867 H 1768.89 4.21208 -1.24421 0
M  V30 18868 H 1769.49 3.31976 -2.65843 0
M  V30 18869 N 1767.81 1.21396 1.00503 0
M  V30 18870 C 1769.03 1.05791 1.7839 0
M  V30 18871 C 1769.46 -0.387921 1.84056 0
M  V30 18872 O 1768.82 -1.27983 1.28413 0
M  V30 18873 C 1768.86 1.65967 3.20137 0
M  V30 18874 O 1767.97 0.905123 4.02345 0
M  V30 18875 H 1767.31 0.372331 0.549787 0
M  V30 18876 H 1769.84 1.60938 1.26334 0
M  V30 18877 H 1769.85 1.70186 3.70811 0
M  V30 18878 H 1768.52 2.71185 3.15327 0
M  V30 18879 H 1767.1 0.938019 3.60909 0
M  V30 18880 N 1769.29 -1.19996 1.0217 0
M  V30 18881 C 1770.7 -1.71202 0.744777 0
M  V30 18882 C 1771.05 -1.81862 -0.736238 0
M  V30 18883 O 1770.17 -1.48475 -1.5743 0
M  V30 18884 C 1770.77 -3.10945 1.34531 0
M  V30 18885 C 1769.33 -3.5944 1.11714 0
M  V30 18886 C 1768.47 -2.36501 1.44784 0
M  V30 18887 H 1771.42 -1.04938 1.19054 0
M  V30 18888 H 1771.45 -3.73264 0.738531 0
M  V30 18889 H 1770.96 -3.03154 2.42321 0
M  V30 18890 H 1769.06 -3.72556 0.0571346 0
M  V30 18891 H 1769.17 -4.43969 1.80079 0
M  V30 18892 H 1767.54 -2.3949 0.866981 0
M  V30 18893 H 1768.32 -2.31347 2.53641 0
M  V30 18894 N 1770.76 -0.798611 -1.35867 0
M  V30 18895 C 1772.01 -0.375816 -1.99287 0
M  V30 18896 C 1772.34 1.05223 -1.63223 0
M  V30 18897 O 1771.62 1.72862 -0.891576 0
M  V30 18898 C 1771.9 -0.550197 -3.55872 0
M  V30 18899 C 1771.75 -2.0226 -4.0176 0
M  V30 18900 C 1773.07 0.0290862 -4.4009 0
M  V30 18901 H 1770.19 -0.138024 -0.72396 0
M  V30 18902 H 1772.83 -1.00666 -1.61141 0
M  V30 18903 H 1770.98 -0.0131739 -3.88498 0
M  V30 18904 H 1772.66 -2.62139 -3.7958 0
M  V30 18905 H 1770.9 -2.52191 -3.52962 0
M  V30 18906 H 1771.57 -2.09553 -5.10678 0
M  V30 18907 H 1774.05 -0.429444 -4.13878 0
M  V30 18908 H 1772.92 -0.122894 -5.48762 0
M  V30 18909 H 1773.18 1.12206 -4.27624 0
M  V30 18910 N 1772.24 1.47639 -0.551417 0
M  V30 18911 C 1773.47 2.07381 -0.0278888 0
M  V30 18912 C 1773.89 1.40223 1.25375 0
M  V30 18913 O 1773.25 0.475268 1.7496 0
M  V30 18914 C 1773.3 3.60258 0.157001 0
M  V30 18915 O 1772.4 3.93913 1.2209 0
M  V30 18916 H 1771.74 0.66221 -0.0487252 0
M  V30 18917 H 1774.27 1.89742 -0.765449 0
M  V30 18918 H 1774.28 4.06291 0.373013 0
M  V30 18919 H 1772.96 4.08537 -0.779122 0
M  V30 18920 H 1771.53 3.59633 0.985843 0
M  V30 18921 N 1773.72 0.287581 1.54954 0
M  V30 18922 C 1774.96 -0.326648 2.01773 0
M  V30 18923 C 1775.32 -1.52113 1.17156 0
M  V30 18924 O 1776.53 -2.20583 1.53612 0
M  V30 18925 C 1774.8 -0.687249 3.5073 0
M  V30 18926 S 1776.36 -1.28624 4.19525 0
M  V30 18927 H 1773.17 -0.100972 0.703794 0
M  V30 18928 H 1775.78 0.412325 1.91102 0
M  V30 18929 H 1774.48 0.190782 4.09956 0
M  V30 18930 H 1774.01 -1.45736 3.6541 0
M  V30 18931 H 1776.03 -2.5745 4.24186 0
M  V30 18932 N 1775.2 -1.57593 0.0150662 0
M  V30 18933 C 1776.13 -2.04839 -1.0058 0
M  V30 18934 C 1777.11 -0.941261 -1.32586 0
M  V30 18935 O 1778.29 -1.21053 -1.44493 0
M  V30 18936 C 1775.42 -2.45866 -2.32954 0
M  V30 18937 C 1774.47 -3.6746 -2.16507 0
M  V30 18938 S 1775.3 -5.14728 -1.477 0
M  V30 18939 C 1776.46 -5.59038 -2.81473 0
M  V30 18940 H 1776.69 -2.91109 -0.603575 0
M  V30 18941 H 1774.22 -1.53148 -0.196235 0
M  V30 18942 H 1776.18 -2.7017 -3.09061 0
M  V30 18943 H 1774.84 -1.59967 -2.70313 0
M  V30 18944 H 1774.03 -3.93967 -3.14334 0
M  V30 18945 H 1773.64 -3.43235 -1.48545 0
M  V30 18946 H 1775.93 -5.62419 -3.77745 0
M  V30 18947 H 1776.87 -6.58778 -2.59648 0
M  V30 18948 H 1777.28 -4.86643 -2.86075 0
M  V30 18949 N 1776.68 0.257904 -1.55475 0
M  V30 18950 C 1777.59 1.34084 -1.92506 0
M  V30 18951 C 1778.6 1.53246 -0.824123 0
M  V30 18952 O 1779.78 1.67081 -1.12455 0
M  V30 18953 C 1776.84 2.67741 -2.20263 0
M  V30 18954 C 1775.9 2.57196 -3.43728 0
M  V30 18955 C 1775.14 3.84479 -3.7015 0
M  V30 18956 O 1775.36 4.85858 -2.98827 0
M  V30 18957 O 1774.29 3.83774 -4.63682 0
M  V30 18958 H 1778.12 1.05672 -2.84723 0
M  V30 18959 H 1775.71 0.457726 -1.42215 0
M  V30 18960 H 1777.59 3.46743 -2.39473 0
M  V30 18961 H 1776.26 2.95907 -1.31227 0
M  V30 18962 H 1775.17 1.76518 -3.29837 0
M  V30 18963 H 1776.5 2.33977 -4.33031 0
M  V30 18964 N 1778.15 1.48666 0.52309 0
M  V30 18965 C 1779.06 1.66396 1.65377 0
M  V30 18966 C 1780.08 0.546469 1.65196 0
M  V30 18967 O 1781.26 0.818413 1.84022 0
M  V30 18968 C 1778.32 1.70602 3.01821 0
M  V30 18969 C 1777.38 2.94028 3.12803 0
M  V30 18970 C 1776.62 2.98024 4.42739 0
M  V30 18971 O 1776.84 2.10232 5.30244 0
M  V30 18972 O 1775.77 3.90266 4.58231 0
M  V30 18973 H 1779.6 2.62138 1.53354 0
M  V30 18974 H 1777.18 1.32148 0.696948 0
M  V30 18975 H 1779.07 1.75849 3.82956 0
M  V30 18976 H 1777.74 0.780346 3.14153 0
M  V30 18977 H 1776.65 2.9431 2.30938 0
M  V30 18978 H 1777.98 3.86003 3.0539 0
M  V30 18979 N 1779.63 -0.772489 1.37369 0
M  V30 18980 C 1780.54 -1.91679 1.35263 0
M  V30 18981 C 1781.56 -1.72161 0.252321 0
M  V30 18982 O 1782.73 -1.95409 0.487581 0
M  V30 18983 C 1779.8 -3.26792 1.15792 0
M  V30 18984 C 1778.86 -3.5897 2.35455 0
M  V30 18985 C 1778.09 -4.87636 2.16903 0
M  V30 18986 O 1778.32 -5.58627 1.15291 0
M  V30 18987 O 1777.25 -5.18859 3.05072 0
M  V30 18988 H 1781.08 -1.96408 2.31641 0
M  V30 18989 H 1778.66 -0.915136 1.18092 0
M  V30 18990 H 1780.54 -4.07611 1.06918 0
M  V30 18991 H 1779.22 -3.22918 0.224872 0
M  V30 18992 H 1778.13 -2.78389 2.49901 0
M  V30 18993 H 1779.46 -3.67586 3.27325 0
M  V30 18994 N 1781.11 -1.21927 -0.998575 0
M  V30 18995 C 1782.02 -1.00049 -2.12197 0
M  V30 18996 C 1783.04 0.0494414 -1.7393 0
M  V30 18997 O 1784.21 -0.142033 -2.00899 0
M  V30 18998 C 1781.28 -0.574871 -3.41901 0
M  V30 18999 C 1780.34 -1.69776 -3.94303 0
M  V30 19000 C 1779.57 -1.29236 -5.17816 0
M  V30 19001 O 1779.79 -0.168709 -5.7015 0
M  V30 19002 O 1778.73 -2.10671 -5.63827 0
M  V30 19003 H 1782.55 -1.94154 -2.33534 0
M  V30 19004 H 1780.14 -1.00472 -1.10571 0
M  V30 19005 H 1782.02 -0.347603 -4.19964 0
M  V30 19006 H 1780.7 0.337389 -3.21937 0
M  V30 19007 H 1779.6 -1.9795 -3.17438 0
M  V30 19008 H 1780.94 -2.58768 -4.18688 0
M  V30 19009 N 1782.59 1.19452 -1.02805 0
M  V30 19010 C 1783.83 1.89394 -0.725101 0
M  V30 19011 C 1784.17 1.79368 0.744361 0
M  V30 19012 O 1783.44 1.18548 1.54196 0
M  V30 19013 C 1783.73 3.40361 -1.17586 0
M  V30 19014 C 1783.58 3.59263 -2.70648 0
M  V30 19015 C 1784.9 4.33558 -0.756011 0
M  V30 19016 H 1782.02 0.687753 -0.264887 0
M  V30 19017 H 1784.66 1.40611 -1.27783 0
M  V30 19018 H 1782.81 3.82038 -0.70561 0
M  V30 19019 H 1784.48 3.26762 -3.25614 0
M  V30 19020 H 1782.72 3.02344 -3.1108 0
M  V30 19021 H 1783.39 4.65135 -2.97244 0
M  V30 19022 H 1785.87 3.9959 -1.16046 0
M  V30 19023 H 1784.75 5.37779 -1.09931 0
M  V30 19024 H 1785.01 4.40778 0.341677 0
M  V30 19025 N 1784.07 0.805805 1.35442 0
M  V30 19026 C 1785.31 0.391434 2.00617 0
M  V30 19027 C 1785.67 -1.022 1.6254 0
M  V30 19028 O 1786.87 -1.53834 2.20428 0
M  V30 19029 C 1785.14 0.568324 3.52852 0
M  V30 19030 S 1786.7 0.24426 4.3812 0
M  V30 19031 H 1783.52 0.148698 0.695277 0
M  V30 19032 H 1786.12 1.04788 1.65044 0
M  V30 19033 H 1784.83 1.59702 3.78052 0
M  V30 19034 H 1784.36 -0.103475 3.93264 0
M  V30 19035 H 1786.37 -0.948351 4.87053 0
M  V30 19036 N 1785.54 -1.47344 0.559239 0
M  V30 19037 C 1786.82 -1.95577 -0.0298268 0
M  V30 19038 C 1787.2 -1.50185 -1.4835 0
M  V30 19039 O 1786.55 -0.74162 -2.1613 0
M  V30 19040 C 1786.76 -3.48801 0.117767 0
M  V30 19041 C 1788.11 -4.24592 -0.026535 0
M  V30 19042 O 1789.13 -3.56171 0.0454163 0
M  V30 19043 O 1787.99 -5.46198 -0.181675 0
M  V30 19044 H 1785.08 -0.824597 -0.0629972 0
M  V30 19045 H 1787.63 -1.57736 0.625905 0
M  V30 19046 H 1786.4 -3.74652 1.12924 0
M  V30 19047 H 1786.03 -3.93413 -0.575483 0
M  V30 19048 N 1787.02 -0.295795 -1.54799 0
M  V30 19049 C 1788.43 0.19789 -1.85648 0
M  V30 19050 C 1788.78 1.53834 -1.21776 0
M  V30 19051 O 1787.91 2.10218 -0.513554 0
M  V30 19052 C 1788.5 0.365844 -3.36819 0
M  V30 19053 C 1787.06 0.80375 -3.67718 0
M  V30 19054 C 1786.21 -0.0909572 -2.77151 0
M  V30 19055 H 1789.16 -0.516968 -1.50044 0
M  V30 19056 H 1789.18 1.20123 -3.61041 0
M  V30 19057 H 1788.69 -0.60991 -3.83278 0
M  V30 19058 H 1786.8 1.79024 -3.26774 0
M  V30 19059 H 1786.91 0.626745 -4.74983 0
M  V30 19060 H 1785.27 0.428882 -2.51063 0
M  V30 19061 H 1786.06 -1.06297 -3.26429 0
M  V30 19062 N 1788.5 1.57583 -0.0234236 0
M  V30 19063 C 1789.45 2.09872 0.960327 0
M  V30 19064 C 1790.42 0.999466 1.32665 0
M  V30 19065 O 1791.6 1.27332 1.42095 0
M  V30 19066 C 1788.74 2.62578 2.23935 0
M  V30 19067 C 1787.86 3.86491 1.92999 0
M  V30 19068 C 1786.99 4.27611 3.15154 0
M  V30 19069 C 1786.03 5.44298 2.80011 0
M  V30 19070 N 1785.17 5.80601 3.94775 0
M  V30 19071 H 1790.01 2.93647 0.507502 0
M  V30 19072 H 1787.54 1.45147 0.238911 0
M  V30 19073 H 1789.5 2.91223 2.98739 0
M  V30 19074 H 1788.13 1.81643 2.66844 0
M  V30 19075 H 1787.18 3.6461 1.08462 0
M  V30 19076 H 1788.5 4.71377 1.63112 0
M  V30 19077 H 1787.65 4.57663 3.98284 0
M  V30 19078 H 1786.39 3.41481 3.48198 0
M  V30 19079 H 1785.39 5.13946 1.95293 0
M  V30 19080 H 1786.62 6.32122 2.4819 0
M  V30 19081 H 1784.57 4.97427 4.27671 0
M  V30 19082 H 1784.48 6.60113 3.68492 0
M  V30 19083 H 1785.75 6.15255 4.78624 0
M  V30 19084 N 1789.98 -0.249655 1.5561 0
M  V30 19085 C 1791.23 -0.97808 1.77313 0
M  V30 19086 C 1791.55 -1.85423 0.587253 0
M  V30 19087 O 1790.81 -1.90928 -0.429527 0
M  V30 19088 C 1791.11 -1.87138 3.0449 0
M  V30 19089 C 1790.77 -1.15081 4.35967 0
M  V30 19090 C 1789.44 -0.95166 4.71696 0
M  V30 19091 C 1791.79 -0.639877 5.17257 0
M  V30 19092 C 1789.12 -0.229227 5.86252 0
M  V30 19093 C 1791.47 0.0690756 6.32562 0
M  V30 19094 C 1790.13 0.279731 6.66914 0
M  V30 19095 H 1789.4 -0.357905 0.648834 0
M  V30 19096 H 1792.05 -0.248402 1.89882 0
M  V30 19097 H 1790.35 -2.66802 2.86921 0
M  V30 19098 H 1792.05 -2.43662 3.18481 0
M  V30 19099 H 1788.64 -1.31597 4.07897 0
M  V30 19100 H 1792.83 -0.78129 4.90112 0
M  V30 19101 H 1788.08 -0.0555172 6.11375 0
M  V30 19102 H 1792.26 0.472628 6.94794 0
M  V30 19103 H 1789.88 0.841482 7.55528 0
M  V30 19104 N 1791.46 -1.48941 -0.515198 0
M  V30 19105 C 1792.41 -1.60958 -1.61482 0
M  V30 19106 C 1793.39 -0.46591 -1.54007 0
M  V30 19107 O 1794.58 -0.718134 -1.61777 0
M  V30 19108 C 1791.71 -1.66623 -3.00153 0
M  V30 19109 C 1790.8 -2.8652 -3.12677 0
M  V30 19110 N 1791.19 -4.10769 -2.95131 0
M  V30 19111 C 1789.49 -2.84161 -3.43756 0
M  V30 19112 C 1790.19 -4.9129 -3.11463 0
M  V30 19113 N 1789.16 -4.24384 -3.39704 0
M  V30 19114 H 1792.97 -2.54756 -1.46549 0
M  V30 19115 H 1790.48 -1.45517 -0.721007 0
M  V30 19116 H 1792.48 -1.73328 -3.79161 0
M  V30 19117 H 1791.14 -0.739523 -3.16166 0
M  V30 19118 H 1792.15 -4.40974 -2.71593 0
M  V30 19119 H 1788.83 -2.00809 -3.66035 0
M  V30 19120 H 1790.22 -5.99948 -3.0251 0
M  V30 19121 N 1792.94 0.765193 -1.37777 0
M  V30 19122 C 1794.17 1.5521 -1.36358 0
M  V30 19123 C 1794.57 1.8913 0.0514021 0
M  V30 19124 O 1793.92 1.52422 1.02535 0
M  V30 19125 C 1793.98 2.88605 -2.14354 0
M  V30 19126 C 1793.64 2.77286 -3.63265 0
M  V30 19127 C 1794.64 2.47869 -4.57009 0
M  V30 19128 C 1792.32 2.95102 -4.06473 0
M  V30 19129 C 1794.32 2.36406 -5.91938 0
M  V30 19130 C 1792.01 2.83259 -5.41486 0
M  V30 19131 C 1793 2.53952 -6.34032 0
M  V30 19132 O 1792.69 2.42148 -7.66564 0
M  V30 19133 H 1792.42 0.487266 -0.468559 0
M  V30 19134 H 1794.98 0.955716 -1.81811 0
M  V30 19135 H 1793.21 3.50388 -1.636 0
M  V30 19136 H 1794.9 3.50043 -2.05486 0
M  V30 19137 H 1795.66 2.33784 -4.24936 0
M  V30 19138 H 1791.54 3.16913 -3.34794 0
M  V30 19139 H 1795.09 2.13452 -6.64142 0
M  V30 19140 H 1790.98 2.96914 -5.7316 0
M  V30 19141 H 1791.75 2.57448 -7.76957 0
M  V30 19142 N 1794.41 1.22455 0.992094 0
M  V30 19143 C 1795.69 0.958091 1.70529 0
M  V30 19144 C 1796.07 -0.526595 2.04426 0
M  V30 19145 O 1795.42 -1.49483 1.72821 0
M  V30 19146 C 1795.63 1.85646 2.95528 0
M  V30 19147 C 1796.98 2.11301 3.68289 0
M  V30 19148 O 1798 1.831 3.05537 0
M  V30 19149 O 1796.86 2.59068 4.81192 0
M  V30 19150 H 1793.95 0.360375 0.744351 0
M  V30 19151 H 1796.5 1.33444 1.04837 0
M  V30 19152 H 1795.27 2.86067 2.66986 0
M  V30 19153 H 1794.89 1.48174 3.68958 0
M  V30 19154 N 1795.89 -1.18905 1.03437 0
M  V30 19155 C 1796.84 -2.24362 0.613557 0
M  V30 19156 C 1797.83 -1.65605 -0.356541 0
M  V30 19157 O 1799.04 -1.78594 -0.22452 0
M  V30 19158 H 1795.41 -0.730098 0.18017 0
M  V30 19159 H 1797.39 -2.57168 1.51351 0
M  V30 19160 C 1796.13 -3.47697 -0.0141125 0
M  V30 19161 H 1795.46 -3.93201 0.723394 0
M  V30 19162 H 1796.9 -4.2313 -0.271424 0
M  V30 19163 C 1795.36 -3.12357 -1.26232 0
M  V30 19164 O 1795.89 -3.25515 -2.35378 0
M  V30 19165 N 1794.09 -2.6674 -1.15318 0
M  V30 19166 H 1793.64 -2.56233 -0.26501 0
M  V30 19167 H 1793.6 -2.43466 -1.98927 0
M  V30 19168 N 1797.37 -0.812977 -1.35013 0
M  V30 19169 C 1798.6 -0.409014 -2.02817 0
M  V30 19170 C 1799.01 0.982004 -1.61252 0
M  V30 19171 O 1798.37 1.63384 -0.813137 0
M  V30 19172 C 1798.42 -0.490117 -3.58162 0
M  V30 19173 O 1798.14 -1.8263 -3.98218 0
M  V30 19174 C 1799.64 -0.0797786 -4.43228 0
M  V30 19175 H 1796.86 -0.165356 -0.650306 0
M  V30 19176 H 1799.41 -1.09837 -1.72499 0
M  V30 19177 H 1797.56 0.151057 -3.87105 0
M  V30 19178 H 1797.98 -1.79356 -4.92881 0
M  V30 19179 H 1799.45 -0.18763 -5.51681 0
M  V30 19180 H 1799.93 0.975612 -4.28227 0
M  V30 19181 H 1800.53 -0.694359 -4.19594 0
M  V30 19182 N 1798.85 1.47045 -0.567045 0
M  V30 19183 C 1799.81 2.28607 0.164758 0
M  V30 19184 C 1800.81 1.37509 0.833542 0
M  V30 19185 O 1802 1.60043 0.687895 0
M  V30 19186 C 1799.13 3.17466 1.24211 0
M  V30 19187 H 1800.33 2.9478 -0.551814 0
M  V30 19188 H 1797.88 1.52897 -0.324376 0
M  V30 19189 H 1798.61 2.56006 1.99076 0
M  V30 19190 H 1798.4 3.8452 0.767243 0
M  V30 19191 H 1799.89 3.78894 1.75582 0
M  V30 19192 N 1800.33 0.304 1.5464 0
M  V30 19193 C 1801.57 -0.303793 1.99804 0
M  V30 19194 C 1801.89 -1.54179 1.19389 0
M  V30 19195 O 1801.16 -1.93732 0.290631 0
M  V30 19196 H 1799.74 -0.115241 0.738057 0
M  V30 19197 H 1802.41 0.416024 1.90408 0
M  V30 19198 H 1801.5 -0.573759 3.06781 0
M  V30 19199 N 1801.8 -1.57568 0.0317802 0
M  V30 19200 C 1803.05 -1.91087 -0.645639 0
M  V30 19201 C 1803.37 -0.910108 -1.73137 0
M  V30 19202 O 1804.57 -1.13665 -2.46562 0
M  V30 19203 C 1803.03 -3.39317 -1.19966 0
M  V30 19204 C 1802.64 -4.47759 -0.147068 0
M  V30 19205 C 1804.38 -3.81901 -1.85343 0
M  V30 19206 C 1802.29 -5.87088 -0.712872 0
M  V30 19207 H 1801.22 -0.713112 -0.244923 0
M  V30 19208 H 1803.87 -1.83241 0.0975145 0
M  V30 19209 H 1802.25 -3.42105 -1.99451 0
M  V30 19210 H 1803.42 -4.56535 0.625518 0
M  V30 19211 H 1801.74 -4.14395 0.408109 0
M  V30 19212 H 1804.34 -4.83352 -2.28636 0
M  V30 19213 H 1804.68 -3.17104 -2.69724 0
M  V30 19214 H 1805.21 -3.81548 -1.12544 0
M  V30 19215 H 1801.95 -6.55434 0.0928582 0
M  V30 19216 H 1801.47 -5.81913 -1.45388 0
M  V30 19217 H 1803.15 -6.3574 -1.20179 0
M  V30 19218 N 1803.28 0.241399 -1.5574 0
M  V30 19219 C 1804.51 0.99028 -1.82231 0
M  V30 19220 C 1804.93 1.77949 -0.609559 0
M  V30 19221 O 1804.29 1.75843 0.44148 0
M  V30 19222 C 1804.34 1.89947 -3.06516 0
M  V30 19223 O 1803.44 2.99201 -2.83818 0
M  V30 19224 H 1802.78 0.281488 -0.601382 0
M  V30 19225 H 1805.31 0.260721 -2.02932 0
M  V30 19226 H 1805.32 2.31308 -3.36096 0
M  V30 19227 H 1804 1.31924 -3.94422 0
M  V30 19228 H 1802.58 2.61929 -2.6542 0
M  V30 19229 N 1804.76 1.49212 0.507292 0
M  V30 19230 C 1805.69 1.61529 1.62606 0
M  V30 19231 C 1806.71 0.498303 1.54986 0
M  V30 19232 O 1807.89 0.7701 1.61033 0
M  V30 19233 C 1804.99 1.55015 3.0137 0
M  V30 19234 C 1804.17 2.8214 3.34239 0
M  V30 19235 C 1803.23 2.68765 4.52385 0
M  V30 19236 O 1802.25 3.42691 4.54479 0
M  V30 19237 N 1803.45 1.7989 5.51924 0
M  V30 19238 H 1806.22 2.58018 1.52469 0
M  V30 19239 H 1803.78 1.46222 0.695042 0
M  V30 19240 H 1805.77 1.4373 3.78317 0
M  V30 19241 H 1804.34 0.6641 3.05464 0
M  V30 19242 H 1803.56 3.07823 2.46249 0
M  V30 19243 H 1804.85 3.66432 3.52994 0
M  V30 19244 H 1804.25 1.19074 5.53026 0
M  V30 19245 H 1802.81 1.74531 6.27999 0
M  V30 19246 N 1806.24 -0.757876 1.38181 0
M  V30 19247 C 1807.47 -1.54485 1.37179 0
M  V30 19248 C 1807.88 -1.89155 -0.0413714 0
M  V30 19249 O 1807.22 -1.52963 -1.01725 0
M  V30 19250 C 1807.28 -2.87464 2.15881 0
M  V30 19251 C 1806.95 -2.75355 3.64731 0
M  V30 19252 C 1807.94 -2.45442 4.58317 0
M  V30 19253 C 1805.63 -2.92942 4.08032 0
M  V30 19254 C 1807.62 -2.33263 5.93184 0
M  V30 19255 C 1805.31 -2.80384 5.42981 0
M  V30 19256 C 1806.31 -2.50586 6.3537 0
M  V30 19257 O 1805.99 -2.38079 7.67837 0
M  V30 19258 H 1805.73 -0.484775 0.471136 0
M  V30 19259 H 1808.28 -0.946061 1.82315 0
M  V30 19260 H 1806.51 -3.49516 1.65456 0
M  V30 19261 H 1808.2 -3.48949 2.0734 0
M  V30 19262 H 1808.97 -2.31527 4.26169 0
M  V30 19263 H 1804.84 -3.15133 3.3647 0
M  V30 19264 H 1808.39 -2.09927 6.65264 0
M  V30 19265 H 1804.29 -2.93871 5.74726 0
M  V30 19266 H 1805.05 -2.53324 7.78312 0
M  V30 19267 N 1807.72 -1.22979 -0.985586 0
M  V30 19268 C 1808.65 -1.03073 -2.09519 0
M  V30 19269 C 1809.63 0.0507025 -1.70024 0
M  V30 19270 O 1810.81 -0.112938 -1.93871 0
M  V30 19271 C 1807.94 -0.615578 -3.41801 0
M  V30 19272 C 1806.9 -1.64377 -3.95176 0
M  V30 19273 C 1806.22 -1.08422 -5.23592 0
M  V30 19274 C 1807.52 -3.03555 -4.25032 0
M  V30 19275 H 1809.22 -1.95882 -2.2643 0
M  V30 19276 H 1806.76 -0.943206 -1.0881 0
M  V30 19277 H 1808.72 -0.463394 -4.18844 0
M  V30 19278 H 1807.44 0.348185 -3.24739 0
M  V30 19279 H 1806.1 -1.78386 -3.20272 0
M  V30 19280 H 1805.75 -0.111597 -5.02876 0
M  V30 19281 H 1805.45 -1.77118 -5.6027 0
M  V30 19282 H 1806.97 -0.94378 -6.03262 0
M  V30 19283 H 1808.38 -2.92878 -4.92844 0
M  V30 19284 H 1806.78 -3.69441 -4.72899 0
M  V30 19285 H 1807.85 -3.52937 -3.32511 0
M  V30 19286 N 1809.19 1.18355 -1.04066 0
M  V30 19287 C 1810.13 2.21482 -0.58977 0
M  V30 19288 C 1811.14 1.59198 0.340576 0
M  V30 19289 O 1812.33 1.77988 0.135094 0
M  V30 19290 C 1809.43 3.3853 0.158397 0
M  V30 19291 C 1808.6 4.30392 -0.779824 0
M  V30 19292 C 1807.66 5.26147 -0.0749517 0
M  V30 19293 O 1806.69 5.64812 -0.705381 0
M  V30 19294 N 1807.89 5.68137 1.19168 0
M  V30 19295 H 1810.65 2.60791 -1.47676 0
M  V30 19296 H 1808.21 1.33141 -0.921151 0
M  V30 19297 H 1810.21 3.99611 0.639788 0
M  V30 19298 H 1808.78 2.97913 0.946929 0
M  V30 19299 H 1808 3.66915 -1.44107 0
M  V30 19300 H 1809.28 4.88668 -1.41707 0
M  V30 19301 H 1808.68 5.38777 1.7244 0
M  V30 19302 H 1807.24 6.31415 1.61735 0
M  V30 19303 N 1810.67 0.820125 1.3458 0
M  V30 19304 C 1811.62 0.22828 2.31477 0
M  V30 19305 C 1812.61 -0.629439 1.57272 0
M  V30 19306 O 1813.82 -0.521091 1.72292 0
M  V30 19307 H 1810.2 0.0550728 0.749981 0
M  V30 19308 H 1812.17 1.0604 2.78923 0
M  V30 19309 C 1810.92 -0.597495 3.42528 0
M  V30 19310 H 1810.24 0.0531749 3.99765 0
M  V30 19311 H 1811.68 -0.977765 4.12572 0
M  V30 19312 C 1810.14 -1.76868 2.86739 0
M  V30 19313 O 1810.67 -2.86674 2.81391 0
M  V30 19314 N 1808.87 -1.58453 2.436 0
M  V30 19315 H 1808.42 -0.691318 2.4815 0
M  V30 19316 H 1808.38 -2.36969 2.06624 0
M  V30 19317 N 1812.15 -1.46743 0.574835 0
M  V30 19318 C 1813.38 -2.07311 0.0608779 0
M  V30 19319 C 1813.8 -1.422 -1.23129 0
M  V30 19320 O 1813.16 -0.503042 -1.74181 0
M  V30 19321 C 1813.21 -3.60462 -0.0996676 0
M  V30 19322 O 1812.31 -3.95806 -1.15808 0
M  V30 19323 H 1811.65 -0.661351 0.0592542 0
M  V30 19324 H 1814.18 -1.885 0.795538 0
M  V30 19325 H 1814.19 -4.06833 -0.308329 0
M  V30 19326 H 1812.87 -4.07246 0.844018 0
M  V30 19327 H 1811.44 -3.61155 -0.928504 0
M  V30 19328 N 1813.63 -0.312197 -1.54477 0
M  V30 19329 C 1814.58 0.558894 -2.23931 0
M  V30 19330 C 1815.55 1.12071 -1.22594 0
M  V30 19331 O 1816.73 1.16316 -1.51245 0
M  V30 19332 C 1813.87 1.71948 -2.99212 0
M  V30 19333 C 1812.98 1.18799 -4.15344 0
M  V30 19334 C 1812.12 2.31334 -4.78182 0
M  V30 19335 C 1811.16 1.75375 -5.86438 0
M  V30 19336 N 1810.29 2.81528 -6.43184 0
M  V30 19337 H 1815.13 -0.0399708 -2.97973 0
M  V30 19338 H 1812.67 -0.0314967 -1.47066 0
M  V30 19339 H 1814.63 2.40225 -3.41098 0
M  V30 19340 H 1813.26 2.28981 -2.27525 0
M  V30 19341 H 1812.31 0.397122 -3.78321 0
M  V30 19342 H 1813.62 0.738426 -4.93304 0
M  V30 19343 H 1812.78 3.07537 -5.22978 0
M  V30 19344 H 1811.52 2.79622 -3.99578 0
M  V30 19345 H 1810.52 0.976658 -5.41056 0
M  V30 19346 H 1811.75 1.27978 -6.66932 0
M  V30 19347 H 1809.69 3.29129 -5.6746 0
M  V30 19348 H 1809.61 2.41101 -7.16524 0
M  V30 19349 H 1810.88 3.57595 -6.92637 0
M  V30 19350 N 1815.11 1.57549 -0.040136 0
M  V30 19351 C 1816.52 1.56434 0.316341 0
M  V30 19352 C 1816.72 1.04679 1.72176 0
M  V30 19353 O 1815.78 0.698444 2.42648 0
M  V30 19354 C 1817.09 3.00301 0.154883 0
M  V30 19355 C 1818.64 3.12177 0.226821 0
M  V30 19356 C 1819.11 4.57903 0.0940219 0
M  V30 19357 N 1820.61 4.62955 0.150654 0
M  V30 19358 C 1821.34 5.73355 0.0718466 0
M  V30 19359 N 1820.84 6.92775 -0.0586777 0
M  V30 19360 N 1822.63 5.61957 0.126632 0
M  V30 19361 H 1814.78 1.89516 -0.959032 0
M  V30 19362 H 1817.04 0.872251 -0.371324 0
M  V30 19363 H 1816.75 3.42158 -0.813674 0
M  V30 19364 H 1816.62 3.65795 0.920521 0
M  V30 19365 H 1819.01 2.70225 1.18584 0
M  V30 19366 H 1819.09 2.49383 -0.569384 0
M  V30 19367 H 1818.74 5.00538 -0.861629 0
M  V30 19368 H 1818.67 5.18691 0.909231 0
M  V30 19369 H 1821.16 3.77064 0.251232 0
M  V30 19370 H 1821.47 7.72719 -0.111818 0
M  V30 19371 H 1819.81 6.94937 -0.0936119 0
M  V30 19372 H 1823.01 4.67549 0.227081 0
M  V30 19373 H 1823.18 6.47971 0.0617551 0
M  V30 19374 N 1816.58 -0.233136 1.55866 0
M  V30 19375 C 1817.53 -1.28882 1.91463 0
M  V30 19376 C 1818.5 -1.47151 0.770435 0
M  V30 19377 O 1819.69 -1.6091 1.02531 0
M  V30 19378 C 1816.83 -2.63653 2.22668 0
M  V30 19379 C 1815.94 -2.53278 3.49963 0
M  V30 19380 C 1815.07 -3.80494 3.70672 0
M  V30 19381 C 1814.11 -3.64794 4.9152 0
M  V30 19382 N 1813.25 -4.83933 5.08678 0
M  V30 19383 H 1818.09 -0.978251 2.81486 0
M  V30 19384 H 1815.63 -0.471757 1.3933 0
M  V30 19385 H 1817.59 -3.42119 2.38769 0
M  V30 19386 H 1816.22 -2.9283 1.35833 0
M  V30 19387 H 1815.27 -1.66308 3.4212 0
M  V30 19388 H 1816.58 -2.37592 4.38579 0
M  V30 19389 H 1815.73 -4.67404 3.86806 0
M  V30 19390 H 1814.47 -3.99092 2.80315 0
M  V30 19391 H 1813.48 -2.76268 4.75348 0
M  V30 19392 H 1814.7 -3.47677 5.8335 0
M  V30 19393 H 1812.65 -5.02866 4.21262 0
M  V30 19394 H 1812.57 -4.7093 5.91406 0
M  V30 19395 H 1813.83 -5.72302 5.29236 0
M  V30 19396 N 1818.06 -1.49479 -0.499372 0
M  V30 19397 C 1819.29 -1.63025 -1.28209 0
M  V30 19398 C 1819.71 -0.302238 -1.85656 0
M  V30 19399 O 1819.07 0.730355 -1.65938 0
M  V30 19400 C 1819.12 -2.70287 -2.38699 0
M  V30 19401 O 1818.22 -2.29573 -3.42593 0
M  V30 19402 H 1817.56 -0.545605 -0.378432 0
M  V30 19403 H 1820.09 -1.95677 -0.597628 0
M  V30 19404 H 1820.1 -2.92505 -2.84438 0
M  V30 19405 H 1818.78 -3.66684 -1.96253 0
M  V30 19406 H 1817.36 -2.17692 -3.02761 0
M  V30 19407 N 1819.54 0.750537 -1.38581 0
M  V30 19408 C 1820.96 1.05401 -1.19845 0
M  V30 19409 C 1821.16 2.0144 -0.0492317 0
M  V30 19410 O 1820.21 2.45169 0.604037 0
M  V30 19411 C 1821.53 1.63117 -2.52613 0
M  V30 19412 C 1823.07 1.75274 -2.59322 0
M  V30 19413 C 1823.55 2.36401 -3.92273 0
M  V30 19414 N 1825.04 2.43829 -3.9383 0
M  V30 19415 C 1825.78 2.92028 -4.93465 0
M  V30 19416 N 1825.27 3.4024 -6.03497 0
M  V30 19417 N 1827.06 2.91096 -4.80853 0
M  V30 19418 H 1819.22 0.113286 -2.12098 0
M  V30 19419 H 1821.48 0.112886 -0.941255 0
M  V30 19420 H 1821.18 1.00017 -3.37179 0
M  V30 19421 H 1821.06 2.62138 -2.71226 0
M  V30 19422 H 1823.45 2.375 -1.7515 0
M  V30 19423 H 1823.53 0.74949 -2.44574 0
M  V30 19424 H 1823.17 1.74807 -4.7687 0
M  V30 19425 H 1823.1 3.37373 -4.04335 0
M  V30 19426 H 1825.59 2.09734 -3.14357 0
M  V30 19427 H 1825.9 3.75482 -6.7545 0
M  V30 19428 H 1824.25 3.38289 -6.07113 0
M  V30 19429 H 1827.44 2.52744 -3.94003 0
M  V30 19430 H 1827.61 3.28346 -5.58653 0
M  V30 19431 N 1821.02 1.235 0.979051 0
M  V30 19432 C 1822.43 1.06263 1.53509 0
M  V30 19433 C 1822.78 -0.369594 1.92687 0
M  V30 19434 O 1821.91 -1.25649 1.76185 0
M  V30 19435 C 1822.5 1.92276 2.78954 0
M  V30 19436 C 1821.06 1.79296 3.30953 0
M  V30 19437 C 1820.21 1.87898 2.03935 0
M  V30 19438 H 1823.16 1.37143 0.798588 0
M  V30 19439 H 1823.18 1.44835 3.51857 0
M  V30 19440 H 1822.69 2.96509 2.50408 0
M  V30 19441 H 1820.79 0.778512 3.64376 0
M  V30 19442 H 1820.91 2.62755 4.0062 0
M  V30 19443 H 1819.27 1.31494 2.18131 0
M  V30 19444 H 1820.05 2.93689 1.77769 0
M  V30 19445 N 1822.5 -1.17802 1.04693 0
M  V30 19446 C 1823.74 -1.88217 0.755141 0
M  V30 19447 C 1824.08 -1.8053 -0.715731 0
M  V30 19448 O 1823.35 -1.20987 -1.52291 0
M  V30 19449 C 1823.63 -3.38447 1.22986 0
M  V30 19450 C 1823.49 -3.54911 2.7633 0
M  V30 19451 C 1824.81 -4.323 0.824891 0
M  V30 19452 H 1821.93 -0.683452 0.275795 0
M  V30 19453 H 1824.57 -1.38561 1.30004 0
M  V30 19454 H 1822.72 -3.80868 0.7663 0
M  V30 19455 H 1824.39 -3.2154 3.30771 0
M  V30 19456 H 1822.63 -2.97357 3.1585 0
M  V30 19457 H 1823.3 -4.60347 3.04606 0
M  V30 19458 H 1825.78 -3.97694 1.22389 0
M  V30 19459 H 1824.66 -5.35962 1.18472 0
M  V30 19460 H 1824.92 -4.41265 -0.27151 0
M  V30 19461 N 1823.98 -0.827251 -1.34143 0
M  V30 19462 C 1825.2 -0.429514 -2.02904 0
M  V30 19463 C 1825.63 0.958033 -1.61874 0
M  V30 19464 O 1824.98 1.62422 -0.805528 0
M  V30 19465 C 1825.03 -0.544592 -3.56464 0
M  V30 19466 O 1824.14 0.433849 -4.10112 0
M  V30 19467 H 1823.48 -0.176216 -0.64019 0
M  V30 19468 H 1826.01 -1.11887 -1.71297 0
M  V30 19469 H 1826.02 -0.421949 -4.05812 0
M  V30 19470 H 1824.69 -1.55657 -3.85673 0
M  V30 19471 H 1823.27 0.269729 -3.71923 0
M  V30 19472 N 1825.45 1.46436 -0.582609 0
M  V30 19473 C 1826.7 2.02685 -0.0682503 0
M  V30 19474 C 1827.03 1.45315 1.2883 0
M  V30 19475 O 1826.31 0.61821 1.84414 0
M  V30 19476 C 1826.59 3.601 -0.00237797 0
M  V30 19477 C 1826.44 4.27855 -1.38782 0
M  V30 19478 C 1827.76 4.34525 0.69829 0
M  V30 19479 H 1824.88 0.736531 -0.0262761 0
M  V30 19480 H 1827.52 1.7458 -0.749789 0
M  V30 19481 H 1825.67 3.84176 0.57803 0
M  V30 19482 H 1827.35 4.15043 -2.01339 0
M  V30 19483 H 1825.59 3.87221 -1.95557 0
M  V30 19484 H 1826.26 5.36614 -1.2942 0
M  V30 19485 H 1828.74 4.15594 0.205219 0
M  V30 19486 H 1827.61 5.44244 0.71341 0
M  V30 19487 H 1827.87 4.05575 1.75957 0
M  V30 19488 N 1826.93 0.320385 1.54309 0
M  V30 19489 C 1827.88 -0.547011 2.24224 0
M  V30 19490 C 1828.85 -1.11419 1.23187 0
M  V30 19491 O 1830.03 -1.15513 1.5186 0
M  V30 19492 C 1827.17 -1.70359 3.0012 0
M  V30 19493 C 1826.29 -1.16594 4.15968 0
M  V30 19494 C 1825.42 -2.28795 4.79402 0
M  V30 19495 C 1824.46 -1.72263 5.8736 0
M  V30 19496 N 1823.6 -2.78113 6.44668 0
M  V30 19497 H 1828.44 0.0557725 2.97948 0
M  V30 19498 H 1825.97 0.0392956 1.47048 0
M  V30 19499 H 1827.93 -2.38413 3.42367 0
M  V30 19500 H 1826.56 -2.27771 2.28736 0
M  V30 19501 H 1825.61 -0.377054 3.78527 0
M  V30 19502 H 1826.93 -0.712254 4.93689 0
M  V30 19503 H 1826.08 -3.04759 5.24601 0
M  V30 19504 H 1824.82 -2.77499 4.01056 0
M  V30 19505 H 1823.82 -0.947951 5.41566 0
M  V30 19506 H 1825.05 -1.2444 6.67601 0
M  V30 19507 H 1823 -3.26115 5.69197 0
M  V30 19508 H 1822.91 -2.37298 7.17792 0
M  V30 19509 H 1824.18 -3.53916 6.94524 0
M  V30 19510 N 1828.41 -1.57525 0.0484906 0
M  V30 19511 C 1829.64 -1.96897 -0.635553 0
M  V30 19512 C 1830.05 -0.925909 -1.64537 0
M  V30 19513 O 1829.41 0.0901742 -1.82277 0
M  V30 19514 C 1829.46 -3.36348 -1.32484 0
M  V30 19515 O 1829.18 -4.36656 -0.355464 0
M  V30 19516 C 1830.68 -3.90463 -2.0989 0
M  V30 19517 H 1827.9 -0.648062 -0.173945 0
M  V30 19518 H 1830.45 -2.04182 0.113997 0
M  V30 19519 H 1828.6 -3.30222 -2.02564 0
M  V30 19520 H 1829.02 -5.17613 -0.847153 0
M  V30 19521 H 1830.49 -4.90326 -2.53543 0
M  V30 19522 H 1830.97 -3.25745 -2.94596 0
M  V30 19523 H 1831.57 -3.99918 -1.44726 0
M  V30 19524 N 1829.89 0.224867 -1.55988 0
M  V30 19525 C 1831.13 0.949747 -1.78846 0
M  V30 19526 C 1831.46 1.84465 -0.616678 0
M  V30 19527 O 1830.72 1.91587 0.399098 0
M  V30 19528 C 1831.02 1.8227 -3.07429 0
M  V30 19529 C 1830.68 1.08131 -4.37743 0
M  V30 19530 C 1829.34 0.876497 -4.7315 0
M  V30 19531 C 1831.7 0.557505 -5.1821 0
M  V30 19532 C 1829.02 0.13593 -5.86543 0
M  V30 19533 C 1831.38 -0.169702 -6.32372 0
M  V30 19534 C 1830.04 -0.385796 -6.66384 0
M  V30 19535 H 1829.31 0.347537 -0.654446 0
M  V30 19536 H 1831.96 0.218162 -1.90253 0
M  V30 19537 H 1830.26 2.62204 -2.91129 0
M  V30 19538 H 1831.96 2.38564 -3.22317 0
M  V30 19539 H 1828.55 1.25091 -4.09939 0
M  V30 19540 H 1832.73 0.703218 -4.91293 0
M  V30 19541 H 1827.99 -0.0417543 -6.11386 0
M  V30 19542 H 1832.16 -0.583104 -6.93955 0
M  V30 19543 H 1829.79 -0.961574 -7.54094 0
M  V30 19544 N 1831.37 1.49742 0.491438 0
M  V30 19545 C 1832.28 1.69866 1.6181 0
M  V30 19546 C 1833.29 0.581386 1.64 0
M  V30 19547 O 1834.47 0.857263 1.82244 0
M  V30 19548 C 1831.53 1.76965 2.98135 0
M  V30 19549 C 1830.59 3.00597 3.06496 0
M  V30 19550 C 1829.83 3.07348 4.36317 0
M  V30 19551 O 1830.05 2.21432 5.25665 0
M  V30 19552 O 1828.98 3.99898 4.4985 0
M  V30 19553 H 1832.81 2.65332 1.47759 0
M  V30 19554 H 1830.39 1.33596 0.668761 0
M  V30 19555 H 1832.28 1.83932 3.7914 0
M  V30 19556 H 1830.95 0.846807 3.12427 0
M  V30 19557 H 1829.86 2.99142 2.24643 0
M  V30 19558 H 1831.19 3.92393 2.97133 0
M  V30 19559 N 1832.84 -0.743177 1.38977 0
M  V30 19560 C 1834.12 -1.49384 1.26269 0
M  V30 19561 C 1834.5 -2.10691 -0.131349 0
M  V30 19562 O 1833.85 -1.97925 -1.14183 0
M  V30 19563 C 1834.06 -2.55184 2.3808 0
M  V30 19564 C 1835.41 -3.21796 2.77006 0
M  V30 19565 O 1836.43 -2.65493 2.37469 0
M  V30 19566 O 1835.29 -4.23656 3.45222 0
M  V30 19567 H 1832.38 -0.662968 0.49437 0
M  V30 19568 H 1834.93 -0.7777 1.50831 0
M  V30 19569 H 1833.7 -2.08204 3.31311 0
M  V30 19570 H 1833.33 -3.34366 2.15139 0
M  V30 19571 N 1834.32 -1.24018 -0.972487 0
M  V30 19572 C 1835.57 -1.07105 -1.70913 0
M  V30 19573 C 1835.88 0.390908 -1.91654 0
M  V30 19574 O 1837.09 0.68013 -2.62843 0
M  V30 19575 C 1835.55 -1.86823 -3.07612 0
M  V30 19576 C 1835.15 -3.37399 -2.94731 0
M  V30 19577 C 1836.9 -1.78425 -3.85182 0
M  V30 19578 C 1834.81 -4.09479 -4.2671 0
M  V30 19579 H 1833.74 -0.397184 -0.640907 0
M  V30 19580 H 1836.39 -1.48056 -1.08405 0
M  V30 19581 H 1834.77 -1.38683 -3.70922 0
M  V30 19582 H 1835.94 -3.93084 -2.40462 0
M  V30 19583 H 1834.26 -3.46697 -2.3063 0
M  V30 19584 H 1836.85 -2.29584 -4.82903 0
M  V30 19585 H 1837.2 -0.748555 -4.09515 0
M  V30 19586 H 1837.73 -2.24219 -3.28589 0
M  V30 19587 H 1834.47 -5.13387 -4.07571 0
M  V30 19588 H 1833.99 -3.5858 -4.80812 0
M  V30 19589 H 1835.67 -4.16212 -4.95355 0
M  V30 19590 N 1835.8 1.17245 -1.05316 0
M  V30 19591 C 1837.21 1.69167 -0.789906 0
M  V30 19592 C 1837.56 1.83751 0.687762 0
M  V30 19593 O 1836.69 1.52596 1.53438 0
M  V30 19594 C 1837.28 3.07269 -1.42728 0
M  V30 19595 C 1835.84 3.56352 -1.21204 0
M  V30 19596 C 1834.99 2.3258 -1.51003 0
M  V30 19597 H 1837.94 1.01744 -1.21794 0
M  V30 19598 H 1837.96 3.71175 -0.837236 0
M  V30 19599 H 1837.47 2.96622 -2.50273 0
M  V30 19600 H 1835.57 3.72274 -0.155891 0
M  V30 19601 H 1835.69 4.39038 -1.91787 0
M  V30 19602 H 1834.05 2.37107 -0.930172 0
M  V30 19603 H 1834.83 2.2454 -2.59685 0
M  V30 19604 N 1837.28 0.834353 1.33702 0
M  V30 19605 C 1838.21 0.279313 2.31823 0
M  V30 19606 C 1839.19 -0.610495 1.58767 0
M  V30 19607 O 1840.37 -0.534989 1.86686 0
M  V30 19608 C 1837.5 -0.550201 3.42914 0
M  V30 19609 C 1836.46 0.243432 4.27307 0
M  V30 19610 C 1835.78 -0.709548 5.29971 0
M  V30 19611 C 1837.08 1.45799 5.01537 0
M  V30 19612 H 1838.78 1.09915 2.78494 0
M  V30 19613 H 1836.32 0.529987 1.33892 0
M  V30 19614 H 1838.28 -0.948764 4.10581 0
M  V30 19615 H 1837 -1.4032 2.9492 0
M  V30 19616 H 1835.66 0.6235 3.61259 0
M  V30 19617 H 1835.31 -1.55882 4.78236 0
M  V30 19618 H 1835.01 -0.182671 5.87316 0
M  V30 19619 H 1836.53 -1.10572 6.00505 0
M  V30 19620 H 1837.95 1.13283 5.61996 0
M  V30 19621 H 1836.34 1.92133 5.68511 0
M  V30 19622 H 1837.41 2.23016 4.30571 0
M  V30 19623 N 1838.76 -1.46125 0.590367 0
M  V30 19624 C 1839.67 -2.34177 -0.140761 0
M  V30 19625 C 1840.68 -1.50213 -0.878181 0
M  V30 19626 O 1841.86 -1.83063 -0.839644 0
M  V30 19627 C 1838.92 -3.27537 -1.13669 0
M  V30 19628 C 1837.98 -4.27403 -0.403103 0
M  V30 19629 C 1837.22 -5.16302 -1.35159 0
M  V30 19630 O 1837.44 -5.08283 -2.58853 0
M  V30 19631 O 1836.37 -5.95753 -0.858003 0
M  V30 19632 H 1840.2 -2.98063 0.582401 0
M  V30 19633 H 1837.79 -1.45225 0.35072 0
M  V30 19634 H 1839.67 -3.85112 -1.71074 0
M  V30 19635 H 1838.34 -2.66237 -1.84118 0
M  V30 19636 H 1837.25 -3.73493 0.212986 0
M  V30 19637 H 1838.58 -4.9151 0.260565 0
M  V30 19638 N 1840.23 -0.328564 -1.54137 0
M  V30 19639 C 1841.14 0.543922 -2.28207 0
M  V30 19640 C 1842.16 1.1249 -1.32748 0
M  V30 19641 O 1843.34 1.1438 -1.65769 0
M  V30 19642 C 1840.4 1.6864 -3.02922 0
M  V30 19643 C 1839.46 1.13672 -4.13977 0
M  V30 19644 C 1838.7 2.22474 -4.85119 0
M  V30 19645 O 1838.92 3.42914 -4.55813 0
M  V30 19646 O 1837.85 1.87611 -5.71914 0
M  V30 19647 H 1841.68 -0.0577601 -3.03645 0
M  V30 19648 H 1839.26 -0.0940895 -1.49103 0
M  V30 19649 H 1841.15 2.35143 -3.49693 0
M  V30 19650 H 1839.82 2.27417 -2.30355 0
M  V30 19651 H 1838.73 0.436625 -3.71543 0
M  V30 19652 H 1840.06 0.594012 -4.88602 0
M  V30 19653 N 1841.71 1.57497 -0.0568439 0
M  V30 19654 C 1843.12 1.80477 0.478027 0
M  V30 19655 C 1843.47 0.969549 1.7057 0
M  V30 19656 O 1842.6 0.187756 2.15584 0
M  V30 19657 C 1843.19 3.27332 0.874013 0
M  V30 19658 C 1841.75 3.5121 1.35383 0
M  V30 19659 C 1840.9 2.75308 0.331752 0
M  V30 19660 H 1843.85 1.56162 -0.282678 0
M  V30 19661 H 1843.87 3.38563 1.73653 0
M  V30 19662 H 1843.38 3.88095 -0.019701 0
M  V30 19663 H 1841.49 2.95734 2.26655 0
M  V30 19664 H 1841.6 4.59919 1.34208 0
M  V30 19665 H 1839.96 2.41616 0.805851 0
M  V30 19666 H 1840.75 3.38801 -0.553975 0
M  V30 19667 N 1843.19 -0.216591 1.56105 0
M  V30 19668 C 1844.1 -1.28933 1.95994 0
M  V30 19669 C 1845.12 -1.51007 0.864464 0
M  V30 19670 O 1846.29 -1.6404 1.16845 0
M  V30 19671 C 1843.36 -2.61807 2.27284 0
M  V30 19672 C 1842.42 -2.47992 3.50426 0
M  V30 19673 C 1841.65 -3.7453 3.80214 0
M  V30 19674 O 1841.87 -4.77765 3.11604 0
M  V30 19675 O 1840.81 -3.71345 4.73694 0
M  V30 19676 H 1844.63 -0.980864 2.87424 0
M  V30 19677 H 1842.22 -0.419859 1.43379 0
M  V30 19678 H 1844.1 -3.40272 2.48582 0
M  V30 19679 H 1842.78 -2.92324 1.39026 0
M  V30 19680 H 1841.68 -1.67711 3.34401 0
M  V30 19681 H 1843.02 -2.22413 4.39082 0
M  V30 19682 N 1844.67 -1.5 -0.48349 0
M  V30 19683 C 1845.91 -1.60606 -1.23829 0
M  V30 19684 C 1846.25 -0.299778 -1.91872 0
M  V30 19685 O 1845.52 0.697925 -1.81547 0
M  V30 19686 C 1845.81 -2.77769 -2.29165 0
M  V30 19687 C 1845.66 -4.18243 -1.65507 0
M  V30 19688 C 1846.98 -2.90521 -3.30584 0
M  V30 19689 H 1844.1 -0.584561 -0.44884 0
M  V30 19690 H 1846.74 -1.82346 -0.533855 0
M  V30 19691 H 1844.89 -2.59364 -2.89245 0
M  V30 19692 H 1846.56 -4.48208 -1.09119 0
M  V30 19693 H 1844.8 -4.23077 -0.958577 0
M  V30 19694 H 1845.47 -4.96128 -2.41994 0
M  V30 19695 H 1847.95 -3.0733 -2.80513 0
M  V30 19696 H 1846.83 -3.74146 -4.0163 0
M  V30 19697 H 1847.09 -2.00609 -3.93965 0
M  V30 19698 N 1846.15 0.735796 -1.39369 0
M  V30 19699 C 1847.09 1.8498 -1.38025 0
M  V30 19700 C 1848.06 1.64356 -0.24007 0
M  V30 19701 O 1849.25 1.85774 -0.435058 0
M  V30 19702 C 1846.39 3.22484 -1.22874 0
M  V30 19703 C 1845.5 3.54819 -2.4643 0
M  V30 19704 C 1844.64 4.8172 -2.23873 0
M  V30 19705 C 1843.68 5.06895 -3.43108 0
M  V30 19706 N 1842.81 6.25 -3.19874 0
M  V30 19707 H 1847.65 1.85463 -2.33254 0
M  V30 19708 H 1845.19 0.906252 -1.15868 0
M  V30 19709 H 1847.15 4.01857 -1.12101 0
M  V30 19710 H 1845.78 3.21281 -0.312759 0
M  V30 19711 H 1844.83 2.70153 -2.67809 0
M  V30 19712 H 1846.14 3.69342 -3.35244 0
M  V30 19713 H 1845.3 5.69072 -2.10338 0
M  V30 19714 H 1844.03 4.69369 -1.32453 0
M  V30 19715 H 1843.04 4.18006 -3.57143 0
M  V30 19716 H 1844.26 5.21132 -4.35429 0
M  V30 19717 H 1842.21 6.13939 -2.31117 0
M  V30 19718 H 1842.13 6.40106 -4.02244 0
M  V30 19719 H 1843.4 7.15193 -3.10031 0
M  V30 19720 N 1847.63 1.24532 0.965897 0
M  V30 19721 C 1848.87 1.0877 1.71163 0
M  V30 19722 C 1849.2 -0.372297 1.90598 0
M  V30 19723 O 1848.48 -1.27503 1.46878 0
M  V30 19724 C 1848.76 1.83004 3.10131 0
M  V30 19725 C 1848.62 3.36765 2.98177 0
M  V30 19726 C 1849.93 1.60417 4.09822 0
M  V30 19727 H 1847.05 0.396528 0.621236 0
M  V30 19728 H 1849.7 1.53223 1.12351 0
M  V30 19729 H 1847.85 1.4522 3.60338 0
M  V30 19730 H 1849.52 3.84158 2.55382 0
M  V30 19731 H 1847.76 3.65053 2.34347 0
M  V30 19732 H 1848.43 3.83909 3.96633 0
M  V30 19733 H 1850.91 1.93289 3.68482 0
M  V30 19734 H 1849.78 2.14812 5.05121 0
M  V30 19735 H 1850.04 0.542843 4.38755 0
M  V30 19736 N 1849.1 -1.16685 1.05936 0
M  V30 19737 C 1850.35 -1.86466 0.768993 0
M  V30 19738 C 1850.67 -1.82374 -0.707038 0
M  V30 19739 O 1851.87 -2.47699 -1.11164 0
M  V30 19740 C 1850.33 -3.34605 1.32543 0
M  V30 19741 C 1849.94 -3.47179 2.83144 0
M  V30 19742 C 1851.68 -4.09665 1.11244 0
M  V30 19743 C 1849.59 -4.89384 3.3205 0
M  V30 19744 H 1848.52 -0.698479 0.283978 0
M  V30 19745 H 1851.17 -1.31717 1.27761 0
M  V30 19746 H 1849.55 -3.88937 0.744592 0
M  V30 19747 H 1850.72 -3.03027 3.47148 0
M  V30 19748 H 1849.04 -2.85549 3.03069 0
M  V30 19749 H 1851.64 -5.14586 1.45276 0
M  V30 19750 H 1851.98 -4.16269 0.0505969 0
M  V30 19751 H 1852.51 -3.61561 1.65887 0
M  V30 19752 H 1849.25 -4.87957 4.37697 0
M  V30 19753 H 1848.77 -5.34176 2.72793 0
M  V30 19754 H 1850.45 -5.58186 3.27166 0
M  V30 19755 N 1850.58 -0.841432 -1.33258 0
M  V30 19756 C 1851.99 -0.494767 -1.80025 0
M  V30 19757 C 1852.34 0.986416 -1.696 0
M  V30 19758 O 1851.47 1.76874 -1.24678 0
M  V30 19759 C 1852.06 -0.891306 -3.26866 0
M  V30 19760 C 1850.62 -0.59674 -3.7164 0
M  V30 19761 C 1849.77 -1.09825 -2.54625 0
M  V30 19762 H 1852.72 -1.02989 -1.20743 0
M  V30 19763 H 1852.74 -0.202371 -3.79961 0
M  V30 19764 H 1852.25 -1.96937 -3.34421 0
M  V30 19765 H 1850.35 0.471153 -3.69609 0
M  V30 19766 H 1850.47 -1.15377 -4.65 0
M  V30 19767 H 1848.83 -0.519011 -2.49356 0
M  V30 19768 H 1849.61 -2.18314 -2.64941 0
M  V30 19769 N 1852.06 1.4581 -0.598108 0
M  V30 19770 C 1853.34 1.95588 -0.0220376 0
M  V30 19771 C 1853.72 1.54066 1.44316 0
M  V30 19772 O 1853.06 0.798663 2.14088 0
M  V30 19773 C 1853.27 3.48366 -0.210204 0
M  V30 19774 C 1854.62 4.24513 -0.0860474 0
M  V30 19775 O 1855.65 3.55925 -0.139833 0
M  V30 19776 O 1854.51 5.46488 0.0367961 0
M  V30 19777 H 1851.6 0.825977 0.0411123 0
M  V30 19778 H 1854.15 1.56021 -0.667506 0
M  V30 19779 H 1852.92 3.71526 -1.22818 0
M  V30 19780 H 1852.54 3.94801 0.470974 0
M  V30 19781 N 1853.54 0.336733 1.53961 0
M  V30 19782 C 1854.81 -0.316794 1.93018 0
M  V30 19783 C 1855.19 -1.68802 1.26764 0
M  V30 19784 O 1854.54 -2.2468 0.416094 0
M  V30 19785 C 1854.75 -0.395878 3.46747 0
M  V30 19786 C 1856.1 -0.649946 4.19596 0
M  V30 19787 O 1857.12 -0.47827 3.52975 0
M  V30 19788 O 1855.98 -0.982035 5.37604 0
M  V30 19789 H 1853.08 -0.183442 0.806398 0
M  V30 19790 H 1855.62 0.387412 1.65219 0
M  V30 19791 H 1854.4 0.56665 3.87175 0
M  V30 19792 H 1854.02 -1.14714 3.80692 0
M  V30 19793 N 1855.02 -1.57465 0.0651956 0
M  V30 19794 C 1855.96 -2.13542 -0.922087 0
M  V30 19795 C 1856.96 -1.07067 -1.31275 0
M  V30 19796 O 1858.16 -1.25456 -1.29076 0
M  V30 19797 H 1854.54 -0.682718 -0.315277 0
M  V30 19798 H 1856.51 -2.9537 -0.424138 0
M  V30 19799 C 1855.26 -2.70663 -2.18258 0
M  V30 19800 H 1854.58 -3.52262 -1.8908 0
M  V30 19801 H 1856.02 -3.13505 -2.85466 0
M  V30 19802 C 1854.48 -1.65106 -2.93669 0
M  V30 19803 O 1855.01 -1.07214 -3.87128 0
M  V30 19804 N 1853.22 -1.36296 -2.56655 0
M  V30 19805 H 1852.76 -1.83562 -1.80728 0
M  V30 19806 H 1852.72 -0.659013 -3.07416 0
M  V30 19807 N 1856.49 0.20831 -1.56217 0
M  V30 19808 C 1857.43 1.28196 -1.89996 0
M  V30 19809 C 1858.44 1.42381 -0.789394 0
M  V30 19810 O 1859.63 1.43043 -1.06776 0
M  V30 19811 C 1856.73 2.65588 -2.10514 0
M  V30 19812 C 1855.9 2.73181 -3.416 0
M  V30 19813 C 1854.96 3.91678 -3.5139 0
M  V30 19814 O 1853.99 3.79397 -4.24319 0
M  V30 19815 N 1855.19 5.06562 -2.83505 0
M  V30 19816 H 1857.95 0.995403 -2.82687 0
M  V30 19817 H 1855.51 0.398294 -1.56924 0
M  V30 19818 H 1857.51 3.43264 -2.14365 0
M  V30 19819 H 1856.08 2.86788 -1.24385 0
M  V30 19820 H 1855.3 1.81881 -3.49733 0
M  V30 19821 H 1856.58 2.75234 -4.27929 0
M  V30 19822 H 1855.98 5.19437 -2.24056 0
M  V30 19823 H 1854.54 5.82232 -2.93 0
M  V30 19824 N 1857.97 1.50255 0.475528 0
M  V30 19825 C 1859.2 1.64771 1.25132 0
M  V30 19826 C 1859.61 0.329253 1.85907 0
M  V30 19827 O 1858.97 -0.688289 1.69023 0
M  V30 19828 C 1859.02 2.73556 2.36325 0
M  V30 19829 O 1858.74 4.0029 1.78043 0
M  V30 19830 C 1860.24 2.99006 3.27277 0
M  V30 19831 H 1857.46 0.553987 0.378602 0
M  V30 19832 H 1860.01 1.9645 0.56811 0
M  V30 19833 H 1858.16 2.44584 3.00429 0
M  V30 19834 H 1858.58 4.60416 2.51232 0
M  V30 19835 H 1860.05 3.78797 4.01518 0
M  V30 19836 H 1860.53 2.09904 3.85794 0
M  V30 19837 H 1861.13 3.29493 2.68914 0
M  V30 19838 N 1859.45 -0.728395 1.39758 0
M  V30 19839 C 1860.73 -1.48036 1.27846 0
M  V30 19840 C 1861.11 -2.10818 -0.108996 0
M  V30 19841 O 1860.45 -1.99125 -1.12078 0
M  V30 19842 C 1860.66 -2.52644 2.40774 0
M  V30 19843 C 1862.01 -3.1884 2.80404 0
M  V30 19844 O 1863.04 -2.6296 2.40272 0
M  V30 19845 O 1861.9 -4.19971 3.49696 0
M  V30 19846 H 1858.99 -0.657688 0.501374 0
M  V30 19847 H 1861.54 -0.761658 1.51647 0
M  V30 19848 H 1860.31 -2.04678 3.335 0
M  V30 19849 H 1859.93 -3.32066 2.18674 0
M  V30 19850 N 1860.93 -1.25042 -0.959279 0
M  V30 19851 C 1862.15 -1.12339 -1.74341 0
M  V30 19852 C 1862.58 0.319342 -1.85369 0
M  V30 19853 O 1861.94 1.23129 -1.33075 0
M  V30 19854 C 1861.98 -1.77734 -3.13756 0
M  V30 19855 O 1861.09 -1.05383 -3.98708 0
M  V30 19856 H 1860.43 -0.392479 -0.535589 0
M  V30 19857 H 1862.96 -1.65516 -1.20274 0
M  V30 19858 H 1862.97 -1.83832 -3.64239 0
M  V30 19859 H 1861.64 -2.82702 -3.05045 0
M  V30 19860 H 1860.22 -1.07132 -3.57179 0
M  V30 19861 N 1862.41 1.16121 -1.06553 0
M  V30 19862 C 1863.65 1.86346 -0.782279 0
M  V30 19863 C 1863.98 1.82255 0.693395 0
M  V30 19864 O 1863.25 1.2579 1.50179 0
M  V30 19865 H 1861.83 0.689921 -0.286388 0
M  V30 19866 H 1864.49 1.40805 -1.34758 0
M  V30 19867 H 1863.58 2.91712 -1.10954 0
M  V30 19868 N 1863.88 0.848487 1.3281 0
M  V30 19869 C 1864.82 0.233527 2.27002 0
M  V30 19870 C 1865.8 -0.624927 1.50111 0
M  V30 19871 O 1866.98 -0.583083 1.79255 0
M  V30 19872 C 1864.11 -0.671187 3.31983 0
M  V30 19873 C 1863.15 0.113068 4.2635 0
M  V30 19874 S 1863.99 1.47738 5.14717 0
M  V30 19875 C 1865.14 0.578218 6.23223 0
M  V30 19876 H 1865.37 1.03203 2.78813 0
M  V30 19877 H 1862.91 0.645772 1.40247 0
M  V30 19878 H 1864.87 -1.18754 3.92948 0
M  V30 19879 H 1863.53 -1.44344 2.78969 0
M  V30 19880 H 1862.72 -0.575751 5.00701 0
M  V30 19881 H 1862.32 0.560799 3.69772 0
M  V30 19882 H 1864.61 -0.220055 6.77143 0
M  V30 19883 H 1865.56 1.29218 6.9621 0
M  V30 19884 H 1865.96 0.155296 5.64286 0
M  V30 19885 N 1865.36 -1.4549 0.605832 0
M  V30 19886 C 1866.61 -2.02551 0.100487 0
M  V30 19887 C 1866.94 -1.47346 -1.26502 0
M  V30 19888 O 1866.22 -0.647471 -1.83407 0
M  V30 19889 C 1866.5 -3.60051 0.0596664 0
M  V30 19890 C 1866.35 -4.25592 1.45572 0
M  V30 19891 C 1867.67 -4.35581 -0.629073 0
M  V30 19892 H 1864.79 -0.73602 0.0379904 0
M  V30 19893 H 1867.43 -1.73365 0.777468 0
M  V30 19894 H 1865.58 -3.85047 -0.516838 0
M  V30 19895 H 1867.25 -4.11787 2.07916 0
M  V30 19896 H 1865.5 -3.84061 2.01692 0
M  V30 19897 H 1866.17 -5.34487 1.37941 0
M  V30 19898 H 1868.64 -4.15868 -0.139076 0
M  V30 19899 H 1867.52 -5.4531 -0.626735 0
M  V30 19900 H 1867.78 -4.08323 -1.69483 0
M  V30 19901 N 1866.84 -0.344893 -1.5378 0
M  V30 19902 C 1867.77 0.503579 -2.28005 0
M  V30 19903 C 1868.75 1.10149 -1.29619 0
M  V30 19904 O 1869.94 1.12263 -1.58463 0
M  V30 19905 C 1867.07 1.65398 -3.05386 0
M  V30 19906 C 1866.02 1.18434 -4.11288 0
M  V30 19907 C 1865.35 2.42336 -4.76631 0
M  V30 19908 C 1866.65 0.283853 -5.21528 0
M  V30 19909 H 1868.34 -0.115619 -2.99177 0
M  V30 19910 H 1865.89 -0.0570472 -1.43887 0
M  V30 19911 H 1867.84 2.25401 -3.56051 0
M  V30 19912 H 1866.56 2.3001 -2.31869 0
M  V30 19913 H 1865.22 0.607115 -3.61538 0
M  V30 19914 H 1864.87 3.05358 -3.99707 0
M  V30 19915 H 1864.57 2.11594 -5.4818 0
M  V30 19916 H 1866.09 3.03063 -5.3008 0
M  V30 19917 H 1867.51 0.790766 -5.6782 0
M  V30 19918 H 1865.91 0.0682509 -6.00061 0
M  V30 19919 H 1866.98 -0.679653 -4.80113 0
M  V30 19920 N 1868.32 1.57428 -0.0735454 0
M  V30 19921 C 1869.28 2.11699 0.878419 0
M  V30 19922 C 1870.28 1.0414 1.22521 0
M  V30 19923 O 1871.47 1.30121 1.1582 0
M  V30 19924 C 1868.6 2.61979 2.18129 0
M  V30 19925 H 1869.8 2.97118 0.40755 0
M  V30 19926 H 1867.35 1.55315 0.175183 0
M  V30 19927 H 1868.08 1.80018 2.69748 0
M  V30 19928 H 1867.87 3.40599 1.94254 0
M  V30 19929 H 1869.36 3.04035 2.86273 0
M  V30 19930 N 1869.8 -0.200022 1.56326 0
M  V30 19931 C 1871.02 -0.941617 1.84793 0
M  V30 19932 C 1871.45 -1.76271 0.656525 0
M  V30 19933 O 1870.8 -1.76951 -0.394703 0
M  V30 19934 C 1870.85 -1.81754 3.11445 0
M  V30 19935 O 1869.96 -2.91571 2.91651 0
M  V30 19936 H 1869.3 -0.265444 0.608634 0
M  V30 19937 H 1871.83 -0.206826 2.03552 0
M  V30 19938 H 1871.84 -2.22316 3.4211 0
M  V30 19939 H 1870.51 -1.2142 3.97781 0
M  V30 19940 H 1869.09 -2.54799 2.72271 0
M  V30 19941 N 1871.27 -1.50505 -0.467553 0
M  V30 19942 C 1872.18 -1.72419 -1.59087 0
M  V30 19943 C 1873.2 -0.607403 -1.63054 0
M  V30 19944 O 1874.38 -0.886148 -1.80857 0
M  V30 19945 C 1871.44 -1.81686 -2.95281 0
M  V30 19946 C 1870.5 -3.05435 -3.01675 0
M  V30 19947 C 1869.74 -3.1425 -4.31373 0
M  V30 19948 O 1869.96 -2.29766 -5.22076 0
M  V30 19949 O 1868.89 -4.07005 -4.43431 0
M  V30 19950 H 1872.72 -2.67649 -1.43519 0
M  V30 19951 H 1870.3 -1.34643 -0.647422 0
M  V30 19952 H 1872.19 -1.89941 -3.76165 0
M  V30 19953 H 1870.86 -0.896404 -3.11041 0
M  V30 19954 H 1869.77 -3.02678 -2.19856 0
M  V30 19955 H 1871.1 -3.97071 -2.90853 0
M  V30 19956 N 1872.75 0.720973 -1.40142 0
M  V30 19957 C 1873.66 1.86527 -1.42284 0
M  V30 19958 C 1874.68 1.71106 -0.316044 0
M  V30 19959 O 1875.85 1.93465 -0.55977 0
M  V30 19960 C 1872.92 3.2227 -1.27841 0
M  V30 19961 C 1871.98 3.49984 -2.48616 0
M  V30 19962 C 1871.21 4.7925 -2.34852 0
M  V30 19963 O 1871.44 5.53963 -1.35945 0
M  V30 19964 O 1870.37 5.07179 -3.24119 0
M  V30 19965 H 1874.2 1.87675 -2.38771 0
M  V30 19966 H 1871.78 0.870677 -1.21407 0
M  V30 19967 H 1873.66 4.03362 -1.21973 0
M  V30 19968 H 1872.34 3.21861 -0.344566 0
M  V30 19969 H 1871.25 2.68922 -2.60061 0
M  V30 19970 H 1872.58 3.55184 -3.40742 0
M  V30 19971 N 1874.23 1.25549 0.952634 0
M  V30 19972 C 1875.16 1.08592 2.06712 0
M  V30 19973 C 1876.14 -0.00560571 1.70099 0
M  V30 19974 O 1877.33 0.164299 1.93504 0
M  V30 19975 C 1874.46 0.705984 3.40049 0
M  V30 19976 C 1873.41 1.74797 3.90679 0
M  V30 19977 C 1872.74 1.22266 5.20533 0
M  V30 19978 C 1874.04 3.14717 4.16834 0
M  V30 19979 H 1875.73 2.01816 2.21157 0
M  V30 19980 H 1873.28 0.971723 1.06271 0
M  V30 19981 H 1875.23 0.57428 4.17469 0
M  V30 19982 H 1873.95 -0.261964 3.25548 0
M  V30 19983 H 1872.61 1.86815 3.1543 0
M  V30 19984 H 1872.26 0.244887 5.02404 0
M  V30 19985 H 1871.96 1.9191 5.55377 0
M  V30 19986 H 1873.48 1.10339 6.00548 0
M  V30 19987 H 1874.9 3.05842 4.84906 0
M  V30 19988 H 1873.3 3.81849 4.62938 0
M  V30 19989 H 1874.37 3.61629 3.23037 0
M  V30 19990 N 1875.71 -1.15554 1.07168 0
M  V30 19991 C 1876.66 -2.20234 0.690348 0
M  V30 19992 C 1877.63 -1.6304 -0.317346 0
M  V30 19993 O 1878.81 -1.89704 -0.20422 0
M  V30 19994 C 1875.95 -3.44976 0.0923404 0
M  V30 19995 C 1875.06 -4.16377 1.15128 0
M  V30 19996 C 1874.2 -5.28664 0.518478 0
M  V30 19997 C 1873.24 -5.91878 1.56034 0
M  V30 19998 N 1872.37 -6.9564 0.950251 0
M  V30 19999 H 1877.21 -2.52203 1.58738 0
M  V30 20000 H 1874.75 -1.23863 0.793502 0
M  V30 20001 H 1876.71 -4.16312 -0.271985 0
M  V30 20002 H 1875.34 -3.1353 -0.768054 0
M  V30 20003 H 1874.39 -3.43556 1.63321 0
M  V30 20004 H 1875.7 -4.59472 1.94132 0
M  V30 20005 H 1874.86 -6.06615 0.101683 0
M  V30 20006 H 1873.6 -4.86756 -0.303345 0
M  V30 20007 H 1872.6 -5.12641 1.98694 0
M  V30 20008 H 1873.83 -6.35864 2.38442 0
M  V30 20009 H 1871.77 -6.5583 0.149298 0
M  V30 20010 H 1871.69 -7.37153 1.67755 0
M  V30 20011 H 1872.96 -7.77494 0.558895 0
M  V30 20012 N 1877.19 -0.855519 -1.32358 0
M  V30 20013 C 1878.42 -0.473331 -2.01413 0
M  V30 20014 C 1878.83 0.930206 -1.64294 0
M  V30 20015 O 1878.19 1.60714 -0.864705 0
M  V30 20016 C 1878.24 -0.603815 -3.56422 0
M  V30 20017 O 1877.96 -1.95207 -3.92207 0
M  V30 20018 C 1879.46 -0.220748 -4.4275 0
M  V30 20019 H 1876.68 -0.185962 -0.644716 0
M  V30 20020 H 1879.22 -1.1527 -1.68918 0
M  V30 20021 H 1877.38 0.0278263 -3.8739 0
M  V30 20022 H 1877.79 -1.94946 -4.86925 0
M  V30 20023 H 1879.27 -0.363048 -5.50805 0
M  V30 20024 H 1879.74 0.838881 -4.31114 0
M  V30 20025 H 1880.35 -0.827498 -4.17172 0
M  V30 20026 N 1878.67 1.45167 -0.61354 0
M  V30 20027 C 1879.6 2.3333 0.089004 0
M  V30 20028 C 1880.58 1.47181 0.85275 0
M  V30 20029 O 1881.76 1.7594 0.822122 0
M  V30 20030 C 1878.89 3.29982 1.08301 0
M  V30 20031 C 1877.85 4.25813 0.432084 0
M  V30 20032 C 1877.17 5.122 1.53476 0
M  V30 20033 C 1878.47 5.18233 -0.65052 0
M  V30 20034 H 1880.17 2.92322 -0.647165 0
M  V30 20035 H 1877.71 1.40565 -0.312667 0
M  V30 20036 H 1879.66 3.90533 1.5831 0
M  V30 20037 H 1878.39 2.69162 1.84985 0
M  V30 20038 H 1877.05 3.6657 -0.0471927 0
M  V30 20039 H 1876.7 4.47744 2.29203 0
M  V30 20040 H 1876.4 5.77122 1.10469 0
M  V30 20041 H 1877.92 5.7562 2.037 0
M  V30 20042 H 1879.33 5.72821 -0.234262 0
M  V30 20043 H 1877.73 5.91664 -1.00268 0
M  V30 20044 H 1878.8 4.60304 -1.52475 0
M  V30 20045 N 1880.14 0.353044 1.53595 0
M  V30 20046 C 1881.05 -0.507548 2.29044 0
M  V30 20047 C 1882.07 -1.10364 1.34521 0
M  V30 20048 O 1883.25 -1.11728 1.67567 0
M  V30 20049 C 1880.31 -1.63799 3.05566 0
M  V30 20050 C 1879.37 -1.07071 4.15733 0
M  V30 20051 C 1878.6 -2.14728 4.88597 0
M  V30 20052 O 1878.83 -3.35619 4.61211 0
M  V30 20053 O 1877.76 -1.78489 5.74826 0
M  V30 20054 H 1881.59 0.10606 3.03515 0
M  V30 20055 H 1879.17 0.117799 1.48935 0
M  V30 20056 H 1881.05 -2.2955 3.5339 0
M  V30 20057 H 1879.73 -2.23723 2.33944 0
M  V30 20058 H 1878.64 -0.37746 3.72191 0
M  V30 20059 H 1879.97 -0.516205 4.89486 0
M  V30 20060 N 1881.62 -1.57387 0.0818932 0
M  V30 20061 C 1882.9 -1.85297 -0.626447 0
M  V30 20062 C 1883.28 -0.976281 -1.87168 0
M  V30 20063 O 1882.63 -0.0451999 -2.28455 0
M  V30 20064 C 1882.84 -3.35695 -0.954461 0
M  V30 20065 C 1884.18 -4.03442 -1.32361 0
M  V30 20066 O 1885.21 -3.40499 -1.04588 0
M  V30 20067 O 1884.07 -5.1448 -1.84317 0
M  V30 20068 H 1881.16 -0.765835 -0.31213 0
M  V30 20069 H 1883.71 -1.69319 0.11359 0
M  V30 20070 H 1882.48 -3.91237 -0.0704846 0
M  V30 20071 H 1882.1 -3.56971 -1.75092 0
M  V30 20072 N 1883.1 0.191729 -1.56429 0
M  V30 20073 C 1884.52 0.542701 -1.5009 0
M  V30 20074 C 1884.72 1.85685 -0.782522 0
M  V30 20075 O 1883.77 2.50275 -0.334432 0
M  V30 20076 C 1885.08 0.594326 -2.94768 0
M  V30 20077 C 1886.63 0.682929 -3.05459 0
M  V30 20078 C 1887.11 0.765634 -4.51555 0
M  V30 20079 N 1888.6 0.829072 -4.5572 0
M  V30 20080 C 1889.33 0.91329 -5.6608 0
M  V30 20081 N 1888.83 0.959603 -6.86122 0
M  V30 20082 N 1890.62 0.950739 -5.54001 0
M  V30 20083 H 1882.77 -0.670241 -2.01548 0
M  V30 20084 H 1885.04 -0.239168 -0.917335 0
M  V30 20085 H 1884.74 -0.302238 -3.50399 0
M  V30 20086 H 1884.62 1.44787 -3.48305 0
M  V30 20087 H 1887 1.56992 -2.49875 0
M  V30 20088 H 1887.08 -0.19688 -2.55041 0
M  V30 20089 H 1886.73 -0.117022 -5.07765 0
M  V30 20090 H 1886.66 1.66129 -4.99709 0
M  V30 20091 H 1889.15 0.802391 -3.69283 0
M  V30 20092 H 1889.46 1.02447 -7.65979 0
M  V30 20093 H 1887.81 0.928223 -6.88774 0
M  V30 20094 H 1891 0.911418 -4.59141 0
M  V30 20095 H 1891.17 1.01291 -6.40034 0
M  V30 20096 N 1884.58 1.50751 0.459565 0
M  V30 20097 C 1885.81 1.66089 1.23377 0
M  V30 20098 C 1886.22 0.348952 1.85547 0
M  V30 20099 O 1885.58 -0.670323 1.69744 0
M  V30 20100 C 1885.63 2.76047 2.3341 0
M  V30 20101 O 1885.35 4.02156 1.73787 0
M  V30 20102 C 1886.85 3.02461 3.24087 0
M  V30 20103 H 1884.07 0.557971 0.372705 0
M  V30 20104 H 1886.61 1.97042 0.547242 0
M  V30 20105 H 1884.77 2.47756 2.97818 0
M  V30 20106 H 1885.18 4.63055 2.46335 0
M  V30 20107 H 1886.66 3.83034 3.97478 0
M  V30 20108 H 1887.13 2.13984 3.83546 0
M  V30 20109 H 1887.74 3.32326 2.65404 0
M  V30 20110 N 1886.06 -0.713531 1.40522 0
M  V30 20111 C 1887 -1.82761 1.40951 0
M  V30 20112 C 1887.97 -1.63953 0.266188 0
M  V30 20113 O 1889.16 -1.85058 0.464558 0
M  V30 20114 C 1886.3 -3.20488 1.27989 0
M  V30 20115 C 1885.41 -3.50853 2.52044 0
M  V30 20116 C 1884.55 -4.78097 2.31509 0
M  V30 20117 C 1883.58 -5.01373 3.51129 0
M  V30 20118 N 1882.72 -6.19832 3.29777 0
M  V30 20119 H 1887.56 -1.81729 2.36175 0
M  V30 20120 H 1885.1 -0.887703 1.17296 0
M  V30 20121 H 1887.06 -4.00023 1.1848 0
M  V30 20122 H 1885.69 -3.20743 0.363832 0
M  V30 20123 H 1884.74 -2.65858 2.72073 0
M  V30 20124 H 1886.05 -3.63961 3.41077 0
M  V30 20125 H 1885.2 -5.65654 2.19365 0
M  V30 20126 H 1883.94 -4.67203 1.39903 0
M  V30 20127 H 1882.95 -4.12271 3.63748 0
M  V30 20128 H 1884.17 -5.14139 4.43664 0
M  V30 20129 H 1882.12 -6.10184 2.40855 0
M  V30 20130 H 1882.04 -6.33626 4.12376 0
M  V30 20131 H 1883.3 -7.1017 3.2137 0
M  V30 20132 N 1887.53 -1.26053 -0.945962 0
M  V30 20133 C 1888.46 -1.09687 -2.06134 0
M  V30 20134 C 1889.44 -0.00341513 -1.701 0
M  V30 20135 O 1890.63 -0.174559 -1.93414 0
M  V30 20136 C 1887.76 -0.724007 -3.3967 0
M  V30 20137 C 1886.71 -1.76866 -3.89747 0
M  V30 20138 C 1886.04 -1.25025 -5.19878 0
M  V30 20139 C 1887.34 -3.16923 -4.15159 0
M  V30 20140 H 1889.03 -2.02986 -2.20084 0
M  V30 20141 H 1886.58 -0.977346 -1.05754 0
M  V30 20142 H 1888.53 -0.596411 -4.17158 0
M  V30 20143 H 1887.26 0.244695 -3.25682 0
M  V30 20144 H 1885.92 -1.88485 -3.14435 0
M  V30 20145 H 1885.56 -0.271527 -5.02267 0
M  V30 20146 H 1885.26 -1.94853 -5.54352 0
M  V30 20147 H 1886.79 -1.13523 -5.99954 0
M  V30 20148 H 1888.2 -3.08409 -4.83277 0
M  V30 20149 H 1886.6 -3.84299 -4.60906 0
M  V30 20150 H 1887.67 -3.63337 -3.21114 0
M  V30 20151 N 1889.01 1.14984 -1.07779 0
M  V30 20152 C 1890.24 1.90288 -0.824935 0
M  V30 20153 C 1890.66 1.77709 0.616524 0
M  V30 20154 O 1890.02 1.11281 1.4313 0
M  V30 20155 C 1890.07 3.38482 -1.24348 0
M  V30 20156 O 1889.17 4.10538 -0.391454 0
M  V30 20157 H 1888.51 0.592283 -0.300162 0
M  V30 20158 H 1891.04 1.45588 -1.43755 0
M  V30 20159 H 1891.05 3.89284 -1.22155 0
M  V30 20160 H 1889.73 3.46956 -2.29335 0
M  V30 20161 H 1888.3 3.69846 -0.476247 0
M  V30 20162 N 1890.49 0.862526 1.31902 0
M  V30 20163 C 1891.9 0.523345 1.79215 0
M  V30 20164 C 1892.25 -0.95931 1.71148 0
M  V30 20165 O 1891.38 -1.74868 1.27476 0
M  V30 20166 C 1891.97 0.943195 3.25406 0
M  V30 20167 C 1890.53 0.655789 3.70643 0
M  V30 20168 C 1889.68 1.13861 2.52846 0
M  V30 20169 H 1892.63 1.04897 1.19089 0
M  V30 20170 H 1892.65 0.262794 3.79591 0
M  V30 20171 H 1892.16 2.02233 3.31245 0
M  V30 20172 H 1890.26 -0.412291 3.70312 0
M  V30 20173 H 1890.38 1.2276 4.63106 0
M  V30 20174 H 1888.74 0.558615 2.48499 0
M  V30 20175 H 1889.52 2.22501 2.61434 0
M  V30 20176 N 1891.97 -1.4484 0.62123 0
M  V30 20177 C 1893.19 -2.07012 0.126801 0
M  V30 20178 C 1893.62 -1.46046 -1.18542 0
M  V30 20179 O 1892.98 -0.558202 -1.72493 0
M  V30 20180 C 1893.02 -3.60597 0.0150611 0
M  V30 20181 O 1892.13 -3.9929 -1.03157 0
M  V30 20182 H 1891.47 -0.659131 0.0802646 0
M  V30 20183 H 1894 -1.85874 0.855105 0
M  V30 20184 H 1894.01 -4.07608 -0.178742 0
M  V30 20185 H 1892.68 -4.04354 0.973153 0
M  V30 20186 H 1891.26 -3.63927 -0.813135 0
M  V30 20187 N 1893.45 -0.361184 -1.53405 0
M  V30 20188 C 1894.69 0.229881 -2.01191 0
M  V30 20189 C 1895.02 1.49133 -1.24858 0
M  V30 20190 O 1894.28 1.92911 -0.329218 0
M  V30 20191 C 1894.58 0.572109 -3.52791 0
M  V30 20192 C 1894.24 -0.594503 -4.46964 0
M  V30 20193 C 1892.9 -0.914615 -4.72428 0
M  V30 20194 C 1895.26 -1.3763 -5.027 0
M  V30 20195 C 1892.58 -2.01858 -5.50881 0
M  V30 20196 C 1894.94 -2.47064 -5.82359 0
M  V30 20197 C 1893.6 -2.79615 -6.06112 0
M  V30 20198 H 1892.87 0.0841196 -0.73621 0
M  V30 20199 H 1895.52 -0.49274 -1.85052 0
M  V30 20200 H 1893.82 1.37569 -3.66854 0
M  V30 20201 H 1895.52 1.04161 -3.87236 0
M  V30 20202 H 1892.11 -0.334965 -4.27289 0
M  V30 20203 H 1896.29 -1.14224 -4.82977 0
M  V30 20204 H 1891.55 -2.27481 -5.67505 0
M  V30 20205 H 1895.72 -3.08062 -6.24556 0
M  V30 20206 H 1893.35 -3.65282 -6.66688 0
M  V30 20207 N 1894.92 1.57341 -0.0902386 0
M  V30 20208 C 1896.17 1.93793 0.573474 0
M  V30 20209 C 1896.49 0.972444 1.69022 0
M  V30 20210 O 1895.76 0.0236753 1.95886 0
M  V30 20211 H 1894.34 0.715442 0.21483 0
M  V30 20212 H 1897.01 1.94303 -0.15243 0
M  V30 20213 H 1896.1 2.96088 0.986829 0
M  V30 20214 N 1896.4 -0.183431 1.56529 0
M  V30 20215 C 1897.65 -0.900214 1.80944 0
M  V30 20216 C 1897.97 -1.83302 0.665246 0
M  V30 20217 O 1897.24 -1.9334 -0.315697 0
M  V30 20218 H 1895.82 -0.335409 0.667465 0
M  V30 20219 H 1898.48 -0.186146 1.94009 0
M  V30 20220 H 1897.58 -1.48437 2.74541 0
M  V30 20221 N 1897.88 -1.50992 -0.451564 0
M  V30 20222 C 1898.81 -1.65941 -1.56648 0
M  V30 20223 C 1899.79 -0.507159 -1.54488 0
M  V30 20224 O 1900.98 -0.729186 -1.73825 0
M  V30 20225 C 1898.1 -1.65995 -2.95234 0
M  V30 20226 C 1897.15 -2.87016 -3.15474 0
M  V30 20227 S 1897.98 -4.48044 -2.93287 0
M  V30 20228 C 1899.14 -4.5082 -4.3418 0
M  V30 20229 H 1899.37 -2.60247 -1.43731 0
M  V30 20230 H 1896.9 -1.40499 -0.640276 0
M  V30 20231 H 1898.86 -1.6671 -3.75124 0
M  V30 20232 H 1897.52 -0.728911 -3.05525 0
M  V30 20233 H 1896.72 -2.83413 -4.16765 0
M  V30 20234 H 1896.32 -2.83969 -2.43388 0
M  V30 20235 H 1898.61 -4.25585 -5.27147 0
M  V30 20236 H 1899.55 -5.52554 -4.4282 0
M  V30 20237 H 1899.96 -3.80301 -4.17171 0
M  V30 20238 N 1899.36 0.706069 -1.40899 0
M  V30 20239 C 1900.6 1.46821 -1.39898 0
M  V30 20240 C 1900.94 1.942 -0.00437855 0
M  V30 20241 O 1900.21 1.68815 0.966002 0
M  V30 20242 C 1900.5 2.68756 -2.39671 0
M  V30 20243 C 1900.35 2.27211 -3.88195 0
M  V30 20244 C 1901.67 3.70935 -2.36845 0
M  V30 20245 H 1898.79 0.532549 -0.509471 0
M  V30 20246 H 1901.43 0.805057 -1.72101 0
M  V30 20247 H 1899.58 3.25337 -2.1234 0
M  V30 20248 H 1901.25 1.76038 -4.2639 0
M  V30 20249 H 1899.49 1.59108 -4.03568 0
M  V30 20250 H 1900.16 3.14656 -4.53537 0
M  V30 20251 H 1902.64 3.24004 -2.61076 0
M  V30 20252 H 1901.52 4.53876 -3.08687 0
M  V30 20253 H 1901.78 4.19899 -1.38337 0
M  V30 20254 N 1900.84 1.26553 0.939264 0
M  V30 20255 C 1902.25 1.11093 1.50051 0
M  V30 20256 C 1902.6 -0.308105 1.93766 0
M  V30 20257 O 1901.72 -1.19981 1.80093 0
M  V30 20258 C 1902.32 2.01053 2.72696 0
M  V30 20259 C 1900.88 1.89734 3.25082 0
M  V30 20260 C 1900.02 1.94291 1.97854 0
M  V30 20261 H 1902.98 1.39614 0.754553 0
M  V30 20262 H 1903 1.55955 3.47071 0
M  V30 20263 H 1902.51 3.04325 2.40848 0
M  V30 20264 H 1900.61 0.894042 3.61715 0
M  V30 20265 H 1900.72 2.75368 3.92058 0
M  V30 20266 H 1899.09 1.38367 2.13838 0
M  V30 20267 H 1899.87 2.99196 1.68335 0
M  V30 20268 N 1902.31 -1.14411 1.08387 0
M  V30 20269 C 1903.54 -1.89848 0.835015 0
M  V30 20270 C 1903.96 -1.78034 -0.607091 0
M  V30 20271 O 1903.32 -1.12039 -1.42538 0
M  V30 20272 C 1903.37 -3.37818 1.26141 0
M  V30 20273 O 1902.47 -4.10325 0.41322 0
M  V30 20274 H 1901.82 -0.590682 0.303299 0
M  V30 20275 H 1904.35 -1.44823 1.44525 0
M  V30 20276 H 1904.36 -3.88631 1.24218 0
M  V30 20277 H 1903.03 -3.45735 2.31172 0
M  V30 20278 H 1901.61 -3.69589 0.495854 0
M  V30 20279 N 1903.79 -0.869509 -1.31443 0
M  V30 20280 C 1904.74 -0.323034 -2.28528 0
M  V30 20281 C 1905.71 0.578245 -1.5571 0
M  V30 20282 O 1906.89 0.509983 -1.83858 0
M  V30 20283 C 1904.03 0.469861 -3.41886 0
M  V30 20284 C 1903.15 -0.458883 -4.29556 0
M  V30 20285 C 1902.28 0.348092 -5.30058 0
M  V30 20286 C 1901.32 -0.577109 -6.09373 0
M  V30 20287 N 1900.46 0.193589 -7.01833 0
M  V30 20288 H 1905.3 -1.15614 -2.74659 0
M  V30 20289 H 1902.84 -0.581526 -1.35117 0
M  V30 20290 H 1904.79 0.945338 -4.06349 0
M  V30 20291 H 1903.42 1.26767 -2.96867 0
M  V30 20292 H 1902.48 -1.05281 -3.65541 0
M  V30 20293 H 1903.79 -1.16833 -4.84924 0
M  V30 20294 H 1902.94 0.886098 -6.00194 0
M  V30 20295 H 1901.68 1.09083 -4.75344 0
M  V30 20296 H 1900.69 -1.12687 -5.38128 0
M  V30 20297 H 1901.91 -1.31869 -6.66174 0
M  V30 20298 H 1899.86 0.919147 -6.49529 0
M  V30 20299 H 1899.77 -0.456525 -7.5462 0
M  V30 20300 H 1901.04 0.71284 -7.76234 0
M  V30 20301 N 1905.27 1.44508 -0.628902 0
M  V30 20302 C 1906.5 2.06942 -0.137778 0
M  V30 20303 C 1906.92 1.46672 1.17766 0
M  V30 20304 O 1906.28 0.567342 1.72194 0
M  V30 20305 C 1906.33 3.60584 -0.0341843 0
M  V30 20306 O 1905.43 3.99831 1.01038 0
M  V30 20307 H 1904.77 0.658696 -0.083759 0
M  V30 20308 H 1907.3 1.85418 -0.864951 0
M  V30 20309 H 1907.31 4.07697 0.157123 0
M  V30 20310 H 1905.99 4.03833 -0.994583 0
M  V30 20311 H 1904.56 3.64353 0.793824 0
M  V30 20312 N 1906.75 0.369315 1.53212 0
M  V30 20313 C 1908.17 0.0184115 1.59589 0
M  V30 20314 C 1908.37 -1.46424 1.38428 0
M  V30 20315 O 1907.42 -2.2263 1.1913 0
M  V30 20316 C 1908.73 0.477693 2.96881 0
M  V30 20317 C 1910.28 0.432233 3.10001 0
M  V30 20318 C 1910.76 0.867386 4.49711 0
M  V30 20319 N 1912.25 0.822594 4.55837 0
M  V30 20320 C 1912.98 1.13094 5.62136 0
M  V30 20321 N 1912.48 1.50876 6.76172 0
M  V30 20322 N 1914.27 1.0535 5.52139 0
M  V30 20323 H 1906.42 1.33479 1.65218 0
M  V30 20324 H 1908.69 0.545823 0.775101 0
M  V30 20325 H 1908.39 1.51245 3.17518 0
M  V30 20326 H 1908.27 -0.133741 3.76963 0
M  V30 20327 H 1910.65 -0.593397 2.89072 0
M  V30 20328 H 1910.73 1.07921 2.3192 0
M  V30 20329 H 1910.38 1.89115 4.71379 0
M  V30 20330 H 1910.31 0.19762 5.26229 0
M  V30 20331 H 1912.8 0.544303 3.7396 0
M  V30 20332 H 1913.11 1.72821 7.53228 0
M  V30 20333 H 1911.46 1.54745 6.77554 0
M  V30 20334 H 1914.65 0.757487 4.6193 0
M  V30 20335 H 1914.82 1.29713 6.34885 0
M  V30 20336 N 1908.23 -1.57291 0.0985816 0
M  V30 20337 C 1909.14 -2.17742 -0.873245 0
M  V30 20338 C 1910.15 -1.14784 -1.3077 0
M  V30 20339 O 1911.33 -1.47169 -1.37489 0
M  V30 20340 C 1908.39 -2.74864 -2.11308 0
M  V30 20341 C 1907.46 -3.92789 -1.73249 0
M  V30 20342 C 1906.69 -4.47177 -2.91322 0
M  V30 20343 O 1906.91 -4.00497 -4.06151 0
M  V30 20344 O 1905.85 -5.38151 -2.69587 0
M  V30 20345 H 1909.67 -3.012 -0.388902 0
M  V30 20346 H 1907.26 -1.48868 -0.125955 0
M  V30 20347 H 1909.14 -3.11359 -2.8396 0
M  V30 20348 H 1907.81 -1.9445 -2.58787 0
M  V30 20349 H 1906.72 -3.61099 -0.977663 0
M  V30 20350 H 1908.05 -4.74577 -1.3053 0
M  V30 20351 N 1909.71 0.175127 -1.56624 0
M  V30 20352 C 1910.93 0.912099 -1.86267 0
M  V30 20353 C 1911.36 1.75204 -0.684485 0
M  V30 20354 O 1910.71 1.77557 0.366501 0
M  V30 20355 C 1910.76 1.76776 -3.14297 0
M  V30 20356 O 1909.87 2.86894 -2.96253 0
M  V30 20357 H 1909.21 0.255728 -0.61278 0
M  V30 20358 H 1911.74 0.174416 -2.03855 0
M  V30 20359 H 1911.75 2.16845 -3.45604 0
M  V30 20360 H 1910.42 1.15077 -3.99663 0
M  V30 20361 H 1909 2.50435 -2.76291 0
M  V30 20362 N 1911.18 1.5123 0.44355 0
M  V30 20363 C 1912.43 1.63833 1.19527 0
M  V30 20364 C 1912.76 0.350544 1.9101 0
M  V30 20365 O 1912.04 -0.649546 1.83333 0
M  V30 20366 C 1912.32 2.83747 2.21719 0
M  V30 20367 C 1912.17 4.22484 1.5436 0
M  V30 20368 C 1913.49 2.99184 3.22765 0
M  V30 20369 H 1910.61 0.596256 0.433184 0
M  V30 20370 H 1913.25 1.83697 0.485321 0
M  V30 20371 H 1911.4 2.66942 2.82267 0
M  V30 20372 H 1913.08 4.50944 0.971976 0
M  V30 20373 H 1911.32 4.25469 0.846069 0
M  V30 20374 H 1911.99 5.0237 2.28754 0
M  V30 20375 H 1914.47 3.14659 2.72266 0
M  V30 20376 H 1913.34 3.84663 3.91569 0
M  V30 20377 H 1913.6 2.10984 3.88508 0
M  V30 20378 N 1912.66 -0.698586 1.41271 0
M  V30 20379 C 1913.62 -1.7943 1.4261 0
M  V30 20380 C 1914.62 -1.57641 0.317187 0
M  V30 20381 O 1915.81 -1.64369 0.576922 0
M  V30 20382 C 1912.95 -3.17762 1.23452 0
M  V30 20383 H 1914.14 -1.79637 2.40147 0
M  V30 20384 H 1911.69 -0.905916 1.27369 0
M  V30 20385 H 1912.43 -3.23195 0.267431 0
M  V30 20386 H 1912.21 -3.34978 2.03794 0
M  V30 20387 H 1913.7 -3.97751 1.27217 0
M  V30 20388 N 1914.14 -1.27049 -0.93254 0
M  V30 20389 C 1915.36 -1.16011 -1.71919 0
M  V30 20390 C 1915.79 0.279951 -1.86005 0
M  V30 20391 O 1915.15 1.20279 -1.35657 0
M  V30 20392 C 1915.2 -1.84349 -3.09916 0
M  V30 20393 O 1914.3 -1.13816 -3.96383 0
M  V30 20394 H 1913.64 -0.403752 -0.527144 0
M  V30 20395 H 1916.17 -1.6803 -1.16736 0
M  V30 20396 H 1916.18 -1.91516 -3.60258 0
M  V30 20397 H 1914.86 -2.89109 -2.9898 0
M  V30 20398 H 1913.43 -1.14684 -3.54827 0
M  V30 20399 N 1915.62 1.13835 -1.08993 0
M  V30 20400 C 1916.53 2.22715 -0.73724 0
M  V30 20401 C 1917.54 1.72064 0.258869 0
M  V30 20402 O 1918.72 2.01145 0.101321 0
M  V30 20403 C 1915.78 3.46338 -0.158285 0
M  V30 20404 C 1914.85 4.11902 -1.20977 0
M  V30 20405 C 1914.08 5.29624 -0.658349 0
M  V30 20406 O 1914.3 5.68023 0.520219 0
M  V30 20407 O 1913.24 5.85121 -1.41126 0
M  V30 20408 H 1917.06 2.55247 -1.64568 0
M  V30 20409 H 1914.65 1.21882 -0.864013 0
M  V30 20410 H 1916.53 4.2109 0.161481 0
M  V30 20411 H 1915.2 3.15517 0.723235 0
M  V30 20412 H 1914.11 3.38996 -1.58216 0
M  V30 20413 H 1915.44 4.46843 -2.06378 0
M  V30 20414 N 1917.1 0.876467 1.3098 0
M  V30 20415 C 1918.34 0.489671 1.96078 0
M  V30 20416 C 1918.66 -0.962603 1.69585 0
M  V30 20417 O 1917.93 -1.67568 1.01478 0
M  V30 20418 H 1916.51 0.178091 0.72546 0
M  V30 20419 H 1919.18 1.11768 1.59668 0
M  V30 20420 H 1918.27 0.652822 3.05196 0
M  V30 20421 N 1918.57 -1.44173 0.636557 0
M  V30 20422 C 1919.8 -2.06866 0.148751 0
M  V30 20423 C 1920.22 -1.47295 -1.16987 0
M  V30 20424 O 1919.58 -0.576466 -1.71891 0
M  V30 20425 C 1919.63 -3.60561 0.0533064 0
M  V30 20426 O 1918.73 -4.00361 -0.989163 0
M  V30 20427 H 1918.07 -0.658243 0.087251 0
M  V30 20428 H 1920.6 -1.84956 0.874772 0
M  V30 20429 H 1920.61 -4.07775 -0.135499 0
M  V30 20430 H 1919.29 -4.033 1.01599 0
M  V30 20431 H 1917.87 -3.64769 -0.77449 0
M  V30 20432 N 1920.05 -0.377435 -1.53014 0
M  V30 20433 C 1921 0.478416 -2.27627 0
M  V30 20434 C 1921.99 1.07327 -1.31062 0
M  V30 20435 O 1923.2 1.01511 -1.48646 0
M  V30 20436 H 1919.57 0.173021 -0.731825 0
M  V30 20437 H 1921.55 -0.172497 -2.97901 0
M  V30 20438 C 1920.29 1.59993 -3.08703 0
M  V30 20439 H 1919.62 1.15151 -3.82858 0
M  V30 20440 H 1921.06 2.17324 -3.64069 0
M  V30 20441 C 1919.52 2.54912 -2.20275 0
M  V30 20442 O 1920.05 3.58027 -1.82152 0
M  V30 20443 N 1918.25 2.24376 -1.84672 0
M  V30 20444 H 1917.8 1.40559 -2.15873 0
M  V30 20445 H 1917.76 2.88137 -1.25794 0
M  V30 20446 N 1921.53 1.57237 -0.106922 0
M  V30 20447 C 1922.46 2.11718 0.877968 0
M  V30 20448 C 1923.48 1.0571 1.23812 0
M  V30 20449 O 1924.66 1.3312 1.18917 0
M  V30 20450 C 1921.76 2.59182 2.18352 0
M  V30 20451 C 1920.94 3.89156 1.99691 0
M  V30 20452 C 1920 4.22344 3.13866 0
M  V30 20453 O 1919.02 4.91367 2.87309 0
M  V30 20454 N 1920.22 3.78694 4.39967 0
M  V30 20455 H 1922.99 2.96846 0.412584 0
M  V30 20456 H 1920.55 1.61713 0.0778505 0
M  V30 20457 H 1922.54 2.78423 2.93706 0
M  V30 20458 H 1921.11 1.78999 2.56277 0
M  V30 20459 H 1920.33 3.78945 1.086 0
M  V30 20460 H 1921.62 4.74165 1.84514 0
M  V30 20461 H 1921.02 3.23 4.64422 0
M  V30 20462 H 1919.58 4.03067 5.12231 0
M  V30 20463 N 1923.01 -0.166818 1.56715 0
M  V30 20464 C 1924.24 -0.898169 1.86388 0
M  V30 20465 C 1924.65 -1.75628 0.692837 0
M  V30 20466 O 1924.01 -1.79344 -0.337947 0
M  V30 20467 C 1924.06 -1.77122 3.15135 0
M  V30 20468 O 1923.78 -0.947716 4.27727 0
M  V30 20469 C 1925.28 -2.61185 3.58186 0
M  V30 20470 H 1922.5 -0.260711 0.61828 0
M  V30 20471 H 1925.05 -0.165561 2.03829 0
M  V30 20472 H 1923.2 -2.45711 2.99507 0
M  V30 20473 H 1923.61 -1.54523 5.01221 0
M  V30 20474 H 1925.09 -3.18052 4.51162 0
M  V30 20475 H 1925.57 -3.36273 2.8252 0
M  V30 20476 H 1926.17 -1.9792 3.76441 0
M  V30 20477 N 1924.49 -1.51463 -0.435524 0
M  V30 20478 C 1925.71 -1.68316 -1.21179 0
M  V30 20479 C 1926.14 -0.380709 -1.84207 0
M  V30 20480 O 1925.49 0.659318 -1.68887 0
M  V30 20481 C 1925.54 -2.80168 -2.27021 0
M  V30 20482 O 1924.65 -2.43897 -3.32548 0
M  V30 20483 H 1923.99 -0.561165 -0.35495 0
M  V30 20484 H 1926.52 -1.98036 -0.514097 0
M  V30 20485 H 1926.53 -3.04305 -2.71776 0
M  V30 20486 H 1925.2 -3.74678 -1.80524 0
M  V30 20487 H 1923.78 -2.30337 -2.93256 0
M  V30 20488 N 1925.96 0.691085 -1.4164 0
M  V30 20489 C 1927.21 1.44828 -1.40959 0
M  V30 20490 C 1927.53 1.94988 -0.0211789 0
M  V30 20491 O 1926.8 1.71999 0.937714 0
M  V30 20492 H 1925.38 0.53739 -0.518865 0
M  V30 20493 H 1928.05 0.817677 -1.76918 0
M  V30 20494 H 1927.14 2.30926 -2.09952 0
M  V30 20495 N 1927.44 1.27542 0.925789 0
M  V30 20496 C 1928.67 1.16641 1.70524 0
M  V30 20497 C 1929.08 -0.279149 1.87129 0
M  V30 20498 O 1928.42 -1.20171 1.38941 0
M  V30 20499 C 1928.49 1.77978 3.12352 0
M  V30 20500 C 1928.15 3.27168 3.19077 0
M  V30 20501 C 1929.15 4.23775 3.01182 0
M  V30 20502 C 1926.83 3.67911 3.41975 0
M  V30 20503 C 1928.83 5.59102 3.06077 0
M  V30 20504 C 1926.51 5.03367 3.46504 0
M  V30 20505 C 1927.51 5.98773 3.28573 0
M  V30 20506 O 1927.2 7.3176 3.3284 0
M  V30 20507 H 1926.93 0.406366 0.540225 0
M  V30 20508 H 1929.48 1.68956 1.16803 0
M  V30 20509 H 1927.71 1.20143 3.67563 0
M  V30 20510 H 1929.4 1.61765 3.72273 0
M  V30 20511 H 1930.17 3.93635 2.83331 0
M  V30 20512 H 1926.05 2.94125 3.54981 0
M  V30 20513 H 1929.59 6.33547 2.92 0
M  V30 20514 H 1925.49 5.33162 3.63879 0
M  V30 20515 H 1926.26 7.40233 3.49282 0
M  V30 20516 N 1928.92 -1.13255 1.09595 0
M  V30 20517 C 1929.85 -2.18416 0.69477 0
M  V30 20518 C 1930.87 -1.60641 -0.264232 0
M  V30 20519 O 1932.05 -1.7843 -0.0500201 0
M  V30 20520 C 1929.15 -3.389 0.00330039 0
M  V30 20521 C 1928.33 -4.26181 0.984281 0
M  V30 20522 C 1927.39 -5.2519 0.325898 0
M  V30 20523 O 1926.41 -5.60804 0.974057 0
M  V30 20524 N 1927.61 -5.73175 -0.919261 0
M  V30 20525 H 1930.38 -2.53448 1.59951 0
M  V30 20526 H 1927.94 -1.28594 0.983625 0
M  V30 20527 H 1929.93 -4.02208 -0.4484 0
M  V30 20528 H 1928.5 -3.02091 -0.803713 0
M  V30 20529 H 1927.72 -3.59622 1.61449 0
M  V30 20530 H 1929.01 -4.81351 1.64861 0
M  V30 20531 H 1928.41 -5.46391 -1.46538 0
M  V30 20532 H 1926.97 -6.38413 -1.31425 0
M  V30 20533 N 1930.4 -0.883401 -1.30514 0
M  V30 20534 C 1931.62 -0.515186 -2.00899 0
M  V30 20535 C 1932.05 0.888515 -1.65792 0
M  V30 20536 O 1931.41 1.58859 -0.873692 0
M  V30 20537 C 1931.45 -0.695291 -3.53833 0
M  V30 20538 O 1930.56 0.259516 -4.11583 0
M  V30 20539 H 1929.9 -0.20321 -0.63214 0
M  V30 20540 H 1932.43 -1.19051 -1.66397 0
M  V30 20541 H 1932.44 -0.593688 -4.03657 0
M  V30 20542 H 1931.11 -1.71874 -3.78724 0
M  V30 20543 H 1929.69 0.111741 -3.72733 0
M  V30 20544 N 1931.88 1.43833 -0.644194 0
M  V30 20545 C 1933.12 2.01515 -0.153623 0
M  V30 20546 C 1933.45 1.51022 1.23358 0
M  V30 20547 O 1932.72 0.719137 1.82223 0
M  V30 20548 H 1931.3 0.74506 -0.053802 0
M  V30 20549 H 1933.96 1.76163 -0.833833 0
M  V30 20550 H 1933.05 3.11824 -0.131313 0
M  V30 20551 N 1933.35 0.385544 1.52811 0
M  V30 20552 C 1934.58 -0.197738 2.05652 0
M  V30 20553 C 1934.99 -1.41373 1.2574 0
M  V30 20554 O 1934.34 -1.81297 0.296184 0
M  V30 20555 C 1934.4 -0.636031 3.53829 0
M  V30 20556 C 1934.06 0.465981 4.54618 0
M  V30 20557 C 1935.06 1.3222 5.02806 0
M  V30 20558 C 1932.74 0.631936 4.98309 0
M  V30 20559 C 1934.74 2.32954 5.93305 0
M  V30 20560 C 1932.42 1.64261 5.8861 0
M  V30 20561 C 1933.42 2.48983 6.36 0
M  V30 20562 O 1933.11 3.48324 7.24518 0
M  V30 20563 H 1932.84 -0.0343646 0.675126 0
M  V30 20564 H 1935.4 0.548149 1.97951 0
M  V30 20565 H 1933.63 -1.43384 3.59135 0
M  V30 20566 H 1935.32 -1.14456 3.89429 0
M  V30 20567 H 1936.08 1.20528 4.69785 0
M  V30 20568 H 1931.96 -0.0177815 4.60997 0
M  V30 20569 H 1935.5 2.99118 6.30218 0
M  V30 20570 H 1931.4 1.75993 6.21045 0
M  V30 20571 H 1932.17 3.44288 7.42569 0
M  V30 20572 N 1934.83 -1.57178 0.115259 0
M  V30 20573 C 1935.78 -2.11668 -0.847394 0
M  V30 20574 C 1936.77 -1.03654 -1.23064 0
M  V30 20575 O 1937.96 -1.29894 -1.20235 0
M  V30 20576 C 1935.09 -2.71667 -2.09886 0
M  V30 20577 C 1934.17 -3.86755 -1.74015 0
M  V30 20578 N 1934.56 -4.9396 -1.08801 0
M  V30 20579 C 1932.86 -3.96869 -2.03497 0
M  V30 20580 C 1933.56 -5.74381 -0.919867 0
M  V30 20581 N 1932.54 -5.24079 -1.44367 0
M  V30 20582 H 1936.34 -2.91932 -0.339579 0
M  V30 20583 H 1933.86 -1.62165 -0.0873304 0
M  V30 20584 H 1935.85 -3.09045 -2.79815 0
M  V30 20585 H 1934.51 -1.92865 -2.61215 0
M  V30 20586 H 1935.52 -5.12405 -0.75243 0
M  V30 20587 H 1932.2 -3.29104 -2.56899 0
M  V30 20588 H 1933.59 -6.70658 -0.408269 0
M  V30 20589 N 1936.31 0.158505 -1.56801 0
M  V30 20590 C 1937.54 0.892291 -1.87224 0
M  V30 20591 C 1937.96 1.74468 -0.703029 0
M  V30 20592 O 1937.32 1.77936 0.347649 0
M  V30 20593 C 1937.37 1.73433 -3.16154 0
M  V30 20594 O 1936.47 2.83736 -2.99279 0
M  V30 20595 H 1935.81 0.249214 -0.615458 0
M  V30 20596 H 1938.34 0.152785 -2.04029 0
M  V30 20597 H 1938.35 2.13168 -3.47884 0
M  V30 20598 H 1937.03 1.10831 -4.00861 0
M  V30 20599 H 1935.6 2.47491 -2.78931 0
M  V30 20600 N 1937.79 1.51692 0.427485 0
M  V30 20601 C 1939.07 1.55395 1.18793 0
M  V30 20602 C 1939.45 0.324036 2.08598 0
M  V30 20603 O 1938.79 -0.690292 2.17824 0
M  V30 20604 C 1939 2.87313 1.98121 0
M  V30 20605 C 1940.35 3.39632 2.54824 0
M  V30 20606 O 1941.38 2.8893 2.08322 0
M  V30 20607 O 1940.24 4.28125 3.39664 0
M  V30 20608 H 1937.33 0.625173 0.541376 0
M  V30 20609 H 1939.88 1.6401 0.435754 0
M  V30 20610 H 1938.65 3.68284 1.32222 0
M  V30 20611 H 1938.27 2.81907 2.80383 0
M  V30 20612 N 1939.27 -0.683564 1.42004 0
M  V30 20613 C 1940.54 -1.43894 1.32491 0
M  V30 20614 C 1940.92 -2.11058 -0.0418701 0
M  V30 20615 O 1940.27 -2.0259 -1.05686 0
M  V30 20616 C 1940.48 -2.44856 2.48689 0
M  V30 20617 C 1941.83 -3.09758 2.90405 0
M  V30 20618 O 1942.85 -2.55182 2.48516 0
M  V30 20619 O 1941.71 -4.08633 3.6288 0
M  V30 20620 H 1938.81 -0.641404 0.522044 0
M  V30 20621 H 1941.35 -0.713027 1.53994 0
M  V30 20622 H 1940.13 -1.93964 3.39843 0
M  V30 20623 H 1939.75 -3.24941 2.29127 0
M  V30 20624 N 1940.75 -1.28031 -0.919012 0
M  V30 20625 C 1941.97 -1.17714 -1.7015 0
M  V30 20626 C 1942.39 0.264914 -1.86932 0
M  V30 20627 O 1941.75 1.17957 -1.39256 0
M  V30 20628 C 1941.8 -1.86548 -3.09648 0
M  V30 20629 O 1941.52 -3.25121 -2.93646 0
M  V30 20630 C 1943.02 -1.82467 -4.04006 0
M  V30 20631 H 1940.24 -0.408863 -0.532045 0
M  V30 20632 H 1942.78 -1.69061 -1.1506 0
M  V30 20633 H 1940.94 -1.39085 -3.61572 0
M  V30 20634 H 1941.35 -3.59518 -3.81899 0
M  V30 20635 H 1942.83 -2.35229 -4.99371 0
M  V30 20636 H 1943.3 -0.795892 -4.31928 0
M  V30 20637 H 1943.91 -2.29585 -3.5801 0
M  V30 20638 N 1942.22 1.12672 -1.10194 0
M  V30 20639 C 1943.5 1.80442 -0.75499 0
M  V30 20640 C 1943.88 1.96988 0.758887 0
M  V30 20641 O 1943.23 1.54424 1.6842 0
M  V30 20642 C 1943.44 3.14969 -1.50317 0
M  V30 20643 C 1944.79 3.90205 -1.67409 0
M  V30 20644 O 1945.81 3.24618 -1.46634 0
M  V30 20645 O 1944.67 5.07864 -2.01833 0
M  V30 20646 H 1941.76 0.780952 -0.272109 0
M  V30 20647 H 1944.31 1.1953 -1.20461 0
M  V30 20648 H 1943.08 2.98202 -2.5336 0
M  V30 20649 H 1942.7 3.83587 -1.04625 0
M  V30 20650 N 1943.7 0.89031 1.30043 0
M  V30 20651 C 1944.93 0.526566 2.00087 0
M  V30 20652 C 1945.34 -0.88632 1.66703 0
M  V30 20653 O 1944.7 -1.58365 0.907012 0
M  V30 20654 C 1944.75 0.698102 3.54695 0
M  V30 20655 O 1944.47 2.05537 3.86893 0
M  V30 20656 C 1945.97 0.338058 4.42009 0
M  V30 20657 H 1943.19 0.20299 0.639559 0
M  V30 20658 H 1945.74 1.19708 1.65802 0
M  V30 20659 H 1943.89 0.0748931 3.87328 0
M  V30 20660 H 1944.31 2.07787 4.81586 0
M  V30 20661 H 1945.78 0.508957 5.49649 0
M  V30 20662 H 1946.26 -0.724284 4.33187 0
M  V30 20663 H 1946.86 0.937813 4.14831 0
M  V30 20664 N 1945.18 -1.43489 0.651812 0
M  V30 20665 C 1946.41 -2.06181 0.172334 0
M  V30 20666 C 1946.82 -1.48848 -1.16145 0
M  V30 20667 O 1946.18 -0.619246 -1.71673 0
M  V30 20668 C 1946.23 -3.61425 0.0737039 0
M  V30 20669 O 1945.95 -4.16627 1.35476 0
M  V30 20670 C 1947.45 -4.4119 -0.432019 0
M  V30 20671 H 1944.67 -0.665039 0.0892394 0
M  V30 20672 H 1947.22 -1.84018 0.892063 0
M  V30 20673 H 1945.37 -3.82779 -0.596577 0
M  V30 20674 H 1945.79 -5.1028 1.21305 0
M  V30 20675 H 1947.26 -5.50163 -0.449989 0
M  V30 20676 H 1947.74 -4.14115 -1.46306 0
M  V30 20677 H 1948.34 -4.24802 0.205721 0
M  V30 20678 N 1946.66 -0.393643 -1.52605 0
M  V30 20679 C 1947.9 0.187431 -2.01932 0
M  V30 20680 C 1948.24 1.46098 -1.27942 0
M  V30 20681 O 1947.51 1.90729 -0.381154 0
M  V30 20682 C 1947.79 0.450933 -3.57265 0
M  V30 20683 C 1947.65 -0.838204 -4.41921 0
M  V30 20684 C 1948.97 1.23971 -4.22278 0
M  V30 20685 H 1946.09 0.0666471 -0.73398 0
M  V30 20686 H 1948.73 -0.524064 -1.8263 0
M  V30 20687 H 1946.88 1.05703 -3.73844 0
M  V30 20688 H 1948.55 -1.47492 -4.37086 0
M  V30 20689 H 1946.79 -1.45258 -4.08757 0
M  V30 20690 H 1947.46 -0.608424 -5.48637 0
M  V30 20691 H 1949.94 0.726733 -4.09705 0
M  V30 20692 H 1948.82 1.39283 -5.30935 0
M  V30 20693 H 1949.08 2.25611 -3.802 0
M  V30 20694 N 1948.14 1.57115 -0.123593 0
M  V30 20695 C 1949.37 1.99415 0.540103 0
M  V30 20696 C 1949.77 1.00228 1.60471 0
M  V30 20697 O 1949.12 -0.0123101 1.83696 0
M  V30 20698 C 1949.18 3.38134 1.22088 0
M  V30 20699 C 1948.84 4.5599 0.30367 0
M  V30 20700 C 1949.84 5.17865 -0.459524 0
M  V30 20701 C 1947.52 5.01846 0.213401 0
M  V30 20702 C 1949.52 6.23988 -1.30067 0
M  V30 20703 C 1947.21 6.0783 -0.631375 0
M  V30 20704 C 1948.2 6.68768 -1.38704 0
M  V30 20705 O 1947.89 7.72703 -2.21778 0
M  V30 20706 H 1947.62 0.659781 0.147192 0
M  V30 20707 H 1950.18 2.04343 -0.208128 0
M  V30 20708 H 1948.41 3.29975 2.01628 0
M  V30 20709 H 1950.1 3.64694 1.78195 0
M  V30 20710 H 1950.86 4.8335 -0.399683 0
M  V30 20711 H 1946.74 4.54158 0.791276 0
M  V30 20712 H 1950.29 6.71482 -1.89097 0
M  V30 20713 H 1946.18 6.41774 -0.692592 0
M  V30 20714 H 1946.95 7.8982 -2.1477 0
M  V30 20715 N 1949.61 -0.150187 1.56883 0
M  V30 20716 C 1950.84 -0.88235 1.87695 0
M  V30 20717 C 1951.26 -1.74093 0.712272 0
M  V30 20718 O 1950.62 -1.78118 -0.338207 0
M  V30 20719 C 1950.67 -1.71754 3.1707 0
M  V30 20720 O 1949.77 -2.82145 3.00779 0
M  V30 20721 H 1949.11 -0.245947 0.616771 0
M  V30 20722 H 1951.64 -0.141963 2.04107 0
M  V30 20723 H 1951.65 -2.1132 3.4901 0
M  V30 20724 H 1950.33 -1.08704 4.01443 0
M  V30 20725 H 1948.91 -2.46008 2.8024 0
M  V30 20726 N 1951.09 -1.51916 -0.419434 0
M  V30 20727 C 1952.32 -1.69592 -1.19387 0
M  V30 20728 C 1952.74 -0.400225 -1.83793 0
M  V30 20729 O 1952.1 0.641368 -1.69576 0
M  V30 20730 C 1952.15 -2.8256 -2.24036 0
M  V30 20731 O 1951.25 -2.4741 -3.29942 0
M  V30 20732 H 1950.59 -0.564898 -0.348978 0
M  V30 20733 H 1953.12 -1.9857 -0.493064 0
M  V30 20734 H 1953.13 -3.07171 -2.68533 0
M  V30 20735 H 1951.81 -3.76572 -1.7654 0
M  V30 20736 H 1950.39 -2.33435 -2.90796 0
M  V30 20737 N 1952.57 0.676023 -1.42365 0
M  V30 20738 C 1953.48 1.81906 -1.48147 0
M  V30 20739 C 1954.5 1.70014 -0.37032 0
M  V30 20740 O 1955.67 1.91586 -0.621036 0
M  V30 20741 C 1952.74 3.18039 -1.38029 0
M  V30 20742 C 1951.8 3.41897 -2.59625 0
M  V30 20743 C 1951.03 4.71536 -2.4998 0
M  V30 20744 O 1951.25 5.49358 -1.535 0
M  V30 20745 O 1950.19 4.9661 -3.40091 0
M  V30 20746 H 1954.01 1.79984 -2.44621 0
M  V30 20747 H 1951.6 0.831611 -1.24115 0
M  V30 20748 H 1953.48 3.99277 -1.34743 0
M  V30 20749 H 1952.16 3.20602 -0.446789 0
M  V30 20750 H 1951.06 2.60512 -2.68485 0
M  V30 20751 H 1952.4 3.44164 -3.51869 0
M  V30 20752 N 1954.05 1.28517 0.912209 0
M  V30 20753 C 1954.96 1.14429 2.048 0
M  V30 20754 C 1955.97 0.0704926 1.73857 0
M  V30 20755 O 1957.15 0.280091 1.99443 0
M  V30 20756 C 1954.22 0.809034 3.37128 0
M  V30 20757 C 1953.28 1.96535 3.8167 0
M  V30 20758 C 1952.51 1.646 5.07684 0
M  V30 20759 O 1952.73 0.561072 5.67634 0
M  V30 20760 O 1951.67 2.49011 5.47975 0
M  V30 20761 H 1955.49 2.0978 2.19604 0
M  V30 20762 H 1953.08 1.0785 1.03387 0
M  V30 20763 H 1954.96 0.636082 4.16572 0
M  V30 20764 H 1953.63 -0.114812 3.23496 0
M  V30 20765 H 1952.54 2.19347 3.03047 0
M  V30 20766 H 1953.87 2.86996 3.99868 0
M  V30 20767 N 1955.53 -1.12086 1.1079 0
M  V30 20768 C 1956.49 -2.16111 0.763446 0
M  V30 20769 C 1957.49 -1.59371 -0.213903 0
M  V30 20770 O 1958.68 -1.74197 0.00972099 0
M  V30 20771 C 1955.81 -3.40646 0.131488 0
M  V30 20772 H 1957 -2.48096 1.68489 0
M  V30 20773 H 1954.56 -1.27156 0.908896 0
M  V30 20774 H 1955.29 -3.14265 -0.800507 0
M  V30 20775 H 1955.08 -3.83108 0.834928 0
M  V30 20776 H 1956.57 -4.17495 -0.0936165 0
M  V30 20777 N 1957 -0.897194 -1.29569 0
M  V30 20778 C 1957.91 -0.377551 -2.31542 0
M  V30 20779 C 1958.93 0.526431 -1.65845 0
M  V30 20780 O 1960.11 0.416614 -1.97044 0
M  V30 20781 C 1957.17 0.388744 -3.44514 0
M  V30 20782 C 1956.23 -0.546458 -4.25808 0
M  V30 20783 C 1955.47 0.183361 -5.33385 0
M  V30 20784 O 1955.69 1.40767 -5.52757 0
M  V30 20785 O 1954.62 -0.472827 -6.0004 0
M  V30 20786 H 1958.45 -1.22348 -2.77965 0
M  V30 20787 H 1956.03 -0.661433 -1.33961 0
M  V30 20788 H 1957.92 0.822167 -4.13302 0
M  V30 20789 H 1956.59 1.21077 -3.00203 0
M  V30 20790 H 1955.5 -1.02894 -3.59671 0
M  V30 20791 H 1956.83 -1.33483 -4.73754 0
M  V30 20792 N 1958.48 1.43142 -0.659413 0
M  V30 20793 C 1959.41 2.33495 0.0147266 0
M  V30 20794 C 1960.39 1.49819 0.805493 0
M  V30 20795 O 1961.58 1.78466 0.765732 0
M  V30 20796 C 1958.71 3.33261 0.977483 0
M  V30 20797 C 1957.66 4.26972 0.296396 0
M  V30 20798 C 1956.99 5.16824 1.37103 0
M  V30 20799 C 1958.29 5.15901 -0.815063 0
M  V30 20800 H 1959.98 2.90115 -0.739837 0
M  V30 20801 H 1957.53 1.39499 -0.357229 0
M  V30 20802 H 1959.48 3.95372 1.45805 0
M  V30 20803 H 1958.21 2.74911 1.76328 0
M  V30 20804 H 1956.86 3.66234 -0.16379 0
M  V30 20805 H 1956.51 4.5481 2.14842 0
M  V30 20806 H 1956.21 5.80345 0.920528 0
M  V30 20807 H 1957.74 5.81809 1.85284 0
M  V30 20808 H 1959.15 5.71786 -0.416382 0
M  V30 20809 H 1957.55 5.88175 -1.19041 0
M  V30 20810 H 1958.62 4.5522 -1.67042 0
M  V30 20811 N 1959.96 0.40173 1.52394 0
M  V30 20812 C 1960.89 -0.41861 2.29717 0
M  V30 20813 C 1961.87 -1.05263 1.33618 0
M  V30 20814 O 1963.06 -1.06304 1.62521 0
M  V30 20815 C 1960.19 -1.5395 3.11314 0
M  V30 20816 C 1959.14 -1.03088 4.154 0
M  V30 20817 C 1958.47 -2.2448 4.85297 0
M  V30 20818 C 1959.77 -0.0900956 5.22222 0
M  V30 20819 H 1961.46 0.226577 2.98541 0
M  V30 20820 H 1959.01 0.110411 1.43576 0
M  V30 20821 H 1960.96 -2.12031 3.64171 0
M  V30 20822 H 1959.68 -2.21246 2.40246 0
M  V30 20823 H 1958.34 -0.472515 3.63542 0
M  V30 20824 H 1957.99 -2.90313 4.10764 0
M  V30 20825 H 1957.69 -1.91103 5.55656 0
M  V30 20826 H 1959.21 -2.83181 5.40963 0
M  V30 20827 H 1960.63 -0.579479 5.70364 0
M  V30 20828 H 1959.03 0.154505 5.99901 0
M  V30 20829 H 1960.1 0.857375 4.7726 0
M  V30 20830 N 1961.44 -1.57047 0.131923 0
M  V30 20831 C 1962.39 -2.15989 -0.813469 0
M  V30 20832 C 1963.36 -1.08848 -1.25464 0
M  V30 20833 O 1964.54 -1.36819 -1.32986 0
M  V30 20834 C 1961.68 -2.7738 -2.05315 0
M  V30 20835 C 1960.79 -3.98868 -1.65916 0
M  V30 20836 C 1959.93 -4.48305 -2.84948 0
M  V30 20837 C 1958.97 -5.62294 -2.41851 0
M  V30 20838 N 1958.1 -6.06417 -3.53841 0
M  V30 20839 H 1962.94 -2.96445 -0.304009 0
M  V30 20840 H 1960.48 -1.46448 -0.138355 0
M  V30 20841 H 1962.44 -3.11111 -2.77967 0
M  V30 20842 H 1961.07 -1.99593 -2.53697 0
M  V30 20843 H 1960.12 -3.71215 -0.830867 0
M  V30 20844 H 1961.43 -4.81493 -1.30252 0
M  V30 20845 H 1960.59 -4.84012 -3.6581 0
M  V30 20846 H 1959.33 -3.64657 -3.23847 0
M  V30 20847 H 1958.33 -5.26178 -1.59425 0
M  V30 20848 H 1959.56 -6.47718 -2.04055 0
M  V30 20849 H 1957.5 -5.25707 -3.92388 0
M  V30 20850 H 1957.42 -6.8393 -3.22143 0
M  V30 20851 H 1958.69 -6.46765 -4.35104 0
M  V30 20852 N 1962.92 0.141865 -1.5696 0
M  V30 20853 C 1963.85 1.17667 -2.01685 0
M  V30 20854 C 1964.83 1.44509 -0.897282 0
M  V30 20855 O 1966.01 1.55342 -1.16544 0
M  V30 20856 C 1963.14 2.50859 -2.40182 0
M  V30 20857 C 1962.1 2.38527 -3.55371 0
M  V30 20858 C 1961.42 3.76476 -3.79697 0
M  V30 20859 C 1962.72 1.86502 -4.87867 0
M  V30 20860 H 1964.42 0.804761 -2.88382 0
M  V30 20861 H 1961.96 0.385672 -1.38739 0
M  V30 20862 H 1963.92 3.2348 -2.70071 0
M  V30 20863 H 1962.64 2.89895 -1.50428 0
M  V30 20864 H 1961.3 1.68357 -3.25656 0
M  V30 20865 H 1960.95 4.12957 -2.87186 0
M  V30 20866 H 1960.65 3.69085 -4.5722 0
M  V30 20867 H 1962.17 4.50638 -4.12017 0
M  V30 20868 H 1963.58 2.48921 -5.16441 0
M  V30 20869 H 1961.98 1.89989 -5.69231 0
M  V30 20870 H 1963.05 0.821025 -4.77899 0
M  V30 20871 N 1964.39 1.52136 0.411372 0
M  V30 20872 C 1965.64 1.65314 1.15561 0
M  V30 20873 C 1965.96 0.38805 1.91712 0
M  V30 20874 O 1967.16 0.399588 2.68543 0
M  V30 20875 C 1965.62 2.92059 2.10308 0
M  V30 20876 C 1965.23 4.25667 1.39684 0
M  V30 20877 C 1966.97 3.14599 2.85005 0
M  V30 20878 C 1964.88 5.43538 2.33067 0
M  V30 20879 H 1963.81 0.615812 0.435077 0
M  V30 20880 H 1966.46 1.78622 0.420271 0
M  V30 20881 H 1964.84 2.72444 2.87385 0
M  V30 20882 H 1966.01 4.55757 0.679869 0
M  V30 20883 H 1964.33 4.09212 0.77038 0
M  V30 20884 H 1966.93 3.99839 3.55011 0
M  V30 20885 H 1967.27 2.28739 3.47828 0
M  V30 20886 H 1967.8 3.34676 2.15028 0
M  V30 20887 H 1964.54 6.31738 1.74894 0
M  V30 20888 H 1964.06 5.1779 3.02744 0
M  V30 20889 H 1965.74 5.76527 2.93641 0
M  V30 20890 N 1965.87 -0.668464 1.42721 0
M  V30 20891 C 1966.78 -1.81118 1.49109 0
M  V30 20892 C 1967.8 -1.69815 0.379331 0
M  V30 20893 O 1968.98 -1.91254 0.631187 0
M  V30 20894 C 1966.04 -3.17303 1.39713 0
M  V30 20895 C 1965.1 -3.40515 2.61434 0
M  V30 20896 C 1964.33 -4.70203 2.52477 0
M  V30 20897 O 1964.56 -5.48536 1.56411 0
M  V30 20898 O 1963.49 -4.948 3.42719 0
M  V30 20899 H 1967.32 -1.78684 2.45572 0
M  V30 20900 H 1964.9 -0.825017 1.24554 0
M  V30 20901 H 1966.78 -3.98557 1.36859 0
M  V30 20902 H 1965.46 -3.2036 0.463785 0
M  V30 20903 H 1964.37 -2.59085 2.69863 0
M  V30 20904 H 1965.7 -3.42293 3.53689 0
M  V30 20905 N 1967.35 -1.28999 -0.905381 0
M  V30 20906 C 1968.6 -1.16014 -1.64996 0
M  V30 20907 C 1968.91 0.288766 -1.93457 0
M  V30 20908 O 1970.12 0.539847 -2.66079 0
M  V30 20909 C 1968.58 -2.02866 -2.97276 0
M  V30 20910 C 1968.18 -3.52547 -2.76432 0
M  V30 20911 C 1969.93 -1.98591 -3.75182 0
M  V30 20912 C 1967.83 -4.31522 -4.04404 0
M  V30 20913 H 1966.76 -0.430598 -0.618952 0
M  V30 20914 H 1969.42 -1.53594 -1.00404 0
M  V30 20915 H 1967.8 -1.5815 -3.63049 0
M  V30 20916 H 1968.97 -4.05277 -2.19287 0
M  V30 20917 H 1967.29 -3.58435 -2.11928 0
M  V30 20918 H 1969.88 -2.54859 -4.70054 0
M  V30 20919 H 1970.23 -0.964577 -4.04971 0
M  V30 20920 H 1970.76 -2.41321 -3.16242 0
M  V30 20921 H 1967.5 -5.3427 -3.79784 0
M  V30 20922 H 1967.02 -3.83563 -4.61129 0
M  V30 20923 H 1968.7 -4.41885 -4.72596 0
M  V30 20924 N 1968.83 1.11497 -1.11383 0
M  V30 20925 C 1970.08 1.8286 -0.860611 0
M  V30 20926 C 1970.4 1.85032 0.615471 0
M  V30 20927 O 1969.67 1.32047 1.44708 0
M  V30 20928 H 1968.25 0.677153 -0.315392 0
M  V30 20929 H 1970.91 1.34963 -1.40609 0
M  V30 20930 H 1970.01 2.86743 -1.23227 0
M  V30 20931 N 1970.31 0.904053 1.29092 0
M  V30 20932 C 1971.55 0.532992 1.95671 0
M  V30 20933 C 1971.89 -0.919194 1.71069 0
M  V30 20934 O 1971.16 -1.6523 1.02612 0
M  V30 20935 C 1971.44 0.831252 3.50374 0
M  V30 20936 C 1971.3 2.33546 3.84417 0
M  V30 20937 C 1972.62 0.320724 4.3893 0
M  V30 20938 H 1969.74 0.195117 0.710703 0
M  V30 20939 H 1972.38 1.13153 1.52632 0
M  V30 20940 H 1970.53 0.321853 3.87165 0
M  V30 20941 H 1972.2 2.91473 3.57549 0
M  V30 20942 H 1970.44 2.79442 3.31805 0
M  V30 20943 H 1971.11 2.49471 4.9241 0
M  V30 20944 H 1973.59 0.756974 4.09157 0
M  V30 20945 H 1972.47 0.55858 5.4605 0
M  V30 20946 H 1972.73 -0.778699 4.35188 0
M  V30 20947 N 1971.79 -1.4279 0.666995 0
M  V30 20948 C 1972.72 -2.29134 -0.0550112 0
M  V30 20949 C 1973.73 -1.43259 -0.773357 0
M  V30 20950 O 1974.92 -1.67057 -0.628816 0
M  V30 20951 C 1972.02 -3.20503 -1.1014 0
M  V30 20952 C 1971.19 -4.34991 -0.458443 0
M  V30 20953 C 1970.25 -5.07136 -1.40356 0
M  V30 20954 O 1969.28 -5.61929 -0.90686 0
M  V30 20955 N 1970.48 -5.1192 -2.73712 0
M  V30 20956 H 1973.24 -2.9174 0.686156 0
M  V30 20957 H 1970.81 -1.5363 0.510814 0
M  V30 20958 H 1972.8 -3.65634 -1.73477 0
M  V30 20959 H 1971.37 -2.59403 -1.74439 0
M  V30 20960 H 1970.59 -3.92605 0.354287 0
M  V30 20961 H 1971.88 -5.08799 -0.0101948 0
M  V30 20962 H 1971.27 -4.68799 -3.16613 0
M  V30 20963 H 1969.83 -5.60722 -3.32316 0
M  V30 20964 N 1973.26 -0.409806 -1.52179 0
M  V30 20965 C 1974.49 0.165235 -2.06239 0
M  V30 20966 C 1974.91 1.38804 -1.2798 0
M  V30 20967 O 1974.26 1.79458 -0.331843 0
M  V30 20968 C 1974.31 0.514997 -3.57813 0
M  V30 20969 O 1974.04 -0.659248 -4.33111 0
M  V30 20970 C 1975.54 1.1437 -4.28293 0
M  V30 20971 H 1972.76 0.0200917 -0.670699 0
M  V30 20972 H 1975.3 -0.580955 -1.96074 0
M  V30 20973 H 1973.46 1.21108 -3.67983 0
M  V30 20974 H 1973.87 -0.367126 -5.23214 0
M  V30 20975 H 1975.34 1.33863 -5.35523 0
M  V30 20976 H 1975.82 2.11699 -3.84812 0
M  V30 20977 H 1976.43 0.487795 -4.22493 0
M  V30 20978 N 1974.74 1.56975 -0.14025 0
M  V30 20979 C 1975.99 1.95519 0.51153 0
M  V30 20980 C 1976.31 1.02572 1.65843 0
M  V30 20981 O 1975.58 0.0859828 1.95711 0
M  V30 20982 H 1974.16 0.721914 0.191961 0
M  V30 20983 H 1976.82 1.9372 -0.214169 0
M  V30 20984 H 1975.92 2.99078 0.892131 0
M  V30 20985 N 1976.22 -0.133539 1.57033 0
M  V30 20986 C 1977.44 -0.862393 1.8862 0
M  V30 20987 C 1977.87 -1.73328 0.730696 0
M  V30 20988 O 1977.23 -1.78466 -0.319297 0
M  V30 20989 C 1977.28 -1.68381 3.18873 0
M  V30 20990 O 1976.38 -2.78939 3.03755 0
M  V30 20991 H 1975.72 -0.239391 0.619345 0
M  V30 20992 H 1978.25 -0.120306 2.04246 0
M  V30 20993 H 1978.26 -2.07606 3.51232 0
M  V30 20994 H 1976.94 -1.0444 4.02573 0
M  V30 20995 H 1975.51 -2.43022 2.82833 0
M  V30 20996 N 1977.7 -1.52352 -0.403298 0
M  V30 20997 C 1978.93 -1.70554 -1.17128 0
M  V30 20998 C 1979.34 -0.417576 -1.84124 0
M  V30 20999 O 1978.7 0.606862 -1.72115 0
M  V30 21000 C 1978.75 -2.8452 -2.23004 0
M  V30 21001 O 1978.47 -4.08329 -1.58742 0
M  V30 21002 C 1979.97 -3.14281 -3.12638 0
M  V30 21003 H 1977.19 -0.571419 -0.35174 0
M  V30 21004 H 1979.73 -1.98937 -0.473734 0
M  V30 21005 H 1977.89 -2.58639 -2.88417 0
M  V30 21006 H 1978.3 -4.71878 -2.28979 0
M  V30 21007 H 1979.78 -3.97523 -3.82988 0
M  V30 21008 H 1980.25 -2.28071 -3.7534 0
M  V30 21009 H 1980.86 -3.41948 -2.52887 0
M  V30 21010 N 1979.18 0.660885 -1.43074 0
M  V30 21011 C 1980.14 1.75586 -1.47317 0
M  V30 21012 C 1981.14 1.56744 -0.358871 0
M  V30 21013 O 1982.33 1.62782 -0.620299 0
M  V30 21014 C 1979.46 3.14377 -1.31833 0
M  V30 21015 H 1980.65 1.73207 -2.44825 0
M  V30 21016 H 1978.21 0.871828 -1.29726 0
M  V30 21017 H 1978.94 3.22373 -0.353027 0
M  V30 21018 H 1978.73 3.29457 -2.12604 0
M  V30 21019 H 1980.22 3.94238 -1.37718 0
M  V30 21020 N 1980.65 1.29477 0.898527 0
M  V30 21021 C 1981.59 1.10513 2.00797 0
M  V30 21022 C 1982.6 0.0522996 1.62716 0
M  V30 21023 O 1983.79 0.296941 1.76013 0
M  V30 21024 C 1980.89 0.660433 3.32403 0
M  V30 21025 C 1980.06 1.79205 3.99004 0
M  V30 21026 C 1979.12 1.33816 5.089 0
M  V30 21027 O 1978.15 2.04308 5.31269 0
M  V30 21028 N 1979.35 0.209692 5.80121 0
M  V30 21029 H 1982.11 2.06063 2.17619 0
M  V30 21030 H 1979.67 1.21432 1.07078 0
M  V30 21031 H 1981.67 0.340075 4.03269 0
M  V30 21032 H 1980.24 -0.20264 3.11943 0
M  V30 21033 H 1979.46 2.28123 3.21487 0
M  V30 21034 H 1980.74 2.55075 4.40244 0
M  V30 21035 H 1980.14 -0.377998 5.64436 0
M  V30 21036 H 1978.7 -0.0512922 6.5178 0
M  V30 21037 N 1982.13 -1.10905 1.11972 0
M  V30 21038 C 1983.38 -1.82127 0.866753 0
M  V30 21039 C 1983.69 -1.85866 -0.609372 0
M  V30 21040 O 1984.9 -2.53243 -0.978781 0
M  V30 21041 C 1983.36 -3.27109 1.50093 0
M  V30 21042 C 1982.96 -3.31682 3.01149 0
M  V30 21043 C 1984.71 -4.03192 1.32803 0
M  V30 21044 C 1982.62 -4.71095 3.57524 0
M  V30 21045 H 1981.55 -0.682444 0.320604 0
M  V30 21046 H 1984.2 -1.24759 1.34564 0
M  V30 21047 H 1982.58 -3.84443 0.949712 0
M  V30 21048 H 1983.75 -2.84199 3.62722 0
M  V30 21049 H 1982.07 -2.69082 3.17779 0
M  V30 21050 H 1984.66 -5.06162 1.72348 0
M  V30 21051 H 1985.01 -4.15416 0.271181 0
M  V30 21052 H 1985.54 -3.52259 1.84819 0
M  V30 21053 H 1982.28 -4.6407 4.62947 0
M  V30 21054 H 1981.8 -5.18965 3.00725 0
M  V30 21055 H 1983.48 -5.40059 3.56294 0
M  V30 21056 N 1983.61 -0.910886 -1.2861 0
M  V30 21057 C 1984.54 -0.413998 -2.29801 0
M  V30 21058 C 1985.52 0.51689 -1.62056 0
M  V30 21059 O 1986.71 0.425236 -1.89487 0
M  V30 21060 C 1983.84 0.349336 -3.45539 0
M  V30 21061 C 1982.79 -0.49215 -4.25161 0
M  V30 21062 C 1982.12 0.399352 -5.33207 0
M  V30 21063 C 1983.42 -1.74792 -4.92184 0
M  V30 21064 H 1985.11 -1.25965 -2.71612 0
M  V30 21065 H 1982.66 -0.607149 -1.30575 0
M  V30 21066 H 1984.61 0.70777 -4.15414 0
M  V30 21067 H 1983.33 1.22887 -3.02599 0
M  V30 21068 H 1981.99 -0.833064 -3.57009 0
M  V30 21069 H 1981.64 1.27734 -4.86511 0
M  V30 21070 H 1981.34 -0.160062 -5.87382 0
M  V30 21071 H 1982.86 0.753731 -6.0593 0
M  V30 21072 H 1984.28 -1.45856 -5.54436 0
M  V30 21073 H 1982.68 -2.24952 -5.56342 0
M  V30 21074 H 1983.75 -2.4774 -4.16837 0
M  V30 21075 N 1985.09 1.42434 -0.674558 0
M  V30 21076 C 1986.02 2.2916 0.0428589 0
M  V30 21077 C 1987.03 1.43667 0.765749 0
M  V30 21078 O 1988.22 1.67388 0.619947 0
M  V30 21079 C 1985.32 3.21083 1.08439 0
M  V30 21080 C 1984.5 4.35228 0.435368 0
M  V30 21081 C 1983.55 5.07873 1.37665 0
M  V30 21082 O 1982.58 5.62402 0.877047 0
M  V30 21083 N 1983.78 5.13364 2.70994 0
M  V30 21084 H 1986.55 2.91372 -0.701618 0
M  V30 21085 H 1984.11 1.53357 -0.518954 0
M  V30 21086 H 1986.1 3.66548 1.71535 0
M  V30 21087 H 1984.67 2.60324 1.7306 0
M  V30 21088 H 1983.89 3.92411 -0.375103 0
M  V30 21089 H 1985.18 5.08797 -0.0167882 0
M  V30 21090 H 1984.58 4.70472 3.14122 0
M  V30 21091 H 1983.13 5.62476 3.29338 0
M  V30 21092 N 1986.57 0.417871 1.51959 0
M  V30 21093 C 1987.98 -0.0497386 1.86634 0
M  V30 21094 C 1988.33 -1.43671 1.33616 0
M  V30 21095 O 1987.45 -2.05472 0.67898 0
M  V30 21096 C 1988.05 -0.0970329 3.38661 0
M  V30 21097 C 1986.61 -0.509 3.72943 0
M  V30 21098 C 1985.75 0.310908 2.75552 0
M  V30 21099 H 1988.71 0.634566 1.45461 0
M  V30 21100 H 1988.73 -0.910534 3.69445 0
M  V30 21101 H 1988.24 0.912553 3.77219 0
M  V30 21102 H 1986.34 -1.52491 3.39967 0
M  V30 21103 H 1986.45 -0.247317 4.78461 0
M  V30 21104 H 1984.82 -0.228018 2.53677 0
M  V30 21105 H 1985.6 1.31901 3.1695 0
M  V30 21106 N 1988.04 -1.56898 0.148573 0
M  V30 21107 C 1989.32 -1.87787 -0.547293 0
M  V30 21108 C 1989.7 -1.05479 -1.82859 0
M  V30 21109 O 1989.05 -0.142055 -2.28058 0
M  V30 21110 C 1989.26 -3.39441 -0.811223 0
M  V30 21111 C 1990.61 -4.08693 -1.1513 0
M  V30 21112 O 1991.63 -3.44629 -0.900524 0
M  V30 21113 O 1990.49 -5.21834 -1.62331 0
M  V30 21114 H 1987.58 -0.778385 -0.279368 0
M  V30 21115 H 1990.13 -1.68685 0.185302 0
M  V30 21116 H 1988.9 -3.91183 0.0955156 0
M  V30 21117 H 1988.53 -3.64076 -1.59794 0
M  V30 21118 N 1989.52 0.125209 -1.57102 0
M  V30 21119 C 1990.75 0.852378 -1.89075 0
M  V30 21120 C 1991.17 1.72938 -0.739878 0
M  V30 21121 O 1990.53 1.78633 0.309828 0
M  V30 21122 C 1990.58 1.66688 -3.19762 0
M  V30 21123 O 1989.68 2.77324 -3.0523 0
M  V30 21124 H 1989.02 0.236103 -0.620606 0
M  V30 21125 H 1991.55 0.109473 -2.04307 0
M  V30 21126 H 1991.56 2.0574 -3.52328 0
M  V30 21127 H 1990.24 1.02303 -4.03121 0
M  V30 21128 H 1988.82 2.41519 -2.84118 0
M  V30 21129 N 1991 1.52564 0.395213 0
M  V30 21130 C 1992.25 1.66974 1.1386 0
M  V30 21131 C 1992.57 0.409016 1.90662 0
M  V30 21132 O 1991.84 -0.576451 1.87227 0
M  V30 21133 H 1990.42 0.61548 0.423313 0
M  V30 21134 H 1993.08 1.89657 0.449024 0
M  V30 21135 H 1992.18 2.5173 1.84496 0
M  V30 21136 N 1992.48 -0.653289 1.43422 0
M  V30 21137 C 1993.71 -1.44093 1.48475 0
M  V30 21138 C 1994.12 -1.88521 0.102614 0
M  V30 21139 O 1993.48 -1.59487 -0.887134 0
M  V30 21140 C 1993.53 -2.67595 2.43054 0
M  V30 21141 O 1993.25 -2.25025 3.75893 0
M  V30 21142 C 1994.75 -3.60953 2.57348 0
M  V30 21143 H 1991.97 -0.442658 0.504276 0
M  V30 21144 H 1994.52 -0.800914 1.88164 0
M  V30 21145 H 1992.67 -3.27736 2.06561 0
M  V30 21146 H 1993.08 -3.04932 4.26752 0
M  V30 21147 H 1994.56 -4.44276 3.27602 0
M  V30 21148 H 1995.04 -4.08295 1.61838 0
M  V30 21149 H 1995.64 -3.06693 2.94652 0
M  V30 21150 N 1993.96 -1.29952 -0.891648 0
M  V30 21151 C 1995.18 -1.21297 -1.67615 0
M  V30 21152 C 1995.6 0.225203 -1.87452 0
M  V30 21153 O 1994.96 1.14977 -1.41727 0
M  V30 21154 C 1995.01 -1.93074 -3.05622 0
M  V30 21155 O 1994.73 -3.31276 -2.86684 0
M  V30 21156 C 1996.23 -1.90996 -4.00044 0
M  V30 21157 H 1993.45 -0.420057 -0.523253 0
M  V30 21158 H 1995.99 -1.71463 -1.11448 0
M  V30 21159 H 1994.15 -1.46724 -3.5854 0
M  V30 21160 H 1994.56 -3.67538 -3.74187 0
M  V30 21161 H 1996.04 -2.45768 -4.94269 0
M  V30 21162 H 1996.51 -0.887331 -4.30143 0
M  V30 21163 H 1997.12 -2.37127 -3.53059 0
M  V30 21164 N 1995.44 1.1031 -1.12559 0
M  V30 21165 C 1996.37 2.18738 -0.817073 0
M  V30 21166 C 1997.35 1.68675 0.219681 0
M  V30 21167 O 1998.53 1.94033 0.0805889 0
M  V30 21168 C 1995.66 3.46231 -0.272317 0
M  V30 21169 C 1994.62 4.09575 -1.24228 0
M  V30 21170 C 1993.94 5.31784 -0.557693 0
M  V30 21171 C 1995.24 4.53135 -2.59743 0
M  V30 21172 H 1996.94 2.44802 -1.72372 0
M  V30 21173 H 1994.48 1.17658 -0.830221 0
M  V30 21174 H 1996.43 4.21377 -0.0442049 0
M  V30 21175 H 1995.16 3.19661 0.669677 0
M  V30 21176 H 1993.82 3.36437 -1.45622 0
M  V30 21177 H 1993.47 5.0149 0.389484 0
M  V30 21178 H 1993.17 5.75117 -1.20473 0
M  V30 21179 H 1994.69 6.0966 -0.338649 0
M  V30 21180 H 1996.1 5.19548 -2.42369 0
M  V30 21181 H 1994.5 5.07322 -3.20537 0
M  V30 21182 H 1995.57 3.65989 -3.18088 0
M  V30 21183 N 1996.91 0.917694 1.28125 0
M  V30 21184 C 1998.14 0.56827 1.99463 0
M  V30 21185 C 1998.56 -0.844246 1.6809 0
M  V30 21186 O 1997.92 -1.56487 0.915504 0
M  V30 21187 C 1997.97 0.788859 3.51866 0
M  V30 21188 O 1997.07 -0.150301 4.12126 0
M  V30 21189 H 1996.41 0.219899 0.626531 0
M  V30 21190 H 1998.94 1.23421 1.63182 0
M  V30 21191 H 1998.95 0.700502 4.01942 0
M  V30 21192 H 1997.63 1.81855 3.74034 0
M  V30 21193 H 1996.21 -0.012878 3.72898 0
M  V30 21194 N 1998.39 -1.42074 0.682102 0
M  V30 21195 C 1999.62 -2.06288 0.214488 0
M  V30 21196 C 2000.04 -1.50942 -1.12241 0
M  V30 21197 O 1999.4 -0.63086 -1.6997 0
M  V30 21198 C 1999.45 -3.60208 0.167989 0
M  V30 21199 O 1998.55 -4.03306 -0.86129 0
M  V30 21200 H 1997.89 -0.655134 0.108148 0
M  V30 21201 H 2000.42 -1.8208 0.933171 0
M  V30 21202 H 2000.43 -4.08 -0.00570039 0
M  V30 21203 H 1999.11 -3.99863 1.14378 0
M  V30 21204 H 1997.68 -3.67048 -0.65805 0
M  V30 21205 N 1999.87 -0.425924 -1.51735 0
M  V30 21206 C 2001.28 0.0398403 -1.86657 0
M  V30 21207 C 2001.63 1.4296 -1.34376 0
M  V30 21208 O 2000.76 2.05109 -0.689867 0
M  V30 21209 C 2001.35 0.0790715 -3.38708 0
M  V30 21210 C 1999.91 0.489215 -3.73207 0
M  V30 21211 C 1999.06 -0.325517 -2.75383 0
M  V30 21212 H 2002.01 -0.642271 -1.45123 0
M  V30 21213 H 2002.03 0.890928 -3.69923 0
M  V30 21214 H 2001.54 -0.932545 -3.7673 0
M  V30 21215 H 1999.64 1.50686 -3.40771 0
M  V30 21216 H 1999.76 0.221939 -4.78586 0
M  V30 21217 H 1998.12 0.214561 -2.53795 0
M  V30 21218 H 1998.9 -1.3358 -3.16246 0
M  V30 21219 N 2001.35 1.56817 -0.156891 0
M  V30 21220 C 2002.76 1.83151 0.362283 0
M  V30 21221 C 2003.11 1.07606 1.64059 0
M  V30 21222 O 2002.23 0.324479 2.13953 0
M  V30 21223 C 2002.83 3.32228 0.664072 0
M  V30 21224 C 2001.39 3.59109 1.12773 0
M  V30 21225 C 2000.54 2.76861 0.155995 0
M  V30 21226 H 2003.49 1.54048 -0.381419 0
M  V30 21227 H 2003.51 3.48921 1.5177 0
M  V30 21228 H 2003.02 3.87184 -0.266475 0
M  V30 21229 H 2001.12 3.0955 2.07388 0
M  V30 21230 H 2001.23 4.67523 1.04687 0
M  V30 21231 H 1999.6 2.46251 0.650561 0
M  V30 21232 H 2000.38 3.34592 -0.768318 0
M  V30 21233 N 2002.83 -0.116876 1.57166 0
M  V30 21234 C 2004.07 -0.825509 1.85238 0
M  V30 21235 C 2004.4 -1.79427 0.742936 0
M  V30 21236 O 2003.68 -1.92873 -0.251043 0
M  V30 21237 C 2003.96 -1.57353 3.23901 0
M  V30 21238 C 2003.82 -0.624227 4.45447 0
M  V30 21239 C 2005.13 -2.52922 3.60164 0
M  V30 21240 H 2002.25 -0.298653 0.673777 0
M  V30 21241 H 2004.9 -0.0897002 1.89788 0
M  V30 21242 H 2003.05 -2.20078 3.20153 0
M  V30 21243 H 2004.72 -0.00566556 4.613 0
M  V30 21244 H 2002.96 0.0640779 4.33753 0
M  V30 21245 H 2003.63 -1.1843 5.39146 0
M  V30 21246 H 2006.11 -2.00302 3.64717 0
M  V30 21247 H 2004.98 -3.02291 4.58161 0
M  V30 21248 H 2005.24 -3.35684 2.87695 0
M  V30 21249 O 2004.34 -1.59374 -0.261175 0
M  V30 21250 H 2005.03 -1.71232 -0.905498 0
M  V30 END ATOM
M  V30 BEGIN BOND
M  V30 END BOND
M  V30 END CTAB
M  END
$$$$
