drugbank_target|P32929 Cystathionine gamma-lyase (DB00114; DB00151; DB02328; DB03928; DB04217)
 OpenBabel12092119403D

  0  0  0     0  0            999 V3000
M  V30 BEGIN CTAB
M  V30 COUNTS 6235 6306 0 0 0
M  V30 BEGIN ATOM
M  V30 1 H -0.908 1.98254 -0.117106 0
M  V30 2 N 0 1.576 0 0
M  V30 3 C 0.933 2.03868 1.02534 0
M  V30 4 C 1.911 0.928543 1.3348 0
M  V30 5 O 3.095 1.19667 1.45644 0
M  V30 6 C 0.222 2.43627 2.35294 0
M  V30 7 C -0.732 3.65373 2.2001 0
M  V30 8 S 0.101 5.13292 1.52614 0
M  V30 9 C 1.257 5.56322 2.86805 0
M  V30 10 H 1.49 2.90518 0.631377 0
M  V30 11 H -0.977 1.52953 0.210867 0
M  V30 12 H 0.981 2.67203 3.11629 0
M  V30 13 H -0.358 1.57376 2.7183 0
M  V30 14 H -1.165 3.90944 3.18086 0
M  V30 15 H -1.563 3.418 1.51819 0
M  V30 16 H 0.729 5.58782 3.83104 0
M  V30 17 H 1.672 6.56266 2.65933 0
M  V30 18 H 2.08 4.83886 2.90714 0
M  V30 19 N 1.4781 -0.272755 1.55222 0
M  V30 20 C 2.4101 -1.35946 1.8453 0
M  V30 21 C 3.4231 -1.45525 0.729818 0
M  V30 22 O 4.6121 -1.47337 1.00767 0
M  V30 23 C 1.7121 -2.74069 1.99347 0
M  V30 24 C 0.8851 -2.87079 3.30007 0
M  V30 25 C -0.0559 -4.05879 3.34886 0
M  V30 26 O -1.0299 -3.96626 4.08261 0
M  V30 27 N 0.1721 -5.17857 2.62307 0
M  V30 28 H 2.9371 -1.11149 2.78327 0
M  V30 29 H 0.4981 -0.462869 1.55142 0
M  V30 30 H 2.4901 -3.51838 1.99981 0
M  V30 31 H 1.0601 -2.91688 1.12415 0
M  V30 32 H 0.2801 -1.96193 3.41909 0
M  V30 33 H 1.5681 -2.92701 4.16177 0
M  V30 34 H 0.9661 -5.28261 2.02377 0
M  V30 35 H -0.4769 -5.93855 2.68663 0
M  V30 36 N 2.9562 -1.48159 -0.537278 0
M  V30 37 C 3.8662 -1.64807 -1.6696 0
M  V30 38 C 4.8822 -0.530651 -1.65711 0
M  V30 39 O 6.0582 -0.800784 -1.84796 0
M  V30 40 C 3.1232 -1.67708 -3.03438 0
M  V30 41 C 2.1842 -2.91025 -3.156 0
M  V30 42 C 1.4172 -2.93778 -4.45567 0
M  V30 43 O 1.6402 -2.05153 -5.3223 0
M  V30 44 O 0.5742 -3.85868 -4.61941 0
M  V30 45 H 4.4002 -2.6066 -1.55853 0
M  V30 46 H 1.9852 -1.31475 -0.709549 0
M  V30 47 H 3.8672 -1.7218 -3.84619 0
M  V30 48 H 2.5422 -0.750278 -3.14885 0
M  V30 49 H 1.4492 -2.92089 -2.33741 0
M  V30 50 H 2.7822 -3.83065 -3.09066 0
M  V30 51 N 4.4343 0.785586 -1.36625 0
M  V30 52 C 5.3813 1.89838 -1.31264 0
M  V30 53 C 6.3513 1.65115 -0.180633 0
M  V30 54 O 7.5363 1.87222 -0.36777 0
M  V30 55 C 4.6763 3.26706 -1.11163 0
M  V30 56 C 3.7893 3.63476 -2.33472 0
M  V30 57 C 2.9243 4.89481 -2.06353 0
M  V30 58 C 1.9633 5.18941 -3.24602 0
M  V30 59 N 1.1003 6.36131 -2.97123 0
M  V30 60 H 5.9403 1.93756 -2.26413 0
M  V30 61 H 3.4773 0.947454 -1.12524 0
M  V30 62 H 5.4353 4.05639 -0.975337 0
M  V30 63 H 4.0653 3.222 -0.196674 0
M  V30 64 H 3.1173 2.79636 -2.57891 0
M  V30 65 H 4.4293 3.81193 -3.21704 0
M  V30 66 H 3.5833 5.76288 -1.89675 0
M  V30 67 H 2.3223 4.73841 -1.15437 0
M  V30 68 H 1.3273 4.30615 -3.41834 0
M  V30 69 H 2.5523 5.36498 -4.16349 0
M  V30 70 H 0.4983 6.21875 -2.08823 0
M  V30 71 H 0.4153 6.54198 -3.78894 0
M  V30 72 H 1.6833 7.2591 -2.84033 0
M  V30 73 N 5.9124 1.20967 1.01018 0
M  V30 74 C 7.1894 0.93264 1.71934 0
M  V30 75 C 7.5694 -0.55692 2.03621 0
M  V30 76 O 6.9174 -1.52035 1.7058 0
M  V30 77 C 7.1274 1.81233 2.98254 0
M  V30 78 C 8.4754 2.05804 3.71389 0
M  V30 79 O 9.4994 1.78539 3.08225 0
M  V30 80 O 8.3584 2.51888 4.84989 0
M  V30 81 H 5.4524 0.349272 0.749625 0
M  V30 82 H 7.9984 1.31871 1.06808 0
M  V30 83 H 6.7704 2.82067 2.71208 0
M  V30 84 H 6.3934 1.42674 3.7112 0
M  V30 85 N 7.3905 -1.2043 1.01659 0
M  V30 86 C 8.3535 -2.21433 0.591616 0
M  V30 87 C 9.3535 -1.57203 -0.338226 0
M  V30 88 O 10.5435 -1.73737 -0.126918 0
M  V30 89 C 7.6755 -3.40628 -0.136058 0
M  V30 90 H 8.8685 -2.60545 1.48514 0
M  V30 91 H 6.4215 -1.33893 0.806379 0
M  V30 92 H 7.1565 -3.07019 -1.04449 0
M  V30 93 H 6.9415 -3.88475 0.531917 0
M  V30 94 H 8.4315 -4.15475 -0.420735 0
M  V30 95 N 8.8686 -0.792821 -1.36206 0
M  V30 96 C 10.0936 -0.377701 -2.03932 0
M  V30 97 C 10.5186 0.998947 -1.59382 0
M  V30 98 O 9.8766 1.64421 -0.763903 0
M  V30 99 C 9.9246 -0.453635 -3.57735 0
M  V30 100 O 9.0286 0.538151 -4.08874 0
M  V30 101 H 8.3696 -0.159855 -0.644471 0
M  V30 102 H 10.8996 -1.07488 -1.7409 0
M  V30 103 H 10.9096 -0.318464 -4.06755 0
M  V30 104 H 9.5846 -1.45784 -3.89512 0
M  V30 105 H 8.1616 0.364359 -3.71116 0
M  V30 106 N 10.3467 1.47872 -0.545128 0
M  V30 107 C 11.5717 2.07391 -0.0190611 0
M  V30 108 C 11.9967 1.39688 1.25971 0
M  V30 109 O 11.3547 0.467816 1.7516 0
M  V30 110 C 11.4027 3.60188 0.172335 0
M  V30 111 O 10.5067 3.9339 1.23766 0
M  V30 112 H 9.8477 0.662411 -0.0459059 0
M  V30 113 H 12.3777 1.90066 -0.757365 0
M  V30 114 H 12.3877 4.06129 0.390305 0
M  V30 115 H 11.0627 4.08865 -0.761725 0
M  V30 116 H 9.6397 3.5921 1.00114 0
M  V30 117 N 11.8248 0.280983 1.55075 0
M  V30 118 C 12.7568 -0.637268 2.20163 0
M  V30 119 C 13.7698 -1.11298 1.18813 0
M  V30 120 O 14.9588 -1.03388 1.4551 0
M  V30 121 C 12.0588 -1.88199 2.81841 0
M  V30 122 C 11.2318 -1.55211 4.08936 0
M  V30 123 C 10.2908 -2.64991 4.54606 0
M  V30 124 O 9.3168 -2.30929 5.2025 0
M  V30 125 N 10.5188 -3.95161 4.25238 0
M  V30 126 H 13.2838 -0.0801694 2.99593 0
M  V30 127 H 10.8448 0.102329 1.61576 0
M  V30 128 H 12.8368 -2.60948 3.09335 0
M  V30 129 H 11.4068 -2.34799 2.06369 0
M  V30 130 H 10.6268 -0.658185 3.88666 0
M  V30 131 H 11.9148 -1.30681 4.91732 0
M  V30 132 H 11.3128 -4.25653 3.72607 0
M  V30 133 H 9.8698 -4.6427 4.5749 0
M  V30 134 N 13.3029 -1.57598 0.00835791 0
M  V30 135 C 14.5509 -1.90551 -0.6734 0
M  V30 136 C 14.8719 -0.883301 -1.73847 0
M  V30 137 O 14.1419 0.0781442 -1.95744 0
M  V30 138 H 12.7219 -0.703312 -0.251717 0
M  V30 139 H 15.3839 -1.94833 0.0512592 0
M  V30 140 H 14.4799 -2.9056 -1.13935 0
M  V30 141 N 14.781 0.264519 -1.55364 0
M  V30 142 C 16.028 0.994986 -1.7637 0
M  V30 143 C 16.356 1.85976 -0.5695 0
M  V30 144 O 15.611 1.90509 0.44776 0
M  V30 145 C 15.91 1.9004 -3.02687 0
M  V30 146 C 15.576 1.19243 -4.34847 0
M  V30 147 C 14.238 0.996709 -4.70764 0
M  V30 148 C 16.59 0.689296 -5.16622 0
M  V30 149 C 13.918 0.285261 -5.86006 0
M  V30 150 C 16.27 -0.00860079 -6.32599 0
M  V30 151 C 14.934 -0.215963 -6.67151 0
M  V30 152 H 14.204 0.364091 -0.645383 0
M  V30 153 H 16.851 0.266543 -1.89636 0
M  V30 154 H 15.156 2.69533 -2.84357 0
M  V30 155 H 16.853 2.46695 -3.16137 0
M  V30 156 H 13.443 1.3549 -4.06621 0
M  V30 157 H 17.627 0.828108 -4.89342 0
M  V30 158 H 12.883 0.113961 -6.11294 0
M  V30 159 H 17.057 -0.406186 -6.95214 0
M  V30 160 H 14.684 -0.769217 -7.56298 0
M  V30 161 N 16.2591 1.48442 0.529413 0
M  V30 162 C 17.1891 1.65902 1.64313 0
M  V30 163 C 18.1701 0.507897 1.6234 0
M  V30 164 O 19.3551 0.740503 1.79528 0
M  V30 165 C 16.4851 1.69911 3.02898 0
M  V30 166 C 15.4391 2.8453 3.19729 0
M  V30 167 C 14.7651 2.73629 4.59381 0
M  V30 168 C 16.0651 4.25821 3.02447 0
M  V30 169 H 17.7591 2.5914 1.49955 0
M  V30 170 H 15.3051 1.24709 0.719982 0
M  V30 171 H 17.2581 1.80715 3.80684 0
M  V30 172 H 15.9821 0.732524 3.18279 0
M  V30 173 H 14.6411 2.73283 2.44361 0
M  V30 174 H 14.2891 1.74938 4.71599 0
M  V30 175 H 13.9891 3.50541 4.71588 0
M  V30 176 H 15.5131 2.86401 5.39265 0
M  V30 177 H 16.9271 4.37898 3.70024 0
M  V30 178 H 15.3241 5.03735 3.26146 0
M  V30 179 H 16.3941 4.42244 1.98867 0
M  V30 180 N 17.7372 -0.778329 1.37039 0
M  V30 181 C 19.1482 -1.35421 1.28523 0
M  V30 182 C 19.4992 -1.96075 -0.0700901 0
M  V30 183 O 18.6242 -1.93352 -0.971801 0
M  V30 184 C 19.2192 -2.46211 2.32735 0
M  V30 185 C 17.7782 -2.99585 2.27873 0
M  V30 186 C 16.9252 -1.72748 2.16918 0
M  V30 187 H 19.8762 -0.5791 1.47757 0
M  V30 188 H 19.8972 -3.2552 1.9702 0
M  V30 189 H 19.4092 -2.02036 3.31365 0
M  V30 190 H 17.5102 -3.48152 1.32745 0
M  V30 191 H 17.6232 -3.55646 3.21018 0
M  V30 192 H 15.9872 -1.95416 1.63354 0
M  V30 193 H 16.7702 -1.30686 3.17452 0
M  V30 194 N 19.2153 -1.21501 -1.00376 0
M  V30 195 C 20.1653 -0.942843 -2.07592 0
M  V30 196 C 21.1493 0.102384 -1.60574 0
M  V30 197 O 22.3413 -0.10671 -1.76678 0
M  V30 198 C 19.4703 -0.510729 -3.3948 0
M  V30 199 C 18.5563 -1.59009 -3.93163 0
M  V30 200 N 18.9473 -2.81544 -4.20198 0
M  V30 201 C 17.2453 -1.45925 -4.21452 0
M  V30 202 C 17.9463 -3.51261 -4.63671 0
M  V30 203 N 16.9223 -2.78703 -4.66718 0
M  V30 204 H 20.7243 -1.87378 -2.26421 0
M  V30 205 H 18.2383 -1.11093 -1.18458 0
M  V30 206 H 20.2353 -0.297101 -4.1584 0
M  V30 207 H 18.8953 0.413436 -3.22057 0
M  V30 208 H 19.9063 -3.18075 -4.08716 0
M  V30 209 H 16.5833 -0.600467 -4.13159 0
M  V30 210 H 17.9733 -4.56183 -4.93302 0
M  V30 211 N 20.6934 1.19889 -1.02296 0
M  V30 212 C 21.9404 1.8942 -0.715972 0
M  V30 213 C 22.2684 1.79251 0.754944 0
M  V30 214 O 21.5234 1.17526 1.56481 0
M  V30 215 C 21.8224 3.39883 -1.10518 0
M  V30 216 C 21.4884 3.70254 -2.57337 0
M  V30 217 C 20.1504 3.78254 -2.97452 0
M  V30 218 C 22.5024 3.84052 -3.52354 0
M  V30 219 C 19.8304 3.97514 -4.31509 0
M  V30 220 C 22.1824 4.04824 -4.86108 0
M  V30 221 C 20.8464 4.11054 -5.25919 0
M  V30 222 H 20.1164 0.693138 -0.261993 0
M  V30 223 H 22.7634 1.42012 -1.28472 0
M  V30 224 H 21.0684 3.8915 -0.454953 0
M  V30 225 H 22.7654 3.9199 -0.845261 0
M  V30 226 H 19.3554 3.64632 -2.25258 0
M  V30 227 H 23.5394 3.77221 -3.22518 0
M  V30 228 H 18.7954 4.00574 -4.61898 0
M  V30 229 H 22.9694 4.14442 -5.59653 0
M  V30 230 H 20.5964 4.2573 -6.29808 0
M  V30 231 N 22.1715 0.800033 1.35784 0
M  V30 232 C 23.1035 0.163596 2.28615 0
M  V30 233 C 24.1165 -0.633317 1.49976 0
M  V30 234 O 25.3055 -0.466754 1.72289 0
M  V30 235 C 22.4055 -0.790958 3.29541 0
M  V30 236 C 21.5785 -0.0418255 4.3738 0
M  V30 237 C 20.6375 -0.91389 5.18203 0
M  V30 238 O 19.6635 -0.367234 5.68014 0
M  V30 239 N 20.8655 -2.23682 5.35674 0
M  V30 240 H 23.6305 0.96105 2.83873 0
M  V30 241 H 21.1915 0.654894 1.48063 0
M  V30 242 H 23.1835 -1.37844 3.80501 0
M  V30 243 H 21.7535 -1.48925 2.74846 0
M  V30 244 H 20.9735 0.726813 3.87442 0
M  V30 245 H 22.2615 0.474719 5.06581 0
M  V30 246 H 21.6595 -2.70497 4.96838 0
M  V30 247 H 20.2165 -2.77369 5.89839 0
M  V30 248 N 23.6496 -1.47581 0.552962 0
M  V30 249 C 24.5996 -2.26961 -0.217423 0
M  V30 250 C 25.5836 -1.34099 -0.889168 0
M  V30 251 O 26.7756 -1.58483 -0.788176 0
M  V30 252 C 23.9046 -3.19756 -1.24944 0
M  V30 253 C 22.9906 -4.20097 -0.581327 0
M  V30 254 N 23.3816 -5.04614 0.346171 0
M  V30 255 C 21.6796 -4.38099 -0.835767 0
M  V30 256 C 22.3806 -5.77052 0.733854 0
M  V30 257 N 21.3566 -5.43526 0.0896567 0
M  V30 258 H 25.1586 -2.89688 0.495761 0
M  V30 259 H 22.6726 -1.58068 0.372597 0
M  V30 260 H 24.6696 -3.75305 -1.81527 0
M  V30 261 H 23.3296 -2.58585 -1.96376 0
M  V30 262 H 24.3406 -5.12869 0.720098 0
M  V30 263 H 21.0176 -3.88102 -1.53892 0
M  V30 264 H 22.4076 -6.5504 1.49574 0
M  V30 265 N 25.1277 -0.289203 -1.54924 0
M  V30 266 C 26.3747 0.323519 -1.99899 0
M  V30 267 C 26.7027 1.54797 -1.17762 0
M  V30 268 O 25.9577 1.94237 -0.238835 0
M  V30 269 C 26.2567 0.736119 -3.49737 0
M  V30 270 C 25.9227 -0.385276 -4.49251 0
M  V30 271 C 24.5847 -0.693156 -4.76181 0
M  V30 272 C 26.9367 -1.14021 -5.08575 0
M  V30 273 C 24.2647 -1.7593 -5.59701 0
M  V30 274 C 26.6167 -2.19619 -5.93254 0
M  V30 275 C 25.2807 -2.51026 -6.185 0
M  V30 276 H 24.5507 0.118384 -0.731482 0
M  V30 277 H 27.1977 -0.405847 -1.8715 0
M  V30 278 H 25.5027 1.54539 -3.60035 0
M  V30 279 H 27.1997 1.22118 -3.81953 0
M  V30 280 H 23.7897 -0.135202 -4.28387 0
M  V30 281 H 27.9737 -0.915611 -4.87781 0
M  V30 282 H 23.2297 -2.0075 -5.77503 0
M  V30 283 H 27.4037 -2.78581 -6.38252 0
M  V30 284 H 25.0307 -3.33772 -6.83008 0
M  V30 285 N 26.6058 1.57591 -0.0167156 0
M  V30 286 C 27.5688 2.08393 0.954204 0
M  V30 287 C 28.5688 0.996531 1.26198 0
M  V30 288 O 29.7588 1.25858 1.20438 0
M  V30 289 C 26.8908 2.5394 2.27436 0
M  V30 290 H 28.0838 2.95455 0.514451 0
M  V30 291 H 25.6368 1.54582 0.231089 0
M  V30 292 H 26.3718 1.70171 2.76066 0
M  V30 293 H 26.1568 3.33371 2.06412 0
M  V30 294 H 27.6468 2.93512 2.97053 0
M  V30 295 N 28.0839 -0.256276 1.55502 0
M  V30 296 C 29.3119 -1.00342 1.8094 0
M  V30 297 C 29.7269 -1.79307 0.59114 0
M  V30 298 O 29.0839 -1.77114 -0.440081 0
M  V30 299 C 29.1349 -1.94875 3.04476 0
M  V30 300 O 28.8559 -1.19107 4.21598 0
M  V30 301 C 30.3569 -2.81266 3.42644 0
M  V30 302 H 27.5769 -0.295685 0.602338 0
M  V30 303 H 30.1209 -0.281998 2.02546 0
M  V30 304 H 28.2759 -2.62457 2.84947 0
M  V30 305 H 28.6899 -1.82969 4.91551 0
M  V30 306 H 30.1639 -3.43362 4.32211 0
M  V30 307 H 30.6409 -3.51897 2.62802 0
M  V30 308 H 31.2469 -2.1915 3.64491 0
M  V30 309 N 29.562 -1.4872 -0.521534 0
M  V30 310 C 30.494 -1.59968 -1.64143 0
M  V30 311 C 31.507 -0.483463 -1.55456 0
M  V30 312 O 32.696 -0.75467 -1.61762 0
M  V30 313 C 29.796 -1.52127 -3.02838 0
M  V30 314 C 28.969 -2.78932 -3.36921 0
M  V30 315 C 28.028 -2.64428 -4.54933 0
M  V30 316 O 27.054 -3.38331 -4.57735 0
M  V30 317 N 28.256 -1.74606 -5.53618 0
M  V30 318 H 31.021 -2.56548 -1.54929 0
M  V30 319 H 28.582 -1.45551 -0.708988 0
M  V30 320 H 30.574 -1.40106 -3.79674 0
M  V30 321 H 29.144 -0.634868 -3.06085 0
M  V30 322 H 28.364 -3.05455 -2.4918 0
M  V30 323 H 29.652 -3.63041 -3.56481 0
M  V30 324 H 29.05 -1.13782 -5.54139 0
M  V30 325 H 27.607 -1.6852 -6.29638 0
M  V30 326 N 31.0401 0.771051 -1.3745 0
M  V30 327 C 32.0031 1.86598 -1.33093 0
M  V30 328 C 33.0031 1.59076 -0.234845 0
M  V30 329 O 34.1931 1.67145 -0.490732 0
M  V30 330 C 31.3251 3.23747 -1.06773 0
M  V30 331 H 32.5181 1.91873 -2.30488 0
M  V30 332 H 30.0711 0.970876 -1.2249 0
M  V30 333 H 30.8061 3.24148 -0.099129 0
M  V30 334 H 30.5911 3.45115 -1.86112 0
M  V30 335 H 32.0811 4.03824 -1.06377 0
M  V30 336 N 32.5182 1.22032 0.997298 0
M  V30 337 C 33.7672 1.03637 1.73038 0
M  V30 338 C 34.0802 -0.429475 1.90827 0
M  V30 339 O 35.2862 -0.732995 2.61418 0
M  V30 340 C 33.7422 1.80582 3.11317 0
M  V30 341 C 33.3502 3.31387 3.01474 0
M  V30 342 C 35.0942 1.70621 3.88701 0
M  V30 343 C 33.0012 4.00791 4.3488 0
M  V30 344 H 31.9312 0.384179 0.648785 0
M  V30 345 H 34.5822 1.4584 1.11368 0
M  V30 346 H 32.9642 1.31175 3.73643 0
M  V30 347 H 34.1382 3.88155 2.4834 0
M  V30 348 H 32.4532 3.41976 2.37575 0
M  V30 349 H 35.0502 2.19799 4.87434 0
M  V30 350 H 35.3932 0.665823 4.10941 0
M  V30 351 H 35.9262 2.17547 3.33044 0
M  V30 352 H 32.6652 5.05064 4.1784 0
M  V30 353 H 32.1852 3.48811 4.87945 0
M  V30 354 H 33.8642 4.06139 5.03647 0
M  V30 355 N 33.9963 -1.19345 1.0293 0
M  V30 356 C 34.9463 -2.20472 0.58104 0
M  V30 357 C 35.9303 -1.56578 -0.370442 0
M  V30 358 O 37.1223 -1.75963 -0.191344 0
M  V30 359 C 34.2513 -3.43236 -0.066306 0
M  V30 360 C 33.3373 -4.14274 0.907642 0
M  V30 361 N 33.7283 -4.61492 2.07023 0
M  V30 362 C 32.0263 -4.39966 0.731177 0
M  V30 363 C 32.7273 -5.1605 2.68454 0
M  V30 364 N 31.7033 -5.06875 1.96414 0
M  V30 365 H 35.5053 -2.54659 1.46717 0
M  V30 366 H 33.0193 -1.35423 0.896345 0
M  V30 367 H 35.0163 -4.14927 -0.405068 0
M  V30 368 H 33.6763 -3.10549 -0.948118 0
M  V30 369 H 34.6873 -4.56304 2.44963 0
M  V30 370 H 31.3643 -4.17377 -0.101507 0
M  V30 371 H 32.7543 -5.6287 3.66915 0
M  V30 372 N 35.4744 -0.807222 -1.35358 0
M  V30 373 C 36.7204 -0.388463 -1.99045 0
M  V30 374 C 37.0534 1.04184 -1.63888 0
M  V30 375 O 36.3284 1.72292 -0.902535 0
M  V30 376 C 36.6114 -0.572783 -3.55515 0
M  V30 377 C 36.4644 -2.04807 -4.00468 0
M  V30 378 C 37.7834 0.00114064 -4.401 0
M  V30 379 H 34.9024 -0.142619 -0.723069 0
M  V30 380 H 37.5444 -1.01687 -1.60498 0
M  V30 381 H 35.6944 -0.0378425 -3.88482 0
M  V30 382 H 37.3664 -2.64544 -3.77908 0
M  V30 383 H 35.6094 -2.54427 -3.51353 0
M  V30 384 H 36.2804 -2.12792 -5.09337 0
M  V30 385 H 38.7564 -0.455716 -4.13597 0
M  V30 386 H 37.6324 -0.157737 -5.48673 0
M  V30 387 H 37.8934 1.09488 -4.28328 0
M  V30 388 N 36.9525 1.47285 -0.560781 0
M  V30 389 C 38.2005 2.02064 -0.0379868 0
M  V30 390 C 38.5215 1.43711 1.31803 0
M  V30 391 O 37.7915 0.61362 1.86042 0
M  V30 392 H 36.3715 0.746918 -0.0110531 0
M  V30 393 H 39.0335 1.80648 -0.731598 0
M  V30 394 H 38.1295 3.12064 0.0474463 0
M  V30 395 N 38.4306 0.297415 1.54768 0
M  V30 396 C 39.3626 -0.613881 2.20826 0
M  V30 397 C 40.3756 -1.10032 1.19987 0
M  V30 398 O 41.5646 -1.01839 1.46598 0
M  V30 399 C 38.6646 -1.852 2.83821 0
M  V30 400 C 37.8376 -1.50865 4.10559 0
M  V30 401 C 36.8966 -2.60154 4.57391 0
M  V30 402 O 35.9226 -2.25398 5.2267 0
M  V30 403 N 37.1246 -3.90629 4.29406 0
M  V30 404 H 39.8896 -0.048389 2.99661 0
M  V30 405 H 37.4506 0.11946 1.61459 0
M  V30 406 H 39.4426 -2.57652 3.12086 0
M  V30 407 H 38.0126 -2.32597 2.08847 0
M  V30 408 H 37.2326 -0.616925 3.89343 0
M  V30 409 H 38.5206 -1.25458 4.9309 0
M  V30 410 H 37.9186 -4.21677 3.77101 0
M  V30 411 H 36.4756 -4.59391 4.62388 0
M  V30 412 N 39.9087 -1.5758 0.0250728 0
M  V30 413 C 41.1857 -1.82917 -0.692873 0
M  V30 414 C 41.5657 -0.908137 -1.90568 0
M  V30 415 O 40.9137 0.0372298 -2.2847 0
M  V30 416 C 41.1237 -3.32034 -1.07492 0
M  V30 417 C 42.4717 -3.98406 -1.46826 0
M  V30 418 O 43.4957 -3.36505 -1.16801 0
M  V30 419 O 42.3547 -5.07497 -2.02754 0
M  V30 420 H 39.4487 -0.754079 -0.33955 0
M  V30 421 H 41.9947 -1.69619 0.0524456 0
M  V30 422 H 40.7667 -3.90728 -0.211552 0
M  V30 423 H 40.3897 -3.50424 -1.87854 0
M  V30 424 N 41.3868 0.248026 -1.55636 0
M  V30 425 C 42.7978 0.817177 -1.67866 0
M  V30 426 C 43.1488 1.86069 -0.622322 0
M  V30 427 O 42.2738 2.15157 0.231618 0
M  V30 428 C 42.8688 1.489 -3.04326 0
M  V30 429 C 41.4278 2.00587 -3.185 0
M  V30 430 C 40.5748 0.856573 -2.63739 0
M  V30 431 H 43.5258 0.0238579 -1.58682 0
M  V30 432 H 43.5468 2.35698 -2.98708 0
M  V30 433 H 43.0588 0.729279 -3.81186 0
M  V30 434 H 41.1598 2.79443 -2.4646 0
M  V30 435 H 41.2728 2.20402 -4.25393 0
M  V30 436 H 39.6368 1.25678 -2.21534 0
M  V30 437 H 40.4198 0.109953 -3.43124 0
M  V30 438 N 42.8649 1.48995 0.513639 0
M  V30 439 C 43.7749 1.67443 1.64317 0
M  V30 440 C 44.7909 0.556947 1.64846 0
M  V30 441 O 45.9669 0.830082 1.83498 0
M  V30 442 C 43.0319 1.72515 3.00732 0
M  V30 443 C 42.0929 2.96009 3.1093 0
M  V30 444 C 41.3259 3.00829 4.40837 0
M  V30 445 O 41.5489 2.13594 5.28898 0
M  V30 446 O 40.4829 3.93168 4.55744 0
M  V30 447 H 44.3089 2.63106 1.51687 0
M  V30 448 H 41.8939 1.32588 0.688543 0
M  V30 449 H 43.7759 1.78277 3.81831 0
M  V30 450 H 42.4509 0.800278 3.13651 0
M  V30 451 H 41.3579 2.9577 2.29065 0
M  V30 452 H 42.6909 3.87934 3.02933 0
M  V30 453 N 44.343 -0.763751 1.37857 0
M  V30 454 C 45.275 -1.88664 1.30148 0
M  V30 455 C 46.288 -1.61365 0.215685 0
M  V30 456 O 47.477 -1.72134 0.472459 0
M  V30 457 C 44.577 -3.24075 0.991396 0
M  V30 458 C 43.75 -3.78958 2.18426 0
M  V30 459 C 42.809 -4.92862 1.8432 0
M  V30 460 O 41.835 -5.08027 2.56704 0
M  V30 461 N 43.037 -5.75071 0.792081 0
M  V30 462 H 45.802 -1.95791 2.26905 0
M  V30 463 H 43.363 -0.943226 1.31586 0
M  V30 464 H 45.355 -3.97804 0.743935 0
M  V30 465 H 43.925 -3.12399 0.112122 0
M  V30 466 H 43.145 -2.96913 2.59299 0
M  V30 467 H 44.433 -4.12357 2.98058 0
M  V30 468 H 43.831 -5.65375 0.191595 0
M  V30 469 H 42.388 -6.48991 0.60449 0
M  V30 470 N 45.8211 -1.22559 -0.990812 0
M  V30 471 C 47.0671 -1.06303 -1.73411 0
M  V30 472 C 47.4221 0.397442 -1.8825 0
M  V30 473 O 46.7151 1.29062 -1.41611 0
M  V30 474 C 46.9091 -1.71011 -3.13831 0
M  V30 475 C 46.7381 -3.232 -3.12685 0
M  V30 476 C 45.5081 -3.92314 -3.18461 0
M  V30 477 C 47.7061 -4.20107 -2.96673 0
M  V30 478 N 45.6881 -5.31571 -3.07091 0
M  V30 479 C 47.0591 -5.46208 -2.93354 0
M  V30 480 C 49.1141 -4.10973 -2.8108 0
M  V30 481 C 47.8171 -6.64225 -2.76039 0
M  V30 482 C 49.8431 -5.28642 -2.65126 0
M  V30 483 C 49.2051 -6.53663 -2.62496 0
M  V30 484 H 45.3041 -0.443441 -0.644115 0
M  V30 485 H 47.8881 -1.55131 -1.17654 0
M  V30 486 H 46.0591 -1.2473 -3.67827 0
M  V30 487 H 47.7911 -1.47828 -3.76735 0
M  V30 488 H 44.5461 -3.43326 -3.26227 0
M  V30 489 H 44.9701 -6.0455 -3.0471 0
M  V30 490 H 49.6121 -3.15098 -2.8191 0
M  V30 491 H 47.3301 -7.60246 -2.73954 0
M  V30 492 H 50.9161 -5.23407 -2.54039 0
M  V30 493 H 49.7961 -7.43182 -2.50302 0
M  V30 494 N 47.2992 1.18797 -1.03562 0
M  V30 495 C 48.5272 1.92599 -0.755869 0
M  V30 496 C 48.9422 1.75886 0.686271 0
M  V30 497 O 48.2992 1.08517 1.46732 0
M  V30 498 C 48.3502 3.44159 -1.10619 0
M  V30 499 O 48.0712 3.60341 -2.4917 0
M  V30 500 C 49.5722 4.3507 -0.850214 0
M  V30 501 H 46.7922 0.611587 -0.276048 0
M  V30 502 H 49.3362 1.50742 -1.38192 0
M  V30 503 H 47.4912 3.83823 -0.525194 0
M  V30 504 H 47.9052 4.54128 -2.62427 0
M  V30 505 H 49.3792 5.39989 -1.14523 0
M  V30 506 H 49.8562 4.38673 0.215176 0
M  V30 507 H 50.4622 4.01097 -1.41426 0
M  V30 508 N 48.7773 0.814389 1.34928 0
M  V30 509 C 50.0023 0.410097 2.03305 0
M  V30 510 C 50.4273 -0.973464 1.60951 0
M  V30 511 O 49.7853 -1.63185 0.789964 0
M  V30 512 C 49.8333 0.51049 3.56968 0
M  V30 513 O 48.9373 -0.473035 4.09678 0
M  V30 514 H 48.2783 0.170088 0.641846 0
M  V30 515 H 50.8083 1.10244 1.72358 0
M  V30 516 H 50.8183 0.383135 4.06197 0
M  V30 517 H 49.4933 1.51963 3.87144 0
M  V30 518 H 48.0703 -0.305272 3.71648 0
M  V30 519 N 50.2554 -1.46986 0.568584 0
M  V30 520 C 51.6714 -1.57946 0.229189 0
M  V30 521 C 51.8714 -1.56567 -1.26843 0
M  V30 522 O 50.9274 -1.47511 -2.04931 0
M  V30 523 C 52.2404 -2.87963 0.865909 0
M  V30 524 C 53.7884 -3.01568 0.838188 0
M  V30 525 C 54.2634 -4.34301 1.45419 0
M  V30 526 N 55.7544 -4.40965 1.41788 0
M  V30 527 C 56.4894 -5.42256 1.86403 0
M  V30 528 N 55.9854 -6.50297 2.38926 0
M  V30 529 N 57.7784 -5.3337 1.77405 0
M  V30 530 H 49.9294 -1.46126 1.54146 0
M  V30 531 H 52.1924 -0.696156 0.643484 0
M  V30 532 H 51.8984 -2.94742 1.91886 0
M  V30 533 H 51.7724 -3.75423 0.365687 0
M  V30 534 H 54.1594 -2.94379 -0.206106 0
M  V30 535 H 54.2404 -2.1562 1.37629 0
M  V30 536 H 53.8844 -4.42247 2.49761 0
M  V30 537 H 53.8144 -5.19 0.891435 0
M  V30 538 H 56.3054 -3.63484 1.03381 0
M  V30 539 H 56.6184 -7.23777 2.70863 0
M  V30 540 H 54.9634 -6.51155 2.42944 0
M  V30 541 H 58.1544 -4.47865 1.3614 0
M  V30 542 H 58.3274 -6.12169 2.12492 0
M  V30 543 N 51.7335 -0.305618 -1.54608 0
M  V30 544 C 52.6965 0.555591 -2.22364 0
M  V30 545 C 53.6965 1.05768 -1.21119 0
M  V30 546 O 54.8865 0.952972 -1.45822 0
M  V30 547 C 52.0185 1.76974 -2.91364 0
M  V30 548 H 53.2115 -0.0364572 -2.99878 0
M  V30 549 H 50.7645 -0.0565007 -1.56198 0
M  V30 550 H 51.4995 2.40151 -2.17941 0
M  V30 551 H 51.2845 1.41732 -3.65588 0
M  V30 552 H 52.7745 2.38148 -3.43038 0
M  V30 553 N 53.2116 1.57565 -0.0334293 0
M  V30 554 C 54.4576 1.92262 0.645226 0
M  V30 555 C 54.7906 0.910543 1.71531 0
M  V30 556 O 54.0656 -0.066099 1.94388 0
M  V30 557 C 54.3486 3.37422 1.2577 0
M  V30 558 C 54.2016 4.49369 0.196891 0
M  V30 559 C 55.5206 3.82628 2.17449 0
M  V30 560 H 52.6396 0.699171 0.233085 0
M  V30 561 H 55.2816 1.89779 -0.0915694 0
M  V30 562 H 53.4316 3.39669 1.88566 0
M  V30 563 H 55.1036 4.59254 -0.433962 0
M  V30 564 H 53.3466 4.31168 -0.477137 0
M  V30 565 H 54.0176 5.47978 0.665124 0
M  V30 566 H 56.4936 3.82145 1.64634 0
M  V30 567 H 55.3696 4.84883 2.57254 0
M  V30 568 H 55.6306 3.18376 3.0674 0
M  V30 569 N 54.6897 -0.239769 1.55765 0
M  V30 570 C 55.9357 -0.968234 1.78194 0
M  V30 571 C 56.2687 -1.84701 0.599938 0
M  V30 572 O 55.5437 -1.9031 -0.401524 0
M  V30 573 C 55.8267 -1.8227 3.10564 0
M  V30 574 C 55.6797 -0.971633 4.3918 0
M  V30 575 C 56.9987 -2.80388 3.39221 0
M  V30 576 H 54.1177 -0.350572 0.648281 0
M  V30 577 H 56.7597 -0.238259 1.885 0
M  V30 578 H 54.9097 -2.44507 3.01908 0
M  V30 579 H 56.5817 -0.367408 4.59835 0
M  V30 580 H 54.8247 -0.276276 4.32919 0
M  V30 581 H 55.4957 -1.60346 5.28198 0
M  V30 582 H 57.9717 -2.28287 3.47885 0
M  V30 583 H 56.8477 -3.3729 4.33044 0
M  V30 584 H 57.1087 -3.57212 2.60484 0
M  V30 585 N 56.1678 -1.49265 -0.50573 0
M  V30 586 C 57.5788 -1.51769 -1.08734 0
M  V30 587 C 57.9298 -0.301192 -1.93874 0
M  V30 588 O 57.0548 0.589456 -2.08217 0
M  V30 589 C 57.6498 -2.75017 -1.97867 0
M  V30 590 C 56.2088 -2.80314 -2.51199 0
M  V30 591 C 55.3558 -2.4562 -1.28709 0
M  V30 592 H 58.3068 -1.56031 -0.289855 0
M  V30 593 H 58.3278 -2.5491 -2.82491 0
M  V30 594 H 57.8398 -3.63539 -1.35873 0
M  V30 595 H 55.9408 -1.96061 -3.16845 0
M  V30 596 H 56.0538 -3.82366 -2.88675 0
M  V30 597 H 54.4178 -1.97297 -1.61078 0
M  V30 598 H 55.2008 -3.36411 -0.6843 0
M  V30 599 N 57.6459 0.756429 -1.3826 0
M  V30 600 C 59.0569 1.33359 -1.30661 0
M  V30 601 C 59.4079 1.96161 0.0388875 0
M  V30 602 O 58.5329 1.94874 0.940918 0
M  V30 603 C 59.1279 2.42477 -2.36622 0
M  V30 604 C 57.6869 2.95922 -2.3261 0
M  V30 605 C 56.8339 1.69275 -2.19639 0
M  V30 606 H 59.7849 0.55552 -1.4866 0
M  V30 607 H 59.8059 3.22345 -2.02174 0
M  V30 608 H 59.3179 1.96739 -3.34538 0
M  V30 609 H 57.4189 3.45996 -1.38267 0
M  V30 610 H 57.5319 3.50494 -3.26636 0
M  V30 611 H 55.8959 1.92793 -1.66442 0
M  V30 612 H 56.6789 1.25619 -3.19491 0
M  V30 613 N 59.124 1.23083 0.984299 0
M  V30 614 C 60.373 1.05466 1.71929 0
M  V30 615 C 60.686 -0.409211 1.91272 0
M  V30 616 O 61.892 -0.705226 2.62181 0
M  V30 617 C 60.348 1.83874 3.09384 0
M  V30 618 C 59.956 3.34566 2.97943 0
M  V30 619 C 61.7 1.74734 3.8687 0
M  V30 620 C 59.607 4.05381 4.30605 0
M  V30 621 H 58.537 0.391039 0.644674 0
M  V30 622 H 61.188 1.47013 1.09815 0
M  V30 623 H 59.57 1.35131 3.72231 0
M  V30 624 H 60.744 3.90767 2.44209 0
M  V30 625 H 59.059 3.44476 2.33934 0
M  V30 626 H 61.656 2.24957 4.85076 0
M  V30 627 H 61.999 0.709372 4.10212 0
M  V30 628 H 62.532 2.21067 3.30717 0
M  V30 629 H 59.271 5.09467 4.1246 0
M  V30 630 H 58.791 3.53967 4.84218 0
M  V30 631 H 60.47 4.11458 4.99311 0
M  V30 632 N 60.6021 -1.18246 1.0419 0
M  V30 633 C 61.8271 -1.92736 0.765996 0
M  V30 634 C 62.2521 -1.75728 -0.67091 0
M  V30 635 O 61.6101 -1.06825 -1.46486 0
M  V30 636 C 61.6581 -3.42148 1.13875 0
M  V30 637 O 60.7621 -4.11548 0.264954 0
M  V30 638 H 60.1031 -0.601238 0.281797 0
M  V30 639 H 62.6331 -1.49942 1.39207 0
M  V30 640 H 62.6431 -3.92858 1.1012 0
M  V30 641 H 61.3181 -3.53848 2.18551 0
M  V30 642 H 59.8951 -3.71137 0.362226 0
M  V30 643 N 62.0802 -0.821533 -1.34494 0
M  V30 644 C 63.0102 -0.257138 -2.3208 0
M  V30 645 C 63.9912 0.625645 -1.58176 0
M  V30 646 O 65.1762 0.552811 -1.86166 0
M  V30 647 C 62.3062 0.582958 -3.42372 0
M  V30 648 C 61.2602 -0.202571 -4.2752 0
M  V30 649 C 60.5862 0.760179 -5.29269 0
M  V30 650 C 61.8862 -1.40998 -5.02908 0
M  V30 651 H 63.5802 -1.07247 -2.79532 0
M  V30 652 H 61.1262 -0.517163 -1.34393 0
M  V30 653 H 63.0792 0.987972 -4.09655 0
M  V30 654 H 61.8032 1.43133 -2.93565 0
M  V30 655 H 60.4622 -0.588936 -3.61838 0
M  V30 656 H 60.1102 1.60447 -4.76724 0
M  V30 657 H 59.8102 0.238809 -5.87115 0
M  V30 658 H 61.3342 1.16308 -5.9942 0
M  V30 659 H 62.7482 -1.07905 -5.63054 0
M  V30 660 H 61.1452 -1.86689 -5.70322 0
M  V30 661 H 62.2152 -2.1889 -4.32684 0
M  V30 662 N 63.5583 1.46682 -0.576371 0
M  V30 663 C 64.7833 2.07304 -0.0630475 0
M  V30 664 C 65.2083 1.42329 1.2298 0
M  V30 665 O 64.5663 0.504865 1.74129 0
M  V30 666 C 64.6143 3.60472 0.095895 0
M  V30 667 O 63.7183 3.95927 1.15394 0
M  V30 668 H 63.0593 0.661288 -0.0599463 0
M  V30 669 H 65.5893 1.88417 -0.797511 0
M  V30 670 H 65.5993 4.06865 0.304071 0
M  V30 671 H 64.2743 4.07157 -0.84828 0
M  V30 672 H 62.8513 3.61252 0.924724 0
M  V30 673 N 65.0364 0.313813 1.54444 0
M  V30 674 C 66.2644 -0.293918 2.04802 0
M  V30 675 C 66.6794 -1.46537 1.19047 0
M  V30 676 O 66.0364 -1.81182 0.218939 0
M  V30 677 C 66.0874 -0.737806 3.53891 0
M  V30 678 O 65.8084 0.387038 4.36387 0
M  V30 679 C 67.3094 -1.40936 4.203 0
M  V30 680 H 64.5294 -0.0620057 0.668129 0
M  V30 681 H 67.0734 0.457169 1.99324 0
M  V30 682 H 65.2284 -1.43889 3.59687 0
M  V30 683 H 65.6424 0.0391274 5.24485 0
M  V30 684 H 67.1164 -1.67099 5.26101 0
M  V30 685 H 67.5934 -2.35355 3.70816 0
M  V30 686 H 68.1994 -0.751117 4.18615 0
M  V30 687 N 66.5145 -1.57545 0.0417849 0
M  V30 688 C 67.7425 -1.96624 -0.643928 0
M  V30 689 C 68.1575 -0.918897 -1.64929 0
M  V30 690 O 67.5145 0.0979323 -1.82237 0
M  V30 691 C 67.5655 -3.35781 -1.33914 0
M  V30 692 O 67.2865 -4.365 -0.374048 0
M  V30 693 C 68.7875 -3.89566 -2.1155 0
M  V30 694 H 66.0075 -0.647316 -0.176702 0
M  V30 695 H 68.5515 -2.04229 0.105304 0
M  V30 696 H 66.7065 -3.29357 -2.03968 0
M  V30 697 H 67.1205 -5.17248 -0.869179 0
M  V30 698 H 68.5945 -4.89242 -2.55628 0
M  V30 699 H 69.0715 -3.24488 -2.9598 0
M  V30 700 H 69.6775 -3.99298 -1.46427 0
M  V30 701 N 67.9926 0.231505 -1.5589 0
M  V30 702 C 69.2396 0.957352 -1.78441 0
M  V30 703 C 69.5676 1.84726 -0.60882 0
M  V30 704 O 68.8226 1.91416 0.40725 0
M  V30 705 C 69.1216 1.83577 -3.0665 0
M  V30 706 C 68.7876 1.09993 -4.37278 0
M  V30 707 C 67.4496 0.896629 -4.72773 0
M  V30 708 C 69.8016 0.579558 -5.17968 0
M  V30 709 C 67.1296 0.160896 -5.86479 0
M  V30 710 C 69.4816 -0.142783 -6.32439 0
M  V30 711 C 68.1456 -0.357427 -6.66542 0
M  V30 712 H 67.4156 0.35032 -0.65296 0
M  V30 713 H 70.0626 0.226259 -1.90159 0
M  V30 714 H 68.3676 2.63441 -2.90011 0
M  V30 715 H 70.0646 2.39934 -3.21298 0
M  V30 716 H 66.6546 1.26835 -4.09403 0
M  V30 717 H 70.8386 0.724125 -4.90989 0
M  V30 718 H 66.0946 -0.0157293 -6.11398 0
M  V30 719 H 70.2686 -0.553559 -6.94196 0
M  V30 720 H 67.8956 -0.929466 -7.54497 0
M  V30 721 N 69.4707 1.49531 0.497807 0
M  V30 722 C 70.4177 1.66436 1.59899 0
M  V30 723 C 71.3877 0.505793 1.58212 0
M  V30 724 O 72.5727 0.733202 1.7615 0
M  V30 725 C 69.7127 1.7399 2.98029 0
M  V30 726 C 68.8257 3.01172 3.09708 0
M  V30 727 C 67.9607 2.99686 4.38591 0
M  V30 728 C 66.9997 4.21434 4.43914 0
M  V30 729 N 66.1367 4.1784 5.64229 0
M  V30 730 H 70.9767 2.60459 1.44793 0
M  V30 731 H 68.5137 1.29137 0.704423 0
M  V30 732 H 70.4717 1.76352 3.78095 0
M  V30 733 H 69.1017 0.834301 3.11832 0
M  V30 734 H 68.1537 3.08408 2.22685 0
M  V30 735 H 69.4657 3.91165 3.09502 0
M  V30 736 H 68.6197 3.00628 5.2698 0
M  V30 737 H 67.3587 2.07477 4.41367 0
M  V30 738 H 66.3637 4.20733 3.53926 0
M  V30 739 H 67.5887 5.14839 4.42851 0
M  V30 740 H 65.5347 3.28469 5.67841 0
M  V30 741 H 65.4517 5.01571 5.65652 0
M  V30 742 H 66.7197 4.22889 6.54817 0
M  V30 743 N 70.9488 -0.749086 1.3866 0
M  V30 744 C 71.8808 -1.87273 1.32142 0
M  V30 745 C 72.8938 -1.61127 0.232787 0
M  V30 746 O 74.0828 -1.71623 0.49069 0
M  V30 747 C 71.1828 -3.23005 1.02571 0
M  V30 748 C 70.3558 -3.7662 2.22433 0
M  V30 749 C 69.4148 -4.90879 1.89537 0
M  V30 750 O 68.4408 -5.05276 2.62078 0
M  V30 751 N 69.6428 -5.74198 0.853031 0
M  V30 752 H 72.4078 -1.93373 2.28969 0
M  V30 753 H 69.9688 -0.929216 1.32579 0
M  V30 754 H 71.9608 -3.96992 0.786085 0
M  V30 755 H 70.5308 -3.12262 0.145249 0
M  V30 756 H 69.7508 -2.94147 2.62434 0
M  V30 757 H 71.0388 -4.09173 3.02415 0
M  V30 758 H 70.4368 -5.6514 0.25155 0
M  V30 759 H 68.9938 -6.48313 0.67329 0
M  V30 760 N 72.4269 -1.23603 -0.977757 0
M  V30 761 C 73.6749 -1.06759 -1.71601 0
M  V30 762 C 73.9959 0.395929 -1.90938 0
M  V30 763 O 73.2659 1.28356 -1.47992 0
M  V30 764 H 71.8459 -0.392062 -0.635843 0
M  V30 765 H 74.5079 -1.55362 -1.1768 0
M  V30 766 H 73.6039 -1.55763 -2.70452 0
M  V30 767 N 73.905 1.17692 -1.04816 0
M  V30 768 C 74.868 2.19787 -0.650117 0
M  V30 769 C 75.868 1.58044 0.296427 0
M  V30 770 O 77.058 1.74012 0.0808097 0
M  V30 771 C 74.19 3.40869 0.0456987 0
M  V30 772 H 75.383 2.56516 -1.5537 0
M  V30 773 H 72.936 1.31708 -0.841594 0
M  V30 774 H 73.671 3.09681 0.962726 0
M  V30 775 H 73.456 3.86928 -0.634727 0
M  V30 776 H 74.946 4.16445 0.310432 0
M  V30 777 N 75.3831 0.828654 1.34056 0
M  V30 778 C 76.7941 0.477534 1.8049 0
M  V30 779 C 77.1451 -1.00258 1.6865 0
M  V30 780 O 76.2701 -1.78057 1.22982 0
M  V30 781 C 76.8651 0.860018 3.27703 0
M  V30 782 C 75.4241 0.561185 3.72193 0
M  V30 783 C 74.5711 1.07385 2.55663 0
M  V30 784 H 77.5221 1.0183 1.21722 0
M  V30 785 H 77.5431 0.166038 3.80138 0
M  V30 786 H 77.0551 1.93731 3.36288 0
M  V30 787 H 75.1561 -0.506465 3.69142 0
M  V30 788 H 75.2691 1.10926 4.66082 0
M  V30 789 H 73.6331 0.495149 2.49841 0
M  V30 790 H 74.4161 2.15771 2.67016 0
M  V30 791 N 76.8612 -1.46375 0.584142 0
M  V30 792 C 78.1092 -2.01978 0.0701287 0
M  V30 793 C 78.4302 -1.4579 -1.295 0
M  V30 794 O 77.7002 -0.64314 -1.85042 0
M  V30 795 H 76.2802 -0.746648 0.0229345 0
M  V30 796 H 78.9422 -1.79461 0.760245 0
M  V30 797 H 78.0382 -3.121 0.0022064 0
M  V30 798 N 78.3393 -0.321999 -1.54275 0
M  V30 799 C 79.2713 0.578671 -2.21775 0
M  V30 800 C 80.2843 1.08109 -1.21722 0
M  V30 801 O 81.4733 0.994938 -1.482 0
M  V30 802 C 78.5733 1.80661 -2.86731 0
M  V30 803 C 77.7463 1.44314 -4.12907 0
M  V30 804 C 76.8053 2.52845 -4.61472 0
M  V30 805 O 75.8313 2.17054 -5.2619 0
M  V30 806 N 77.0333 3.83748 -4.35566 0
M  V30 807 H 79.7983 0.000709447 -2.997 0
M  V30 808 H 77.3593 -0.145132 -1.61248 0
M  V30 809 H 79.3513 2.52655 -3.16145 0
M  V30 810 H 77.9213 2.29245 -2.12521 0
M  V30 811 H 77.1413 0.554906 -3.90275 0
M  V30 812 H 78.4293 1.17598 -4.95023 0
M  V30 813 H 77.8273 4.15625 -3.83761 0
M  V30 814 H 76.3843 4.51977 -4.69638 0
M  V30 815 N 79.8174 1.5752 -0.0501392 0
M  V30 816 C 80.7674 2.07981 0.934231 0
M  V30 817 C 81.7514 0.984745 1.27246 0
M  V30 818 O 82.9434 1.24809 1.25506 0
M  V30 819 C 80.0724 2.62751 2.20945 0
M  V30 820 C 79.1584 3.79225 1.89865 0
M  V30 821 N 79.5494 4.89036 1.29142 0
M  V30 822 C 77.8474 3.88111 2.19741 0
M  V30 823 C 78.5484 5.70084 1.15669 0
M  V30 824 N 77.5244 5.17659 1.65923 0
M  V30 825 H 81.3264 2.90277 0.460053 0
M  V30 826 H 78.8404 1.61665 0.15434 0
M  V30 827 H 80.8374 2.97205 2.9236 0
M  V30 828 H 79.4974 1.81894 2.6897 0
M  V30 829 H 80.5084 5.08854 0.963756 0
M  V30 830 H 77.1854 3.18194 2.70293 0
M  V30 831 H 78.5754 6.68395 0.685356 0
M  V30 832 N 81.2955 -0.223234 1.56011 0
M  V30 833 C 82.5205 -0.968978 1.83373 0
M  V30 834 C 82.9455 -1.77227 0.630254 0
M  V30 835 O 82.3035 -1.76345 -0.420959 0
M  V30 836 C 82.3515 -1.86363 3.08709 0
M  V30 837 O 81.4555 -2.95873 2.87285 0
M  V30 838 H 80.7965 -0.274461 0.604622 0
M  V30 839 H 83.3265 -0.237056 2.03222 0
M  V30 840 H 83.3365 -2.27376 3.38768 0
M  V30 841 H 82.0115 -1.27319 3.95933 0
M  V30 842 H 80.5885 -2.58818 2.68454 0
M  V30 843 N 82.7736 -1.49793 -0.48987 0
M  V30 844 C 84.0216 -1.59525 -1.24081 0
M  V30 845 C 84.3426 -0.288953 -1.92847 0
M  V30 846 O 83.6126 0.692436 -1.83254 0
M  V30 847 H 82.1926 -0.587796 -0.460983 0
M  V30 848 H 84.8546 -1.86477 -0.566778 0
M  V30 849 H 83.9506 -2.39696 -1.99881 0
M  V30 850 N 84.2517 0.741722 -1.39055 0
M  V30 851 C 85.4987 1.50114 -1.35912 0
M  V30 852 C 85.8267 1.94443 0.0470937 0
M  V30 853 O 85.0817 1.66612 1.02659 0
M  V30 854 C 85.3807 2.7592 -2.27163 0
M  V30 855 C 85.0467 2.50493 -3.74919 0
M  V30 856 C 83.7087 2.43267 -4.1518 0
M  V30 857 C 86.0607 2.28585 -4.684 0
M  V30 858 C 83.3887 2.12166 -5.46994 0
M  V30 859 C 85.7407 1.99002 -6.00484 0
M  V30 860 C 84.4047 1.90241 -6.39816 0
M  V30 861 H 83.6747 0.549306 -0.497336 0
M  V30 862 H 86.3217 0.851896 -1.71508 0
M  V30 863 H 84.6267 3.45553 -1.84663 0
M  V30 864 H 86.3237 3.33923 -2.22028 0
M  V30 865 H 82.9137 2.56992 -3.43006 0
M  V30 866 H 87.0977 2.33139 -4.38132 0
M  V30 867 H 82.3537 2.03901 -5.76398 0
M  V30 868 H 86.5277 1.81057 -6.72452 0
M  V30 869 H 84.1547 1.65907 -7.41875 0
M  V30 870 N 85.7298 1.2412 0.971189 0
M  V30 871 C 86.6398 1.04747 2.09917 0
M  V30 872 C 87.6558 -0.0107162 1.73997 0
M  V30 873 O 88.8318 0.186714 2.00533 0
M  V30 874 C 85.8968 0.650828 3.40537 0
M  V30 875 C 84.9578 1.7851 3.90426 0
M  V30 876 C 84.1908 1.40729 5.14812 0
M  V30 877 O 84.4138 0.29557 5.69634 0
M  V30 878 O 83.3478 2.23168 5.58999 0
M  V30 879 H 87.1738 1.99304 2.29154 0
M  V30 880 H 84.7588 1.02908 1.08307 0
M  V30 881 H 86.6408 0.440992 4.19086 0
M  V30 882 H 85.3158 -0.265649 3.22608 0
M  V30 883 H 84.2228 2.04966 3.12953 0
M  V30 884 H 85.5558 2.68023 4.12825 0
M  V30 885 N 87.2079 -1.17134 1.05439 0
M  V30 886 C 88.4379 -1.91094 0.785274 0
M  V30 887 C 88.8459 -1.77198 -0.663142 0
M  V30 888 O 88.1889 -1.10835 -1.46497 0
M  V30 889 C 88.2509 -3.42594 1.08949 0
M  V30 890 C 87.9149 -3.80274 2.53458 0
M  V30 891 C 88.9119 -3.82912 3.51673 0
M  V30 892 C 86.5969 -4.11162 2.88532 0
M  V30 893 C 88.5909 -4.15913 4.83006 0
M  V30 894 C 86.2779 -4.43831 4.20068 0
M  V30 895 C 87.2759 -4.46185 5.17115 0
M  V30 896 O 86.9639 -4.78083 6.46291 0
M  V30 897 H 86.6959 -0.613073 0.284811 0
M  V30 898 H 89.2499 -1.49461 1.40893 0
M  V30 899 H 87.4799 -3.84534 0.408741 0
M  V30 900 H 89.1689 -3.97817 0.805991 0
M  V30 901 H 89.9349 -3.5917 3.25917 0
M  V30 902 H 85.8139 -4.085 2.13656 0
M  V30 903 H 89.3579 -4.17665 5.5875 0
M  V30 904 H 85.2549 -4.67037 4.45586 0
M  V30 905 H 86.0229 -4.9593 6.51149 0
M  V30 906 N 88.686 -0.835752 -1.33615 0
M  V30 907 C 89.911 -0.442389 -2.02627 0
M  V30 908 C 90.336 0.947735 -1.62479 0
M  V30 909 O 89.694 1.61907 -0.815826 0
M  V30 910 C 89.742 -0.567216 -3.56111 0
M  V30 911 O 88.846 0.407799 -4.10379 0
M  V30 912 H 88.187 -0.180278 -0.639059 0
M  V30 913 H 90.717 -1.12972 -1.70583 0
M  V30 914 H 90.727 -0.447708 -4.05536 0
M  V30 915 H 89.402 -1.58103 -3.84677 0
M  V30 916 H 87.979 0.246107 -3.72087 0
M  V30 917 N 90.1641 1.46063 -0.591896 0
M  V30 918 C 91.5801 1.57561 -0.254288 0
M  V30 919 C 91.7801 1.58565 1.24336 0
M  V30 920 O 90.8361 1.50753 2.02558 0
M  V30 921 C 92.1491 2.86549 -0.911611 0
M  V30 922 C 93.6971 3.00197 -0.886059 0
M  V30 923 C 94.1721 4.31933 -1.5231 0
M  V30 924 N 95.6631 4.38654 -1.48786 0
M  V30 925 C 96.3981 5.39222 -1.95006 0
M  V30 926 N 95.8941 6.46414 -2.49241 0
M  V30 927 N 97.6871 5.3048 -1.85868 0
M  V30 928 H 89.8381 1.43655 -1.56451 0
M  V30 929 H 92.1011 0.68583 -0.654478 0
M  V30 930 H 91.8071 2.91651 -1.96551 0
M  V30 931 H 91.6811 3.74794 -0.425368 0
M  V30 932 H 94.0681 2.9467 0.159246 0
M  V30 933 H 94.1491 2.13403 -1.41041 0
M  V30 934 H 93.7931 4.38217 -2.56765 0
M  V30 935 H 93.7231 5.17516 -0.973891 0
M  V30 936 H 96.2141 3.61793 -1.09151 0
M  V30 937 H 96.5271 7.19376 -2.82344 0
M  V30 938 H 94.8721 6.47208 -2.53272 0
M  V30 939 H 98.0631 4.45643 -1.43248 0
M  V30 940 H 98.2361 6.08711 -2.22204 0
M  V30 941 N 91.6422 0.330177 1.54103 0
M  V30 942 C 92.8672 -0.274893 2.0557 0
M  V30 943 C 93.2922 -1.44487 1.20437 0
M  V30 944 O 92.6502 -1.80021 0.214991 0
M  V30 945 C 92.6982 -0.68079 3.54115 0
M  V30 946 O 91.8022 -1.7824 3.71893 0
M  V30 947 H 91.1432 -0.0483849 0.662235 0
M  V30 948 H 93.6732 0.480508 1.98878 0
M  V30 949 H 93.6832 -0.961635 3.96505 0
M  V30 950 H 92.3582 0.174903 4.15532 0
M  V30 951 H 90.9352 -1.49985 3.41407 0
M  V30 952 N 93.1203 -1.57491 0.0584922 0
M  V30 953 C 94.3683 -1.92597 -0.612436 0
M  V30 954 C 94.6893 -0.938162 -1.70949 0
M  V30 955 O 93.9593 0.0158301 -1.95894 0
M  V30 956 H 92.5393 -0.710964 -0.229214 0
M  V30 957 H 95.2013 -1.94571 0.113218 0
M  V30 958 H 94.2973 -2.94038 -1.04633 0
M  V30 959 N 94.5984 0.214957 -1.56127 0
M  V30 960 C 95.5464 1.28601 -1.93816 0
M  V30 961 C 96.5404 1.48175 -0.821016 0
M  V30 962 O 97.7464 1.49271 -1.0059 0
M  V30 963 H 94.1214 0.431302 -0.616022 0
M  V30 964 H 96.0924 0.940991 -2.83175 0
M  V30 965 C 94.8414 2.62779 -2.27689 0
M  V30 966 H 94.1644 2.48527 -3.13168 0
M  V30 967 H 95.6044 3.36517 -2.57939 0
M  V30 968 C 94.0634 3.18285 -1.10436 0
M  V30 969 O 94.5934 4.00002 -0.368945 0
M  V30 970 N 92.7994 2.7675 -0.886433 0
M  V30 971 H 92.3464 2.10404 -1.48619 0
M  V30 972 H 92.3044 3.14229 -0.103656 0
M  V30 973 N 96.0765 1.50051 0.48192 0
M  V30 974 C 97.4875 1.5348 1.06305 0
M  V30 975 C 97.8385 0.331997 1.93371 0
M  V30 976 O 96.9635 -0.556256 2.09129 0
M  V30 977 C 97.5585 2.7813 1.93466 0
M  V30 978 C 96.1175 2.84275 2.46707 0
M  V30 979 C 95.2645 2.47637 1.24785 0
M  V30 980 H 98.2155 1.56472 0.264995 0
M  V30 981 H 98.2365 2.59372 2.78399 0
M  V30 982 H 97.7485 3.65654 1.30072 0
M  V30 983 H 95.8495 2.01077 3.13686 0
M  V30 984 H 95.9625 3.8691 2.82555 0
M  V30 985 H 94.3265 1.99835 1.57918 0
M  V30 986 H 95.1095 3.37457 0.630694 0
M  V30 987 N 97.5546 -0.734337 1.39446 0
M  V30 988 C 98.7826 -1.52358 1.39981 0
M  V30 989 C 99.1976 -1.88799 -0.0054975 0
M  V30 990 O 98.5546 -1.54146 -0.976998 0
M  V30 991 C 98.6056 -2.81072 2.27333 0
M  V30 992 O 98.3266 -2.46178 3.62392 0
M  V30 993 C 99.8276 -3.75096 2.36259 0
M  V30 994 H 97.0476 -0.470806 0.478103 0
M  V30 995 H 99.5916 -0.907339 1.83269 0
M  V30 996 H 97.7466 -3.39026 1.87457 0
M  V30 997 H 98.1606 -3.28866 4.08592 0
M  V30 998 H 99.6346 -4.62305 3.01626 0
M  V30 999 H 100.112 -4.16892 1.38194 0
M  V30 1000 H 100.718 -3.23061 2.76608 0
M  V30 1001 N 99.0327 -1.24633 -0.964593 0
M  V30 1002 C 100.449 -1.01239 -1.2338 0
M  V30 1003 C 100.649 0.2769 -1.99588 0
M  V30 1004 O 99.7047 0.992241 -2.32187 0
M  V30 1005 C 101.018 -2.22937 -2.01791 0
M  V30 1006 C 102.566 -2.27594 -2.14872 0
M  V30 1007 C 103.041 -3.48921 -2.96678 0
M  V30 1008 N 104.532 -3.49257 -3.04259 0
M  V30 1009 C 105.267 -4.39795 -3.67924 0
M  V30 1010 N 104.763 -5.40591 -4.33281 0
M  V30 1011 N 106.556 -4.275 -3.64966 0
M  V30 1012 H 98.7067 -2.0748 -0.454502 0
M  V30 1013 H 100.97 -0.910647 -0.26349 0
M  V30 1014 H 100.676 -3.16587 -1.53184 0
M  V30 1015 H 100.55 -2.25306 -3.02518 0
M  V30 1016 H 102.937 -1.34473 -2.6268 0
M  V30 1017 H 103.018 -2.2925 -1.13482 0
M  V30 1018 H 102.662 -4.42359 -2.49562 0
M  V30 1019 H 102.592 -3.4451 -3.98272 0
M  V30 1020 H 105.083 -2.76337 -2.57771 0
M  V30 1021 H 105.396 -6.05904 -4.79687 0
M  V30 1022 H 103.741 -5.44475 -4.3194 0
M  V30 1023 H 106.932 -3.47987 -3.13086 0
M  V30 1024 H 107.105 -4.98258 -4.14298 0
M  V30 1025 N 100.511 1.16574 -1.06058 0
M  V30 1026 C 101.459 2.22941 -0.663343 0
M  V30 1027 C 102.453 1.66358 0.319593 0
M  V30 1028 O 103.659 1.7905 0.184713 0
M  V30 1029 H 100.034 0.725907 -0.196376 0
M  V30 1030 H 102.005 2.53736 -1.57037 0
M  V30 1031 C 100.754 3.47642 -0.0632808 0
M  V30 1032 H 100.077 3.91493 -0.810733 0
M  V30 1033 H 101.517 4.2363 0.177177 0
M  V30 1034 C 99.9758 3.1509 1.19248 0
M  V30 1035 O 100.506 3.30673 2.28075 0
M  V30 1036 N 98.7118 2.6924 1.09353 0
M  V30 1037 H 98.2588 2.5676 0.207912 0
M  V30 1038 H 98.2168 2.47833 1.93458 0
M  V30 1039 N 101.989 0.842826 1.3317 0
M  V30 1040 C 103.229 0.446574 1.99462 0
M  V30 1041 C 103.593 -0.976818 1.65295 0
M  V30 1042 O 104.794 -1.477 2.24584 0
M  V30 1043 C 103.065 0.665353 3.51152 0
M  V30 1044 S 104.624 0.364911 4.3728 0
M  V30 1045 H 101.442 0.167803 0.690915 0
M  V30 1046 H 104.044 1.09297 1.62094 0
M  V30 1047 H 102.748 1.7006 3.73507 0
M  V30 1048 H 102.279 0.00494568 3.934 0
M  V30 1049 H 104.294 -0.813761 4.89482 0
M  V30 1050 N 103.467 -1.45747 0.599634 0
M  V30 1051 C 104.397 -2.33235 -0.111306 0
M  V30 1052 C 105.378 -1.46359 -0.866781 0
M  V30 1053 O 106.563 -1.75146 -0.838904 0
M  V30 1054 C 103.693 -3.28932 -1.11451 0
M  V30 1055 C 102.647 -4.25381 -0.472772 0
M  V30 1056 C 101.973 -5.1071 -1.58365 0
M  V30 1057 C 103.273 -5.18831 0.600948 0
M  V30 1058 H 104.967 -2.92927 0.61919 0
M  V30 1059 H 102.513 -1.40857 0.299215 0
M  V30 1060 H 104.466 -3.89002 -1.62036 0
M  V30 1061 H 103.19 -2.67381 -1.8755 0
M  V30 1062 H 101.849 -3.66598 0.0121472 0
M  V30 1063 H 101.497 -4.45533 -2.33473 0
M  V30 1064 H 101.197 -5.7604 -1.15982 0
M  V30 1065 H 102.721 -5.73647 -2.09194 0
M  V30 1066 H 104.135 -5.73019 0.179491 0
M  V30 1067 H 102.532 -5.92595 0.946076 0
M  V30 1068 H 103.602 -4.6174 1.48068 0
M  V30 1069 N 104.945 -0.338344 -1.53925 0
M  V30 1070 C 105.855 0.529421 -2.28548 0
M  V30 1071 C 106.871 1.11645 -1.3346 0
M  V30 1072 O 108.047 1.13325 -1.66492 0
M  V30 1073 C 105.112 1.66713 -3.03987 0
M  V30 1074 C 104.173 1.11041 -4.14691 0
M  V30 1075 C 103.406 2.19389 -4.86522 0
M  V30 1076 O 103.629 3.40013 -4.57982 0
M  V30 1077 O 102.563 1.83976 -5.73094 0
M  V30 1078 H 106.389 -0.0770399 -3.03602 0
M  V30 1079 H 103.974 -0.103555 -1.49041 0
M  V30 1080 H 105.856 2.32918 -3.5118 0
M  V30 1081 H 104.531 2.25949 -2.31794 0
M  V30 1082 H 103.438 0.413024 -3.71813 0
M  V30 1083 H 104.771 0.562975 -4.8897 0
M  V30 1084 N 106.423 1.57458 -0.0668435 0
M  V30 1085 C 107.37 2.12439 0.902122 0
M  V30 1086 C 108.34 1.03565 1.2986 0
M  V30 1087 O 109.525 1.312 1.38532 0
M  V30 1088 C 106.665 2.6865 2.16614 0
M  V30 1089 C 105.778 3.91663 1.82274 0
M  V30 1090 C 104.913 4.36134 3.0325 0
M  V30 1091 C 103.952 5.51808 2.64904 0
M  V30 1092 N 103.089 5.9126 3.78624 0
M  V30 1093 H 107.929 2.94934 0.426382 0
M  V30 1094 H 105.466 1.4575 0.198819 0
M  V30 1095 H 107.424 2.99346 2.90599 0
M  V30 1096 H 106.054 1.88928 2.61737 0
M  V30 1097 H 105.106 3.6746 0.983719 0
M  V30 1098 H 106.418 4.75693 1.50059 0
M  V30 1099 H 105.572 4.68465 3.85519 0
M  V30 1100 H 104.311 3.50948 3.38655 0
M  V30 1101 H 103.316 5.19133 1.81055 0
M  V30 1102 H 104.541 6.38722 2.30675 0
M  V30 1103 H 102.487 5.09024 4.138 0
M  V30 1104 H 102.404 6.70018 3.5016 0
M  V30 1105 H 103.672 6.28212 4.61486 0
M  V30 1106 N 107.901 -0.206675 1.56239 0
M  V30 1107 C 108.864 -1.23976 1.92776 0
M  V30 1108 C 109.864 -1.39041 0.807729 0
M  V30 1109 O 111.054 -1.37051 1.0753 0
M  V30 1110 C 108.186 -2.61112 2.19165 0
M  V30 1111 H 109.379 -0.927764 2.85189 0
M  V30 1112 H 106.932 -0.447718 1.4975 0
M  V30 1113 H 107.667 -2.97386 1.29352 0
M  V30 1114 H 107.452 -2.51552 3.00772 0
M  V30 1115 H 108.942 -3.35633 2.48476 0
M  V30 1116 N 109.379 -1.50304 -0.473955 0
M  V30 1117 C 110.625 -1.61389 -1.22806 0
M  V30 1118 C 110.958 -0.311955 -1.91678 0
M  V30 1119 O 110.233 0.686384 -1.81986 0
M  V30 1120 C 110.516 -2.79219 -2.27396 0
M  V30 1121 C 110.369 -4.19286 -1.62848 0
M  V30 1122 C 111.688 -2.92614 -3.28732 0
M  V30 1123 H 108.807 -0.587399 -0.445119 0
M  V30 1124 H 111.449 -1.82681 -0.522265 0
M  V30 1125 H 109.599 -2.61195 -2.87592 0
M  V30 1126 H 111.271 -4.48892 -1.06271 0
M  V30 1127 H 109.514 -4.23677 -0.931693 0
M  V30 1128 H 110.185 -4.97655 -2.38838 0
M  V30 1129 H 112.661 -3.09105 -2.78556 0
M  V30 1130 H 111.537 -3.76688 -3.99246 0
M  V30 1131 H 111.798 -2.03107 -3.92683 0
M  V30 1132 N 110.857 0.726932 -1.39834 0
M  V30 1133 C 111.82 1.82269 -1.38962 0
M  V30 1134 C 112.82 1.58248 -0.285334 0
M  V30 1135 O 114.01 1.65499 -0.54366 0
M  V30 1136 C 111.142 3.20186 -1.17019 0
M  V30 1137 H 112.335 1.84443 -2.36476 0
M  V30 1138 H 109.888 0.931416 -1.25516 0
M  V30 1139 H 110.623 3.23669 -0.202204 0
M  V30 1140 H 110.408 3.3902 -1.96998 0
M  V30 1141 H 111.898 4.00235 -1.1917 0
M  V30 1142 N 112.336 1.25143 0.95797 0
M  V30 1143 C 113.299 1.05321 2.03569 0
M  V30 1144 C 114.299 0.007152 1.60798 0
M  V30 1145 O 115.489 0.24903 1.72411 0
M  V30 1146 C 112.621 0.598394 3.35607 0
M  V30 1147 H 113.814 2.00986 2.22586 0
M  V30 1148 H 111.367 1.07502 1.13459 0
M  V30 1149 H 112.102 -0.361014 3.22284 0
M  V30 1150 H 111.887 1.35351 3.67998 0
M  V30 1151 H 113.377 0.48104 4.1482 0
M  V30 1152 N 113.814 -1.1601 1.06675 0
M  V30 1153 C 114.744 -2.22688 0.702307 0
M  V30 1154 C 115.725 -1.67306 -0.307032 0
M  V30 1155 O 116.91 -1.93352 -0.181305 0
M  V30 1156 C 114.04 -3.47178 0.092038 0
M  V30 1157 C 112.994 -4.15477 1.02777 0
M  V30 1158 C 112.32 -5.33963 0.28061 0
M  V30 1159 C 113.62 -4.66019 2.35846 0
M  V30 1160 H 115.314 -2.53429 1.59419 0
M  V30 1161 H 112.86 -1.21813 0.767961 0
M  V30 1162 H 114.813 -4.21037 -0.174814 0
M  V30 1163 H 113.537 -3.15749 -0.834877 0
M  V30 1164 H 112.196 -3.43549 1.27944 0
M  V30 1165 H 111.844 -4.98788 -0.649545 0
M  V30 1166 H 111.544 -5.806 0.904258 0
M  V30 1167 H 113.068 -6.10596 0.021396 0
M  V30 1168 H 114.482 -5.3144 2.15045 0
M  V30 1169 H 112.879 -5.23293 2.93743 0
M  V30 1170 H 113.949 -3.82023 2.98641 0
M  V30 1171 N 115.292 -0.849877 -1.32721 0
M  V30 1172 C 116.569 -0.372405 -1.92022 0
M  V30 1173 C 116.949 1.1435 -1.77447 0
M  V30 1174 O 116.297 1.96296 -1.16962 0
M  V30 1175 C 116.507 -0.831482 -3.3895 0
M  V30 1176 C 117.855 -0.845882 -4.16089 0
M  V30 1177 O 118.879 -0.775806 -3.47649 0
M  V30 1178 O 117.738 -0.943753 -5.38289 0
M  V30 1179 H 114.832 -0.107667 -0.819961 0
M  V30 1180 H 117.378 -0.93646 -1.41522 0
M  V30 1181 H 116.15 -1.87448 -3.4348 0
M  V30 1182 H 115.773 -0.24461 -3.96847 0
M  V30 1183 N 116.77 1.45427 -0.607355 0
M  V30 1184 C 118.018 2.01841 -0.102253 0
M  V30 1185 C 118.339 1.47832 1.27164 0
M  V30 1186 O 117.609 0.672497 1.83995 0
M  V30 1187 H 116.189 0.746188 -0.0348101 0
M  V30 1188 H 118.851 1.78229 -0.7887 0
M  V30 1189 H 117.947 3.12057 -0.0518585 0
M  V30 1190 N 118.248 0.346503 1.53744 0
M  V30 1191 C 119.211 -0.496439 2.23759 0
M  V30 1192 C 120.211 -1.0252 1.2388 0
M  V30 1193 O 121.401 -0.913974 1.48297 0
M  V30 1194 C 118.533 -1.69187 2.95954 0
M  V30 1195 H 119.726 0.115952 2.99676 0
M  V30 1196 H 117.279 0.0978939 1.55993 0
M  V30 1197 H 118.014 -2.34288 2.24231 0
M  V30 1198 H 117.799 -1.31989 3.69217 0
M  V30 1199 H 119.289 -2.28969 3.49232 0
M  V30 1200 N 119.726 -1.57421 0.075193 0
M  V30 1201 C 120.673 -2.12915 -0.890843 0
M  V30 1202 C 121.643 -1.04252 -1.29309 0
M  V30 1203 O 122.828 -1.31933 -1.37834 0
M  V30 1204 C 119.968 -2.69795 -2.15186 0
M  V30 1205 C 119.081 -3.92624 -1.80194 0
M  V30 1206 C 118.216 -4.37736 -3.00933 0
M  V30 1207 C 117.255 -5.53205 -2.61974 0
M  V30 1208 N 116.392 -5.9326 -3.75483 0
M  V30 1209 H 121.232 -2.95156 -0.410735 0
M  V30 1210 H 118.769 -1.45854 -0.191086 0
M  V30 1211 H 120.727 -3.00883 -2.89008 0
M  V30 1212 H 119.357 -1.90313 -2.60731 0
M  V30 1213 H 118.409 -3.67977 -0.964218 0
M  V30 1214 H 119.721 -4.76482 -1.47534 0
M  V30 1215 H 118.875 -4.70503 -3.8303 0
M  V30 1216 H 117.614 -3.52739 -3.36789 0
M  V30 1217 H 116.619 -5.20086 -1.783 0
M  V30 1218 H 117.844 -6.39936 -2.27284 0
M  V30 1219 H 115.79 -5.11212 -4.11094 0
M  V30 1220 H 115.707 -6.71865 -3.46602 0
M  V30 1221 H 116.975 -6.30651 -4.58148 0
M  V30 1222 N 121.204 0.198386 -1.56346 0
M  V30 1223 C 122.434 0.934215 -1.84271 0
M  V30 1224 C 122.842 1.77496 -0.655125 0
M  V30 1225 O 122.185 1.7961 0.385488 0
M  V30 1226 C 122.247 1.88278 -3.06254 0
M  V30 1227 C 121.911 1.22431 -4.40295 0
M  V30 1228 C 122.908 0.602839 -5.16393 0
M  V30 1229 C 120.593 1.22915 -4.87029 0
M  V30 1230 C 122.587 -0.0050083 -6.374 0
M  V30 1231 C 120.274 0.617465 -6.07973 0
M  V30 1232 C 121.272 0.00146341 -6.83 0
M  V30 1233 O 120.96 -0.600642 -8.01653 0
M  V30 1234 H 120.692 0.278245 -0.616081 0
M  V30 1235 H 123.246 0.211626 -2.04307 0
M  V30 1236 H 121.476 2.64498 -2.82095 0
M  V30 1237 H 123.165 2.48612 -3.20853 0
M  V30 1238 H 123.931 0.591265 -4.81382 0
M  V30 1239 H 119.81 1.69801 -4.28589 0
M  V30 1240 H 123.354 -0.48643 -6.95902 0
M  V30 1241 H 119.251 0.62653 -6.42452 0
M  V30 1242 H 120.019 -0.497225 -8.16988 0
M  V30 1243 N 122.682 1.50554 0.465978 0
M  V30 1244 C 123.922 1.63439 1.22747 0
M  V30 1245 C 124.286 0.329822 1.89146 0
M  V30 1246 O 125.487 0.334161 2.66715 0
M  V30 1247 C 123.758 2.78542 2.2394 0
M  V30 1248 S 125.317 3.11591 3.0896 0
M  V30 1249 H 122.135 0.576113 0.416672 0
M  V30 1250 H 124.737 1.88357 0.523641 0
M  V30 1251 H 123.441 3.71805 1.7375 0
M  V30 1252 H 122.972 2.55726 2.98944 0
M  V30 1253 H 124.987 2.55811 4.25176 0
M  V30 1254 N 124.16 -0.719506 1.40217 0
M  V30 1255 C 125.09 -1.8465 1.42922 0
M  V30 1256 C 126.071 -1.67599 0.29062 0
M  V30 1257 O 127.256 -1.87688 0.498677 0
M  V30 1258 C 124.386 -3.22565 1.28722 0
M  V30 1259 C 123.34 -3.54281 2.40144 0
M  V30 1260 C 122.666 -4.91298 2.11023 0
M  V30 1261 C 123.966 -3.55676 3.82481 0
M  V30 1262 H 125.66 -1.82644 2.37237 0
M  V30 1263 H 123.206 -0.877305 1.1419 0
M  V30 1264 H 125.159 -4.01095 1.29232 0
M  V30 1265 H 123.883 -3.25137 0.308811 0
M  V30 1266 H 122.542 -2.78088 2.38877 0
M  V30 1267 H 122.19 -4.90468 1.11582 0
M  V30 1268 H 121.89 -5.13485 2.8567 0
M  V30 1269 H 123.414 -5.72166 2.13209 0
M  V30 1270 H 124.828 -4.24254 3.85592 0
M  V30 1271 H 123.225 -3.89388 4.56614 0
M  V30 1272 H 124.295 -2.55144 4.12346 0
M  V30 1273 N 125.638 -1.25649 -0.95132 0
M  V30 1274 C 126.601 -1.06399 -2.03007 0
M  V30 1275 C 127.601 -0.0156794 -1.60792 0
M  V30 1276 O 128.791 -0.25817 -1.72276 0
M  V30 1277 C 125.923 -0.616184 -3.35285 0
M  V30 1278 H 127.116 -2.02164 -2.21517 0
M  V30 1279 H 124.669 -1.08103 -1.12887 0
M  V30 1280 H 125.404 0.343917 -3.22471 0
M  V30 1281 H 125.189 -1.37301 -3.67275 0
M  V30 1282 H 126.679 -0.503032 -4.14559 0
M  V30 1283 N 127.117 1.15442 -1.07289 0
M  V30 1284 C 128.364 1.86213 -0.795668 0
M  V30 1285 C 128.692 1.82291 0.678238 0
M  V30 1286 O 127.947 1.24057 1.51355 0
M  V30 1287 C 128.246 3.3489 -1.24834 0
M  V30 1288 C 127.912 3.59007 -2.72809 0
M  V30 1289 C 126.574 3.65298 -3.13227 0
M  V30 1290 C 128.926 3.68762 -3.68326 0
M  V30 1291 C 126.254 3.78854 -4.4798 0
M  V30 1292 C 128.606 3.83842 -5.0284 0
M  V30 1293 C 127.27 3.88378 -5.4288 0
M  V30 1294 H 126.54 0.681403 -0.291155 0
M  V30 1295 H 129.187 1.36435 -1.34379 0
M  V30 1296 H 127.492 3.8687 -0.619595 0
M  V30 1297 H 129.189 3.88052 -1.01076 0
M  V30 1298 H 125.779 3.5475 -2.40521 0
M  V30 1299 H 129.963 3.63202 -3.38227 0
M  V30 1300 H 125.219 3.80623 -4.78472 0
M  V30 1301 H 129.393 3.90332 -5.76727 0
M  V30 1302 H 127.02 3.98635 -6.47298 0
M  V30 1303 N 128.595 0.856903 1.32268 0
M  V30 1304 C 129.558 0.308171 2.27119 0
M  V30 1305 C 130.558 -0.533421 1.51695 0
M  V30 1306 O 131.748 -0.344607 1.70757 0
M  V30 1307 C 128.88 -0.563757 3.36206 0
M  V30 1308 H 130.073 1.14535 2.77167 0
M  V30 1309 H 127.626 0.631421 1.42978 0
M  V30 1310 H 128.361 -1.42266 2.91429 0
M  V30 1311 H 128.146 0.0386749 3.92081 0
M  V30 1312 H 129.636 -0.940386 4.06874 0
M  V30 1313 N 130.073 -1.45103 0.615059 0
M  V30 1314 C 131.298 -2.07064 0.117988 0
M  V30 1315 C 131.723 -1.4554 -1.19163 0
M  V30 1316 O 131.081 -0.550855 -1.72729 0
M  V30 1317 C 131.129 -3.606 -0.000288387 0
M  V30 1318 O 130.233 -3.98847 -1.04856 0
M  V30 1319 H 129.574 -0.659467 0.0774581 0
M  V30 1320 H 132.104 -1.86236 0.847186 0
M  V30 1321 H 132.114 -4.07529 -0.196091 0
M  V30 1322 H 130.789 -4.04765 0.955932 0
M  V30 1323 H 129.366 -3.63577 -0.828619 0
M  V30 1324 N 131.551 -0.354651 -1.53558 0
M  V30 1325 C 132.799 0.237972 -2.00694 0
M  V30 1326 C 133.12 1.50173 -1.24391 0
M  V30 1327 O 132.39 1.92673 -0.354135 0
M  V30 1328 H 130.97 0.0909256 -0.741446 0
M  V30 1329 H 133.632 -0.478368 -1.88938 0
M  V30 1330 H 132.728 0.47264 -3.085 0
M  V30 1331 N 133.029 1.57378 -0.0835403 0
M  V30 1332 C 133.959 2.1641 0.87686 0
M  V30 1333 C 134.94 1.09429 1.30228 0
M  V30 1334 O 136.125 1.37516 1.37124 0
M  V30 1335 C 133.255 2.73517 2.14022 0
M  V30 1336 C 132.209 3.85769 1.85381 0
M  V30 1337 C 131.535 4.29529 3.18448 0
M  V30 1338 C 132.835 5.09486 1.14984 0
M  V30 1339 H 134.529 2.96914 0.385059 0
M  V30 1340 H 132.075 1.42823 0.18377 0
M  V30 1341 H 134.028 3.13463 2.81636 0
M  V30 1342 H 132.752 1.90252 2.65465 0
M  V30 1343 H 131.411 3.46345 1.20169 0
M  V30 1344 H 131.059 3.43169 3.67755 0
M  V30 1345 H 130.759 5.05204 3.00071 0
M  V30 1346 H 132.283 4.72099 3.8724 0
M  V30 1347 H 133.697 5.46674 1.72687 0
M  V30 1348 H 132.094 5.90515 1.06826 0
M  V30 1349 H 133.164 4.84724 0.130749 0
M  V30 1350 N 134.507 -0.190092 1.56449 0
M  V30 1351 C 135.47 -1.21925 1.9408 0
M  V30 1352 C 136.47 -1.38176 0.822431 0
M  V30 1353 O 137.66 -1.35903 1.08977 0
M  V30 1354 C 134.792 -2.58773 2.21922 0
M  V30 1355 H 135.985 -0.897464 2.86157 0
M  V30 1356 H 133.538 -0.43181 1.50217 0
M  V30 1357 H 134.273 -2.95998 1.32499 0
M  V30 1358 H 134.058 -2.48348 3.03424 0
M  V30 1359 H 135.548 -3.32978 2.52022 0
M  V30 1360 N 135.985 -1.50799 -0.457987 0
M  V30 1361 C 136.948 -1.7005 -1.53674 0
M  V30 1362 C 137.948 -0.570881 -1.50325 0
M  V30 1363 O 139.138 -0.838126 -1.52712 0
M  V30 1364 C 136.27 -1.73788 -2.93276 0
M  V30 1365 H 137.463 -2.66306 -1.37917 0
M  V30 1366 H 135.016 -1.40477 -0.685271 0
M  V30 1367 H 135.751 -0.792717 -3.14462 0
M  V30 1368 H 135.536 -2.55864 -2.97113 0
M  V30 1369 H 137.026 -1.90591 -3.71571 0
M  V30 1370 N 137.463 0.71206 -1.40597 0
M  V30 1371 C 138.691 1.50111 -1.42388 0
M  V30 1372 C 139.106 1.88784 -0.0245395 0
M  V30 1373 O 138.463 1.55681 0.952351 0
M  V30 1374 C 138.514 2.7742 -2.31776 0
M  V30 1375 O 138.235 2.40382 -3.66262 0
M  V30 1376 C 139.736 3.7129 -2.42196 0
M  V30 1377 H 136.956 0.46314 -0.485533 0
M  V30 1378 H 139.5 0.878068 -1.8469 0
M  V30 1379 H 137.655 3.36001 -1.92827 0
M  V30 1380 H 138.069 3.22324 -4.13772 0
M  V30 1381 H 139.543 4.57448 -3.08943 0
M  V30 1382 H 140.02 4.14641 -1.44809 0
M  V30 1383 H 140.626 3.18619 -2.81712 0
M  V30 1384 N 138.941 1.26152 0.944643 0
M  V30 1385 C 140.187 1.11657 1.69294 0
M  V30 1386 C 140.52 -0.339926 1.91202 0
M  V30 1387 O 139.795 -1.24994 1.49019 0
M  V30 1388 C 140.078 1.88236 3.06984 0
M  V30 1389 C 139.931 3.41772 2.92424 0
M  V30 1390 C 141.25 1.67343 4.07043 0
M  V30 1391 H 138.369 0.407004 0.614424 0
M  V30 1392 H 141.011 1.55106 1.09737 0
M  V30 1393 H 139.161 1.51308 3.57824 0
M  V30 1394 H 140.833 3.88433 2.48832 0
M  V30 1395 H 139.076 3.68974 2.28124 0
M  V30 1396 H 139.747 3.90579 3.90067 0
M  V30 1397 H 142.223 1.99509 3.65151 0
M  V30 1398 H 141.099 2.23346 5.01406 0
M  V30 1399 H 141.36 0.617158 4.37771 0
M  V30 1400 N 140.419 -1.14872 1.07899 0
M  V30 1401 C 141.647 -1.89661 0.82683 0
M  V30 1402 C 142.062 -1.78312 -0.620519 0
M  V30 1403 O 141.419 -1.13888 -1.42604 0
M  V30 1404 C 141.47 -3.39817 1.23316 0
M  V30 1405 O 141.191 -3.50845 2.62372 0
M  V30 1406 C 142.692 -4.31615 1.0111 0
M  V30 1407 H 139.912 -0.60092 0.298557 0
M  V30 1408 H 142.456 -1.4551 1.43691 0
M  V30 1409 H 140.611 -3.8161 0.667286 0
M  V30 1410 H 141.025 -4.44076 2.79101 0
M  V30 1411 H 142.499 -5.35367 1.34486 0
M  V30 1412 H 142.976 -4.39169 -0.0522168 0
M  V30 1413 H 143.582 -3.95572 1.56215 0
M  V30 1414 N 141.898 -0.863906 -1.31812 0
M  V30 1415 C 143.147 -0.46801 -1.96195 0
M  V30 1416 C 143.46 0.983474 -1.69077 0
M  V30 1417 O 144.666 1.48523 -2.27273 0
M  V30 1418 C 143.122 -0.785995 -3.51212 0
M  V30 1419 C 142.73 -2.25383 -3.87178 0
M  V30 1420 C 144.474 -0.458274 -4.22019 0
M  V30 1421 C 142.381 -2.51455 -5.3528 0
M  V30 1422 H 141.311 -0.171283 -0.734287 0
M  V30 1423 H 143.962 -1.05597 -1.50072 0
M  V30 1424 H 142.344 -0.127359 -3.95795 0
M  V30 1425 H 143.518 -2.95502 -3.53575 0
M  V30 1426 H 141.833 -2.54698 -3.2942 0
M  V30 1427 H 144.43 -0.630369 -5.30971 0
M  V30 1428 H 144.773 0.600834 -4.11941 0
M  V30 1429 H 145.306 -1.07319 -3.8305 0
M  V30 1430 H 142.045 -3.56025 -5.50387 0
M  V30 1431 H 141.565 -1.85923 -5.70257 0
M  V30 1432 H 143.244 -2.35874 -6.02472 0
M  V30 1433 N 143.376 1.44774 -0.622745 0
M  V30 1434 C 144.604 2.06487 -0.130722 0
M  V30 1435 C 145.019 1.46476 1.19123 0
M  V30 1436 O 144.376 0.584502 1.72887 0
M  V30 1437 C 144.427 3.615 -0.000807207 0
M  V30 1438 O 144.148 4.19274 -1.27048 0
M  V30 1439 C 145.649 4.40229 0.520898 0
M  V30 1440 H 142.869 0.666704 -0.0758106 0
M  V30 1441 H 145.413 1.85779 -0.854774 0
M  V30 1442 H 143.568 3.81498 0.673643 0
M  V30 1443 H 143.982 5.12622 -1.1099 0
M  V30 1444 H 145.456 5.49144 0.560838 0
M  V30 1445 H 145.933 4.1108 1.54627 0
M  V30 1446 H 146.539 4.25131 -0.120018 0
M  V30 1447 N 144.854 0.36279 1.53368 0
M  V30 1448 C 145.804 -0.501391 2.22419 0
M  V30 1449 C 146.788 -1.0509 1.2184 0
M  V30 1450 O 147.98 -0.981404 1.47301 0
M  V30 1451 C 145.109 -1.64201 3.01484 0
M  V30 1452 C 144.195 -1.10552 4.09438 0
M  V30 1453 N 144.586 -0.291788 5.04958 0
M  V30 1454 C 142.884 -1.3806 4.24094 0
M  V30 1455 C 143.585 0.00162655 5.817 0
M  V30 1456 N 142.561 -0.595244 5.40331 0
M  V30 1457 H 146.363 0.127159 2.93625 0
M  V30 1458 H 143.877 0.170658 1.61501 0
M  V30 1459 H 145.874 -2.27326 3.49469 0
M  V30 1460 H 144.534 -2.27365 2.31809 0
M  V30 1461 H 145.545 0.0687731 5.17854 0
M  V30 1462 H 142.222 -2.01522 3.65644 0
M  V30 1463 H 143.612 0.659278 6.68658 0
M  V30 1464 N 146.332 -1.57332 0.0918853 0
M  V30 1465 C 147.262 -2.16872 -0.865371 0
M  V30 1466 C 148.243 -1.10118 -1.29646 0
M  V30 1467 O 149.428 -1.38242 -1.36392 0
M  V30 1468 C 146.558 -2.74649 -2.12569 0
M  V30 1469 C 145.512 -3.86747 -1.83333 0
M  V30 1470 C 144.838 -4.31212 -3.16166 0
M  V30 1471 C 146.138 -5.10089 -1.1228 0
M  V30 1472 H 147.832 -2.97114 -0.369307 0
M  V30 1473 H 145.378 -1.42918 -0.176194 0
M  V30 1474 H 147.331 -3.14952 -2.7997 0
M  V30 1475 H 146.055 -1.91657 -2.64452 0
M  V30 1476 H 144.714 -3.46978 -1.18331 0
M  V30 1477 H 144.362 -3.45115 -3.6593 0
M  V30 1478 H 144.062 -5.06788 -2.97388 0
M  V30 1479 H 145.586 -4.74146 -3.84731 0
M  V30 1480 H 147 -5.47582 -1.69785 0
M  V30 1481 H 145.397 -5.91073 -1.03693 0
M  V30 1482 H 146.467 -4.84786 -0.105041 0
M  V30 1483 N 147.81 0.181792 -1.56548 0
M  V30 1484 C 148.74 1.22765 -1.98623 0
M  V30 1485 C 149.721 1.46747 -0.860189 0
M  V30 1486 O 150.906 1.58259 -1.12551 0
M  V30 1487 C 148.036 2.56894 -2.33715 0
M  V30 1488 C 146.99 2.475 -3.49182 0
M  V30 1489 C 146.316 3.86023 -3.69986 0
M  V30 1490 C 147.616 1.98866 -4.82959 0
M  V30 1491 H 149.31 0.877942 -2.86239 0
M  V30 1492 H 146.856 0.42088 -1.37712 0
M  V30 1493 H 148.809 3.30253 -2.61746 0
M  V30 1494 H 147.533 2.93632 -1.42997 0
M  V30 1495 H 146.192 1.76596 -3.21262 0
M  V30 1496 H 145.84 4.20136 -2.76576 0
M  V30 1497 H 145.54 3.80609 -4.47672 0
M  V30 1498 H 147.064 4.60984 -4.00407 0
M  V30 1499 H 148.478 2.61992 -5.09934 0
M  V30 1500 H 146.875 2.04424 -5.64208 0
M  V30 1501 H 147.945 0.942465 -4.75653 0
M  V30 1502 N 149.288 1.51039 0.449983 0
M  V30 1503 C 150.235 1.71439 1.54523 0
M  V30 1504 C 151.205 0.555871 1.56522 0
M  V30 1505 O 152.39 0.788871 1.73728 0
M  V30 1506 C 149.53 1.83384 2.92343 0
M  V30 1507 C 148.643 3.10873 2.9997 0
M  V30 1508 C 147.778 3.13488 4.28834 0
M  V30 1509 C 146.817 4.35343 4.30282 0
M  V30 1510 N 145.954 4.35579 5.5065 0
M  V30 1511 H 150.794 2.64934 1.36433 0
M  V30 1512 H 148.331 1.31312 0.662982 0
M  V30 1513 H 150.289 1.88291 3.72293 0
M  V30 1514 H 148.919 0.933086 3.0902 0
M  V30 1515 H 147.971 3.15336 2.12761 0
M  V30 1516 H 149.283 4.00814 2.96901 0
M  V30 1517 H 148.437 3.17241 5.17149 0
M  V30 1518 H 147.176 2.21414 4.34543 0
M  V30 1519 H 146.181 4.3178 3.40362 0
M  V30 1520 H 147.406 5.28668 4.26248 0
M  V30 1521 H 145.352 3.46369 5.57104 0
M  V30 1522 H 145.269 5.19313 5.49409 0
M  V30 1523 H 146.537 4.43507 6.41032 0
M  V30 1524 N 150.766 -0.704594 1.40972 0
M  V30 1525 C 151.729 -1.80035 1.41845 0
M  V30 1526 C 152.729 -1.57774 0.310474 0
M  V30 1527 O 153.919 -1.64613 0.56992 0
M  V30 1528 C 151.051 -3.18284 1.22098 0
M  V30 1529 H 152.244 -1.80658 2.3938 0
M  V30 1530 H 149.797 -0.911329 1.26982 0
M  V30 1531 H 150.532 -3.23306 0.253672 0
M  V30 1532 H 150.317 -3.35843 2.02366 0
M  V30 1533 H 151.807 -3.98289 1.25522 0
M  V30 1534 N 152.244 -1.26651 -0.937939 0
M  V30 1535 C 153.492 -1.12165 -1.68118 0
M  V30 1536 C 153.813 0.334983 -1.92101 0
M  V30 1537 O 153.083 1.23583 -1.52 0
M  V30 1538 H 151.663 -0.412093 -0.623048 0
M  V30 1539 H 154.325 -1.59027 -1.12678 0
M  V30 1540 H 153.421 -1.64289 -2.6536 0
M  V30 1541 N 153.722 1.14298 -1.08507 0
M  V30 1542 C 154.999 1.81544 -0.728088 0
M  V30 1543 C 155.379 1.95838 0.78808 0
M  V30 1544 O 154.727 1.51904 1.70697 0
M  V30 1545 C 154.937 3.17169 -1.45619 0
M  V30 1546 C 156.285 3.9265 -1.61591 0
M  V30 1547 O 157.309 3.26762 -1.41793 0
M  V30 1548 O 156.168 5.10807 -1.94263 0
M  V30 1549 H 153.262 0.78491 -0.260471 0
M  V30 1550 H 155.808 1.21307 -1.18671 0
M  V30 1551 H 154.58 3.01934 -2.489 0
M  V30 1552 H 154.203 3.851 -0.989124 0
M  V30 1553 N 155.201 0.870884 1.31352 0
M  V30 1554 C 156.133 0.28455 2.27427 0
M  V30 1555 C 157.146 -0.552927 1.53123 0
M  V30 1556 O 158.335 -0.374771 1.74521 0
M  V30 1557 C 155.435 -0.615164 3.3327 0
M  V30 1558 C 154.608 0.190079 4.36987 0
M  V30 1559 C 153.667 -0.637917 5.22319 0
M  V30 1560 O 152.693 -0.065626 5.69162 0
M  V30 1561 N 153.895 -1.94973 5.46778 0
M  V30 1562 H 156.66 1.11017 2.7838 0
M  V30 1563 H 154.221 0.732458 1.44384 0
M  V30 1564 H 156.213 -1.1748 3.87273 0
M  V30 1565 H 154.783 -1.34146 2.82354 0
M  V30 1566 H 154.003 0.931165 3.83044 0
M  V30 1567 H 155.291 0.742579 5.03352 0
M  V30 1568 H 154.689 -2.4378 5.10478 0
M  V30 1569 H 153.246 -2.45713 6.03712 0
M  V30 1570 N 156.679 -1.44442 0.630414 0
M  V30 1571 C 157.928 -2.01267 0.132073 0
M  V30 1572 C 158.241 -1.50172 -1.25331 0
M  V30 1573 O 159.447 -1.9912 -1.84562 0
M  V30 1574 C 157.903 -3.59422 0.185362 0
M  V30 1575 C 157.511 -4.19514 1.57201 0
M  V30 1576 C 159.255 -4.23724 -0.256553 0
M  V30 1577 C 157.162 -5.69891 1.58045 0
M  V30 1578 H 156.092 -0.752619 0.0456092 0
M  V30 1579 H 158.743 -1.65666 0.789106 0
M  V30 1580 H 157.125 -3.92318 -0.538759 0
M  V30 1581 H 158.299 -3.98156 2.31966 0
M  V30 1582 H 156.614 -3.67496 1.95795 0
M  V30 1583 H 159.211 -5.34019 -0.269767 0
M  V30 1584 H 159.554 -3.96013 -1.28372 0
M  V30 1585 H 160.087 -3.95629 0.41505 0
M  V30 1586 H 156.826 -6.02336 2.58597 0
M  V30 1587 H 156.346 -5.93373 0.875725 0
M  V30 1588 H 158.025 -6.33515 1.31408 0
M  V30 1589 N 158.157 -0.370918 -1.53173 0
M  V30 1590 C 159.406 0.218249 -2.00516 0
M  V30 1591 C 159.719 1.49429 -1.26215 0
M  V30 1592 O 160.925 2.16239 -1.64174 0
M  V30 1593 C 159.381 0.43948 -3.57207 0
M  V30 1594 C 158.989 -0.822244 -4.4039 0
M  V30 1595 C 160.733 0.986012 -4.1289 0
M  V30 1596 C 158.64 -0.570304 -5.88644 0
M  V30 1597 H 157.57 0.0853333 -0.749156 0
M  V30 1598 H 160.221 -0.490483 -1.76823 0
M  V30 1599 H 158.603 1.20961 -3.77074 0
M  V30 1600 H 159.777 -1.59557 -4.32294 0
M  V30 1601 H 158.092 -1.29238 -3.95836 0
M  V30 1602 H 160.689 1.18991 -5.21292 0
M  V30 1603 H 161.032 1.94972 -3.6782 0
M  V30 1604 H 161.565 0.27592 -3.96842 0
M  V30 1605 H 158.304 -1.50449 -6.38001 0
M  V30 1606 H 157.824 0.164427 -5.99575 0
M  V30 1607 H 159.503 -0.19784 -6.46697 0
M  V30 1608 N 159.635 1.57281 -0.100228 0
M  V30 1609 C 160.875 1.96419 0.56558 0
M  V30 1610 C 161.239 0.981265 1.65031 0
M  V30 1611 O 162.44 1.26133 2.37369 0
M  V30 1612 C 160.711 3.39996 1.10171 0
M  V30 1613 S 162.27 4.01134 1.77867 0
M  V30 1614 H 159.088 0.68667 0.184406 0
M  V30 1615 H 161.69 1.94662 -0.180851 0
M  V30 1616 H 160.394 4.09296 0.300803 0
M  V30 1617 H 159.925 3.45361 1.88385 0
M  V30 1618 H 161.94 3.90358 3.06326 0
M  V30 1619 N 161.113 -0.173488 1.56642 0
M  V30 1620 C 162.046 -1.24353 1.91342 0
M  V30 1621 C 163.024 -1.4289 0.775965 0
M  V30 1622 O 164.208 -1.57932 1.02907 0
M  V30 1623 C 161.335 -2.60683 2.16245 0
M  V30 1624 C 160.381 -2.58894 3.38934 0
M  V30 1625 S 161.214 -2.0819 4.93373 0
M  V30 1626 C 162.37 -3.46302 5.21369 0
M  V30 1627 H 162.603 -0.947345 2.81803 0
M  V30 1628 H 160.136 -0.377958 1.49703 0
M  V30 1629 H 162.094 -3.39149 2.31275 0
M  V30 1630 H 160.755 -2.87502 1.26496 0
M  V30 1631 H 159.948 -3.59188 3.53553 0
M  V30 1632 H 159.55 -1.88522 3.2301 0
M  V30 1633 H 161.842 -4.42287 5.13214 0
M  V30 1634 H 162.785 -3.3656 6.23003 0
M  V30 1635 H 163.193 -3.42214 4.48943 0
M  V30 1636 N 162.591 -1.51276 -0.441967 0
M  V30 1637 C 163.868 -1.54252 -1.20273 0
M  V30 1638 C 164.248 -0.30408 -2.08898 0
M  V30 1639 O 163.596 0.711084 -2.17154 0
M  V30 1640 C 163.806 -2.85406 -2.00859 0
M  V30 1641 C 165.154 -3.37181 -2.58059 0
M  V30 1642 O 166.178 -2.86925 -2.11074 0
M  V30 1643 O 165.037 -4.24858 -3.43741 0
M  V30 1644 H 162.131 -0.619969 -0.547328 0
M  V30 1645 H 164.677 -1.63586 -0.451413 0
M  V30 1646 H 163.449 -3.67003 -1.35736 0
M  V30 1647 H 163.072 -2.79213 -2.83065 0
M  V30 1648 N 164.069 0.697108 -1.41344 0
M  V30 1649 C 165.346 1.45154 -1.31109 0
M  V30 1650 C 165.726 2.11009 0.0620449 0
M  V30 1651 O 165.074 2.01571 1.07618 0
M  V30 1652 C 165.284 2.47223 -2.46337 0
M  V30 1653 C 166.632 3.1252 -2.87431 0
M  V30 1654 O 167.656 2.57547 -2.46065 0
M  V30 1655 O 166.515 4.12083 -3.58957 0
M  V30 1656 H 163.609 0.646365 -0.515889 0
M  V30 1657 H 166.155 0.727716 -1.53305 0
M  V30 1658 H 164.927 1.97204 -3.37974 0
M  V30 1659 H 164.55 3.27116 -2.2601 0
M  V30 1660 N 165.547 1.27147 0.931209 0
M  V30 1661 C 166.793 1.13446 1.68101 0
M  V30 1662 C 167.126 -0.319628 1.91552 0
M  V30 1663 O 166.401 -1.23407 1.50336 0
M  V30 1664 C 166.684 1.91482 3.0497 0
M  V30 1665 C 166.537 3.44855 2.88782 0
M  V30 1666 C 167.856 1.71651 4.05246 0
M  V30 1667 H 164.975 0.413498 0.610072 0
M  V30 1668 H 167.617 1.56261 1.08086 0
M  V30 1669 H 165.767 1.55095 3.56199 0
M  V30 1670 H 167.439 3.9105 2.44698 0
M  V30 1671 H 165.682 3.71373 2.24198 0
M  V30 1672 H 166.353 3.94694 3.85902 0
M  V30 1673 H 168.829 2.0337 3.63015 0
M  V30 1674 H 167.705 2.28651 4.99009 0
M  V30 1675 H 167.966 0.663555 4.37092 0
M  V30 1676 N 167.025 -1.13721 1.09112 0
M  V30 1677 C 168.255 -1.88499 0.845671 0
M  V30 1678 C 168.663 -1.79218 -0.606432 0
M  V30 1679 O 168.006 -1.1544 -1.42896 0
M  V30 1680 C 168.068 -3.38954 1.19793 0
M  V30 1681 C 167.732 -3.72018 2.65428 0
M  V30 1682 C 168.729 -3.7153 3.63677 0
M  V30 1683 C 166.414 -4.01775 3.01467 0
M  V30 1684 C 168.408 -4.00336 4.95994 0
M  V30 1685 C 166.095 -4.30243 4.33975 0
M  V30 1686 C 167.093 -4.29508 5.31048 0
M  V30 1687 O 166.781 -4.5728 6.61173 0
M  V30 1688 H 166.513 -0.603702 0.304171 0
M  V30 1689 H 169.067 -1.44903 1.45576 0
M  V30 1690 H 167.297 -3.83039 0.530871 0
M  V30 1691 H 168.986 -3.95052 0.932146 0
M  V30 1692 H 169.752 -3.4862 3.37179 0
M  V30 1693 H 165.631 -4.01496 2.26544 0
M  V30 1694 H 169.175 -3.99678 5.71755 0
M  V30 1695 H 165.072 -4.52625 4.60219 0
M  V30 1696 H 165.84 -4.74964 6.66597 0
M  V30 1697 N 168.503 -0.877838 -1.30888 0
M  V30 1698 C 169.751 -0.491723 -1.96027 0
M  V30 1699 C 170.072 0.960827 -1.69685 0
M  V30 1700 O 169.342 1.67462 -1.01654 0
M  V30 1701 H 167.922 -0.17885 -0.725273 0
M  V30 1702 H 170.584 -1.11935 -1.59551 0
M  V30 1703 H 169.68 -0.656016 -3.05128 0
M  V30 1704 N 169.982 1.44106 -0.638065 0
M  V30 1705 C 171.23 2.01579 -0.145043 0
M  V30 1706 C 171.551 1.50496 1.24 0
M  V30 1707 O 170.821 0.711374 1.82527 0
M  V30 1708 H 169.401 0.745282 -0.05063 0
M  V30 1709 H 172.063 1.76516 -0.826327 0
M  V30 1710 H 171.159 3.11877 -0.118039 0
M  V30 1711 N 171.46 0.379036 1.52974 0
M  V30 1712 C 172.688 -0.20679 2.05864 0
M  V30 1713 C 173.103 -1.41356 1.25155 0
M  V30 1714 O 172.46 -1.8009 0.295588 0
M  V30 1715 C 172.511 -0.587045 3.56702 0
M  V30 1716 O 172.232 0.571776 4.34353 0
M  V30 1717 C 173.733 -1.22983 4.25899 0
M  V30 1718 H 170.953 -0.0336123 0.670158 0
M  V30 1719 H 173.497 0.541298 1.97206 0
M  V30 1720 H 171.652 -1.28504 3.65466 0
M  V30 1721 H 172.066 0.261544 5.23847 0
M  V30 1722 H 173.54 -1.44635 5.32715 0
M  V30 1723 H 174.017 -2.19416 3.80465 0
M  V30 1724 H 174.623 -0.572892 4.21424 0
M  V30 1725 N 172.938 -1.57226 0.108567 0
M  V30 1726 C 173.886 -2.16002 -0.862885 0
M  V30 1727 C 174.88 -1.10644 -1.28274 0
M  V30 1728 O 176.086 -1.28966 -1.2557 0
M  V30 1729 H 172.461 -0.691148 -0.296342 0
M  V30 1730 H 174.432 -2.96427 -0.342575 0
M  V30 1731 C 173.181 -2.76576 -2.10716 0
M  V30 1732 H 172.504 -3.5734 -1.793 0
M  V30 1733 H 173.944 -3.21253 -2.76717 0
M  V30 1734 C 172.403 -1.73137 -2.89007 0
M  V30 1735 O 172.933 -1.17842 -3.84026 0
M  V30 1736 N 171.139 -1.43317 -2.52801 0
M  V30 1737 H 170.686 -1.88473 -1.75601 0
M  V30 1738 H 170.644 -0.743485 -3.05483 0
M  V30 1739 N 174.416 0.165178 -1.56732 0
M  V30 1740 C 175.832 0.517174 -1.50988 0
M  V30 1741 C 176.032 1.84331 -0.813894 0
M  V30 1742 O 175.088 2.49672 -0.37682 0
M  V30 1743 C 176.401 0.544261 -2.95733 0
M  V30 1744 C 177.949 0.631039 -3.06573 0
M  V30 1745 C 178.424 0.68896 -4.52788 0
M  V30 1746 N 179.915 0.751683 -4.5706 0
M  V30 1747 C 180.65 0.817177 -5.67547 0
M  V30 1748 N 180.146 0.843129 -6.8765 0
M  V30 1749 N 181.939 0.856668 -5.55534 0
M  V30 1750 H 174.09 -0.704318 -2.00382 0
M  V30 1751 H 176.353 -0.254687 -0.913148 0
M  V30 1752 H 176.059 -0.361607 -3.49836 0
M  V30 1753 H 175.933 1.3886 -3.5071 0
M  V30 1754 H 178.32 1.52733 -2.52501 0
M  V30 1755 H 178.401 -0.240095 -2.54671 0
M  V30 1756 H 178.045 -0.2031 -5.07494 0
M  V30 1757 H 177.975 1.57633 -5.02454 0
M  V30 1758 H 180.466 0.739661 -3.70591 0
M  V30 1759 H 180.779 0.894448 -7.67606 0
M  V30 1760 H 179.124 0.811304 -6.90248 0
M  V30 1761 H 182.315 0.833437 -4.60621 0
M  V30 1762 H 182.488 0.904247 -6.4166 0
M  V30 1763 N 175.894 1.51508 0.433938 0
M  V30 1764 C 177.124 1.67914 1.20369 0
M  V30 1765 C 177.532 0.377461 1.85397 0
M  V30 1766 O 176.875 -0.654255 1.71654 0
M  V30 1767 C 176.937 2.74045 2.32679 0
M  V30 1768 C 176.601 4.16543 1.87991 0
M  V30 1769 C 177.598 5.01211 1.38145 0
M  V30 1770 C 175.283 4.6266 1.95579 0
M  V30 1771 C 177.277 6.30056 0.964774 0
M  V30 1772 C 174.964 5.91501 1.53523 0
M  V30 1773 C 175.962 6.75027 1.04055 0
M  V30 1774 O 175.65 8.01459 0.625964 0
M  V30 1775 H 175.382 0.566578 0.368735 0
M  V30 1776 H 177.936 1.98709 0.51999 0
M  V30 1777 H 176.166 2.38572 3.04336 0
M  V30 1778 H 177.855 2.79295 2.94532 0
M  V30 1779 H 178.621 4.66783 1.31675 0
M  V30 1780 H 174.5 3.97767 2.33029 0
M  V30 1781 H 178.044 6.95202 0.57796 0
M  V30 1782 H 173.941 6.25442 1.59665 0
M  V30 1783 H 174.709 8.15043 0.751509 0
M  V30 1784 N 177.372 -0.689602 1.41712 0
M  V30 1785 C 178.619 -1.44966 1.4139 0
M  V30 1786 C 178.947 -1.94484 0.025105 0
M  V30 1787 O 178.202 -1.70307 -0.964048 0
M  V30 1788 C 178.501 -2.67298 2.37247 0
M  V30 1789 C 178.167 -2.36405 3.83958 0
M  V30 1790 C 176.829 -2.27691 4.23923 0
M  V30 1791 C 179.181 -2.11043 4.76561 0
M  V30 1792 C 176.509 -1.91719 5.54492 0
M  V30 1793 C 178.861 -1.76578 6.07456 0
M  V30 1794 C 177.525 -1.66363 6.46436 0
M  V30 1795 H 176.795 -0.53047 0.517381 0
M  V30 1796 H 179.442 -0.787655 1.74552 0
M  V30 1797 H 177.747 -3.38461 1.9736 0
M  V30 1798 H 179.444 -3.25452 2.34269 0
M  V30 1799 H 176.034 -2.44085 3.52308 0
M  V30 1800 H 180.218 -2.16717 4.46483 0
M  V30 1801 H 175.474 -1.82367 5.83568 0
M  V30 1802 H 179.648 -1.55974 6.78708 0
M  V30 1803 H 177.275 -1.38258 7.47522 0
M  V30 1804 N 178.85 -1.27639 -0.924453 0
M  V30 1805 C 180.266 -1.05113 -1.20097 0
M  V30 1806 C 180.466 0.213262 -2.00368 0
M  V30 1807 O 179.522 0.91787 -2.35226 0
M  V30 1808 C 180.835 -2.29244 -1.94596 0
M  V30 1809 C 182.383 -2.34315 -2.07522 0
M  V30 1810 C 182.858 -3.58183 -2.85427 0
M  V30 1811 N 184.349 -3.5876 -2.92994 0
M  V30 1812 C 185.084 -4.51277 -3.53746 0
M  V30 1813 N 184.58 -5.54102 -4.15863 0
M  V30 1814 N 186.373 -4.38894 -3.51181 0
M  V30 1815 H 178.524 -2.08821 -0.388264 0
M  V30 1816 H 180.787 -0.918568 -0.234385 0
M  V30 1817 H 180.493 -3.21301 -1.43034 0
M  V30 1818 H 180.367 -2.34816 -2.95197 0
M  V30 1819 H 182.754 -1.42762 -2.58269 0
M  V30 1820 H 182.835 -2.32744 -1.06131 0
M  V30 1821 H 182.479 -4.50074 -2.35363 0
M  V30 1822 H 182.409 -3.57006 -3.8711 0
M  V30 1823 H 184.9 -2.84398 -2.4885 0
M  V30 1824 H 185.213 -6.20859 -4.60168 0
M  V30 1825 H 183.558 -5.57941 -4.144 0
M  V30 1826 H 186.749 -3.57772 -3.01856 0
M  V30 1827 H 186.922 -5.11186 -3.98237 0
M  V30 1828 N 180.328 1.1314 -1.09713 0
M  V30 1829 C 181.26 2.18343 -0.697056 0
M  V30 1830 C 182.273 1.60669 0.262551 0
M  V30 1831 O 183.462 1.78435 0.0481527 0
M  V30 1832 C 180.562 3.38899 -0.00684728 0
M  V30 1833 C 179.735 4.26078 -0.988741 0
M  V30 1834 C 178.794 5.25155 -0.331394 0
M  V30 1835 O 177.82 5.60701 -0.979926 0
M  V30 1836 N 179.022 5.73271 0.913261 0
M  V30 1837 H 181.787 2.5328 -1.60216 0
M  V30 1838 H 179.348 1.28491 -0.984971 0
M  V30 1839 H 181.34 4.02255 0.444191 0
M  V30 1840 H 179.91 3.02175 0.800551 0
M  V30 1841 H 179.13 3.59453 -1.61826 0
M  V30 1842 H 180.418 4.81178 -1.65364 0
M  V30 1843 H 179.816 5.46544 1.45966 0
M  V30 1844 H 178.373 6.3855 1.30757 0
M  V30 1845 N 181.806 0.884767 1.30421 0
M  V30 1846 C 183.052 0.503851 1.96441 0
M  V30 1847 C 183.385 -0.944518 1.69684 0
M  V30 1848 O 182.66 -1.66737 1.00145 0
M  V30 1849 C 182.943 0.779085 3.51571 0
M  V30 1850 C 182.796 2.27807 3.87846 0
M  V30 1851 C 184.115 0.255452 4.39358 0
M  V30 1852 H 181.234 0.184533 0.713524 0
M  V30 1853 H 183.876 1.10872 1.54297 0
M  V30 1854 H 182.026 0.264274 3.876 0
M  V30 1855 H 183.698 2.86127 3.61841 0
M  V30 1856 H 181.941 2.74479 3.35922 0
M  V30 1857 H 182.612 2.42125 4.96064 0
M  V30 1858 H 185.088 0.696079 4.10236 0
M  V30 1859 H 183.964 0.477361 5.4682 0
M  V30 1860 H 184.225 -0.843293 4.33983 0
M  V30 1861 N 183.284 -1.43765 0.645699 0
M  V30 1862 C 184.247 -2.29163 -0.0409488 0
M  V30 1863 C 185.247 -1.41813 -0.757996 0
M  V30 1864 O 186.437 -1.63527 -0.600382 0
M  V30 1865 C 183.569 -3.23716 -1.06869 0
M  V30 1866 H 184.762 -2.91366 0.710345 0
M  V30 1867 H 182.315 -1.5092 0.406547 0
M  V30 1868 H 183.05 -2.66393 -1.84947 0
M  V30 1869 H 182.835 -3.88105 -0.558277 0
M  V30 1870 H 184.325 -3.87831 -1.54845 0
M  V30 1871 N 184.763 -0.387143 -1.52771 0
M  V30 1872 C 185.988 0.198407 -2.06449 0
M  V30 1873 C 186.413 1.39918 -1.25716 0
M  V30 1874 O 185.771 1.79099 -0.281657 0
M  V30 1875 C 185.819 0.548893 -3.56398 0
M  V30 1876 O 184.923 1.64315 -3.78252 0
M  V30 1877 H 184.264 0.0237731 -0.663574 0
M  V30 1878 H 186.794 -0.553989 -1.96957 0
M  V30 1879 H 186.804 0.813812 -3.99801 0
M  V30 1880 H 185.479 -0.329005 -4.14597 0
M  V30 1881 H 184.056 1.37211 -3.46738 0
M  V30 1882 N 186.241 1.57166 -0.116904 0
M  V30 1883 C 187.151 2.18745 0.847812 0
M  V30 1884 C 188.167 1.163 1.29423 0
M  V30 1885 O 189.343 1.48761 1.35765 0
M  V30 1886 C 186.408 2.77307 2.0809 0
M  V30 1887 C 185.469 3.94781 1.68661 0
M  V30 1888 C 184.702 4.50541 2.86091 0
M  V30 1889 O 184.925 4.05202 4.01456 0
M  V30 1890 O 183.859 5.41256 2.63298 0
M  V30 1891 H 187.685 3.01632 0.353778 0
M  V30 1892 H 185.27 1.49005 0.108599 0
M  V30 1893 H 187.152 3.14647 2.80313 0
M  V30 1894 H 185.827 1.97452 2.56504 0
M  V30 1895 H 184.734 3.62214 0.935518 0
M  V30 1896 H 186.067 4.76065 1.24991 0
M  V30 1897 N 187.719 -0.156864 1.56817 0
M  V30 1898 C 188.966 -0.871125 1.82805 0
M  V30 1899 C 189.294 -1.81611 0.696262 0
M  V30 1900 O 188.549 -1.93141 -0.315459 0
M  V30 1901 C 188.848 -1.68737 3.1506 0
M  V30 1902 C 188.514 -0.890045 4.42028 0
M  V30 1903 C 187.176 -0.670042 4.76512 0
M  V30 1904 C 189.528 -0.331769 5.20143 0
M  V30 1905 C 186.856 0.119104 5.86579 0
M  V30 1906 C 189.208 0.444365 6.31037 0
M  V30 1907 C 187.872 0.675035 6.64078 0
M  V30 1908 H 187.142 -0.318767 0.668931 0
M  V30 1909 H 189.789 -0.135274 1.91022 0
M  V30 1910 H 188.094 -2.49304 3.0225 0
M  V30 1911 H 189.791 -2.24331 3.3238 0
M  V30 1912 H 186.381 -1.07157 4.14988 0
M  V30 1913 H 190.565 -0.489043 4.93885 0
M  V30 1914 H 185.821 0.307417 6.10627 0
M  V30 1915 H 189.995 0.884139 6.90765 0
M  V30 1916 H 187.622 1.28839 7.49203 0
M  V30 1917 N 189.197 -1.51736 -0.425897 0
M  V30 1918 C 190.445 -1.64644 -1.17204 0
M  V30 1919 C 190.766 -0.370486 -1.91448 0
M  V30 1920 O 190.036 0.614088 -1.86026 0
M  V30 1921 H 188.616 -0.606819 -0.435638 0
M  V30 1922 H 191.278 -1.88713 -0.487177 0
M  V30 1923 H 190.374 -2.47958 -1.89534 0
M  V30 1924 N 190.675 0.682077 -1.42076 0
M  V30 1925 C 191.605 1.80796 -1.47767 0
M  V30 1926 C 192.586 1.6677 -0.334954 0
M  V30 1927 O 193.771 1.863 -0.548264 0
M  V30 1928 C 190.901 3.19038 -1.37229 0
M  V30 1929 C 189.855 3.47789 -2.49453 0
M  V30 1930 C 189.181 4.8553 -2.23975 0
M  V30 1931 C 190.481 3.45411 -3.91776 0
M  V30 1932 H 192.175 1.7629 -2.41997 0
M  V30 1933 H 189.721 0.846721 -1.16476 0
M  V30 1934 H 191.674 3.97528 -1.39821 0
M  V30 1935 H 190.398 3.24204 -0.394907 0
M  V30 1936 H 189.057 2.71657 -2.46166 0
M  V30 1937 H 188.705 4.87337 -1.24547 0
M  V30 1938 H 188.405 5.0573 -2.99184 0
M  V30 1939 H 189.929 5.66312 -2.28304 0
M  V30 1940 H 191.343 4.13882 -3.96705 0
M  V30 1941 H 189.74 3.77145 -4.66778 0
M  V30 1942 H 190.81 2.44122 -4.18966 0
M  V30 1943 N 192.153 1.28127 0.917671 0
M  V30 1944 C 193.1 1.11717 2.0196 0
M  V30 1945 C 194.07 0.0153929 1.66093 0
M  V30 1946 O 195.255 0.179596 1.89953 0
M  V30 1947 C 192.395 0.780927 3.36148 0
M  V30 1948 C 191.508 1.96135 3.84909 0
M  V30 1949 C 190.643 1.56609 5.0759 0
M  V30 1950 C 189.682 2.71339 5.48673 0
M  V30 1951 N 188.819 2.32332 6.62545 0
M  V30 1952 H 193.659 2.06003 2.15329 0
M  V30 1953 H 191.196 1.02535 1.05475 0
M  V30 1954 H 193.154 0.56675 4.13333 0
M  V30 1955 H 191.784 -0.124998 3.22558 0
M  V30 1956 H 190.836 2.28777 3.03916 0
M  V30 1957 H 192.148 2.82165 4.1132 0
M  V30 1958 H 191.302 1.31374 5.92305 0
M  V30 1959 H 190.041 0.677014 4.82978 0
M  V30 1960 H 189.046 2.97276 4.62501 0
M  V30 1961 H 190.271 3.60882 5.75274 0
M  V30 1962 H 188.217 1.45889 6.39572 0
M  V30 1963 H 188.134 3.11899 6.88662 0
M  V30 1964 H 189.402 2.10371 7.50576 0
M  V30 1965 N 193.631 -1.12557 1.10312 0
M  V30 1966 C 194.88 -1.83395 0.839588 0
M  V30 1967 C 195.193 -1.84939 -0.636929 0
M  V30 1968 O 196.399 -2.51761 -1.01631 0
M  V30 1969 C 194.855 -3.29303 1.45215 0
M  V30 1970 C 194.463 -3.36122 2.96186 0
M  V30 1971 C 196.207 -4.05121 1.26796 0
M  V30 1972 C 194.114 -4.76357 3.50483 0
M  V30 1973 H 193.044 -0.687133 0.310425 0
M  V30 1974 H 195.695 -1.26746 1.32694 0
M  V30 1975 H 194.077 -3.85812 0.892469 0
M  V30 1976 H 195.251 -2.89559 3.58458 0
M  V30 1977 H 193.566 -2.73776 3.13745 0
M  V30 1978 H 196.163 -5.08668 1.64806 0
M  V30 1979 H 196.506 -4.15773 0.209409 0
M  V30 1980 H 197.039 -3.54967 1.79563 0
M  V30 1981 H 193.778 -4.70899 4.55998 0
M  V30 1982 H 193.298 -5.23377 2.92978 0
M  V30 1983 H 194.977 -5.45294 3.48228 0
M  V30 1984 N 195.109 -0.891671 -1.2995 0
M  V30 1985 C 196.334 -0.527932 -2.00568 0
M  V30 1986 C 196.759 0.877969 -1.66353 0
M  V30 1987 O 196.117 1.58301 -0.883762 0
M  V30 1988 C 196.165 -0.717745 -3.53385 0
M  V30 1989 O 195.269 0.233376 -4.11739 0
M  V30 1990 H 194.61 -0.20722 -0.630837 0
M  V30 1991 H 197.14 -1.20105 -1.65638 0
M  V30 1992 H 197.15 -0.619307 -4.03272 0
M  V30 1993 H 195.825 -1.74276 -3.77625 0
M  V30 1994 H 194.402 0.0880706 -3.72796 0
M  V30 1995 N 196.587 1.43421 -0.653314 0
M  V30 1996 C 197.834 2.01812 -0.166745 0
M  V30 1997 C 198.162 1.51535 1.21931 0
M  V30 1998 O 197.417 0.698975 1.82792 0
M  V30 1999 C 197.716 3.57176 -0.126623 0
M  V30 2000 C 197.382 4.26798 -1.45444 0
M  V30 2001 C 196.044 4.45534 -1.81805 0
M  V30 2002 C 198.396 4.66225 -2.32989 0
M  V30 2003 C 195.724 5.00961 -3.05377 0
M  V30 2004 C 198.076 5.23021 -3.55853 0
M  V30 2005 C 196.74 5.39973 -3.9241 0
M  V30 2006 H 196.01 0.738484 -0.0610162 0
M  V30 2007 H 198.657 1.71896 -0.84404 0
M  V30 2008 H 196.962 3.86634 0.634123 0
M  V30 2009 H 198.659 4.00112 0.266723 0
M  V30 2010 H 195.249 4.12561 -1.16153 0
M  V30 2011 H 199.433 4.51443 -2.06187 0
M  V30 2012 H 194.689 5.12271 -3.3375 0
M  V30 2013 H 198.863 5.52518 -4.23907 0
M  V30 2014 H 196.49 5.82687 -4.88242 0
M  V30 2015 N 198.065 0.39524 1.52563 0
M  V30 2016 C 199.311 -0.185318 2.01952 0
M  V30 2017 C 199.644 -1.45964 1.28095 0
M  V30 2018 O 198.919 -1.90689 0.38315 0
M  V30 2019 C 199.202 -0.447193 3.57312 0
M  V30 2020 C 199.055 0.842828 4.41833 0
M  V30 2021 C 200.374 -1.23529 4.22408 0
M  V30 2022 H 197.493 -0.0658788 0.73405 0
M  V30 2023 H 200.135 0.525975 1.82575 0
M  V30 2024 H 198.285 -1.05312 3.73954 0
M  V30 2025 H 199.957 1.4795 4.36931 0
M  V30 2026 H 198.2 1.45686 4.08605 0
M  V30 2027 H 198.871 0.614165 5.48573 0
M  V30 2028 H 201.347 -0.722445 4.0978 0
M  V30 2029 H 200.223 -1.38727 5.3108 0
M  V30 2030 H 200.484 -2.25213 3.80436 0
M  V30 2031 N 199.544 -1.57102 0.125237 0
M  V30 2032 C 200.821 -1.86953 -0.575142 0
M  V30 2033 C 201.201 -1.02749 -1.84407 0
M  V30 2034 O 200.549 -0.108144 -2.28244 0
M  V30 2035 C 200.759 -3.38198 -0.861583 0
M  V30 2036 C 202.107 -4.06937 -1.21192 0
M  V30 2037 O 203.131 -3.43252 -0.951645 0
M  V30 2038 O 201.99 -5.19364 -1.70068 0
M  V30 2039 H 199.084 -0.774147 -0.290906 0
M  V30 2040 H 201.63 -1.68942 0.160211 0
M  V30 2041 H 200.402 -3.91282 0.0373647 0
M  V30 2042 H 200.025 -3.61661 -1.65188 0
M  V30 2043 N 201.022 0.148545 -1.56898 0
M  V30 2044 C 202.262 0.86765 -1.85071 0
M  V30 2045 C 202.626 1.78417 -0.709317 0
M  V30 2046 O 203.827 2.54261 -0.872049 0
M  V30 2047 C 202.098 1.62306 -3.1842 0
M  V30 2048 S 203.657 2.3878 -3.68143 0
M  V30 2049 H 200.475 0.290174 -0.649092 0
M  V30 2050 H 203.077 0.127755 -1.95082 0
M  V30 2051 H 201.781 0.941192 -3.99462 0
M  V30 2052 H 201.312 2.4039 -3.1141 0
M  V30 2053 H 203.327 3.63942 -3.37285 0
M  V30 2054 N 202.5 1.5196 0.417844 0
M  V30 2055 C 203.725 1.69717 1.1921 0
M  V30 2056 C 204.15 0.402148 1.83751 0
M  V30 2057 O 203.508 -0.639593 1.69643 0
M  V30 2058 C 203.556 2.82794 2.2374 0
M  V30 2059 O 202.66 2.47756 3.29683 0
M  V30 2060 H 202.001 0.565263 0.348387 0
M  V30 2061 H 204.531 1.98621 0.490985 0
M  V30 2062 H 204.541 3.07452 2.68212 0
M  V30 2063 H 203.216 3.76756 1.76146 0
M  V30 2064 H 201.793 2.33739 2.90552 0
M  V30 2065 N 203.978 -0.674533 1.42435 0
M  V30 2066 C 204.925 -1.78807 1.45934 0
M  V30 2067 C 205.895 -1.63157 0.311271 0
M  V30 2068 O 207.08 -1.83707 0.515383 0
M  V30 2069 C 204.22 -3.16839 1.36773 0
M  V30 2070 C 203.333 -3.43774 2.61617 0
M  V30 2071 C 202.468 -4.71536 2.44597 0
M  V30 2072 C 201.507 -4.91505 3.64814 0
M  V30 2073 N 200.644 -6.10508 3.46734 0
M  V30 2074 H 205.484 -1.75151 2.41093 0
M  V30 2075 H 203.021 -0.85504 1.19697 0
M  V30 2076 H 204.979 -3.96606 1.29459 0
M  V30 2077 H 203.609 -3.19619 0.452089 0
M  V30 2078 H 202.661 -2.58259 2.79297 0
M  V30 2079 H 203.973 -3.54423 3.50978 0
M  V30 2080 H 203.127 -5.59393 2.3487 0
M  V30 2081 H 201.866 -4.6317 1.52726 0
M  V30 2082 H 200.871 -4.0209 3.74972 0
M  V30 2083 H 202.096 -5.01716 4.57665 0
M  V30 2084 H 200.042 -6.03315 2.5758 0
M  V30 2085 H 199.959 -6.2202 4.29682 0
M  V30 2086 H 201.227 -7.01044 3.40819 0
M  V30 2087 N 205.456 -1.28612 -0.910864 0
M  V30 2088 C 206.705 -1.15311 -1.65488 0
M  V30 2089 C 207.018 0.296999 -1.93332 0
M  V30 2090 O 208.224 0.551168 -2.65847 0
M  V30 2091 C 206.68 -2.01599 -2.98137 0
M  V30 2092 C 206.288 -3.51367 -2.7793 0
M  V30 2093 C 208.032 -1.96993 -3.76024 0
M  V30 2094 C 205.939 -4.29797 -4.06237 0
M  V30 2095 H 204.869 -0.42796 -0.620779 0
M  V30 2096 H 207.52 -1.53166 -1.01057 0
M  V30 2097 H 205.902 -1.56603 -3.63719 0
M  V30 2098 H 207.076 -4.0434 -2.21011 0
M  V30 2099 H 205.391 -3.57529 -2.13452 0
M  V30 2100 H 207.988 -2.52856 -4.71135 0
M  V30 2101 H 208.331 -0.94733 -4.05378 0
M  V30 2102 H 208.864 -2.39973 -3.17266 0
M  V30 2103 H 205.603 -5.32648 -3.82055 0
M  V30 2104 H 205.123 -3.81596 -4.62757 0
M  V30 2105 H 206.802 -4.39869 -4.74473 0
M  V30 2106 N 206.934 1.1197 -1.10907 0
M  V30 2107 C 207.881 2.17846 -0.762345 0
M  V30 2108 C 208.851 1.63995 0.263599 0
M  V30 2109 O 210.036 1.90273 0.141773 0
M  V30 2110 C 207.176 3.44487 -0.205651 0
M  V30 2111 C 206.289 4.12369 -1.28748 0
M  V30 2112 C 205.424 5.26674 -0.691919 0
M  V30 2113 C 204.463 5.86431 -1.75399 0
M  V30 2114 N 203.6 6.92142 -1.17833 0
M  V30 2115 H 208.44 2.46851 -1.6694 0
M  V30 2116 H 205.977 1.21188 -0.833776 0
M  V30 2117 H 207.935 4.16981 0.135037 0
M  V30 2118 H 206.565 3.15884 0.664613 0
M  V30 2119 H 205.617 3.38003 -1.74522 0
M  V30 2120 H 206.929 4.52844 -2.09125 0
M  V30 2121 H 206.083 6.05953 -0.300963 0
M  V30 2122 H 204.822 4.8749 0.143232 0
M  V30 2123 H 203.827 5.05835 -2.15432 0
M  V30 2124 H 205.052 6.27685 -2.59208 0
M  V30 2125 H 202.998 6.54985 -0.364725 0
M  V30 2126 H 202.915 7.31242 -1.91887 0
M  V30 2127 H 204.183 7.75237 -0.81408 0
M  V30 2128 N 208.412 0.89855 1.29475 0
M  V30 2129 C 209.342 0.39201 2.30186 0
M  V30 2130 C 210.323 -0.532359 1.61555 0
M  V30 2131 O 211.508 -0.443331 1.89072 0
M  V30 2132 C 208.638 -0.382353 3.45189 0
M  V30 2133 C 207.592 0.451483 4.25612 0
M  V30 2134 C 206.918 -0.450307 5.328 0
M  V30 2135 C 208.218 1.70079 4.93832 0
M  V30 2136 H 209.912 1.23362 2.72804 0
M  V30 2137 H 207.458 0.594638 1.31149 0
M  V30 2138 H 209.411 -0.747451 4.14718 0
M  V30 2139 H 208.135 -1.25774 3.01411 0
M  V30 2140 H 206.794 0.798897 3.57789 0
M  V30 2141 H 206.442 -1.32379 4.85268 0
M  V30 2142 H 206.142 0.103902 5.87508 0
M  V30 2143 H 207.666 -0.811623 6.05182 0
M  V30 2144 H 209.08 1.40549 5.55805 0
M  V30 2145 H 207.477 2.19623 5.58467 0
M  V30 2146 H 208.547 2.43744 4.19186 0
M  V30 2147 N 209.89 -1.43072 0.660911 0
M  V30 2148 C 210.82 -2.33497 -0.0122829 0
M  V30 2149 C 211.801 -1.49903 -0.803925 0
M  V30 2150 O 212.986 -1.78546 -0.763864 0
M  V30 2151 C 210.116 -3.33363 -0.973994 0
M  V30 2152 C 209.07 -4.27003 -0.291928 0
M  V30 2153 C 208.396 -5.16967 -1.36562 0
M  V30 2154 C 209.696 -5.15816 0.820462 0
M  V30 2155 H 211.39 -2.90038 0.742873 0
M  V30 2156 H 208.936 -1.39461 0.358688 0
M  V30 2157 H 210.889 -3.95524 -1.45392 0
M  V30 2158 H 209.613 -2.75095 -1.7604 0
M  V30 2159 H 208.272 -3.66217 0.167623 0
M  V30 2160 H 207.92 -4.55034 -2.14366 0
M  V30 2161 H 207.62 -5.80441 -0.914454 0
M  V30 2162 H 209.144 -5.82003 -1.84675 0
M  V30 2163 H 210.558 -5.71742 0.422366 0
M  V30 2164 H 208.955 -5.8805 1.19656 0
M  V30 2165 H 210.025 -4.55045 1.67518 0
M  V30 2166 N 211.368 -0.403325 -1.52352 0
M  V30 2167 C 212.278 0.432009 -2.30588 0
M  V30 2168 C 213.294 1.05884 -1.38075 0
M  V30 2169 O 214.47 1.06161 -1.71148 0
M  V30 2170 C 211.535 1.53669 -3.10784 0
M  V30 2171 C 210.596 0.933525 -4.19027 0
M  V30 2172 C 209.829 1.98557 -4.9539 0
M  V30 2173 O 210.052 3.20283 -4.71991 0
M  V30 2174 O 208.986 1.59504 -5.80381 0
M  V30 2175 H 212.812 -0.205739 -3.03002 0
M  V30 2176 H 210.397 -0.166675 -1.48467 0
M  V30 2177 H 212.279 2.17814 -3.60742 0
M  V30 2178 H 210.954 2.15915 -2.41169 0
M  V30 2179 H 209.861 0.254954 -3.7323 0
M  V30 2180 H 211.194 0.35508 -4.90918 0
M  V30 2181 N 212.846 1.57033 -0.133567 0
M  V30 2182 C 213.809 2.14897 0.796995 0
M  V30 2183 C 214.809 1.0874 1.18458 0
M  V30 2184 O 215.999 1.34446 1.1077 0
M  V30 2185 C 213.131 2.70112 2.07973 0
M  V30 2186 H 214.324 2.98457 0.293873 0
M  V30 2187 H 211.877 1.55871 0.115787 0
M  V30 2188 H 212.612 1.9018 2.62682 0
M  V30 2189 H 212.397 3.47764 1.81115 0
M  V30 2190 H 213.887 3.14738 2.74462 0
M  V30 2191 N 214.325 -0.140222 1.56975 0
M  V30 2192 C 215.288 -1.15689 1.97861 0
M  V30 2193 C 216.288 -1.3549 0.865974 0
M  V30 2194 O 217.478 -1.32367 1.13246 0
M  V30 2195 C 214.61 -2.51582 2.30042 0
M  V30 2196 H 215.803 -0.805971 2.88867 0
M  V30 2197 H 213.356 -0.383801 1.51515 0
M  V30 2198 H 214.091 -2.91632 1.41849 0
M  V30 2199 H 213.876 -2.38569 3.11171 0
M  V30 2200 H 215.366 -3.24792 2.62488 0
M  V30 2201 N 215.803 -1.52179 -0.40978 0
M  V30 2202 C 217.052 -1.65434 -1.15388 0
M  V30 2203 C 217.365 -0.390056 -1.91671 0
M  V30 2204 O 218.571 -0.402399 -2.68501 0
M  V30 2205 C 217.027 -2.92279 -2.10003 0
M  V30 2206 C 216.635 -4.25813 -1.39239 0
M  V30 2207 C 218.379 -3.14897 -2.84675 0
M  V30 2208 C 216.286 -5.43782 -2.32498 0
M  V30 2209 H 215.216 -0.616267 -0.434432 0
M  V30 2210 H 217.867 -1.78666 -0.418401 0
M  V30 2211 H 216.249 -2.72744 -2.871 0
M  V30 2212 H 217.423 -4.55828 -0.675099 0
M  V30 2213 H 215.738 -4.09292 -0.766097 0
M  V30 2214 H 218.335 -4.0021 -3.54593 0
M  V30 2215 H 218.678 -2.29103 -3.47588 0
M  V30 2216 H 219.211 -3.34901 -2.14677 0
M  V30 2217 H 215.95 -6.3192 -1.74233 0
M  V30 2218 H 215.47 -5.18106 -3.02201 0
M  V30 2219 H 217.149 -5.76834 -2.93038 0
M  V30 2220 N 217.281 0.66697 -1.42791 0
M  V30 2221 C 218.509 1.45505 -1.47091 0
M  V30 2222 C 218.924 1.8861 -0.0845873 0
M  V30 2223 O 218.281 1.58632 0.90234 0
M  V30 2224 C 218.332 2.69906 -2.40485 0
M  V30 2225 O 218.053 2.28608 -3.73725 0
M  V30 2226 C 219.554 3.63396 -2.53886 0
M  V30 2227 H 216.774 0.447459 -0.500022 0
M  V30 2228 H 219.318 0.818866 -1.8739 0
M  V30 2229 H 217.473 3.29696 -2.03419 0
M  V30 2230 H 217.887 3.08997 -4.23817 0
M  V30 2231 H 219.361 4.47387 -3.2334 0
M  V30 2232 H 219.838 4.09824 -1.57927 0
M  V30 2233 H 220.444 3.09495 -2.91706 0
M  V30 2234 N 218.759 1.29093 0.90403 0
M  V30 2235 C 220.17 1.15186 1.46932 0
M  V30 2236 C 220.521 -0.254587 1.94541 0
M  V30 2237 O 219.646 -1.14972 1.83332 0
M  V30 2238 C 220.241 2.08492 2.67051 0
M  V30 2239 C 218.8 1.98621 3.19729 0
M  V30 2240 C 217.947 1.9967 1.92425 0
M  V30 2241 H 220.898 1.41641 0.715789 0
M  V30 2242 H 220.919 1.65461 3.42641 0
M  V30 2243 H 220.431 3.10847 2.3237 0
M  V30 2244 H 218.532 0.993389 3.59114 0
M  V30 2245 H 218.645 2.86068 3.8432 0
M  V30 2246 H 217.009 1.44208 2.09943 0
M  V30 2247 H 217.792 3.03721 1.60026 0
M  V30 2248 N 220.237 -1.11381 1.11499 0
M  V30 2249 C 221.147 -2.21019 0.786628 0
M  V30 2250 C 222.163 -1.72597 -0.220507 0
M  V30 2251 O 223.339 -2.01321 -0.0565251 0
M  V30 2252 C 220.404 -3.459 0.235333 0
M  V30 2253 C 219.465 -4.09107 1.30115 0
M  V30 2254 C 218.698 -5.28027 0.776068 0
M  V30 2255 O 218.921 -5.6904 -0.393661 0
M  V30 2256 O 217.855 -5.81835 1.54114 0
M  V30 2257 H 221.681 -2.51521 1.70209 0
M  V30 2258 H 219.266 -1.19928 0.890928 0
M  V30 2259 H 221.148 -4.21346 -0.067715 0
M  V30 2260 H 219.823 -3.17049 -0.652828 0
M  V30 2261 H 218.73 -3.35391 1.65722 0
M  V30 2262 H 220.063 -4.42139 2.16273 0
M  V30 2263 N 221.715 -0.905404 -1.28997 0
M  V30 2264 C 222.943 -0.549846 -1.9946 0
M  V30 2265 C 223.358 0.866834 -1.67724 0
M  V30 2266 O 222.715 1.57298 -0.925404 0
M  V30 2267 C 222.766 -0.739387 -3.53858 0
M  V30 2268 O 222.487 -2.10031 -3.84472 0
M  V30 2269 C 223.988 -0.389541 -4.41585 0
M  V30 2270 H 221.208 -0.210429 -0.637151 0
M  V30 2271 H 223.752 -1.21632 -1.64396 0
M  V30 2272 H 221.907 -0.120023 -3.87214 0
M  V30 2273 H 222.321 -2.13385 -4.79132 0
M  V30 2274 H 223.795 -0.572972 -5.49018 0
M  V30 2275 H 224.272 0.673756 -4.34001 0
M  V30 2276 H 224.878 -0.986089 -4.1371 0
M  V30 2277 N 223.193 1.4272 -0.668489 0
M  V30 2278 C 224.14 2.30796 0.0137489 0
M  V30 2279 C 225.11 1.4561 0.799177 0
M  V30 2280 O 226.295 1.74453 0.772702 0
M  V30 2281 C 223.435 3.31377 0.963507 0
M  V30 2282 C 222.548 4.31655 0.172569 0
M  V30 2283 C 221.683 5.19312 1.1175 0
M  V30 2284 C 220.722 6.11274 0.317886 0
M  V30 2285 N 219.859 6.91504 1.2152 0
M  V30 2286 H 224.699 2.88585 -0.743161 0
M  V30 2287 H 222.236 1.42154 -0.378226 0
M  V30 2288 H 224.194 3.88214 1.52792 0
M  V30 2289 H 222.824 2.75202 1.68712 0
M  V30 2290 H 221.876 3.76988 -0.508374 0
M  V30 2291 H 223.188 4.96779 -0.448527 0
M  V30 2292 H 222.342 5.80851 1.75206 0
M  V30 2293 H 221.081 4.5435 1.77249 0
M  V30 2294 H 220.086 5.48809 -0.329918 0
M  V30 2295 H 221.311 6.78283 -0.332917 0
M  V30 2296 H 219.257 6.29176 1.85671 0
M  V30 2297 H 219.174 7.53209 0.649036 0
M  V30 2298 H 220.442 7.57535 1.83742 0
M  V30 2299 N 224.671 0.411399 1.52136 0
M  V30 2300 C 225.601 -0.404015 2.29978 0
M  V30 2301 C 226.582 -1.04412 1.34284 0
M  V30 2302 O 227.767 -1.0527 1.63192 0
M  V30 2303 C 224.897 -1.5197 3.12286 0
M  V30 2304 C 223.851 -1.00448 4.16046 0
M  V30 2305 C 223.177 -2.21393 4.86712 0
M  V30 2306 C 224.477 -0.0569336 5.22269 0
M  V30 2307 H 226.171 0.245529 2.98392 0
M  V30 2308 H 223.717 0.119525 1.43503 0
M  V30 2309 H 225.67 -2.09715 3.6551 0
M  V30 2310 H 224.394 -2.19716 2.41646 0
M  V30 2311 H 223.053 -0.449421 3.63835 0
M  V30 2312 H 222.701 -2.87699 4.12599 0
M  V30 2313 H 222.401 -1.87571 5.56858 0
M  V30 2314 H 223.925 -2.7974 5.4275 0
M  V30 2315 H 225.339 -0.54325 5.7072 0
M  V30 2316 H 223.736 0.192594 5.99791 0
M  V30 2317 H 224.806 0.887663 4.76706 0
M  V30 2318 N 226.149 -1.5696 0.141893 0
M  V30 2319 C 227.395 -1.9625 -0.511248 0
M  V30 2320 C 227.728 -1.02654 -1.64851 0
M  V30 2321 O 227.003 -0.0679676 -1.94381 0
M  V30 2322 C 227.286 -3.45285 -1.02227 0
M  V30 2323 C 227.139 -4.49658 0.113138 0
M  V30 2324 C 228.458 -3.96698 -1.90574 0
M  V30 2325 H 225.577 -0.713567 -0.184367 0
M  V30 2326 H 228.219 -1.88698 0.222087 0
M  V30 2327 H 226.369 -3.51852 -1.64719 0
M  V30 2328 H 228.041 -4.55174 0.749302 0
M  V30 2329 H 226.284 -4.26857 0.773026 0
M  V30 2330 H 226.955 -5.51258 -0.286053 0
M  V30 2331 H 229.431 -3.92578 -1.37918 0
M  V30 2332 H 228.307 -5.01453 -2.2324 0
M  V30 2333 H 228.568 -3.3875 -2.84079 0
M  V30 2334 N 227.627 0.131896 -1.57047 0
M  V30 2335 C 228.873 0.838268 -1.85323 0
M  V30 2336 C 229.228 1.78098 -0.727937 0
M  V30 2337 O 228.521 1.89645 0.27304 0
M  V30 2338 C 228.715 1.63703 -3.17704 0
M  V30 2339 C 228.544 0.773167 -4.43004 0
M  V30 2340 C 227.314 0.432956 -5.03442 0
M  V30 2341 C 229.512 0.0966216 -5.14209 0
M  V30 2342 N 227.494 -0.442924 -6.123 0
M  V30 2343 C 228.865 -0.638778 -6.16701 0
M  V30 2344 C 230.92 0.018861 -4.97896 0
M  V30 2345 C 229.623 -1.44462 -7.04644 0
M  V30 2346 C 231.649 -0.773762 -5.86316 0
M  V30 2347 C 231.011 -1.4974 -6.883 0
M  V30 2348 H 227.11 0.284086 -0.728573 0
M  V30 2349 H 229.694 0.102731 -1.94429 0
M  V30 2350 H 227.865 2.3437 -3.09718 0
M  V30 2351 H 229.597 2.28774 -3.33833 0
M  V30 2352 H 226.352 0.772237 -4.67262 0
M  V30 2353 H 226.776 -0.872332 -6.71356 0
M  V30 2354 H 231.418 0.56397 -4.19022 0
M  V30 2355 H 229.136 -2.00093 -7.82936 0
M  V30 2356 H 232.722 -0.83612 -5.75761 0
M  V30 2357 H 231.602 -2.10087 -7.55535 0
M  V30 2358 N 229.106 1.52395 0.401703 0
M  V30 2359 C 230.355 1.66044 1.14509 0
M  V30 2360 C 230.668 0.400216 1.91462 0
M  V30 2361 O 231.874 0.416632 2.68284 0
M  V30 2362 C 230.33 2.93388 2.0845 0
M  V30 2363 C 229.938 4.26545 1.36978 0
M  V30 2364 C 231.682 3.16402 2.83001 0
M  V30 2365 C 229.589 5.45007 2.29611 0
M  V30 2366 H 228.519 0.618562 0.431158 0
M  V30 2367 H 231.17 1.78886 0.40892 0
M  V30 2368 H 229.552 2.74263 2.8565 0
M  V30 2369 H 230.726 4.56179 0.650916 0
M  V30 2370 H 229.041 4.09692 0.74438 0
M  V30 2371 H 231.638 4.02085 3.52465 0
M  V30 2372 H 231.981 2.30943 3.46368 0
M  V30 2373 H 232.514 3.36034 2.12898 0
M  V30 2374 H 229.253 6.32835 1.70879 0
M  V30 2375 H 228.773 5.19702 2.9945 0
M  V30 2376 H 230.452 5.7838 2.89974 0
M  V30 2377 N 230.584 -0.659388 1.43143 0
M  V30 2378 C 231.494 -1.80167 1.50256 0
M  V30 2379 C 232.51 -1.69571 0.390106 0
M  V30 2380 O 233.686 -1.90849 0.643319 0
M  V30 2381 C 230.751 -3.16409 1.41725 0
M  V30 2382 C 229.812 -3.38848 2.63591 0
M  V30 2383 C 229.045 -4.68591 2.55458 0
M  V30 2384 O 229.268 -5.47532 1.59891 0
M  V30 2385 O 228.202 -4.92614 3.45854 0
M  V30 2386 H 232.028 -1.77121 2.46702 0
M  V30 2387 H 229.613 -0.817092 1.25076 0
M  V30 2388 H 231.495 -3.9768 1.39387 0
M  V30 2389 H 230.17 -3.20059 0.484118 0
M  V30 2390 H 229.077 -2.57366 2.71502 0
M  V30 2391 H 230.41 -3.4004 3.55856 0
M  V30 2392 N 232.062 -1.29571 -0.897171 0
M  V30 2393 C 233.29 -1.20583 -1.68129 0
M  V30 2394 C 233.705 0.233181 -1.87354 0
M  V30 2395 O 233.062 1.15579 -1.41236 0
M  V30 2396 C 233.113 -1.91772 -3.06441 0
M  V30 2397 O 232.834 -3.30053 -2.88091 0
M  V30 2398 C 234.335 -1.89291 -4.00854 0
M  V30 2399 H 231.555 -0.417826 -0.525036 0
M  V30 2400 H 234.099 -1.70987 -1.12177 0
M  V30 2401 H 232.254 -1.45196 -3.59161 0
M  V30 2402 H 232.668 -3.65942 -3.75748 0
M  V30 2403 H 234.142 -2.43662 -4.95311 0
M  V30 2404 H 234.619 -0.869014 -4.30517 0
M  V30 2405 H 235.225 -2.35622 -3.54066 0
M  V30 2406 N 233.54 1.10788 -1.12088 0
M  V30 2407 C 234.951 1.64181 -0.88891 0
M  V30 2408 C 235.302 1.87508 0.577498 0
M  V30 2409 O 234.427 1.61434 1.44112 0
M  V30 2410 C 235.022 2.98257 -1.60712 0
M  V30 2411 C 233.581 3.4853 -1.42139 0
M  V30 2412 C 232.728 2.23208 -1.6454 0
M  V30 2413 H 235.679 0.943368 -1.27618 0
M  V30 2414 H 235.7 3.65552 -1.05604 0
M  V30 2415 H 235.212 2.81246 -2.67436 0
M  V30 2416 H 233.313 3.70692 -0.376552 0
M  V30 2417 H 233.426 4.26882 -2.17505 0
M  V30 2418 H 231.79 2.31169 -1.06925 0
M  V30 2419 H 232.573 2.08733 -2.72554 0
M  V30 2420 N 235.018 0.912232 1.28515 0
M  V30 2421 C 236.246 0.560416 1.99166 0
M  V30 2422 C 236.661 -0.857927 1.68182 0
M  V30 2423 O 236.018 -1.56805 0.933733 0
M  V30 2424 C 236.069 0.758142 3.53461 0
M  V30 2425 O 235.79 2.12067 3.83352 0
M  V30 2426 C 237.291 0.412954 4.41372 0
M  V30 2427 H 234.511 0.213805 0.636026 0
M  V30 2428 H 237.055 1.22502 1.63749 0
M  V30 2429 H 235.21 0.140556 3.87145 0
M  V30 2430 H 235.624 2.15923 4.77993 0
M  V30 2431 H 237.098 0.60208 5.48707 0
M  V30 2432 H 237.575 -0.65073 4.34353 0
M  V30 2433 H 238.181 1.00802 4.13182 0
M  V30 2434 N 236.496 -1.42363 0.676048 0
M  V30 2435 C 237.444 -2.32596 -0.0131507 0
M  V30 2436 C 238.438 -1.49891 -0.789238 0
M  V30 2437 O 239.644 -1.65955 -0.697061 0
M  V30 2438 H 236.019 -0.751647 -0.0230481 0
M  V30 2439 H 237.99 -2.88421 0.765243 0
M  V30 2440 C 236.739 -3.34479 -0.949702 0
M  V30 2441 H 236.062 -3.98158 -0.361938 0
M  V30 2442 H 237.502 -4.00199 -1.4006 0
M  V30 2443 C 235.961 -2.66838 -2.05667 0
M  V30 2444 O 236.491 -2.50124 -3.14326 0
M  V30 2445 N 234.697 -2.25843 -1.82875 0
M  V30 2446 H 234.244 -2.39637 -0.945085 0
M  V30 2447 H 234.202 -1.80918 -2.5713 0
M  V30 2448 N 237.974 -0.419461 -1.51915 0
M  V30 2449 C 239.385 0.0477853 -1.86639 0
M  V30 2450 C 239.736 1.43531 -1.33766 0
M  V30 2451 O 238.861 2.05401 -0.68113 0
M  V30 2452 C 239.456 0.0934885 -3.38671 0
M  V30 2453 C 238.015 0.505097 -3.72996 0
M  V30 2454 C 237.162 -0.313792 -2.75519 0
M  V30 2455 H 240.113 -0.636088 -1.45395 0
M  V30 2456 H 240.134 0.906667 -3.6954 0
M  V30 2457 H 239.646 -0.916501 -3.77123 0
M  V30 2458 H 237.747 1.52135 -3.40126 0
M  V30 2459 H 237.86 0.242309 -4.78487 0
M  V30 2460 H 236.224 0.225363 -2.53701 0
M  V30 2461 H 237.007 -1.32232 -3.16812 0
M  V30 2462 N 239.452 1.56882 -0.150215 0
M  V30 2463 C 240.68 2.00593 0.506948 0
M  V30 2464 C 241.095 1.03033 1.58208 0
M  V30 2465 O 240.452 0.0278396 1.82479 0
M  V30 2466 C 240.503 3.44209 1.10465 0
M  V30 2467 O 240.224 4.3804 0.0724636 0
M  V30 2468 C 241.725 4.03214 1.84211 0
M  V30 2469 H 238.945 0.65795 0.13169 0
M  V30 2470 H 241.489 2.03018 -0.245743 0
M  V30 2471 H 239.644 3.42625 1.80795 0
M  V30 2472 H 240.058 5.22007 0.510793 0
M  V30 2473 H 241.532 5.0569 2.21318 0
M  V30 2474 H 242.009 3.44107 2.72923 0
M  V30 2475 H 242.615 4.08437 1.18572 0
M  V30 2476 N 240.93 -0.123565 1.57115 0
M  V30 2477 C 241.862 -1.17739 1.96648 0
M  V30 2478 C 242.875 -1.37906 0.865201 0
M  V30 2479 O 244.064 -1.37062 1.14351 0
M  V30 2480 C 241.164 -2.53821 2.24562 0
M  V30 2481 C 240.337 -2.54317 3.55867 0
M  V30 2482 C 239.396 -3.72112 3.72047 0
M  V30 2483 O 238.422 -3.55907 4.44206 0
M  V30 2484 N 239.624 -4.90498 3.10471 0
M  V30 2485 H 242.389 -0.841147 2.87654 0
M  V30 2486 H 239.95 -0.31289 1.58848 0
M  V30 2487 H 241.942 -3.31175 2.32606 0
M  V30 2488 H 240.512 -2.79645 1.39705 0
M  V30 2489 H 239.732 -1.62711 3.59053 0
M  V30 2490 H 241.02 -2.51701 4.42181 0
M  V30 2491 H 240.418 -5.06567 2.51806 0
M  V30 2492 H 238.975 -5.65544 3.24043 0
M  V30 2493 N 242.408 -1.52605 -0.393616 0
M  V30 2494 C 243.355 -1.77055 -1.48054 0
M  V30 2495 C 244.325 -0.61358 -1.54352 0
M  V30 2496 O 245.51 -0.852806 -1.70681 0
M  V30 2497 C 242.65 -1.94108 -2.85335 0
M  V30 2498 C 241.763 -3.21792 -2.88226 0
M  V30 2499 C 240.898 -3.29188 -4.16904 0
M  V30 2500 C 239.937 -4.51013 -4.13828 0
M  V30 2501 N 239.074 -4.55716 -5.34105 0
M  V30 2502 H 243.914 -2.69815 -1.26506 0
M  V30 2503 H 241.451 -1.33683 -0.61379 0
M  V30 2504 H 243.409 -2.01979 -3.65049 0
M  V30 2505 H 242.039 -1.04713 -3.05344 0
M  V30 2506 H 241.091 -3.23015 -2.00911 0
M  V30 2507 H 242.403 -4.11557 -2.8182 0
M  V30 2508 H 241.557 -3.36216 -5.05018 0
M  V30 2509 H 240.296 -2.37389 -4.26026 0
M  V30 2510 H 239.301 -4.44115 -3.24102 0
M  V30 2511 H 240.526 -5.44123 -4.06333 0
M  V30 2512 H 238.472 -3.66807 -5.43865 0
M  V30 2513 H 238.389 -5.39346 -5.29756 0
M  V30 2514 H 239.657 -4.66993 -6.2413 0
M  V30 2515 N 243.887 0.651787 -1.4349 0
M  V30 2516 C 245.133 1.41376 -1.45398 0
M  V30 2517 C 245.466 1.94041 -0.0784823 0
M  V30 2518 O 244.741 1.72379 0.900878 0
M  V30 2519 C 245.024 2.59414 -2.49752 0
M  V30 2520 C 244.877 2.12232 -3.96582 0
M  V30 2521 C 246.196 3.61626 -2.50827 0
M  V30 2522 H 243.315 0.512719 -0.529422 0
M  V30 2523 H 245.957 0.738796 -1.75048 0
M  V30 2524 H 244.107 3.16997 -2.246 0
M  V30 2525 H 245.779 1.59639 -4.32797 0
M  V30 2526 H 244.022 1.43592 -4.09346 0
M  V30 2527 H 244.693 2.9712 -4.65214 0
M  V30 2528 H 247.169 3.13805 -2.7325 0
M  V30 2529 H 246.045 4.41766 -3.25783 0
M  V30 2530 H 246.306 4.14314 -1.5426 0
M  V30 2531 N 245.365 1.30045 0.890287 0
M  V30 2532 C 246.614 1.17929 1.63633 0
M  V30 2533 C 246.927 -0.266204 1.9378 0
M  V30 2534 O 248.133 -0.508804 2.6669 0
M  V30 2535 C 246.589 2.06317 2.94892 0
M  V30 2536 C 246.197 3.55745 2.72305 0
M  V30 2537 C 247.941 2.0295 3.72843 0
M  V30 2538 C 245.848 4.36205 3.99348 0
M  V30 2539 H 244.778 0.437782 0.613892 0
M  V30 2540 H 247.429 1.54754 0.986075 0
M  V30 2541 H 245.811 1.6237 3.61182 0
M  V30 2542 H 246.985 4.07805 2.1455 0
M  V30 2543 H 245.3 3.6088 2.07737 0
M  V30 2544 H 247.897 2.60319 4.67053 0
M  V30 2545 H 248.24 1.0117 4.0382 0
M  V30 2546 H 248.773 2.4499 3.13408 0
M  V30 2547 H 245.512 5.38659 3.73533 0
M  V30 2548 H 245.032 3.8891 4.56628 0
M  V30 2549 H 246.711 4.47362 4.67415 0
M  V30 2550 N 246.843 -1.10192 1.12674 0
M  V30 2551 C 248.12 -1.78717 0.794965 0
M  V30 2552 C 248.5 -1.98628 -0.714853 0
M  V30 2553 O 247.848 -1.58135 -1.64941 0
M  V30 2554 C 248.058 -3.11546 1.5729 0
M  V30 2555 C 249.406 -3.86382 1.76052 0
M  V30 2556 O 250.43 -3.21274 1.53823 0
M  V30 2557 O 249.289 -5.03246 2.13087 0
M  V30 2558 H 246.383 -0.774702 0.289423 0
M  V30 2559 H 248.929 -1.16819 1.23091 0
M  V30 2560 H 247.701 -2.92489 2.59935 0
M  V30 2561 H 247.324 -3.81164 1.13137 0
M  V30 2562 N 248.321 -0.919034 -1.28029 0
M  V30 2563 C 249.57 -0.550802 -1.94034 0
M  V30 2564 C 249.883 0.910877 -1.73096 0
M  V30 2565 O 251.089 1.3875 -2.33368 0
M  V30 2566 C 249.545 -0.934249 -3.47563 0
M  V30 2567 C 249.153 -2.41602 -3.7727 0
M  V30 2568 C 250.897 -0.636854 -4.19696 0
M  V30 2569 C 248.804 -2.73932 -5.24133 0
M  V30 2570 H 247.734 -0.202273 -0.726362 0
M  V30 2571 H 250.385 -1.11867 -1.45458 0
M  V30 2572 H 248.767 -0.295115 -3.94899 0
M  V30 2573 H 249.941 -3.10233 -3.40723 0
M  V30 2574 H 248.256 -2.68441 -3.18321 0
M  V30 2575 H 250.853 -0.855005 -5.2782 0
M  V30 2576 H 251.196 0.425575 -4.14119 0
M  V30 2577 H 251.729 -1.23469 -3.78154 0
M  V30 2578 H 248.468 -3.79049 -5.34792 0
M  V30 2579 H 247.988 -2.09942 -5.61858 0
M  V30 2580 H 249.667 -2.61215 -5.91925 0
M  V30 2581 N 249.799 1.42003 -0.683588 0
M  V30 2582 C 250.709 2.34597 -0.0109075 0
M  V30 2583 C 251.725 1.55576 0.779245 0
M  V30 2584 O 252.901 1.88107 0.719555 0
M  V30 2585 C 249.966 3.34199 0.922588 0
M  V30 2586 C 249.027 4.29115 0.125984 0
M  V30 2587 C 248.26 5.23959 1.01502 0
M  V30 2588 O 248.483 5.23952 2.25456 0
M  V30 2589 O 247.417 6.00053 0.47111 0
M  V30 2590 H 251.243 2.93675 -0.773853 0
M  V30 2591 H 248.828 1.42654 -0.443861 0
M  V30 2592 H 250.71 3.95365 1.45823 0
M  V30 2593 H 249.385 2.77582 1.66523 0
M  V30 2594 H 248.292 3.71335 -0.453969 0
M  V30 2595 H 249.625 4.88798 -0.577736 0
M  V30 2596 N 251.277 0.427512 1.51691 0
M  V30 2597 C 252.525 -0.141948 2.01601 0
M  V30 2598 C 252.846 -1.44067 1.31414 0
M  V30 2599 O 252.116 -1.90763 0.445658 0
M  V30 2600 H 250.696 -0.0554468 0.744939 0
M  V30 2601 H 253.358 0.567968 1.86441 0
M  V30 2602 H 252.454 -0.324913 3.10404 0
M  V30 2603 N 252.755 -1.56801 0.158532 0
M  V30 2604 C 253.995 -1.98383 -0.49229 0
M  V30 2605 C 254.359 -1.04184 -1.61275 0
M  V30 2606 O 255.56 -1.34856 -2.32524 0
M  V30 2607 C 253.831 -3.4385 -0.974766 0
M  V30 2608 S 255.39 -4.07459 -1.62857 0
M  V30 2609 H 252.208 -0.693041 -0.158794 0
M  V30 2610 H 254.81 -1.93856 0.252974 0
M  V30 2611 H 253.514 -4.10131 -0.148688 0
M  V30 2612 H 253.045 -3.52115 -1.75438 0
M  V30 2613 H 255.06 -4.01458 -2.91627 0
M  V30 2614 N 254.233 0.115231 -1.57178 0
M  V30 2615 C 255.196 1.12526 -1.99676 0
M  V30 2616 C 256.196 1.34095 -0.88742 0
M  V30 2617 O 257.386 1.30548 -1.15337 0
M  V30 2618 C 254.518 2.4789 -2.34015 0
M  V30 2619 H 255.711 0.759912 -2.90113 0
M  V30 2620 H 253.264 0.359648 -1.52106 0
M  V30 2621 H 253.999 2.89339 -1.4647 0
M  V30 2622 H 253.784 2.33588 -3.14927 0
M  V30 2623 H 255.274 3.20575 -2.67622 0
M  V30 2624 N 255.711 1.52812 0.385517 0
M  V30 2625 C 256.661 1.74219 1.47078 0
M  V30 2626 C 257.645 0.59632 1.49442 0
M  V30 2627 O 258.837 0.85428 1.5502 0
M  V30 2628 C 255.966 1.9176 2.84751 0
M  V30 2629 C 255.052 3.12289 2.86943 0
M  V30 2630 N 255.443 4.34575 2.58802 0
M  V30 2631 C 253.741 3.12605 3.1811 0
M  V30 2632 C 254.442 5.162 2.68166 0
M  V30 2633 N 253.418 4.51964 3.02043 0
M  V30 2634 H 257.22 2.6639 1.24152 0
M  V30 2635 H 254.734 1.51166 0.593504 0
M  V30 2636 H 256.731 2.05218 3.62893 0
M  V30 2637 H 255.391 1.00805 3.08656 0
M  V30 2638 H 256.402 4.62649 2.32759 0
M  V30 2639 H 253.079 2.31472 3.47458 0
M  V30 2640 H 254.469 6.23689 2.49923 0
M  V30 2641 N 257.189 -0.644168 1.43834 0
M  V30 2642 C 258.438 -1.39985 1.45214 0
M  V30 2643 C 258.751 -1.95421 0.0835494 0
M  V30 2644 O 259.957 -2.71488 -0.0251748 0
M  V30 2645 C 258.413 -2.53384 2.55587 0
M  V30 2646 C 258.021 -2.04517 3.98594 0
M  V30 2647 C 259.765 -3.30685 2.66172 0
M  V30 2648 C 257.672 -3.1518 5.00416 0
M  V30 2649 H 256.602 -0.526005 0.540218 0
M  V30 2650 H 259.253 -0.694367 1.69855 0
M  V30 2651 H 257.635 -3.26446 2.24163 0
M  V30 2652 H 258.809 -1.38405 4.39523 0
M  V30 2653 H 257.124 -1.40068 3.92135 0
M  V30 2654 H 259.721 -4.13158 3.39418 0
M  V30 2655 H 260.064 -3.79312 1.71546 0
M  V30 2656 H 260.597 -2.64708 2.96942 0
M  V30 2657 H 257.336 -2.71511 5.96625 0
M  V30 2658 H 256.856 -3.79974 4.64091 0
M  V30 2659 H 258.535 -3.80166 5.23529 0
M  V30 2660 N 258.668 -1.30515 -0.883378 0
M  V30 2661 C 259.914 -1.19607 -1.63774 0
M  V30 2662 C 260.247 0.248314 -1.92606 0
M  V30 2663 O 259.522 1.17742 -1.54813 0
M  V30 2664 C 259.805 -2.02669 -2.97653 0
M  V30 2665 C 259.658 -3.55335 -2.75784 0
M  V30 2666 C 260.977 -1.86573 -3.98596 0
M  V30 2667 H 258.096 -0.435856 -0.594305 0
M  V30 2668 H 260.738 -1.60165 -1.02212 0
M  V30 2669 H 258.888 -1.68208 -3.50197 0
M  V30 2670 H 260.56 -3.99863 -2.30016 0
M  V30 2671 H 258.803 -3.79438 -2.1026 0
M  V30 2672 H 259.474 -4.08745 -3.70988 0
M  V30 2673 H 261.95 -2.16703 -3.55217 0
M  V30 2674 H 260.826 -2.47014 -4.90179 0
M  V30 2675 H 261.087 -0.825321 -4.34328 0
M  V30 2676 N 260.146 1.09593 -1.13257 0
M  V30 2677 C 261.096 2.14345 -0.777179 0
M  V30 2678 C 262.08 1.59277 0.227966 0
M  V30 2679 O 263.272 1.76971 0.0321413 0
M  V30 2680 C 260.401 3.42439 -0.242991 0
M  V30 2681 C 259.487 4.04419 -1.27694 0
M  V30 2682 N 259.878 4.40979 -2.47732 0
M  V30 2683 C 258.176 4.31596 -1.12432 0
M  V30 2684 C 258.877 4.89784 -3.13826 0
M  V30 2685 N 257.853 4.87133 -2.41252 0
M  V30 2686 H 261.655 2.40415 -1.69049 0
M  V30 2687 H 259.169 1.26803 -1.01463 0
M  V30 2688 H 261.166 4.16889 0.0298496 0
M  V30 2689 H 259.826 3.17824 0.66467 0
M  V30 2690 H 260.837 4.32396 -2.85051 0
M  V30 2691 H 257.514 4.16595 -0.274684 0
M  V30 2692 H 258.904 5.2755 -4.16102 0
M  V30 2693 N 261.624 0.925811 1.2754 0
M  V30 2694 C 262.571 0.422045 2.26908 0
M  V30 2695 C 263.541 -0.510029 1.58076 0
M  V30 2696 O 264.726 -0.429599 1.85901 0
M  V30 2697 C 261.866 -0.320837 3.43605 0
M  V30 2698 C 260.979 0.64513 4.27156 0
M  V30 2699 C 260.114 -0.117405 5.3107 0
M  V30 2700 C 259.153 0.841391 6.0629 0
M  V30 2701 N 258.29 0.111604 7.02011 0
M  V30 2702 H 263.13 1.27441 2.69375 0
M  V30 2703 H 260.667 0.639697 1.32462 0
M  V30 2704 H 262.625 -0.76785 4.10073 0
M  V30 2705 H 261.255 -1.13745 3.02096 0
M  V30 2706 H 260.307 1.21067 3.6062 0
M  V30 2707 H 261.619 1.37797 4.79389 0
M  V30 2708 H 260.773 -0.624422 6.03478 0
M  V30 2709 H 259.512 -0.883219 4.79636 0
M  V30 2710 H 258.517 1.35967 5.32722 0
M  V30 2711 H 259.742 1.60696 6.59813 0
M  V30 2712 H 257.688 -0.635999 6.5291 0
M  V30 2713 H 257.605 0.784044 7.51923 0
M  V30 2714 H 258.873 -0.374823 7.78598 0
M  V30 2715 N 263.102 -1.41638 0.69111 0
M  V30 2716 C 264.052 -2.28 -0.000107832 0
M  V30 2717 C 265.036 -1.41964 -0.757304 0
M  V30 2718 O 266.228 -1.65274 -0.633532 0
M  V30 2719 C 263.357 -3.30209 -0.938983 0
M  V30 2720 C 262.443 -4.23725 -0.17827 0
M  V30 2721 N 262.834 -4.99017 0.825563 0
M  V30 2722 C 261.132 -4.44071 -0.414392 0
M  V30 2723 C 261.833 -5.67431 1.28052 0
M  V30 2724 N 260.809 -5.40197 0.607304 0
M  V30 2725 H 264.611 -2.83644 0.769617 0
M  V30 2726 H 262.125 -1.53797 0.521562 0
M  V30 2727 H 264.122 -3.90898 -1.44929 0
M  V30 2728 H 262.782 -2.76126 -1.70836 0
M  V30 2729 H 263.793 -5.03671 1.20566 0
M  V30 2730 H 260.47 -4.01004 -1.162 0
M  V30 2731 H 261.86 -6.37801 2.11327 0
M  V30 2732 N 264.58 -0.43555 -1.51462 0
M  V30 2733 C 265.828 0.131254 -2.01673 0
M  V30 2734 C 266.149 1.43368 -1.32177 0
M  V30 2735 O 265.419 1.90524 -0.455769 0
M  V30 2736 H 263.999 0.0514954 -0.745223 0
M  V30 2737 H 266.661 -0.577847 -1.86137 0
M  V30 2738 H 265.757 0.308446 -3.10572 0
M  V30 2739 N 266.058 1.56714 -0.166846 0
M  V30 2740 C 267.335 1.88412 0.525373 0
M  V30 2741 C 267.715 1.07602 1.81618 0
M  V30 2742 O 267.063 0.168621 2.27877 0
M  V30 2743 C 267.273 3.40363 0.771613 0
M  V30 2744 C 268.621 4.10007 1.1036 0
M  V30 2745 O 269.645 3.45655 0.860304 0
M  V30 2746 O 268.504 5.2369 1.56239 0
M  V30 2747 H 265.598 0.781587 0.270278 0
M  V30 2748 H 268.144 1.68458 -0.204946 0
M  V30 2749 H 266.916 3.91046 -0.141093 0
M  V30 2750 H 266.539 3.65914 1.55541 0
M  V30 2751 N 267.536 -0.106894 1.57237 0
M  V30 2752 C 268.785 -0.811163 1.8467 0
M  V30 2753 C 269.098 -1.80469 0.754342 0
M  V30 2754 O 270.304 -2.55601 0.915439 0
M  V30 2755 C 268.76 -1.49337 3.27454 0
M  V30 2756 C 268.368 -0.540217 4.44731 0
M  V30 2757 C 270.112 -2.18206 3.64124 0
M  V30 2758 C 268.019 -1.22634 5.78545 0
M  V30 2759 H 266.949 -0.306679 0.688813 0
M  V30 2760 H 269.6 -0.0639887 1.83388 0
M  V30 2761 H 267.982 -2.2876 3.23241 0
M  V30 2762 H 269.156 0.221659 4.60267 0
M  V30 2763 H 267.471 0.042146 4.16379 0
M  V30 2764 H 270.068 -2.70253 4.61376 0
M  V30 2765 H 270.411 -2.96562 2.92158 0
M  V30 2766 H 270.944 -1.45658 3.70174 0
M  V30 2767 H 267.683 -0.483832 6.53712 0
M  V30 2768 H 267.203 -1.95993 5.66874 0
M  V30 2769 H 268.882 -1.75615 6.2271 0
M  V30 2770 N 269.014 -1.53014 -0.377408 0
M  V30 2771 C 270.263 -1.67845 -1.11853 0
M  V30 2772 C 270.576 -0.430625 -1.90801 0
M  V30 2773 O 271.782 -0.459261 -2.67587 0
M  V30 2774 C 270.238 -2.96668 -2.03756 0
M  V30 2775 C 269.846 -4.28671 -1.30175 0
M  V30 2776 C 271.59 -3.20865 -2.77932 0
M  V30 2777 C 269.497 -5.48591 -2.20911 0
M  V30 2778 H 268.427 -0.625343 -0.421263 0
M  V30 2779 H 271.078 -1.79514 -0.380409 0
M  V30 2780 H 269.46 -2.78773 -2.8125 0
M  V30 2781 H 270.634 -4.57157 -0.578259 0
M  V30 2782 H 268.949 -4.10825 -0.679108 0
M  V30 2783 H 271.546 -4.07642 -3.46024 0
M  V30 2784 H 271.889 -2.36424 -3.4265 0
M  V30 2785 H 272.422 -3.39379 -2.07525 0
M  V30 2786 H 269.161 -6.35474 -1.6079 0
M  V30 2787 H 268.681 -5.244 -2.91144 0
M  V30 2788 H 270.36 -5.8292 -2.80736 0
M  V30 2789 N 270.492 0.636531 -1.44174 0
M  V30 2790 C 271.422 1.76003 -1.53444 0
M  V30 2791 C 272.403 1.65619 -0.387841 0
M  V30 2792 O 273.588 1.84461 -0.607257 0
M  V30 2793 C 270.718 3.14511 -1.4731 0
M  V30 2794 C 269.672 3.39677 -2.60391 0
M  V30 2795 C 268.998 4.78159 -2.39308 0
M  V30 2796 C 270.298 3.32772 -4.02567 0
M  V30 2797 H 271.992 1.68501 -2.47483 0
M  V30 2798 H 269.538 0.809237 -1.19111 0
M  V30 2799 H 271.491 3.92878 -1.52397 0
M  V30 2800 H 270.215 3.22783 -0.49785 0
M  V30 2801 H 268.874 2.63688 -2.54684 0
M  V30 2802 H 268.522 4.83128 -1.39988 0
M  V30 2803 H 268.222 4.95956 -3.15122 0
M  V30 2804 H 269.746 5.58762 -2.46205 0
M  V30 2805 H 271.16 4.01051 -4.09672 0
M  V30 2806 H 269.557 3.62104 -4.7854 0
M  V30 2807 H 270.627 2.30669 -4.2652 0
M  V30 2808 N 271.97 1.30982 0.876444 0
M  V30 2809 C 273.216 1.20474 1.63138 0
M  V30 2810 C 273.549 -0.238096 1.92735 0
M  V30 2811 O 272.824 -1.1692 1.55435 0
M  V30 2812 C 273.107 2.04244 2.96574 0
M  V30 2813 C 272.96 3.56793 2.73896 0
M  V30 2814 C 274.279 1.88684 3.97601 0
M  V30 2815 H 271.398 0.439001 0.591985 0
M  V30 2816 H 274.04 1.60704 1.01361 0
M  V30 2817 H 272.19 1.70063 3.493 0
M  V30 2818 H 273.862 4.01077 2.27892 0
M  V30 2819 H 272.105 3.80548 2.08245 0
M  V30 2820 H 272.776 4.10706 3.68815 0
M  V30 2821 H 275.252 2.18584 3.54062 0
M  V30 2822 H 274.128 2.4961 4.88862 0
M  V30 2823 H 274.389 0.848343 4.33884 0
M  V30 2824 N 273.449 -1.08991 1.13837 0
M  V30 2825 C 274.695 -1.81526 0.90422 0
M  V30 2826 C 275.028 -1.85706 -0.568066 0
M  V30 2827 O 274.303 -1.32855 -1.42056 0
M  V30 2828 C 274.586 -3.27447 1.49835 0
M  V30 2829 C 274.439 -3.31512 3.04006 0
M  V30 2830 C 275.758 -4.24256 1.17025 0
M  V30 2831 H 272.877 -0.659029 0.329923 0
M  V30 2832 H 275.519 -1.27644 1.40737 0
M  V30 2833 H 273.669 -3.73462 1.07044 0
M  V30 2834 H 275.341 -2.93867 3.55584 0
M  V30 2835 H 273.584 -2.70963 3.38765 0
M  V30 2836 H 274.255 -4.34329 3.40679 0
M  V30 2837 H 276.731 -3.86549 1.54009 0
M  V30 2838 H 275.607 -5.24684 1.61237 0
M  V30 2839 H 275.868 -4.42019 0.0846274 0
M  V30 2840 N 274.927 -0.932562 -1.27047 0
M  V30 2841 C 276.204 -0.49377 -1.89265 0
M  V30 2842 C 276.584 1.02833 -1.8436 0
M  V30 2843 O 275.932 1.88461 -1.29209 0
M  V30 2844 C 276.142 -1.04536 -3.32976 0
M  V30 2845 C 277.49 -1.10879 -4.09867 0
M  V30 2846 O 278.514 -0.995327 -3.42011 0
M  V30 2847 O 277.373 -1.28417 -5.31198 0
M  V30 2848 H 274.467 -0.159596 -0.811454 0
M  V30 2849 H 277.013 -1.02457 -1.3528 0
M  V30 2850 H 275.785 -2.08913 -3.30864 0
M  V30 2851 H 275.408 -0.496494 -3.94488 0
M  V30 2852 N 276.405 1.4127 -0.698611 0
M  V30 2853 C 277.353 2.32588 -0.023855 0
M  V30 2854 C 278.347 1.51128 0.765292 0
M  V30 2855 O 279.553 1.67043 0.670571 0
M  V30 2856 H 275.928 0.751918 0.0110871 0
M  V30 2857 H 277.899 2.87167 -0.811031 0
M  V30 2858 C 276.648 3.35947 0.896369 0
M  V30 2859 H 275.971 3.98684 0.298548 0
M  V30 2860 H 277.411 4.02376 1.33676 0
M  V30 2861 C 275.87 2.70076 2.01396 0
M  V30 2862 O 276.4 2.55093 3.10307 0
M  V30 2863 N 274.606 2.28724 1.79259 0
M  V30 2864 H 274.153 2.4111 0.906841 0
M  V30 2865 H 274.111 1.84986 2.54219 0
M  V30 2866 N 277.883 0.443576 1.51229 0
M  V30 2867 C 279.111 -0.11929 2.06556 0
M  V30 2868 C 279.526 -1.35921 1.31038 0
M  V30 2869 O 278.883 -1.78675 0.371704 0
M  V30 2870 C 278.934 -0.435228 3.5887 0
M  V30 2871 O 278.655 0.755486 4.31537 0
M  V30 2872 C 280.156 -1.04808 4.30732 0
M  V30 2873 H 277.376 -0.0051584 0.67098 0
M  V30 2874 H 279.92 0.624453 1.94733 0
M  V30 2875 H 278.075 -1.12887 3.70588 0
M  V30 2876 H 278.489 0.483491 5.22267 0
M  V30 2877 H 279.963 -1.2191 5.3837 0
M  V30 2878 H 280.44 -2.03081 3.89429 0
M  V30 2879 H 281.046 -0.393637 4.23474 0
M  V30 2880 N 279.361 -1.56624 0.175154 0
M  V30 2881 C 280.608 -1.96999 -0.468811 0
M  V30 2882 C 280.936 -1.06129 -1.62994 0
M  V30 2883 O 280.191 -0.0961771 -1.95464 0
M  V30 2884 C 280.49 -3.43419 -0.989864 0
M  V30 2885 C 280.156 -4.50866 0.0557687 0
M  V30 2886 C 278.818 -4.79975 0.343134 0
M  V30 2887 C 281.17 -5.15551 0.765308 0
M  V30 2888 C 278.498 -5.71066 1.34536 0
M  V30 2889 C 280.85 -6.07724 1.75654 0
M  V30 2890 C 279.514 -6.35199 2.05132 0
M  V30 2891 H 278.784 -0.720869 -0.17155 0
M  V30 2892 H 281.431 -1.89616 0.267924 0
M  V30 2893 H 279.736 -3.47772 -1.80449 0
M  V30 2894 H 281.433 -3.72002 -1.49719 0
M  V30 2895 H 278.023 -4.28229 -0.178381 0
M  V30 2896 H 282.207 -4.9317 0.556513 0
M  V30 2897 H 277.463 -5.90635 1.57988 0
M  V30 2898 H 281.637 -6.56912 2.31169 0
M  V30 2899 H 279.264 -7.05584 2.8294 0
M  V30 2900 N 280.839 0.0985539 -1.57292 0
M  V30 2901 C 281.772 1.15082 -1.97057 0
M  V30 2902 C 282.75 1.39025 -0.843255 0
M  V30 2903 O 283.934 1.52842 -1.10325 0
M  V30 2904 C 281.061 2.50069 -2.28437 0
M  V30 2905 C 280.107 2.42428 -3.509 0
M  V30 2906 S 280.94 1.84414 -5.02744 0
M  V30 2907 C 282.096 3.21032 -5.37298 0
M  V30 2908 H 282.329 0.811815 -2.86002 0
M  V30 2909 H 279.862 0.306102 -1.51335 0
M  V30 2910 H 281.82 3.27729 -2.47192 0
M  V30 2911 H 280.481 2.8114 -1.40069 0
M  V30 2912 H 279.674 3.41911 -3.70288 0
M  V30 2913 H 279.276 1.72896 -3.31637 0
M  V30 2914 H 281.568 4.17297 -5.33731 0
M  V30 2915 H 282.511 3.06452 -6.38352 0
M  V30 2916 H 282.919 3.20404 -4.64759 0
M  V30 2917 N 282.317 1.53212 0.369288 0
M  V30 2918 C 283.542 1.73423 1.1375 0
M  V30 2919 C 283.967 0.460404 1.82378 0
M  V30 2920 O 283.325 -0.585298 1.71592 0
M  V30 2921 C 283.373 2.89769 2.1463 0
M  V30 2922 O 282.477 2.58119 3.21634 0
M  V30 2923 H 281.818 0.576061 0.330227 0
M  V30 2924 H 284.348 2.00083 0.427547 0
M  V30 2925 H 284.358 3.15829 2.58294 0
M  V30 2926 H 283.033 3.8217 1.64071 0
M  V30 2927 H 281.61 2.42864 2.82969 0
M  V30 2928 N 283.795 -0.628877 1.44509 0
M  V30 2929 C 285.206 -1.21054 1.42137 0
M  V30 2930 C 285.557 -1.95715 0.137881 0
M  V30 2931 O 284.682 -2.02554 -0.761645 0
M  V30 2932 C 285.277 -2.20189 2.57493 0
M  V30 2933 C 283.836 -2.73777 2.58308 0
M  V30 2934 C 282.983 -1.48813 2.33987 0
M  V30 2935 H 285.934 -0.41942 1.53057 0
M  V30 2936 H 285.955 -3.02833 2.30375 0
M  V30 2937 H 285.467 -1.6582 3.50892 0
M  V30 2938 H 283.568 -3.32142 1.68856 0
M  V30 2939 H 283.681 -3.19662 3.56865 0
M  V30 2940 H 282.045 -1.77024 1.83124 0
M  V30 2941 H 282.828 -0.963442 3.29504 0
M  V30 2942 N 285.273 -1.31445 -0.869486 0
M  V30 2943 C 286.503 -1.23942 -1.65294 0
M  V30 2944 C 286.911 0.197561 -1.88166 0
M  V30 2945 O 286.254 1.14019 -1.44033 0
M  V30 2946 C 286.316 -1.91385 -3.04322 0
M  V30 2947 C 285.98 -3.40726 -3.04557 0
M  V30 2948 C 286.977 -4.36464 -2.82481 0
M  V30 2949 C 284.662 -3.82425 -3.25663 0
M  V30 2950 C 286.656 -5.71876 -2.8149 0
M  V30 2951 C 284.343 -5.1795 -3.243 0
M  V30 2952 C 285.341 -6.12486 -3.02241 0
M  V30 2953 O 285.029 -7.45534 -3.00724 0
M  V30 2954 H 284.761 -0.429459 -0.522054 0
M  V30 2955 H 287.315 -1.73873 -1.0935 0
M  V30 2956 H 285.545 -1.36004 -3.61994 0
M  V30 2957 H 287.234 -1.77791 -3.64891 0
M  V30 2958 H 288 -4.05576 -2.65956 0
M  V30 2959 H 283.879 -3.09274 -3.41863 0
M  V30 2960 H 287.423 -6.45638 -2.64191 0
M  V30 2961 H 283.32 -5.48473 -3.40365 0
M  V30 2962 H 284.088 -7.54713 -3.16782 0
M  V30 2963 N 286.751 1.08385 -1.14413 0
M  V30 2964 C 287.998 1.80776 -0.912482 0
M  V30 2965 C 288.326 1.86236 0.560934 0
M  V30 2966 O 287.581 1.33431 1.43159 0
M  V30 2967 C 287.88 3.26273 -1.45879 0
M  V30 2968 C 287.546 3.4093 -2.95089 0
M  V30 2969 C 286.208 3.44638 -3.35824 0
M  V30 2970 C 288.56 3.44591 -3.91033 0
M  V30 2971 C 285.888 3.49597 -4.71167 0
M  V30 2972 C 288.24 3.51086 -5.26233 0
M  V30 2973 C 286.904 3.53067 -5.6648 0
M  V30 2974 H 286.174 0.661507 -0.333901 0
M  V30 2975 H 288.821 1.27613 -1.42784 0
M  V30 2976 H 287.126 3.82146 -0.864376 0
M  V30 2977 H 288.823 3.80839 -1.2555 0
M  V30 2978 H 285.413 3.38736 -2.62594 0
M  V30 2979 H 289.597 3.40957 -3.60641 0
M  V30 2980 H 284.853 3.49424 -5.0171 0
M  V30 2981 H 289.027 3.52864 -6.00383 0
M  V30 2982 H 286.654 3.56662 -6.71339 0
M  V30 2983 N 288.23 0.939286 1.26551 0
M  V30 2984 C 289.162 0.404704 2.25599 0
M  V30 2985 C 290.175 -0.470983 1.55838 0
M  V30 2986 O 291.364 -0.281734 1.76263 0
M  V30 2987 C 288.464 -0.43764 3.36062 0
M  V30 2988 C 287.637 0.421449 4.35365 0
M  V30 2989 C 286.696 -0.36015 5.24966 0
M  V30 2990 O 285.722 0.236167 5.6871 0
M  V30 2991 N 286.924 -1.65715 5.56344 0
M  V30 2992 H 289.689 1.25618 2.72103 0
M  V30 2993 H 287.25 0.807963 1.40298 0
M  V30 2994 H 289.242 -0.967866 3.92956 0
M  V30 2995 H 287.812 -1.18991 2.89067 0
M  V30 2996 H 287.032 1.1329 3.7757 0
M  V30 2997 H 288.32 1.00835 4.98708 0
M  V30 2998 H 287.718 -2.16378 5.22682 0
M  V30 2999 H 286.275 -2.13366 6.15888 0
M  V30 3000 N 289.708 -1.40897 0.706093 0
M  V30 3001 C 291.124 -1.55042 0.37869 0
M  V30 3002 C 291.324 -1.67944 -1.11342 0
M  V30 3003 O 290.38 -1.66372 -1.89938 0
M  V30 3004 C 291.693 -2.78398 1.13643 0
M  V30 3005 C 293.241 -2.92206 1.12181 0
M  V30 3006 C 293.716 -4.18463 1.86152 0
M  V30 3007 N 295.207 -4.25443 1.83173 0
M  V30 3008 C 295.942 -5.2202 2.37239 0
M  V30 3009 N 295.438 -6.24563 2.99821 0
M  V30 3010 N 297.231 -5.14033 2.27435 0
M  V30 3011 H 289.382 -1.30769 1.67372 0
M  V30 3012 H 291.645 -0.631653 0.706907 0
M  V30 3013 H 291.351 -2.7511 2.19106 0
M  V30 3014 H 291.225 -3.70228 0.721853 0
M  V30 3015 H 293.612 -2.95004 0.0754171 0
M  V30 3016 H 293.693 -2.01521 1.57554 0
M  V30 3017 H 293.337 -4.16427 2.90776 0
M  V30 3018 H 293.267 -5.08141 1.38206 0
M  V30 3019 H 295.758 -3.51976 1.37556 0
M  V30 3020 H 296.071 -6.94665 3.38616 0
M  V30 3021 H 294.416 -6.25035 3.03902 0
M  V30 3022 H 297.607 -4.3285 1.78208 0
M  V30 3023 H 297.78 -5.89129 2.69873 0
M  V30 3024 N 291.186 -0.45159 -1.50991 0
M  V30 3025 C 292.597 0.00818571 -1.86698 0
M  V30 3026 C 292.948 1.40661 -1.3678 0
M  V30 3027 O 292.073 2.0391 -0.724546 0
M  V30 3028 C 292.668 0.0216303 -3.38793 0
M  V30 3029 C 291.227 0.425865 -3.73983 0
M  V30 3030 C 290.374 -0.372163 -2.74791 0
M  V30 3031 H 293.325 -0.666785 -1.44013 0
M  V30 3032 H 293.346 0.828078 -3.7138 0
M  V30 3033 H 292.858 -0.996288 -3.75094 0
M  V30 3034 H 290.959 1.44886 -3.43277 0
M  V30 3035 H 291.072 0.140761 -4.78893 0
M  V30 3036 H 289.436 0.171498 -2.54122 0
M  V30 3037 H 290.219 -1.38922 -3.13935 0
M  V30 3038 N 292.664 1.56529 -0.183458 0
M  V30 3039 C 293.594 2.21549 0.737456 0
M  V30 3040 C 294.575 1.17489 1.23005 0
M  V30 3041 O 295.76 1.45959 1.281 0
M  V30 3042 C 292.89 2.86575 1.96194 0
M  V30 3043 C 291.844 3.96778 1.60473 0
M  V30 3044 C 291.17 4.48911 2.90487 0
M  V30 3045 C 292.47 5.15767 0.823497 0
M  V30 3046 H 294.164 2.98761 0.195453 0
M  V30 3047 H 291.71 1.43702 0.0925686 0
M  V30 3048 H 293.663 3.30739 2.61131 0
M  V30 3049 H 292.387 2.06749 2.52828 0
M  V30 3050 H 291.046 3.53286 0.978997 0
M  V30 3051 H 290.694 3.65862 3.45186 0
M  V30 3052 H 290.394 5.23265 2.67335 0
M  V30 3053 H 291.918 4.95771 3.56432 0
M  V30 3054 H 293.332 5.56549 1.37571 0
M  V30 3055 H 291.729 5.96114 0.690551 0
M  V30 3056 H 292.799 4.84574 -0.177782 0
M  V30 3057 N 294.142 -0.090211 1.57342 0
M  V30 3058 C 295.105 -1.09335 2.01441 0
M  V30 3059 C 296.105 -1.32666 0.908641 0
M  V30 3060 O 297.295 -1.28697 1.174 0
M  V30 3061 C 294.427 -2.44136 2.3793 0
M  V30 3062 H 295.62 -0.713662 2.91285 0
M  V30 3063 H 293.173 -0.335404 1.52659 0
M  V30 3064 H 293.908 -2.86972 1.51055 0
M  V30 3065 H 293.693 -2.28548 3.18603 0
M  V30 3066 H 295.183 -3.16277 2.72688 0
M  V30 3067 N 295.62 -1.53406 -0.361157 0
M  V30 3068 C 296.55 -1.83136 -1.44857 0
M  V30 3069 C 297.531 -0.685174 -1.5569 0
M  V30 3070 O 298.716 -0.93544 -1.70186 0
M  V30 3071 C 295.846 -2.02522 -2.82138 0
M  V30 3072 C 294.8 -3.18302 -2.86126 0
M  V30 3073 C 294.126 -3.22989 -4.26125 0
M  V30 3074 C 295.426 -4.56796 -2.53248 0
M  V30 3075 H 297.12 -2.74201 -1.20226 0
M  V30 3076 H 294.666 -1.31938 -0.576922 0
M  V30 3077 H 296.619 -2.21904 -3.58241 0
M  V30 3078 H 295.343 -1.08172 -3.08166 0
M  V30 3079 H 294.002 -2.98747 -2.12475 0
M  V30 3080 H 293.65 -2.26267 -4.49235 0
M  V30 3081 H 293.35 -4.00781 -4.29708 0
M  V30 3082 H 294.874 -3.44559 -5.04094 0
M  V30 3083 H 296.288 -4.7631 -3.19064 0
M  V30 3084 H 294.685 -5.36862 -2.68141 0
M  V30 3085 H 295.755 -4.61606 -1.48484 0
M  V30 3086 N 297.098 0.621204 -1.44841 0
M  V30 3087 C 298.346 1.37783 -1.47852 0
M  V30 3088 C 298.667 1.94653 -0.116224 0
M  V30 3089 O 297.937 1.76367 0.852737 0
M  V30 3090 H 296.517 0.511453 -0.544449 0
M  V30 3091 H 299.179 0.730446 -1.80694 0
M  V30 3092 H 298.275 2.20414 -2.20961 0
M  V30 3093 N 298.576 1.31904 0.862503 0
M  V30 3094 C 299.539 1.20131 1.95195 0
M  V30 3095 C 300.539 0.126409 1.60302 0
M  V30 3096 O 301.729 0.376234 1.70089 0
M  V30 3097 C 298.861 0.845691 3.30244 0
M  V30 3098 H 300.054 2.16943 2.07064 0
M  V30 3099 H 297.607 1.15622 1.05172 0
M  V30 3100 H 298.342 -0.120957 3.24074 0
M  V30 3101 H 298.127 1.62276 3.56944 0
M  V30 3102 H 299.617 0.787418 4.10109 0
M  V30 3103 N 300.054 -1.07777 1.14986 0
M  V30 3104 C 301.331 -1.7699 0.832695 0
M  V30 3105 C 301.711 -2.001 -0.672561 0
M  V30 3106 O 301.059 -1.61598 -1.6155 0
M  V30 3107 C 301.269 -3.08139 1.63863 0
M  V30 3108 C 302.617 -3.8256 1.84208 0
M  V30 3109 O 303.641 -3.17939 1.60603 0
M  V30 3110 O 302.5 -4.98612 2.23714 0
M  V30 3111 H 299.594 -0.768389 0.305791 0
M  V30 3112 H 302.14 -1.14182 1.25541 0
M  V30 3113 H 300.912 -2.86909 2.6608 0
M  V30 3114 H 300.535 -3.78678 1.21197 0
M  V30 3115 N 301.532 -0.945985 -1.26051 0
M  V30 3116 C 302.781 -0.591836 -1.92822 0
M  V30 3117 C 303.094 0.873956 -1.7499 0
M  V30 3118 O 304.3 1.33769 -2.36259 0
M  V30 3119 C 302.756 -1.00776 -3.45503 0
M  V30 3120 C 302.364 -2.4955 -3.7206 0
M  V30 3121 C 304.108 -0.725735 -4.1825 0
M  V30 3122 C 302.015 -2.84988 -5.18205 0
M  V30 3123 H 300.945 -0.217635 -0.721908 0
M  V30 3124 H 303.596 -1.14927 -1.43052 0
M  V30 3125 H 301.978 -0.378812 -3.94184 0
M  V30 3126 H 303.152 -3.1739 -3.34066 0
M  V30 3127 H 301.467 -2.75133 -3.12555 0
M  V30 3128 H 304.064 -0.966771 -5.25887 0
M  V30 3129 H 304.407 0.337639 -4.14929 0
M  V30 3130 H 304.94 -1.31463 -3.7545 0
M  V30 3131 H 301.679 -3.90307 -5.26631 0
M  V30 3132 H 301.199 -2.21813 -5.57278 0
M  V30 3133 H 302.878 -2.73712 -5.86252 0
M  V30 3134 N 303.011 1.40521 -0.713556 0
M  V30 3135 C 304.236 2.05759 -0.26035 0
M  V30 3136 C 304.661 1.53403 1.08854 0
M  V30 3137 O 304.019 0.668535 1.68524 0
M  V30 3138 C 304.067 3.59745 -0.248122 0
M  V30 3139 O 303.171 4.05123 0.77131 0
M  V30 3140 H 302.512 0.652564 -0.122703 0
M  V30 3141 H 305.042 1.79958 -0.973467 0
M  V30 3142 H 305.052 4.07911 -0.0851129 0
M  V30 3143 H 303.727 3.97218 -1.2325 0
M  V30 3144 H 302.304 3.68422 0.57619 0
M  V30 3145 N 304.489 0.459591 1.5075 0
M  V30 3146 C 305.422 -0.386257 2.24907 0
M  V30 3147 C 306.4 -1.006 1.27744 0
M  V30 3148 O 307.584 -1.04416 1.56938 0
M  V30 3149 C 304.711 -1.54021 3.01654 0
M  V30 3150 C 303.757 -1.03898 4.13651 0
M  V30 3151 S 304.59 0.0370501 5.35487 0
M  V30 3152 C 305.746 -1.12105 6.15779 0
M  V30 3153 H 305.979 0.243272 2.96303 0
M  V30 3154 H 303.512 0.244339 1.52454 0
M  V30 3155 H 305.47 -2.20163 3.46466 0
M  V30 3156 H 304.131 -2.14121 2.29806 0
M  V30 3157 H 303.324 -1.90254 4.66711 0
M  V30 3158 H 302.926 -0.45545 3.71216 0
M  V30 3159 H 305.218 -2.03501 6.46215 0
M  V30 3160 H 306.161 -0.62995 7.05292 0
M  V30 3161 H 306.569 -1.36967 5.47631 0
M  V30 3162 N 305.967 -1.56429 0.191757 0
M  V30 3163 C 307.197 -2.01574 -0.452928 0
M  V30 3164 C 307.605 -1.07107 -1.55964 0
M  V30 3165 O 306.948 -0.067534 -1.83576 0
M  V30 3166 C 307.01 -3.43121 -1.07278 0
M  V30 3167 C 306.674 -4.56879 -0.105214 0
M  V30 3168 C 307.671 -5.15379 0.684149 0
M  V30 3169 C 305.356 -5.023 0.00489824 0
M  V30 3170 C 307.35 -6.17746 1.57062 0
M  V30 3171 C 305.037 -6.04511 0.894935 0
M  V30 3172 C 306.035 -6.62108 1.67637 0
M  V30 3173 O 305.723 -7.62335 2.55149 0
M  V30 3174 H 305.455 -0.665554 -0.118379 0
M  V30 3175 H 308.009 -2.03245 0.296737 0
M  V30 3176 H 306.239 -3.38425 -1.87097 0
M  V30 3177 H 307.928 -3.72093 -1.62177 0
M  V30 3178 H 308.694 -4.81157 0.609365 0
M  V30 3179 H 304.573 -4.57168 -0.593156 0
M  V30 3180 H 308.117 -6.6263 2.181 0
M  V30 3181 H 304.014 -6.38157 0.970847 0
M  V30 3182 H 304.782 -7.79741 2.48892 0
M  V30 3183 N 307.445 0.0818655 -1.57387 0
M  V30 3184 C 308.67 0.799946 -1.91352 0
M  V30 3185 C 309.095 1.70833 -0.787258 0
M  V30 3186 O 308.453 1.79419 0.26048 0
M  V30 3187 C 308.501 1.57812 -3.24234 0
M  V30 3188 O 307.605 2.68806 -3.12757 0
M  V30 3189 H 306.946 0.21891 -0.626877 0
M  V30 3190 H 309.476 0.0531256 -2.04531 0
M  V30 3191 H 309.486 1.95952 -3.57864 0
M  V30 3192 H 308.161 0.911548 -4.05788 0
M  V30 3193 H 306.738 2.33597 -2.90666 0
M  V30 3194 N 308.923 1.53595 0.353017 0
M  V30 3195 C 309.886 1.80232 1.41594 0
M  V30 3196 C 310.886 0.673081 1.46035 0
M  V30 3197 O 312.076 0.941335 1.46576 0
M  V30 3198 C 309.208 1.93578 2.80607 0
M  V30 3199 H 310.401 2.75174 1.19244 0
M  V30 3200 H 307.954 1.44864 0.586872 0
M  V30 3201 H 308.689 1.00746 3.08254 0
M  V30 3202 H 308.474 2.75724 2.78781 0
M  V30 3203 H 309.964 2.15735 3.57558 0
M  V30 3204 N 310.401 -0.613514 1.45168 0
M  V30 3205 C 311.629 -1.39946 1.5239 0
M  V30 3206 C 312.044 -1.88167 0.154531 0
M  V30 3207 O 311.401 -1.61872 -0.842843 0
M  V30 3208 C 311.452 -2.60795 2.50337 0
M  V30 3209 O 311.173 -2.1458 3.81952 0
M  V30 3210 C 312.674 -3.53723 2.67198 0
M  V30 3211 H 309.894 -0.428593 0.516284 0
M  V30 3212 H 312.438 -0.748753 1.903 0
M  V30 3213 H 310.593 -3.21919 2.15515 0
M  V30 3214 H 311.007 -2.93055 4.34993 0
M  V30 3215 H 312.481 -4.35079 3.39721 0
M  V30 3216 H 312.958 -4.0368 1.73029 0
M  V30 3217 H 313.564 -2.98456 3.02992 0
M  V30 3218 N 311.879 -1.3236 -0.855495 0
M  V30 3219 C 312.826 -1.21225 -1.964 0
M  V30 3220 C 313.796 -0.0946204 -1.6583 0
M  V30 3221 O 314.981 -0.27002 -1.8888 0
M  V30 3222 C 312.121 -0.940419 -3.32039 0
M  V30 3223 C 311.234 -2.14276 -3.75113 0
M  V30 3224 C 310.369 -1.80648 -4.9954 0
M  V30 3225 C 309.408 -2.97208 -5.35102 0
M  V30 3226 N 308.545 -2.63678 -6.50706 0
M  V30 3227 H 313.385 -2.16042 -2.05255 0
M  V30 3228 H 310.922 -1.07451 -1.00463 0
M  V30 3229 H 312.88 -0.763311 -4.10158 0
M  V30 3230 H 311.51 -0.0290413 -3.22787 0
M  V30 3231 H 310.562 -2.43017 -2.92655 0
M  V30 3232 H 311.874 -3.01468 -3.97389 0
M  V30 3233 H 311.028 -1.59484 -5.85363 0
M  V30 3234 H 309.767 -0.906678 -4.79198 0
M  V30 3235 H 308.772 -3.19004 -4.47791 0
M  V30 3236 H 309.997 -3.87918 -5.57401 0
M  V30 3237 H 307.943 -1.76238 -6.31883 0
M  V30 3238 H 307.86 -3.444 -6.72997 0
M  V30 3239 H 309.128 -2.45942 -7.39684 0
M  V30 3240 N 313.357 1.07166 -1.15556 0
M  V30 3241 C 314.587 1.83248 -0.954133 0
M  V30 3242 C 314.995 1.82449 0.500911 0
M  V30 3243 O 314.338 1.23575 1.35923 0
M  V30 3244 C 314.4 3.31393 -1.39351 0
M  V30 3245 C 314.064 3.5591 -2.86666 0
M  V30 3246 C 315.061 3.49695 -3.8472 0
M  V30 3247 C 312.746 3.83515 -3.24379 0
M  V30 3248 C 314.74 3.70737 -5.18491 0
M  V30 3249 C 312.427 4.04209 -4.58321 0
M  V30 3250 C 313.425 3.97815 -5.55186 0
M  V30 3251 O 313.113 4.17954 -6.86709 0
M  V30 3252 H 312.845 0.584941 -0.338851 0
M  V30 3253 H 315.399 1.36169 -1.53777 0
M  V30 3254 H 313.629 3.79292 -0.75329 0
M  V30 3255 H 315.318 3.88945 -1.16089 0
M  V30 3256 H 316.084 3.28368 -3.56931 0
M  V30 3257 H 311.963 3.87605 -2.49567 0
M  V30 3258 H 315.507 3.65663 -5.94085 0
M  V30 3259 H 311.404 4.25023 -4.85825 0
M  V30 3260 H 312.172 4.35291 -6.93155 0
M  V30 3261 N 314.835 0.952656 1.25548 0
M  V30 3262 C 315.768 0.415525 2.24385 0
M  V30 3263 C 316.746 -0.502046 1.54655 0
M  V30 3264 O 317.93 -0.436875 1.83368 0
M  V30 3265 C 315.057 -0.401734 3.36309 0
M  V30 3266 C 314.103 0.455949 4.24056 0
M  V30 3267 S 314.936 1.88698 5.01152 0
M  V30 3268 C 316.092 1.07809 6.16545 0
M  V30 3269 H 316.325 1.25315 2.69599 0
M  V30 3270 H 313.858 0.756587 1.34592 0
M  V30 3271 H 315.816 -0.867329 4.01233 0
M  V30 3272 H 314.477 -1.21416 2.89684 0
M  V30 3273 H 313.67 -0.170776 5.03711 0
M  V30 3274 H 313.272 0.856675 3.64056 0
M  V30 3275 H 315.564 0.325816 6.76716 0
M  V30 3276 H 316.507 1.84849 6.83547 0
M  V30 3277 H 316.915 0.60909 5.61204 0
M  V30 3278 N 316.313 -1.40141 0.720998 0
M  V30 3279 C 317.261 -2.3252 0.0608547 0
M  V30 3280 C 318.255 -1.52326 -0.741152 0
M  V30 3281 O 319.461 -1.68089 -0.643911 0
M  V30 3282 H 315.836 -0.751999 0.000876664 0
M  V30 3283 H 317.807 -2.8584 0.856614 0
M  V30 3284 C 316.556 -3.37331 -0.842809 0
M  V30 3285 H 315.879 -3.99108 -0.235084 0
M  V30 3286 H 317.319 -4.04452 -1.27257 0
M  V30 3287 C 315.778 -2.73246 -1.97074 0
M  V30 3288 O 316.308 -2.59998 -3.06209 0
M  V30 3289 N 314.514 -2.31547 -1.75597 0
M  V30 3290 H 314.061 -2.42522 -0.868368 0
M  V30 3291 H 314.019 -1.89007 -2.51244 0
M  V30 3292 N 317.792 -0.46758 -1.50504 0
M  V30 3293 C 319.04 0.0884469 -2.01906 0
M  V30 3294 C 319.361 1.40532 -1.35188 0
M  V30 3295 O 318.631 1.89515 -0.496079 0
M  V30 3296 H 317.211 0.0356765 -0.746148 0
M  V30 3297 H 319.873 -0.6172 -1.84869 0
M  V30 3298 H 318.969 0.2425 -3.11156 0
M  V30 3299 N 319.27 1.56325 -0.20005 0
M  V30 3300 C 320.22 2.15939 0.731743 0
M  V30 3301 C 321.204 1.10154 1.17281 0
M  V30 3302 O 322.396 1.36203 1.13038 0
M  V30 3303 C 319.525 2.82614 1.94895 0
M  V30 3304 C 318.611 3.95596 1.52855 0
M  V30 3305 N 319.002 4.99118 0.819418 0
M  V30 3306 C 317.3 4.07288 1.81748 0
M  V30 3307 C 318.001 5.78513 0.608053 0
M  V30 3308 N 316.977 5.31117 1.15828 0
M  V30 3309 H 320.779 2.9334 0.181285 0
M  V30 3310 H 318.293 1.624 -0.000452172 0
M  V30 3311 H 320.29 3.23718 2.62702 0
M  V30 3312 H 318.95 2.06702 2.50408 0
M  V30 3313 H 319.961 5.15723 0.47436 0
M  V30 3314 H 316.638 3.42509 2.38734 0
M  V30 3315 H 318.028 6.71885 0.0451619 0
M  V30 3316 N 320.748 -0.0735177 1.57428 0
M  V30 3317 C 321.973 -0.789787 1.91774 0
M  V30 3318 C 322.398 -1.70413 0.796306 0
M  V30 3319 O 321.756 -1.79555 -0.250961 0
M  V30 3320 C 321.804 -1.5609 3.25067 0
M  V30 3321 O 320.908 -2.67144 3.14178 0
M  V30 3322 H 320.249 -0.215582 0.628029 0
M  V30 3323 H 322.779 -0.0422781 2.04556 0
M  V30 3324 H 322.789 -1.94052 3.58898 0
M  V30 3325 H 321.464 -0.890015 4.06265 0
M  V30 3326 H 320.041 -2.32052 2.91901 0
M  V30 3327 N 322.226 -1.5378 -0.344866 0
M  V30 3328 C 323.503 -1.61589 -1.10219 0
M  V30 3329 C 323.883 -0.436316 -2.06542 0
M  V30 3330 O 323.231 0.571543 -2.21237 0
M  V30 3331 C 323.441 -2.97602 -1.82301 0
M  V30 3332 C 324.789 -3.5291 -2.36093 0
M  V30 3333 O 325.813 -2.99768 -1.924 0
M  V30 3334 O 324.672 -4.45859 -3.16026 0
M  V30 3335 H 321.766 -0.653522 -0.506792 0
M  V30 3336 H 324.312 -1.66126 -0.346465 0
M  V30 3337 H 323.084 -3.74893 -1.12121 0
M  V30 3338 H 322.707 -2.9665 -2.64735 0
M  V30 3339 N 323.704 0.605807 -1.45491 0
M  V30 3340 C 324.95 1.36679 -1.49823 0
M  V30 3341 C 325.283 1.93693 -0.140175 0
M  V30 3342 O 324.558 1.75158 0.845581 0
M  V30 3343 C 324.841 2.51337 -2.57879 0
M  V30 3344 C 324.694 1.99508 -4.03134 0
M  V30 3345 C 326.013 3.53463 -2.62205 0
M  V30 3346 H 323.132 0.495617 -0.545466 0
M  V30 3347 H 325.774 0.682732 -1.7731 0
M  V30 3348 H 323.924 3.09691 -2.34571 0
M  V30 3349 H 325.596 1.45789 -4.37656 0
M  V30 3350 H 323.839 1.30496 -4.13707 0
M  V30 3351 H 324.51 2.82169 -4.74431 0
M  V30 3352 H 326.986 3.04953 -2.83095 0
M  V30 3353 H 325.862 4.31178 -3.39672 0
M  V30 3354 H 326.123 4.09197 -1.67363 0
M  V30 3355 N 325.182 1.32811 0.848464 0
M  V30 3356 C 326.428 1.23907 1.60546 0
M  V30 3357 C 326.761 -0.197161 1.93197 0
M  V30 3358 O 326.036 -1.13596 1.5788 0
M  V30 3359 C 326.319 2.10489 2.92175 0
M  V30 3360 C 326.172 3.62522 2.66266 0
M  V30 3361 C 327.491 1.97075 3.93509 0
M  V30 3362 H 324.61 0.451459 0.58254 0
M  V30 3363 H 327.252 1.62818 0.979296 0
M  V30 3364 H 325.402 1.77434 3.45614 0
M  V30 3365 H 327.074 4.05821 2.19334 0
M  V30 3366 H 325.317 3.84879 2.00126 0
M  V30 3367 H 325.988 4.18437 3.6002 0
M  V30 3368 H 328.464 2.26045 3.49346 0
M  V30 3369 H 327.34 2.59923 4.83457 0
M  V30 3370 H 327.601 0.940186 4.31987 0
M  V30 3371 N 326.66 -1.06551 1.16123 0
M  V30 3372 C 327.593 -2.13382 0.80892 0
M  V30 3373 C 328.571 -1.61128 -0.21827 0
M  V30 3374 O 329.755 -1.88219 -0.102952 0
M  V30 3375 C 326.882 -3.38083 0.204303 0
M  V30 3376 C 325.928 -4.09133 1.20469 0
M  V30 3377 S 326.761 -4.5948 2.75024 0
M  V30 3378 C 327.917 -5.87446 2.16005 0
M  V30 3379 H 328.15 -2.42937 1.71373 0
M  V30 3380 H 325.683 -1.18947 0.984428 0
M  V30 3381 H 327.641 -4.10268 -0.138081 0
M  V30 3382 H 326.302 -3.0669 -0.678234 0
M  V30 3383 H 325.495 -4.98685 0.730019 0
M  V30 3384 H 325.097 -3.4295 1.49202 0
M  V30 3385 H 327.389 -6.60065 1.5271 0
M  V30 3386 H 328.332 -6.39639 3.03756 0
M  V30 3387 H 328.74 -5.41354 1.59989 0
M  V30 3388 N 328.138 -0.959301 -1.25041 0
M  V30 3389 C 329.386 -0.615393 -1.92503 0
M  V30 3390 C 329.707 0.850969 -1.75452 0
M  V30 3391 O 328.977 1.60658 -1.12098 0
M  V30 3392 H 327.557 -0.224613 -0.712431 0
M  V30 3393 H 330.219 -1.21855 -1.5211 0
M  V30 3394 H 329.315 -0.848738 -3.00338 0
M  V30 3395 N 329.616 1.39756 -0.72842 0
M  V30 3396 C 330.546 2.33289 -0.0991354 0
M  V30 3397 C 331.527 1.53568 0.731489 0
M  V30 3398 O 332.712 1.81987 0.677807 0
M  V30 3399 C 329.842 3.3763 0.813834 0
M  V30 3400 C 328.796 4.2791 0.0878663 0
M  V30 3401 C 328.122 5.22894 1.11741 0
M  V30 3402 C 329.422 5.11314 -1.06563 0
M  V30 3403 H 331.116 2.86163 -0.880408 0
M  V30 3404 H 328.662 1.37591 -0.424819 0
M  V30 3405 H 330.615 4.0201 1.26355 0
M  V30 3406 H 329.339 2.83181 1.62715 0
M  V30 3407 H 327.998 3.65 -0.342159 0
M  V30 3408 H 327.646 4.64744 1.92412 0
M  V30 3409 H 327.346 5.84143 0.636477 0
M  V30 3410 H 328.87 5.90151 1.56697 0
M  V30 3411 H 330.284 5.69076 -0.694671 0
M  V30 3412 H 328.681 5.81671 -1.47577 0
M  V30 3413 H 329.751 4.46534 -1.89038 0
M  V30 3414 N 331.094 0.475555 1.50254 0
M  V30 3415 C 332.34 -0.0780073 2.0265 0
M  V30 3416 C 332.673 -1.38968 1.35652 0
M  V30 3417 O 331.948 -1.8839 0.483691 0
M  V30 3418 C 332.231 -0.257161 3.59181 0
M  V30 3419 C 332.084 1.07585 4.36744 0
M  V30 3420 C 333.403 -1.00965 4.28362 0
M  V30 3421 H 330.522 -0.0268758 0.73651 0
M  V30 3422 H 333.164 0.622015 1.7953 0
M  V30 3423 H 331.314 -0.853412 3.79011 0
M  V30 3424 H 332.986 1.70902 4.28474 0
M  V30 3425 H 331.229 1.6714 4.00308 0
M  V30 3426 H 331.9 0.904088 5.44546 0
M  V30 3427 H 334.376 -0.504214 4.13034 0
M  V30 3428 H 333.252 -1.10381 5.37687 0
M  V30 3429 H 333.513 -2.04731 3.91839 0
M  V30 3430 N 332.573 -1.56217 0.208337 0
M  V30 3431 C 333.798 -2.02782 -0.435222 0
M  V30 3432 C 334.223 -1.08738 -1.53485 0
M  V30 3433 O 333.581 -0.0731855 -1.81152 0
M  V30 3434 C 333.629 -3.47687 -0.956335 0
M  V30 3435 O 332.733 -3.56773 -2.06849 0
M  V30 3436 H 332.074 -0.656403 -0.100158 0
M  V30 3437 H 334.604 -2.02033 0.3231 0
M  V30 3438 H 334.614 -3.87745 -1.26955 0
M  V30 3439 H 333.289 -4.15624 -0.15143 0
M  V30 3440 H 331.866 -3.28597 -1.76292 0
M  V30 3441 N 334.051 0.0651679 -1.57465 0
M  V30 3442 C 335.297 0.764193 -1.87851 0
M  V30 3443 C 335.63 1.76889 -0.801495 0
M  V30 3444 O 334.905 1.93594 0.187528 0
M  V30 3445 C 335.188 1.46625 -3.28897 0
M  V30 3446 C 335.041 0.477515 -4.47258 0
M  V30 3447 C 336.36 2.4095 -3.68281 0
M  V30 3448 H 333.479 0.276351 -0.683227 0
M  V30 3449 H 336.121 0.0272868 -1.8998 0
M  V30 3450 H 334.271 2.09438 -3.27212 0
M  V30 3451 H 335.943 -0.145922 -4.61069 0
M  V30 3452 H 334.186 -0.206576 -4.33308 0
M  V30 3453 H 334.857 1.0065 -5.42746 0
M  V30 3454 H 337.333 1.88209 -3.71102 0
M  V30 3455 H 336.209 2.87072 -4.67847 0
M  V30 3456 H 336.47 3.26049 -2.98571 0
M  V30 3457 N 335.529 1.53961 0.336706 0
M  V30 3458 C 336.477 1.83136 1.43401 0
M  V30 3459 C 337.471 0.702313 1.54156 0
M  V30 3460 O 338.677 0.885765 1.56698 0
M  V30 3461 H 335.052 0.580309 0.478273 0
M  V30 3462 H 337.023 2.74925 1.16012 0
M  V30 3463 C 335.772 2.06385 2.79822 0
M  V30 3464 H 335.095 2.92718 2.72316 0
M  V30 3465 H 336.535 2.30761 3.55704 0
M  V30 3466 C 334.994 0.851414 3.25964 0
M  V30 3467 O 335.524 0.0541904 4.01663 0
M  V30 3468 N 333.73 0.66672 2.82848 0
M  V30 3469 H 333.277 1.31665 2.21409 0
M  V30 3470 H 333.235 -0.143032 3.14074 0
M  V30 3471 N 337.007 -0.598083 1.45811 0
M  V30 3472 C 338.247 -1.36802 1.5187 0
M  V30 3473 C 338.611 -1.9133 0.160224 0
M  V30 3474 O 339.812 -2.6863 0.0955302 0
M  V30 3475 C 338.083 -2.47835 2.57513 0
M  V30 3476 S 339.642 -3.35458 2.82866 0
M  V30 3477 H 336.46 -0.466278 0.536755 0
M  V30 3478 H 339.062 -0.689152 1.82951 0
M  V30 3479 H 337.766 -2.06141 3.54872 0
M  V30 3480 H 337.297 -3.20512 2.28114 0
M  V30 3481 H 339.312 -4.46251 2.16967 0
M  V30 3482 N 338.485 -1.33259 -0.841409 0
M  V30 3483 C 339.395 -1.25332 -1.98316 0
M  V30 3484 C 340.411 -0.164364 -1.73222 0
M  V30 3485 O 341.587 -0.387486 -1.97637 0
M  V30 3486 C 338.652 -0.990078 -3.32262 0
M  V30 3487 C 337.713 -2.16879 -3.70489 0
M  V30 3488 C 336.946 -1.91801 -4.98044 0
M  V30 3489 O 337.169 -0.867075 -5.63771 0
M  V30 3490 O 336.103 -2.78267 -5.33714 0
M  V30 3491 H 339.929 -2.21344 -2.07944 0
M  V30 3492 H 337.514 -1.1328 -0.974058 0
M  V30 3493 H 339.396 -0.860321 -4.12524 0
M  V30 3494 H 338.071 -0.0602155 -3.23644 0
M  V30 3495 H 336.978 -2.35407 -2.90748 0
M  V30 3496 H 338.311 -3.0819 -3.8377 0
M  V30 3497 N 339.963 1.05934 -1.16686 0
M  V30 3498 C 341.188 1.83029 -0.975455 0
M  V30 3499 C 341.613 1.82096 0.471452 0
M  V30 3500 O 340.971 1.22443 1.33706 0
M  V30 3501 C 341.019 3.27372 -1.51195 0
M  V30 3502 O 340.123 4.06054 -0.720701 0
M  V30 3503 H 339.464 0.566194 -0.346872 0
M  V30 3504 H 341.994 1.33541 -1.55009 0
M  V30 3505 H 342.004 3.78186 -1.53099 0
M  V30 3506 H 340.679 3.27366 -2.56523 0
M  V30 3507 H 339.256 3.64812 -0.772458 0
M  V30 3508 N 341.441 0.965919 1.2453 0
M  V30 3509 C 342.371 0.513476 2.27784 0
M  V30 3510 C 343.352 -0.445974 1.6415 0
M  V30 3511 O 344.537 -0.342485 1.91156 0
M  V30 3512 C 341.667 -0.198839 3.4673 0
M  V30 3513 C 340.621 0.676456 4.2262 0
M  V30 3514 C 339.947 -0.167248 5.34438 0
M  V30 3515 C 341.247 1.96017 4.84123 0
M  V30 3516 H 342.941 1.3765 2.65881 0
M  V30 3517 H 340.487 0.663321 1.27813 0
M  V30 3518 H 342.44 -0.526567 4.18097 0
M  V30 3519 H 341.164 -1.0962 3.07654 0
M  V30 3520 H 339.823 0.98743 3.53052 0
M  V30 3521 H 339.471 -1.0647 4.91603 0
M  V30 3522 H 339.171 0.415181 5.86131 0
M  V30 3523 H 340.695 -0.489688 6.08633 0
M  V30 3524 H 342.109 1.69814 5.47573 0
M  V30 3525 H 340.506 2.48918 5.4604 0
M  V30 3526 H 341.576 2.65622 4.05676 0
M  V30 3527 N 342.919 -1.39368 0.735821 0
M  V30 3528 C 343.869 -2.27885 0.0724287 0
M  V30 3529 C 344.853 -1.44301 -0.711756 0
M  V30 3530 O 346.045 -1.67206 -0.58063 0
M  V30 3531 C 343.174 -3.33029 -0.833454 0
M  V30 3532 C 342.26 -4.24078 -0.0433749 0
M  V30 3533 N 342.651 -4.96138 0.983903 0
M  V30 3534 C 340.949 -4.45164 -0.272905 0
M  V30 3535 C 341.65 -5.63069 1.4604 0
M  V30 3536 N 340.626 -5.37991 0.778857 0
M  V30 3537 H 344.428 -2.81052 0.859467 0
M  V30 3538 H 341.942 -1.5206 0.570227 0
M  V30 3539 H 343.939 -3.95311 -1.32419 0
M  V30 3540 H 342.599 -2.81421 -1.61964 0
M  V30 3541 H 343.61 -4.9958 1.36528 0
M  V30 3542 H 340.287 -4.04497 -1.03383 0
M  V30 3543 H 341.677 -6.30755 2.31511 0
M  V30 3544 N 344.397 -0.483516 -1.5 0
M  V30 3545 C 345.345 0.318061 -2.30415 0
M  V30 3546 C 346.339 0.978988 -1.38247 0
M  V30 3547 O 347.545 0.908673 -1.55381 0
M  V30 3548 H 343.92 0.121419 -0.742133 0
M  V30 3549 H 345.891 -0.380403 -2.95965 0
M  V30 3550 C 344.64 1.38013 -3.19136 0
M  V30 3551 H 343.963 0.880952 -3.89973 0
M  V30 3552 H 345.403 1.91332 -3.78375 0
M  V30 3553 C 343.862 2.38884 -2.37563 0
M  V30 3554 O 344.392 3.44412 -2.06744 0
M  V30 3555 N 342.598 2.10912 -1.99911 0
M  V30 3556 H 342.145 1.25118 -2.25174 0
M  V30 3557 H 342.103 2.78635 -1.45636 0
M  V30 3558 N 345.875 1.56104 -0.216619 0
M  V30 3559 C 347.291 1.58995 0.13886 0
M  V30 3560 C 347.491 1.23333 1.59346 0
M  V30 3561 O 346.547 0.966234 2.33281 0
M  V30 3562 C 347.86 3.00143 -0.182968 0
M  V30 3563 C 349.408 3.12751 -0.124807 0
M  V30 3564 C 349.883 4.56068 -0.420241 0
M  V30 3565 N 351.374 4.61723 -0.369634 0
M  V30 3566 C 352.109 5.70542 -0.571789 0
M  V30 3567 N 351.605 6.87744 -0.835453 0
M  V30 3568 N 353.398 5.59831 -0.504563 0
M  V30 3569 H 345.549 1.77562 -1.16557 0
M  V30 3570 H 347.812 0.825091 -0.466828 0
M  V30 3571 H 347.518 3.30871 -1.19237 0
M  V30 3572 H 347.392 3.73813 0.504367 0
M  V30 3573 H 349.779 2.81822 0.875223 0
M  V30 3574 H 349.86 2.41421 -0.845544 0
M  V30 3575 H 349.504 4.87713 -1.41769 0
M  V30 3576 H 349.434 5.25617 0.321631 0
M  V30 3577 H 351.925 3.77502 -0.173338 0
M  V30 3578 H 352.238 7.66587 -0.977938 0
M  V30 3579 H 350.583 6.895 -0.872592 0
M  V30 3580 H 353.774 4.67145 -0.298842 0
M  V30 3581 H 353.947 6.44573 -0.665519 0
M  V30 3582 N 347.353 -0.0568162 1.57498 0
M  V30 3583 C 348.283 -1.06593 2.0775 0
M  V30 3584 C 349.264 -1.39448 0.974082 0
M  V30 3585 O 350.449 -1.48815 1.24771 0
M  V30 3586 C 347.579 -2.37509 2.5339 0
M  V30 3587 C 346.533 -2.1897 3.67745 0
M  V30 3588 C 345.859 -3.55402 3.99492 0
M  V30 3589 C 347.159 -1.59859 4.97235 0
M  V30 3590 H 348.853 -0.647706 2.9231 0
M  V30 3591 H 346.399 -0.310116 1.40621 0
M  V30 3592 H 348.352 -3.08409 2.87162 0
M  V30 3593 H 347.076 -2.8134 1.65878 0
M  V30 3594 H 345.735 -1.50508 3.3428 0
M  V30 3595 H 345.383 -3.9683 3.09088 0
M  V30 3596 H 345.083 -3.43831 4.76502 0
M  V30 3597 H 346.607 -4.27708 4.35773 0
M  V30 3598 H 348.021 -2.20642 5.29141 0
M  V30 3599 H 346.418 -1.58942 5.78669 0
M  V30 3600 H 347.488 -0.561506 4.81638 0
M  V30 3601 N 348.832 -1.54138 -0.328536 0
M  V30 3602 C 350.248 -1.44736 -0.672574 0
M  V30 3603 C 350.448 -0.616217 -1.91846 0
M  V30 3604 O 349.504 -0.113067 -2.52247 0
M  V30 3605 C 350.817 -2.884 -0.851217 0
M  V30 3606 C 352.365 -2.98271 -0.948877 0
M  V30 3607 C 352.84 -4.43074 -1.15973 0
M  V30 3608 N 354.331 -4.46665 -1.22658 0
M  V30 3609 C 355.066 -5.55857 -1.40751 0
M  V30 3610 N 354.562 -6.75026 -1.5592 0
M  V30 3611 N 356.355 -5.43495 -1.4342 0
M  V30 3612 H 348.506 -2.06661 0.490421 0
M  V30 3613 H 350.769 -0.934812 0.157579 0
M  V30 3614 H 350.475 -3.51699 -0.00704236 0
M  V30 3615 H 350.349 -3.34225 -1.74853 0
M  V30 3616 H 352.736 -2.35102 -1.78356 0
M  V30 3617 H 352.817 -2.55785 -0.0281435 0
M  V30 3618 H 352.461 -5.06827 -0.329915 0
M  V30 3619 H 352.391 -4.83165 -2.09426 0
M  V30 3620 H 354.882 -3.60797 -1.124 0
M  V30 3621 H 355.195 -7.54004 -1.69404 0
M  V30 3622 H 353.54 -6.77944 -1.53027 0
M  V30 3623 H 356.731 -4.49349 -1.31162 0
M  V30 3624 H 356.904 -6.28649 -1.57178 0
M  V30 3625 N 350.31 0.590341 -1.46126 0
M  V30 3626 C 351.557 1.34882 -1.5104 0
M  V30 3627 C 351.885 1.93849 -0.159021 0
M  V30 3628 O 351.14 1.76544 0.844436 0
M  V30 3629 C 351.439 2.5032 -2.55097 0
M  V30 3630 C 351.105 2.09394 -3.99331 0
M  V30 3631 C 349.767 1.97947 -4.38601 0
M  V30 3632 C 352.119 1.77712 -4.89967 0
M  V30 3633 C 349.447 1.53065 -5.66381 0
M  V30 3634 C 351.799 1.34312 -6.18177 0
M  V30 3635 C 350.463 1.21436 -6.56361 0
M  V30 3636 H 349.733 0.493568 -0.552695 0
M  V30 3637 H 352.38 0.665539 -1.79563 0
M  V30 3638 H 350.685 3.24062 -2.20207 0
M  V30 3639 H 352.382 3.08541 -2.56132 0
M  V30 3640 H 348.972 2.19235 -3.68285 0
M  V30 3641 H 353.156 1.85445 -4.60352 0
M  V30 3642 H 348.412 1.41733 -5.94745 0
M  V30 3643 H 352.586 1.08849 -6.87841 0
M  V30 3644 H 350.213 0.864345 -7.5527 0
M  V30 3645 N 351.788 1.33704 0.83433 0
M  V30 3646 C 352.718 1.26967 1.95963 0
M  V30 3647 C 353.699 0.149337 1.69443 0
M  V30 3648 O 354.884 0.339852 1.91203 0
M  V30 3649 C 352.014 1.01275 3.32206 0
M  V30 3650 C 350.968 2.09652 3.73136 0
M  V30 3651 C 350.294 1.69166 5.07235 0
M  V30 3652 C 351.594 3.51372 3.86439 0
M  V30 3653 H 353.288 2.2112 2.01857 0
M  V30 3654 H 350.834 1.06447 0.969793 0
M  V30 3655 H 352.787 0.952106 4.10503 0
M  V30 3656 H 351.511 0.0356203 3.26581 0
M  V30 3657 H 350.17 2.14766 2.97104 0
M  V30 3658 H 349.818 0.701437 4.98085 0
M  V30 3659 H 349.518 2.41694 5.35591 0
M  V30 3660 H 351.042 1.64576 5.88003 0
M  V30 3661 H 352.456 3.48734 4.55036 0
M  V30 3662 H 350.853 4.22425 4.26236 0
M  V30 3663 H 351.923 3.89546 2.88759 0
M  V30 3664 N 353.266 -1.05314 1.17247 0
M  V30 3665 C 354.198 -2.13023 0.845812 0
M  V30 3666 C 355.211 -1.62096 -0.151246 0
M  V30 3667 O 356.4 -1.78343 0.0748818 0
M  V30 3668 C 353.5 -3.38047 0.240292 0
M  V30 3669 C 352.673 -4.18255 1.27991 0
M  V30 3670 C 351.732 -5.21625 0.692375 0
M  V30 3671 O 350.758 -5.52619 1.36385 0
M  V30 3672 N 351.96 -5.78201 -0.516178 0
M  V30 3673 H 354.725 -2.41642 1.77283 0
M  V30 3674 H 352.286 -1.21401 1.07115 0
M  V30 3675 H 354.278 -4.04359 -0.16603 0
M  V30 3676 H 352.848 -3.06972 -0.590487 0
M  V30 3677 H 352.068 -3.47451 1.86203 0
M  V30 3678 H 353.356 -4.68643 1.98119 0
M  V30 3679 H 352.754 -5.55301 -1.07969 0
M  V30 3680 H 351.311 -6.4604 -0.86458 0
M  V30 3681 N 354.744 -0.972509 -1.24016 0
M  V30 3682 C 355.692 -0.498562 -2.27194 0
M  V30 3683 C 356.686 0.440372 -1.63576 0
M  V30 3684 O 357.892 0.315133 -1.7722 0
M  V30 3685 H 354.267 -0.142775 -0.738322 0
M  V30 3686 H 356.238 -1.38065 -2.64539 0
M  V30 3687 C 354.987 0.191072 -3.47175 0
M  V30 3688 H 354.31 -0.522318 -3.96373 0
M  V30 3689 H 355.75 0.486445 -4.212 0
M  V30 3690 C 354.209 1.41967 -3.05527 0
M  V30 3691 O 354.739 2.51642 -3.13112 0
M  V30 3692 N 352.945 1.28746 -2.60524 0
M  V30 3693 H 352.492 0.395089 -2.54552 0
M  V30 3694 H 352.45 2.11061 -2.33025 0
M  V30 3695 N 356.222 1.38976 -0.743202 0
M  V30 3696 C 357.447 2.05161 -0.303936 0
M  V30 3697 C 357.872 1.55677 1.05576 0
M  V30 3698 O 357.23 0.704131 1.67068 0
M  V30 3699 C 357.278 3.59138 -0.324373 0
M  V30 3700 O 356.382 4.06668 0.685204 0
M  V30 3701 H 355.723 0.649815 -0.136518 0
M  V30 3702 H 358.253 1.77852 -1.01142 0
M  V30 3703 H 358.263 4.07639 -0.171618 0
M  V30 3704 H 356.938 3.94515 -1.31647 0
M  V30 3705 H 355.515 3.69561 0.497913 0
M  V30 3706 N 357.7 0.491464 1.49741 0
M  V30 3707 C 358.63 -0.28154 2.31796 0
M  V30 3708 C 359.611 -0.971473 1.3963 0
M  V30 3709 O 360.796 -0.964719 1.68543 0
M  V30 3710 C 357.926 -1.35203 3.19902 0
M  V30 3711 C 356.88 -0.782529 4.20786 0
M  V30 3712 C 356.206 -1.95283 4.97764 0
M  V30 3713 C 357.506 0.21999 5.21837 0
M  V30 3714 H 359.2 0.403355 2.96671 0
M  V30 3715 H 356.746 0.195425 1.42668 0
M  V30 3716 H 358.699 -1.90045 3.76113 0
M  V30 3717 H 357.423 -2.06598 2.52953 0
M  V30 3718 H 356.082 -0.255928 3.65706 0
M  V30 3719 H 355.73 -2.65423 4.2727 0
M  V30 3720 H 355.43 -1.57789 5.66018 0
M  V30 3721 H 356.954 -2.50577 5.56816 0
M  V30 3722 H 358.368 -0.23996 5.72798 0
M  V30 3723 H 356.765 0.51026 5.97927 0
M  V30 3724 H 357.835 1.13911 4.7133 0
M  V30 3725 N 359.178 -1.55987 0.224894 0
M  V30 3726 C 360.426 -1.97998 -0.405099 0
M  V30 3727 C 360.747 -1.11387 -1.60056 0
M  V30 3728 O 360.017 -0.191645 -1.9496 0
M  V30 3729 H 358.597 -0.731235 -0.152658 0
M  V30 3730 H 361.259 -1.92279 0.318567 0
M  V30 3731 H 360.355 -3.03463 -0.729167 0
M  V30 3732 N 360.656 0.0484629 -1.57525 0
M  V30 3733 C 361.619 1.03956 -2.04269 0
M  V30 3734 C 362.619 1.30211 -0.943496 0
M  V30 3735 O 363.809 1.25539 -1.20771 0
M  V30 3736 C 360.941 2.37742 -2.44319 0
M  V30 3737 H 362.134 0.636182 -2.93075 0
M  V30 3738 H 359.687 0.294811 -1.53494 0
M  V30 3739 H 360.422 2.82866 -1.5861 0
M  V30 3740 H 360.207 2.20021 -3.24551 0
M  V30 3741 H 361.697 3.08936 -2.80978 0
M  V30 3742 N 362.134 1.5431 0.320358 0
M  V30 3743 C 363.38 1.72924 1.05949 0
M  V30 3744 C 363.713 0.503185 1.87568 0
M  V30 3745 O 362.988 -0.499839 1.87968 0
M  V30 3746 C 363.271 3.00676 1.98156 0
M  V30 3747 C 363.124 4.3354 1.19845 0
M  V30 3748 C 364.443 3.24198 2.9763 0
M  V30 3749 H 361.562 0.629195 0.383774 0
M  V30 3750 H 364.204 1.87008 0.335854 0
M  V30 3751 H 362.354 2.888 2.59859 0
M  V30 3752 H 364.026 4.57305 0.605773 0
M  V30 3753 H 362.269 4.309 0.500784 0
M  V30 3754 H 362.94 5.19156 1.87567 0
M  V30 3755 H 365.416 3.35557 2.4605 0
M  V30 3756 H 364.292 4.14938 3.59329 0
M  V30 3757 H 364.553 2.41577 3.7026 0
M  V30 3758 N 363.613 -0.582584 1.46437 0
M  V30 3759 C 365.024 -1.1647 1.45916 0
M  V30 3760 C 365.375 -1.95177 0.200077 0
M  V30 3761 O 364.5 -2.04874 -0.696819 0
M  V30 3762 C 365.095 -2.11885 2.64367 0
M  V30 3763 C 363.654 -2.65421 2.66887 0
M  V30 3764 C 362.801 -1.41294 2.38603 0
M  V30 3765 H 365.752 -0.370514 1.54314 0
M  V30 3766 H 365.773 -2.9535 2.39892 0
M  V30 3767 H 365.285 -1.54573 3.5599 0
M  V30 3768 H 363.386 -3.26602 1.79338 0
M  V30 3769 H 363.499 -3.08147 3.66854 0
M  V30 3770 H 361.863 -1.71109 1.88663 0
M  V30 3771 H 362.646 -0.858125 3.32402 0
M  V30 3772 N 365.091 -1.34144 -0.827227 0
M  V30 3773 C 366.316 -1.29476 -1.62021 0
M  V30 3774 C 366.741 0.129292 -1.87655 0
M  V30 3775 O 366.099 1.08967 -1.449 0
M  V30 3776 C 366.147 -2.08702 -2.94068 0
M  V30 3777 O 365.251 -1.45359 -3.85933 0
M  V30 3778 H 364.592 -0.444881 -0.492927 0
M  V30 3779 H 367.122 -1.76882 -1.02829 0
M  V30 3780 H 367.132 -2.19898 -3.43669 0
M  V30 3781 H 365.807 -3.12241 -2.74734 0
M  V30 3782 H 364.384 -1.42879 -3.44442 0
M  V30 3783 N 366.569 1.04691 -1.17803 0
M  V30 3784 C 367.98 1.59238 -0.974689 0
M  V30 3785 C 368.331 1.90306 0.477292 0
M  V30 3786 O 367.456 1.68846 1.35352 0
M  V30 3787 C 368.051 2.89318 -1.76296 0
M  V30 3788 C 366.61 3.40506 -1.60414 0
M  V30 3789 C 365.757 2.14172 -1.76141 0
M  V30 3790 H 368.708 0.874395 -1.32439 0
M  V30 3791 H 368.729 3.5944 -1.24833 0
M  V30 3792 H 368.241 2.66675 -2.81968 0
M  V30 3793 H 366.342 3.68175 -0.572519 0
M  V30 3794 H 366.455 4.14753 -2.39827 0
M  V30 3795 H 364.819 2.25176 -1.19028 0
M  V30 3796 H 365.602 1.93992 -2.83235 0
M  V30 3797 N 368.047 0.979072 1.23499 0
M  V30 3798 C 369.296 0.642751 1.91185 0
M  V30 3799 C 369.609 -0.827253 1.77245 0
M  V30 3800 O 370.815 -1.27458 2.39722 0
M  V30 3801 C 369.271 1.09901 3.42709 0
M  V30 3802 C 368.879 2.59327 3.65313 0
M  V30 3803 C 370.623 0.836371 4.16179 0
M  V30 3804 C 368.53 2.98627 5.10467 0
M  V30 3805 H 367.46 0.236698 0.715884 0
M  V30 3806 H 370.111 1.1868 1.39955 0
M  V30 3807 H 368.493 0.48319 3.93041 0
M  V30 3808 H 369.667 3.26136 3.25533 0
M  V30 3809 H 367.982 2.83323 3.05151 0
M  V30 3810 H 370.579 1.10586 5.23139 0
M  V30 3811 H 370.922 -0.227509 4.15678 0
M  V30 3812 H 371.455 1.41371 3.71832 0
M  V30 3813 H 368.194 4.04133 5.16098 0
M  V30 3814 H 367.714 2.3651 5.51201 0
M  V30 3815 H 369.393 2.89159 5.78788 0
M  V30 3816 N 369.525 -1.3858 0.750561 0
M  V30 3817 C 370.802 -1.94231 0.231009 0
M  V30 3818 C 371.182 -1.68611 -1.27018 0
M  V30 3819 O 370.53 -1.02296 -2.04323 0
M  V30 3820 C 370.74 -3.44123 0.581428 0
M  V30 3821 C 372.088 -4.2116 0.539389 0
M  V30 3822 O 373.112 -3.52391 0.519541 0
M  V30 3823 O 371.971 -5.43749 0.54765 0
M  V30 3824 H 369.065 -0.825639 0.0474263 0
M  V30 3825 H 371.611 -1.4799 0.830478 0
M  V30 3826 H 370.383 -3.56267 1.61833 0
M  V30 3827 H 370.006 -3.97573 -0.0462047 0
M  V30 3828 N 371.003 -0.499398 -1.49478 0
M  V30 3829 C 372.243 0.0440751 -2.04352 0
M  V30 3830 C 372.607 1.34423 -1.37093 0
M  V30 3831 O 373.808 1.97184 -1.82679 0
M  V30 3832 C 372.079 0.194918 -3.56868 0
M  V30 3833 S 373.638 0.69287 -4.33295 0
M  V30 3834 H 370.456 0.00253458 -0.710995 0
M  V30 3835 H 373.058 -0.673 -1.83551 0
M  V30 3836 H 371.762 -0.756672 -4.03364 0
M  V30 3837 H 371.293 0.93728 -3.82071 0
M  V30 3838 H 373.308 1.96226 -4.55752 0
M  V30 3839 N 372.481 1.55866 -0.233164 0
M  V30 3840 C 373.711 2.02704 0.399325 0
M  V30 3841 C 374.119 1.11204 1.53069 0
M  V30 3842 O 373.462 0.116182 1.83332 0
M  V30 3843 C 373.524 3.45844 0.981429 0
M  V30 3844 C 373.188 4.56997 -0.0159561 0
M  V30 3845 C 374.185 5.13384 -0.820552 0
M  V30 3846 C 371.87 5.0211 -0.138072 0
M  V30 3847 C 373.864 6.13365 -1.73386 0
M  V30 3848 C 371.551 6.01926 -1.0549 0
M  V30 3849 C 372.549 6.57431 -1.85132 0
M  V30 3850 O 372.237 7.55302 -2.75272 0
M  V30 3851 H 371.969 0.668459 0.100692 0
M  V30 3852 H 374.523 2.02387 -0.35052 0
M  V30 3853 H 372.753 3.43267 1.78058 0
M  V30 3854 H 374.442 3.76262 1.52255 0
M  V30 3855 H 375.208 4.79372 -0.736721 0
M  V30 3856 H 371.087 4.5858 0.471737 0
M  V30 3857 H 374.631 6.56614 -2.35592 0
M  V30 3858 H 370.528 6.35359 -1.1397 0
M  V30 3859 H 371.296 7.72867 -2.69477 0
M  V30 3860 N 373.959 -0.0401083 1.57549 0
M  V30 3861 C 374.889 -1.04384 2.08869 0
M  V30 3862 C 375.87 -1.38407 0.988817 0
M  V30 3863 O 377.055 -1.47483 1.26342 0
M  V30 3864 C 374.185 -2.34808 2.55895 0
M  V30 3865 C 373.139 -2.15057 3.70047 0
M  V30 3866 C 372.465 -3.51145 4.03239 0
M  V30 3867 C 373.765 -1.54576 4.98902 0
M  V30 3868 H 375.459 -0.616666 2.92981 0
M  V30 3869 H 373.005 -0.295184 1.40942 0
M  V30 3870 H 374.958 -3.05346 2.90417 0
M  V30 3871 H 373.682 -2.79565 1.68853 0
M  V30 3872 H 372.341 -1.46954 3.35857 0
M  V30 3873 H 371.989 -3.93529 3.13279 0
M  V30 3874 H 371.689 -3.38758 4.80122 0
M  V30 3875 H 373.213 -4.23062 4.40285 0
M  V30 3876 H 374.627 -2.15017 5.31451 0
M  V30 3877 H 373.024 -1.52796 5.80322 0
M  V30 3878 H 374.094 -0.51039 4.82206 0
M  V30 3879 N 375.437 -1.54477 -0.31217 0
M  V30 3880 C 376.677 -1.74958 -1.05684 0
M  V30 3881 C 377.041 -0.518414 -1.84869 0
M  V30 3882 O 378.242 -0.600759 -2.62001 0
M  V30 3883 C 376.513 -2.99656 -1.94785 0
M  V30 3884 S 378.072 -3.4109 -2.76049 0
M  V30 3885 H 374.89 -0.615104 -0.356606 0
M  V30 3886 H 377.492 -1.92669 -0.331514 0
M  V30 3887 H 376.196 -3.87397 -1.35468 0
M  V30 3888 H 375.727 -2.845 -2.71704 0
M  V30 3889 H 377.742 -2.97283 -3.97287 0
M  V30 3890 N 376.915 0.57481 -1.46744 0
M  V30 3891 C 377.863 1.70435 -1.58286 0
M  V30 3892 C 378.857 1.63287 -0.450956 0
M  V30 3893 O 380.063 1.68685 -0.628121 0
M  V30 3894 H 376.438 0.56364 -0.497809 0
M  V30 3895 H 378.409 1.57833 -2.53242 0
M  V30 3896 C 377.158 3.08815 -1.59776 0
M  V30 3897 H 376.481 3.1499 -2.46214 0
M  V30 3898 H 377.921 3.87588 -1.71905 0
M  V30 3899 C 376.38 3.35301 -0.327812 0
M  V30 3900 O 376.91 3.97511 0.57861 0
M  V30 3901 N 375.116 2.89816 -0.213274 0
M  V30 3902 H 374.663 2.39371 -0.951798 0
M  V30 3903 H 374.621 3.0791 0.63553 0
M  V30 3904 N 378.394 1.34581 0.820102 0
M  V30 3905 C 379.81 1.14325 1.11364 0
M  V30 3906 C 380.01 -0.0533648 2.01429 0
M  V30 3907 O 379.066 -0.728044 2.41776 0
M  V30 3908 C 380.379 2.43983 1.75764 0
M  V30 3909 C 381.927 2.50065 1.88246 0
M  V30 3910 C 382.402 3.79732 2.56061 0
M  V30 3911 N 383.893 3.80908 2.63558 0
M  V30 3912 C 384.628 4.77961 3.16766 0
M  V30 3913 N 384.124 5.85397 3.70517 0
M  V30 3914 N 385.917 4.65413 3.15194 0
M  V30 3915 H 378.068 2.11246 0.221096 0
M  V30 3916 H 380.331 0.934289 0.160649 0
M  V30 3917 H 380.037 3.31651 1.1705 0
M  V30 3918 H 379.911 2.57531 2.75604 0
M  V30 3919 H 382.298 1.62834 2.46108 0
M  V30 3920 H 382.379 2.40442 0.873006 0
M  V30 3921 H 382.023 4.67354 1.98853 0
M  V30 3922 H 381.953 3.86639 3.57516 0
M  V30 3923 H 384.444 3.03274 2.25463 0
M  V30 3924 H 384.757 6.55463 4.09376 0
M  V30 3925 H 383.102 5.89107 3.68752 0
M  V30 3926 H 386.293 3.80627 2.72471 0
M  V30 3927 H 386.466 5.41216 3.56356 0
M  V30 3928 N 379.872 -1.04064 1.18357 0
M  V30 3929 C 381.12 -1.76915 0.977013 0
M  V30 3930 C 381.441 -1.88624 -0.494577 0
M  V30 3931 O 380.711 -1.41125 -1.3587 0
M  V30 3932 H 379.291 -0.65535 0.358504 0
M  V30 3933 H 381.953 -1.25592 1.49039 0
M  V30 3934 H 381.049 -2.78178 1.41504 0
M  V30 3935 N 381.35 -0.985608 -1.22978 0
M  V30 3936 C 382.28 -0.549649 -2.26939 0
M  V30 3937 C 383.261 0.419803 -1.64838 0
M  V30 3938 O 384.446 0.31203 -1.91677 0
M  V30 3939 C 381.576 0.143652 -3.47003 0
M  V30 3940 C 380.53 -0.743606 -4.21491 0
M  V30 3941 C 379.856 0.0822027 -5.34637 0
M  V30 3942 C 381.156 -2.03694 -4.80943 0
M  V30 3943 H 382.85 -1.41862 -2.63658 0
M  V30 3944 H 380.396 -0.683571 -1.26741 0
M  V30 3945 H 382.349 0.459985 -4.18882 0
M  V30 3946 H 381.073 1.04711 -3.09359 0
M  V30 3947 H 379.732 -1.04347 -3.51436 0
M  V30 3948 H 379.38 0.986359 -4.93234 0
M  V30 3949 H 379.08 -0.508377 -5.85397 0
M  V30 3950 H 380.604 0.392797 -6.09335 0
M  V30 3951 H 382.018 -1.78504 -5.44802 0
M  V30 3952 H 380.415 -2.57573 -5.42011 0
M  V30 3953 H 381.485 -2.72042 -4.01399 0
M  V30 3954 N 382.828 1.3818 -0.7579 0
M  V30 3955 C 383.775 2.30416 -0.133057 0
M  V30 3956 C 384.745 1.50398 0.704957 0
M  V30 3957 O 385.93 1.79014 0.660192 0
M  V30 3958 C 383.07 3.36834 0.750813 0
M  V30 3959 C 382.183 4.31879 -0.102297 0
M  V30 3960 C 381.318 5.25368 0.784979 0
M  V30 3961 C 380.357 6.12058 -0.0715046 0
M  V30 3962 N 379.494 6.97832 0.772972 0
M  V30 3963 H 384.334 2.83274 -0.925186 0
M  V30 3964 H 381.871 1.39461 -0.467866 0
M  V30 3965 H 383.829 3.97145 1.27794 0
M  V30 3966 H 382.459 2.85374 1.50868 0
M  V30 3967 H 381.511 3.72991 -0.747095 0
M  V30 3968 H 382.823 4.92921 -0.763552 0
M  V30 3969 H 381.977 5.90818 1.37911 0
M  V30 3970 H 380.716 4.64703 1.47996 0
M  V30 3971 H 379.721 5.456 -0.678272 0
M  V30 3972 H 380.946 6.74793 -0.763606 0
M  V30 3973 H 378.892 6.3971 1.45282 0
M  V30 3974 H 378.809 7.55812 0.168709 0
M  V30 3975 H 380.077 7.67687 1.35194 0
M  V30 3976 N 384.306 0.507319 1.49211 0
M  V30 3977 C 385.534 -0.0315749 2.06876 0
M  V30 3978 C 385.949 -1.30241 1.36685 0
M  V30 3979 O 385.306 -1.76937 0.447152 0
M  V30 3980 C 385.357 -0.282627 3.60393 0
M  V30 3981 O 385.078 0.937835 4.27944 0
M  V30 3982 C 386.579 -0.864453 4.3479 0
M  V30 3983 H 383.799 0.0233048 0.670595 0
M  V30 3984 H 386.343 0.706484 1.91909 0
M  V30 3985 H 384.498 -0.97068 3.75042 0
M  V30 3986 H 384.912 0.704567 5.19746 0
M  V30 3987 H 386.386 -0.989664 5.43056 0
M  V30 3988 H 386.863 -1.86382 3.97692 0
M  V30 3989 H 387.469 -0.213672 4.24763 0
M  V30 3990 N 385.784 -1.5574 0.241426 0
M  V30 3991 C 386.714 -2.24133 -0.654722 0
M  V30 3992 C 387.695 -1.21974 -1.1856 0
M  V30 3993 O 388.88 -1.50612 -1.22595 0
M  V30 3994 C 386.01 -2.93659 -1.85423 0
M  V30 3995 C 384.964 -4.0246 -1.45636 0
M  V30 3996 C 384.29 -4.59383 -2.73626 0
M  V30 3997 C 385.59 -5.18468 -0.631506 0
M  V30 3998 H 387.284 -2.99281 -0.0844353 0
M  V30 3999 H 384.83 -1.43947 -0.0391707 0
M  V30 4000 H 386.783 -3.40203 -2.48676 0
M  V30 4001 H 385.507 -2.15991 -2.44981 0
M  V30 4002 H 384.166 -3.56676 -0.847202 0
M  V30 4003 H 383.814 -3.78422 -3.3137 0
M  V30 4004 H 383.514 -5.32826 -2.4773 0
M  V30 4005 H 385.038 -5.08658 -3.37786 0
M  V30 4006 H 386.452 -5.61272 -1.1682 0
M  V30 4007 H 384.849 -5.98266 -0.468831 0
M  V30 4008 H 385.919 -4.8358 0.357506 0
M  V30 4009 N 387.262 0.0317525 -1.57568 0
M  V30 4010 C 388.212 1.04101 -2.02847 0
M  V30 4011 C 389.196 1.3219 -0.917317 0
M  V30 4012 O 390.388 1.31819 -1.18121 0
M  V30 4013 C 387.517 2.34295 -2.5092 0
M  V30 4014 C 386.603 2.09308 -3.68851 0
M  V30 4015 N 386.994 1.5437 -4.81667 0
M  V30 4016 C 385.292 2.39604 -3.76172 0
M  V30 4017 C 385.993 1.45126 -5.63306 0
M  V30 4018 N 384.969 1.92589 -5.08341 0
M  V30 4019 H 388.771 0.610217 -2.87495 0
M  V30 4020 H 386.285 0.238108 -1.60645 0
M  V30 4021 H 388.282 3.07404 -2.81617 0
M  V30 4022 H 386.942 2.78055 -1.67677 0
M  V30 4023 H 387.953 1.22678 -5.03161 0
M  V30 4024 H 384.63 2.86457 -3.03724 0
M  V30 4025 H 386.02 1.03163 -6.63933 0
M  V30 4026 N 388.74 1.54641 0.303973 0
M  V30 4027 C 389.986 1.74038 1.04109 0
M  V30 4028 C 390.319 0.523051 1.87024 0
M  V30 4029 O 389.594 -0.479874 1.88487 0
M  V30 4030 C 389.877 3.02761 1.94955 0
M  V30 4031 C 389.73 4.34787 1.1524 0
M  V30 4032 C 391.049 3.27336 2.94175 0
M  V30 4033 H 388.168 0.63323 0.377079 0
M  V30 4034 H 390.81 1.87354 0.316001 0
M  V30 4035 H 388.96 2.9154 2.56782 0
M  V30 4036 H 390.632 4.57922 0.557236 0
M  V30 4037 H 388.875 4.31407 0.455053 0
M  V30 4038 H 389.546 5.21116 1.8205 0
M  V30 4039 H 392.022 3.38148 2.42477 0
M  V30 4040 H 390.898 4.18726 3.54908 0
M  V30 4041 H 391.159 2.45491 3.67677 0
M  V30 4042 N 390.218 -0.567019 1.47046 0
M  V30 4043 C 391.634 -0.891975 1.32348 0
M  V30 4044 C 391.834 -1.99154 0.306616 0
M  V30 4045 O 390.89 -2.50883 -0.28532 0
M  V30 4046 C 392.203 -1.29449 2.7141 0
M  V30 4047 C 393.751 -1.40646 2.79621 0
M  V30 4048 C 394.226 -1.84257 4.19301 0
M  V30 4049 N 395.717 -1.91424 4.21795 0
M  V30 4050 C 396.452 -2.26476 5.26779 0
M  V30 4051 N 395.948 -2.60211 6.42077 0
M  V30 4052 N 397.741 -2.27166 5.14152 0
M  V30 4053 H 389.892 0.159074 2.11803 0
M  V30 4054 H 392.155 0.00849752 0.947962 0
M  V30 4055 H 391.861 -0.560448 3.47206 0
M  V30 4056 H 391.735 -2.25273 3.02542 0
M  V30 4057 H 394.122 -2.13133 2.04104 0
M  V30 4058 H 394.203 -0.430339 2.52154 0
M  V30 4059 H 393.847 -1.12343 4.95319 0
M  V30 4060 H 393.777 -2.82855 4.44185 0
M  V30 4061 H 396.268 -1.6778 3.38612 0
M  V30 4062 H 396.581 -2.85956 7.17948 0
M  V30 4063 H 394.926 -2.57813 6.45413 0
M  V30 4064 H 398.117 -2.00244 4.23107 0
M  V30 4065 H 398.29 -2.54154 5.96079 0
M  V30 4066 N 391.696 -1.35014 -0.812953 0
M  V30 4067 C 392.629 -1.21761 -1.93001 0
M  V30 4068 C 393.607 -0.10694 -1.62248 0
M  V30 4069 O 394.791 -0.273891 -1.865 0
M  V30 4070 C 391.918 -0.873404 -3.27245 0
M  V30 4071 C 390.964 -1.99523 -3.76952 0
M  V30 4072 S 391.797 -3.61009 -3.95516 0
M  V30 4073 C 392.953 -3.28651 -5.32672 0
M  V30 4074 H 393.186 -2.16315 -2.03948 0
M  V30 4075 H 390.719 -1.20156 -0.969631 0
M  V30 4076 H 392.677 -0.68161 -4.04802 0
M  V30 4077 H 391.338 0.053971 -3.14054 0
M  V30 4078 H 390.531 -1.70838 -4.74163 0
M  V30 4079 H 390.133 -2.14503 -3.06373 0
M  V30 4080 H 392.425 -2.81085 -6.1644 0
M  V30 4081 H 393.368 -4.25039 -5.66346 0
M  V30 4082 H 393.776 -2.6458 -4.98656 0
M  V30 4083 N 393.175 1.03435 -1.18907 0
M  V30 4084 C 394.085 2.15075 -0.937015 0
M  V30 4085 C 395.101 1.73706 0.101085 0
M  V30 4086 O 396.277 2.01232 -0.0822948 0
M  V30 4087 C 393.342 3.43458 -0.473057 0
M  V30 4088 C 392.403 3.99172 -1.57989 0
M  V30 4089 C 391.636 5.21427 -1.13797 0
M  V30 4090 O 391.859 5.704 0.000725941 0
M  V30 4091 O 390.793 5.69837 -1.9383 0
M  V30 4092 H 394.619 2.39198 -1.87131 0
M  V30 4093 H 392.204 1.13506 -0.971427 0
M  V30 4094 H 394.086 4.20811 -0.222702 0
M  V30 4095 H 392.761 3.20793 0.432869 0
M  V30 4096 H 391.668 3.23178 -1.88433 0
M  V30 4097 H 393.001 4.2619 -2.46217 0
M  V30 4098 N 394.653 0.992116 1.22453 0
M  V30 4099 C 395.6 0.541731 2.24352 0
M  V30 4100 C 396.57 -0.425519 1.60557 0
M  V30 4101 O 397.755 -0.330453 1.87917 0
M  V30 4102 C 394.895 -0.138248 3.44823 0
M  V30 4103 C 394.008 0.870649 4.23136 0
M  V30 4104 C 393.143 0.164269 5.30946 0
M  V30 4105 C 392.182 1.16159 6.00977 0
M  V30 4106 N 391.319 0.483568 7.00433 0
M  V30 4107 H 396.159 1.41541 2.62241 0
M  V30 4108 H 393.696 0.709013 1.28885 0
M  V30 4109 H 395.654 -0.5494 4.13567 0
M  V30 4110 H 394.284 -0.975721 3.077 0
M  V30 4111 H 393.336 1.40013 3.53696 0
M  V30 4112 H 394.648 1.63014 4.7141 0
M  V30 4113 H 393.802 -0.303653 6.0594 0
M  V30 4114 H 392.541 -0.627733 4.83643 0
M  V30 4115 H 391.546 1.64015 5.24766 0
M  V30 4116 H 392.771 1.95445 6.50368 0
M  V30 4117 H 390.717 -0.289012 6.55363 0
M  V30 4118 H 390.634 1.18152 7.4671 0
M  V30 4119 H 391.902 0.0384219 7.79491 0
M  V30 4120 N 396.131 -1.37776 0.765217 0
M  V30 4121 C 397.081 -2.2768 0.12075 0
M  V30 4122 C 398.065 -1.45778 -0.680988 0
M  V30 4123 O 399.257 -1.684 -0.545033 0
M  V30 4124 C 396.386 -3.34722 -0.762626 0
M  V30 4125 C 395.472 -4.24074 0.0465881 0
M  V30 4126 N 395.863 -4.93939 1.08892 0
M  V30 4127 C 394.161 -4.45643 -0.178418 0
M  V30 4128 C 394.862 -5.59845 1.57951 0
M  V30 4129 N 393.838 -5.36218 0.892797 0
M  V30 4130 H 397.64 -2.79166 0.918889 0
M  V30 4131 H 395.154 -1.50816 0.602353 0
M  V30 4132 H 397.151 -3.98031 -1.24005 0
M  V30 4133 H 395.811 -2.84793 -1.55959 0
M  V30 4134 H 396.822 -4.96572 1.47095 0
M  V30 4135 H 393.499 -4.06599 -0.9478 0
M  V30 4136 H 394.889 -6.25703 2.44838 0
M  V30 4137 N 397.609 -0.515225 -1.4894 0
M  V30 4138 C 398.856 0.024215 -2.02486 0
M  V30 4139 C 399.184 1.35671 -1.39368 0
M  V30 4140 O 398.439 1.88566 -0.523574 0
M  V30 4141 C 398.738 0.210595 -3.56779 0
M  V30 4142 C 398.404 -1.04569 -4.38607 0
M  V30 4143 C 397.066 -1.39002 -4.60686 0
M  V30 4144 C 399.418 -1.88008 -4.86109 0
M  V30 4145 C 396.746 -2.568 -5.27514 0
M  V30 4146 C 399.098 -3.04972 -5.54234 0
M  V30 4147 C 397.762 -3.39768 -5.74555 0
M  V30 4148 H 397.032 0.00886088 -0.740947 0
M  V30 4149 H 399.679 -0.678263 -1.79086 0
M  V30 4150 H 397.984 0.99572 -3.78936 0
M  V30 4151 H 399.681 0.642659 -3.95817 0
M  V30 4152 H 396.271 -0.767497 -4.21672 0
M  V30 4153 H 400.455 -1.62719 -4.68867 0
M  V30 4154 H 395.711 -2.8398 -5.41447 0
M  V30 4155 H 399.885 -3.69943 -5.90013 0
M  V30 4156 H 397.512 -4.31148 -6.26112 0
M  V30 4157 N 399.087 1.5561 -0.249682 0
M  V30 4158 C 400.034 2.21496 0.648694 0
M  V30 4159 C 401.004 1.17977 1.16921 0
M  V30 4160 O 402.189 1.46434 1.22318 0
M  V30 4161 C 399.329 2.92039 1.83868 0
M  V30 4162 C 398.442 4.10219 1.35442 0
M  V30 4163 C 397.577 4.6847 2.50419 0
M  V30 4164 C 396.616 5.78893 1.98869 0
M  V30 4165 N 395.753 6.31315 3.07223 0
M  V30 4166 H 400.593 2.97892 0.0801582 0
M  V30 4167 H 398.13 1.47074 0.0278031 0
M  V30 4168 H 400.088 3.31138 2.53778 0
M  V30 4169 H 398.718 2.18111 2.37965 0
M  V30 4170 H 397.77 3.76413 0.54928 0
M  V30 4171 H 399.082 4.89927 0.936649 0
M  V30 4172 H 398.236 5.10158 3.28366 0
M  V30 4173 H 396.975 3.87984 2.95499 0
M  V30 4174 H 395.98 5.3668 1.19393 0
M  V30 4175 H 397.205 6.61232 1.54755 0
M  V30 4176 H 395.151 5.53733 3.51732 0
M  V30 4177 H 395.068 7.06224 2.69784 0
M  V30 4178 H 396.336 6.77662 3.8522 0
M  V30 4179 N 400.565 -0.0233959 1.57583 0
M  V30 4180 C 401.513 -1.04063 2.08023 0
M  V30 4181 C 402.507 -1.37084 0.995204 0
M  V30 4182 O 403.713 -1.35923 1.18004 0
M  V30 4183 H 400.088 -0.353144 0.663922 0
M  V30 4184 H 402.059 -0.589453 2.9252 0
M  V30 4185 C 400.808 -2.33123 2.57971 0
M  V30 4186 H 400.131 -2.08577 3.4108 0
M  V30 4187 H 401.571 -3.02632 2.96967 0
M  V30 4188 C 400.03 -3.02483 1.48342 0
M  V30 4189 O 400.56 -3.92541 0.852898 0
M  V30 4190 N 398.766 -2.63909 1.21658 0
M  V30 4191 H 398.313 -1.90758 1.73116 0
M  V30 4192 H 398.271 -3.10633 0.485218 0
M  V30 4193 N 402.043 -1.548 -0.295768 0
M  V30 4194 C 403.291 -1.73985 -1.02828 0
M  V30 4195 C 403.612 -0.531406 -1.87619 0
M  V30 4196 O 402.882 0.454221 -1.90561 0
M  V30 4197 H 401.462 -0.641556 -0.382642 0
M  V30 4198 H 404.124 -1.92163 -0.325489 0
M  V30 4199 H 403.22 -2.63129 -1.67838 0
M  V30 4200 N 403.521 0.559213 -1.47345 0
M  V30 4201 C 404.454 1.68201 -1.5422 0
M  V30 4202 C 405.432 1.57742 -0.394497 0
M  V30 4203 O 406.616 1.78628 -0.60201 0
M  V30 4204 C 403.743 3.0643 -1.44285 0
M  V30 4205 C 402.789 3.3534 -2.63532 0
M  V30 4206 S 403.622 3.24816 -4.25741 0
M  V30 4207 C 404.778 4.65542 -4.18355 0
M  V30 4208 H 405.011 1.62114 -2.49211 0
M  V30 4209 H 402.544 0.739871 -1.35519 0
M  V30 4210 H 404.502 3.86164 -1.3924 0
M  V30 4211 H 403.163 3.09984 -0.506816 0
M  V30 4212 H 402.356 4.36107 -2.52639 0
M  V30 4213 H 401.958 2.63221 -2.65689 0
M  V30 4214 H 404.25 5.56449 -3.86485 0
M  V30 4215 H 405.193 4.81493 -5.19202 0
M  V30 4216 H 405.601 4.43495 -3.49246 0
M  V30 4217 N 404.999 1.35443 0.805782 0
M  V30 4218 C 405.962 1.28301 1.89925 0
M  V30 4219 C 406.962 0.194285 1.59622 0
M  V30 4220 O 408.152 0.448036 1.6834 0
M  V30 4221 C 405.284 0.984997 3.2636 0
M  V30 4222 H 406.477 2.2553 1.97677 0
M  V30 4223 H 404.03 1.19979 1.00173 0
M  V30 4224 H 404.765 0.016603 3.24296 0
M  V30 4225 H 404.55 1.77269 3.4974 0
M  V30 4226 H 406.04 0.960651 4.064 0
M  V30 4227 N 406.477 -1.02803 1.19454 0
M  V30 4228 C 407.723 -1.76478 0.999171 0
M  V30 4229 C 408.056 -1.88456 -0.468828 0
M  V30 4230 O 407.331 -1.40198 -1.34814 0
M  V30 4231 C 407.614 -3.19044 1.66981 0
M  V30 4232 C 407.467 -3.14932 3.21151 0
M  V30 4233 C 408.786 -4.17456 1.39349 0
M  V30 4234 H 405.905 -0.640614 0.364393 0
M  V30 4235 H 408.547 -1.20005 1.47305 0
M  V30 4236 H 406.697 -3.67263 1.2669 0
M  V30 4237 H 408.369 -2.74605 3.70661 0
M  V30 4238 H 406.612 -2.52625 3.52652 0
M  V30 4239 H 407.283 -4.1566 3.63223 0
M  V30 4240 H 409.759 -3.77842 1.74283 0
M  V30 4241 H 408.635 -5.154 1.88823 0
M  V30 4242 H 408.896 -4.40949 0.318813 0
M  V30 4243 N 407.956 -0.998596 -1.21925 0
M  V30 4244 C 408.919 -0.558679 -2.22287 0
M  V30 4245 C 409.919 0.361525 -1.56683 0
M  V30 4246 O 411.109 0.152695 -1.73529 0
M  V30 4247 C 408.241 0.18661 -3.40389 0
M  V30 4248 H 409.434 -1.4463 -2.62721 0
M  V30 4249 H 406.987 -0.786413 -1.35075 0
M  V30 4250 H 407.722 1.08996 -3.05435 0
M  V30 4251 H 407.507 -0.474188 -3.89222 0
M  V30 4252 H 408.997 0.482367 -4.14805 0
M  V30 4253 N 409.434 1.37368 -0.772513 0
M  V30 4254 C 410.366 2.28899 -0.117502 0
M  V30 4255 C 411.379 1.4867 0.663405 0
M  V30 4256 O 412.568 1.71314 0.501372 0
M  V30 4257 C 409.668 3.2788 0.857192 0
M  V30 4258 C 408.841 4.37207 0.129938 0
M  V30 4259 C 407.9 5.16257 1.01811 0
M  V30 4260 O 406.926 5.67159 0.481601 0
M  V30 4261 N 408.128 5.31058 2.3443 0
M  V30 4262 H 410.893 2.85752 -0.903662 0
M  V30 4263 H 408.454 1.49353 -0.62493 0
M  V30 4264 H 410.446 3.77647 1.45482 0
M  V30 4265 H 409.016 2.7179 1.54432 0
M  V30 4266 H 408.236 3.88827 -0.648605 0
M  V30 4267 H 409.524 5.07434 -0.372559 0
M  V30 4268 H 408.922 4.91287 2.80452 0
M  V30 4269 H 407.479 5.84131 2.89197 0
M  V30 4270 N 410.912 0.523116 1.48665 0
M  V30 4271 C 412.159 -0.0134763 2.02496 0
M  V30 4272 C 412.487 -1.3493 1.40086 0
M  V30 4273 O 411.742 -1.88286 0.533567 0
M  V30 4274 C 412.041 -0.191671 3.56886 0
M  V30 4275 C 411.707 1.06893 4.38046 0
M  V30 4276 C 410.369 1.41443 4.59943 0
M  V30 4277 C 412.721 1.90584 4.85106 0
M  V30 4278 C 410.049 2.59594 5.26144 0
M  V30 4279 C 412.401 3.07907 5.52609 0
M  V30 4280 C 411.065 3.42811 5.72745 0
M  V30 4281 H 410.335 -0.00493133 0.740984 0
M  V30 4282 H 412.982 0.687751 1.78724 0
M  V30 4283 H 411.287 -0.97561 3.79459 0
M  V30 4284 H 412.984 -0.621659 3.96152 0
M  V30 4285 H 409.574 0.789848 4.21259 0
M  V30 4286 H 413.758 1.65203 4.67997 0
M  V30 4287 H 409.014 2.86847 5.39934 0
M  V30 4288 H 413.188 3.73066 5.88043 0
M  V30 4289 H 410.815 4.34462 6.23816 0
M  V30 4290 N 412.39 -1.55475 0.257931 0
M  V30 4291 C 413.32 -2.24815 -0.630912 0
M  V30 4292 C 414.301 -1.23224 -1.17259 0
M  V30 4293 O 415.486 -1.51904 -1.20991 0
M  V30 4294 C 412.616 -2.95609 -1.82298 0
M  V30 4295 C 411.57 -4.03982 -1.41359 0
M  V30 4296 C 410.896 -4.6226 -2.68738 0
M  V30 4297 C 412.196 -5.19109 -0.57648 0
M  V30 4298 H 413.89 -2.99354 -0.0526878 0
M  V30 4299 H 411.436 -1.4398 -0.023901 0
M  V30 4300 H 413.389 -3.42822 -2.45054 0
M  V30 4301 H 412.113 -2.18577 -2.42676 0
M  V30 4302 H 410.772 -3.57555 -0.809324 0
M  V30 4303 H 410.42 -3.81915 -3.27338 0
M  V30 4304 H 410.12 -5.35424 -2.42065 0
M  V30 4305 H 411.644 -5.12212 -3.32372 0
M  V30 4306 H 413.058 -5.62479 -1.10861 0
M  V30 4307 H 411.455 -5.98729 -0.405351 0
M  V30 4308 H 412.525 -4.83174 0.408776 0
M  V30 4309 N 413.868 0.0150385 -1.57593 0
M  V30 4310 C 414.778 1.02791 -2.10882 0
M  V30 4311 C 415.794 1.38702 -1.0506 0
M  V30 4312 O 416.97 1.47739 -1.36877 0
M  V30 4313 C 414.035 2.30568 -2.58919 0
M  V30 4314 C 413.096 2.01108 -3.79281 0
M  V30 4315 C 412.329 3.22794 -4.25018 0
M  V30 4316 O 412.552 4.33959 -3.70183 0
M  V30 4317 O 411.486 3.07672 -5.17322 0
M  V30 4318 H 415.312 0.604973 -2.97613 0
M  V30 4319 H 412.897 0.23292 -1.47573 0
M  V30 4320 H 414.779 3.05662 -2.90084 0
M  V30 4321 H 413.454 2.72129 -1.75293 0
M  V30 4322 H 412.361 1.23537 -3.53114 0
M  V30 4323 H 413.694 1.64394 -4.63935 0
M  V30 4324 N 415.346 1.54954 0.287554 0
M  V30 4325 C 416.571 1.79209 1.04397 0
M  V30 4326 C 416.996 0.556431 1.79682 0
M  V30 4327 O 416.354 -0.493518 1.74454 0
M  V30 4328 C 416.402 3.00739 1.98969 0
M  V30 4329 O 415.506 2.74805 3.075 0
M  V30 4330 H 414.847 0.592755 0.299227 0
M  V30 4331 H 417.377 2.02068 0.320886 0
M  V30 4332 H 417.387 3.29077 2.4119 0
M  V30 4333 H 416.062 3.90329 1.43582 0
M  V30 4334 H 414.639 2.57523 2.69697 0
M  V30 4335 N 416.824 -0.551391 1.4764 0
M  V30 4336 C 417.772 -1.67896 1.60978 0
M  V30 4337 C 418.766 -1.62549 0.476877 0
M  V30 4338 O 419.972 -1.67664 0.654878 0
M  V30 4339 H 416.347 -0.555649 0.506713 0
M  V30 4340 H 418.318 -1.53784 2.55721 0
M  V30 4341 C 417.067 -3.06234 1.64669 0
M  V30 4342 H 416.39 -3.11033 2.51194 0
M  V30 4343 H 417.83 -3.84804 1.7805 0
M  V30 4344 C 416.289 -3.34737 0.381115 0
M  V30 4345 O 416.819 -3.98381 -0.515297 0
M  V30 4346 N 415.025 -2.8944 0.259354 0
M  V30 4347 H 414.572 -2.37827 0.98976 0
M  V30 4348 H 414.53 -3.08882 -0.586464 0
M  V30 4349 N 418.302 -1.35869 -0.798587 0
M  V30 4350 C 419.713 -1.26498 -1.37314 0
M  V30 4351 C 420.064 0.0991899 -1.95949 0
M  V30 4352 O 419.189 1.0004 -1.91888 0
M  V30 4353 C 419.784 -2.29054 -2.49639 0
M  V30 4354 C 418.343 -2.234 -3.02935 0
M  V30 4355 C 417.49 -2.14329 -1.75949 0
M  V30 4356 H 420.441 -1.46881 -0.600971 0
M  V30 4357 H 420.462 -1.92166 -3.28409 0
M  V30 4358 H 419.974 -3.2833 -2.06933 0
M  V30 4359 H 418.075 -1.27562 -3.50084 0
M  V30 4360 H 418.188 -3.15703 -3.60372 0
M  V30 4361 H 416.552 -1.60435 -1.9782 0
M  V30 4362 H 417.335 -3.15477 -1.35384 0
M  V30 4363 N 419.78 1.02168 -1.19998 0
M  V30 4364 C 421.026 1.7606 -1.01855 0
M  V30 4365 C 421.381 1.87178 0.445222 0
M  V30 4366 O 420.674 1.3828 1.32624 0
M  V30 4367 C 420.868 3.18081 -1.62969 0
M  V30 4368 C 420.697 3.20809 -3.15137 0
M  V30 4369 C 419.467 3.28342 -3.84083 0
M  V30 4370 C 421.665 3.07268 -4.1242 0
M  V30 4371 N 419.647 3.2052 -5.23584 0
M  V30 4372 C 421.018 3.0716 -5.38566 0
M  V30 4373 C 423.073 2.91448 -4.03686 0
M  V30 4374 C 421.776 2.92853 -6.56985 0
M  V30 4375 C 423.802 2.78494 -5.21723 0
M  V30 4376 C 423.164 2.79046 -6.46771 0
M  V30 4377 H 419.263 0.655192 -0.426905 0
M  V30 4378 H 421.847 1.21564 -1.52087 0
M  V30 4379 H 420.018 3.70882 -1.15329 0
M  V30 4380 H 421.75 3.80375 -1.38192 0
M  V30 4381 H 418.505 3.34859 -3.34913 0
M  V30 4382 H 418.929 3.19997 -5.96599 0
M  V30 4383 H 423.571 2.89838 -3.07821 0
M  V30 4384 H 421.289 2.93213 -7.53028 0
M  V30 4385 H 424.875 2.67278 -5.16773 0
M  V30 4386 H 423.755 2.69134 -7.36571 0
M  V30 4387 N 421.258 1.00505 1.21394 0
M  V30 4388 C 422.504 0.688793 1.90745 0
M  V30 4389 C 422.837 -0.778486 1.77914 0
M  V30 4390 O 422.112 -1.56433 1.15581 0
M  V30 4391 C 422.395 1.11063 3.42545 0
M  V30 4392 C 422.248 2.63737 3.64367 0
M  V30 4393 C 423.567 0.673059 4.34923 0
M  V30 4394 H 420.686 0.251702 0.692687 0
M  V30 4395 H 423.328 1.25074 1.43026 0
M  V30 4396 H 421.478 0.632508 3.83317 0
M  V30 4397 H 423.15 3.19313 3.32922 0
M  V30 4398 H 421.393 3.05248 3.08231 0
M  V30 4399 H 422.064 2.88305 4.70727 0
M  V30 4400 H 424.54 1.08392 4.01734 0
M  V30 4401 H 423.416 0.996383 5.39781 0
M  V30 4402 H 423.677 -0.425808 4.40045 0
M  V30 4403 N 422.737 -1.36956 0.779787 0
M  V30 4404 C 423.647 -2.33965 0.172491 0
M  V30 4405 C 424.663 -1.60574 -0.670222 0
M  V30 4406 O 425.839 -1.92617 -0.588263 0
M  V30 4407 C 422.904 -3.39761 -0.690173 0
M  V30 4408 C 421.965 -4.28964 0.169924 0
M  V30 4409 C 421.198 -5.29707 -0.651662 0
M  V30 4410 O 421.421 -5.38238 -1.88827 0
M  V30 4411 O 420.355 -6.01873 -0.0566264 0
M  V30 4412 H 424.181 -2.87647 0.974321 0
M  V30 4413 H 421.766 -1.39258 0.541078 0
M  V30 4414 H 423.648 -4.04471 -1.1824 0
M  V30 4415 H 422.323 -2.88394 -1.47006 0
M  V30 4416 H 421.23 -3.67326 0.708696 0
M  V30 4417 H 422.563 -4.83656 0.913085 0
M  V30 4418 N 424.215 -0.530993 -1.48385 0
M  V30 4419 C 425.162 0.231223 -2.29639 0
M  V30 4420 C 426.132 0.932864 -1.37429 0
M  V30 4421 O 427.317 0.933692 -1.66394 0
M  V30 4422 C 424.457 1.27155 -3.2082 0
M  V30 4423 C 423.57 0.578655 -4.28107 0
M  V30 4424 C 422.705 1.602 -5.06467 0
M  V30 4425 C 421.744 0.892625 -6.05556 0
M  V30 4426 N 420.881 1.86157 -6.76971 0
M  V30 4427 H 425.721 -0.467848 -2.94305 0
M  V30 4428 H 423.258 -0.242556 -1.45086 0
M  V30 4429 H 425.216 1.88703 -3.72085 0
M  V30 4430 H 423.846 1.939 -2.58075 0
M  V30 4431 H 422.898 -0.150782 -3.80101 0
M  V30 4432 H 424.21 0.0217065 -4.98795 0
M  V30 4433 H 423.364 2.29173 -5.61751 0
M  V30 4434 H 422.103 2.19285 -4.35621 0
M  V30 4435 H 421.108 0.188829 -5.49476 0
M  V30 4436 H 422.333 0.307878 -6.78402 0
M  V30 4437 H 420.279 2.44147 -6.08875 0
M  V30 4438 H 420.196 1.35608 -7.43738 0
M  V30 4439 H 421.464 2.54325 -7.36844 0
M  V30 4440 N 425.693 1.55336 -0.266172 0
M  V30 4441 C 426.939 1.99692 0.353681 0
M  V30 4442 C 427.272 1.1543 1.56172 0
M  V30 4443 O 426.547 0.222218 1.93226 0
M  V30 4444 C 426.83 3.52316 0.74466 0
M  V30 4445 C 426.683 4.47337 -0.470101 0
M  V30 4446 C 428.002 4.10588 1.58447 0
M  V30 4447 H 425.121 0.725961 0.12708 0
M  V30 4448 H 427.763 1.86336 -0.371333 0
M  V30 4449 H 425.913 3.63829 1.36239 0
M  V30 4450 H 427.585 4.4778 -1.10864 0
M  V30 4451 H 425.828 4.19364 -1.10978 0
M  V30 4452 H 426.499 5.51788 -0.15291 0
M  V30 4453 H 428.975 4.02297 1.06286 0
M  V30 4454 H 427.851 5.17607 1.82686 0
M  V30 4455 H 428.112 3.60253 2.56262 0
M  V30 4456 N 427.171 -0.0066808 1.57599 0
M  V30 4457 C 428.42 -0.692078 1.89455 0
M  V30 4458 C 428.733 -1.75306 0.867586 0
M  V30 4459 O 429.939 -2.49262 1.07614 0
M  V30 4460 C 428.395 -1.2821 3.36289 0
M  V30 4461 C 428.003 -0.256291 4.47266 0
M  V30 4462 C 429.747 -1.94608 3.77264 0
M  V30 4463 C 427.654 -0.855927 5.85173 0
M  V30 4464 H 426.584 -0.262252 0.706923 0
M  V30 4465 H 429.235 0.052769 1.83424 0
M  V30 4466 H 427.617 -2.0774 3.37135 0
M  V30 4467 H 428.791 0.513923 4.57925 0
M  V30 4468 H 427.106 0.306862 4.15268 0
M  V30 4469 H 429.703 -2.40364 4.77629 0
M  V30 4470 H 430.046 -2.77382 3.10427 0
M  V30 4471 H 430.579 -1.21822 3.78688 0
M  V30 4472 H 427.318 -0.0671161 6.55466 0
M  V30 4473 H 426.838 -1.59546 5.78191 0
M  V30 4474 H 428.517 -1.35658 6.32618 0
M  V30 4475 N 428.649 -1.55105 -0.279332 0
M  V30 4476 C 429.879 -1.7917 -1.02867 0
M  V30 4477 C 430.287 -0.56204 -1.80659 0
M  V30 4478 O 429.63 0.478266 -1.77365 0
M  V30 4479 C 429.692 -2.96061 -2.03932 0
M  V30 4480 C 429.356 -4.33341 -1.45137 0
M  V30 4481 C 430.353 -5.12565 -0.870266 0
M  V30 4482 C 428.038 -4.79987 -1.48048 0
M  V30 4483 C 430.032 -6.36565 -0.326097 0
M  V30 4484 C 427.719 -6.03944 -0.932443 0
M  V30 4485 C 428.717 -6.8207 -0.356247 0
M  V30 4486 O 428.405 -8.03691 0.183412 0
M  V30 4487 H 428.137 -0.600796 -0.309872 0
M  V30 4488 H 430.691 -2.02932 -0.317468 0
M  V30 4489 H 428.921 -2.67975 -2.78794 0
M  V30 4490 H 430.61 -3.07506 -2.64943 0
M  V30 4491 H 431.376 -4.77661 -0.840521 0
M  V30 4492 H 427.255 -4.1919 -1.91835 0
M  V30 4493 H 430.799 -6.97489 0.124286 0
M  V30 4494 H 426.696 -6.3833 -0.959407 0
M  V30 4495 H 427.464 -8.18468 0.0721681 0
M  V30 4496 N 430.127 0.543554 -1.4793 0
M  V30 4497 C 431.538 1.12561 -1.48953 0
M  V30 4498 C 431.889 1.94578 -0.251754 0
M  V30 4499 O 431.014 2.0665 0.642255 0
M  V30 4500 C 431.609 2.04801 -2.69892 0
M  V30 4501 C 430.168 2.58251 -2.73831 0
M  V30 4502 C 429.315 1.34918 -2.42265 0
M  V30 4503 H 432.266 0.32947 -1.55242 0
M  V30 4504 H 432.287 2.88886 -2.47639 0
M  V30 4505 H 431.799 1.4508 -3.59963 0
M  V30 4506 H 429.9 3.21732 -1.87934 0
M  V30 4507 H 430.013 2.98312 -3.74895 0
M  V30 4508 H 428.377 1.66046 -1.93134 0
M  V30 4509 H 429.16 0.769693 -3.3456 0
M  V30 4510 N 431.605 1.3629 0.791371 0
M  V30 4511 C 432.853 1.30154 1.5461 0
M  V30 4512 C 433.174 -0.119409 1.94634 0
M  V30 4513 O 432.444 -1.05924 1.64794 0
M  V30 4514 H 431.024 0.478784 0.573389 0
M  V30 4515 H 433.686 1.70565 0.94306 0
M  V30 4516 H 432.782 1.92762 2.45457 0
M  V30 4517 N 433.083 -1.0153 1.20538 0
M  V30 4518 C 434.013 -2.11972 0.979295 0
M  V30 4519 C 434.994 -1.6985 -0.0921787 0
M  V30 4520 O 436.179 -1.94089 0.0655932 0
M  V30 4521 C 433.309 -3.43201 0.531984 0
M  V30 4522 C 432.263 -3.9907 1.54685 0
M  V30 4523 C 431.589 -5.26082 0.956127 0
M  V30 4524 C 432.889 -4.32313 2.93092 0
M  V30 4525 H 434.583 -2.31143 1.90298 0
M  V30 4526 H 432.129 -1.11079 0.916372 0
M  V30 4527 H 434.082 -4.1985 0.361044 0
M  V30 4528 H 432.806 -3.23792 -0.427327 0
M  V30 4529 H 431.465 -3.2453 1.70517 0
M  V30 4530 H 431.113 -5.02999 -0.0111538 0
M  V30 4531 H 430.813 -5.64426 1.63393 0
M  V30 4532 H 432.337 -6.05386 0.796284 0
M  V30 4533 H 433.751 -4.99845 2.80763 0
M  V30 4534 H 432.148 -4.81774 3.57791 0
M  V30 4535 H 433.218 -3.41025 3.44717 0
M  V30 4536 N 434.561 -1.01147 -1.20859 0
M  V30 4537 C 435.972 -0.730205 -1.71828 0
M  V30 4538 C 436.323 0.751662 -1.8123 0
M  V30 4539 O 435.448 1.58686 -1.47132 0
M  V30 4540 C 436.043 -1.31885 -3.12077 0
M  V30 4541 C 434.602 -1.08656 -3.60376 0
M  V30 4542 C 433.749 -1.42769 -2.37723 0
M  V30 4543 H 436.7 -1.18158 -1.05945 0
M  V30 4544 H 436.721 -0.706793 -3.73878 0
M  V30 4545 H 436.233 -2.39737 -3.05201 0
M  V30 4546 H 434.334 -0.0254814 -3.72591 0
M  V30 4547 H 434.447 -1.76301 -4.45483 0
M  V30 4548 H 432.811 -0.846603 -2.40218 0
M  V30 4549 H 433.594 -2.51666 -2.33493 0
M  V30 4550 N 436.039 1.36541 -0.78704 0
M  V30 4551 C 437.264 2.0409 -0.369053 0
M  V30 4552 C 437.689 1.58957 1.00569 0
M  V30 4553 O 437.047 0.756926 1.64743 0
M  V30 4554 C 437.095 3.57924 -0.438466 0
M  V30 4555 O 436.199 4.08642 0.555479 0
M  V30 4556 H 435.54 0.645142 -0.157122 0
M  V30 4557 H 438.07 1.74545 -1.06749 0
M  V30 4558 H 438.08 4.06887 -0.301218 0
M  V30 4559 H 436.755 3.90127 -1.44132 0
M  V30 4560 H 435.332 3.70958 0.380088 0
M  V30 4561 N 437.518 0.538854 1.48102 0
M  V30 4562 C 438.468 -0.23907 2.26743 0
M  V30 4563 C 439.452 -0.901923 1.33245 0
M  V30 4564 O 440.644 -0.803263 1.57723 0
M  V30 4565 C 437.773 -1.2799 3.18549 0
M  V30 4566 C 436.859 -0.621388 4.19523 0
M  V30 4567 N 437.25 0.298004 5.04921 0
M  V30 4568 C 435.548 -0.877533 4.37282 0
M  V30 4569 C 436.249 0.678757 5.77726 0
M  V30 4570 N 435.225 0.0377881 5.43587 0
M  V30 4571 H 439.027 0.468096 2.90148 0
M  V30 4572 H 436.541 0.357497 1.58416 0
M  V30 4573 H 438.538 -1.851 3.73555 0
M  V30 4574 H 437.198 -1.98835 2.567 0
M  V30 4575 H 438.209 0.671126 5.13533 0
M  V30 4576 H 434.886 -1.57588 3.86616 0
M  V30 4577 H 436.276 1.43316 6.56437 0
M  V30 4578 N 438.996 -1.55193 0.274407 0
M  V30 4579 C 440.407 -1.85358 -0.223488 0
M  V30 4580 C 440.758 -1.19642 -1.555 0
M  V30 4581 O 439.883 -0.484498 -2.10907 0
M  V30 4582 C 440.478 -3.36282 -0.412285 0
M  V30 4583 C 439.037 -3.66574 -0.854413 0
M  V30 4584 C 438.184 -2.7725 0.0527056 0
M  V30 4585 H 441.135 -1.50743 0.496215 0
M  V30 4586 H 441.156 -3.59349 -1.25094 0
M  V30 4587 H 440.668 -3.84083 0.556965 0
M  V30 4588 H 438.769 -3.24273 -1.83516 0
M  V30 4589 H 438.882 -4.74073 -0.692226 0
M  V30 4590 H 437.246 -2.50447 -0.463484 0
M  V30 4591 H 438.029 -3.27865 1.01783 0
M  V30 4592 N 440.474 -0.00167713 -1.576 0
M  V30 4593 C 441.406 1.0174 -2.05382 0
M  V30 4594 C 442.419 1.30595 -0.972052 0
M  V30 4595 O 443.608 1.27542 -1.24882 0
M  V30 4596 C 440.708 2.35174 -2.44022 0
M  V30 4597 C 439.881 2.25234 -3.74951 0
M  V30 4598 C 438.94 3.4137 -4.00441 0
M  V30 4599 O 437.966 3.19483 -4.71083 0
M  V30 4600 N 439.168 4.64275 -3.48467 0
M  V30 4601 H 441.933 0.609902 -2.93428 0
M  V30 4602 H 439.494 0.185672 -1.60832 0
M  V30 4603 H 441.486 3.11643 -2.58187 0
M  V30 4604 H 440.056 2.67659 -1.61485 0
M  V30 4605 H 439.276 1.33664 -3.70847 0
M  V30 4606 H 440.564 2.15767 -4.60784 0
M  V30 4607 H 439.962 4.84955 -2.91264 0
M  V30 4608 H 438.519 5.38005 -3.67959 0
M  V30 4609 N 441.952 1.55251 0.271103 0
M  V30 4610 C 442.902 1.84649 1.33749 0
M  V30 4611 C 443.886 0.705529 1.44607 0
M  V30 4612 O 445.078 0.966916 1.48256 0
M  V30 4613 C 442.207 2.12354 2.69742 0
M  V30 4614 C 441.293 3.32714 2.62988 0
M  V30 4615 N 441.684 4.52575 2.25853 0
M  V30 4616 C 439.982 3.35341 2.94045 0
M  V30 4617 C 440.683 5.34669 2.29136 0
M  V30 4618 N 439.659 4.73123 2.67685 0
M  V30 4619 H 443.461 2.74865 1.0405 0
M  V30 4620 H 440.975 1.55152 0.479738 0
M  V30 4621 H 442.972 2.31572 3.4667 0
M  V30 4622 H 441.632 1.23422 3.00328 0
M  V30 4623 H 442.643 4.78639 1.978 0
M  V30 4624 H 439.32 2.56608 3.2933 0
M  V30 4625 H 440.71 6.40509 2.02971 0
M  V30 4626 N 443.43 -0.535701 1.48216 0
M  V30 4627 C 444.34 -1.66785 1.64985 0
M  V30 4628 C 445.356 -1.65654 0.532414 0
M  V30 4629 O 446.532 -1.8471 0.80275 0
M  V30 4630 C 443.597 -3.0326 1.68031 0
M  V30 4631 C 442.658 -3.1529 2.9136 0
M  V30 4632 C 441.891 -4.45255 2.94252 0
M  V30 4633 O 442.114 -5.32011 2.05719 0
M  V30 4634 O 441.048 -4.6153 3.86359 0
M  V30 4635 H 444.874 -1.55576 2.60825 0
M  V30 4636 H 442.459 -0.70815 1.31551 0
M  V30 4637 H 444.341 -3.84436 1.72589 0
M  V30 4638 H 443.016 -3.14805 0.753628 0
M  V30 4639 H 441.923 -2.3343 2.92337 0
M  V30 4640 H 443.256 -3.08658 3.83394 0
M  V30 4641 N 444.908 -1.36708 -0.784132 0
M  V30 4642 C 445.838 -1.34153 -1.91116 0
M  V30 4643 C 446.819 -0.212121 -1.68772 0
M  V30 4644 O 448.004 -0.410581 -1.8981 0
M  V30 4645 C 445.134 -1.13535 -3.28218 0
M  V30 4646 C 444.088 -2.23356 -3.65097 0
M  V30 4647 C 443.414 -1.87875 -5.00607 0
M  V30 4648 C 444.714 -3.65473 -3.73131 0
M  V30 4649 H 446.408 -2.28459 -1.93512 0
M  V30 4650 H 443.954 -1.09973 -0.929618 0
M  V30 4651 H 445.907 -1.10381 -4.06687 0
M  V30 4652 H 444.631 -0.156804 -3.26223 0
M  V30 4653 H 443.29 -2.25645 -2.88929 0
M  V30 4654 H 442.938 -0.885814 -4.95139 0
M  V30 4655 H 442.638 -2.61406 -5.26252 0
M  V30 4656 H 444.162 -1.86286 -5.81489 0
M  V30 4657 H 445.576 -3.65382 -4.41779 0
M  V30 4658 H 443.973 -4.37953 -4.10265 0
M  V30 4659 H 445.043 -3.99995 -2.74102 0
M  V30 4660 N 446.386 1.0089 -1.21074 0
M  V30 4661 C 447.632 1.74866 -1.02712 0
M  V30 4662 C 447.965 1.89178 0.438787 0
M  V30 4663 O 447.24 1.42325 1.32567 0
M  V30 4664 C 447.523 3.16347 -1.72036 0
M  V30 4665 C 447.376 3.09782 -3.26121 0
M  V30 4666 C 448.695 4.15187 -1.45973 0
M  V30 4667 H 445.814 0.634736 -0.374539 0
M  V30 4668 H 448.456 1.17646 -1.49196 0
M  V30 4669 H 446.606 3.65201 -1.32517 0
M  V30 4670 H 448.278 2.68673 -3.74983 0
M  V30 4671 H 446.521 2.46982 -3.56626 0
M  V30 4672 H 447.192 4.09829 -3.6979 0
M  V30 4673 H 449.668 3.75022 -1.80272 0
M  V30 4674 H 448.544 5.12331 -1.96999 0
M  V30 4675 H 448.805 4.40386 -0.388924 0
M  V30 4676 N 447.864 1.01787 1.20321 0
M  V30 4677 C 448.811 0.589197 2.23153 0
M  V30 4678 C 449.781 -0.391367 1.61423 0
M  V30 4679 O 450.966 -0.290518 1.88575 0
M  V30 4680 C 448.106 -0.0650747 3.45039 0
M  V30 4681 C 447.219 0.960207 4.21194 0
M  V30 4682 C 446.354 0.276854 5.30478 0
M  V30 4683 C 445.393 1.2888 5.98378 0
M  V30 4684 N 444.53 0.632031 6.99249 0
M  V30 4685 H 449.37 1.47071 2.59179 0
M  V30 4686 H 446.907 0.736192 1.27352 0
M  V30 4687 H 448.865 -0.461552 4.14639 0
M  V30 4688 H 447.495 -0.910233 3.09701 0
M  V30 4689 H 446.547 1.47484 3.50646 0
M  V30 4690 H 447.859 1.72977 4.67847 0
M  V30 4691 H 447.013 -0.175056 6.06447 0
M  V30 4692 H 445.752 -0.525004 4.84866 0
M  V30 4693 H 444.757 1.75109 5.21169 0
M  V30 4694 H 445.982 2.09196 6.46076 0
M  V30 4695 H 443.928 -0.149935 6.55829 0
M  V30 4696 H 443.845 1.33964 7.44036 0
M  V30 4697 H 445.113 0.203755 7.79234 0
M  V30 4698 N 449.342 -1.36122 0.79427 0
M  V30 4699 C 450.758 -1.5232 0.476525 0
M  V30 4700 C 450.958 -1.74685 -1.00436 0
M  V30 4701 O 450.014 -1.78115 -1.78973 0
M  V30 4702 C 451.327 -2.70607 1.31119 0
M  V30 4703 C 452.875 -2.8448 1.30537 0
M  V30 4704 C 453.35 -4.05778 2.12387 0
M  V30 4705 N 454.841 -4.12933 2.09859 0
M  V30 4706 C 455.576 -5.05876 2.69957 0
M  V30 4707 N 455.072 -6.04232 3.38934 0
M  V30 4708 N 456.865 -4.98528 2.59665 0
M  V30 4709 H 449.016 -1.1986 1.75349 0
M  V30 4710 H 451.279 -0.585418 0.745647 0
M  V30 4711 H 450.985 -2.60619 2.36158 0
M  V30 4712 H 450.859 -3.64888 0.955843 0
M  V30 4713 H 453.246 -2.93927 0.262876 0
M  V30 4714 H 453.327 -1.91093 1.70051 0
M  V30 4715 H 452.971 -3.97092 3.1667 0
M  V30 4716 H 452.901 -4.98323 1.70242 0
M  V30 4717 H 455.392 -3.42515 1.59662 0
M  V30 4718 H 455.705 -6.71724 3.82109 0
M  V30 4719 H 454.05 -6.04443 3.43036 0
M  V30 4720 H 457.241 -4.20641 2.05375 0
M  V30 4721 H 457.414 -5.70773 3.06793 0
M  V30 4722 N 450.82 -0.546701 -1.47814 0
M  V30 4723 C 451.752 0.244196 -2.27895 0
M  V30 4724 C 452.765 0.88911 -1.36377 0
M  V30 4725 O 453.954 0.764733 -1.61289 0
M  V30 4726 C 451.054 1.36252 -3.10304 0
M  V30 4727 C 450.227 0.816382 -4.29714 0
M  V30 4728 C 449.286 1.81789 -4.93801 0
M  V30 4729 O 448.312 1.36818 -5.52512 0
M  V30 4730 N 449.514 3.15085 -4.87547 0
M  V30 4731 H 452.279 -0.442694 -2.96412 0
M  V30 4732 H 449.84 -0.382095 -1.57327 0
M  V30 4733 H 451.832 2.03102 -3.50045 0
M  V30 4734 H 450.402 1.95281 -2.44099 0
M  V30 4735 H 449.622 -0.0285981 -3.9419 0
M  V30 4736 H 450.91 0.430668 -5.06974 0
M  V30 4737 H 450.308 3.54275 -4.41028 0
M  V30 4738 H 448.865 3.77522 -5.31339 0
M  V30 4739 N 452.299 1.55045 -0.282633 0
M  V30 4740 C 453.539 2.01668 0.333088 0
M  V30 4741 C 453.903 1.1667 1.52486 0
M  V30 4742 O 455.104 1.52907 2.21072 0
M  V30 4743 C 453.375 3.50509 0.698442 0
M  V30 4744 S 454.934 4.19112 1.29963 0
M  V30 4745 H 451.752 0.703468 0.103219 0
M  V30 4746 H 454.354 1.91233 -0.406222 0
M  V30 4747 H 453.058 4.10015 -0.177693 0
M  V30 4748 H 452.589 3.64943 1.46902 0
M  V30 4749 H 454.604 4.23362 2.58803 0
M  V30 4750 N 453.777 0.010035 1.57597 0
M  V30 4751 C 455.005 -0.683413 1.95287 0
M  V30 4752 C 455.42 -1.66747 0.885481 0
M  V30 4753 O 454.777 -1.82003 -0.134629 0
M  V30 4754 C 454.828 -1.40652 3.33015 0
M  V30 4755 O 454.549 -0.461916 4.35658 0
M  V30 4756 C 456.05 -2.19356 3.85225 0
M  V30 4757 H 453.27 -0.189708 0.643624 0
M  V30 4758 H 455.814 0.0641359 2.04399 0
M  V30 4759 H 453.969 -2.10562 3.2518 0
M  V30 4760 H 454.383 -0.973215 5.15392 0
M  V30 4761 H 455.857 -2.65433 4.83993 0
M  V30 4762 H 456.334 -3.02457 3.18459 0
M  V30 4763 H 456.94 -1.54442 3.96267 0
M  V30 4764 N 455.255 -1.55392 -0.262866 0
M  V30 4765 C 456.503 -1.76127 -0.991147 0
M  V30 4766 C 456.824 -0.571083 -1.8645 0
M  V30 4767 O 456.094 0.413698 -1.91482 0
M  V30 4768 H 454.674 -0.649528 -0.368948 0
M  V30 4769 H 457.336 -1.9281 -0.284655 0
M  V30 4770 H 456.432 -2.6663 -1.62219 0
M  V30 4771 N 456.733 0.527833 -1.48498 0
M  V30 4772 C 457.973 1.29401 -1.58224 0
M  V30 4773 C 458.337 1.90348 -0.251327 0
M  V30 4774 O 459.538 2.67868 -0.223588 0
M  V30 4775 C 457.809 2.35266 -2.69044 0
M  V30 4776 S 459.368 3.2158 -2.98549 0
M  V30 4777 H 456.186 0.440138 -0.558391 0
M  V30 4778 H 458.788 0.601079 -1.8603 0
M  V30 4779 H 457.492 1.88975 -3.64303 0
M  V30 4780 H 457.023 3.09263 -2.43146 0
M  V30 4781 H 459.038 4.35391 -2.38011 0
M  V30 4782 N 458.211 1.37122 0.776871 0
M  V30 4783 C 459.439 1.3523 1.5659 0
M  V30 4784 C 459.854 -0.0635518 1.88693 0
M  V30 4785 O 459.211 -1.02394 1.51069 0
M  V30 4786 C 459.262 2.18583 2.8793 0
M  V30 4787 O 458.983 3.5465 2.57206 0
M  V30 4788 C 460.484 2.24612 3.82183 0
M  V30 4789 H 457.704 0.4634 0.485285 0
M  V30 4790 H 460.248 1.80392 0.963266 0
M  V30 4791 H 458.403 1.76943 3.4463 0
M  V30 4792 H 458.817 3.98286 3.41275 0
M  V30 4793 H 460.291 2.87267 4.71361 0
M  V30 4794 H 460.768 1.25309 4.20944 0
M  V30 4795 H 461.374 2.66543 3.31414 0
M  V30 4796 N 459.689 -1.00246 1.21608 0
M  V30 4797 C 460.937 -1.73717 1.0328 0
M  V30 4798 C 461.258 -1.90102 -0.434318 0
M  V30 4799 O 460.528 -1.45376 -1.31311 0
M  V30 4800 H 459.108 -0.643613 0.379172 0
M  V30 4801 H 461.77 -1.20787 1.52959 0
M  V30 4802 H 460.866 -2.73535 1.50283 0
M  V30 4803 N 461.167 -1.02423 -1.1978 0
M  V30 4804 C 462.1 -0.545641 -2.21581 0
M  V30 4805 C 463.078 0.411024 -1.57319 0
M  V30 4806 O 464.262 0.329223 -1.85603 0
M  V30 4807 C 461.389 0.204973 -3.38079 0
M  V30 4808 C 460.435 -0.70241 -4.20676 0
M  V30 4809 S 461.268 -2.17595 -4.89298 0
M  V30 4810 C 462.424 -1.43572 -6.09211 0
M  V30 4811 H 462.657 -1.4082 -2.61834 0
M  V30 4812 H 460.19 -0.833771 -1.29952 0
M  V30 4813 H 462.148 0.631924 -4.05607 0
M  V30 4814 H 460.809 1.0432 -2.9627 0
M  V30 4815 H 460.002 -0.123193 -5.03849 0
M  V30 4816 H 459.604 -1.06747 -3.58442 0
M  V30 4817 H 461.896 -0.719806 -6.73665 0
M  V30 4818 H 462.839 -2.24388 -6.71607 0
M  V30 4819 H 463.247 -0.935252 -5.56699 0
M  V30 4820 N 462.645 1.35699 -0.801477 0
M  V30 4821 C 463.891 1.99208 -0.380022 0
M  V30 4822 C 464.224 1.63445 1.04878 0
M  V30 4823 O 463.499 0.895223 1.72673 0
M  V30 4824 C 463.782 3.55755 -0.557708 0
M  V30 4825 C 463.635 4.01332 -2.03107 0
M  V30 4826 C 464.954 4.40096 0.0197968 0
M  V30 4827 H 462.073 0.723667 -0.139552 0
M  V30 4828 H 464.715 1.60928 -1.01006 0
M  V30 4829 H 462.865 3.88494 -0.0213741 0
M  V30 4830 H 464.537 3.79026 -2.62939 0
M  V30 4831 H 462.78 3.52429 -2.52936 0
M  V30 4832 H 463.451 5.10234 -2.1063 0
M  V30 4833 H 465.927 4.13786 -0.438179 0
M  V30 4834 H 464.803 5.48735 -0.134477 0
M  V30 4835 H 465.064 4.2786 1.11303 0
M  V30 4836 N 464.123 0.554532 1.47522 0
M  V30 4837 C 465.351 0.034257 2.06872 0
M  V30 4838 C 465.766 -1.25826 1.40759 0
M  V30 4839 O 465.123 -1.75425 0.503217 0
M  V30 4840 C 465.174 -0.167827 3.6111 0
M  V30 4841 O 464.895 1.07351 4.24744 0
M  V30 4842 C 466.396 -0.72569 4.3732 0
M  V30 4843 H 463.616 0.0446275 0.669514 0
M  V30 4844 H 466.16 0.767181 1.89564 0
M  V30 4845 H 464.315 -0.850872 3.7794 0
M  V30 4846 H 464.729 0.869563 5.17242 0
M  V30 4847 H 466.203 -0.816394 5.45929 0
M  V30 4848 H 466.68 -1.73635 4.0342 0
M  V30 4849 H 467.286 -0.0784292 4.25228 0
M  V30 4850 N 465.601 -1.54893 0.290851 0
M  V30 4851 C 466.848 -1.99933 -0.321391 0
M  V30 4852 C 467.176 -1.17927 -1.54672 0
M  V30 4853 O 466.431 -0.240902 -1.94212 0
M  V30 4854 C 466.73 -3.49815 -0.732397 0
M  V30 4855 C 466.396 -4.4921 0.390056 0
M  V30 4856 C 465.058 -4.76107 0.698223 0
M  V30 4857 C 467.41 -5.08453 1.14562 0
M  V30 4858 C 464.738 -5.59514 1.76526 0
M  V30 4859 C 467.09 -5.9302 2.2025 0
M  V30 4860 C 465.754 -6.18232 2.51684 0
M  V30 4861 H 465.024 -0.731608 -0.117605 0
M  V30 4862 H 467.671 -1.87107 0.407839 0
M  V30 4863 H 465.976 -3.60199 -1.54155 0
M  V30 4864 H 467.673 -3.82083 -1.21712 0
M  V30 4865 H 464.263 -4.28372 0.13976 0
M  V30 4866 H 468.447 -4.87683 0.920801 0
M  V30 4867 H 463.703 -5.77289 2.01364 0
M  V30 4868 H 467.877 -6.37955 2.7926 0
M  V30 4869 H 465.504 -6.82653 3.34499 0
M  V30 4870 N 467.08 -0.0183926 -1.57589 0
M  V30 4871 C 468.31 0.67207 -1.95363 0
M  V30 4872 C 468.718 1.66807 -0.892872 0
M  V30 4873 O 468.061 1.83204 0.134958 0
M  V30 4874 C 468.123 1.44397 -3.29226 0
M  V30 4875 C 467.787 0.607511 -4.52944 0
M  V30 4876 C 468.784 -0.112657 -5.19778 0
M  V30 4877 C 466.469 0.548068 -4.99301 0
M  V30 4878 C 468.463 -0.881057 -6.31281 0
M  V30 4879 C 466.15 -0.224044 -6.10689 0
M  V30 4880 C 467.148 -0.937323 -6.76538 0
M  V30 4881 O 466.836 -1.6968 -7.85789 0
M  V30 4882 H 466.568 0.190925 -0.648478 0
M  V30 4883 H 469.122 -0.0711994 -2.05277 0
M  V30 4884 H 467.352 2.23214 -3.15773 0
M  V30 4885 H 469.041 2.02152 -3.51979 0
M  V30 4886 H 469.807 -0.0759998 -4.8494 0
M  V30 4887 H 465.686 1.09281 -4.4786 0
M  V30 4888 H 469.23 -1.43832 -6.82611 0
M  V30 4889 H 465.127 -0.262457 -6.44966 0
M  V30 4890 H 465.895 -1.61544 -8.024 0
M  V30 4891 N 468.558 1.5553 0.254621 0
M  V30 4892 C 469.807 1.76202 0.981612 0
M  V30 4893 C 470.12 0.580883 1.86776 0
M  V30 4894 O 471.326 0.670448 2.63092 0
M  V30 4895 C 469.782 3.11921 1.79537 0
M  V30 4896 C 469.39 4.37659 0.956991 0
M  V30 4897 C 471.134 3.41936 2.51555 0
M  V30 4898 C 469.041 5.64411 1.76619 0
M  V30 4899 H 467.971 0.656841 0.370237 0
M  V30 4900 H 470.622 1.81969 0.236556 0
M  V30 4901 H 469.004 3.00241 2.58208 0
M  V30 4902 H 470.178 4.60307 0.21315 0
M  V30 4903 H 468.493 4.14922 0.350497 0
M  V30 4904 H 471.09 4.33849 3.12536 0
M  V30 4905 H 471.433 2.62905 3.22779 0
M  V30 4906 H 471.966 3.54797 1.799 0
M  V30 4907 H 468.705 6.46241 1.09783 0
M  V30 4908 H 468.225 5.45877 2.48551 0
M  V30 4909 H 469.904 6.03386 2.33527 0
M  V30 4910 N 470.036 -0.519951 1.48776 0
M  V30 4911 C 470.983 -1.62352 1.64044 0
M  V30 4912 C 471.953 -1.58945 0.482251 0
M  V30 4913 O 473.138 -1.77219 0.706971 0
M  V30 4914 C 470.278 -3.00579 1.69547 0
M  V30 4915 C 469.391 -3.14145 2.96541 0
M  V30 4916 C 468.526 -4.42991 2.93142 0
M  V30 4917 C 467.565 -4.50122 4.14797 0
M  V30 4918 N 466.702 -5.7037 4.09418 0
M  V30 4919 H 471.542 -1.48643 2.58281 0
M  V30 4920 H 469.079 -0.723516 1.28077 0
M  V30 4921 H 471.037 -3.80671 1.70719 0
M  V30 4922 H 469.667 -3.13036 0.787918 0
M  V30 4923 H 468.719 -2.27239 3.05068 0
M  V30 4924 H 470.031 -3.15275 3.86527 0
M  V30 4925 H 469.185 -5.31385 2.92772 0
M  V30 4926 H 467.924 -4.44398 2.00902 0
M  V30 4927 H 466.929 -3.60133 4.15433 0
M  V30 4928 H 468.154 -4.50445 5.08208 0
M  V30 4929 H 466.1 -5.72655 3.20004 0
M  V30 4930 H 466.017 -5.73036 4.93119 0
M  V30 4931 H 467.285 -6.61023 4.13121 0
M  V30 4932 N 471.514 -1.37532 -0.769588 0
M  V30 4933 C 472.762 -1.32597 -1.5252 0
M  V30 4934 C 473.083 0.0884294 -1.94799 0
M  V30 4935 O 472.353 1.03289 -1.66458 0
M  V30 4936 H 470.933 -0.487846 -0.565699 0
M  V30 4937 H 473.595 -1.72044 -0.915806 0
M  V30 4938 H 472.691 -1.96643 -2.42359 0
M  V30 4939 N 472.992 0.995999 -1.22138 0
M  V30 4940 C 474.22 1.77066 -1.07029 0
M  V30 4941 C 474.635 1.8495 0.379357 0
M  V30 4942 O 473.992 1.3174 1.26297 0
M  V30 4943 C 474.043 3.20533 -1.67155 0
M  V30 4944 O 473.764 3.13082 -3.06449 0
M  V30 4945 C 475.265 4.14461 -1.5728 0
M  V30 4946 H 472.485 0.556179 -0.375374 0
M  V30 4947 H 475.029 1.25238 -1.61666 0
M  V30 4948 H 473.184 3.6944 -1.16589 0
M  V30 4949 H 473.598 4.03283 -3.35355 0
M  V30 4950 H 475.072 5.1289 -2.04078 0
M  V30 4951 H 475.549 4.36005 -0.528795 0
M  V30 4952 H 476.155 3.71449 -2.07136 0
M  V30 4953 N 474.47 1.03057 1.19235 0
M  V30 4954 C 475.4 0.633497 2.24742 0
M  V30 4955 C 476.381 -0.358335 1.66283 0
M  V30 4956 O 477.566 -0.240676 1.92703 0
M  V30 4957 C 474.696 -0.0147648 3.47297 0
M  V30 4958 C 473.65 0.899527 4.18441 0
M  V30 4959 C 472.976 0.116281 5.34574 0
M  V30 4960 C 474.276 2.21404 4.73051 0
M  V30 4961 H 475.97 1.5155 2.58211 0
M  V30 4962 H 473.516 0.73014 1.24117 0
M  V30 4963 H 475.469 -0.304202 4.20301 0
M  V30 4964 H 474.193 -0.931577 3.13032 0
M  V30 4965 H 472.852 1.17319 3.47321 0
M  V30 4966 H 472.5 -0.802619 4.96555 0
M  V30 4967 H 472.2 0.725293 5.83107 0
M  V30 4968 H 473.724 -0.166376 6.10373 0
M  V30 4969 H 475.138 1.98601 5.37802 0
M  V30 4970 H 473.535 2.77512 5.32078 0
M  V30 4971 H 474.605 2.86752 3.91026 0
M  V30 4972 N 475.948 -1.35272 0.808662 0
M  V30 4973 C 476.88 -2.28507 0.178149 0
M  V30 4974 C 477.893 -1.50377 -0.623754 0
M  V30 4975 O 479.082 -1.72583 -0.455774 0
M  V30 4976 C 476.182 -3.30038 -0.769959 0
M  V30 4977 C 475.355 -4.37398 -0.0139749 0
M  V30 4978 C 474.414 -5.18775 -0.880875 0
M  V30 4979 O 473.44 -5.68236 -0.331059 0
M  V30 4980 N 474.642 -5.37087 -2.20267 0
M  V30 4981 H 477.407 -2.83255 0.979106 0
M  V30 4982 H 474.968 -1.47643 0.664308 0
M  V30 4983 H 476.96 -3.81371 -1.35418 0
M  V30 4984 H 475.53 -2.75789 -1.47171 0
M  V30 4985 H 474.75 -3.86971 0.751468 0
M  V30 4986 H 476.038 -5.06268 0.506965 0
M  V30 4987 H 475.436 -4.9855 -2.67328 0
M  V30 4988 H 473.993 -5.91593 -2.73608 0
M  V30 4989 N 477.426 -0.562348 -1.47226 0
M  V30 4990 C 478.376 0.202967 -2.27095 0
M  V30 4991 C 479.36 0.880611 -1.34663 0
M  V30 4992 O 480.552 0.778069 -1.58981 0
M  V30 4993 C 477.681 1.22906 -3.20545 0
M  V30 4994 C 476.767 0.554566 -4.20459 0
M  V30 4995 N 477.158 -0.378295 -5.04383 0
M  V30 4996 C 475.456 0.807854 -4.38623 0
M  V30 4997 C 476.157 -0.770583 -5.76573 0
M  V30 4998 N 475.133 -0.124263 -5.43458 0
M  V30 4999 H 478.935 -0.514196 -2.89367 0
M  V30 5000 H 476.449 -0.382655 -1.57827 0
M  V30 5001 H 478.446 1.79134 -3.76453 0
M  V30 5002 H 477.106 1.94726 -2.59831 0
M  V30 5003 H 478.117 -0.75274 -5.124 0
M  V30 5004 H 474.794 1.51418 -3.89075 0
M  V30 5005 H 476.184 -1.53742 -6.54074 0
M  V30 5006 N 478.904 1.54736 -0.299062 0
M  V30 5007 C 479.867 2.22127 0.565012 0
M  V30 5008 C 480.867 1.20669 1.06281 0
M  V30 5009 O 482.057 1.45417 0.959145 0
M  V30 5010 C 479.189 2.90611 1.78208 0
M  V30 5011 H 480.382 2.99891 -0.0237448 0
M  V30 5012 H 477.935 1.5622 -0.0498788 0
M  V30 5013 H 478.67 2.16921 2.41072 0
M  V30 5014 H 478.455 3.64984 1.43281 0
M  V30 5015 H 479.945 3.42026 2.396 0
M  V30 5016 N 480.382 0.0267497 1.57577 0
M  V30 5017 C 481.292 -0.971633 2.13533 0
M  V30 5018 C 482.308 -1.35868 1.08701 0
M  V30 5019 O 483.484 -1.44058 1.40746 0
M  V30 5020 C 480.549 -2.23622 2.64941 0
M  V30 5021 C 479.61 -1.90982 3.8448 0
M  V30 5022 C 478.843 -3.11411 4.33427 0
M  V30 5023 O 479.066 -4.23992 3.81558 0
M  V30 5024 O 478 -2.93848 5.25297 0
M  V30 5025 H 481.826 -0.525853 2.99113 0
M  V30 5026 H 479.411 -0.193712 1.48139 0
M  V30 5027 H 481.293 -2.97864 2.98086 0
M  V30 5028 H 479.968 -2.67386 1.82446 0
M  V30 5029 H 478.875 -1.14132 3.56265 0
M  V30 5030 H 480.208 -1.52036 4.6813 0
M  V30 5031 N 481.861 -1.55662 -0.24637 0
M  V30 5032 C 483.11 -1.7672 -0.972254 0
M  V30 5033 C 483.423 -0.59078 -1.86465 0
M  V30 5034 O 484.629 -0.684391 -2.62732 0
M  V30 5035 C 483.085 -3.12869 -1.7788 0
M  V30 5036 C 482.693 -4.38161 -0.933768 0
M  V30 5037 C 484.437 -3.43265 -2.49738 0
M  V30 5038 C 482.344 -5.6534 -1.73623 0
M  V30 5039 H 481.274 -0.658795 -0.366749 0
M  V30 5040 H 483.925 -1.82092 -0.226902 0
M  V30 5041 H 482.307 -3.01606 -2.56612 0
M  V30 5042 H 483.481 -4.60413 -0.188736 0
M  V30 5043 H 481.796 -4.15102 -0.328488 0
M  V30 5044 H 484.393 -4.35501 -3.10231 0
M  V30 5045 H 484.736 -2.64614 -3.2138 0
M  V30 5046 H 485.269 -3.55746 -1.78016 0
M  V30 5047 H 482.008 -6.46814 -1.06354 0
M  V30 5048 H 481.528 -5.47188 -2.45653 0
M  V30 5049 H 483.207 -6.04616 -2.30323 0
M  V30 5050 N 483.339 0.512053 -1.4905 0
M  V30 5051 C 484.586 1.26686 -1.57978 0
M  V30 5052 C 484.914 1.92733 -0.261553 0
M  V30 5053 O 484.169 1.80772 0.749667 0
M  V30 5054 C 484.468 2.36446 -2.68008 0
M  V30 5055 C 484.134 1.87932 -4.09869 0
M  V30 5056 C 482.796 1.74419 -4.48477 0
M  V30 5057 C 485.148 1.5149 -4.98698 0
M  V30 5058 C 482.476 1.22827 -5.73699 0
M  V30 5059 C 484.828 1.01355 -6.24428 0
M  V30 5060 C 483.492 0.864735 -6.61875 0
M  V30 5061 H 482.762 0.463577 -0.578081 0
M  V30 5062 H 485.409 0.569421 -1.82838 0
M  V30 5063 H 483.714 3.11933 -2.37076 0
M  V30 5064 H 485.411 2.9453 -2.72127 0
M  V30 5065 H 482.001 1.99405 -3.79389 0
M  V30 5066 H 486.185 1.60782 -4.69535 0
M  V30 5067 H 481.441 1.10008 -6.01422 0
M  V30 5068 H 485.615 0.722351 -6.92644 0
M  V30 5069 H 483.242 0.462777 -7.5879 0
M  V30 5070 N 484.817 1.37938 0.762283 0
M  V30 5071 C 485.747 1.37176 1.88958 0
M  V30 5072 C 486.728 0.238945 1.68413 0
M  V30 5073 O 487.913 0.440726 1.89133 0
M  V30 5074 C 485.043 1.18742 3.2637 0
M  V30 5075 C 483.997 2.29136 3.61498 0
M  V30 5076 C 483.323 1.95816 4.97554 0
M  V30 5077 C 484.623 3.71363 3.6727 0
M  V30 5078 H 486.317 2.31509 1.89853 0
M  V30 5079 H 483.863 1.11438 0.912005 0
M  V30 5080 H 485.816 1.16837 4.04879 0
M  V30 5081 H 484.54 0.208683 3.25933 0
M  V30 5082 H 483.199 2.30213 2.85303 0
M  V30 5083 H 482.847 0.964475 4.93667 0
M  V30 5084 H 482.547 2.69745 5.22026 0
M  V30 5085 H 484.071 1.95513 5.78452 0
M  V30 5086 H 485.485 3.72364 4.35911 0
M  V30 5087 H 483.882 4.44425 4.03245 0
M  V30 5088 H 484.952 4.04305 2.67704 0
M  V30 5089 N 486.295 -0.989507 1.22664 0
M  V30 5090 C 487.242 -2.08024 0.999733 0
M  V30 5091 C 488.212 -1.65909 -0.0797047 0
M  V30 5092 O 489.397 -1.90669 0.0705715 0
M  V30 5093 C 486.537 -3.40067 0.587234 0
M  V30 5094 C 485.65 -3.95505 1.73781 0
M  V30 5095 C 484.785 -5.15722 1.27297 0
M  V30 5096 C 483.824 -5.63305 2.39488 0
M  V30 5097 N 482.961 -6.74758 1.94026 0
M  V30 5098 H 487.801 -2.26768 1.9334 0
M  V30 5099 H 485.338 -1.11171 0.963297 0
M  V30 5100 H 487.296 -4.15899 0.329227 0
M  V30 5101 H 485.926 -3.21314 -0.309426 0
M  V30 5102 H 484.978 -3.16513 2.11006 0
M  V30 5103 H 486.29 -4.26797 2.58158 0
M  V30 5104 H 485.444 -5.98854 0.972546 0
M  V30 5105 H 484.183 -4.86061 0.399445 0
M  V30 5106 H 483.188 -4.78759 2.70315 0
M  V30 5107 H 484.413 -5.94988 3.27362 0
M  V30 5108 H 482.359 -6.46874 1.09041 0
M  V30 5109 H 482.276 -7.05386 2.71968 0
M  V30 5110 H 483.544 -7.61387 1.67062 0
M  V30 5111 N 487.773 -1.03688 -1.18687 0
M  V30 5112 C 488.721 -0.618292 -2.24232 0
M  V30 5113 C 489.715 0.353045 -1.6568 0
M  V30 5114 O 490.921 0.220749 -1.78641 0
M  V30 5115 H 487.296 -0.181711 -0.729716 0
M  V30 5116 H 489.267 -1.51893 -2.56848 0
M  V30 5117 C 488.016 0.00677342 -3.47699 0
M  V30 5118 H 487.339 -0.731692 -3.93047 0
M  V30 5119 H 488.779 0.262492 -4.23187 0
M  V30 5120 C 487.238 1.25572 -3.12623 0
M  V30 5121 O 487.768 2.34691 -3.26011 0
M  V30 5122 N 485.974 1.14755 -2.66982 0
M  V30 5123 H 485.521 0.259601 -2.56289 0
M  V30 5124 H 485.479 1.98412 -2.43885 0
M  V30 5125 N 489.251 1.34841 -0.815825 0
M  V30 5126 C 490.181 2.32187 -0.247298 0
M  V30 5127 C 491.162 1.5791 0.632344 0
M  V30 5128 O 492.347 1.8593 0.560698 0
M  V30 5129 C 489.477 3.42122 0.597466 0
M  V30 5130 C 488.431 4.27602 -0.184446 0
M  V30 5131 C 487.757 5.28942 0.782609 0
M  V30 5132 C 489.057 5.03502 -1.38865 0
M  V30 5133 H 490.751 2.79985 -1.06061 0
M  V30 5134 H 488.297 1.34611 -0.511461 0
M  V30 5135 H 490.25 4.09232 1.00533 0
M  V30 5136 H 488.974 2.92956 1.44376 0
M  V30 5137 H 487.633 3.62085 -0.573592 0
M  V30 5138 H 487.281 4.7604 1.62466 0
M  V30 5139 H 486.981 5.87008 0.263695 0
M  V30 5140 H 488.505 5.98922 1.18848 0
M  V30 5141 H 489.919 5.63506 -1.05518 0
M  V30 5142 H 488.316 5.71108 -1.8427 0
M  V30 5143 H 489.386 4.33608 -2.17054 0
M  V30 5144 N 490.729 0.570148 1.46925 0
M  V30 5145 C 491.676 -0.170257 2.30171 0
M  V30 5146 C 492.646 -0.896099 1.39855 0
M  V30 5147 O 493.831 -0.889248 1.68811 0
M  V30 5148 C 490.971 -1.18605 3.24079 0
M  V30 5149 C 490.084 -0.464947 4.29491 0
M  V30 5150 C 489.219 -1.46716 5.10537 0
M  V30 5151 C 488.258 -0.731758 6.0771 0
M  V30 5152 N 487.395 -1.68142 6.81669 0
M  V30 5153 H 492.235 0.545713 2.92961 0
M  V30 5154 H 489.772 0.280938 1.44392 0
M  V30 5155 H 491.73 -1.78771 3.76957 0
M  V30 5156 H 490.36 -1.86989 2.63125 0
M  V30 5157 H 489.412 0.251506 3.79568 0
M  V30 5158 H 490.724 0.110548 4.98677 0
M  V30 5159 H 489.878 -2.14199 5.6763 0
M  V30 5160 H 488.617 -2.07658 4.41282 0
M  V30 5161 H 487.622 -0.0430787 5.49783 0
M  V30 5162 H 488.847 -0.127904 6.7898 0
M  V30 5163 H 486.793 -2.27918 6.15134 0
M  V30 5164 H 486.71 -1.15841 7.47072 0
M  V30 5165 H 487.978 -2.347 7.43328 0
M  V30 5166 N 492.207 -1.54576 0.307264 0
M  V30 5167 C 493.137 -2.26708 -0.55907 0
M  V30 5168 C 494.118 -1.26893 -1.1328 0
M  V30 5169 O 495.303 -1.55677 -1.16097 0
M  V30 5170 C 492.433 -3.01259 -1.72801 0
M  V30 5171 C 491.387 -4.08275 -1.28435 0
M  V30 5172 C 490.713 -4.70575 -2.53895 0
M  V30 5173 C 492.013 -5.2068 -0.411038 0
M  V30 5174 H 493.707 -2.9937 0.042576 0
M  V30 5175 H 491.253 -1.43983 0.0219173 0
M  V30 5176 H 493.206 -3.50444 -2.34023 0
M  V30 5177 H 491.93 -2.26187 -2.356 0
M  V30 5178 H 490.589 -3.59949 -0.695161 0
M  V30 5179 H 490.237 -3.92136 -3.15021 0
M  V30 5180 H 489.937 -5.42854 -2.24908 0
M  V30 5181 H 491.461 -5.22527 -3.15908 0
M  V30 5182 H 492.875 -5.65721 -0.929097 0
M  V30 5183 H 491.272 -5.99716 -0.214664 0
M  V30 5184 H 492.342 -4.81629 0.562287 0
M  V30 5185 N 493.685 -0.035106 -1.57561 0
M  V30 5186 C 494.932 0.642229 -1.92046 0
M  V30 5187 C 495.26 1.7179 -0.91206 0
M  V30 5188 O 494.515 1.95544 0.0781153 0
M  V30 5189 C 494.814 1.29149 -3.3325 0
M  V30 5190 C 494.48 0.345604 -4.49574 0
M  V30 5191 C 493.142 0.0852775 -4.81124 0
M  V30 5192 C 495.494 -0.303569 -5.20315 0
M  V30 5193 C 492.822 -0.831927 -5.80772 0
M  V30 5194 C 495.174 -1.20886 -6.20942 0
M  V30 5195 C 493.838 -1.47802 -6.50931 0
M  V30 5196 H 493.108 0.235008 -0.702746 0
M  V30 5197 H 495.755 -0.0981529 -1.91248 0
M  V30 5198 H 494.06 2.10676 -3.30337 0
M  V30 5199 H 495.757 1.82223 -3.57205 0
M  V30 5200 H 492.347 0.558683 -4.24943 0
M  V30 5201 H 496.531 -0.115515 -4.96166 0
M  V30 5202 H 491.787 -1.0481 -6.02349 0
M  V30 5203 H 495.961 -1.71804 -6.74875 0
M  V30 5204 H 493.588 -2.19039 -7.2796 0
M  V30 5205 N 495.163 1.55791 0.238111 0
M  V30 5206 C 496.391 1.82098 0.982233 0
M  V30 5207 C 496.806 0.612025 1.78605 0
M  V30 5208 O 496.163 -0.419381 1.77616 0
M  V30 5209 C 496.214 3.0673 1.91309 0
M  V30 5210 O 495.935 4.2296 1.14179 0
M  V30 5211 C 497.436 3.45903 2.77248 0
M  V30 5212 H 494.656 0.605748 0.288635 0
M  V30 5213 H 497.2 2.02862 0.258341 0
M  V30 5214 H 495.355 2.87991 2.59114 0
M  V30 5215 H 495.769 4.93653 1.7722 0
M  V30 5216 H 497.243 4.36189 3.38295 0
M  V30 5217 H 497.72 2.66891 3.48806 0
M  V30 5218 H 498.326 3.67024 2.14881 0
M  V30 5219 N 496.642 -0.504142 1.49319 0
M  V30 5220 C 497.572 -1.61473 1.68667 0
M  V30 5221 C 498.553 -1.61455 0.535378 0
M  V30 5222 O 499.738 -1.78245 0.770868 0
M  V30 5223 C 496.868 -2.99971 1.75028 0
M  V30 5224 C 495.822 -3.14854 2.89916 0
M  V30 5225 C 495.148 -4.54671 2.81387 0
M  V30 5226 C 496.448 -2.95176 4.30893 0
M  V30 5227 H 498.142 -1.45535 2.61648 0
M  V30 5228 H 495.688 -0.698711 1.25913 0
M  V30 5229 H 497.641 -3.77562 1.8715 0
M  V30 5230 H 496.365 -3.1699 0.786441 0
M  V30 5231 H 495.024 -2.39687 2.77391 0
M  V30 5232 H 494.672 -4.68562 1.82917 0
M  V30 5233 H 494.372 -4.6557 3.58494 0
M  V30 5234 H 495.896 -5.34327 2.95512 0
M  V30 5235 H 497.31 -3.62538 4.44116 0
M  V30 5236 H 495.707 -3.17549 5.09198 0
M  V30 5237 H 496.777 -1.91332 4.45556 0
M  V30 5238 N 498.12 -1.38341 -0.754957 0
M  V30 5239 C 499.083 -1.35262 -1.85032 0
M  V30 5240 C 500.083 -0.253393 -1.58791 0
M  V30 5241 O 501.273 -0.510205 -1.66561 0
M  V30 5242 C 498.405 -1.10544 -3.22479 0
M  V30 5243 H 499.598 -2.32712 -1.8917 0
M  V30 5244 H 497.151 -1.23614 -0.956515 0
M  V30 5245 H 497.886 -0.136952 -3.24011 0
M  V30 5246 H 497.671 -1.90127 -3.4292 0
M  V30 5247 H 499.161 -1.11082 -4.02555 0
M  V30 5248 N 499.598 0.982988 -1.23187 0
M  V30 5249 C 500.508 2.10907 -1.02739 0
M  V30 5250 C 501.524 1.73979 0.0273188 0
M  V30 5251 O 502.7 2.00702 -0.16757 0
M  V30 5252 C 499.765 3.41142 -0.618304 0
M  V30 5253 C 498.826 3.92112 -1.74777 0
M  V30 5254 C 498.059 5.16131 -1.3581 0
M  V30 5255 O 498.282 5.6989 -0.241201 0
M  V30 5256 O 497.216 5.61103 -2.17824 0
M  V30 5257 H 501.042 2.31046 -1.97108 0
M  V30 5258 H 498.627 1.09284 -1.01869 0
M  V30 5259 H 500.509 4.19488 -0.400982 0
M  V30 5260 H 499.184 3.2234 0.296421 0
M  V30 5261 H 498.091 3.14895 -2.0197 0
M  V30 5262 H 499.424 4.15364 -2.64071 0
M  V30 5263 N 501.076 1.04316 1.18135 0
M  V30 5264 C 502.301 0.768047 1.92655 0
M  V30 5265 C 502.726 -0.66904 1.758 0
M  V30 5266 O 502.084 -1.46372 1.06981 0
M  V30 5267 C 502.132 1.14239 3.42026 0
M  V30 5268 O 501.236 0.269333 4.1152 0
M  V30 5269 H 500.577 0.282436 0.600937 0
M  V30 5270 H 503.107 1.39367 1.49793 0
M  V30 5271 H 503.117 1.10538 3.92741 0
M  V30 5272 H 501.792 2.18928 3.53615 0
M  V30 5273 H 500.369 0.366175 3.71098 0
M  V30 5274 N 502.554 -1.34406 0.822964 0
M  V30 5275 C 503.484 -2.32052 0.259608 0
M  V30 5276 C 504.465 -1.58243 -0.623961 0
M  V30 5277 O 505.65 -1.86224 -0.55083 0
M  V30 5278 C 502.78 -3.42434 -0.579314 0
M  V30 5279 C 501.734 -4.27499 0.20712 0
M  V30 5280 C 501.06 -5.29349 -0.754547 0
M  V30 5281 C 502.36 -5.02758 1.41533 0
M  V30 5282 H 504.054 -2.79418 1.07545 0
M  V30 5283 H 501.6 -1.34338 0.518593 0
M  V30 5284 H 503.553 -4.0976 -0.983612 0
M  V30 5285 H 502.277 -2.93717 -1.4282 0
M  V30 5286 H 500.936 -3.61776 0.592787 0
M  V30 5287 H 500.584 -4.76895 -1.59939 0
M  V30 5288 H 500.284 -5.8714 -0.232561 0
M  V30 5289 H 501.808 -5.99544 -1.1567 0
M  V30 5290 H 503.222 -5.62938 1.08504 0
M  V30 5291 H 501.619 -5.70123 1.87296 0
M  V30 5292 H 502.689 -4.32451 2.1935 0
M  V30 5293 N 504.032 -0.577932 -1.46621 0
M  V30 5294 C 505.28 -0.061566 -2.02006 0
M  V30 5295 C 505.601 1.30117 -1.4524 0
M  V30 5296 O 504.871 1.85313 -0.63529 0
M  V30 5297 H 503.451 -0.0197692 -0.746738 0
M  V30 5298 H 506.113 -0.752631 -1.79782 0
M  V30 5299 H 505.209 0.0110238 -3.12098 0
M  V30 5300 N 505.51 1.54411 -0.315457 0
M  V30 5301 C 506.758 2.00023 0.288971 0
M  V30 5302 C 507.079 1.20529 1.5329 0
M  V30 5303 O 506.349 0.304986 1.93511 0
M  V30 5304 H 504.929 0.738891 0.109766 0
M  V30 5305 H 507.591 1.90094 -0.430129 0
M  V30 5306 H 506.687 3.07198 0.550999 0
M  V30 5307 N 506.988 0.0434614 1.5754 0
M  V30 5308 C 508.235 -0.632035 1.92384 0
M  V30 5309 C 508.563 -1.71304 0.921157 0
M  V30 5310 O 507.818 -1.95583 -0.067744 0
M  V30 5311 C 508.117 -1.2738 3.3393 0
M  V30 5312 C 507.783 -0.321757 4.49751 0
M  V30 5313 C 506.445 -0.0597611 4.81163 0
M  V30 5314 C 508.797 0.331158 5.20147 0
M  V30 5315 C 506.125 0.862715 5.80322 0
M  V30 5316 C 508.477 1.24178 6.20292 0
M  V30 5317 C 507.141 1.51252 6.50138 0
M  V30 5318 H 506.411 -0.231278 0.703983 0
M  V30 5319 H 509.058 0.108294 1.91194 0
M  V30 5320 H 507.363 -2.08921 3.3145 0
M  V30 5321 H 509.06 -1.80326 3.58167 0
M  V30 5322 H 505.65 -0.53614 4.25233 0
M  V30 5323 H 509.834 0.141826 4.96097 0
M  V30 5324 H 505.09 1.08003 6.01785 0
M  V30 5325 H 509.264 1.75381 6.73954 0
M  V30 5326 H 506.891 2.22897 7.26788 0
M  V30 5327 N 508.466 -1.55915 -0.229846 0
M  V30 5328 C 509.376 -1.94891 -1.30593 0
M  V30 5329 C 510.392 -0.851604 -1.51736 0
M  V30 5330 O 511.568 -1.15447 -1.65027 0
M  V30 5331 C 508.633 -2.25052 -2.63728 0
M  V30 5332 C 507.694 -3.48306 -2.5096 0
M  V30 5333 C 506.927 -3.77019 -3.77747 0
M  V30 5334 O 507.15 -3.07534 -4.80395 0
M  V30 5335 O 506.084 -4.70523 -3.75356 0
M  V30 5336 H 509.91 -2.86581 -1.00525 0
M  V30 5337 H 507.495 -1.43017 -0.432025 0
M  V30 5338 H 509.377 -2.45682 -3.42372 0
M  V30 5339 H 508.052 -1.36538 -2.93495 0
M  V30 5340 H 506.959 -3.32964 -1.70546 0
M  V30 5341 H 508.292 -4.37177 -2.26136 0
M  V30 5342 N 509.944 0.496216 -1.49584 0
M  V30 5343 C 511.169 1.27865 -1.63295 0
M  V30 5344 C 511.594 1.85592 -0.306156 0
M  V30 5345 O 510.952 1.66092 0.726851 0
M  V30 5346 C 511 2.38128 -2.7079 0
M  V30 5347 O 510.104 3.42108 -2.30296 0
M  V30 5348 H 509.445 0.377279 -0.546403 0
M  V30 5349 H 511.975 0.593497 -1.95803 0
M  V30 5350 H 511.985 2.8382 -2.93104 0
M  V30 5351 H 510.66 1.95479 -3.67098 0
M  V30 5352 H 509.237 3.02301 -2.18331 0
M  V30 5353 N 511.423 1.38739 0.74761 0
M  V30 5354 C 512.353 1.39173 1.87492 0
M  V30 5355 C 513.334 0.256794 1.6815 0
M  V30 5356 O 514.519 0.460762 1.88655 0
M  V30 5357 C 511.649 1.22197 3.25093 0
M  V30 5358 C 510.603 2.32957 3.59047 0
M  V30 5359 C 509.929 2.01082 4.95449 0
M  V30 5360 C 511.229 3.75237 3.6331 0
M  V30 5361 H 512.923 2.3351 1.87386 0
M  V30 5362 H 510.469 1.12399 0.900134 0
M  V30 5363 H 512.422 1.21124 4.03617 0
M  V30 5364 H 511.146 0.243241 3.25693 0
M  V30 5365 H 509.805 2.33226 2.82845 0
M  V30 5366 H 509.453 1.01678 4.92616 0
M  V30 5367 H 509.153 2.75267 5.19136 0
M  V30 5368 H 510.677 2.01638 5.76346 0
M  V30 5369 H 512.091 3.76966 4.31937 0
M  V30 5370 H 510.488 4.48677 3.98509 0
M  V30 5371 H 511.558 4.07122 2.634 0
M  V30 5372 N 512.901 -0.976442 1.23707 0
M  V30 5373 C 513.864 -2.0511 1.02287 0
M  V30 5374 C 514.864 -1.60791 -0.0167195 0
M  V30 5375 O 516.054 -1.72761 0.223408 0
M  V30 5376 C 513.186 -3.36458 0.548507 0
M  V30 5377 H 514.379 -2.25545 1.9766 0
M  V30 5378 H 511.932 -1.15042 1.05806 0
M  V30 5379 H 512.667 -3.21713 -0.408818 0
M  V30 5380 H 512.452 -3.69967 1.29874 0
M  V30 5381 H 513.942 -4.15489 0.419406 0
M  V30 5382 N 514.379 -1.04941 -1.1758 0
M  V30 5383 C 515.289 -0.658826 -2.25159 0
M  V30 5384 C 516.305 0.318941 -1.71052 0
M  V30 5385 O 517.481 0.171669 -2.00667 0
M  V30 5386 C 514.546 -0.0369522 -3.4668 0
M  V30 5387 C 513.607 -1.06484 -4.15884 0
M  V30 5388 C 512.84 -0.472551 -5.31604 0
M  V30 5389 O 513.063 0.718736 -5.65854 0
M  V30 5390 O 511.997 -1.20557 -5.89703 0
M  V30 5391 H 515.823 -1.55533 -2.60851 0
M  V30 5392 H 513.408 -0.820819 -1.24832 0
M  V30 5393 H 515.29 0.308784 -4.20267 0
M  V30 5394 H 513.965 0.833238 -3.12792 0
M  V30 5395 H 512.872 -1.46253 -3.44327 0
M  V30 5396 H 514.205 -1.9061 -4.53794 0
M  V30 5397 N 515.857 1.33968 -0.830081 0
M  V30 5398 C 516.787 2.31911 -0.271911 0
M  V30 5399 C 517.768 1.58571 0.61556 0
M  V30 5400 O 518.953 1.86514 0.540946 0
M  V30 5401 C 516.083 3.42737 0.561146 0
M  V30 5402 C 515.037 4.27383 -0.229789 0
M  V30 5403 C 514.363 5.29742 0.726463 0
M  V30 5404 C 515.663 5.02 -1.44197 0
M  V30 5405 H 517.357 2.78844 -1.09025 0
M  V30 5406 H 514.903 1.34061 -0.52571 0
M  V30 5407 H 516.856 4.10276 0.961867 0
M  V30 5408 H 515.58 2.94471 1.41261 0
M  V30 5409 H 514.239 3.61456 -0.611964 0
M  V30 5410 H 513.887 4.77736 1.57408 0
M  V30 5411 H 513.587 5.87255 0.20142 0
M  V30 5412 H 515.111 6.00149 1.12489 0
M  V30 5413 H 516.525 5.62355 -1.11488 0
M  V30 5414 H 514.922 5.69122 -1.90317 0
M  V30 5415 H 515.992 4.31281 -2.2164 0
M  V30 5416 N 517.335 0.585699 1.46312 0
M  V30 5417 C 518.746 0.159938 1.86014 0
M  V30 5418 C 519.097 -1.27775 1.48889 0
M  V30 5419 O 518.222 -1.96559 0.90519 0
M  V30 5420 C 518.817 0.283485 3.37612 0
M  V30 5421 C 517.376 -0.0874256 3.76298 0
M  V30 5422 C 516.523 0.618055 2.70325 0
M  V30 5423 H 519.474 0.793737 1.37425 0
M  V30 5424 H 519.495 -0.490348 3.77327 0
M  V30 5425 H 519.007 1.32995 3.64601 0
M  V30 5426 H 517.108 -1.13391 3.54927 0
M  V30 5427 H 517.221 0.290975 4.78216 0
M  V30 5428 H 515.585 0.057993 2.54634 0
M  V30 5429 H 516.368 1.66623 3.00153 0
M  V30 5430 N 518.813 -1.54241 0.323641 0
M  V30 5431 C 519.776 -2.22997 -0.529602 0
M  V30 5432 C 520.776 -1.22345 -1.04347 0
M  V30 5433 O 521.966 -1.46924 -0.935889 0
M  V30 5434 C 519.098 -2.93409 -1.73562 0
M  V30 5435 H 520.291 -2.99815 0.0714518 0
M  V30 5436 H 517.844 -1.56121 0.0747258 0
M  V30 5437 H 518.579 -2.20729 -2.37591 0
M  V30 5438 H 518.364 -3.67217 -1.37456 0
M  V30 5439 H 519.854 -3.45794 -2.34128 0
M  V30 5440 N 520.291 -0.0518155 -1.57515 0
M  V30 5441 C 521.54 0.621286 -1.91893 0
M  V30 5442 C 521.853 1.71966 -0.932052 0
M  V30 5443 O 523.059 2.45096 -1.16791 0
M  V30 5444 C 521.515 1.15641 -3.40816 0
M  V30 5445 C 521.123 0.0901146 -4.47909 0
M  V30 5446 C 522.867 1.80472 -3.84227 0
M  V30 5447 C 520.774 0.638154 -5.87947 0
M  V30 5448 H 519.704 0.235835 -0.716169 0
M  V30 5449 H 522.355 -0.120809 -1.83102 0
M  V30 5450 H 520.737 1.95084 -3.44613 0
M  V30 5451 H 521.911 -0.683525 -4.55702 0
M  V30 5452 H 520.226 -0.460774 -4.13843 0
M  V30 5453 H 522.823 2.22471 -4.86221 0
M  V30 5454 H 523.166 2.65669 -3.20508 0
M  V30 5455 H 523.699 1.07683 -3.82948 0
M  V30 5456 H 520.438 -0.176202 -6.55263 0
M  V30 5457 H 519.958 1.37976 -5.83714 0
M  V30 5458 H 521.637 1.12085 -6.37217 0
M  V30 5459 N 521.769 1.56035 0.221574 0
M  V30 5460 C 522.702 1.87427 1.30178 0
M  V30 5461 C 523.68 0.731658 1.45209 0
M  V30 5462 O 524.864 0.980016 1.61022 0
M  V30 5463 C 521.991 2.08127 2.67209 0
M  V30 5464 C 521.037 3.30813 2.69194 0
M  V30 5465 S 521.87 4.86738 2.23263 0
M  V30 5466 C 523.026 5.10474 3.62171 0
M  V30 5467 H 523.259 2.78756 1.03355 0
M  V30 5468 H 520.792 1.48469 0.423813 0
M  V30 5469 H 522.75 2.20736 3.46101 0
M  V30 5470 H 521.411 1.17595 2.91256 0
M  V30 5471 H 520.604 3.42341 3.6989 0
M  V30 5472 H 520.206 3.1706 1.98366 0
M  V30 5473 H 522.498 4.9937 4.5786 0
M  V30 5474 H 523.441 6.12359 3.55558 0
M  V30 5475 H 523.849 4.38208 3.55857 0
M  V30 5476 N 523.247 -0.488276 1.49845 0
M  V30 5477 C 524.475 -1.26527 1.63702 0
M  V30 5478 C 524.89 -1.8618 0.313447 0
M  V30 5479 O 524.247 -1.68432 -0.702624 0
M  V30 5480 C 524.298 -2.3864 2.71538 0
M  V30 5481 O 524.019 -1.81437 3.98763 0
M  V30 5482 C 525.52 -3.29805 2.96215 0
M  V30 5483 H 522.74 -0.383295 0.55075 0
M  V30 5484 H 525.284 -0.584779 1.95961 0
M  V30 5485 H 523.439 -3.02496 2.42023 0
M  V30 5486 H 523.853 -2.55135 4.58265 0
M  V30 5487 H 525.327 -4.04722 3.75372 0
M  V30 5488 H 525.804 -3.87563 2.06619 0
M  V30 5489 H 526.41 -2.71703 3.27196 0
M  V30 5490 N 524.725 -1.39134 -0.740242 0
M  V30 5491 C 525.675 -1.33928 -1.84519 0
M  V30 5492 C 526.659 -0.221097 -1.59374 0
M  V30 5493 O 527.851 -0.458195 -1.70967 0
M  V30 5494 C 524.98 -1.17991 -3.22387 0
M  V30 5495 C 524.066 -2.34488 -3.53378 0
M  V30 5496 N 524.457 -3.59954 -3.5534 0
M  V30 5497 C 522.755 -2.27331 -3.83714 0
M  V30 5498 C 523.456 -4.36962 -3.83978 0
M  V30 5499 N 522.432 -3.66482 -4.01487 0
M  V30 5500 H 526.234 -2.28907 -1.84333 0
M  V30 5501 H 523.748 -1.32555 -0.938237 0
M  V30 5502 H 525.745 -1.12345 -4.01478 0
M  V30 5503 H 524.405 -0.23957 -3.23815 0
M  V30 5504 H 525.416 -3.93448 -3.36778 0
M  V30 5505 H 522.093 -1.41531 -3.92779 0
M  V30 5506 H 523.483 -5.45692 -3.92008 0
M  V30 5507 N 526.204 0.969867 -1.24223 0
M  V30 5508 C 527.167 2.04564 -1.03373 0
M  V30 5509 C 528.167 1.60798 0.00819206 0
M  V30 5510 O 529.357 1.72641 -0.232567 0
M  V30 5511 C 526.489 3.36163 -0.566343 0
M  V30 5512 H 527.682 2.24494 -1.98853 0
M  V30 5513 H 525.235 1.1448 -1.06415 0
M  V30 5514 H 525.97 3.21925 0.391751 0
M  V30 5515 H 525.755 3.69273 -1.31834 0
M  V30 5516 H 527.245 4.1526 -0.441435 0
M  V30 5517 N 527.682 1.05563 1.17022 0
M  V30 5518 C 528.907 0.788437 1.91829 0
M  V30 5519 C 529.332 -0.650356 1.76499 0
M  V30 5520 O 528.69 -1.45229 1.08527 0
M  V30 5521 C 528.738 1.1786 3.40795 0
M  V30 5522 O 527.842 0.312965 4.11211 0
M  V30 5523 H 527.183 0.288794 0.597908 0
M  V30 5524 H 529.713 1.40948 1.48307 0
M  V30 5525 H 529.723 1.14697 3.91546 0
M  V30 5526 H 528.398 2.22666 3.51273 0
M  V30 5527 H 526.975 0.405515 3.70689 0
M  V30 5528 N 529.16 -1.33526 0.837174 0
M  V30 5529 C 530.406 -1.9813 0.432704 0
M  V30 5530 C 530.739 -1.66168 -1.00508 0
M  V30 5531 O 530.014 -0.94069 -1.70239 0
M  V30 5532 C 530.297 -3.54151 0.651834 0
M  V30 5533 C 530.15 -3.95806 2.13676 0
M  V30 5534 C 531.469 -4.39993 0.0968937 0
M  V30 5535 H 528.588 -0.719713 0.15869 0
M  V30 5536 H 531.23 -1.58193 1.05237 0
M  V30 5537 H 529.38 -3.88301 0.124369 0
M  V30 5538 H 531.052 -3.71921 2.72896 0
M  V30 5539 H 529.295 -3.45599 2.62191 0
M  V30 5540 H 529.966 -5.0447 2.24084 0
M  V30 5541 H 532.442 -4.12479 0.547733 0
M  V30 5542 H 531.318 -5.48186 0.279917 0
M  V30 5543 H 531.579 -4.3066 -0.9992 0
M  V30 5544 N 530.638 -0.59345 -1.46 0
M  V30 5545 C 531.568 0.121192 -2.33185 0
M  V30 5546 C 532.549 0.872977 -1.4599 0
M  V30 5547 O 533.734 0.846321 -1.74789 0
M  V30 5548 C 530.864 1.12844 -3.28456 0
M  V30 5549 C 529.818 0.4908 -4.25177 0
M  V30 5550 C 529.144 1.60529 -5.10034 0
M  V30 5551 C 530.444 -0.578949 -5.19081 0
M  V30 5552 H 532.138 -0.606767 -2.93187 0
M  V30 5553 H 529.684 -0.293242 -1.40983 0
M  V30 5554 H 531.637 1.63684 -3.88311 0
M  V30 5555 H 530.361 1.88681 -2.66584 0
M  V30 5556 H 529.02 0.00339328 -3.666 0
M  V30 5557 H 528.668 2.35359 -4.44539 0
M  V30 5558 H 528.368 1.18422 -5.75543 0
M  V30 5559 H 529.892 2.11623 -5.72755 0
M  V30 5560 H 531.306 -0.155199 -5.7309 0
M  V30 5561 H 529.703 -0.920947 -5.92991 0
M  V30 5562 H 530.773 -1.46109 -4.62364 0
M  V30 5563 N 532.116 1.54067 -0.331816 0
M  V30 5564 C 533.063 2.24623 0.530372 0
M  V30 5565 C 534.033 1.24009 1.10503 0
M  V30 5566 O 535.218 1.52712 1.14384 0
M  V30 5567 C 532.358 3.01374 1.68129 0
M  V30 5568 C 531.471 4.16821 1.13507 0
M  V30 5569 C 530.606 4.81085 2.25234 0
M  V30 5570 C 529.645 5.88621 1.67903 0
M  V30 5571 N 528.782 6.46713 2.73326 0
M  V30 5572 H 533.622 2.97898 -0.0778607 0
M  V30 5573 H 531.159 1.47014 -0.0501965 0
M  V30 5574 H 533.117 3.44125 2.35868 0
M  V30 5575 H 531.747 2.30419 2.26069 0
M  V30 5576 H 530.799 3.78796 0.348979 0
M  V30 5577 H 532.111 4.94203 0.675633 0
M  V30 5578 H 531.265 5.26846 3.00862 0
M  V30 5579 H 530.004 4.03102 2.74518 0
M  V30 5580 H 529.009 5.42254 0.907773 0
M  V30 5581 H 530.234 6.68506 1.19487 0
M  V30 5582 H 528.18 5.71599 3.21886 0
M  V30 5583 H 528.097 7.19532 2.3197 0
M  V30 5584 H 529.365 6.97129 3.48758 0
M  V30 5585 N 533.594 0.0601682 1.57485 0
M  V30 5586 C 534.542 -0.928899 2.13247 0
M  V30 5587 C 535.536 -1.31616 1.06647 0
M  V30 5588 O 536.742 -1.29476 1.25043 0
M  V30 5589 H 533.117 -0.317455 0.681708 0
M  V30 5590 H 535.088 -0.433566 2.95233 0
M  V30 5591 C 533.837 -2.19121 2.69965 0
M  V30 5592 H 533.16 -1.90204 3.51657 0
M  V30 5593 H 534.6 -2.86465 3.12592 0
M  V30 5594 C 533.059 -2.94195 1.64168 0
M  V30 5595 O 533.589 -3.87468 1.05978 0
M  V30 5596 N 531.795 -2.57089 1.35476 0
M  V30 5597 H 531.342 -1.81314 1.82984 0
M  V30 5598 H 531.3 -3.07624 0.649196 0
M  V30 5599 N 535.072 -1.5615 -0.213296 0
M  V30 5600 C 536.349 -1.70349 -0.961281 0
M  V30 5601 C 536.729 -0.609791 -2.02101 0
M  V30 5602 O 536.077 0.381987 -2.25285 0
M  V30 5603 C 536.287 -3.11982 -1.56424 0
M  V30 5604 C 537.635 -3.71649 -2.05334 0
M  V30 5605 O 538.659 -3.14995 -1.66302 0
M  V30 5606 O 537.518 -4.71038 -2.77102 0
M  V30 5607 H 534.612 -0.694121 -0.449582 0
M  V30 5608 H 537.158 -1.68464 -0.204426 0
M  V30 5609 H 535.93 -3.83046 -0.799457 0
M  V30 5610 H 535.553 -3.18019 -2.38641 0
M  V30 5611 N 536.55 0.480323 -1.50102 0
M  V30 5612 C 537.966 0.813295 -1.37323 0
M  V30 5613 C 538.166 1.97027 -0.422206 0
M  V30 5614 O 537.222 2.5212 0.138563 0
M  V30 5615 C 538.535 1.13404 -2.78496 0
M  V30 5616 C 540.083 1.24104 -2.87345 0
M  V30 5617 C 540.558 1.59497 -4.29331 0
M  V30 5618 N 542.049 1.66507 -4.32238 0
M  V30 5619 C 542.784 1.95378 -5.39087 0
M  V30 5620 N 542.28 2.22333 -6.56155 0
M  V30 5621 N 544.073 1.96803 -5.26522 0
M  V30 5622 H 536.224 -0.282291 -2.10516 0
M  V30 5623 H 538.487 -0.063752 -0.945854 0
M  V30 5624 H 538.193 0.357064 -3.49883 0
M  V30 5625 H 538.067 2.07251 -3.15162 0
M  V30 5626 H 540.454 2.00871 -2.16183 0
M  V30 5627 H 540.535 0.282593 -2.54234 0
M  V30 5628 H 540.179 0.832736 -5.01027 0
M  V30 5629 H 540.109 2.56477 -4.59921 0
M  V30 5630 H 542.6 1.47753 -3.47818 0
M  V30 5631 H 542.913 2.43611 -7.33399 0
M  V30 5632 H 541.258 2.19745 -6.59346 0
M  V30 5633 H 544.449 1.75235 -4.34062 0
M  V30 5634 H 544.622 2.18969 -6.09883 0
M  V30 5635 N 538.028 1.39524 0.732853 0
M  V30 5636 C 539.305 1.27373 1.48444 0
M  V30 5637 C 539.685 -0.115725 2.10783 0
M  V30 5638 O 539.033 -1.12713 1.98766 0
M  V30 5639 C 539.243 2.39966 2.53412 0
M  V30 5640 C 540.591 2.79384 3.19733 0
M  V30 5641 O 541.615 2.39431 2.63725 0
M  V30 5642 O 540.474 3.48353 4.21085 0
M  V30 5643 H 537.568 0.499272 0.659285 0
M  V30 5644 H 540.114 1.51403 0.766496 0
M  V30 5645 H 538.886 3.32845 2.05742 0
M  V30 5646 H 538.509 2.17612 3.32762 0
M  V30 5647 N 539.506 -0.963266 1.24736 0
M  V30 5648 C 540.752 -1.70933 1.09131 0
M  V30 5649 C 541.085 -1.90676 -0.368273 0
M  V30 5650 O 540.36 -1.47147 -1.27193 0
M  V30 5651 C 540.643 -3.09744 1.83658 0
M  V30 5652 C 540.496 -2.97465 3.37394 0
M  V30 5653 C 541.815 -4.09483 1.61282 0
M  V30 5654 H 538.934 -0.620398 0.397838 0
M  V30 5655 H 541.576 -1.12028 1.53459 0
M  V30 5656 H 539.726 -3.60031 1.4598 0
M  V30 5657 H 541.398 -2.54571 3.84696 0
M  V30 5658 H 539.641 -2.33576 3.65547 0
M  V30 5659 H 540.312 -3.95822 3.84745 0
M  V30 5660 H 542.788 -3.68073 1.94066 0
M  V30 5661 H 541.664 -5.04666 2.15878 0
M  V30 5662 H 541.925 -4.38639 0.552102 0
M  V30 5663 N 540.985 -1.06182 -1.16461 0
M  V30 5664 C 541.915 -0.692861 -2.22984 0
M  V30 5665 C 542.896 0.314122 -1.67174 0
M  V30 5666 O 544.081 0.189499 -1.93273 0
M  V30 5667 C 541.211 -0.07732 -3.47214 0
M  V30 5668 C 540.165 -1.01015 -4.15909 0
M  V30 5669 C 539.491 -0.257973 -5.34077 0
M  V30 5670 C 540.791 -2.33868 -4.67015 0
M  V30 5671 H 542.485 -1.58343 -2.54102 0
M  V30 5672 H 540.031 -0.76279 -1.22137 0
M  V30 5673 H 541.984 0.19266 -4.20959 0
M  V30 5674 H 540.708 0.848254 -3.15392 0
M  V30 5675 H 539.367 -1.26486 -3.44088 0
M  V30 5676 H 539.015 0.670684 -4.98509 0
M  V30 5677 H 538.715 -0.879638 -5.80979 0
M  V30 5678 H 540.239 0.00448788 -6.106 0
M  V30 5679 H 541.653 -2.1279 -5.32347 0
M  V30 5680 H 540.05 -2.91522 -5.24533 0
M  V30 5681 H 541.12 -2.97019 -3.83286 0
M  V30 5682 N 542.463 1.3308 -0.844243 0
M  V30 5683 C 543.711 1.97215 -0.441676 0
M  V30 5684 C 544.032 1.67185 1.0037 0
M  V30 5685 O 543.302 0.973588 1.69994 0
M  V30 5686 H 541.882 0.72959 -0.160335 0
M  V30 5687 H 544.544 1.62348 -1.07838 0
M  V30 5688 H 543.64 3.06698 -0.57815 0
M  V30 5689 N 543.941 0.601185 1.45683 0
M  V30 5690 C 545.19 0.0914953 2.01492 0
M  V30 5691 C 545.503 -1.28331 1.47616 0
M  V30 5692 O 546.709 -1.88537 1.95362 0
M  V30 5693 C 545.165 0.11291 3.59723 0
M  V30 5694 C 544.773 1.48717 4.22596 0
M  V30 5695 C 546.517 -0.341871 4.23121 0
M  V30 5696 C 544.424 1.46531 5.7296 0
M  V30 5697 H 543.354 0.0304365 0.753385 0
M  V30 5698 H 546.005 0.755568 1.67223 0
M  V30 5699 H 544.387 -0.617692 3.91153 0
M  V30 5700 H 545.561 2.23897 4.02749 0
M  V30 5701 H 543.876 1.88351 3.71366 0
M  V30 5702 H 546.473 -0.377304 5.33367 0
M  V30 5703 H 546.816 -1.36325 3.93346 0
M  V30 5704 H 547.349 0.335256 3.96385 0
M  V30 5705 H 544.088 2.46408 6.07423 0
M  V30 5706 H 543.608 0.755997 5.95017 0
M  V30 5707 H 545.287 1.18618 6.36034 0
M  V30 5708 N 545.419 -1.53889 0.339982 0
M  V30 5709 C 546.644 -2.05741 -0.261798 0
M  V30 5710 C 547.069 -1.21354 -1.43718 0
M  V30 5711 O 546.427 -0.22645 -1.7988 0
M  V30 5712 C 546.475 -3.54542 -0.658228 0
M  V30 5713 O 545.579 -3.7302 -1.75869 0
M  V30 5714 H 544.92 -0.662529 -0.0441672 0
M  V30 5715 H 547.45 -1.98568 0.493161 0
M  V30 5716 H 547.46 -3.9711 -0.936368 0
M  V30 5717 H 546.135 -4.15412 0.201358 0
M  V30 5718 H 544.712 -3.42355 -1.47809 0
M  V30 5719 N 546.897 -0.0685191 -1.57451 0
M  V30 5720 C 548.174 0.642167 -1.84758 0
M  V30 5721 C 548.554 1.87991 -0.960344 0
M  V30 5722 O 547.902 2.28485 -0.0257894 0
M  V30 5723 C 548.112 0.982946 -3.34872 0
M  V30 5724 C 549.46 1.35784 -4.02303 0
M  V30 5725 O 550.484 1.07477 -3.39598 0
M  V30 5726 O 549.343 1.88681 -5.12895 0
M  V30 5727 H 546.437 0.318625 -0.763156 0
M  V30 5728 H 548.983 -0.0992015 -1.6941 0
M  V30 5729 H 547.755 0.10372 -3.91163 0
M  V30 5730 H 547.378 1.78119 -3.55471 0
M  V30 5731 N 548.375 1.56261 0.205012 0
M  V30 5732 C 549.603 1.84141 0.943386 0
M  V30 5733 C 550.018 0.649772 1.77266 0
M  V30 5734 O 549.375 -0.381612 1.78466 0
M  V30 5735 C 549.426 3.10719 1.84759 0
M  V30 5736 O 549.147 4.25286 1.05181 0
M  V30 5737 C 550.648 3.51706 2.69848 0
M  V30 5738 H 547.868 0.611734 0.275721 0
M  V30 5739 H 550.412 2.03364 0.215253 0
M  V30 5740 H 548.567 2.93422 2.52947 0
M  V30 5741 H 548.981 4.97301 1.66709 0
M  V30 5742 H 550.455 4.43266 3.28967 0
M  V30 5743 H 550.932 2.7423 3.43067 0
M  V30 5744 H 551.538 3.71499 2.07047 0
M  V30 5745 N 549.853 -0.472356 1.50355 0
M  V30 5746 C 550.783 -1.57859 1.72055 0
M  V30 5747 C 551.764 -1.60283 0.569505 0
M  V30 5748 O 552.949 -1.7657 0.808503 0
M  V30 5749 C 550.079 -2.96191 1.81351 0
M  V30 5750 C 549.033 -3.08633 2.96529 0
M  V30 5751 C 548.359 -4.486 2.90968 0
M  V30 5752 C 549.659 -2.85969 4.37057 0
M  V30 5753 H 551.353 -1.39953 2.64676 0
M  V30 5754 H 548.899 -0.671846 1.27367 0
M  V30 5755 H 550.852 -3.73507 1.95117 0
M  V30 5756 H 549.576 -3.15251 0.853502 0
M  V30 5757 H 548.235 -2.33749 2.82413 0
M  V30 5758 H 547.883 -4.64577 1.92815 0
M  V30 5759 H 547.583 -4.57861 3.68289 0
M  V30 5760 H 549.107 -5.27938 3.0678 0
M  V30 5761 H 550.521 -3.53036 4.51706 0
M  V30 5762 H 548.918 -3.06677 5.15819 0
M  V30 5763 H 549.988 -1.81838 4.49514 0
M  V30 5764 N 551.331 -1.39911 -0.725443 0
M  V30 5765 C 552.58 -1.36963 -1.48068 0
M  V30 5766 C 552.893 0.0284478 -1.95579 0
M  V30 5767 O 554.099 0.180535 -2.70899 0
M  V30 5768 C 552.555 -2.40664 -2.67598 0
M  V30 5769 C 552.163 -3.86234 -2.26997 0
M  V30 5770 C 553.907 -2.46807 -3.45379 0
M  V30 5771 C 551.814 -4.81554 -3.43307 0
M  V30 5772 H 550.744 -0.509223 -0.556065 0
M  V30 5773 H 553.395 -1.65602 -0.790454 0
M  V30 5774 H 551.777 -2.05109 -3.38742 0
M  V30 5775 H 552.951 -4.3088 -1.63337 0
M  V30 5776 H 551.266 -3.83475 -1.62284 0
M  V30 5777 H 553.863 -3.15213 -4.31909 0
M  V30 5778 H 554.206 -1.49552 -3.8851 0
M  V30 5779 H 554.739 -2.81303 -2.81271 0
M  V30 5780 H 551.478 -5.80106 -3.05217 0
M  V30 5781 H 550.998 -4.4158 -4.05915 0
M  V30 5782 H 552.677 -5.0091 -4.0951 0
M  V30 5783 N 552.809 0.956637 -1.25245 0
M  V30 5784 C 554.225 1.22733 -1.02023 0
M  V30 5785 C 554.425 1.99761 0.264186 0
M  V30 5786 O 553.481 2.32814 0.977436 0
M  V30 5787 C 554.794 2.00367 -2.24217 0
M  V30 5788 C 556.342 2.13418 -2.28958 0
M  V30 5789 C 556.817 2.9445 -3.50803 0
M  V30 5790 N 558.308 3.02029 -3.51187 0
M  V30 5791 C 559.043 3.65116 -4.42129 0
M  V30 5792 N 558.539 4.2983 -5.43339 0
M  V30 5793 N 560.332 3.62237 -4.29815 0
M  V30 5794 H 552.483 0.441282 -2.07765 0
M  V30 5795 H 554.746 0.257686 -0.912306 0
M  V30 5796 H 554.452 1.51165 -3.17556 0
M  V30 5797 H 554.326 3.01077 -2.27228 0
M  V30 5798 H 556.713 2.61819 -1.36143 0
M  V30 5799 H 556.794 1.1202 -2.29968 0
M  V30 5800 H 556.438 2.46741 -4.43939 0
M  V30 5801 H 556.368 3.9607 -3.47039 0
M  V30 5802 H 558.859 2.56007 -2.77973 0
M  V30 5803 H 559.172 4.75819 -6.08947 0
M  V30 5804 H 557.517 4.28465 -5.47214 0
M  V30 5805 H 560.708 3.10863 -3.49974 0
M  V30 5806 H 560.881 4.11117 -5.00886 0
M  V30 5807 N 554.287 1.06798 1.15896 0
M  V30 5808 C 555.217 0.704677 2.22613 0
M  V30 5809 C 556.198 -0.305252 1.67339 0
M  V30 5810 O 557.383 -0.179247 1.93371 0
M  V30 5811 C 554.513 0.0957325 3.47168 0
M  V30 5812 C 553.467 1.0322 4.15367 0
M  V30 5813 C 552.793 0.286293 5.33933 0
M  V30 5814 C 554.093 2.36341 4.65768 0
M  V30 5815 H 555.787 1.59688 2.53259 0
M  V30 5816 H 553.333 0.769257 1.21731 0
M  V30 5817 H 555.286 -0.170333 4.21056 0
M  V30 5818 H 554.01 -0.831516 3.15838 0
M  V30 5819 H 552.669 1.28309 3.43413 0
M  V30 5820 H 552.317 -0.644237 4.98857 0
M  V30 5821 H 552.017 0.910436 5.80504 0
M  V30 5822 H 553.541 0.0278938 6.10594 0
M  V30 5823 H 554.955 2.1561 5.31211 0
M  V30 5824 H 553.352 2.94299 5.2298 0
M  V30 5825 H 554.422 2.99047 3.81705 0
M  V30 5826 N 555.766 -1.3263 0.851289 0
M  V30 5827 C 556.991 -2.02097 0.466006 0
M  V30 5828 C 557.416 -1.63574 -0.928709 0
M  V30 5829 O 556.774 -0.834665 -1.60944 0
M  V30 5830 C 556.822 -3.55425 0.608737 0
M  V30 5831 O 555.926 -4.10827 -0.359878 0
M  V30 5832 H 555.267 -0.636911 0.187724 0
M  V30 5833 H 557.797 -1.69253 1.14955 0
M  V30 5834 H 557.807 -4.04986 0.495006 0
M  V30 5835 H 556.482 -3.82806 1.62581 0
M  V30 5836 H 555.059 -3.72349 -0.202666 0
M  V30 5837 N 557.244 -0.608902 -1.45362 0
M  V30 5838 C 558.49 -0.104762 -2.02529 0
M  V30 5839 C 558.823 1.26191 -1.47613 0
M  V30 5840 O 558.098 1.8327 -0.65134 0
M  V30 5841 C 558.381 -0.0672661 -3.60037 0
M  V30 5842 C 558.234 -1.4647 -4.25284 0
M  V30 5843 C 559.553 0.619877 -4.35713 0
M  V30 5844 H 556.672 -0.0395438 -0.735938 0
M  V30 5845 H 559.314 -0.781126 -1.73201 0
M  V30 5846 H 557.464 0.50871 -3.85155 0
M  V30 5847 H 559.136 -2.08785 -4.11347 0
M  V30 5848 H 557.379 -2.02502 -3.83634 0
M  V30 5849 H 558.05 -1.39069 -5.34195 0
M  V30 5850 H 560.526 0.130297 -4.15896 0
M  V30 5851 H 559.402 0.615224 -5.45441 0
M  V30 5852 H 559.663 1.68621 -4.0868 0
M  V30 5853 N 558.722 1.53707 -0.348139 0
M  V30 5854 C 559.97 2.00591 0.246478 0
M  V30 5855 C 560.291 1.23753 1.50699 0
M  V30 5856 O 559.561 0.345964 1.92821 0
M  V30 5857 H 558.141 0.741053 0.0940679 0
M  V30 5858 H 560.803 1.89139 -0.470354 0
M  V30 5859 H 559.899 3.08297 0.485714 0
M  V30 5860 N 560.2 0.0768682 1.57412 0
M  V30 5861 C 561.13 -0.886026 2.16037 0
M  V30 5862 C 562.111 -1.30691 1.08876 0
M  V30 5863 O 563.296 -1.37705 1.36934 0
M  V30 5864 C 560.426 -2.1518 2.72608 0
M  V30 5865 C 559.38 -1.87015 3.8498 0
M  V30 5866 C 558.706 -3.20266 4.28175 0
M  V30 5867 C 560.006 -1.17143 5.08994 0
M  V30 5868 H 561.7 -0.397642 2.96748 0
M  V30 5869 H 559.246 -0.189823 1.42743 0
M  V30 5870 H 561.199 -2.82962 3.12266 0
M  V30 5871 H 559.923 -2.66269 1.89125 0
M  V30 5872 H 558.582 -1.21636 3.45833 0
M  V30 5873 H 558.23 -3.69207 3.41607 0
M  V30 5874 H 557.93 -3.0221 5.03927 0
M  V30 5875 H 559.454 -3.89237 4.70454 0
M  V30 5876 H 560.868 -1.75003 5.45937 0
M  V30 5877 H 559.265 -1.09328 5.90057 0
M  V30 5878 H 560.335 -0.151295 4.84664 0
M  V30 5879 N 561.678 -1.56367 -0.196722 0
M  V30 5880 C 562.588 -1.97617 -1.2643 0
M  V30 5881 C 563.604 -0.883598 -1.49895 0
M  V30 5882 O 564.78 -1.18921 -1.62541 0
M  V30 5883 C 561.845 -2.30595 -2.58895 0
M  V30 5884 C 560.906 -3.53551 -2.43516 0
M  V30 5885 C 560.139 -3.84946 -3.69665 0
M  V30 5886 O 560.362 -3.17655 -4.73763 0
M  V30 5887 O 559.296 -4.78379 -3.65291 0
M  V30 5888 H 563.122 -2.88648 -0.944233 0
M  V30 5889 H 560.707 -1.43901 -0.401592 0
M  V30 5890 H 562.589 -2.52889 -3.37083 0
M  V30 5891 H 561.264 -1.42732 -2.90533 0
M  V30 5892 H 560.171 -3.36507 -1.63445 0
M  V30 5893 H 561.504 -4.41875 -2.16812 0
M  V30 5894 N 563.156 0.464375 -1.50603 0
M  V30 5895 C 564.433 1.22549 -1.5245 0
M  V30 5896 C 564.813 2.09327 -0.273035 0
M  V30 5897 O 564.161 2.16074 0.743242 0
M  V30 5898 C 564.371 2.05074 -2.82393 0
M  V30 5899 C 565.719 2.63036 -3.33313 0
M  V30 5900 O 566.743 2.1531 -2.8376 0
M  V30 5901 O 565.602 3.5001 -4.19709 0
M  V30 5902 H 562.696 0.556471 -0.611775 0
M  V30 5903 H 565.242 0.475648 -1.62898 0
M  V30 5904 H 564.014 1.41169 -3.64948 0
M  V30 5905 H 563.637 2.87179 -2.7498 0
M  V30 5906 N 564.634 1.40294 0.718013 0
M  V30 5907 C 565.544 1.42678 1.86226 0
M  V30 5908 C 566.56 0.319655 1.71039 0
M  V30 5909 O 567.736 0.563852 1.93346 0
M  V30 5910 C 564.801 1.2852 3.21999 0
M  V30 5911 C 563.862 2.49354 3.49458 0
M  V30 5912 C 563.095 2.35863 4.78753 0
M  V30 5913 O 563.318 1.37114 5.53675 0
M  V30 5914 O 562.252 3.25189 5.06494 0
M  V30 5915 H 566.078 2.39167 1.87171 0
M  V30 5916 H 563.663 1.2159 0.868112 0
M  V30 5917 H 565.545 1.22824 4.03103 0
M  V30 5918 H 564.22 0.351359 3.21787 0
M  V30 5919 H 563.127 2.60628 2.68373 0
M  V30 5920 H 564.46 3.41491 3.54464 0
M  V30 5921 N 566.112 -0.949982 1.2575 0
M  V30 5922 C 567.022 -2.08109 1.08295 0
M  V30 5923 C 568.038 -1.7399 0.0188181 0
M  V30 5924 O 569.214 -2.00187 0.220724 0
M  V30 5925 C 566.279 -3.39383 0.708534 0
M  V30 5926 C 565.34 -3.8734 1.85111 0
M  V30 5927 C 564.573 -5.12349 1.49447 0
M  V30 5928 O 564.796 -5.6905 0.392212 0
M  V30 5929 O 563.73 -5.5513 2.32624 0
M  V30 5930 H 567.556 -2.25738 2.03165 0
M  V30 5931 H 565.141 -1.06545 1.04731 0
M  V30 5932 H 567.023 -4.18277 0.512061 0
M  V30 5933 H 565.698 -3.23013 -0.210854 0
M  V30 5934 H 564.605 -3.09429 2.10248 0
M  V30 5935 H 565.938 -4.08216 2.74991 0
M  V30 5936 N 567.59 -1.07411 -1.15328 0
M  V30 5937 C 568.867 -0.710732 -1.82231 0
M  V30 5938 C 569.247 0.806732 -1.95077 0
M  V30 5939 O 568.595 1.72139 -1.50268 0
M  V30 5940 C 568.805 -1.42586 -3.18544 0
M  V30 5941 C 570.153 -1.57836 -3.94174 0
M  V30 5942 O 571.177 -1.38669 -3.281 0
M  V30 5943 O 570.036 -1.8938 -5.12638 0
M  V30 5944 H 567.13 -0.25297 -0.78736 0
M  V30 5945 H 569.676 -1.17508 -1.22434 0
M  V30 5946 H 568.448 -2.46008 -3.04296 0
M  V30 5947 H 568.071 -0.952332 -3.86026 0
M  V30 5948 N 569.068 1.32177 -0.85831 0
M  V30 5949 C 569.998 2.31282 -0.321041 0
M  V30 5950 C 570.979 1.59841 0.581786 0
M  V30 5951 O 572.164 1.87619 0.501262 0
M  V30 5952 C 569.294 3.4385 0.48832 0
M  V30 5953 C 568.248 4.26799 -0.320391 0
M  V30 5954 C 567.574 5.31164 0.613934 0
M  V30 5955 C 568.874 4.98829 -1.54813 0
M  V30 5956 H 570.568 2.76469 -1.14915 0
M  V30 5957 H 568.114 1.32916 -0.554028 0
M  V30 5958 H 570.067 4.12224 0.874626 0
M  V30 5959 H 568.791 2.97401 1.34983 0
M  V30 5960 H 567.45 3.60077 -0.688497 0
M  V30 5961 H 567.098 4.80967 1.47239 0
M  V30 5962 H 566.798 5.8755 0.0768097 0
M  V30 5963 H 568.322 6.024 0.997336 0
M  V30 5964 H 569.736 5.59864 -1.23392 0
M  V30 5965 H 568.133 5.64957 -2.02346 0
M  V30 5966 H 569.203 4.26483 -2.30739 0
M  V30 5967 N 570.547 0.616602 1.45037 0
M  V30 5968 C 571.477 -0.0840787 2.33349 0
M  V30 5969 C 572.458 -0.849641 1.4736 0
M  V30 5970 O 573.643 -0.818407 1.76113 0
M  V30 5971 C 570.773 -1.07604 3.3021 0
M  V30 5972 C 569.727 -0.423096 4.25904 0
M  V30 5973 C 569.053 -1.52394 5.12523 0
M  V30 5974 C 570.353 0.661457 5.18095 0
M  V30 5975 H 572.047 0.653333 2.92185 0
M  V30 5976 H 569.593 0.315634 1.40498 0
M  V30 5977 H 571.546 -1.57485 3.90866 0
M  V30 5978 H 570.27 -1.84416 2.69552 0
M  V30 5979 H 568.929 0.05493 3.66559 0
M  V30 5980 H 568.577 -2.28257 4.48227 0
M  V30 5981 H 568.277 -1.09251 5.77354 0
M  V30 5982 H 569.801 -2.02485 5.76049 0
M  V30 5983 H 571.215 0.246353 5.7277 0
M  V30 5984 H 569.612 1.01517 5.91451 0
M  V30 5985 H 570.682 1.53446 4.59981 0
M  V30 5986 N 572.025 -1.5352 0.356285 0
M  V30 5987 C 572.935 -2.29151 -0.502712 0
M  V30 5988 C 573.951 -1.34753 -1.1008 0
M  V30 5989 O 575.127 -1.67803 -1.11374 0
M  V30 5990 C 572.192 -3.05911 -1.63154 0
M  V30 5991 C 571.253 -4.15958 -1.06194 0
M  V30 5992 C 570.486 -4.8905 -2.13696 0
M  V30 5993 O 570.709 -4.61919 -3.34645 0
M  V30 5994 O 569.643 -5.75202 -1.77275 0
M  V30 5995 H 573.469 -3.03492 0.112466 0
M  V30 5996 H 571.054 -1.4891 0.120942 0
M  V30 5997 H 572.936 -3.53874 -2.28804 0
M  V30 5998 H 571.611 -2.34415 -2.23229 0
M  V30 5999 H 570.518 -3.7227 -0.369603 0
M  V30 6000 H 571.851 -4.89593 -0.505872 0
M  V30 6001 N 573.503 -0.0852151 -1.57369 0
M  V30 6002 C 574.78 0.622534 -1.85429 0
M  V30 6003 C 575.16 1.86962 -0.980229 0
M  V30 6004 O 574.508 2.28445 -0.0500219 0
M  V30 6005 C 574.718 0.947374 -3.35896 0
M  V30 6006 C 576.066 1.31509 -4.03721 0
M  V30 6007 O 577.09 1.03869 -3.40719 0
M  V30 6008 O 575.949 1.83231 -5.14868 0
M  V30 6009 H 573.043 0.310513 -0.766492 0
M  V30 6010 H 575.589 -0.117164 -1.69295 0
M  V30 6011 H 574.361 0.0622264 -3.91251 0
M  V30 6012 H 573.984 1.74338 -3.5734 0
M  V30 6013 N 574.981 1.5647 0.188427 0
M  V30 6014 C 575.911 1.98101 1.23606 0
M  V30 6015 C 576.892 0.853961 1.47111 0
M  V30 6016 O 578.077 1.11879 1.58735 0
M  V30 6017 C 575.207 2.32624 2.57882 0
M  V30 6018 C 574.161 3.48129 2.48978 0
M  V30 6019 C 573.487 3.68347 3.87588 0
M  V30 6020 C 574.787 4.82112 2.00911 0
M  V30 6021 H 576.481 2.85864 0.890068 0
M  V30 6022 H 574.027 1.37532 0.426714 0
M  V30 6023 H 575.98 2.60343 3.3136 0
M  V30 6024 H 574.704 1.41751 2.94235 0
M  V30 6025 H 573.363 3.20511 1.77956 0
M  V30 6026 H 573.011 2.74793 4.21305 0
M  V30 6027 H 572.711 4.46055 3.82503 0
M  V30 6028 H 574.235 3.98449 4.62678 0
M  V30 6029 H 575.649 5.08819 2.64151 0
M  V30 6030 H 574.046 5.63337 2.06814 0
M  V30 6031 H 575.116 4.75249 0.96262 0
M  V30 6032 N 576.459 -0.456382 1.50847 0
M  V30 6033 C 577.736 -1.21739 1.53098 0
M  V30 6034 C 578.116 -2.09179 0.284132 0
M  V30 6035 O 577.464 -2.16466 -0.731773 0
M  V30 6036 C 577.674 -2.03573 2.83477 0
M  V30 6037 C 579.022 -2.61264 3.34703 0
M  V30 6038 O 580.046 -2.13802 2.84898 0
M  V30 6039 O 578.905 -3.47779 4.21559 0
M  V30 6040 H 575.999 -0.553219 0.614718 0
M  V30 6041 H 578.545 -0.467003 1.63148 0
M  V30 6042 H 577.317 -1.39232 3.65691 0
M  V30 6043 H 576.94 -2.85716 2.76499 0
M  V30 6044 N 577.937 -1.40673 -0.710563 0
M  V30 6045 C 578.869 -1.37256 -1.83558 0
M  V30 6046 C 579.882 -0.277133 -1.60424 0
M  V30 6047 O 581.071 -0.537831 -1.70205 0
M  V30 6048 C 578.171 -1.1144 -3.20054 0
M  V30 6049 C 577.344 -2.32734 -3.70342 0
M  V30 6050 C 576.403 -2.03002 -4.85465 0
M  V30 6051 O 575.429 -2.75912 -4.97857 0
M  V30 6052 N 576.631 -1.01105 -5.71627 0
M  V30 6053 H 579.396 -2.34215 -1.86985 0
M  V30 6054 H 576.957 -1.35091 -0.892301 0
M  V30 6055 H 578.949 -0.895265 -3.94673 0
M  V30 6056 H 577.519 -0.231307 -3.11743 0
M  V30 6057 H 576.739 -2.70446 -2.86798 0
M  V30 6058 H 578.027 -3.13584 -4.00678 0
M  V30 6059 H 577.425 -0.407303 -5.64232 0
M  V30 6060 H 575.982 -0.85182 -6.4621 0
M  V30 6061 N 579.415 0.9433 -1.26252 0
M  V30 6062 C 580.378 2.02326 -1.07689 0
M  V30 6063 C 581.378 1.60779 -0.0259174 0
M  V30 6064 O 582.568 1.72108 -0.269134 0
M  V30 6065 C 579.7 3.34886 -0.63752 0
M  V30 6066 H 580.893 2.20225 -2.0357 0
M  V30 6067 H 578.446 1.12197 -1.08819 0
M  V30 6068 H 579.181 3.22684 0.323377 0
M  V30 6069 H 578.966 3.66393 -1.39637 0
M  V30 6070 H 580.456 4.14231 -0.529418 0
M  V30 6071 N 580.893 1.08022 1.14757 0
M  V30 6072 C 581.823 0.728248 2.21853 0
M  V30 6073 C 582.804 -0.287486 1.67653 0
M  V30 6074 O 583.989 -0.158727 1.9355 0
M  V30 6075 C 581.119 0.132549 3.47047 0
M  V30 6076 C 580.073 1.07619 4.14249 0
M  V30 6077 C 579.399 0.342907 5.33599 0
M  V30 6078 C 580.699 2.41268 4.63235 0
M  V30 6079 H 582.393 1.62365 2.51551 0
M  V30 6080 H 579.939 0.782125 1.20908 0
M  V30 6081 H 581.892 -0.125665 4.21213 0
M  V30 6082 H 580.616 -0.797971 3.16702 0
M  V30 6083 H 579.275 1.31944 3.42033 0
M  V30 6084 H 578.923 -0.59129 4.99513 0
M  V30 6085 H 578.623 0.971955 5.79506 0
M  V30 6086 H 580.147 0.0926538 6.1053 0
M  V30 6087 H 581.561 2.21232 5.28894 0
M  V30 6088 H 579.958 2.9983 5.19829 0
M  V30 6089 H 581.028 3.03079 3.78512 0
M  V30 6090 N 582.371 -1.3172 0.865308 0
M  V30 6091 C 583.318 -2.2863 0.315736 0
M  V30 6092 C 584.288 -1.55524 -0.583213 0
M  V30 6093 O 585.473 -1.83694 -0.51585 0
M  V30 6094 C 582.613 -3.41735 -0.480773 0
M  V30 6095 C 581.726 -4.297 0.445167 0
M  V30 6096 C 580.861 -5.29944 -0.365012 0
M  V30 6097 C 579.9 -6.09554 0.557651 0
M  V30 6098 N 579.037 -7.01768 -0.215994 0
M  V30 6099 H 583.877 -2.75026 1.14736 0
M  V30 6100 H 581.414 -1.35302 0.577209 0
M  V30 6101 H 583.372 -4.06045 -0.958306 0
M  V30 6102 H 582.002 -2.96461 -1.27714 0
M  V30 6103 H 581.054 -3.65875 1.04113 0
M  V30 6104 H 582.366 -4.85295 1.15284 0
M  V30 6105 H 581.52 -5.99908 -0.905255 0
M  V30 6106 H 580.259 -4.74994 -1.106 0
M  V30 6107 H 579.264 -5.38485 1.10969 0
M  V30 6108 H 580.489 -6.66591 1.29742 0
M  V30 6109 H 578.435 -6.49232 -0.939878 0
M  V30 6110 H 578.352 -7.54762 0.432431 0
M  V30 6111 H 579.62 -7.76002 -0.737618 0
M  V30 6112 N 583.85 -0.624285 -1.44708 0
M  V30 6113 C 584.812 0.0749638 -2.29077 0
M  V30 6114 C 585.812 0.778965 -1.40673 0
M  V30 6115 O 587.003 0.624591 -1.62618 0
M  V30 6116 C 584.135 1.11663 -3.22094 0
M  V30 6117 H 585.327 -0.667013 -2.92388 0
M  V30 6118 H 582.88 -0.384098 -1.51507 0
M  V30 6119 H 583.615 1.88881 -2.63618 0
M  V30 6120 H 583.401 0.61583 -3.87234 0
M  V30 6121 H 584.891 1.60585 -3.8549 0
M  V30 6122 N 585.328 1.53329 -0.364422 0
M  V30 6123 C 586.291 2.24323 0.470292 0
M  V30 6124 C 587.291 1.25068 1.01067 0
M  V30 6125 O 588.481 1.49354 0.896605 0
M  V30 6126 C 585.613 2.97908 1.65722 0
M  V30 6127 H 586.806 2.9952 -0.150917 0
M  V30 6128 H 584.359 1.55868 -0.116092 0
M  V30 6129 H 585.094 2.2695 2.31655 0
M  V30 6130 H 584.879 3.70732 1.27671 0
M  V30 6131 H 586.369 3.5188 2.24878 0
M  V30 6132 N 586.806 0.0935595 1.57322 0
M  V30 6133 C 587.756 -0.876521 2.10478 0
M  V30 6134 C 588.74 -1.24482 1.01946 0
M  V30 6135 O 589.932 -1.22016 1.28223 0
M  V30 6136 C 587.061 -2.13615 2.68745 0
M  V30 6137 C 586.147 -1.79335 3.84317 0
M  V30 6138 N 586.538 -1.15606 4.92411 0
M  V30 6139 C 584.836 -2.08954 3.94023 0
M  V30 6140 C 585.537 -0.999036 5.73057 0
M  V30 6141 N 584.513 -1.51585 5.22037 0
M  V30 6142 H 588.315 -0.379829 2.91435 0
M  V30 6143 H 585.829 -0.109699 1.62029 0
M  V30 6144 H 587.826 -2.84053 3.05155 0
M  V30 6145 H 586.486 -2.63851 1.89242 0
M  V30 6146 H 587.497 -0.823063 5.11318 0
M  V30 6147 H 584.174 -2.61416 3.25527 0
M  V30 6148 H 585.564 -0.500772 6.70031 0
M  V30 6149 N 588.284 -1.56567 -0.180126 0
M  V30 6150 C 589.695 -1.7126 -0.743422 0
M  V30 6151 C 590.046 -0.70263 -1.83187 0
M  V30 6152 O 589.171 0.137856 -2.1596 0
M  V30 6153 C 589.766 -3.10512 -1.35528 0
M  V30 6154 C 588.325 -3.26919 -1.8655 0
M  V30 6155 C 587.472 -2.67213 -0.741099 0
M  V30 6156 H 590.423 -1.58636 0.0451543 0
M  V30 6157 H 590.444 -3.08673 -2.22489 0
M  V30 6158 H 589.956 -3.83997 -0.562862 0
M  V30 6159 H 588.057 -2.58376 -2.68464 0
M  V30 6160 H 588.17 -4.34574 -2.01699 0
M  V30 6161 H 586.534 -2.26788 -1.15927 0
M  V30 6162 H 587.317 -3.43277 0.0393291 0
M  V30 6163 N 589.762 0.448376 -1.51087 0
M  V30 6164 C 591.173 1.0286 -1.5581 0
M  V30 6165 C 591.524 1.92583 -0.374989 0
M  V30 6166 O 590.649 2.10316 0.509533 0
M  V30 6167 C 591.244 1.87223 -2.8237 0
M  V30 6168 C 589.803 2.40314 -2.897 0
M  V30 6169 C 588.95 1.19238 -2.50355 0
M  V30 6170 H 591.901 0.230075 -1.57023 0
M  V30 6171 H 591.922 2.72553 -2.6551 0
M  V30 6172 H 591.434 1.21894 -3.68461 0
M  V30 6173 H 589.535 3.09129 -2.08014 0
M  V30 6174 H 589.648 2.73866 -3.93108 0
M  V30 6175 H 588.012 1.53428 -2.03303 0
M  V30 6176 H 588.795 0.555367 -3.38778 0
M  V30 6177 N 591.24 1.41047 0.703093 0
M  V30 6178 C 592.465 1.43537 1.49706 0
M  V30 6179 C 592.89 0.0401853 1.88057 0
M  V30 6180 O 592.248 -0.954785 1.54122 0
M  V30 6181 C 592.296 2.3433 2.74084 0
M  V30 6182 O 591.4 1.79515 3.71279 0
M  V30 6183 H 590.741 0.487454 0.450871 0
M  V30 6184 H 593.271 1.85422 0.86486 0
M  V30 6185 H 593.281 2.49947 3.22476 0
M  V30 6186 H 591.956 3.35708 2.45506 0
M  V30 6187 H 590.533 1.7331 3.30179 0
M  V30 6188 N 592.718 -0.936591 1.26751 0
M  V30 6189 C 593.966 -1.67998 1.12343 0
M  V30 6190 C 594.287 -1.92137 -0.332938 0
M  V30 6191 O 593.557 -1.52132 -1.23421 0
M  V30 6192 H 592.137 -0.622609 0.412756 0
M  V30 6193 H 594.799 -1.12509 1.59147 0
M  V30 6194 H 593.895 -2.65185 1.64571 0
M  V30 6195 N 594.196 -1.08629 -1.14182 0
M  V30 6196 C 595.421 -0.83902 -1.89671 0
M  V30 6197 C 595.846 0.603332 -1.78161 0
M  V30 6198 O 595.204 1.42301 -1.12339 0
M  V30 6199 C 595.252 -1.26854 -3.37551 0
M  V30 6200 O 594.356 -0.42188 -4.10236 0
M  V30 6201 H 593.697 -0.304545 -0.590041 0
M  V30 6202 H 596.227 -1.4483 -1.44518 0
M  V30 6203 H 596.237 -1.25038 -3.88368 0
M  V30 6204 H 594.912 -2.31901 -3.45246 0
M  V30 6205 H 593.489 -0.503654 -3.69483 0
M  V30 6206 N 595.674 1.31259 -0.872281 0
M  V30 6207 C 596.624 2.26 -0.301295 0
M  V30 6208 C 597.608 1.50729 0.562991 0
M  V30 6209 O 598.8 1.72198 0.40949 0
M  V30 6210 C 595.929 3.39724 0.494227 0
M  V30 6211 C 595.015 4.22363 -0.383432 0
M  V30 6212 N 595.406 4.83724 -1.47799 0
M  V30 6213 C 593.704 4.45652 -0.176278 0
M  V30 6214 C 594.405 5.45523 -2.01939 0
M  V30 6215 N 593.381 5.27428 -1.31608 0
M  V30 6216 H 597.183 2.70981 -1.13782 0
M  V30 6217 H 594.697 1.45552 -0.720294 0
M  V30 6218 H 596.694 4.06626 0.919828 0
M  V30 6219 H 595.354 2.96286 1.32834 0
M  V30 6220 H 596.365 4.83313 -1.8609 0
M  V30 6221 H 593.042 4.12845 0.621698 0
M  V30 6222 H 594.432 6.04268 -2.93786 0
M  V30 6223 N 597.152 0.631951 1.44375 0
M  V30 6224 C 598.377 0.142146 2.06912 0
M  V30 6225 C 598.802 -1.17456 1.4692 0
M  V30 6226 O 598.16 -1.72074 0.570975 0
M  V30 6227 C 598.208 0.0417952 3.60576 0
M  V30 6228 O 597.312 -1.00194 4.00044 0
M  V30 6229 H 596.653 0.0851491 0.658518 0
M  V30 6230 H 599.183 0.868863 1.85235 0
M  V30 6231 H 599.193 -0.148517 4.0773 0
M  V30 6232 H 597.868 1.0031 4.03622 0
M  V30 6233 H 596.445 -0.786131 3.64519 0
M  V30 6234 O 598.669 -1.53077 0.514746 0
M  V30 6235 H 599.36 -1.937 0.000749731 0
M  V30 END ATOM
M  V30 BEGIN BOND
M  V30 END BOND
M  V30 END CTAB
M  END
$$$$
