drugbank_target|P05412 Transcription factor AP-1 (DB00210; DB00570; DB01029; DB01169; DB05785)
 OpenBabel12092119463D

  0  0  0     0  0            999 V3000
M  V30 BEGIN CTAB
M  V30 COUNTS 5014 5065 0 0 0
M  V30 BEGIN ATOM
M  V30 1 H -0.908 1.98254 -0.117106 0
M  V30 2 N 0 1.576 0 0
M  V30 3 C 0.933 2.03868 1.02534 0
M  V30 4 C 1.911 0.928543 1.3348 0
M  V30 5 O 3.095 1.19667 1.45644 0
M  V30 6 C 0.222 2.43627 2.35294 0
M  V30 7 C -0.732 3.65373 2.2001 0
M  V30 8 S 0.101 5.13292 1.52614 0
M  V30 9 C 1.257 5.56322 2.86805 0
M  V30 10 H 1.49 2.90518 0.631377 0
M  V30 11 H -0.977 1.52953 0.210867 0
M  V30 12 H 0.981 2.67203 3.11629 0
M  V30 13 H -0.358 1.57376 2.7183 0
M  V30 14 H -1.165 3.90944 3.18086 0
M  V30 15 H -1.563 3.418 1.51819 0
M  V30 16 H 0.729 5.58782 3.83104 0
M  V30 17 H 1.672 6.56266 2.65933 0
M  V30 18 H 2.08 4.83886 2.90714 0
M  V30 19 N 1.4781 -0.272755 1.55222 0
M  V30 20 C 2.7061 -1.02255 1.79865 0
M  V30 21 C 3.1211 -1.79924 0.572088 0
M  V30 22 O 2.4781 -1.76638 -0.458842 0
M  V30 23 C 2.5291 -1.98094 3.02392 0
M  V30 24 O 2.2501 -1.23572 4.20311 0
M  V30 25 C 3.7511 -2.84884 3.39641 0
M  V30 26 H 0.9711 -0.302057 0.599168 0
M  V30 27 H 3.5151 -0.303465 2.02236 0
M  V30 28 H 1.6701 -2.65465 2.82147 0
M  V30 29 H 2.0841 -1.88172 4.89583 0
M  V30 30 H 3.5581 -3.47927 4.28545 0
M  V30 31 H 4.0351 -3.54665 2.59055 0
M  V30 32 H 4.6411 -2.23003 3.62146 0
M  V30 33 N 2.9562 -1.48159 -0.537278 0
M  V30 34 C 3.9192 -1.61665 -1.62472 0
M  V30 35 C 4.9192 -0.490395 -1.5314 0
M  V30 36 O 6.1092 -0.755998 -1.5694 0
M  V30 37 C 3.2412 -1.57997 -3.02076 0
M  V30 38 H 4.4342 -2.58621 -1.51839 0
M  V30 39 H 1.9872 -1.36647 -0.758771 0
M  V30 40 H 2.7222 -0.624913 -3.18222 0
M  V30 41 H 2.5072 -2.39755 -3.10258 0
M  V30 42 H 3.9972 -1.70627 -3.81151 0
M  V30 43 N 4.4343 0.785586 -1.36625 0
M  V30 44 C 5.3813 1.89838 -1.31264 0
M  V30 45 C 6.3513 1.65115 -0.180633 0
M  V30 46 O 7.5363 1.87222 -0.36777 0
M  V30 47 C 4.6763 3.26706 -1.11163 0
M  V30 48 C 3.7893 3.63476 -2.33472 0
M  V30 49 C 2.9243 4.89481 -2.06353 0
M  V30 50 C 1.9633 5.18941 -3.24602 0
M  V30 51 N 1.1003 6.36131 -2.97123 0
M  V30 52 H 5.9403 1.93756 -2.26413 0
M  V30 53 H 3.4773 0.947454 -1.12524 0
M  V30 54 H 5.4353 4.05639 -0.975337 0
M  V30 55 H 4.0653 3.222 -0.196674 0
M  V30 56 H 3.1173 2.79636 -2.57891 0
M  V30 57 H 4.4293 3.81193 -3.21704 0
M  V30 58 H 3.5833 5.76288 -1.89675 0
M  V30 59 H 2.3223 4.73841 -1.15437 0
M  V30 60 H 1.3273 4.30615 -3.41834 0
M  V30 61 H 2.5523 5.36498 -4.16349 0
M  V30 62 H 0.4983 6.21875 -2.08823 0
M  V30 63 H 0.4153 6.54198 -3.78894 0
M  V30 64 H 1.6833 7.2591 -2.84033 0
M  V30 65 N 5.9124 1.20967 1.01018 0
M  V30 66 C 6.8454 0.907578 2.09376 0
M  V30 67 C 7.8234 -0.142868 1.61971 0
M  V30 68 O 9.0074 -0.0150391 1.88494 0
M  V30 69 C 6.1344 0.361791 3.36762 0
M  V30 70 C 5.1804 1.39423 4.03068 0
M  V30 71 S 6.0134 2.96159 4.4615 0
M  V30 72 C 7.1694 2.43173 5.7673 0
M  V30 73 H 7.4024 1.82519 2.34678 0
M  V30 74 H 4.9354 1.03884 1.14225 0
M  V30 75 H 6.8934 0.0534523 4.10465 0
M  V30 76 H 5.5544 -0.53443 3.0952 0
M  V30 77 H 4.7474 0.961853 4.94737 0
M  V30 78 H 4.3494 1.65038 3.35617 0
M  V30 79 H 6.6414 1.83335 6.52223 0
M  V30 80 H 7.5844 3.33264 6.24773 0
M  V30 81 H 7.9924 1.85069 5.33301 0
M  V30 82 N 7.3905 -1.2043 1.01659 0
M  V30 83 C 8.3005 -2.2689 0.596484 0
M  V30 84 C 9.3165 -1.70107 -0.36599 0
M  V30 85 O 10.4925 -2.00117 -0.226942 0
M  V30 86 C 7.5575 -3.4665 -0.0586659 0
M  V30 87 C 6.6185 -4.18662 0.949751 0
M  V30 88 C 5.8515 -5.32705 0.32577 0
M  V30 89 O 6.0745 -5.63656 -0.874509 0
M  V30 90 O 5.0085 -5.92803 1.04249 0
M  V30 91 H 8.8345 -2.65041 1.4828 0
M  V30 92 H 6.4195 -1.27048 0.786082 0
M  V30 93 H 8.3015 -4.19256 -0.424564 0
M  V30 94 H 6.9765 -3.10375 -0.91918 0
M  V30 95 H 5.8835 -3.48229 1.36702 0
M  V30 96 H 7.2165 -4.58878 1.78023 0
M  V30 97 N 8.8686 -0.792821 -1.36206 0
M  V30 98 C 10.0966 -0.378825 -2.03402 0
M  V30 99 C 10.5116 1.00586 -1.59774 0
M  V30 100 O 9.8686 1.64574 -0.788764 0
M  V30 101 C 9.9196 -0.43683 -3.58851 0
M  V30 102 O 9.6406 -1.76691 -4.00889 0
M  V30 103 C 11.1416 -0.0138943 -4.43298 0
M  V30 104 H 8.3616 -0.155673 -0.652692 0
M  V30 105 H 10.9056 -1.07261 -1.74113 0
M  V30 106 H 9.0606 0.208575 -3.86838 0
M  V30 107 H 9.4746 -1.72011 -4.95492 0
M  V30 108 H 10.9486 -0.105615 -5.51899 0
M  V30 109 H 11.4256 1.03915 -4.2673 0
M  V30 110 H 12.0316 -0.63192 -4.20579 0
M  V30 111 N 10.3467 1.47872 -0.545128 0
M  V30 112 C 11.5747 2.06889 -0.021084 0
M  V30 113 C 11.9897 1.39955 1.2672 0
M  V30 114 O 11.3467 0.492036 1.75742 0
M  V30 115 C 11.3977 3.60996 0.190817 0
M  V30 116 O 11.1187 4.25419 -1.04644 0
M  V30 117 C 12.6197 4.36849 0.753521 0
M  V30 118 H 9.8397 0.669785 -0.0403635 0
M  V30 119 H 12.3837 1.90049 -0.755095 0
M  V30 120 H 10.5387 3.77391 0.87492 0
M  V30 121 H 10.9527 5.17785 -0.836611 0
M  V30 122 H 12.4267 5.45399 0.851139 0
M  V30 123 H 12.9037 4.02306 1.762 0
M  V30 124 H 13.5097 4.25169 0.105503 0
M  V30 125 N 11.8248 0.280983 1.55075 0
M  V30 126 C 13.0718 -0.334115 1.99725 0
M  V30 127 C 13.3998 -1.5542 1.1694 0
M  V30 128 O 12.6548 -1.94361 0.228531 0
M  V30 129 C 12.9538 -0.754656 3.49342 0
M  V30 130 C 12.6198 0.361445 4.49449 0
M  V30 131 C 11.2818 0.667893 4.76542 0
M  V30 132 C 13.6338 1.11322 5.09173 0
M  V30 133 C 10.9618 1.7296 5.60626 0
M  V30 134 C 13.3138 2.1647 5.9441 0
M  V30 135 C 11.9778 2.47742 6.19822 0
M  V30 136 H 11.2478 -0.122261 0.730844 0
M  V30 137 H 13.8948 0.395917 1.87363 0
M  V30 138 H 12.1998 -1.56446 3.5921 0
M  V30 139 H 13.8968 -1.24142 3.813 0
M  V30 140 H 10.4868 0.112481 4.28452 0
M  V30 141 H 14.6708 0.88973 4.8826 0
M  V30 142 H 9.9268 1.97684 5.78559 0
M  V30 143 H 14.1008 2.75193 6.3972 0
M  V30 144 H 11.7278 3.30145 6.84769 0
M  V30 145 N 13.3029 -1.57598 0.00835791 0
M  V30 146 C 14.5329 -1.94931 -0.684496 0
M  V30 147 C 14.9409 -0.882233 -1.67372 0
M  V30 148 O 14.2839 0.146621 -1.83114 0
M  V30 149 C 14.3459 -3.283 -1.4649 0
M  V30 150 C 14.0099 -4.52548 -0.63634 0
M  V30 151 C 15.0069 -5.19839 0.0795586 0
M  V30 152 C 12.6919 -4.98942 -0.579849 0
M  V30 153 C 14.6859 -6.3183 0.840843 0
M  V30 154 C 12.3729 -6.10819 0.185155 0
M  V30 155 C 13.3709 -6.77121 0.894227 0
M  V30 156 O 13.0589 -7.86853 1.64673 0
M  V30 157 H 12.7909 -0.647249 -0.19505 0
M  V30 158 H 15.3449 -2.05318 0.0581272 0
M  V30 159 H 13.5749 -3.14345 -2.2522 0
M  V30 160 H 15.2639 -3.50685 -2.04389 0
M  V30 161 H 16.0299 -4.84979 0.0451202 0
M  V30 162 H 11.9089 -4.47155 -1.1213 0
M  V30 163 H 15.4529 -6.83513 1.39483 0
M  V30 164 H 11.3499 -6.4512 0.221384 0
M  V30 165 H 12.1179 -8.03412 1.56432 0
M  V30 166 N 14.781 0.264519 -1.55364 0
M  V30 167 C 16.058 1.01677 -1.67096 0
M  V30 168 C 16.438 2.03996 -0.543015 0
M  V30 169 O 15.786 2.23907 0.45585 0
M  V30 170 C 15.996 1.66596 -3.0667 0
M  V30 171 C 17.344 2.17442 -3.64697 0
M  V30 172 O 18.368 1.76568 -3.09358 0
M  V30 173 O 17.227 2.92439 -4.61673 0
M  V30 174 H 14.321 0.472161 -0.678965 0
M  V30 175 H 16.867 0.259703 -1.67701 0
M  V30 176 H 15.639 0.924962 -3.80211 0
M  V30 177 H 15.262 2.48968 -3.10001 0
M  V30 178 N 16.2591 1.48442 0.529413 0
M  V30 179 C 17.5361 1.46978 1.29062 0
M  V30 180 C 17.9161 0.181769 2.10316 0
M  V30 181 O 17.2641 -0.836481 2.12639 0
M  V30 182 C 17.4741 2.7321 2.17157 0
M  V30 183 C 18.8221 3.21562 2.77278 0
M  V30 184 O 19.8461 2.74131 2.27444 0
M  V30 185 O 18.7051 4.04094 3.67927 0
M  V30 186 H 15.7991 0.587003 0.582543 0
M  V30 187 H 18.3451 1.60676 0.546021 0
M  V30 188 H 17.1171 3.58465 1.56903 0
M  V30 189 H 16.7401 2.62235 2.98862 0
M  V30 190 N 17.7372 -0.778329 1.37039 0
M  V30 191 C 18.7002 -1.87301 1.32102 0
M  V30 192 C 19.7002 -1.59198 0.226405 0
M  V30 193 O 20.8902 -1.67403 0.481861 0
M  V30 194 C 18.0222 -3.24309 1.05055 0
M  V30 195 H 19.2152 -1.93093 2.29467 0
M  V30 196 H 16.7682 -0.977358 1.21973 0
M  V30 197 H 17.5032 -3.24196 0.0819373 0
M  V30 198 H 17.2882 -3.46098 1.84279 0
M  V30 199 H 18.7782 -4.04382 1.04234 0
M  V30 200 N 19.2153 -1.21501 -1.00376 0
M  V30 201 C 20.1453 -0.999478 -2.11028 0
M  V30 202 C 21.1263 0.0759671 -1.6993 0
M  V30 203 O 22.3113 -0.0841106 -1.94018 0
M  V30 204 C 19.4413 -0.564709 -3.42678 0
M  V30 205 C 18.3953 -1.58486 -3.97576 0
M  V30 206 C 17.7213 -1.00628 -5.25146 0
M  V30 207 C 19.0213 -2.97204 -4.29496 0
M  V30 208 H 20.7153 -1.92495 -2.29317 0
M  V30 209 H 18.2613 -0.92693 -1.102 0
M  V30 210 H 20.2143 -0.401091 -4.19487 0
M  V30 211 H 18.9383 0.396411 -3.24185 0
M  V30 212 H 17.5973 -1.73606 -3.22888 0
M  V30 213 H 17.2453 -0.0368439 -5.02987 0
M  V30 214 H 16.9453 -1.68771 -5.62841 0
M  V30 215 H 18.4693 -0.854015 -6.04598 0
M  V30 216 H 19.8833 -2.8552 -4.97143 0
M  V30 217 H 18.2803 -3.62372 -4.78338 0
M  V30 218 H 19.3503 -3.47956 -3.3772 0
M  V30 219 N 20.6934 1.19889 -1.02296 0
M  V30 220 C 21.6414 2.24938 -0.592081 0
M  V30 221 C 22.6354 1.65257 0.372357 0
M  V30 222 O 23.8414 1.78371 0.241583 0
M  V30 223 H 20.2164 0.731787 -0.173182 0
M  V30 224 H 22.1874 2.58603 -1.48885 0
M  V30 225 C 20.9364 3.47668 0.047351 0
M  V30 226 H 20.2594 3.93875 -0.685772 0
M  V30 227 H 21.6994 4.22852 0.311862 0
M  V30 228 C 20.1584 3.11136 1.29212 0
M  V30 229 O 20.6884 3.2325 2.38479 0
M  V30 230 N 18.8944 2.65625 1.17863 0
M  V30 231 H 18.4414 2.55968 0.289493 0
M  V30 232 H 18.3994 2.41553 2.01245 0
M  V30 233 N 22.1715 0.800033 1.35784 0
M  V30 234 C 23.1345 0.211565 2.28221 0
M  V30 235 C 24.1345 -0.59728 1.49296 0
M  V30 236 O 25.3245 -0.416721 1.69142 0
M  V30 237 C 22.4565 -0.705846 3.33513 0
M  V30 238 H 23.6495 1.02677 2.81776 0
M  V30 239 H 21.2025 0.570211 1.45528 0
M  V30 240 H 21.9375 -1.54498 2.85133 0
M  V30 241 H 21.7225 -0.127655 3.91892 0
M  V30 242 H 23.2125 -1.11211 4.02519 0
M  V30 243 N 23.6496 -1.47581 0.552962 0
M  V30 244 C 24.8746 -2.07378 0.0300593 0
M  V30 245 C 25.2996 -1.40355 -1.25229 0
M  V30 246 O 24.6576 -0.477099 -1.7491 0
M  V30 247 C 24.7056 -3.60274 -0.153231 0
M  V30 248 O 23.8096 -3.94041 -1.21678 0
M  V30 249 H 23.1506 -0.662158 0.0494182 0
M  V30 250 H 25.6806 -1.89662 0.767434 0
M  V30 251 H 25.6906 -4.0633 -0.368761 0
M  V30 252 H 24.3656 -4.08455 0.783397 0
M  V30 253 H 22.9426 -3.59735 -0.982079 0
M  V30 254 N 25.1277 -0.289203 -1.54924 0
M  V30 255 C 26.3747 0.323519 -1.99899 0
M  V30 256 C 26.7027 1.54797 -1.17762 0
M  V30 257 O 25.9577 1.94237 -0.238835 0
M  V30 258 C 26.2567 0.736119 -3.49737 0
M  V30 259 C 25.9227 -0.385276 -4.49251 0
M  V30 260 C 24.5847 -0.693156 -4.76181 0
M  V30 261 C 26.9367 -1.14021 -5.08575 0
M  V30 262 C 24.2647 -1.7593 -5.59701 0
M  V30 263 C 26.6167 -2.19619 -5.93254 0
M  V30 264 C 25.2807 -2.51026 -6.185 0
M  V30 265 H 24.5507 0.118384 -0.731482 0
M  V30 266 H 27.1977 -0.405847 -1.8715 0
M  V30 267 H 25.5027 1.54539 -3.60035 0
M  V30 268 H 27.1997 1.22118 -3.81953 0
M  V30 269 H 23.7897 -0.135202 -4.28387 0
M  V30 270 H 27.9737 -0.915611 -4.87781 0
M  V30 271 H 23.2297 -2.0075 -5.77503 0
M  V30 272 H 27.4037 -2.78581 -6.38252 0
M  V30 273 H 25.0307 -3.33772 -6.83008 0
M  V30 274 N 26.6058 1.57591 -0.0167156 0
M  V30 275 C 27.5358 2.12496 0.967858 0
M  V30 276 C 28.5168 1.03807 1.34752 0
M  V30 277 O 29.7018 1.31577 1.42833 0
M  V30 278 C 26.8318 2.64194 2.25431 0
M  V30 279 C 25.7858 3.77559 2.01576 0
M  V30 280 C 25.1118 4.15636 3.36379 0
M  V30 281 C 26.4118 5.04151 1.36489 0
M  V30 282 H 28.1058 2.95013 0.510643 0
M  V30 283 H 25.6518 1.41915 0.244181 0
M  V30 284 H 27.6048 3.01236 2.94678 0
M  V30 285 H 26.3288 1.78821 2.73296 0
M  V30 286 H 24.9878 3.40937 1.34751 0
M  V30 287 H 24.6358 3.27263 3.81979 0
M  V30 288 H 24.3358 4.92022 3.21229 0
M  V30 289 H 25.8598 4.5525 4.06915 0
M  V30 290 H 27.2738 5.38857 1.95718 0
M  V30 291 H 25.6708 5.85453 1.31776 0
M  V30 292 H 26.7408 4.83733 0.336219 0
M  V30 293 N 28.0839 -0.256276 1.55502 0
M  V30 294 C 29.4949 -0.826068 1.67431 0
M  V30 295 C 29.8459 -1.86396 0.612446 0
M  V30 296 O 28.9709 -2.15031 -0.243025 0
M  V30 297 C 29.5659 -1.50512 3.03532 0
M  V30 298 C 28.1249 -2.02273 3.17431 0
M  V30 299 C 27.2719 -0.870548 2.63281 0
M  V30 300 H 30.2229 -0.0322728 1.58667 0
M  V30 301 H 30.2439 -2.37279 2.97454 0
M  V30 302 H 29.7559 -0.749484 3.80794 0
M  V30 303 H 27.8569 -2.80746 2.44974 0
M  V30 304 H 27.9699 -2.22655 4.24219 0
M  V30 305 H 26.3339 -1.26851 2.20864 0
M  V30 306 H 27.1169 -0.128149 3.43061 0
M  V30 307 N 29.562 -1.4872 -0.521534 0
M  V30 308 C 30.787 -1.61101 -1.30618 0
M  V30 309 C 31.212 -0.274611 -1.86085 0
M  V30 310 O 30.57 0.754937 -1.64834 0
M  V30 311 C 30.618 -2.66709 -2.4269 0
M  V30 312 O 29.722 -2.24456 -3.45967 0
M  V30 313 H 29.063 -0.539921 -0.386499 0
M  V30 314 H 31.593 -1.94767 -0.626645 0
M  V30 315 H 31.603 -2.88245 -2.88754 0
M  V30 316 H 30.278 -3.63727 -2.01682 0
M  V30 317 H 28.855 -2.13168 -3.05964 0
M  V30 318 N 31.0401 0.771051 -1.3745 0
M  V30 319 C 31.9501 1.91538 -1.35464 0
M  V30 320 C 32.9661 1.72134 -0.254123 0
M  V30 321 O 34.1421 1.95358 -0.489626 0
M  V30 322 C 31.2071 3.26671 -1.16134 0
M  V30 323 C 30.2681 3.58723 -2.35831 0
M  V30 324 C 29.5011 4.87409 -2.17413 0
M  V30 325 O 29.7241 5.58506 -1.15876 0
M  V30 326 O 28.6581 5.18539 -3.05615 0
M  V30 327 H 32.4841 1.96165 -2.31847 0
M  V30 328 H 30.0691 0.9139 -1.18187 0
M  V30 329 H 31.9511 4.07499 -1.07345 0
M  V30 330 H 30.6261 3.22894 -0.228251 0
M  V30 331 H 29.5331 2.78127 -2.50192 0
M  V30 332 H 30.8661 3.67243 -3.27709 0
M  V30 333 N 32.5182 1.22032 0.997298 0
M  V30 334 C 33.7432 1.06921 1.77715 0
M  V30 335 C 34.1682 -0.376226 1.84299 0
M  V30 336 O 33.5262 -1.27165 1.29223 0
M  V30 337 C 33.5742 1.67996 3.19076 0
M  V30 338 O 32.6782 0.930653 4.01762 0
M  V30 339 H 32.0192 0.375814 0.547412 0
M  V30 340 H 34.5492 1.61737 1.25309 0
M  V30 341 H 34.5592 1.72538 3.69723 0
M  V30 342 H 33.2342 2.73182 3.13599 0
M  V30 343 H 31.8112 0.960917 3.60307 0
M  V30 344 N 33.9963 -1.19345 1.0293 0
M  V30 345 C 35.2443 -1.88665 0.724574 0
M  V30 346 C 35.5653 -1.80036 -0.749144 0
M  V30 347 O 34.8353 -1.2111 -1.53978 0
M  V30 348 H 33.4153 -0.698406 0.265025 0
M  V30 349 H 36.0773 -1.44885 1.30362 0
M  V30 350 H 35.1733 -2.94987 1.01926 0
M  V30 351 N 35.4744 -0.807222 -1.35358 0
M  V30 352 C 36.8854 -0.44876 -1.81226 0
M  V30 353 C 37.2364 1.02929 -1.67033 0
M  V30 354 O 36.3614 1.79991 -1.20133 0
M  V30 355 C 36.9564 -0.807774 -3.2903 0
M  V30 356 C 35.5154 -0.501901 -3.73039 0
M  V30 357 C 34.6624 -1.03304 -2.57339 0
M  V30 358 H 37.6134 -0.998808 -1.23327 0
M  V30 359 H 37.6344 -0.10554 -3.80354 0
M  V30 360 H 37.1464 -1.88357 -3.39328 0
M  V30 361 H 35.2474 0.565128 -3.68289 0
M  V30 362 H 35.3604 -1.03497 -4.67787 0
M  V30 363 H 33.7244 -0.455339 -2.50597 0
M  V30 364 H 34.5074 -2.11496 -2.70415 0
M  V30 365 N 36.9525 1.47285 -0.560781 0
M  V30 366 C 38.1825 2.06555 -0.0429638 0
M  V30 367 C 38.5905 1.41339 1.25777 0
M  V30 368 O 37.9335 0.505182 1.76617 0
M  V30 369 C 37.9955 3.58827 0.219887 0
M  V30 370 C 37.6595 4.46105 -0.991944 0
M  V30 371 C 38.6565 4.84 -1.89843 0
M  V30 372 C 36.3415 4.87567 -1.20762 0
M  V30 373 C 38.3355 5.6216 -3.00425 0
M  V30 374 C 36.0225 5.65491 -2.31653 0
M  V30 375 C 37.0205 6.02699 -3.21315 0
M  V30 376 O 36.7085 6.79052 -4.30283 0
M  V30 377 H 36.4405 0.674537 -0.0444468 0
M  V30 378 H 38.9945 1.90225 -0.774818 0
M  V30 379 H 37.2245 3.73383 1.00609 0
M  V30 380 H 38.9135 4.00103 0.683522 0
M  V30 381 H 39.6795 4.52564 -1.74387 0
M  V30 382 H 35.5585 4.5807 -0.518893 0
M  V30 383 H 39.1025 5.9112 -3.70436 0
M  V30 384 H 34.9995 5.9634 -2.47081 0
M  V30 385 H 35.7675 6.9745 -4.28376 0
M  V30 386 N 38.4306 0.297415 1.54768 0
M  V30 387 C 39.6786 -0.312295 1.99673 0
M  V30 388 C 39.9996 -1.54686 1.18732 0
M  V30 389 O 39.2696 -1.93854 0.282382 0
M  V30 390 H 37.8496 -0.118381 0.73756 0
M  V30 391 H 40.5116 0.407915 1.90583 0
M  V30 392 H 39.6076 -0.586813 3.06534 0
M  V30 393 N 39.9087 -1.5758 0.0250728 0
M  V30 394 C 41.1387 -1.95646 -0.663783 0
M  V30 395 C 41.5467 -0.899935 -1.66427 0
M  V30 396 O 40.8897 0.127191 -1.83259 0
M  V30 397 C 40.9517 -3.29835 -1.43 0
M  V30 398 C 40.6157 -4.53197 -0.588305 0
M  V30 399 C 41.6127 -5.19726 0.13469 0
M  V30 400 C 39.2977 -4.99529 -0.526897 0
M  V30 401 C 41.2917 -6.30902 0.90781 0
M  V30 402 C 38.9787 -6.10589 0.24993 0
M  V30 403 C 39.9767 -6.76134 0.965994 0
M  V30 404 O 39.6647 -7.85062 1.7301 0
M  V30 405 H 39.3967 -0.649282 -0.188174 0
M  V30 406 H 41.9507 -2.05245 0.0799006 0
M  V30 407 H 40.1807 -3.16716 -2.21873 0
M  V30 408 H 41.8697 -3.52833 -2.00658 0
M  V30 409 H 42.6357 -4.84904 0.0965562 0
M  V30 410 H 38.5147 -4.48319 -1.07381 0
M  V30 411 H 42.0587 -6.81995 1.46724 0
M  V30 412 H 37.9557 -6.44849 0.289795 0
M  V30 413 H 38.7237 -8.01708 1.64944 0
M  V30 414 N 41.3868 0.248026 -1.55636 0
M  V30 415 C 42.6118 0.998028 -1.81808 0
M  V30 416 C 43.0368 1.78207 -0.601979 0
M  V30 417 O 42.3948 1.75653 0.448961 0
M  V30 418 C 42.4428 1.9125 -3.05705 0
M  V30 419 O 41.5468 3.00406 -2.82542 0
M  V30 420 H 40.8878 0.284045 -0.600179 0
M  V30 421 H 43.4178 0.269357 -2.02819 0
M  V30 422 H 43.4278 2.32737 -3.35108 0
M  V30 423 H 42.1028 1.33602 -3.93857 0
M  V30 424 H 40.6798 2.63056 -2.64303 0
M  V30 425 N 42.8649 1.48995 0.513639 0
M  V30 426 C 43.8129 1.65199 1.63744 0
M  V30 427 C 44.8069 0.51809 1.61283 0
M  V30 428 O 46.0129 0.697335 1.65943 0
M  V30 429 H 42.3879 0.52069 0.542574 0
M  V30 430 H 44.3589 2.59552 1.47226 0
M  V30 431 C 43.1079 1.72409 3.01945 0
M  V30 432 H 42.4309 2.59029 3.04539 0
M  V30 433 H 43.8709 1.87785 3.80148 0
M  V30 434 C 42.3299 0.46618 3.33659 0
M  V30 435 O 42.8599 -0.413744 3.99564 0
M  V30 436 N 41.0659 0.332931 2.88687 0
M  V30 437 H 40.6129 1.04996 2.35231 0
M  V30 438 H 40.5709 -0.507665 3.10274 0
M  V30 439 N 44.343 -0.763751 1.37857 0
M  V30 440 C 45.754 -1.3405 1.29952 0
M  V30 441 C 46.105 -1.96138 -0.0492898 0
M  V30 442 O 45.23 -1.94372 -0.951239 0
M  V30 443 C 45.825 -2.43729 2.35333 0
M  V30 444 C 44.384 -2.97151 2.31037 0
M  V30 445 C 43.531 -1.70438 2.18738 0
M  V30 446 H 46.482 -0.563396 1.48363 0
M  V30 447 H 46.503 -3.23412 2.00462 0
M  V30 448 H 46.015 -1.9851 3.33489 0
M  V30 449 H 44.116 -3.46724 1.3643 0
M  V30 450 H 44.229 -3.52221 3.24772 0
M  V30 451 H 42.593 -1.93673 1.65418 0
M  V30 452 H 43.376 -1.27312 3.18821 0
M  V30 453 N 45.8211 -1.22559 -0.990812 0
M  V30 454 C 46.7681 -0.997519 -2.0813 0
M  V30 455 C 47.7381 0.0814702 -1.659 0
M  V30 456 O 48.9231 -0.0685424 -1.90677 0
M  V30 457 C 46.0631 -0.583615 -3.40129 0
M  V30 458 C 45.1761 -1.7336 -3.9569 0
M  V30 459 C 44.3111 -1.26748 -5.15857 0
M  V30 460 C 43.3501 -2.38888 -5.63559 0
M  V30 461 N 42.4871 -1.93308 -6.74964 0
M  V30 462 H 47.3271 -1.93099 -2.26973 0
M  V30 463 H 44.8641 -0.962114 -1.11273 0
M  V30 464 H 46.8221 -0.324801 -4.15934 0
M  V30 465 H 45.4521 0.312845 -3.2128 0
M  V30 466 H 44.5041 -2.10669 -3.16738 0
M  V30 467 H 45.8161 -2.57704 -4.27071 0
M  V30 468 H 44.9701 -0.966173 -5.98957 0
M  V30 469 H 43.7091 -0.394272 -4.86104 0
M  V30 470 H 42.7141 -2.69805 -4.79046 0
M  V30 471 H 43.9391 -3.26728 -5.95336 0
M  V30 472 H 41.8851 -1.08352 -6.4699 0
M  V30 473 H 41.8021 -2.71217 -7.05675 0
M  V30 474 H 43.0701 -1.66252 -7.61564 0
M  V30 475 N 47.2992 1.18797 -1.03562 0
M  V30 476 C 48.5482 1.87978 -0.731235 0
M  V30 477 C 48.8612 1.80911 0.743671 0
M  V30 478 O 50.0672 2.45407 1.16137 0
M  V30 479 C 48.5232 3.3721 -1.25768 0
M  V30 480 C 48.1312 3.52818 -2.76085 0
M  V30 481 C 49.8752 4.11825 -1.0296 0
M  V30 482 C 47.7822 4.9598 -3.22114 0
M  V30 483 H 46.7122 0.704063 -0.269835 0
M  V30 484 H 49.3632 1.34266 -1.25079 0
M  V30 485 H 47.7452 3.90359 -0.666011 0
M  V30 486 H 48.9192 3.09965 -3.40966 0
M  V30 487 H 47.2342 2.91602 -2.97249 0
M  V30 488 H 49.8312 5.17411 -1.34869 0
M  V30 489 H 50.1742 4.16287 0.0333546 0
M  V30 490 H 50.7072 3.64833 -1.58562 0
M  V30 491 H 47.4462 4.96684 -4.27768 0
M  V30 492 H 46.9662 5.39569 -2.61965 0
M  V30 493 H 48.6452 5.6467 -3.15844 0
M  V30 494 N 48.7773 0.814389 1.34928 0
M  V30 495 C 49.7073 0.244827 2.32213 0
M  V30 496 C 50.6883 -0.634024 1.57842 0
M  V30 497 O 51.8733 -0.562676 1.8587 0
M  V30 498 C 49.0033 -0.601106 3.42058 0
M  V30 499 C 47.9573 0.179896 4.27622 0
M  V30 500 C 47.2833 -0.788237 5.28858 0
M  V30 501 C 48.5833 1.38329 5.03649 0
M  V30 502 H 50.2773 1.05763 2.80097 0
M  V30 503 H 47.8233 0.510029 1.34665 0
M  V30 504 H 49.7763 -1.00968 4.09125 0
M  V30 505 H 48.5003 -1.44688 2.92802 0
M  V30 506 H 47.1593 0.569739 3.62146 0
M  V30 507 H 46.8073 -1.62973 4.75866 0
M  V30 508 H 46.5073 -0.269942 5.8698 0
M  V30 509 H 48.0313 -1.19485 5.98795 0
M  V30 510 H 49.4453 1.04918 5.63618 0
M  V30 511 H 47.8423 1.83662 5.71304 0
M  V30 512 H 48.9123 2.16592 4.33839 0
M  V30 513 N 50.2554 -1.46986 0.568584 0
M  V30 514 C 51.2024 -2.30153 -0.172707 0
M  V30 515 C 52.1724 -1.39759 -0.897586 0
M  V30 516 O 53.3574 -1.68716 -0.891044 0
M  V30 517 C 50.4974 -3.23952 -1.1895 0
M  V30 518 C 49.6104 -4.29441 -0.469517 0
M  V30 519 C 48.7454 -5.1038 -1.47259 0
M  V30 520 C 47.7844 -6.07632 -0.738225 0
M  V30 521 N 46.9214 -6.8149 -1.68868 0
M  V30 522 H 51.7614 -2.93019 0.542596 0
M  V30 523 H 49.2984 -1.44422 0.279401 0
M  V30 524 H 51.2564 -3.76767 -1.79173 0
M  V30 525 H 49.8864 -2.62926 -1.87269 0
M  V30 526 H 48.9384 -3.79594 0.247467 0
M  V30 527 H 50.2504 -4.98689 0.105241 0
M  V30 528 H 49.4044 -5.67402 -2.14803 0
M  V30 529 H 48.1434 -4.4106 -2.08128 0
M  V30 530 H 47.1484 -5.49778 -0.0489293 0
M  V30 531 H 48.3734 -6.78966 -0.135129 0
M  V30 532 H 46.3194 -6.14891 -2.28573 0
M  V30 533 H 46.2364 -7.46948 -1.16636 0
M  V30 534 H 47.5044 -7.43078 -2.3549 0
M  V30 535 N 51.7335 -0.305618 -1.54608 0
M  V30 536 C 52.6655 0.602161 -2.21149 0
M  V30 537 C 53.6785 1.09394 -1.20569 0
M  V30 538 O 54.8675 1.0106 -1.47136 0
M  V30 539 C 51.9675 1.83692 -2.84799 0
M  V30 540 C 51.1405 1.48686 -4.11353 0
M  V30 541 C 50.1995 2.57725 -4.58764 0
M  V30 542 O 49.2255 2.22623 -5.23858 0
M  V30 543 N 50.4275 3.88346 -4.31471 0
M  V30 544 H 53.1925 0.0324966 -2.99682 0
M  V30 545 H 50.7535 -0.128021 -1.61393 0
M  V30 546 H 52.7455 2.55994 -3.13448 0
M  V30 547 H 51.3155 2.31486 -2.10078 0
M  V30 548 H 50.5355 0.596269 -3.89664 0
M  V30 549 H 51.8235 1.22842 -4.93748 0
M  V30 550 H 51.2215 4.19671 -3.79331 0
M  V30 551 H 49.7785 4.56932 -4.64818 0
M  V30 552 N 53.2116 1.57565 -0.0334293 0
M  V30 553 C 54.4366 1.96689 0.657895 0
M  V30 554 C 54.8616 0.910057 1.64619 0
M  V30 555 O 54.2196 -0.128598 1.80843 0
M  V30 556 C 54.2676 3.34905 1.33683 0
M  V30 557 O 53.3716 3.31574 2.45219 0
M  V30 558 H 52.7126 0.641205 0.172489 0
M  V30 559 H 55.2426 2.04372 -0.0965621 0
M  V30 560 H 55.2526 3.71234 1.69262 0
M  V30 561 H 53.9276 4.11366 0.612411 0
M  V30 562 H 52.5046 3.06968 2.11719 0
M  V30 563 N 54.6897 -0.239769 1.55765 0
M  V30 564 C 55.6227 -1.32356 1.85895 0
M  V30 565 C 56.6007 -1.46053 0.714662 0
M  V30 566 O 57.7847 -1.62154 0.961157 0
M  V30 567 C 54.9117 -2.6962 2.04994 0
M  V30 568 C 53.9577 -2.73036 3.27648 0
M  V30 569 S 54.7907 -2.28929 4.84099 0
M  V30 570 C 55.9467 -3.68103 5.06212 0
M  V30 571 H 56.1797 -1.06601 2.77531 0
M  V30 572 H 53.7127 -0.441112 1.47965 0
M  V30 573 H 55.6707 -3.48653 2.16682 0
M  V30 574 H 54.3317 -2.92609 1.14188 0
M  V30 575 H 53.5247 -3.7386 3.38 0
M  V30 576 H 53.1267 -2.02052 3.14723 0
M  V30 577 H 55.4187 -4.63656 4.93993 0
M  V30 578 H 56.3617 -3.6268 6.08168 0
M  V30 579 H 56.7697 -3.60947 4.34025 0
M  V30 580 N 56.1678 -1.49265 -0.50573 0
M  V30 581 C 57.3958 -1.62215 -1.28429 0
M  V30 582 C 57.8108 -0.291697 -1.86533 0
M  V30 583 O 57.1678 0.722233 -1.67601 0
M  V30 584 C 57.2188 -2.68735 -2.41793 0
M  V30 585 O 56.9398 -3.96619 -1.86078 0
M  V30 586 C 58.4408 -2.92346 -3.3324 0
M  V30 587 H 55.6608 -0.546239 -0.389697 0
M  V30 588 H 58.2048 -1.95265 -0.607609 0
M  V30 589 H 56.3598 -2.38476 -3.053 0
M  V30 590 H 56.7738 -4.55256 -2.60465 0
M  V30 591 H 58.2478 -3.70623 -4.09075 0
M  V30 592 H 58.7248 -2.02081 -3.89948 0
M  V30 593 H 59.3308 -3.24003 -2.75503 0
M  V30 594 N 57.6459 0.756429 -1.3826 0
M  V30 595 C 58.5759 1.88374 -1.37976 0
M  V30 596 C 59.5569 1.68311 -0.246082 0
M  V30 597 O 60.7419 1.88944 -0.44874 0
M  V30 598 C 57.8719 3.25864 -1.20125 0
M  V30 599 C 56.8259 3.60523 -2.30666 0
M  V30 600 C 56.1519 4.9672 -1.97923 0
M  V30 601 C 57.4519 3.65692 -3.72916 0
M  V30 602 H 59.1459 1.88869 -2.32312 0
M  V30 603 H 56.6919 0.907272 -1.11824 0
M  V30 604 H 58.6449 4.0438 -1.18552 0
M  V30 605 H 57.3689 3.25841 -0.222498 0
M  V30 606 H 56.0279 2.84324 -2.3142 0
M  V30 607 H 55.6759 4.93253 -0.985393 0
M  V30 608 H 55.3759 5.20878 -2.71955 0
M  V30 609 H 56.8999 5.77618 -1.97964 0
M  V30 610 H 58.3139 4.34328 -3.74208 0
M  V30 611 H 56.7109 4.01358 -4.4613 0
M  V30 612 H 57.7809 2.65987 -4.05436 0
M  V30 613 N 59.124 1.23083 0.984299 0
M  V30 614 C 60.072 1.00593 2.09723 0
M  V30 615 C 61.066 -0.0538014 1.69315 0
M  V30 616 O 62.272 0.0993719 1.79725 0
M  V30 617 H 58.647 0.30817 0.685956 0
M  V30 618 H 60.618 1.95012 2.2586 0
M  V30 619 C 59.367 0.609601 3.42314 0
M  V30 620 H 58.69 1.41675 3.73856 0
M  V30 621 H 60.13 0.491726 4.21139 0
M  V30 622 C 58.589 -0.681745 3.2993 0
M  V30 623 O 59.119 -1.73192 3.62446 0
M  V30 624 N 57.325 -0.656178 2.83095 0
M  V30 625 H 56.872 0.198759 2.56832 0
M  V30 626 H 56.83 -1.52044 2.75191 0
M  V30 627 N 60.6021 -1.18246 1.0419 0
M  V30 628 C 61.5321 -2.24127 0.654914 0
M  V30 629 C 62.5131 -1.66617 -0.342451 0
M  V30 630 O 63.6981 -1.92924 -0.222277 0
M  V30 631 C 60.8281 -3.47295 0.0183757 0
M  V30 632 C 59.7821 -4.17563 0.939414 0
M  V30 633 C 59.1081 -5.34438 0.167286 0
M  V30 634 C 60.4081 -4.70917 2.25908 0
M  V30 635 H 62.1021 -2.56753 1.54007 0
M  V30 636 H 59.6481 -1.23414 0.74195 0
M  V30 637 H 61.6011 -4.20572 -0.264082 0
M  V30 638 H 60.3251 -3.13907 -0.901664 0
M  V30 639 H 58.9841 -3.46186 1.20628 0
M  V30 640 H 58.6321 -4.97298 -0.7552 0
M  V30 641 H 58.3321 -5.82388 0.780901 0
M  V30 642 H 59.8561 -6.10504 -0.108125 0
M  V30 643 H 61.2701 -5.35882 2.03724 0
M  V30 644 H 59.6671 -5.29406 2.82577 0
M  V30 645 H 60.7371 -3.88272 2.9047 0
M  V30 646 N 62.0802 -0.821533 -1.34494 0
M  V30 647 C 63.0432 -0.247847 -2.27856 0
M  V30 648 C 64.0432 0.573453 -1.50227 0
M  V30 649 O 65.2332 0.389759 -1.69784 0
M  V30 650 C 62.3652 0.652698 -3.34593 0
M  V30 651 H 63.5582 -1.07146 -2.80107 0
M  V30 652 H 61.1112 -0.593291 -1.44602 0
M  V30 653 H 61.8462 1.49943 -2.87555 0
M  V30 654 H 61.6312 0.065292 -3.92046 0
M  V30 655 H 63.1212 1.04793 -4.04238 0
M  V30 656 N 63.5583 1.46682 -0.576371 0
M  V30 657 C 64.8353 1.95599 0.00703437 0
M  V30 658 C 65.2153 1.51904 1.46589 0
M  V30 659 O 64.5633 0.766755 2.15251 0
M  V30 660 C 64.7733 3.4864 -0.158404 0
M  V30 661 C 66.1213 4.24594 -0.0229439 0
M  V30 662 O 67.1453 3.56094 -0.0869173 0
M  V30 663 O 66.0043 5.46373 0.118015 0
M  V30 664 H 63.0983 0.825275 0.053384 0
M  V30 665 H 65.6443 1.56996 -0.644244 0
M  V30 666 H 64.4163 3.7331 -1.17282 0
M  V30 667 H 64.0393 3.94057 0.5296 0
M  V30 668 N 65.0364 0.313813 1.54444 0
M  V30 669 C 66.4474 -0.176243 1.85866 0
M  V30 670 C 66.7984 -1.52405 1.23561 0
M  V30 671 O 65.9234 -2.09605 0.538016 0
M  V30 672 C 66.5184 -0.32657 3.37222 0
M  V30 673 C 65.0774 -0.760846 3.6863 0
M  V30 674 C 64.2244 0.123247 2.77026 0
M  V30 675 H 67.1754 0.534418 1.49431 0
M  V30 676 H 67.1964 -1.15908 3.62416 0
M  V30 677 H 66.7084 0.654531 3.82541 0
M  V30 678 H 64.8094 -1.75204 3.28838 0
M  V30 679 H 64.9224 -0.571353 4.75681 0
M  V30 680 H 63.2864 -0.399597 2.51546 0
M  V30 681 H 64.0694 1.10094 3.25168 0
M  V30 682 N 66.5145 -1.57545 0.0417849 0
M  V30 683 C 67.7605 -1.92601 -0.635021 0
M  V30 684 C 68.0935 -0.919627 -1.71045 0
M  V30 685 O 67.3685 0.0557892 -1.9442 0
M  V30 686 C 67.6515 -3.38085 -1.23979 0
M  V30 687 C 67.5045 -4.49467 -0.173057 0
M  V30 688 C 68.8235 -3.83776 -2.15416 0
M  V30 689 H 65.9425 -0.700397 -0.229374 0
M  V30 690 H 68.5845 -1.89728 0.101633 0
M  V30 691 H 66.7345 -3.40664 -1.86762 0
M  V30 692 H 68.4065 -4.59018 0.458312 0
M  V30 693 H 66.6495 -4.30909 0.499996 0
M  V30 694 H 67.3205 -5.48323 -0.636054 0
M  V30 695 H 69.7965 -3.83013 -1.62605 0
M  V30 696 H 68.6725 -4.8624 -2.54679 0
M  V30 697 H 68.9335 -3.19998 -3.05047 0
M  V30 698 N 67.9926 0.231505 -1.5589 0
M  V30 699 C 69.2406 0.955461 -1.78088 0
M  V30 700 C 69.5616 1.85262 -0.608533 0
M  V30 701 O 68.8316 1.92277 0.375035 0
M  V30 702 H 67.4116 0.355787 -0.656829 0
M  V30 703 H 70.0736 0.245751 -1.93344 0
M  V30 704 H 69.1696 1.56814 -2.69844 0
M  V30 705 N 69.4707 1.49531 0.497807 0
M  V30 706 C 70.6957 1.63159 1.28039 0
M  V30 707 C 71.1207 0.30418 1.85624 0
M  V30 708 O 70.4787 -0.728618 1.66015 0
M  V30 709 C 70.5267 2.70537 2.38416 0
M  V30 710 O 69.6307 2.29931 3.42353 0
M  V30 711 H 68.9717 0.546001 0.377861 0
M  V30 712 H 71.5017 1.9574 0.59558 0
M  V30 713 H 71.5117 2.92802 2.84132 0
M  V30 714 H 70.1867 3.6689 1.95869 0
M  V30 715 H 68.7637 2.18009 3.02533 0
M  V30 716 N 70.9488 -0.749086 1.3866 0
M  V30 717 C 71.8788 -1.8764 1.38973 0
M  V30 718 C 72.8598 -1.68178 0.255004 0
M  V30 719 O 74.0448 -1.88704 0.458754 0
M  V30 720 C 71.1748 -3.25222 1.21851 0
M  V30 721 C 70.1288 -3.59295 2.32575 0
M  V30 722 C 69.4548 -4.95663 2.00555 0
M  V30 723 C 70.7548 -3.63709 3.7485 0
M  V30 724 H 72.4488 -1.87635 2.3331 0
M  V30 725 H 69.9948 -0.901329 1.12303 0
M  V30 726 H 71.9478 -4.03746 1.20695 0
M  V30 727 H 70.6718 -3.25719 0.239775 0
M  V30 728 H 69.3308 -2.83093 2.32925 0
M  V30 729 H 68.9788 -4.92724 1.01154 0
M  V30 730 H 68.6788 -5.19429 2.74714 0
M  V30 731 H 70.2028 -5.7656 2.01024 0
M  V30 732 H 71.6168 -4.32338 3.76506 0
M  V30 733 H 70.0138 -3.98986 4.48252 0
M  V30 734 H 71.0838 -2.63834 4.06841 0
M  V30 735 N 72.4269 -1.23603 -0.977757 0
M  V30 736 C 73.3739 -1.01954 -2.07061 0
M  V30 737 C 74.3439 0.0638697 -1.65977 0
M  V30 738 O 75.5289 -0.0887624 -1.90593 0
M  V30 739 C 72.6689 -0.619658 -3.39491 0
M  V30 740 C 71.7819 -1.77547 -3.93829 0
M  V30 741 C 70.9169 -1.32212 -5.14484 0
M  V30 742 C 69.9559 -2.44852 -5.60994 0
M  V30 743 N 69.0929 -2.00456 -6.72876 0
M  V30 744 H 73.9329 -1.95495 -2.24913 0
M  V30 745 H 71.4699 -0.973861 -1.10247 0
M  V30 746 H 73.4279 -0.368898 -4.15566 0
M  V30 747 H 72.0579 0.278752 -3.21594 0
M  V30 748 H 71.1099 -2.14016 -3.14486 0
M  V30 749 H 72.4219 -2.62219 -4.24314 0
M  V30 750 H 71.5759 -1.02965 -5.97899 0
M  V30 751 H 70.3149 -0.445808 -4.85658 0
M  V30 752 H 69.3199 -2.74871 -4.76157 0
M  V30 753 H 70.5449 -3.33024 -5.91837 0
M  V30 754 H 68.4909 -1.15208 -6.45804 0
M  V30 755 H 68.4079 -2.78687 -7.02759 0
M  V30 756 H 69.6759 -1.7432 -7.59758 0
M  V30 757 N 73.905 1.17692 -1.04816 0
M  V30 758 C 75.316 1.69501 -0.782698 0
M  V30 759 C 75.667 1.83456 0.695577 0
M  V30 760 O 74.792 1.51942 1.54086 0
M  V30 761 C 75.387 3.07874 -1.41419 0
M  V30 762 C 73.946 3.56864 -1.19686 0
M  V30 763 C 73.093 2.3322 -1.50012 0
M  V30 764 H 76.044 1.02262 -1.2136 0
M  V30 765 H 76.065 3.71528 -0.821428 0
M  V30 766 H 75.577 2.97685 -2.49009 0
M  V30 767 H 73.678 3.72337 -0.140043 0
M  V30 768 H 73.791 4.39851 -1.89916 0
M  V30 769 H 72.155 2.37501 -0.920071 0
M  V30 770 H 72.938 2.25644 -2.58727 0
M  V30 771 N 75.3831 0.828654 1.34056 0
M  V30 772 C 76.3331 0.226828 2.26869 0
M  V30 773 C 77.3171 -0.612243 1.48796 0
M  V30 774 O 78.5091 -0.465884 1.70759 0
M  V30 775 C 75.6381 -0.605654 3.37915 0
M  V30 776 C 74.7241 0.244361 4.23395 0
M  V30 777 N 75.1151 1.31815 4.88322 0
M  V30 778 C 73.4131 0.0296616 4.4599 0
M  V30 779 C 74.1141 1.83895 5.51867 0
M  V30 780 N 73.0901 1.14196 5.3147 0
M  V30 781 H 76.8921 1.04811 2.74576 0
M  V30 782 H 74.4061 0.67205 1.47842 0
M  V30 783 H 76.4031 -1.05302 4.03382 0
M  V30 784 H 75.0631 -1.42504 2.91758 0
M  V30 785 H 76.0741 1.70099 4.8917 0
M  V30 786 H 72.7511 -0.757097 4.10578 0
M  V30 787 H 74.1411 2.7376 6.136 0
M  V30 788 N 76.8612 -1.46375 0.584142 0
M  V30 789 C 77.7912 -2.33103 -0.136037 0
M  V30 790 C 78.7722 -1.45431 -0.882255 0
M  V30 791 O 79.9572 -1.74246 -0.857434 0
M  V30 792 C 77.0872 -3.27731 -1.14933 0
M  V30 793 C 76.0412 -4.24855 -0.517862 0
M  V30 794 C 75.3672 -5.09001 -1.63773 0
M  V30 795 C 76.6672 -5.19439 0.545886 0
M  V30 796 H 78.3612 -2.93568 0.588086 0
M  V30 797 H 75.9072 -1.41166 0.284259 0
M  V30 798 H 77.8602 -3.87261 -1.66153 0
M  V30 799 H 76.5842 -2.65377 -1.90375 0
M  V30 800 H 75.2432 -3.6659 -0.0267361 0
M  V30 801 H 74.8912 -4.43031 -2.38185 0
M  V30 802 H 74.5912 -5.74777 -1.22085 0
M  V30 803 H 76.1152 -5.71396 -2.15266 0
M  V30 804 H 77.5292 -5.73177 0.118704 0
M  V30 805 H 75.9262 -5.93566 0.88317 0
M  V30 806 H 76.9962 -4.63285 1.43162 0
M  V30 807 N 78.3393 -0.321999 -1.54275 0
M  V30 808 C 79.7553 0.0306999 -1.5957 0
M  V30 809 C 79.9553 1.50614 -1.33857 0
M  V30 810 O 79.0113 2.2619 -1.12223 0
M  V30 811 C 80.3243 -0.386122 -2.98211 0
M  V30 812 C 81.8723 -0.336647 -3.11184 0
M  V30 813 C 82.3473 -0.728607 -4.52167 0
M  V30 814 N 83.8383 -0.681952 -4.58152 0
M  V30 815 C 84.5733 -0.957449 -5.6535 0
M  V30 816 N 84.0693 -1.3 -6.80494 0
M  V30 817 N 85.8623 -0.883113 -5.55119 0
M  V30 818 H 78.0133 -1.28332 -1.69247 0
M  V30 819 H 80.2763 -0.521716 -0.791528 0
M  V30 820 H 79.9823 -1.41404 -3.22022 0
M  V30 821 H 79.8563 0.249662 -3.76373 0
M  V30 822 H 82.2433 0.682058 -2.8711 0
M  V30 823 H 82.3243 -1.00734 -2.3513 0
M  V30 824 H 81.9683 -1.74522 -4.76974 0
M  V30 825 H 81.8983 -0.0356152 -5.26588 0
M  V30 826 H 84.3893 -0.428985 -3.75457 0
M  V30 827 H 84.7023 -1.49563 -7.58189 0
M  V30 828 H 83.0473 -1.33824 -6.81994 0
M  V30 829 H 86.2383 -0.615001 -4.64042 0
M  V30 830 H 86.4113 -1.10118 -6.38575 0
M  V30 831 N 79.8174 1.5752 -0.0501392 0
M  V30 832 C 80.7804 2.1037 0.909786 0
M  V30 833 C 81.7804 1.02308 1.24056 0
M  V30 834 O 82.9704 1.28385 1.17741 0
M  V30 835 C 80.1024 2.58708 2.21998 0
M  V30 836 H 81.2954 2.96479 0.451665 0
M  V30 837 H 78.8484 1.55038 0.198248 0
M  V30 838 H 79.5834 1.75989 2.72394 0
M  V30 839 H 79.3684 3.37675 1.99295 0
M  V30 840 H 80.8584 2.99747 2.9076 0
M  V30 841 N 81.2955 -0.223234 1.56011 0
M  V30 842 C 82.2425 -1.27664 1.92277 0
M  V30 843 C 83.2125 -1.46659 0.779763 0
M  V30 844 O 84.3975 -1.60256 1.03551 0
M  V30 845 C 81.5375 -2.62234 2.24338 0
M  V30 846 C 80.6505 -2.51051 3.51564 0
M  V30 847 C 79.7855 -3.78133 3.7308 0
M  V30 848 C 78.8245 -3.61665 4.93827 0
M  V30 849 N 77.9615 -4.80693 5.11741 0
M  V30 850 H 82.8015 -0.960358 2.82101 0
M  V30 851 H 80.3385 -0.462901 1.39627 0
M  V30 852 H 82.2965 -3.40596 2.40936 0
M  V30 853 H 80.9265 -2.91961 1.3769 0
M  V30 854 H 79.9785 -1.64132 3.43169 0
M  V30 855 H 81.2905 -2.34803 4.40079 0
M  V30 856 H 80.4445 -4.64938 3.89766 0
M  V30 857 H 79.1835 -3.97304 2.82844 0
M  V30 858 H 78.1885 -2.73244 4.77093 0
M  V30 859 H 79.4135 -3.43966 5.85546 0
M  V30 860 H 77.3595 -5.00181 4.24446 0
M  V30 861 H 77.2765 -4.67165 5.94384 0
M  V30 862 H 78.5445 -5.6893 5.3286 0
M  V30 863 N 82.7736 -1.49793 -0.48987 0
M  V30 864 C 83.7216 -1.67783 -1.61095 0
M  V30 865 C 84.7156 -0.543683 -1.60438 0
M  V30 866 O 85.9216 -0.723647 -1.64813 0
M  V30 867 H 82.2966 -0.529255 -0.534222 0
M  V30 868 H 84.2676 -2.61861 -1.43078 0
M  V30 869 C 83.0166 -1.77191 -2.99164 0
M  V30 870 H 82.3396 -2.63841 -3.0038 0
M  V30 871 H 83.7796 -1.93809 -3.77113 0
M  V30 872 C 82.2386 -0.519203 -3.32875 0
M  V30 873 O 82.7686 0.350124 -4.00171 0
M  V30 874 N 80.9746 -0.378816 -2.8812 0
M  V30 875 H 80.5216 -1.08725 -2.33531 0
M  V30 876 H 80.4796 0.458239 -3.11043 0
M  V30 877 N 84.2517 0.741722 -1.39055 0
M  V30 878 C 85.4767 1.53607 -1.39354 0
M  V30 879 C 85.9017 1.88096 0.0116905 0
M  V30 880 O 85.2597 1.5143 0.996924 0
M  V30 881 C 85.3077 2.80441 -2.26682 0
M  V30 882 O 84.4117 3.76088 -1.69208 0
M  V30 883 H 83.7527 0.464142 -0.474835 0
M  V30 884 H 86.2827 0.915665 -1.82967 0
M  V30 885 H 86.2927 3.29246 -2.40959 0
M  V30 886 H 84.9677 2.5467 -3.2881 0
M  V30 887 H 83.5447 3.34833 -1.64138 0
M  V30 888 N 85.7298 1.2412 0.971189 0
M  V30 889 C 87.0068 0.986867 1.6888 0
M  V30 890 C 87.3868 -0.491857 2.0529 0
M  V30 891 O 86.7348 -1.46531 1.75331 0
M  V30 892 C 86.9448 1.9063 2.92338 0
M  V30 893 C 88.2928 2.17515 3.64654 0
M  V30 894 O 89.3168 1.88254 3.02388 0
M  V30 895 O 88.1758 2.6719 4.7673 0
M  V30 896 H 85.2698 0.372944 0.738134 0
M  V30 897 H 87.8158 1.35203 1.02559 0
M  V30 898 H 86.5878 2.90552 2.62097 0
M  V30 899 H 86.2108 1.54408 3.66393 0
M  V30 900 N 87.2079 -1.17134 1.05439 0
M  V30 901 C 88.1379 -2.2342 0.678649 0
M  V30 902 C 89.1189 -1.66971 -0.32476 0
M  V30 903 O 90.3039 -1.93149 -0.201802 0
M  V30 904 C 87.4339 -3.47256 0.0552099 0
M  V30 905 C 86.3879 -4.16543 0.98365 0
M  V30 906 C 85.7139 -5.34231 0.223961 0
M  V30 907 C 87.0139 -4.68495 2.3089 0
M  V30 908 H 88.7079 -2.55105 1.56722 0
M  V30 909 H 86.2539 -1.2262 0.754998 0
M  V30 910 H 88.2069 -4.20828 -0.21946 0
M  V30 911 H 86.9309 -3.14846 -0.868319 0
M  V30 912 H 85.5899 -3.44887 1.24293 0
M  V30 913 H 85.2379 -4.98071 -0.702412 0
M  V30 914 H 84.9379 -5.81527 0.842627 0
M  V30 915 H 86.4619 -6.10585 -0.0433671 0
M  V30 916 H 87.8759 -5.33691 2.09396 0
M  V30 917 H 86.2729 -5.26379 2.88176 0
M  V30 918 H 87.3429 -3.85169 2.94572 0
M  V30 919 N 88.686 -0.835752 -1.33615 0
M  V30 920 C 89.616 -0.281739 -2.31794 0
M  V30 921 C 90.597 0.608833 -1.58831 0
M  V30 922 O 91.782 0.533035 -1.86741 0
M  V30 923 C 88.912 0.546612 -3.42971 0
M  V30 924 C 87.866 -0.247904 -4.27281 0
M  V30 925 C 87.192 0.704001 -5.30045 0
M  V30 926 C 88.492 -1.46324 -5.01385 0
M  V30 927 H 90.186 -1.10206 -2.78379 0
M  V30 928 H 87.732 -0.531388 -1.33837 0
M  V30 929 H 89.685 0.944467 -4.1068 0
M  V30 930 H 88.409 1.40011 -2.95067 0
M  V30 931 H 87.068 -0.627281 -3.61194 0
M  V30 932 H 86.716 1.55381 -4.78399 0
M  V30 933 H 86.416 0.176524 -5.87335 0
M  V30 934 H 87.94 1.09944 -6.0062 0
M  V30 935 H 89.354 -1.13871 -5.61877 0
M  V30 936 H 87.751 -1.92728 -5.6831 0
M  V30 937 H 88.821 -2.23467 -4.30338 0
M  V30 938 N 90.1641 1.46063 -0.591896 0
M  V30 939 C 91.3921 2.06717 -0.0868936 0
M  V30 940 C 91.8071 1.43916 1.22203 0
M  V30 941 O 91.1641 0.547698 1.74088 0
M  V30 942 C 91.2151 3.6142 0.0758725 0
M  V30 943 O 90.9361 4.21874 -1.18126 0
M  V30 944 C 92.4371 4.39025 0.61416 0
M  V30 945 H 89.6571 0.668162 -0.0616518 0
M  V30 946 H 92.2011 1.8755 -0.815175 0
M  V30 947 H 90.3561 3.79983 0.754413 0
M  V30 948 H 90.7701 5.14861 -1.00092 0
M  V30 949 H 92.2441 5.4783 0.677193 0
M  V30 950 H 92.7211 4.07708 1.63312 0
M  V30 951 H 93.3271 4.2529 -0.0298142 0
M  V30 952 N 91.6422 0.330177 1.54103 0
M  V30 953 C 92.8672 -0.274893 2.0557 0
M  V30 954 C 93.2922 -1.44487 1.20437 0
M  V30 955 O 92.6502 -1.80021 0.214991 0
M  V30 956 C 92.6982 -0.68079 3.54115 0
M  V30 957 O 91.8022 -1.7824 3.71893 0
M  V30 958 H 91.1432 -0.0483849 0.662235 0
M  V30 959 H 93.6732 0.480508 1.98878 0
M  V30 960 H 93.6832 -0.961635 3.96505 0
M  V30 961 H 92.3582 0.174903 4.15532 0
M  V30 962 H 90.9352 -1.49985 3.41407 0
M  V30 963 N 93.1203 -1.57491 0.0584922 0
M  V30 964 C 94.5313 -1.80526 -0.476138 0
M  V30 965 C 94.8823 -0.971334 -1.70469 0
M  V30 966 O 94.0073 -0.190012 -2.15564 0
M  V30 967 C 94.6023 -3.27424 -0.870587 0
M  V30 968 C 93.1613 -3.51351 -1.35015 0
M  V30 969 C 92.3083 -2.75343 -0.32887 0
M  V30 970 H 95.2593 -1.56133 0.284312 0
M  V30 971 H 95.2803 -3.38745 -1.73299 0
M  V30 972 H 94.7923 -3.88093 0.0237627 0
M  V30 973 H 92.8933 -2.95971 -2.26345 0
M  V30 974 H 93.0063 -4.60059 -1.33726 0
M  V30 975 H 91.3703 -2.417 -0.803321 0
M  V30 976 H 92.1533 -3.38743 0.557521 0
M  V30 977 N 94.5984 0.214957 -1.56127 0
M  V30 978 C 95.8754 0.963093 -1.70247 0
M  V30 979 C 96.2554 2.02166 -0.60764 0
M  V30 980 O 95.6034 2.25244 0.384385 0
M  V30 981 C 95.8134 1.56756 -3.11815 0
M  V30 982 C 97.1614 2.0573 -3.7143 0
M  V30 983 O 98.1854 1.66637 -3.14818 0
M  V30 984 O 97.0444 2.77603 -4.70743 0
M  V30 985 H 94.1384 0.450321 -0.693643 0
M  V30 986 H 96.6844 0.206219 -1.68442 0
M  V30 987 H 95.4564 0.803533 -3.82961 0
M  V30 988 H 95.0794 2.3898 -3.17765 0
M  V30 989 N 96.0765 1.50051 0.48192 0
M  V30 990 C 97.3225 1.60736 1.2366 0
M  V30 991 C 97.6555 0.301786 1.91841 0
M  V30 992 O 96.9305 -0.696025 1.8162 0
M  V30 993 C 97.2135 2.78009 2.28874 0
M  V30 994 C 97.0665 4.18416 1.65069 0
M  V30 995 C 98.3855 2.90867 3.30279 0
M  V30 996 H 95.5045 0.585031 0.448228 0
M  V30 997 H 98.1465 1.82402 0.531946 0
M  V30 998 H 96.2965 2.59667 2.88973 0
M  V30 999 H 97.9685 4.48322 1.0865 0
M  V30 1000 H 96.2115 4.23177 0.954148 0
M  V30 1001 H 96.8825 4.96381 2.41474 0
M  V30 1002 H 99.3585 3.07623 2.80191 0
M  V30 1003 H 98.2345 3.74566 4.01238 0
M  V30 1004 H 98.4955 2.01021 3.93755 0
M  V30 1005 N 97.5546 -0.734337 1.39446 0
M  V30 1006 C 98.8026 -1.49096 1.36436 0
M  V30 1007 C 99.1236 -1.94961 -0.0388255 0
M  V30 1008 O 98.3936 -1.69033 -0.990191 0
M  V30 1009 H 96.9736 -0.5531 0.502085 0
M  V30 1010 H 99.6356 -0.871725 1.74319 0
M  V30 1011 H 98.7316 -2.37276 2.02747 0
M  V30 1012 N 99.0327 -1.24633 -0.964593 0
M  V30 1013 C 99.9627 -1.06611 -2.07741 0
M  V30 1014 C 100.944 0.0218666 -1.70086 0
M  V30 1015 O 102.129 -0.145793 -1.93652 0
M  V30 1016 C 99.2587 -0.673444 -3.40708 0
M  V30 1017 C 98.2127 -1.71054 -3.92332 0
M  V30 1018 C 97.5387 -1.17285 -5.21678 0
M  V30 1019 C 98.8387 -3.10718 -4.19824 0
M  V30 1020 H 100.533 -1.99693 -2.23076 0
M  V30 1021 H 98.0787 -0.96152 -1.07195 0
M  V30 1022 H 100.032 -0.534345 -4.17998 0
M  V30 1023 H 98.7557 0.293073 -3.25282 0
M  V30 1024 H 97.4147 -1.83791 -3.17201 0
M  V30 1025 H 97.0627 -0.196847 -5.02615 0
M  V30 1026 H 96.7627 -1.86592 -5.57187 0
M  V30 1027 H 98.2867 -1.04593 -6.01575 0
M  V30 1028 H 99.7007 -3.01192 -4.87808 0
M  V30 1029 H 98.0977 -3.77406 -4.66567 0
M  V30 1030 H 99.1677 -3.58524 -3.26479 0
M  V30 1031 N 100.511 1.16574 -1.06058 0
M  V30 1032 C 101.441 2.23057 -0.690488 0
M  V30 1033 C 102.422 1.67141 0.315901 0
M  V30 1034 O 103.607 1.93253 0.191556 0
M  V30 1035 C 100.737 3.47222 -0.073625 0
M  V30 1036 C 99.6908 4.16016 -1.00573 0
M  V30 1037 C 99.0168 5.34104 -0.252289 0
M  V30 1038 C 100.317 4.67264 -2.33371 0
M  V30 1039 H 102.011 2.54271 -1.58072 0
M  V30 1040 H 99.5568 1.22218 -0.76149 0
M  V30 1041 H 101.51 4.20939 0.19714 0
M  V30 1042 H 100.234 3.15302 0.85161 0
M  V30 1043 H 98.8928 3.44223 -1.2612 0
M  V30 1044 H 98.5408 4.98437 0.675988 0
M  V30 1045 H 98.2408 5.81072 -0.873455 0
M  V30 1046 H 99.7648 6.10599 0.0109857 0
M  V30 1047 H 101.179 5.32573 -2.12223 0
M  V30 1048 H 99.5758 5.24843 -2.90963 0
M  V30 1049 H 100.646 3.83602 -2.96611 0
M  V30 1050 N 101.989 0.842826 1.3317 0
M  V30 1051 C 102.936 0.276885 2.29133 0
M  V30 1052 C 103.906 -0.609527 1.54512 0
M  V30 1053 O 105.091 -0.546955 1.82792 0
M  V30 1054 C 102.231 -0.538707 3.40869 0
M  V30 1055 C 101.344 0.372169 4.30394 0
M  V30 1056 C 100.479 -0.454908 5.29249 0
M  V30 1057 C 99.5179 0.45411 6.10413 0
M  V30 1058 N 98.6549 -0.335075 7.013 0
M  V30 1059 H 103.495 1.10052 2.76934 0
M  V30 1060 H 101.032 0.554161 1.36262 0
M  V30 1061 H 102.99 -1.02709 4.0436 0
M  V30 1062 H 101.62 -1.32727 2.9425 0
M  V30 1063 H 100.672 0.97888 3.6759 0
M  V30 1064 H 101.984 1.0703 4.87182 0
M  V30 1065 H 101.138 -1.00695 5.98285 0
M  V30 1066 H 99.8769 -1.18646 4.73048 0
M  V30 1067 H 98.8819 1.01813 5.40291 0
M  V30 1068 H 100.107 1.18409 6.68697 0
M  V30 1069 H 98.0529 -1.04994 6.47543 0
M  V30 1070 H 97.9699 0.304262 7.55387 0
M  V30 1071 H 99.2379 -0.869224 7.74638 0
M  V30 1072 N 103.467 -1.45747 0.599634 0
M  V30 1073 C 104.397 -2.33235 -0.111306 0
M  V30 1074 C 105.378 -1.46359 -0.866781 0
M  V30 1075 O 106.563 -1.75146 -0.838904 0
M  V30 1076 C 103.693 -3.28932 -1.11451 0
M  V30 1077 C 102.647 -4.25381 -0.472772 0
M  V30 1078 C 101.973 -5.1071 -1.58365 0
M  V30 1079 C 103.273 -5.18831 0.600948 0
M  V30 1080 H 104.967 -2.92927 0.61919 0
M  V30 1081 H 102.513 -1.40857 0.299215 0
M  V30 1082 H 104.466 -3.89002 -1.62036 0
M  V30 1083 H 103.19 -2.67381 -1.8755 0
M  V30 1084 H 101.849 -3.66598 0.0121472 0
M  V30 1085 H 101.497 -4.45533 -2.33473 0
M  V30 1086 H 101.197 -5.7604 -1.15982 0
M  V30 1087 H 102.721 -5.73647 -2.09194 0
M  V30 1088 H 104.135 -5.73019 0.179491 0
M  V30 1089 H 102.532 -5.92595 0.946076 0
M  V30 1090 H 103.602 -4.6174 1.48068 0
M  V30 1091 N 104.945 -0.338344 -1.53925 0
M  V30 1092 C 105.908 0.508299 -2.23493 0
M  V30 1093 C 106.908 1.03175 -1.23335 0
M  V30 1094 O 108.098 0.921826 -1.47811 0
M  V30 1095 C 105.23 1.70754 -2.95052 0
M  V30 1096 H 106.423 -0.100058 -2.99733 0
M  V30 1097 H 103.976 -0.0896198 -1.56043 0
M  V30 1098 H 104.711 2.35474 -2.22986 0
M  V30 1099 H 104.496 1.33946 -3.68512 0
M  V30 1100 H 105.986 2.30818 -3.48013 0
M  V30 1101 N 106.423 1.57458 -0.0668435 0
M  V30 1102 C 107.648 1.9804 0.616027 0
M  V30 1103 C 108.073 0.944771 1.62652 0
M  V30 1104 O 107.431 -0.0902094 1.81075 0
M  V30 1105 C 107.479 3.37665 1.26549 0
M  V30 1106 O 106.583 3.36701 2.38131 0
M  V30 1107 H 105.924 0.644719 0.158849 0
M  V30 1108 H 108.454 2.04121 -0.139891 0
M  V30 1109 H 108.464 3.7474 1.6135 0
M  V30 1110 H 107.139 4.12573 0.525016 0
M  V30 1111 H 105.716 3.1139 2.0516 0
M  V30 1112 N 107.901 -0.206675 1.56239 0
M  V30 1113 C 109.312 -0.772383 1.69974 0
M  V30 1114 C 109.663 -1.84353 0.671436 0
M  V30 1115 O 108.788 -2.15695 -0.174491 0
M  V30 1116 C 109.383 -1.40779 3.08167 0
M  V30 1117 C 107.942 -1.92072 3.23706 0
M  V30 1118 C 107.089 -0.786347 2.65917 0
M  V30 1119 H 110.04 0.0182223 1.5869 0
M  V30 1120 H 110.061 -2.27696 3.04852 0
M  V30 1121 H 109.573 -0.627958 3.82986 0
M  V30 1122 H 107.674 -2.7281 2.53782 0
M  V30 1123 H 107.787 -2.09046 4.31087 0
M  V30 1124 H 106.151 -1.1976 2.24788 0
M  V30 1125 H 106.934 -0.0189416 3.43295 0
M  V30 1126 N 109.379 -1.50304 -0.473955 0
M  V30 1127 C 110.289 -1.7174 -1.5982 0
M  V30 1128 C 111.305 -0.600457 -1.63311 0
M  V30 1129 O 112.481 -0.878441 -1.81233 0
M  V30 1130 C 109.546 -1.80427 -2.96052 0
M  V30 1131 C 108.607 -3.04148 -3.02972 0
M  V30 1132 C 107.84 -3.12411 -4.32706 0
M  V30 1133 O 108.063 -2.27542 -5.23049 0
M  V30 1134 O 106.997 -4.05113 -4.45159 0
M  V30 1135 H 110.823 -2.67035 -1.44657 0
M  V30 1136 H 108.408 -1.34366 -0.653148 0
M  V30 1137 H 110.29 -1.88338 -3.7697 0
M  V30 1138 H 108.965 -0.883156 -3.11419 0
M  V30 1139 H 107.872 -3.0174 -2.21142 0
M  V30 1140 H 109.205 -3.95829 -2.92541 0
M  V30 1141 N 110.857 0.726932 -1.39834 0
M  V30 1142 C 111.787 1.85405 -1.41941 0
M  V30 1143 C 112.768 1.67751 -0.281728 0
M  V30 1144 O 113.953 1.8795 -0.488717 0
M  V30 1145 C 111.083 3.23243 -1.2701 0
M  V30 1146 C 110.037 3.55549 -2.38262 0
M  V30 1147 C 109.363 4.9241 -2.08415 0
M  V30 1148 C 110.663 3.577 -3.80589 0
M  V30 1149 H 112.357 1.83899 -2.36266 0
M  V30 1150 H 109.903 0.883349 -1.13723 0
M  V30 1151 H 111.856 4.01775 -1.27103 0
M  V30 1152 H 110.58 3.25296 -0.291564 0
M  V30 1153 H 109.239 2.79351 -2.37399 0
M  V30 1154 H 108.887 4.91052 -1.0898 0
M  V30 1155 H 108.587 5.14992 -2.82943 0
M  V30 1156 H 110.111 5.73289 -2.10171 0
M  V30 1157 H 111.525 4.26293 -3.83337 0
M  V30 1158 H 109.922 3.91804 -4.54543 0
M  V30 1159 H 110.992 2.57328 -4.10987 0
M  V30 1160 N 112.336 1.25143 0.95797 0
M  V30 1161 C 113.246 1.06968 2.08794 0
M  V30 1162 C 114.262 0.00773911 1.73998 0
M  V30 1163 O 115.438 0.207972 2.00323 0
M  V30 1164 C 112.503 0.68691 3.39827 0
M  V30 1165 C 111.564 1.82641 3.88511 0
M  V30 1166 C 110.797 1.46181 5.1329 0
M  V30 1167 O 111.02 0.355971 5.69288 0
M  V30 1168 O 109.954 2.29085 5.566 0
M  V30 1169 H 113.78 2.01723 2.27027 0
M  V30 1170 H 111.365 1.04051 1.07209 0
M  V30 1171 H 113.247 0.485417 4.18595 0
M  V30 1172 H 111.922 -0.231417 3.22872 0
M  V30 1173 H 110.829 2.08274 3.10762 0
M  V30 1174 H 112.162 2.72386 4.09959 0
M  V30 1175 N 113.814 -1.1601 1.06675 0
M  V30 1176 C 115.23 -1.38622 0.790948 0
M  V30 1177 C 115.43 -1.92109 -0.607965 0
M  V30 1178 O 114.486 -2.12239 -1.36787 0
M  V30 1179 C 115.799 -2.36347 1.85905 0
M  V30 1180 C 117.347 -2.50023 1.88301 0
M  V30 1181 C 117.822 -3.51033 2.94176 0
M  V30 1182 N 119.313 -3.58563 2.93235 0
M  V30 1183 C 120.048 -4.36521 3.71803 0
M  V30 1184 N 119.544 -5.17869 4.602 0
M  V30 1185 N 121.337 -4.31541 3.60178 0
M  V30 1186 H 113.488 -0.796294 1.96908 0
M  V30 1187 H 115.751 -0.412597 0.853503 0
M  V30 1188 H 115.457 -2.04147 2.86386 0
M  V30 1189 H 115.331 -3.36042 1.71334 0
M  V30 1190 H 117.718 -2.81524 0.884769 0
M  V30 1191 H 117.799 -1.5035 2.06951 0
M  V30 1192 H 117.443 -3.20268 3.94196 0
M  V30 1193 H 117.373 -4.50445 2.72776 0
M  V30 1194 H 119.864 -3.00496 2.29152 0
M  V30 1195 H 120.177 -5.74578 5.16797 0
M  V30 1196 H 118.522 -5.17199 4.64253 0
M  V30 1197 H 121.713 -3.67051 2.90502 0
M  V30 1198 H 121.886 -4.9205 4.21653 0
M  V30 1199 N 115.292 -0.849877 -1.32721 0
M  V30 1200 C 116.222 -0.306308 -2.31482 0
M  V30 1201 C 117.203 0.591952 -1.59468 0
M  V30 1202 O 118.388 0.513199 -1.87296 0
M  V30 1203 C 115.518 0.510204 -3.43532 0
M  V30 1204 C 114.472 -0.293209 -4.26994 0
M  V30 1205 C 113.798 0.647743 -5.30762 0
M  V30 1206 C 115.098 -1.51634 -4.99804 0
M  V30 1207 H 116.792 -1.13153 -2.77195 0
M  V30 1208 H 114.338 -0.545553 -1.33266 0
M  V30 1209 H 116.291 0.900856 -4.11658 0
M  V30 1210 H 115.015 1.36874 -2.96535 0
M  V30 1211 H 113.674 -0.665555 -3.60508 0
M  V30 1212 H 113.322 1.50299 -4.8002 0
M  V30 1213 H 113.022 0.11422 -5.87489 0
M  V30 1214 H 114.546 1.03567 -6.01753 0
M  V30 1215 H 115.96 -1.19824 -5.60638 0
M  V30 1216 H 114.357 -1.98745 -5.66234 0
M  V30 1217 H 115.427 -2.28018 -4.27943 0
M  V30 1218 N 116.77 1.45427 -0.607355 0
M  V30 1219 C 118.019 2.01452 -0.100036 0
M  V30 1220 C 118.332 1.48159 1.27704 0
M  V30 1221 O 119.538 1.96159 1.87707 0
M  V30 1222 C 117.994 3.59672 -0.128158 0
M  V30 1223 C 117.602 4.21962 -1.50507 0
M  V30 1224 C 119.346 4.23262 0.323932 0
M  V30 1225 C 117.253 5.72333 -1.48959 0
M  V30 1226 H 116.183 0.75325 -0.0336299 0
M  V30 1227 H 118.834 1.66901 -0.76265 0
M  V30 1228 H 117.216 3.91411 0.601105 0
M  V30 1229 H 118.39 4.01796 -2.25602 0
M  V30 1230 H 116.705 3.70565 -1.89923 0
M  V30 1231 H 119.302 5.33522 0.354691 0
M  V30 1232 H 119.645 3.93921 1.34656 0
M  V30 1233 H 120.178 3.96239 -0.352056 0
M  V30 1234 H 116.917 6.06373 -2.48981 0
M  V30 1235 H 116.437 5.94691 -0.781214 0
M  V30 1236 H 118.116 6.35525 -1.21313 0
M  V30 1237 N 118.248 0.346503 1.53744 0
M  V30 1238 C 119.497 -0.250122 2.00143 0
M  V30 1239 C 119.81 -1.51418 1.23822 0
M  V30 1240 O 121.016 -2.18823 1.60713 0
M  V30 1241 C 119.472 -0.496252 3.56462 0
M  V30 1242 C 119.08 0.752077 4.41642 0
M  V30 1243 C 120.824 -1.05157 4.11269 0
M  V30 1244 C 118.731 0.476583 5.89477 0
M  V30 1245 H 117.661 -0.0972409 0.747703 0
M  V30 1246 H 120.312 0.46229 1.77581 0
M  V30 1247 H 118.694 -1.26944 3.75102 0
M  V30 1248 H 119.868 1.5266 4.34778 0
M  V30 1249 H 118.183 1.22925 3.97842 0
M  V30 1250 H 120.78 -1.27269 5.19333 0
M  V30 1251 H 121.123 -2.00799 3.64672 0
M  V30 1252 H 121.656 -0.339019 3.96353 0
M  V30 1253 H 118.395 1.4028 6.40314 0
M  V30 1254 H 117.915 -0.259794 5.99237 0
M  V30 1255 H 119.594 0.0949315 6.4693 0
M  V30 1256 N 119.726 -1.57421 0.075193 0
M  V30 1257 C 120.658 -2.09904 -0.920483 0
M  V30 1258 C 121.671 -1.03191 -1.25918 0
M  V30 1259 O 122.86 -1.30695 -1.21577 0
M  V30 1260 C 119.96 -2.54726 -2.23534 0
M  V30 1261 C 119.133 -3.8505 -2.07498 0
M  V30 1262 C 118.192 -4.15929 -3.22319 0
M  V30 1263 O 117.218 -4.85474 -2.9716 0
M  V30 1264 N 118.42 -3.69745 -4.47514 0
M  V30 1265 H 121.185 -2.95954 -0.472359 0
M  V30 1266 H 118.746 -1.61523 -0.110444 0
M  V30 1267 H 120.738 -2.72443 -2.9926 0
M  V30 1268 H 119.308 -1.73795 -2.59835 0
M  V30 1269 H 118.528 -3.76679 -1.16219 0
M  V30 1270 H 119.816 -4.70348 -1.94038 0
M  V30 1271 H 119.214 -3.13569 -4.7084 0
M  V30 1272 H 117.771 -3.92655 -5.20255 0
M  V30 1273 N 121.204 0.198386 -1.56346 0
M  V30 1274 C 122.429 0.939682 -1.84891 0
M  V30 1275 C 122.854 1.76202 -0.658369 0
M  V30 1276 O 122.212 1.76993 0.392851 0
M  V30 1277 C 122.26 1.81428 -3.11635 0
M  V30 1278 O 121.364 2.91265 -2.91956 0
M  V30 1279 H 120.705 0.264807 -0.608912 0
M  V30 1280 H 123.235 0.204695 -2.03573 0
M  V30 1281 H 123.245 2.21958 -3.42343 0
M  V30 1282 H 121.92 1.21004 -3.97908 0
M  V30 1283 H 120.497 2.54514 -2.72538 0
M  V30 1284 N 122.682 1.50554 0.465978 0
M  V30 1285 C 123.907 1.65838 1.24549 0
M  V30 1286 C 124.332 0.343486 1.84937 0
M  V30 1287 O 123.69 -0.69324 1.67523 0
M  V30 1288 C 123.738 2.75533 2.32624 0
M  V30 1289 O 122.842 2.37142 3.37398 0
M  V30 1290 H 122.183 0.553893 0.366194 0
M  V30 1291 H 124.713 1.96959 0.553927 0
M  V30 1292 H 124.723 2.98763 2.77857 0
M  V30 1293 H 123.398 3.70962 1.88043 0
M  V30 1294 H 121.975 2.24377 2.97841 0
M  V30 1295 N 124.16 -0.719506 1.40217 0
M  V30 1296 C 125.108 -1.85493 1.40339 0
M  V30 1297 C 126.102 -1.66995 0.284415 0
M  V30 1298 O 127.308 -1.74148 0.455252 0
M  V30 1299 H 123.683 -0.610857 0.438586 0
M  V30 1300 H 125.654 -1.82506 2.36081 0
M  V30 1301 C 124.403 -3.23321 1.27901 0
M  V30 1302 H 123.726 -3.38159 2.1328 0
M  V30 1303 H 125.166 -4.02914 1.32045 0
M  V30 1304 C 123.625 -3.36898 -0.0111355 0
M  V30 1305 O 124.155 -3.89674 -0.975538 0
M  V30 1306 N 122.361 -2.90492 -0.0793393 0
M  V30 1307 H 121.908 -2.47731 0.706183 0
M  V30 1308 H 121.866 -2.99955 -0.942038 0
M  V30 1309 N 125.638 -1.25649 -0.95132 0
M  V30 1310 C 126.886 -1.10375 -1.69298 0
M  V30 1311 C 127.207 0.355339 -1.91735 0
M  V30 1312 O 126.477 1.25188 -1.50681 0
M  V30 1313 H 125.057 -0.405461 -0.627384 0
M  V30 1314 H 127.719 -1.57823 -1.14358 0
M  V30 1315 H 126.815 -1.61465 -2.67087 0
M  V30 1316 N 127.117 1.15442 -1.07289 0
M  V30 1317 C 128.067 2.18164 -0.662467 0
M  V30 1318 C 129.051 1.57845 0.312074 0
M  V30 1319 O 130.243 1.76552 0.125905 0
M  V30 1320 C 127.372 3.43246 -0.0611295 0
M  V30 1321 C 126.458 4.1062 -1.06077 0
M  V30 1322 N 126.849 4.53491 -2.24008 0
M  V30 1323 C 125.147 4.36949 -0.893964 0
M  V30 1324 C 125.848 5.05731 -2.87422 0
M  V30 1325 N 124.824 4.99236 -2.15091 0
M  V30 1326 H 128.626 2.49038 -1.56068 0
M  V30 1327 H 126.14 1.32003 -0.945988 0
M  V30 1328 H 128.137 4.16145 0.250792 0
M  V30 1329 H 126.797 3.13854 0.832207 0
M  V30 1330 H 127.808 4.46898 -2.6173 0
M  V30 1331 H 124.485 4.17466 -0.0534693 0
M  V30 1332 H 125.875 5.48865 -3.87553 0
M  V30 1333 N 128.595 0.856903 1.32268 0
M  V30 1334 C 129.844 0.457599 1.96441 0
M  V30 1335 C 130.157 -0.992426 1.68553 0
M  V30 1336 O 131.363 -1.49727 2.26482 0
M  V30 1337 C 129.819 0.767358 3.51624 0
M  V30 1338 C 129.427 2.23326 3.88367 0
M  V30 1339 C 131.171 0.435887 4.22256 0
M  V30 1340 C 129.078 2.48613 5.36606 0
M  V30 1341 H 128.008 0.167387 0.735185 0
M  V30 1342 H 130.659 1.048 1.5063 0
M  V30 1343 H 129.041 0.106367 3.95857 0
M  V30 1344 H 130.215 2.93623 3.55137 0
M  V30 1345 H 128.53 2.52948 3.30766 0
M  V30 1346 H 131.127 0.602202 5.31298 0
M  V30 1347 H 131.47 -0.622672 4.11617 0
M  V30 1348 H 132.003 1.05286 3.83614 0
M  V30 1349 H 128.742 3.53101 5.52268 0
M  V30 1350 H 128.262 1.82896 5.71235 0
M  V30 1351 H 129.941 2.32676 6.03714 0
M  V30 1352 N 130.073 -1.45103 0.615059 0
M  V30 1353 C 131.301 -2.06553 0.11977 0
M  V30 1354 C 131.716 -1.45842 -1.19898 0
M  V30 1355 O 131.073 -0.575325 -1.73194 0
M  V30 1356 C 131.124 -3.61495 -0.018364 0
M  V30 1357 O 130.845 -4.19942 1.24822 0
M  V30 1358 C 132.346 -4.39947 -0.544237 0
M  V30 1359 H 129.566 -0.667096 0.0722739 0
M  V30 1360 H 132.11 -1.8623 0.84491 0
M  V30 1361 H 130.265 -3.81135 -0.693865 0
M  V30 1362 H 130.679 -5.13204 1.0827 0
M  V30 1363 H 132.153 -5.48838 -0.589953 0
M  V30 1364 H 132.63 -4.10255 -1.56805 0
M  V30 1365 H 133.236 -4.25188 0.0974703 0
M  V30 1366 N 131.551 -0.354651 -1.53558 0
M  V30 1367 C 132.779 0.239515 -2.05509 0
M  V30 1368 C 133.194 1.4333 -1.2289 0
M  V30 1369 O 132.551 1.80538 -0.266899 0
M  V30 1370 C 132.602 0.643719 -3.55723 0
M  V30 1371 O 132.323 -0.502602 -4.35207 0
M  V30 1372 C 133.824 1.29743 -4.23889 0
M  V30 1373 H 131.044 0.0442697 -0.669538 0
M  V30 1374 H 133.588 -0.509856 -1.98042 0
M  V30 1375 H 131.743 1.34302 -3.63376 0
M  V30 1376 H 132.157 -0.178172 -5.24197 0
M  V30 1377 H 133.631 1.53091 -5.30346 0
M  V30 1378 H 134.108 2.25441 -3.76926 0
M  V30 1379 H 134.714 0.639865 -4.20459 0
M  V30 1380 N 133.029 1.57378 -0.0835403 0
M  V30 1381 C 134.257 1.98263 0.59157 0
M  V30 1382 C 134.672 0.962302 1.62435 0
M  V30 1383 O 134.029 -0.049581 1.82433 0
M  V30 1384 C 134.08 3.39214 1.24965 0
M  V30 1385 O 133.801 4.37339 0.258186 0
M  V30 1386 C 135.302 3.95038 2.01147 0
M  V30 1387 H 132.522 0.651773 0.159477 0
M  V30 1388 H 135.066 2.03878 -0.159415 0
M  V30 1389 H 133.221 3.34649 1.95164 0
M  V30 1390 H 133.635 5.19371 0.731734 0
M  V30 1391 H 135.109 4.95848 2.42567 0
M  V30 1392 H 135.586 3.32222 2.87272 0
M  V30 1393 H 136.192 4.0304 1.35789 0
M  V30 1394 N 134.507 -0.190092 1.56449 0
M  V30 1395 C 135.918 -0.754312 1.70784 0
M  V30 1396 C 136.269 -1.83631 0.690951 0
M  V30 1397 O 135.394 -2.15868 -0.151604 0
M  V30 1398 C 135.989 -1.37503 3.09642 0
M  V30 1399 C 134.548 -1.88628 3.25725 0
M  V30 1400 C 133.695 -0.758098 2.66736 0
M  V30 1401 H 136.646 0.0350524 1.58661 0
M  V30 1402 H 136.667 -2.2445 3.0725 0
M  V30 1403 H 136.179 -0.587302 3.83631 0
M  V30 1404 H 134.28 -2.70103 2.56661 0
M  V30 1405 H 134.393 -2.04462 4.3328 0
M  V30 1406 H 132.757 -1.17369 2.26046 0
M  V30 1407 H 133.54 0.0174705 3.43296 0
M  V30 1408 N 135.985 -1.50799 -0.457987 0
M  V30 1409 C 137.213 -1.66218 -1.23203 0
M  V30 1410 C 137.628 -0.350894 -1.85511 0
M  V30 1411 O 136.985 0.668546 -1.69814 0
M  V30 1412 C 137.036 -2.76291 -2.33121 0
M  V30 1413 O 136.757 -4.02338 -1.73366 0
M  V30 1414 C 138.258 -3.028 -3.2377 0
M  V30 1415 H 135.478 -0.558361 -0.372121 0
M  V30 1416 H 138.022 -1.97099 -0.545179 0
M  V30 1417 H 136.177 -2.48068 -2.97558 0
M  V30 1418 H 136.591 -4.63312 -2.4585 0
M  V30 1419 H 138.065 -3.8345 -3.97077 0
M  V30 1420 H 138.542 -2.14385 -3.83322 0
M  V30 1421 H 139.148 -3.32604 -2.65056 0
M  V30 1422 N 137.463 0.71206 -1.40597 0
M  V30 1423 C 138.874 1.29135 -1.34837 0
M  V30 1424 C 139.225 1.96186 -0.0235395 0
M  V30 1425 O 138.35 1.97768 0.878444 0
M  V30 1426 C 138.945 2.34827 -2.44217 0
M  V30 1427 C 137.504 2.88371 -2.41907 0
M  V30 1428 C 136.651 1.62202 -2.24913 0
M  V30 1429 H 139.602 0.507944 -1.50352 0
M  V30 1430 H 139.623 3.15749 -2.12327 0
M  V30 1431 H 139.135 1.85996 -3.40627 0
M  V30 1432 H 137.236 3.41422 -1.49204 0
M  V30 1433 H 137.349 3.39925 -3.37621 0
M  V30 1434 H 135.713 1.874 -1.72492 0
M  V30 1435 H 136.496 1.15391 -3.23326 0
M  V30 1436 N 138.941 1.26152 0.944643 0
M  V30 1437 C 140.169 1.14259 1.72489 0
M  V30 1438 C 140.584 -0.302555 1.8636 0
M  V30 1439 O 139.941 -1.20741 1.36849 0
M  V30 1440 C 139.992 1.80266 3.13347 0
M  V30 1441 O 139.713 3.19133 3.00143 0
M  V30 1442 C 141.214 1.74283 4.07603 0
M  V30 1443 H 138.434 0.398051 0.540181 0
M  V30 1444 H 140.978 1.66706 1.18446 0
M  V30 1445 H 139.133 1.31766 3.64303 0
M  V30 1446 H 139.547 3.51744 3.89071 0
M  V30 1447 H 141.021 2.25111 5.04013 0
M  V30 1448 H 141.498 0.708631 4.33446 0
M  V30 1449 H 142.104 2.22319 3.62567 0
M  V30 1450 N 140.419 -1.14872 1.07899 0
M  V30 1451 C 141.351 -2.19425 0.662231 0
M  V30 1452 C 142.364 -1.60231 -0.288079 0
M  V30 1453 O 143.553 -1.78336 -0.076534 0
M  V30 1454 C 140.653 -3.38867 -0.0470695 0
M  V30 1455 C 139.826 -4.27597 0.920831 0
M  V30 1456 C 138.885 -5.25616 0.247805 0
M  V30 1457 O 137.911 -5.62189 0.890599 0
M  V30 1458 N 139.113 -5.71746 -1.00435 0
M  V30 1459 H 141.878 -2.55797 1.56166 0
M  V30 1460 H 139.439 -1.30042 0.964404 0
M  V30 1461 H 141.431 -4.01497 -0.50813 0
M  V30 1462 H 140.001 -3.00864 -0.848523 0
M  V30 1463 H 139.221 -3.61982 1.56087 0
M  V30 1464 H 140.509 -4.83748 1.57688 0
M  V30 1465 H 139.907 -5.44153 -1.54642 0
M  V30 1466 H 138.464 -6.36389 -1.40899 0
M  V30 1467 N 141.898 -0.863906 -1.31812 0
M  V30 1468 C 143.145 -0.471836 -1.96926 0
M  V30 1469 C 143.473 0.974578 -1.68322 0
M  V30 1470 O 142.728 1.7003 -0.968933 0
M  V30 1471 C 143.027 -0.668547 -3.51091 0
M  V30 1472 C 142.693 -2.08683 -3.99703 0
M  V30 1473 C 141.355 -2.47471 -4.12688 0
M  V30 1474 C 143.707 -3.01207 -4.25351 0
M  V30 1475 C 141.035 -3.78037 -4.4867 0
M  V30 1476 C 143.387 -4.31282 -4.62794 0
M  V30 1477 C 142.051 -4.69992 -4.73987 0
M  V30 1478 H 141.321 -0.172657 -0.720604 0
M  V30 1479 H 143.968 -1.09573 -1.57054 0
M  V30 1480 H 142.273 0.0385252 -3.91781 0
M  V30 1481 H 143.97 -0.345102 -3.99512 0
M  V30 1482 H 140.56 -1.77566 -3.90087 0
M  V30 1483 H 144.744 -2.72469 -4.14819 0
M  V30 1484 H 140 -4.078 -4.55532 0
M  V30 1485 H 144.174 -5.03031 -4.81594 0
M  V30 1486 H 141.801 -5.71207 -5.01624 0
M  V30 1487 N 143.376 1.44774 -0.622745 0
M  V30 1488 C 144.306 2.33382 0.0741861 0
M  V30 1489 C 145.287 1.47719 0.843387 0
M  V30 1490 O 146.472 1.76458 0.810934 0
M  V30 1491 C 143.602 3.30663 1.06204 0
M  V30 1492 C 142.556 4.26079 0.405037 0
M  V30 1493 C 141.882 5.13165 1.5022 0
M  V30 1494 C 143.182 5.1781 -0.683414 0
M  V30 1495 H 144.876 2.91905 -0.665713 0
M  V30 1496 H 142.422 1.40363 -0.321587 0
M  V30 1497 H 144.375 3.9153 1.55827 0
M  V30 1498 H 143.099 2.70331 1.83272 0
M  V30 1499 H 141.758 3.66532 -0.0704683 0
M  V30 1500 H 141.406 4.49191 2.26355 0
M  V30 1501 H 141.106 5.77812 1.06803 0
M  V30 1502 H 142.63 5.76902 2.00041 0
M  V30 1503 H 144.044 5.72661 -0.270631 0
M  V30 1504 H 142.441 5.91015 -1.04023 0
M  V30 1505 H 143.511 4.59326 -1.55395 0
M  V30 1506 N 144.854 0.36279 1.53368 0
M  V30 1507 C 146.094 -0.227882 2.03126 0
M  V30 1508 C 146.458 -1.4622 1.24434 0
M  V30 1509 O 147.659 -2.12831 1.64184 0
M  V30 1510 C 145.93 -0.515427 3.53664 0
M  V30 1511 S 147.489 -1.08017 4.25297 0
M  V30 1512 H 144.307 -0.0665377 0.70788 0
M  V30 1513 H 146.909 0.50501 1.88865 0
M  V30 1514 H 145.613 0.390436 4.08539 0
M  V30 1515 H 145.144 -1.27747 3.72081 0
M  V30 1516 H 147.159 -2.36462 4.36234 0
M  V30 1517 N 146.332 -1.57332 0.0918853 0
M  V30 1518 C 147.743 -1.81496 -0.437739 0
M  V30 1519 C 148.094 -1.00727 -1.6837 0
M  V30 1520 O 147.219 -0.235694 -2.15113 0
M  V30 1521 C 147.814 -3.29197 -0.800939 0
M  V30 1522 C 146.373 -3.54136 -1.27532 0
M  V30 1523 C 145.52 -2.75979 -0.270392 0
M  V30 1524 H 148.471 -1.55494 0.317366 0
M  V30 1525 H 148.492 -3.42344 -1.66074 0
M  V30 1526 H 148.004 -3.87955 0.106078 0
M  V30 1527 H 146.105 -3.00705 -2.20016 0
M  V30 1528 H 146.218 -4.62792 -1.23938 0
M  V30 1529 H 144.582 -2.43349 -0.751872 0
M  V30 1530 H 145.365 -3.37484 0.629248 0
M  V30 1531 N 147.81 0.181792 -1.56548 0
M  V30 1532 C 148.757 1.22521 -1.95595 0
M  V30 1533 C 149.727 1.4454 -0.818373 0
M  V30 1534 O 150.912 1.57454 -1.07763 0
M  V30 1535 C 148.052 2.56193 -2.31212 0
M  V30 1536 C 147.165 2.41641 -3.58097 0
M  V30 1537 C 146.3 3.68108 -3.82975 0
M  V30 1538 C 145.339 3.48445 -5.03242 0
M  V30 1539 N 144.476 4.66956 -5.24306 0
M  V30 1540 H 149.316 0.885226 -2.84548 0
M  V30 1541 H 146.853 0.425718 -1.40805 0
M  V30 1542 H 148.811 3.34088 -2.49882 0
M  V30 1543 H 147.441 2.88208 -1.45382 0
M  V30 1544 H 146.493 1.54976 -3.474 0
M  V30 1545 H 147.805 2.23052 -4.46149 0
M  V30 1546 H 146.959 4.54441 -4.01956 0
M  V30 1547 H 145.698 3.89666 -2.93278 0
M  V30 1548 H 144.703 2.60499 -4.8417 0
M  V30 1549 H 145.928 3.2832 -5.9446 0
M  V30 1550 H 143.874 4.88752 -4.37559 0
M  V30 1551 H 143.791 4.51242 -6.06561 0
M  V30 1552 H 145.059 5.54602 -5.47756 0
M  V30 1553 N 149.288 1.51039 0.449983 0
M  V30 1554 C 150.236 1.71995 1.5659 0
M  V30 1555 C 151.23 0.586029 1.5894 0
M  V30 1556 O 152.436 0.76709 1.62837 0
M  V30 1557 H 148.811 0.543233 0.520001 0
M  V30 1558 H 150.782 2.65562 1.36085 0
M  V30 1559 C 149.531 1.8506 2.9436 0
M  V30 1560 H 148.854 2.71712 2.93279 0
M  V30 1561 H 150.294 2.0374 3.71842 0
M  V30 1562 C 148.753 0.607277 3.31382 0
M  V30 1563 O 149.283 -0.243903 4.00959 0
M  V30 1564 N 147.489 0.455073 2.87015 0
M  V30 1565 H 147.036 1.14879 2.30566 0
M  V30 1566 H 146.994 -0.375611 3.12148 0
M  V30 1567 N 150.766 -0.704594 1.40972 0
M  V30 1568 C 152.012 -1.46675 1.40051 0
M  V30 1569 C 152.345 -1.94199 0.00641102 0
M  V30 1570 O 151.62 -1.68916 -0.964235 0
M  V30 1571 C 151.903 -2.68505 2.39952 0
M  V30 1572 C 151.756 -2.26805 3.88432 0
M  V30 1573 C 153.075 -3.70686 2.37233 0
M  V30 1574 H 150.194 -0.532015 0.510028 0
M  V30 1575 H 152.836 -0.803255 1.72185 0
M  V30 1576 H 150.986 -3.25114 2.1268 0
M  V30 1577 H 152.658 -1.75592 4.26574 0
M  V30 1578 H 150.901 -1.58685 4.03734 0
M  V30 1579 H 151.572 -3.14181 4.53866 0
M  V30 1580 H 154.048 -3.23731 2.61415 0
M  V30 1581 H 152.924 -4.53553 3.09162 0
M  V30 1582 H 153.185 -4.19754 1.38777 0
M  V30 1583 N 152.244 -1.26651 -0.937939 0
M  V30 1584 C 153.472 -1.15173 -1.7188 0
M  V30 1585 C 153.887 0.292668 -1.86518 0
M  V30 1586 O 153.244 1.20014 -1.37488 0
M  V30 1587 C 153.295 -1.81925 -3.12387 0
M  V30 1588 O 153.016 -3.2072 -2.98446 0
M  V30 1589 C 154.517 -1.76442 -4.06673 0
M  V30 1590 H 151.737 -0.400911 -0.538063 0
M  V30 1591 H 154.281 -1.67332 -1.1756 0
M  V30 1592 H 152.436 -1.33696 -3.63599 0
M  V30 1593 H 152.85 -3.53802 -3.872 0
M  V30 1594 H 154.324 -2.27781 -5.02812 0
M  V30 1595 H 154.801 -0.731608 -4.33064 0
M  V30 1596 H 155.407 -2.24238 -3.61382 0
M  V30 1597 N 153.722 1.14298 -1.08507 0
M  V30 1598 C 154.999 1.81544 -0.728088 0
M  V30 1599 C 155.379 1.95838 0.78808 0
M  V30 1600 O 154.727 1.51904 1.70697 0
M  V30 1601 C 154.937 3.17169 -1.45619 0
M  V30 1602 C 156.285 3.9265 -1.61591 0
M  V30 1603 O 157.309 3.26762 -1.41793 0
M  V30 1604 O 156.168 5.10807 -1.94263 0
M  V30 1605 H 153.262 0.78491 -0.260471 0
M  V30 1606 H 155.808 1.21307 -1.18671 0
M  V30 1607 H 154.58 3.01934 -2.489 0
M  V30 1608 H 154.203 3.851 -0.989124 0
M  V30 1609 N 155.201 0.870884 1.31352 0
M  V30 1610 C 156.111 0.330783 2.32256 0
M  V30 1611 C 157.127 -0.559767 1.6475 0
M  V30 1612 O 158.303 -0.456263 1.96164 0
M  V30 1613 C 155.368 -0.458137 3.4366 0
M  V30 1614 C 154.429 0.460482 4.26823 0
M  V30 1615 C 153.662 -0.290881 5.32907 0
M  V30 1616 O 153.885 -1.51885 5.49806 0
M  V30 1617 O 152.819 0.351732 6.00871 0
M  V30 1618 H 156.645 1.16718 2.80376 0
M  V30 1619 H 154.23 0.634285 1.35267 0
M  V30 1620 H 156.112 -0.905343 4.1156 0
M  V30 1621 H 154.787 -1.27106 2.97701 0
M  V30 1622 H 153.694 0.956207 3.61673 0
M  V30 1623 H 155.027 1.23903 4.7635 0
M  V30 1624 N 156.679 -1.44442 0.630414 0
M  V30 1625 C 157.611 -2.2892 -0.113347 0
M  V30 1626 C 158.624 -1.41243 -0.80959 0
M  V30 1627 O 159.813 -1.65402 -0.671156 0
M  V30 1628 C 156.913 -3.17594 -1.18266 0
M  V30 1629 C 156.086 -4.33682 -0.569073 0
M  V30 1630 C 155.145 -5.03397 -1.53226 0
M  V30 1631 O 154.171 -5.59438 -1.04967 0
M  V30 1632 N 155.373 -5.04783 -2.86661 0
M  V30 1633 H 158.138 -2.93392 0.611636 0
M  V30 1634 H 155.699 -1.54881 0.471523 0
M  V30 1635 H 157.691 -3.61097 -1.82732 0
M  V30 1636 H 156.261 -2.54876 -1.80988 0
M  V30 1637 H 155.481 -3.9338 0.254187 0
M  V30 1638 H 156.769 -5.08608 -0.139767 0
M  V30 1639 H 156.167 -4.60584 -3.28449 0
M  V30 1640 H 154.724 -5.52077 -3.46489 0
M  V30 1641 N 158.157 -0.370918 -1.53173 0
M  V30 1642 C 159.067 0.480823 -2.2962 0
M  V30 1643 C 160.083 1.08789 -1.35798 0
M  V30 1644 O 161.259 1.09768 -1.68858 0
M  V30 1645 C 158.324 1.60227 -3.07454 0
M  V30 1646 C 157.385 1.0222 -4.16953 0
M  V30 1647 C 156.618 2.0902 -4.91066 0
M  V30 1648 O 156.841 3.30222 -4.65091 0
M  V30 1649 O 155.775 1.71778 -5.76867 0
M  V30 1650 H 159.601 -0.141421 -3.03371 0
M  V30 1651 H 157.186 -0.135146 -1.48787 0
M  V30 1652 H 159.068 2.25417 -3.56041 0
M  V30 1653 H 157.743 2.20982 -2.36535 0
M  V30 1654 H 156.65 0.334064 -3.72605 0
M  V30 1655 H 157.983 0.459131 -4.90054 0
M  V30 1656 N 159.635 1.57281 -0.100228 0
M  V30 1657 C 160.883 1.94153 0.561157 0
M  V30 1658 C 161.204 0.983157 1.68401 0
M  V30 1659 O 160.474 0.0361132 1.95867 0
M  V30 1660 H 159.054 0.716791 0.210283 0
M  V30 1661 H 161.716 1.94202 -0.164765 0
M  V30 1662 H 160.812 2.96709 0.968008 0
M  V30 1663 N 161.113 -0.173488 1.56642 0
M  V30 1664 C 162.36 -0.890465 1.81871 0
M  V30 1665 C 162.688 -1.82339 0.67696 0
M  V30 1666 O 161.943 -1.92795 -0.335926 0
M  V30 1667 C 162.242 -1.72069 3.13252 0
M  V30 1668 C 161.908 -0.936878 4.41059 0
M  V30 1669 C 160.57 -0.720545 4.75775 0
M  V30 1670 C 162.922 -0.386919 5.19762 0
M  V30 1671 C 160.25 0.0568829 5.86672 0
M  V30 1672 C 162.602 0.37741 6.31473 0
M  V30 1673 C 161.266 0.604563 6.64757 0
M  V30 1674 H 160.536 -0.325844 0.665512 0
M  V30 1675 H 163.183 -0.155527 1.90867 0
M  V30 1676 H 161.488 -2.52496 2.99588 0
M  V30 1677 H 163.185 -2.27844 3.29982 0
M  V30 1678 H 159.775 -1.11553 4.13828 0
M  V30 1679 H 163.959 -0.541398 4.93338 0
M  V30 1680 H 159.215 0.242635 6.10918 0
M  V30 1681 H 163.389 0.810825 6.91664 0
M  V30 1682 H 161.016 1.20885 7.50527 0
M  V30 1683 N 162.591 -1.51276 -0.441967 0
M  V30 1684 C 163.554 -1.7167 -1.51862 0
M  V30 1685 C 164.554 -0.586793 -1.49711 0
M  V30 1686 O 165.744 -0.854276 -1.51815 0
M  V30 1687 C 162.876 -1.76889 -2.91416 0
M  V30 1688 H 164.069 -2.67754 -1.35084 0
M  V30 1689 H 161.622 -1.41196 -0.670333 0
M  V30 1690 H 162.357 -0.826026 -3.13604 0
M  V30 1691 H 162.142 -2.59001 -2.94382 0
M  V30 1692 H 163.632 -1.94522 -3.69528 0
M  V30 1693 N 164.069 0.697108 -1.41344 0
M  V30 1694 C 164.979 1.84088 -1.45427 0
M  V30 1695 C 165.995 1.70545 -0.34501 0
M  V30 1696 O 167.171 1.92488 -0.592492 0
M  V30 1697 C 164.236 3.20056 -1.33286 0
M  V30 1698 C 163.297 3.45718 -2.54514 0
M  V30 1699 C 162.53 4.75199 -2.42944 0
M  V30 1700 O 162.753 5.51579 -1.45318 0
M  V30 1701 O 161.687 5.0161 -3.32672 0
M  V30 1702 H 165.513 1.836 -2.41919 0
M  V30 1703 H 163.098 0.849966 -1.22866 0
M  V30 1704 H 164.98 4.01236 -1.28794 0
M  V30 1705 H 163.655 3.2123 -0.39909 0
M  V30 1706 H 162.562 2.64474 -2.64583 0
M  V30 1707 H 163.895 3.49356 -3.46715 0
M  V30 1708 N 165.547 1.27147 0.931209 0
M  V30 1709 C 166.795 1.13055 1.6752 0
M  V30 1710 C 167.116 -0.324791 1.92276 0
M  V30 1711 O 166.386 -1.22775 1.52654 0
M  V30 1712 H 164.966 0.415391 0.620854 0
M  V30 1713 H 167.628 1.59623 1.11833 0
M  V30 1714 H 166.724 1.65694 2.64485 0
M  V30 1715 N 167.025 -1.13721 1.09112 0
M  V30 1716 C 168.272 -1.84924 0.825192 0
M  V30 1717 C 168.6 -1.83347 -0.649151 0
M  V30 1718 O 167.855 -1.26449 -1.49362 0
M  V30 1719 C 168.154 -3.32861 1.30146 0
M  V30 1720 C 167.82 -3.54621 2.78486 0
M  V30 1721 C 166.482 -3.60268 3.18999 0
M  V30 1722 C 168.834 -3.62855 3.74146 0
M  V30 1723 C 166.162 -3.71679 4.53951 0
M  V30 1724 C 168.514 -3.75793 5.08883 0
M  V30 1725 C 167.178 -3.79692 5.4899 0
M  V30 1726 H 166.448 -0.676684 0.301959 0
M  V30 1727 H 169.095 -1.3428 1.36533 0
M  V30 1728 H 167.4 -3.85835 0.681064 0
M  V30 1729 H 169.097 -3.86395 1.07236 0
M  V30 1730 H 165.687 -3.50879 2.46134 0
M  V30 1731 H 169.871 -3.57775 3.43963 0
M  V30 1732 H 165.127 -3.72963 4.84467 0
M  V30 1733 H 169.301 -3.81107 5.82864 0
M  V30 1734 H 166.928 -3.88287 6.53558 0
M  V30 1735 N 168.503 -0.877838 -1.30888 0
M  V30 1736 C 169.749 -0.493426 -1.96706 0
M  V30 1737 C 170.082 0.953504 -1.6918 0
M  V30 1738 O 169.357 1.67266 -0.992594 0
M  V30 1739 C 169.64 -0.760429 -3.51979 0
M  V30 1740 C 169.493 -2.25747 -3.89048 0
M  V30 1741 C 170.812 -0.232148 -4.39487 0
M  V30 1742 H 167.931 -0.180746 -0.714493 0
M  V30 1743 H 170.573 -1.10052 -1.54882 0
M  V30 1744 H 168.723 -0.243715 -3.87735 0
M  V30 1745 H 170.395 -2.84204 -3.63354 0
M  V30 1746 H 168.638 -2.72694 -3.37373 0
M  V30 1747 H 169.309 -2.39491 -4.97341 0
M  V30 1748 H 171.785 -0.674314 -4.106 0
M  V30 1749 H 170.661 -0.448355 -5.47066 0
M  V30 1750 H 170.922 0.866297 -4.33529 0
M  V30 1751 N 169.982 1.44106 -0.638065 0
M  V30 1752 C 171.398 1.56672 -0.304286 0
M  V30 1753 C 171.598 1.6244 1.19228 0
M  V30 1754 O 170.654 1.57121 1.9766 0
M  V30 1755 C 171.967 2.83503 -1.00231 0
M  V30 1756 C 173.515 2.97226 -0.981116 0
M  V30 1757 C 173.99 4.26868 -1.65974 0
M  V30 1758 N 175.481 4.33698 -1.62666 0
M  V30 1759 C 176.216 5.32745 -2.12063 0
M  V30 1760 N 175.712 6.38157 -2.6968 0
M  V30 1761 N 177.505 5.24299 -2.02651 0
M  V30 1762 H 169.656 1.38605 -1.60942 0
M  V30 1763 H 171.919 0.664661 -0.675965 0
M  V30 1764 H 171.625 2.85251 -2.0573 0
M  V30 1765 H 171.499 3.73251 -0.54439 0
M  V30 1766 H 173.886 2.95027 0.0654188 0
M  V30 1767 H 173.967 2.08808 -1.47759 0
M  V30 1768 H 173.611 4.29826 -2.70576 0
M  V30 1769 H 173.541 5.14156 -1.13804 0
M  V30 1770 H 176.032 3.58138 -1.20606 0
M  V30 1771 H 176.345 7.10029 -3.05087 0
M  V30 1772 H 174.69 6.38823 -2.73734 0
M  V30 1773 H 177.881 4.4086 -1.57353 0
M  V30 1774 H 178.054 6.01334 -2.41457 0
M  V30 1775 N 171.46 0.379036 1.52974 0
M  V30 1776 C 172.423 -0.448865 2.24762 0
M  V30 1777 C 173.423 -0.998689 1.26027 0
M  V30 1778 O 174.613 -0.882313 1.50203 0
M  V30 1779 C 171.745 -1.62872 2.99476 0
M  V30 1780 H 172.938 0.179491 2.99362 0
M  V30 1781 H 170.491 0.13096 1.5575 0
M  V30 1782 H 171.226 -2.29479 2.29151 0
M  V30 1783 H 171.011 -1.24128 3.71934 0
M  V30 1784 H 172.501 -2.2151 3.5401 0
M  V30 1785 N 172.938 -1.57226 0.108567 0
M  V30 1786 C 173.868 -2.17778 -0.84232 0
M  V30 1787 C 174.849 -1.11487 -1.2847 0
M  V30 1788 O 176.034 -1.39681 -1.34918 0
M  V30 1789 C 173.164 -2.76888 -2.09644 0
M  V30 1790 C 172.118 -3.88669 -1.79221 0
M  V30 1791 C 171.444 -4.34541 -3.11574 0
M  V30 1792 C 172.744 -5.11251 -1.06864 0
M  V30 1793 H 174.438 -2.97489 -0.337774 0
M  V30 1794 H 171.984 -1.43097 -0.161025 0
M  V30 1795 H 173.937 -3.17904 -2.76614 0
M  V30 1796 H 172.661 -1.94451 -2.62405 0
M  V30 1797 H 171.32 -3.48213 -1.14644 0
M  V30 1798 H 170.968 -3.48977 -3.62249 0
M  V30 1799 H 170.668 -5.09914 -2.91996 0
M  V30 1800 H 172.192 -4.782 -3.7968 0
M  V30 1801 H 173.606 -5.49352 -1.63968 0
M  V30 1802 H 172.003 -5.9214 -0.974178 0
M  V30 1803 H 173.073 -4.8487 -0.0536168 0
M  V30 1804 N 174.416 0.165178 -1.56732 0
M  V30 1805 C 175.379 1.18822 -1.95995 0
M  V30 1806 C 176.379 1.3685 -0.84431 0
M  V30 1807 O 177.569 1.34152 -1.11126 0
M  V30 1808 C 174.701 2.5521 -2.26011 0
M  V30 1809 H 175.894 0.851825 -2.87548 0
M  V30 1810 H 173.447 0.407857 -1.50885 0
M  V30 1811 H 174.182 2.93852 -1.37191 0
M  V30 1812 H 173.967 2.43489 -3.07336 0
M  V30 1813 H 175.457 3.28927 -2.57288 0
M  V30 1814 N 175.894 1.51508 0.433938 0
M  V30 1815 C 176.804 1.75917 1.5521 0
M  V30 1816 C 177.82 0.643545 1.61662 0
M  V30 1817 O 178.996 0.926183 1.7884 0
M  V30 1818 C 176.061 1.88213 2.91164 0
M  V30 1819 C 175.122 3.12074 2.94802 0
M  V30 1820 C 174.355 3.23774 4.24271 0
M  V30 1821 O 174.578 2.4133 5.16833 0
M  V30 1822 O 173.512 4.16774 4.34262 0
M  V30 1823 H 177.338 2.70777 1.37527 0
M  V30 1824 H 174.923 1.36051 0.617293 0
M  V30 1825 H 176.805 1.98267 3.71845 0
M  V30 1826 H 175.48 0.965413 3.08968 0
M  V30 1827 H 174.387 3.07497 2.13065 0
M  V30 1828 H 175.72 4.03446 2.81943 0
M  V30 1829 N 177.372 -0.689602 1.41712 0
M  V30 1830 C 178.302 -1.81577 1.46806 0
M  V30 1831 C 179.283 -1.66945 0.326105 0
M  V30 1832 O 180.468 -1.86588 0.538377 0
M  V30 1833 C 177.598 -3.19762 1.35535 0
M  V30 1834 C 176.552 -3.49107 2.47605 0
M  V30 1835 C 175.878 -4.86711 2.21397 0
M  V30 1836 C 177.178 -3.47483 3.89939 0
M  V30 1837 H 178.872 -1.7757 2.41058 0
M  V30 1838 H 176.418 -0.852887 1.16025 0
M  V30 1839 H 178.371 -3.98263 1.3771 0
M  V30 1840 H 177.095 -3.24409 0.377708 0
M  V30 1841 H 175.754 -2.72959 2.44722 0
M  V30 1842 H 175.402 -4.8799 1.21961 0
M  V30 1843 H 175.102 -5.0731 2.96497 0
M  V30 1844 H 176.626 -5.67515 2.25297 0
M  V30 1845 H 178.04 -4.1598 3.94505 0
M  V30 1846 H 176.437 -3.79615 4.64771 0
M  V30 1847 H 177.507 -2.46341 4.17665 0
M  V30 1848 N 178.85 -1.27639 -0.924453 0
M  V30 1849 C 179.8 -1.07295 -2.01176 0
M  V30 1850 C 180.784 5.77352e-05 -1.609 0
M  V30 1851 O 181.976 -0.218855 -1.75642 0
M  V30 1852 C 179.105 -0.725592 -3.35544 0
M  V30 1853 C 178.191 -1.83691 -3.82254 0
M  V30 1854 N 178.582 -3.07697 -4.01443 0
M  V30 1855 C 176.88 -1.72433 -4.11319 0
M  V30 1856 C 177.581 -3.80037 -4.40394 0
M  V30 1857 N 176.557 -3.0782 -4.48049 0
M  V30 1858 H 180.359 -2.01399 -2.14046 0
M  V30 1859 H 177.873 -1.18401 -1.11153 0
M  V30 1860 H 179.87 -0.560959 -4.13109 0
M  V30 1861 H 178.53 0.207782 -3.24034 0
M  V30 1862 H 179.541 -3.43424 -3.8766 0
M  V30 1863 H 176.218 -0.862005 -4.08504 0
M  V30 1864 H 177.608 -4.86632 -4.63291 0
M  V30 1865 N 180.328 1.1314 -1.09713 0
M  V30 1866 C 181.553 1.88862 -0.857081 0
M  V30 1867 C 181.978 1.78729 0.586304 0
M  V30 1868 O 181.336 1.13692 1.41222 0
M  V30 1869 C 181.384 3.36325 -1.30069 0
M  V30 1870 O 180.488 4.09815 -0.461007 0
M  V30 1871 H 179.829 0.587108 -0.310162 0
M  V30 1872 H 182.359 1.43129 -1.46203 0
M  V30 1873 H 182.369 3.87157 -1.28738 0
M  V30 1874 H 181.044 3.43017 -2.35185 0
M  V30 1875 H 179.621 3.68986 -0.538888 0
M  V30 1876 N 181.806 0.884767 1.30421 0
M  V30 1877 C 182.738 0.308655 2.27112 0
M  V30 1878 C 183.751 -0.536655 1.53701 0
M  V30 1879 O 184.94 -0.35624 1.74909 0
M  V30 1880 C 182.04 -0.579782 3.33904 0
M  V30 1881 C 181.213 0.236417 4.36761 0
M  V30 1882 C 180.272 -0.582482 5.22966 0
M  V30 1883 O 179.298 -0.00525502 5.692 0
M  V30 1884 N 180.5 -1.89163 5.48815 0
M  V30 1885 H 183.265 1.13964 2.77186 0
M  V30 1886 H 180.826 0.747731 1.43599 0
M  V30 1887 H 182.818 -1.13366 3.88497 0
M  V30 1888 H 181.388 -1.31144 2.83761 0
M  V30 1889 H 180.608 0.97174 3.82035 0
M  V30 1890 H 181.896 0.795924 5.02536 0
M  V30 1891 H 181.294 -2.38352 5.13035 0
M  V30 1892 H 179.851 -2.39296 6.06284 0
M  V30 1893 N 183.284 -1.43765 0.645699 0
M  V30 1894 C 184.232 -2.32516 -0.0624849 0
M  V30 1895 C 185.226 -1.48183 -0.820855 0
M  V30 1896 O 186.432 -1.64439 -0.732106 0
M  V30 1897 H 182.807 -0.750989 -0.0389864 0
M  V30 1898 H 184.778 -2.89979 0.703892 0
M  V30 1899 C 183.527 -3.32389 -1.02044 0
M  V30 1900 H 182.85 -3.97301 -0.446312 0
M  V30 1901 H 184.29 -3.97138 -1.48517 0
M  V30 1902 C 182.749 -2.62416 -2.11281 0
M  V30 1903 O 183.279 -2.434 -3.19561 0
M  V30 1904 N 181.485 -2.21913 -1.87624 0
M  V30 1905 H 181.032 -2.37578 -0.995703 0
M  V30 1906 H 180.99 -1.75424 -2.6091 0
M  V30 1907 N 184.763 -0.387143 -1.52771 0
M  V30 1908 C 185.991 0.195869 -2.05971 0
M  V30 1909 C 186.406 1.40691 -1.25903 0
M  V30 1910 O 185.763 1.79931 -0.305134 0
M  V30 1911 C 185.814 0.56812 -3.57008 0
M  V30 1912 O 185.535 -0.594803 -4.34043 0
M  V30 1913 C 187.036 1.20723 -4.26545 0
M  V30 1914 H 184.256 0.0300578 -0.670326 0
M  V30 1915 H 186.8 -0.551749 -1.96916 0
M  V30 1916 H 184.955 1.26564 -3.66143 0
M  V30 1917 H 185.369 -0.289322 -5.23701 0
M  V30 1918 H 186.843 1.41807 -5.33474 0
M  V30 1919 H 187.32 2.17395 -3.81623 0
M  V30 1920 H 187.926 0.550535 -4.21722 0
M  V30 1921 N 186.241 1.57166 -0.116904 0
M  V30 1922 C 187.171 2.18222 0.830759 0
M  V30 1923 C 188.152 1.12167 1.27877 0
M  V30 1924 O 189.337 1.40394 1.34176 0
M  V30 1925 C 186.467 2.77996 2.08172 0
M  V30 1926 C 185.421 3.89614 1.77157 0
M  V30 1927 C 184.747 4.36187 3.09265 0
M  V30 1928 C 186.047 5.1181 1.04151 0
M  V30 1929 H 187.741 2.97664 0.321992 0
M  V30 1930 H 185.287 1.4318 0.153434 0
M  V30 1931 H 187.24 3.19366 2.74924 0
M  V30 1932 H 185.964 1.9584 2.6137 0
M  V30 1933 H 184.623 3.48816 1.12796 0
M  V30 1934 H 184.271 3.50893 3.60393 0
M  V30 1935 H 183.971 5.11455 2.89288 0
M  V30 1936 H 185.495 4.80207 3.77139 0
M  V30 1937 H 186.909 5.50214 1.61052 0
M  V30 1938 H 185.306 5.92648 0.942762 0
M  V30 1939 H 186.376 4.84892 0.0279022 0
M  V30 1940 N 187.719 -0.156864 1.56817 0
M  V30 1941 C 189.13 -0.717916 1.72345 0
M  V30 1942 C 189.481 -1.82124 0.729747 0
M  V30 1943 O 188.606 -2.16141 -0.105781 0
M  V30 1944 C 189.201 -1.30904 3.12489 0
M  V30 1945 C 187.76 -1.81676 3.29653 0
M  V30 1946 C 186.907 -0.701349 2.68284 0
M  V30 1947 H 189.858 0.0686989 1.58551 0
M  V30 1948 H 189.879 -2.17882 3.11942 0
M  V30 1949 H 189.391 -0.505796 3.8479 0
M  V30 1950 H 187.492 -2.64598 2.62333 0
M  V30 1951 H 187.605 -1.95226 4.3752 0
M  V30 1952 H 185.969 -1.12548 2.28484 0
M  V30 1953 H 186.752 0.0902846 3.43181 0
M  V30 1954 N 189.197 -1.51736 -0.425897 0
M  V30 1955 C 190.422 -1.69082 -1.20108 0
M  V30 1956 C 190.847 -0.392398 -1.83962 0
M  V30 1957 O 190.205 0.64858 -1.69302 0
M  V30 1958 C 190.253 -2.81604 -2.25237 0
M  V30 1959 O 189.357 -2.46004 -3.30992 0
M  V30 1960 H 188.698 -0.563408 -0.35138 0
M  V30 1961 H 191.228 -1.98358 -0.501512 0
M  V30 1962 H 191.238 -3.06025 -2.69838 0
M  V30 1963 H 189.913 -3.75817 -1.78142 0
M  V30 1964 H 188.49 -2.32195 -2.91787 0
M  V30 1965 N 190.675 0.682077 -1.42076 0
M  V30 1966 C 191.921 1.44428 -1.42367 0
M  V30 1967 C 192.254 1.94164 -0.0373056 0
M  V30 1968 O 191.529 1.70429 0.937239 0
M  V30 1969 C 191.812 2.64654 -2.44194 0
M  V30 1970 C 191.665 2.20596 -3.91991 0
M  V30 1971 C 192.984 3.66865 -2.431 0
M  V30 1972 H 190.103 0.523834 -0.518428 0
M  V30 1973 H 192.745 0.77576 -1.73442 0
M  V30 1974 H 190.895 3.2169 -2.17826 0
M  V30 1975 H 192.567 1.68783 -4.29313 0
M  V30 1976 H 190.81 1.52242 -4.06208 0
M  V30 1977 H 191.481 3.06921 -4.58807 0
M  V30 1978 H 193.957 3.19531 -2.66532 0
M  V30 1979 H 192.833 4.48577 -3.16339 0
M  V30 1980 H 193.094 4.17493 -1.45437 0
M  V30 1981 N 192.153 1.28127 0.917671 0
M  V30 1982 C 193.381 1.17892 1.70026 0
M  V30 1983 C 193.796 -0.262958 1.8696 0
M  V30 1984 O 193.153 -1.17811 1.3938 0
M  V30 1985 C 193.204 1.86872 3.09453 0
M  V30 1986 O 192.925 3.25428 2.93306 0
M  V30 1987 C 194.426 1.8289 4.03815 0
M  V30 1988 H 191.646 0.40942 0.531617 0
M  V30 1989 H 194.19 1.69181 1.14883 0
M  V30 1990 H 192.345 1.39464 3.61426 0
M  V30 1991 H 192.759 3.59918 3.81523 0
M  V30 1992 H 194.233 2.35751 4.99125 0
M  V30 1993 H 194.71 0.800412 4.31845 0
M  V30 1994 H 195.316 2.29959 3.57769 0
M  V30 1995 N 193.631 -1.12557 1.10312 0
M  V30 1996 C 194.856 -1.88405 0.867085 0
M  V30 1997 C 195.281 -1.79038 -0.576817 0
M  V30 1998 O 194.639 -1.14439 -1.40618 0
M  V30 1999 C 194.687 -3.3563 1.31851 0
M  V30 2000 O 193.791 -4.09565 0.482734 0
M  V30 2001 H 193.132 -0.585455 0.313271 0
M  V30 2002 H 195.662 -1.42352 1.4696 0
M  V30 2003 H 195.672 -3.86469 1.3079 0
M  V30 2004 H 194.347 -3.41765 2.37001 0
M  V30 2005 H 192.924 -3.68695 0.558448 0
M  V30 2006 N 195.109 -0.891671 -1.2995 0
M  V30 2007 C 196.072 -0.36828 -2.26222 0
M  V30 2008 C 197.072 0.493014 -1.53056 0
M  V30 2009 O 198.262 0.299213 -1.71611 0
M  V30 2010 C 195.394 0.47442 -3.37583 0
M  V30 2011 H 196.587 -1.21844 -2.74033 0
M  V30 2012 H 194.14 -0.669107 -1.41254 0
M  V30 2013 H 194.875 1.34489 -2.95099 0
M  V30 2014 H 194.66 -0.142615 -3.91841 0
M  V30 2015 H 196.15 0.83218 -4.09224 0
M  V30 2016 N 196.587 1.43421 -0.653314 0
M  V30 2017 C 197.55 2.29182 0.0287951 0
M  V30 2018 C 198.55 1.42213 0.750465 0
M  V30 2019 O 199.74 1.63843 0.591701 0
M  V30 2020 C 196.872 3.24278 1.05151 0
M  V30 2021 H 198.065 2.90985 -0.725786 0
M  V30 2022 H 195.618 1.50702 -0.414545 0
M  V30 2023 H 196.353 2.6737 1.83532 0
M  V30 2024 H 196.138 3.88396 0.537687 0
M  V30 2025 H 197.628 3.88647 1.52786 0
M  V30 2026 N 198.065 0.39524 1.52563 0
M  V30 2027 C 198.997 -0.472201 2.24283 0
M  V30 2028 C 200.01 -1.02178 1.26742 0
M  V30 2029 O 201.199 -0.923097 1.52778 0
M  V30 2030 C 198.299 -1.66775 2.95024 0
M  V30 2031 C 197.472 -1.2445 4.19322 0
M  V30 2032 C 196.531 -2.30539 4.7301 0
M  V30 2033 O 195.557 -1.91702 5.35947 0
M  V30 2034 N 196.759 -3.6253 4.53379 0
M  V30 2035 H 199.524 0.142282 2.99362 0
M  V30 2036 H 197.085 0.2219 1.60372 0
M  V30 2037 H 199.077 -2.37283 3.27839 0
M  V30 2038 H 197.647 -2.18845 2.23217 0
M  V30 2039 H 196.867 -0.368069 3.92478 0
M  V30 2040 H 198.155 -0.938457 5.0007 0
M  V30 2041 H 197.553 -3.96841 4.03154 0
M  V30 2042 H 196.11 -4.29055 4.90668 0
M  V30 2043 N 199.544 -1.57102 0.125237 0
M  V30 2044 C 200.955 -1.82384 -0.399142 0
M  V30 2045 C 201.306 -1.04276 -1.66195 0
M  V30 2046 O 200.431 -0.281269 -2.14564 0
M  V30 2047 C 201.026 -3.30821 -0.730932 0
M  V30 2048 C 199.585 -3.56762 -1.19992 0
M  V30 2049 C 198.732 -2.7649 -0.211792 0
M  V30 2050 H 201.683 -1.54786 0.350277 0
M  V30 2051 H 201.704 -3.4579 -1.58775 0
M  V30 2052 H 201.216 -3.87643 0.188345 0
M  V30 2053 H 199.317 -3.05305 -2.13588 0
M  V30 2054 H 199.43 -4.65317 -1.14093 0
M  V30 2055 H 197.794 -2.4489 -0.700085 0
M  V30 2056 H 198.577 -3.36073 0.700691 0
M  V30 2057 N 201.022 0.148545 -1.56898 0
M  V30 2058 C 202.268 0.862694 -1.83536 0
M  V30 2059 C 202.601 1.80889 -0.706604 0
M  V30 2060 O 201.876 1.92328 0.289885 0
M  V30 2061 C 202.159 1.63853 -3.20662 0
M  V30 2062 C 202.012 0.713925 -4.44098 0
M  V30 2063 C 203.331 2.60133 -3.54991 0
M  V30 2064 H 200.45 0.312179 -0.667618 0
M  V30 2065 H 203.092 0.127953 -1.89569 0
M  V30 2066 H 201.242 2.26489 -3.1565 0
M  V30 2067 H 202.914 0.098686 -4.61194 0
M  V30 2068 H 201.157 0.0234019 -4.33794 0
M  V30 2069 H 201.828 1.29278 -5.36648 0
M  V30 2070 H 204.304 2.07616 -3.60603 0
M  V30 2071 H 203.18 3.11468 -4.51972 0
M  V30 2072 H 203.441 3.41417 -2.80868 0
M  V30 2073 N 202.5 1.5196 0.417844 0
M  V30 2074 C 203.448 1.75278 1.52907 0
M  V30 2075 C 204.442 0.619611 1.57662 0
M  V30 2076 O 205.648 0.801457 1.61173 0
M  V30 2077 H 202.023 0.554141 0.508362 0
M  V30 2078 H 203.994 2.68389 1.30422 0
M  V30 2079 C 202.743 1.91262 2.90369 0
M  V30 2080 H 202.066 2.77872 2.8745 0
M  V30 2081 H 203.506 2.11581 3.67436 0
M  V30 2082 C 201.965 0.677431 3.30019 0
M  V30 2083 O 202.495 -0.158799 4.01386 0
M  V30 2084 N 200.701 0.515851 2.85985 0
M  V30 2085 H 200.248 1.19744 2.28077 0
M  V30 2086 H 200.206 -0.309315 3.12875 0
M  V30 2087 N 203.978 -0.674533 1.42435 0
M  V30 2088 C 205.226 -1.43175 1.42637 0
M  V30 2089 C 205.547 -1.94951 0.0438992 0
M  V30 2090 O 204.817 -1.7308 -0.917607 0
M  V30 2091 H 203.397 -0.531307 0.525092 0
M  V30 2092 H 206.059 -0.797006 1.77859 0
M  V30 2093 H 205.155 -2.28463 2.12629 0
M  V30 2094 N 205.456 -1.28612 -0.910864 0
M  V30 2095 C 206.419 -1.12803 -1.9952 0
M  V30 2096 C 207.419 -0.0668264 -1.60661 0
M  V30 2097 O 208.609 -0.312847 -1.71368 0
M  V30 2098 C 205.741 -0.72254 -3.33155 0
M  V30 2099 H 206.934 -2.09109 -2.14973 0
M  V30 2100 H 204.487 -1.11639 -1.09391 0
M  V30 2101 H 205.222 0.241152 -3.23402 0
M  V30 2102 H 205.007 -1.48916 -3.62721 0
M  V30 2103 H 206.497 -0.634666 -4.12749 0
M  V30 2104 N 206.934 1.1197 -1.10907 0
M  V30 2105 C 208.182 1.83225 -0.852819 0
M  V30 2106 C 208.503 1.84769 0.623341 0
M  V30 2107 O 207.773 1.3143 1.45269 0
M  V30 2108 H 206.353 0.67849 -0.312507 0
M  V30 2109 H 209.015 1.3556 -1.40033 0
M  V30 2110 H 208.111 2.87265 -1.22005 0
M  V30 2111 N 208.412 0.89855 1.29475 0
M  V30 2112 C 209.345 0.319981 2.25945 0
M  V30 2113 C 210.323 -0.567189 1.52387 0
M  V30 2114 O 211.507 -0.514254 1.8135 0
M  V30 2115 C 208.634 -0.544013 3.34303 0
M  V30 2116 C 207.68 0.275682 4.25608 0
M  V30 2117 S 208.513 1.67272 5.08704 0
M  V30 2118 C 209.669 0.815621 6.20563 0
M  V30 2119 H 209.902 1.13767 2.74671 0
M  V30 2120 H 207.435 0.69882 1.3768 0
M  V30 2121 H 209.393 -1.03673 3.97193 0
M  V30 2122 H 208.054 -1.33593 2.84274 0
M  V30 2123 H 207.247 -0.384263 5.02533 0
M  V30 2124 H 206.849 0.701496 3.67362 0
M  V30 2125 H 209.141 0.0385042 6.77489 0
M  V30 2126 H 210.084 1.55691 6.90772 0
M  V30 2127 H 210.492 0.370516 5.63283 0
M  V30 2128 N 209.89 -1.43072 0.660911 0
M  V30 2129 C 211.136 -2.0202 0.177708 0
M  V30 2130 C 211.469 -1.52066 -1.20787 0
M  V30 2131 O 210.744 -0.716987 -1.80802 0
M  V30 2132 C 211.027 -3.59561 0.197019 0
M  V30 2133 C 210.88 -4.19727 1.61706 0
M  V30 2134 C 212.199 -4.37664 -0.462396 0
M  V30 2135 H 209.318 -0.734034 0.0660494 0
M  V30 2136 H 211.96 -1.70272 0.843058 0
M  V30 2137 H 210.11 -3.86739 -0.369527 0
M  V30 2138 H 211.782 -4.03553 2.23479 0
M  V30 2139 H 210.025 -3.76084 2.16201 0
M  V30 2140 H 210.696 -5.28834 1.58237 0
M  V30 2141 H 213.172 -4.16095 0.0197215 0
M  V30 2142 H 212.048 -5.47305 -0.418188 0
M  V30 2143 H 212.309 -4.14493 -1.53778 0
M  V30 2144 N 211.368 -0.403325 -1.52352 0
M  V30 2145 C 212.331 0.413051 -2.25447 0
M  V30 2146 C 213.331 0.978513 -1.276 0
M  V30 2147 O 214.521 0.858305 -1.51587 0
M  V30 2148 C 211.653 1.58087 -3.02029 0
M  V30 2149 H 212.846 -0.227094 -2.99039 0
M  V30 2150 H 210.399 -0.155722 -1.55522 0
M  V30 2151 H 211.134 2.25804 -2.32772 0
M  V30 2152 H 210.919 1.18195 -3.73861 0
M  V30 2153 H 212.409 2.1585 -3.57489 0
M  V30 2154 N 212.846 1.57033 -0.133567 0
M  V30 2155 C 214.257 1.82593 0.389464 0
M  V30 2156 C 214.608 1.05156 1.6564 0
M  V30 2157 O 213.733 0.292644 2.14412 0
M  V30 2158 C 214.328 3.31204 0.713377 0
M  V30 2159 C 212.887 3.57393 1.18098 0
M  V30 2160 C 212.034 2.76598 0.197126 0
M  V30 2161 H 214.985 1.54598 -0.358481 0
M  V30 2162 H 215.006 3.46627 1.56939 0
M  V30 2163 H 214.518 3.87537 -0.2089 0
M  V30 2164 H 212.619 3.06433 2.11966 0
M  V30 2165 H 212.732 4.65915 1.11624 0
M  V30 2166 H 211.096 2.45257 0.687088 0
M  V30 2167 H 211.879 3.35697 -0.718504 0
M  V30 2168 N 214.325 -0.140222 1.56975 0
M  V30 2169 C 215.288 -1.15689 1.97861 0
M  V30 2170 C 216.288 -1.3549 0.865974 0
M  V30 2171 O 217.478 -1.32367 1.13246 0
M  V30 2172 C 214.61 -2.51582 2.30042 0
M  V30 2173 H 215.803 -0.805971 2.88867 0
M  V30 2174 H 213.356 -0.383801 1.51515 0
M  V30 2175 H 214.091 -2.91632 1.41849 0
M  V30 2176 H 213.876 -2.38569 3.11171 0
M  V30 2177 H 215.366 -3.24792 2.62488 0
M  V30 2178 N 215.803 -1.52179 -0.40978 0
M  V30 2179 C 217.049 -1.66453 -1.15851 0
M  V30 2180 C 217.382 -0.392972 -1.90182 0
M  V30 2181 O 216.657 0.608579 -1.84734 0
M  V30 2182 C 216.94 -2.88612 -2.15349 0
M  V30 2183 C 216.793 -4.25815 -1.44918 0
M  V30 2184 C 218.112 -3.06294 -3.16026 0
M  V30 2185 H 215.231 -0.60575 -0.419805 0
M  V30 2186 H 217.873 -1.84732 -0.444314 0
M  V30 2187 H 216.023 -2.73158 -2.76255 0
M  V30 2188 H 217.695 -4.52995 -0.871365 0
M  V30 2189 H 215.938 -4.27247 -0.751159 0
M  V30 2190 H 216.609 -5.07337 -2.17516 0
M  V30 2191 H 219.085 -3.20641 -2.65195 0
M  V30 2192 H 217.961 -3.93283 -3.8291 0
M  V30 2193 H 218.222 -2.19579 -3.83715 0
M  V30 2194 N 217.281 0.66697 -1.42791 0
M  V30 2195 C 218.244 1.76211 -1.46568 0
M  V30 2196 C 219.244 1.56896 -0.352196 0
M  V30 2197 O 220.434 1.63044 -0.613364 0
M  V30 2198 C 217.566 3.14935 -1.30494 0
M  V30 2199 H 218.759 1.74247 -2.44086 0
M  V30 2200 H 216.312 0.877342 -1.29354 0
M  V30 2201 H 217.047 3.2252 -0.339301 0
M  V30 2202 H 216.832 3.30359 -2.11199 0
M  V30 2203 H 218.322 3.94821 -1.36038 0
M  V30 2204 N 218.759 1.29093 0.90403 0
M  V30 2205 C 219.984 1.19809 1.69294 0
M  V30 2206 C 220.409 -0.238481 1.86582 0
M  V30 2207 O 219.767 -1.1723 1.383 0
M  V30 2208 C 219.815 1.91202 3.05736 0
M  V30 2209 O 218.919 1.22611 3.93752 0
M  V30 2210 H 218.26 0.415385 0.518027 0
M  V30 2211 H 220.79 1.70586 1.12967 0
M  V30 2212 H 220.8 1.99487 3.55906 0
M  V30 2213 H 219.475 2.95692 2.92471 0
M  V30 2214 H 218.052 1.22554 3.52186 0
M  V30 2215 N 220.237 -1.11381 1.11499 0
M  V30 2216 C 221.483 -1.83403 0.865512 0
M  V30 2217 C 221.816 -1.84459 -0.607329 0
M  V30 2218 O 221.091 -1.29811 -1.44842 0
M  V30 2219 C 221.374 -3.30552 1.42855 0
M  V30 2220 C 221.227 -3.37886 2.96906 0
M  V30 2221 C 222.546 -4.26643 1.08 0
M  V30 2222 H 219.665 -0.665879 0.31587 0
M  V30 2223 H 222.307 -1.30601 1.37998 0
M  V30 2224 H 220.457 -3.75648 0.990985 0
M  V30 2225 H 222.129 -3.01343 3.49271 0
M  V30 2226 H 220.372 -2.78088 3.32941 0
M  V30 2227 H 221.043 -4.41458 3.31389 0
M  V30 2228 H 223.519 -3.89729 1.45775 0
M  V30 2229 H 222.395 -5.27986 1.50072 0
M  V30 2230 H 222.656 -4.42099 -0.00915037 0
M  V30 2231 N 221.715 -0.905404 -1.28997 0
M  V30 2232 C 222.678 -0.392253 -2.25819 0
M  V30 2233 C 223.678 0.476753 -1.5357 0
M  V30 2234 O 224.868 0.280994 -1.71919 0
M  V30 2235 C 222 0.438588 -3.38067 0
M  V30 2236 H 223.193 -1.24743 -2.72725 0
M  V30 2237 H 220.746 -0.684051 -1.40536 0
M  V30 2238 H 221.481 1.31352 -2.96508 0
M  V30 2239 H 221.266 -0.184167 -3.91667 0
M  V30 2240 H 222.756 0.78873 -4.10084 0
M  V30 2241 N 223.193 1.4272 -0.668489 0
M  V30 2242 C 224.441 2.01226 -0.187769 0
M  V30 2243 C 224.762 1.53092 1.2078 0
M  V30 2244 O 224.032 0.74993 1.80977 0
M  V30 2245 H 222.612 0.744041 -0.0664272 0
M  V30 2246 H 225.274 1.74723 -0.863583 0
M  V30 2247 H 224.37 3.11556 -0.184166 0
M  V30 2248 N 224.671 0.411399 1.52136 0
M  V30 2249 C 225.919 -0.163322 2.01439 0
M  V30 2250 C 226.24 -1.45453 1.29879 0
M  V30 2251 O 225.51 -1.91225 0.4254 0
M  V30 2252 H 224.09 -0.0633447 0.744309 0
M  V30 2253 H 226.752 0.548161 1.87033 0
M  V30 2254 H 225.848 -0.357817 3.10042 0
M  V30 2255 N 226.149 -1.5696 0.141893 0
M  V30 2256 C 227.374 -2.00754 -0.520838 0
M  V30 2257 C 227.799 -1.0213 -1.57959 0
M  V30 2258 O 227.157 0.00371324 -1.813 0
M  V30 2259 C 227.205 -3.43318 -1.10294 0
M  V30 2260 O 226.309 -3.47679 -2.21795 0
M  V30 2261 H 225.65 -0.651564 -0.127908 0
M  V30 2262 H 228.18 -2.03221 0.23712 0
M  V30 2263 H 228.19 -3.82012 -1.43287 0
M  V30 2264 H 226.865 -4.14608 -0.327574 0
M  V30 2265 H 225.442 -3.20824 -1.9007 0
M  V30 2266 N 227.627 0.131896 -1.57047 0
M  V30 2267 C 228.875 0.840269 -1.83804 0
M  V30 2268 C 229.196 1.81017 -0.72512 0
M  V30 2269 O 228.466 1.94272 0.251995 0
M  V30 2270 H 227.046 0.313294 -0.678127 0
M  V30 2271 H 229.708 0.122294 -1.94516 0
M  V30 2272 H 228.804 1.39335 -2.79271 0
M  V30 2273 N 229.106 1.52395 0.401703 0
M  V30 2274 C 230.331 1.70972 1.17403 0
M  V30 2275 C 230.756 0.421615 1.83314 0
M  V30 2276 O 230.114 -0.621564 1.70312 0
M  V30 2277 C 230.162 2.85151 2.20728 0
M  V30 2278 O 229.266 2.51238 3.27037 0
M  V30 2279 H 228.607 0.568927 0.342372 0
M  V30 2280 H 231.137 1.99131 0.469891 0
M  V30 2281 H 231.147 3.10279 2.64936 0
M  V30 2282 H 229.822 3.78603 1.7214 0
M  V30 2283 H 228.399 2.36808 2.88057 0
M  V30 2284 N 230.584 -0.659388 1.43143 0
M  V30 2285 C 231.832 -1.41654 1.44147 0
M  V30 2286 C 232.153 -1.94893 0.0645739 0
M  V30 2287 O 231.423 -1.74044 -0.899198 0
M  V30 2288 H 230.003 -0.525708 0.530697 0
M  V30 2289 H 232.665 -0.778097 1.78694 0
M  V30 2290 H 231.761 -2.26195 2.1504 0
M  V30 2291 N 232.062 -1.29571 -0.897171 0
M  V30 2292 C 233.31 -1.17456 -1.64464 0
M  V30 2293 C 233.631 0.273698 -1.9307 0
M  V30 2294 O 232.901 1.18684 -1.55855 0
M  V30 2295 H 231.481 -0.431706 -0.609622 0
M  V30 2296 H 234.143 -1.62531 -1.07562 0
M  V30 2297 H 233.239 -1.72648 -2.59998 0
M  V30 2298 N 233.54 1.10788 -1.12088 0
M  V30 2299 C 234.787 1.82671 -0.873931 0
M  V30 2300 C 235.115 1.85004 0.600311 0
M  V30 2301 O 234.37 1.30365 1.45957 0
M  V30 2302 C 234.669 3.29294 -1.38926 0
M  V30 2303 C 234.335 3.47113 -2.87791 0
M  V30 2304 C 232.997 3.51684 -3.28439 0
M  V30 2305 C 235.349 3.52808 -3.83635 0
M  V30 2306 C 232.677 3.59513 -4.63646 0
M  V30 2307 C 235.029 3.62169 -5.18668 0
M  V30 2308 C 233.693 3.65003 -5.58864 0
M  V30 2309 H 232.963 0.668441 -0.319794 0
M  V30 2310 H 235.61 1.30613 -1.40045 0
M  V30 2311 H 233.915 3.83894 -0.783122 0
M  V30 2312 H 235.612 3.83416 -1.17443 0
M  V30 2313 H 232.202 3.4423 -2.5535 0
M  V30 2314 H 236.386 3.4853 -3.53328 0
M  V30 2315 H 231.642 3.59987 -4.94185 0
M  V30 2316 H 235.816 3.6552 -5.92763 0
M  V30 2317 H 233.443 3.70822 -6.63623 0
M  V30 2318 N 235.018 0.912232 1.28515 0
M  V30 2319 C 236.243 0.559774 1.99703 0
M  V30 2320 C 236.668 -0.851393 1.67729 0
M  V30 2321 O 236.026 -1.56875 0.908834 0
M  V30 2322 C 236.074 0.773874 3.52198 0
M  V30 2323 O 235.178 -0.167842 4.12058 0
M  V30 2324 H 234.519 0.21723 0.627461 0
M  V30 2325 H 237.049 1.22725 1.63706 0
M  V30 2326 H 237.059 0.683386 4.02236 0
M  V30 2327 H 235.734 1.80261 3.74805 0
M  V30 2328 H 234.311 -0.0287509 3.72889 0
M  V30 2329 N 236.496 -1.42363 0.676048 0
M  V30 2330 C 237.459 -2.29199 0.00766941 0
M  V30 2331 C 238.459 -1.43389 -0.727745 0
M  V30 2332 O 239.649 -1.64764 -0.56556 0
M  V30 2333 C 236.781 -3.2591 -0.999785 0
M  V30 2334 H 237.974 -2.89794 0.771988 0
M  V30 2335 H 235.527 -1.50024 0.438468 0
M  V30 2336 H 236.262 -2.70256 -1.79255 0
M  V30 2337 H 236.047 -3.89202 -0.475829 0
M  V30 2338 H 237.537 -3.91028 -1.46583 0
M  V30 2339 N 237.974 -0.419461 -1.51915 0
M  V30 2340 C 239.199 0.154572 -2.06823 0
M  V30 2341 C 239.624 1.3722 -1.28656 0
M  V30 2342 O 238.982 1.78461 -0.319583 0
M  V30 2343 C 239.03 0.473172 -3.57482 0
M  V30 2344 O 238.134 1.56255 -3.81652 0
M  V30 2345 H 237.475 0.0096924 -0.663929 0
M  V30 2346 H 240.005 -0.595642 -1.95738 0
M  V30 2347 H 240.015 0.728825 -4.01438 0
M  V30 2348 H 238.69 -0.416873 -4.13805 0
M  V30 2349 H 237.267 1.29825 -3.49571 0
M  V30 2350 N 239.452 1.56882 -0.150215 0
M  V30 2351 C 240.382 2.19935 0.784284 0
M  V30 2352 C 241.363 1.14854 1.25469 0
M  V30 2353 O 242.548 1.43209 1.31168 0
M  V30 2354 C 239.678 2.82349 2.02229 0
M  V30 2355 C 238.632 3.93285 1.68853 0
M  V30 2356 C 237.958 4.42649 2.99944 0
M  V30 2357 C 239.258 5.13904 0.932714 0
M  V30 2358 H 240.952 2.9828 0.258781 0
M  V30 2359 H 238.498 1.43473 0.123029 0
M  V30 2360 H 240.451 3.25126 2.68088 0
M  V30 2361 H 239.175 2.0134 2.57157 0
M  V30 2362 H 237.834 3.5113 1.05371 0
M  V30 2363 H 237.482 3.58458 3.52869 0
M  V30 2364 H 237.182 5.17476 2.78374 0
M  V30 2365 H 238.706 4.88099 3.66868 0
M  V30 2366 H 240.12 5.53506 1.49345 0
M  V30 2367 H 238.517 5.94515 0.81684 0
M  V30 2368 H 239.587 4.84842 -0.0749568 0
M  V30 2369 N 240.93 -0.123565 1.57115 0
M  V30 2370 C 241.88 -1.1575 1.96433 0
M  V30 2371 C 242.864 -1.37313 0.838686 0
M  V30 2372 O 244.056 -1.38482 1.10235 0
M  V30 2373 C 241.185 -2.48526 2.36833 0
M  V30 2374 C 240.271 -2.30457 3.5602 0
M  V30 2375 N 240.662 -1.8219 4.71848 0
M  V30 2376 C 238.96 -2.61129 3.61563 0
M  V30 2377 C 239.661 -1.77721 5.53886 0
M  V30 2378 N 238.637 -2.21899 4.96248 0
M  V30 2379 H 242.439 -0.776797 2.83449 0
M  V30 2380 H 239.953 -0.331364 1.58983 0
M  V30 2381 H 241.95 -3.233 2.63216 0
M  V30 2382 H 240.61 -2.87358 1.5118 0
M  V30 2383 H 241.621 -1.51805 4.95152 0
M  V30 2384 H 238.298 -3.03678 2.86507 0
M  V30 2385 H 239.688 -1.41697 6.56789 0
M  V30 2386 N 242.408 -1.52605 -0.393616 0
M  V30 2387 C 243.633 -1.71592 -1.16495 0
M  V30 2388 C 244.058 -0.43133 -1.83088 0
M  V30 2389 O 243.416 0.612523 -1.7064 0
M  V30 2390 C 243.464 -2.86318 -2.19213 0
M  V30 2391 O 242.568 -2.52969 -3.257 0
M  V30 2392 H 241.909 -0.570734 -0.33935 0
M  V30 2393 H 244.439 -1.99377 -0.459324 0
M  V30 2394 H 244.449 -3.1168 -2.63286 0
M  V30 2395 H 243.124 -3.79511 -1.7013 0
M  V30 2396 H 241.701 -2.38332 -2.86797 0
M  V30 2397 N 243.887 0.651787 -1.4349 0
M  V30 2398 C 244.797 1.79368 -1.5121 0
M  V30 2399 C 245.813 1.69361 -0.399093 0
M  V30 2400 O 246.989 1.90505 -0.653431 0
M  V30 2401 C 244.054 3.15653 -1.43401 0
M  V30 2402 C 243.115 3.37446 -2.65384 0
M  V30 2403 C 242.348 4.67229 -2.57939 0
M  V30 2404 O 242.571 5.46676 -1.62792 0
M  V30 2405 O 241.505 4.90773 -3.48462 0
M  V30 2406 H 245.331 1.7581 -2.47638 0
M  V30 2407 H 242.916 0.810447 -1.25507 0
M  V30 2408 H 244.798 3.96935 -1.41494 0
M  V30 2409 H 243.473 3.19798 -0.501085 0
M  V30 2410 H 242.38 2.55923 -2.72863 0
M  V30 2411 H 243.713 3.38148 -3.57654 0
M  V30 2412 N 245.365 1.30045 0.890287 0
M  V30 2413 C 246.776 1.16738 1.45702 0
M  V30 2414 C 247.127 -0.233939 1.948 0
M  V30 2415 O 246.252 -1.13021 1.84541 0
M  V30 2416 C 246.847 2.11313 2.64825 0
M  V30 2417 C 245.406 2.02001 3.17604 0
M  V30 2418 C 244.553 2.01699 1.90296 0
M  V30 2419 H 247.504 1.42392 0.700726 0
M  V30 2420 H 247.525 1.69086 3.40867 0
M  V30 2421 H 247.037 3.13294 2.2906 0
M  V30 2422 H 245.138 1.03142 3.5804 0
M  V30 2423 H 245.251 2.90128 3.81264 0
M  V30 2424 H 243.615 1.46427 2.08402 0
M  V30 2425 H 244.398 3.05402 1.56795 0
M  V30 2426 N 246.843 -1.10192 1.12674 0
M  V30 2427 C 248.254 -1.63707 0.897604 0
M  V30 2428 C 248.605 -1.87812 -0.567546 0
M  V30 2429 O 247.73 -1.62196 -1.43253 0
M  V30 2430 C 248.325 -2.974 1.62292 0
M  V30 2431 C 246.884 -3.47772 1.43986 0
M  V30 2432 C 246.031 -2.22332 1.65722 0
M  V30 2433 H 248.982 -0.936587 1.28116 0
M  V30 2434 H 249.003 -3.64986 1.07541 0
M  V30 2435 H 248.515 -2.79824 2.68924 0
M  V30 2436 H 246.616 -3.70487 0.396206 0
M  V30 2437 H 246.729 -4.25723 2.19765 0
M  V30 2438 H 245.093 -2.30599 1.08149 0
M  V30 2439 H 245.876 -2.07285 2.73657 0
M  V30 2440 N 248.321 -0.919034 -1.28029 0
M  V30 2441 C 249.567 -0.555757 -1.95036 0
M  V30 2442 C 249.9 0.899198 -1.72128 0
M  V30 2443 O 249.175 1.64023 -1.04531 0
M  V30 2444 C 249.458 -0.872024 -3.49382 0
M  V30 2445 C 249.311 -2.3801 -3.81669 0
M  V30 2446 C 250.63 -0.37185 -4.38526 0
M  V30 2447 H 247.749 -0.203386 -0.708381 0
M  V30 2448 H 250.391 -1.14924 -1.51303 0
M  V30 2449 H 248.541 -0.366946 -3.86763 0
M  V30 2450 H 250.213 -2.9562 -3.54128 0
M  V30 2451 H 248.456 -2.83289 -3.28526 0
M  V30 2452 H 249.127 -2.55192 -4.8947 0
M  V30 2453 H 251.603 -0.804602 -4.08247 0
M  V30 2454 H 250.479 -0.622173 -5.45362 0
M  V30 2455 H 250.74 0.727934 -4.36066 0
M  V30 2456 N 249.799 1.42003 -0.683588 0
M  V30 2457 C 251.029 2.05448 -0.217866 0
M  V30 2458 C 251.437 1.51491 1.13346 0
M  V30 2459 O 250.78 0.653048 1.717 0
M  V30 2460 C 250.842 3.59399 -0.0850118 0
M  V30 2461 C 250.506 4.36093 -1.36645 0
M  V30 2462 C 251.503 4.66169 -2.30179 0
M  V30 2463 C 249.188 4.75578 -1.61649 0
M  V30 2464 C 251.182 5.34676 -3.46988 0
M  V30 2465 C 248.869 5.43824 -2.78745 0
M  V30 2466 C 249.867 5.73299 -3.71238 0
M  V30 2467 O 249.555 6.40142 -4.86285 0
M  V30 2468 H 249.287 0.668344 -0.101454 0
M  V30 2469 H 251.841 1.82974 -0.933248 0
M  V30 2470 H 250.071 3.80566 0.686031 0
M  V30 2471 H 251.76 4.04457 0.341973 0
M  V30 2472 H 252.526 4.36156 -2.12115 0
M  V30 2473 H 248.405 4.52025 -0.905243 0
M  V30 2474 H 251.949 5.57599 -4.19201 0
M  V30 2475 H 247.846 5.73254 -2.96732 0
M  V30 2476 H 248.614 6.58636 -4.85944 0
M  V30 2477 N 251.277 0.427512 1.51691 0
M  V30 2478 C 252.24 -0.377132 2.26076 0
M  V30 2479 C 253.24 -0.958089 1.29141 0
M  V30 2480 O 254.43 -0.83408 1.52934 0
M  V30 2481 C 251.562 -1.53262 3.04506 0
M  V30 2482 H 252.755 0.27464 2.9864 0
M  V30 2483 H 250.308 0.180445 1.55255 0
M  V30 2484 H 251.043 -2.22072 2.36335 0
M  V30 2485 H 250.828 -1.12232 3.75694 0
M  V30 2486 H 252.318 -2.10135 3.60878 0
M  V30 2487 N 252.755 -1.56801 0.158532 0
M  V30 2488 C 253.703 -2.18638 -0.793729 0
M  V30 2489 C 254.697 -1.14669 -1.24689 0
M  V30 2490 O 255.903 -1.32895 -1.21403 0
M  V30 2491 H 252.278 -0.700226 -0.274204 0
M  V30 2492 H 254.249 -2.97367 -0.248095 0
M  V30 2493 C 252.998 -2.83139 -2.0181 0
M  V30 2494 H 252.321 -3.62863 -1.67841 0
M  V30 2495 H 253.761 -3.29894 -2.66357 0
M  V30 2496 C 252.22 -1.82244 -2.83353 0
M  V30 2497 O 252.75 -1.3 -3.80083 0
M  V30 2498 N 250.956 -1.51288 -2.48114 0
M  V30 2499 H 250.503 -1.93964 -1.69516 0
M  V30 2500 H 250.461 -0.840296 -3.02963 0
M  V30 2501 N 254.233 0.115231 -1.57178 0
M  V30 2502 C 255.163 1.1423 -2.03651 0
M  V30 2503 C 256.144 1.42967 -0.921655 0
M  V30 2504 O 257.329 1.53343 -1.19162 0
M  V30 2505 C 254.459 2.4675 -2.44401 0
M  V30 2506 C 253.413 2.32467 -3.59365 0
M  V30 2507 C 252.739 3.69984 -3.86026 0
M  V30 2508 C 254.039 1.78203 -4.90959 0
M  V30 2509 H 255.733 0.755749 -2.89705 0
M  V30 2510 H 253.279 0.362093 -1.39373 0
M  V30 2511 H 255.232 3.18854 -2.75517 0
M  V30 2512 H 253.956 2.87302 -1.55322 0
M  V30 2513 H 252.615 1.62811 -3.28463 0
M  V30 2514 H 252.263 4.08028 -2.94147 0
M  V30 2515 H 251.963 3.61279 -4.63412 0
M  V30 2516 H 253.487 4.43587 -4.19599 0
M  V30 2517 H 254.901 2.40128 -5.20587 0
M  V30 2518 H 253.298 1.8031 -5.72371 0
M  V30 2519 H 254.368 0.739876 -4.79222 0
M  V30 2520 N 255.711 1.52812 0.385517 0
M  V30 2521 C 256.936 1.72207 1.15583 0
M  V30 2522 C 257.361 0.441034 1.82857 0
M  V30 2523 O 256.719 -0.603465 1.70962 0
M  V30 2524 C 256.767 2.87476 2.17692 0
M  V30 2525 O 255.871 2.54693 3.24354 0
M  V30 2526 H 255.212 0.572526 0.336319 0
M  V30 2527 H 257.742 1.99618 0.448744 0
M  V30 2528 H 257.752 3.13072 2.6163 0
M  V30 2529 H 256.427 3.80408 1.68115 0
M  V30 2530 H 255.004 2.3985 2.85529 0
M  V30 2531 N 257.189 -0.644168 1.43834 0
M  V30 2532 C 258.137 -1.77793 1.49974 0
M  V30 2533 C 259.131 -1.65253 0.372536 0
M  V30 2534 O 260.337 -1.7149 0.546924 0
M  V30 2535 H 256.712 -0.58675 0.47035 0
M  V30 2536 H 258.683 -1.69736 2.45423 0
M  V30 2537 C 257.432 -3.16087 1.4486 0
M  V30 2538 H 256.755 -3.26378 2.30905 0
M  V30 2539 H 258.195 -3.95349 1.53217 0
M  V30 2540 C 256.654 -3.36484 0.167463 0
M  V30 2541 O 257.184 -3.94298 -0.767609 0
M  V30 2542 N 255.39 -2.90504 0.0747556 0
M  V30 2543 H 254.937 -2.4364 0.836507 0
M  V30 2544 H 254.895 -3.04527 -0.781714 0
M  V30 2545 N 258.668 -1.30515 -0.883378 0
M  V30 2546 C 259.915 -1.1943 -1.63532 0
M  V30 2547 C 260.243 0.250627 -1.92878 0
M  V30 2548 O 259.498 1.19556 -1.54935 0
M  V30 2549 C 259.797 -1.96994 -2.98209 0
M  V30 2550 C 259.463 -3.466 -2.88408 0
M  V30 2551 C 258.125 -3.87397 -2.85442 0
M  V30 2552 C 260.477 -4.41863 -2.76418 0
M  V30 2553 C 257.805 -5.21745 -2.68327 0
M  V30 2554 C 260.157 -5.7632 -2.60841 0
M  V30 2555 C 258.821 -6.16354 -2.56251 0
M  V30 2556 H 258.091 -0.437025 -0.598406 0
M  V30 2557 H 260.738 -1.61635 -1.02696 0
M  V30 2558 H 259.043 -1.47429 -3.63004 0
M  V30 2559 H 260.74 -1.85808 -3.55354 0
M  V30 2560 H 257.33 -3.14182 -2.91527 0
M  V30 2561 H 261.514 -4.11285 -2.77775 0
M  V30 2562 H 256.77 -5.51853 -2.63189 0
M  V30 2563 H 260.944 -6.49772 -2.50538 0
M  V30 2564 H 258.571 -7.20401 -2.42748 0
M  V30 2565 N 260.146 1.09593 -1.13257 0
M  V30 2566 C 261.094 2.18271 -0.803783 0
M  V30 2567 C 262.088 1.68054 0.213148 0
M  V30 2568 O 263.294 1.79862 0.0704699 0
M  V30 2569 H 259.669 0.711949 -0.242143 0
M  V30 2570 H 261.64 2.43235 -1.72856 0
M  V30 2571 C 260.389 3.46536 -0.28424 0
M  V30 2572 H 259.712 3.85545 -1.05807 0
M  V30 2573 H 261.152 4.23899 -0.0925945 0
M  V30 2574 C 259.611 3.22036 0.989684 0
M  V30 2575 O 260.141 3.44509 2.06584 0
M  V30 2576 N 258.347 2.7565 0.920086 0
M  V30 2577 H 257.894 2.57562 0.0442019 0
M  V30 2578 H 257.852 2.59635 1.77306 0
M  V30 2579 N 261.624 0.925811 1.2754 0
M  V30 2580 C 263.035 0.610102 1.7645 0
M  V30 2581 C 263.386 -0.874723 1.75622 0
M  V30 2582 O 262.511 -1.68444 1.35851 0
M  V30 2583 C 263.106 1.10073 3.20421 0
M  V30 2584 C 261.665 0.835723 3.67005 0
M  V30 2585 C 260.812 1.26054 2.46993 0
M  V30 2586 H 263.763 1.10579 1.13833 0
M  V30 2587 H 263.784 0.447557 3.77859 0
M  V30 2588 H 263.296 2.18143 3.20991 0
M  V30 2589 H 261.397 -0.231249 3.71882 0
M  V30 2590 H 261.51 1.45193 4.56569 0
M  V30 2591 H 259.874 0.679111 2.45479 0
M  V30 2592 H 260.657 2.34984 2.50275 0
M  V30 2593 N 263.102 -1.41638 0.69111 0
M  V30 2594 C 264.35 -2.00902 0.219758 0
M  V30 2595 C 264.671 -1.54994 -1.18329 0
M  V30 2596 O 263.941 -0.778628 -1.79762 0
M  V30 2597 H 262.521 -0.74289 0.0782558 0
M  V30 2598 H 265.183 -1.73327 0.891271 0
M  V30 2599 H 264.279 -3.11224 0.233708 0
M  V30 2600 N 264.58 -0.43555 -1.51462 0
M  V30 2601 C 265.543 0.365137 -2.26273 0
M  V30 2602 C 266.543 0.951227 -1.29647 0
M  V30 2603 O 267.733 0.825958 -1.53374 0
M  V30 2604 C 264.865 1.51645 -3.05314 0
M  V30 2605 H 266.058 -0.290474 -2.9849 0
M  V30 2606 H 263.611 -0.188676 -1.55157 0
M  V30 2607 H 264.346 2.20816 -2.3751 0
M  V30 2608 H 264.131 1.10238 -3.76284 0
M  V30 2609 H 265.621 2.08218 -3.61987 0
M  V30 2610 N 266.058 1.56714 -0.166846 0
M  V30 2611 C 266.988 2.20754 0.760913 0
M  V30 2612 C 267.969 1.16178 1.24244 0
M  V30 2613 O 269.154 1.44592 1.29641 0
M  V30 2614 C 266.284 2.84478 1.99223 0
M  V30 2615 C 265.238 3.95053 1.64672 0
M  V30 2616 C 264.564 4.45805 2.95232 0
M  V30 2617 C 265.864 5.14865 0.878155 0
M  V30 2618 H 267.558 2.98537 0.22713 0
M  V30 2619 H 265.104 1.43596 0.107805 0
M  V30 2620 H 267.057 3.27951 2.64624 0
M  V30 2621 H 265.781 2.04056 2.55007 0
M  V30 2622 H 264.44 3.52228 1.01641 0
M  V30 2623 H 264.088 3.62181 3.49047 0
M  V30 2624 H 263.788 5.204 2.7287 0
M  V30 2625 H 265.312 4.91962 3.6167 0
M  V30 2626 H 266.726 5.55059 1.43466 0
M  V30 2627 H 265.123 5.95348 0.753738 0
M  V30 2628 H 266.193 4.84735 -0.126377 0
M  V30 2629 N 267.536 -0.106894 1.57237 0
M  V30 2630 C 268.761 -0.830287 1.90055 0
M  V30 2631 C 269.186 -1.72064 0.75998 0
M  V30 2632 O 268.544 -1.78982 -0.288991 0
M  V30 2633 C 268.592 -1.6295 3.21683 0
M  V30 2634 O 267.696 -2.73748 3.08441 0
M  V30 2635 H 267.037 -0.228855 0.623315 0
M  V30 2636 H 269.567 -0.085658 2.04421 0
M  V30 2637 H 269.577 -2.01621 3.54701 0
M  V30 2638 H 268.252 -0.975989 4.04286 0
M  V30 2639 H 266.829 -2.38192 2.86913 0
M  V30 2640 N 269.014 -1.53014 -0.377408 0
M  V30 2641 C 270.239 -1.72818 -1.14668 0
M  V30 2642 C 270.664 -0.450725 -1.8262 0
M  V30 2643 O 270.022 0.59439 -1.7128 0
M  V30 2644 C 270.07 -2.88627 -2.16164 0
M  V30 2645 O 269.174 -2.56409 -3.22998 0
M  V30 2646 H 268.515 -0.574301 -0.333278 0
M  V30 2647 H 271.045 -1.99853 -0.438152 0
M  V30 2648 H 271.055 -3.14455 -2.59966 0
M  V30 2649 H 269.73 -3.81294 -1.66095 0
M  V30 2650 H 268.307 -2.4136 -2.84253 0
M  V30 2651 N 270.492 0.636531 -1.44174 0
M  V30 2652 C 271.74 1.39343 -1.46383 0
M  V30 2653 C 272.061 1.94766 -0.0955715 0
M  V30 2654 O 271.331 1.75452 0.871395 0
M  V30 2655 H 269.911 0.517199 -0.538994 0
M  V30 2656 H 272.573 0.74957 -1.7991 0
M  V30 2657 H 271.669 2.22746 -2.18611 0
M  V30 2658 N 271.97 1.30982 0.876444 0
M  V30 2659 C 273.218 1.20058 1.62575 0
M  V30 2660 C 273.539 -0.242947 1.93481 0
M  V30 2661 O 272.809 -1.1619 1.57724 0
M  V30 2662 H 271.389 0.44135 0.602677 0
M  V30 2663 H 274.051 1.64222 1.04962 0
M  V30 2664 H 273.147 1.76762 2.57219 0
M  V30 2665 N 273.449 -1.08991 1.13837 0
M  V30 2666 C 274.697 -1.80899 0.901098 0
M  V30 2667 C 275.018 -1.86356 -0.574134 0
M  V30 2668 O 274.288 -1.35235 -1.41733 0
M  V30 2669 H 272.868 -0.669966 0.330386 0
M  V30 2670 H 275.53 -1.318 1.43578 0
M  V30 2671 H 274.626 -2.83929 1.29578 0
M  V30 2672 N 274.927 -0.932562 -1.27047 0
M  V30 2673 C 275.89 -0.440064 -2.24936 0
M  V30 2674 C 276.89 0.444071 -1.54547 0
M  V30 2675 O 278.08 0.244465 -1.72476 0
M  V30 2676 C 275.212 0.36678 -3.38921 0
M  V30 2677 H 276.405 -1.305 -2.70018 0
M  V30 2678 H 273.958 -0.713707 -1.39054 0
M  V30 2679 H 274.693 1.25033 -2.99228 0
M  V30 2680 H 274.478 -0.267204 -3.91188 0
M  V30 2681 H 275.968 0.701567 -4.11665 0
M  V30 2682 N 276.405 1.4127 -0.698611 0
M  V30 2683 C 277.816 1.84187 -0.305289 0
M  V30 2684 C 278.167 1.58449 1.15708 0
M  V30 2685 O 277.292 1.05651 1.88856 0
M  V30 2686 C 277.887 3.3435 -0.547314 0
M  V30 2687 C 276.446 3.75826 -0.207878 0
M  V30 2688 C 275.593 2.64647 -0.828099 0
M  V30 2689 H 278.544 1.30778 -0.89904 0
M  V30 2690 H 278.565 3.8001 0.192998 0
M  V30 2691 H 278.077 3.53051 -1.61172 0
M  V30 2692 H 276.178 3.62725 0.852143 0
M  V30 2693 H 276.291 4.74462 -0.665021 0
M  V30 2694 H 274.655 2.53395 -0.257458 0
M  V30 2695 H 275.438 2.86165 -1.89643 0
M  V30 2696 N 277.883 0.443576 1.51229 0
M  V30 2697 C 279.108 -0.121648 2.07043 0
M  V30 2698 C 279.533 -1.35156 1.30823 0
M  V30 2699 O 278.891 -1.7793 0.347934 0
M  V30 2700 C 278.939 -0.41624 3.5819 0
M  V30 2701 O 278.043 -1.50163 3.8409 0
M  V30 2702 H 277.384 0.000871367 0.663999 0
M  V30 2703 H 279.914 0.626706 1.94765 0
M  V30 2704 H 279.924 -0.664867 4.02546 0
M  V30 2705 H 278.599 0.482653 4.1309 0
M  V30 2706 H 277.176 -1.24248 3.51592 0
M  V30 2707 N 279.361 -1.56624 0.175154 0
M  V30 2708 C 280.591 -2.01082 -0.474283 0
M  V30 2709 C 280.999 -1.05447 -1.57091 0
M  V30 2710 O 280.342 -0.0480595 -1.83637 0
M  V30 2711 C 280.404 -3.41963 -1.10911 0
M  V30 2712 C 280.068 -4.56742 -0.153666 0
M  V30 2713 C 281.065 -5.16076 0.629448 0
M  V30 2714 C 278.75 -5.02277 -0.0483776 0
M  V30 2715 C 280.744 -6.19377 1.50501 0
M  V30 2716 C 278.431 -6.05427 0.830768 0
M  V30 2717 C 279.429 -6.63849 1.60605 0
M  V30 2718 O 279.117 -7.64998 2.47049 0
M  V30 2719 H 278.849 -0.664261 -0.125432 0
M  V30 2720 H 281.403 -2.03549 0.275163 0
M  V30 2721 H 279.633 -3.36422 -1.90676 0
M  V30 2722 H 281.322 -3.70352 -1.66114 0
M  V30 2723 H 282.088 -4.81776 0.558297 0
M  V30 2724 H 277.967 -4.56513 -0.641611 0
M  V30 2725 H 281.511 -6.64906 2.1106 0
M  V30 2726 H 277.408 -6.39151 0.903107 0
M  V30 2727 H 278.176 -7.82336 2.40607 0
M  V30 2728 N 280.839 0.0985539 -1.57292 0
M  V30 2729 C 282.087 0.801092 -1.85545 0
M  V30 2730 C 282.408 1.79438 -0.763353 0
M  V30 2731 O 281.678 1.94763 0.21073 0
M  V30 2732 H 280.258 0.29884 -0.684619 0
M  V30 2733 H 282.92 0.0810064 -1.94732 0
M  V30 2734 H 282.016 1.3338 -2.82163 0
M  V30 2735 N 282.317 1.53212 0.369288 0
M  V30 2736 C 283.28 1.7872 1.43498 0
M  V30 2737 C 284.28 0.657554 1.46741 0
M  V30 2738 O 285.47 0.925736 1.47566 0
M  V30 2739 C 282.602 1.90591 2.82645 0
M  V30 2740 H 283.795 2.73894 1.22156 0
M  V30 2741 H 281.348 1.44233 0.602203 0
M  V30 2742 H 282.083 0.974709 3.09306 0
M  V30 2743 H 281.868 2.72751 2.8169 0
M  V30 2744 H 283.358 2.11931 3.59826 0
M  V30 2745 N 283.795 -0.628877 1.44509 0
M  V30 2746 C 284.758 -1.72263 1.51188 0
M  V30 2747 C 285.758 -1.55907 0.39367 0
M  V30 2748 O 286.948 -1.61361 0.656377 0
M  V30 2749 C 284.08 -3.11365 1.38798 0
M  V30 2750 H 285.273 -1.67714 2.4862 0
M  V30 2751 H 282.826 -0.842737 1.31634 0
M  V30 2752 H 283.561 -3.21507 0.424693 0
M  V30 2753 H 283.346 -3.24644 2.19884 0
M  V30 2754 H 284.836 -3.91075 1.46458 0
M  V30 2755 N 285.273 -1.31445 -0.869486 0
M  V30 2756 C 286.521 -1.20918 -1.61936 0
M  V30 2757 C 286.842 0.232683 -1.93607 0
M  V30 2758 O 286.112 1.15352 -1.58338 0
M  V30 2759 H 284.692 -0.44454 -0.600328 0
M  V30 2760 H 287.354 -1.64776 -1.0409 0
M  V30 2761 H 286.45 -1.78124 -2.56278 0
M  V30 2762 N 286.751 1.08385 -1.14413 0
M  V30 2763 C 287.681 2.17321 -0.854044 0
M  V30 2764 C 288.662 1.69024 0.191049 0
M  V30 2765 O 289.847 1.94141 0.0476779 0
M  V30 2766 C 286.977 3.45719 -0.330983 0
M  V30 2767 C 285.931 4.07409 -1.31155 0
M  V30 2768 C 285.257 5.30762 -0.64778 0
M  V30 2769 C 286.557 4.48665 -2.67388 0
M  V30 2770 H 288.251 2.41845 -1.76498 0
M  V30 2771 H 285.797 1.16233 -0.850051 0
M  V30 2772 H 287.75 4.21241 -0.115645 0
M  V30 2773 H 286.474 3.2075 0.615381 0
M  V30 2774 H 285.133 3.33919 -1.51306 0
M  V30 2775 H 284.781 5.02078 0.304398 0
M  V30 2776 H 284.481 5.72992 -1.30207 0
M  V30 2777 H 286.005 6.08998 -0.441972 0
M  V30 2778 H 287.419 5.15364 -2.51143 0
M  V30 2779 H 285.816 5.01814 -3.29093 0
M  V30 2780 H 286.886 3.60543 -3.24248 0
M  V30 2781 N 288.23 0.939286 1.26551 0
M  V30 2782 C 289.193 0.451987 2.24699 0
M  V30 2783 C 290.193 -0.435869 1.5478 0
M  V30 2784 O 291.383 -0.235314 1.72603 0
M  V30 2785 C 288.515 -0.348801 3.39111 0
M  V30 2786 H 289.708 1.3193 2.69322 0
M  V30 2787 H 287.261 0.721072 1.38673 0
M  V30 2788 H 287.996 -1.23444 2.99887 0
M  V30 2789 H 287.781 0.287945 3.91041 0
M  V30 2790 H 289.271 -0.679726 4.12031 0
M  V30 2791 N 289.708 -1.40897 0.706093 0
M  V30 2792 C 290.955 -2.01054 0.241531 0
M  V30 2793 C 291.283 -1.55956 -1.16223 0
M  V30 2794 O 290.538 -0.766336 -1.80072 0
M  V30 2795 C 290.837 -3.5646 0.259099 0
M  V30 2796 C 290.503 -4.21106 1.61184 0
M  V30 2797 C 289.165 -4.38479 1.98216 0
M  V30 2798 C 291.517 -4.57256 2.50132 0
M  V30 2799 C 288.845 -4.89282 3.2376 0
M  V30 2800 C 291.197 -5.09454 3.7502 0
M  V30 2801 C 289.861 -5.25037 4.12181 0
M  V30 2802 H 289.131 -0.73571 0.0883825 0
M  V30 2803 H 291.778 -1.68645 0.907257 0
M  V30 2804 H 290.083 -3.88721 -0.490189 0
M  V30 2805 H 291.78 -4.00826 -0.11804 0
M  V30 2806 H 288.37 -4.07966 1.31384 0
M  V30 2807 H 292.554 -4.43479 2.228 0
M  V30 2808 H 287.81 -4.99531 3.52532 0
M  V30 2809 H 291.984 -5.36404 4.44121 0
M  V30 2810 H 289.611 -5.64164 5.09532 0
M  V30 2811 N 291.186 -0.45159 -1.50991 0
M  V30 2812 C 292.597 0.00818571 -1.86698 0
M  V30 2813 C 292.948 1.40661 -1.3678 0
M  V30 2814 O 292.073 2.0391 -0.724546 0
M  V30 2815 C 292.668 0.0216303 -3.38793 0
M  V30 2816 C 291.227 0.425865 -3.73983 0
M  V30 2817 C 290.374 -0.372163 -2.74791 0
M  V30 2818 H 293.325 -0.666785 -1.44013 0
M  V30 2819 H 293.346 0.828078 -3.7138 0
M  V30 2820 H 292.858 -0.996288 -3.75094 0
M  V30 2821 H 290.959 1.44886 -3.43277 0
M  V30 2822 H 291.072 0.140761 -4.78893 0
M  V30 2823 H 289.436 0.171498 -2.54122 0
M  V30 2824 H 290.219 -1.38922 -3.13935 0
M  V30 2825 N 292.664 1.56529 -0.183458 0
M  V30 2826 C 293.627 2.17324 0.728223 0
M  V30 2827 C 294.627 1.12453 1.14939 0
M  V30 2828 O 295.817 1.37902 1.06437 0
M  V30 2829 C 292.949 2.76591 1.99274 0
M  V30 2830 H 294.142 2.99241 0.198772 0
M  V30 2831 H 291.695 1.5616 0.0661391 0
M  V30 2832 H 292.43 1.98441 2.56499 0
M  V30 2833 H 292.215 3.5335 1.69959 0
M  V30 2834 H 293.705 3.23311 2.6431 0
M  V30 2835 N 294.142 -0.090211 1.57342 0
M  V30 2836 C 295.074 -1.13541 1.99101 0
M  V30 2837 C 296.087 -1.3604 0.894258 0
M  V30 2838 O 297.276 -1.34606 1.17233 0
M  V30 2839 C 294.376 -2.49001 2.29895 0
M  V30 2840 C 293.549 -2.46712 3.61182 0
M  V30 2841 C 292.608 -3.64136 3.79857 0
M  V30 2842 O 291.634 -3.46405 4.51655 0
M  V30 2843 N 292.836 -4.83802 3.20806 0
M  V30 2844 H 295.601 -0.779942 2.89373 0
M  V30 2845 H 293.162 -0.279125 1.59476 0
M  V30 2846 H 295.154 -3.26166 2.39578 0
M  V30 2847 H 293.724 -2.76619 1.45605 0
M  V30 2848 H 292.944 -1.55058 3.62423 0
M  V30 2849 H 294.232 -2.42265 4.4742 0
M  V30 2850 H 293.63 -5.01112 2.62494 0
M  V30 2851 H 292.187 -5.58543 3.35966 0
M  V30 2852 N 295.62 -1.53406 -0.361157 0
M  V30 2853 C 297.031 -1.61442 -0.937728 0
M  V30 2854 C 297.382 -0.48461 -1.90121 0
M  V30 2855 O 296.507 0.388312 -2.12888 0
M  V30 2856 C 297.102 -2.92624 -1.70753 0
M  V30 2857 C 295.661 -3.02981 -2.23337 0
M  V30 2858 C 294.808 -2.5677 -1.04712 0
M  V30 2859 H 297.759 -1.58083 -0.139816 0
M  V30 2860 H 297.78 -2.80675 -2.56908 0
M  V30 2861 H 297.292 -3.74834 -1.00604 0
M  V30 2862 H 295.393 -2.25368 -2.96715 0
M  V30 2863 H 295.506 -4.0814 -2.50916 0
M  V30 2864 H 293.87 -2.11752 -1.41539 0
M  V30 2865 H 294.653 -3.41402 -0.360539 0
M  V30 2866 N 297.098 0.621204 -1.44841 0
M  V30 2867 C 298.03 1.74615 -1.48466 0
M  V30 2868 C 299.043 1.58377 -0.37691 0
M  V30 2869 O 300.232 1.66508 -0.643215 0
M  V30 2870 C 297.332 3.12459 -1.31236 0
M  V30 2871 C 296.505 3.55064 -2.55438 0
M  V30 2872 C 295.564 4.71821 -2.32963 0
M  V30 2873 O 294.59 4.79628 -3.06505 0
M  V30 2874 N 295.792 5.64186 -1.36654 0
M  V30 2875 H 298.557 1.71973 -2.45449 0
M  V30 2876 H 296.118 0.806077 -1.40407 0
M  V30 2877 H 298.11 3.88302 -1.14032 0
M  V30 2878 H 296.68 3.09686 -0.4258 0
M  V30 2879 H 295.9 2.69324 -2.87851 0
M  V30 2880 H 297.188 3.80284 -3.38026 0
M  V30 2881 H 296.586 5.6058 -0.759344 0
M  V30 2882 H 295.143 6.39618 -1.25425 0
M  V30 2883 N 298.576 1.31904 0.862503 0
M  V30 2884 C 299.508 1.16005 1.97675 0
M  V30 2885 C 300.521 0.0971234 1.6251 0
M  V30 2886 O 301.71 0.345337 1.75128 0
M  V30 2887 C 298.81 0.751791 3.30456 0
M  V30 2888 C 297.983 1.90133 3.93914 0
M  V30 2889 C 297.042 1.4779 5.05019 0
M  V30 2890 O 296.068 2.18872 5.25437 0
M  V30 2891 N 297.27 0.369491 5.79323 0
M  V30 2892 H 300.035 2.11982 2.11857 0
M  V30 2893 H 297.596 1.24337 1.03691 0
M  V30 2894 H 299.588 0.451084 4.02178 0
M  V30 2895 H 298.158 -0.116593 3.12382 0
M  V30 2896 H 297.378 2.36896 3.15078 0
M  V30 2897 H 298.666 2.67111 4.33047 0
M  V30 2898 H 298.064 -0.222299 5.65263 0
M  V30 2899 H 296.621 0.128354 6.51674 0
M  V30 2900 N 300.054 -1.07777 1.14986 0
M  V30 2901 C 300.986 -2.14769 0.800436 0
M  V30 2902 C 301.999 -1.61739 -0.185595 0
M  V30 2903 O 303.188 -1.78462 0.0370358 0
M  V30 2904 C 300.288 -3.38481 0.168533 0
M  V30 2905 C 299.461 -4.20876 1.1909 0
M  V30 2906 C 298.52 -5.22976 0.581575 0
M  V30 2907 O 297.546 -5.55388 1.24633 0
M  V30 2908 N 298.748 -5.76976 -0.638706 0
M  V30 2909 H 301.513 -2.45348 1.72118 0
M  V30 2910 H 299.074 -1.23645 1.04515 0
M  V30 2911 H 301.066 -4.03916 -0.251764 0
M  V30 2912 H 299.636 -3.05651 -0.655467 0
M  V30 2913 H 298.856 -3.51322 1.78791 0
M  V30 2914 H 300.144 -4.7274 1.88133 0
M  V30 2915 H 299.542 -5.52886 -1.19723 0
M  V30 2916 H 298.099 -6.44061 -1.00142 0
M  V30 2917 N 301.532 -0.945985 -1.26051 0
M  V30 2918 C 302.464 -0.416662 -2.25381 0
M  V30 2919 C 303.477 0.462712 -1.56086 0
M  V30 2920 O 304.666 0.272383 -1.7641 0
M  V30 2921 C 301.766 0.419812 -3.3629 0
M  V30 2922 C 300.939 -0.444531 -4.35135 0
M  V30 2923 C 299.998 0.332305 -5.2515 0
M  V30 2924 O 299.024 -0.266324 -5.68577 0
M  V30 2925 N 300.226 1.62763 -5.57215 0
M  V30 2926 H 302.991 -1.27059 -2.71433 0
M  V30 2927 H 300.552 -0.815392 -1.39868 0
M  V30 2928 H 302.544 0.947013 -3.93464 0
M  V30 2929 H 301.114 1.17456 -2.89694 0
M  V30 2930 H 300.334 -1.15291 -3.76964 0
M  V30 2931 H 301.622 -1.03478 -4.98166 0
M  V30 2932 H 301.02 2.13603 -5.23823 0
M  V30 2933 H 299.577 2.10097 -6.17011 0
M  V30 2934 N 303.011 1.40521 -0.713556 0
M  V30 2935 C 303.943 2.29191 -0.0203126 0
M  V30 2936 C 304.956 1.45723 0.725864 0
M  V30 2937 O 306.145 1.69033 0.573581 0
M  V30 2938 C 303.245 3.2395 0.995486 0
M  V30 2939 C 302.418 4.36262 0.315256 0
M  V30 2940 C 301.477 5.11474 1.23616 0
M  V30 2941 O 300.503 5.64606 0.721719 0
M  V30 2942 N 301.705 5.20638 2.56743 0
M  V30 2943 H 304.47 2.89327 -0.781652 0
M  V30 2944 H 302.031 1.51869 -0.561022 0
M  V30 2945 H 304.023 3.71137 1.61368 0
M  V30 2946 H 302.593 2.64995 1.6582 0
M  V30 2947 H 301.813 3.91228 -0.483106 0
M  V30 2948 H 303.101 5.08558 -0.157004 0
M  V30 2949 H 302.499 4.7895 3.01037 0
M  V30 2950 H 301.056 5.71339 3.13712 0
M  V30 2951 N 304.489 0.459591 1.5075 0
M  V30 2952 C 305.9 0.00171547 1.867 0
M  V30 2953 C 306.251 -1.39934 1.37525 0
M  V30 2954 O 305.376 -2.03523 0.735349 0
M  V30 2955 C 305.971 -0.00366298 3.388 0
M  V30 2956 C 304.53 -0.406026 3.74204 0
M  V30 2957 C 303.677 0.38673 2.7459 0
M  V30 2958 H 306.628 0.674413 1.43657 0
M  V30 2959 H 306.649 -0.808371 3.71814 0
M  V30 2960 H 306.161 1.01617 3.74561 0
M  V30 2961 H 304.262 -1.43063 3.4404 0
M  V30 2962 H 304.375 -0.115362 4.78961 0
M  V30 2963 H 302.739 -0.158019 2.54209 0
M  V30 2964 H 303.522 1.40585 3.13194 0
M  V30 2965 N 305.967 -1.56429 0.191757 0
M  V30 2966 C 307.378 -1.83912 -0.321428 0
M  V30 2967 C 307.729 -1.11231 -1.61623 0
M  V30 2968 O 306.854 -0.37202 -2.13178 0
M  V30 2969 C 307.449 -3.33624 -0.589961 0
M  V30 2970 C 306.008 -3.6153 -1.04753 0
M  V30 2971 C 305.155 -2.7714 -0.0943327 0
M  V30 2972 H 308.106 -1.53161 0.415612 0
M  V30 2973 H 308.127 -3.52213 -1.43966 0
M  V30 2974 H 307.639 -3.86495 0.352588 0
M  V30 2975 H 305.74 -3.14089 -2.00447 0
M  V30 2976 H 305.853 -4.69737 -0.942549 0
M  V30 2977 H 304.217 -2.47638 -0.595589 0
M  V30 2978 H 305 -3.32799 0.842601 0
M  V30 2979 N 307.445 0.0818655 -1.57387 0
M  V30 2980 C 308.395 1.10501 -1.99433 0
M  V30 2981 C 309.379 1.35041 -0.874798 0
M  V30 2982 O 310.571 1.35511 -1.13868 0
M  V30 2983 C 307.7 2.42159 -2.43339 0
M  V30 2984 C 306.786 2.20937 -3.62005 0
M  V30 2985 N 307.177 1.69616 -4.76512 0
M  V30 2986 C 305.475 2.51451 -3.68359 0
M  V30 2987 C 306.176 1.62973 -5.58404 0
M  V30 2988 N 305.152 2.08664 -5.01956 0
M  V30 2989 H 308.954 0.701373 -2.85408 0
M  V30 2990 H 306.468 0.289096 -1.59806 0
M  V30 2991 H 308.465 3.16208 -2.71695 0
M  V30 2992 H 307.125 2.83249 -1.58746 0
M  V30 2993 H 308.136 1.38624 -4.99003 0
M  V30 2994 H 304.813 2.95975 -2.94457 0
M  V30 2995 H 306.203 1.24233 -6.60315 0
M  V30 2996 N 308.923 1.53595 0.353017 0
M  V30 2997 C 309.873 1.77299 1.43349 0
M  V30 2998 C 310.857 0.627884 1.48143 0
M  V30 2999 O 312.049 0.88697 1.53173 0
M  V30 3000 C 309.178 1.97757 2.80619 0
M  V30 3001 C 308.264 3.18305 2.80254 0
M  V30 3002 N 308.655 4.39967 2.49526 0
M  V30 3003 C 306.953 3.19283 3.11407 0
M  V30 3004 C 307.654 5.21772 2.57156 0
M  V30 3005 N 306.63 4.58269 2.92388 0
M  V30 3006 H 310.432 2.68963 1.18474 0
M  V30 3007 H 307.946 1.52391 0.561306 0
M  V30 3008 H 309.943 2.1287 3.58458 0
M  V30 3009 H 308.603 1.07329 3.06448 0
M  V30 3010 H 309.614 4.67482 2.22893 0
M  V30 3011 H 306.291 2.3879 3.4247 0
M  V30 3012 H 307.681 6.2885 2.36638 0
M  V30 3013 N 310.401 -0.613514 1.45168 0
M  V30 3014 C 311.331 -1.7354 1.56225 0
M  V30 3015 C 312.312 -1.64981 0.41414 0
M  V30 3016 O 313.497 -1.83472 0.636526 0
M  V30 3017 C 310.627 -3.12128 1.52295 0
M  V30 3018 C 309.581 -3.35491 2.65762 0
M  V30 3019 C 308.907 -4.74291 2.46885 0
M  V30 3020 C 310.207 -3.26325 4.0781 0
M  V30 3021 H 311.901 -1.64543 2.50132 0
M  V30 3022 H 309.447 -0.790185 1.20383 0
M  V30 3023 H 311.4 -3.90404 1.58628 0
M  V30 3024 H 310.124 -3.2195 0.549139 0
M  V30 3025 H 308.783 -2.59603 2.58847 0
M  V30 3026 H 308.431 -4.80839 1.47657 0
M  V30 3027 H 308.131 -4.9088 3.22972 0
M  V30 3028 H 309.655 -5.54775 2.55063 0
M  V30 3029 H 311.069 -3.94483 4.16 0
M  V30 3030 H 309.466 -3.54445 4.8424 0
M  V30 3031 H 310.536 -2.23855 4.30136 0
M  V30 3032 N 311.879 -1.3236 -0.855495 0
M  V30 3033 C 313.29 -1.2056 -1.42556 0
M  V30 3034 C 313.641 0.182209 -1.95352 0
M  V30 3035 O 312.766 1.08088 -1.87472 0
M  V30 3036 C 313.361 -2.1826 -2.59129 0
M  V30 3037 C 311.92 -2.10351 -3.12137 0
M  V30 3038 C 311.067 -2.06674 -1.84882 0
M  V30 3039 H 314.018 -1.442 -0.662727 0
M  V30 3040 H 314.039 -1.78064 -3.36264 0
M  V30 3041 H 313.551 -3.19257 -2.20673 0
M  V30 3042 H 311.652 -1.12599 -3.55179 0
M  V30 3043 H 311.765 -3.00135 -3.73438 0
M  V30 3044 H 310.129 -1.51901 -2.04446 0
M  V30 3045 H 310.912 -3.09451 -1.48643 0
M  V30 3046 N 313.357 1.07166 -1.15556 0
M  V30 3047 C 314.289 2.14341 -0.811815 0
M  V30 3048 C 315.302 1.61835 0.177015 0
M  V30 3049 O 316.491 1.78439 -0.0464996 0
M  V30 3050 C 313.591 3.38387 -0.186481 0
M  V30 3051 C 312.764 4.20238 -1.21321 0
M  V30 3052 C 311.823 5.2266 -0.609302 0
M  V30 3053 O 310.849 5.54719 -1.27576 0
M  V30 3054 N 312.051 5.77306 0.608099 0
M  V30 3055 H 314.816 2.44431 -1.73417 0
M  V30 3056 H 312.377 1.23089 -1.0517 0
M  V30 3057 H 314.369 4.04044 0.230339 0
M  V30 3058 H 312.939 3.05994 0.639249 0
M  V30 3059 H 312.159 3.50369 -1.80652 0
M  V30 3060 H 313.447 4.71736 -1.90638 0
M  V30 3061 H 312.845 5.53513 1.1679 0
M  V30 3062 H 311.402 6.44583 0.96725 0
M  V30 3063 N 314.835 0.952656 1.25548 0
M  V30 3064 C 315.767 0.428609 2.25157 0
M  V30 3065 C 316.78 -0.454428 1.56329 0
M  V30 3066 O 317.969 -0.263023 1.76552 0
M  V30 3067 C 315.069 -0.401972 3.36508 0
M  V30 3068 C 314.242 0.467601 4.34893 0
M  V30 3069 C 313.301 -0.30445 5.25319 0
M  V30 3070 O 312.327 0.296473 5.68427 0
M  V30 3071 N 313.529 -1.59805 5.5807 0
M  V30 3072 H 316.294 1.28497 2.70756 0
M  V30 3073 H 313.855 0.822798 1.39433 0
M  V30 3074 H 315.847 -0.926134 3.9396 0
M  V30 3075 H 314.417 -1.15918 2.90313 0
M  V30 3076 H 313.637 1.17288 3.76347 0
M  V30 3077 H 314.925 1.06119 4.97611 0
M  V30 3078 H 314.323 -2.10823 5.24948 0
M  V30 3079 H 312.88 -2.06822 6.18116 0
M  V30 3080 N 316.313 -1.40141 0.720998 0
M  V30 3081 C 317.246 -2.2819 0.020916 0
M  V30 3082 C 318.224 -1.43633 -0.762129 0
M  V30 3083 O 319.408 -1.7304 -0.747633 0
M  V30 3084 C 316.535 -3.24281 -0.977715 0
M  V30 3085 C 315.581 -4.25548 -0.284836 0
M  V30 3086 S 316.414 -5.26247 0.991169 0
M  V30 3087 C 317.57 -6.259 -0.0052214 0
M  V30 3088 H 317.803 -2.87218 0.767649 0
M  V30 3089 H 315.336 -1.45656 0.512233 0
M  V30 3090 H 317.294 -3.80167 -1.54865 0
M  V30 3091 H 315.955 -2.643 -1.69719 0
M  V30 3092 H 315.148 -4.93154 -1.03996 0
M  V30 3093 H 314.75 -3.73389 0.213684 0
M  V30 3094 H 317.042 -6.72143 -0.850279 0
M  V30 3095 H 317.985 -7.05224 0.637599 0
M  V30 3096 H 318.393 -5.63277 -0.371366 0
M  V30 3097 N 317.792 -0.46758 -1.50504 0
M  V30 3098 C 319.203 -0.0116166 -1.86696 0
M  V30 3099 C 319.554 1.39202 -1.38265 0
M  V30 3100 O 318.679 2.0313 -0.746132 0
M  V30 3101 C 319.274 -0.0143044 -3.38797 0
M  V30 3102 C 317.833 0.386175 -3.74414 0
M  V30 3103 C 316.98 -0.401287 -2.74381 0
M  V30 3104 H 319.931 -0.682022 -1.43297 0
M  V30 3105 H 319.952 0.788641 -3.72237 0
M  V30 3106 H 319.464 -1.03602 -3.74016 0
M  V30 3107 H 317.565 1.41237 -3.44794 0
M  V30 3108 H 317.678 0.0899596 -4.79016 0
M  V30 3109 H 316.042 0.144536 -2.5429 0
M  V30 3110 H 316.825 -1.42244 -3.12444 0
M  V30 3111 N 319.27 1.56325 -0.20005 0
M  V30 3112 C 320.516 1.98012 0.438059 0
M  V30 3113 C 320.849 1.08702 1.60927 0
M  V30 3114 O 320.124 0.140064 1.93995 0
M  V30 3115 C 320.407 3.48841 0.893419 0
M  V30 3116 C 320.26 4.48928 -0.279947 0
M  V30 3117 C 321.579 4.03498 1.75719 0
M  V30 3118 H 318.698 0.719918 0.157757 0
M  V30 3119 H 321.34 1.87743 -0.291968 0
M  V30 3120 H 319.49 3.57723 1.51547 0
M  V30 3121 H 321.162 4.52079 -0.91772 0
M  V30 3122 H 319.405 4.23694 -0.930919 0
M  V30 3123 H 320.076 5.5194 0.0812601 0
M  V30 3124 H 322.552 3.97427 1.23253 0
M  V30 3125 H 321.428 5.09393 2.04476 0
M  V30 3126 H 321.689 3.4906 2.71311 0
M  V30 3127 N 320.748 -0.0735177 1.57428 0
M  V30 3128 C 321.68 -1.11423 2.00294 0
M  V30 3129 C 322.693 -1.35084 0.908637 0
M  V30 3130 O 323.882 -1.33355 1.18654 0
M  V30 3131 C 320.982 -2.46548 2.32523 0
M  V30 3132 C 320.155 -2.42867 3.63778 0
M  V30 3133 C 319.214 -3.60087 3.83697 0
M  V30 3134 O 318.24 -3.41595 4.55304 0
M  V30 3135 N 319.442 -4.80372 3.25919 0
M  V30 3136 H 322.207 -0.749206 2.90184 0
M  V30 3137 H 319.768 -0.262195 1.59763 0
M  V30 3138 H 321.76 -3.23607 2.43024 0
M  V30 3139 H 320.33 -2.75059 1.48531 0
M  V30 3140 H 319.55 -1.51206 3.64047 0
M  V30 3141 H 320.838 -2.37506 4.49965 0
M  V30 3142 H 320.236 -4.983 2.67795 0
M  V30 3143 H 318.793 -5.54948 3.41871 0
M  V30 3144 N 322.226 -1.5378 -0.344866 0
M  V30 3145 C 323.176 -1.78057 -1.42407 0
M  V30 3146 C 324.16 -0.635732 -1.47808 0
M  V30 3147 O 325.352 -0.89508 -1.527 0
M  V30 3148 C 322.481 -1.99242 -2.79566 0
M  V30 3149 C 321.567 -3.19787 -2.78562 0
M  V30 3150 N 321.958 -4.41284 -2.47189 0
M  V30 3151 C 320.256 -3.2093 -3.0971 0
M  V30 3152 C 320.957 -5.23128 -2.54385 0
M  V30 3153 N 319.933 -4.59813 -2.89953 0
M  V30 3154 H 323.735 -2.69588 -1.17046 0
M  V30 3155 H 321.249 -1.52687 -0.553217 0
M  V30 3156 H 323.246 -2.14768 -3.57324 0
M  V30 3157 H 321.906 -1.08953 -3.05875 0
M  V30 3158 H 322.917 -4.68657 -2.20411 0
M  V30 3159 H 319.594 -2.40603 -3.41199 0
M  V30 3160 H 320.984 -6.30096 -2.333 0
M  V30 3161 N 323.704 0.605807 -1.45491 0
M  V30 3162 C 325.115 1.18777 -1.44045 0
M  V30 3163 C 325.466 1.95471 -0.169001 0
M  V30 3164 O 324.591 2.0374 0.729324 0
M  V30 3165 C 325.186 2.16064 -2.60963 0
M  V30 3166 C 323.745 2.69633 -2.62631 0
M  V30 3167 C 322.892 1.45072 -2.36325 0
M  V30 3168 H 325.843 0.395017 -1.53705 0
M  V30 3169 H 325.864 2.9913 -2.35163 0
M  V30 3170 H 325.376 1.60217 -3.53486 0
M  V30 3171 H 323.477 3.29414 -1.74119 0
M  V30 3172 H 323.59 3.13944 -3.61906 0
M  V30 3173 H 321.954 1.74089 -1.85917 0
M  V30 3174 H 322.737 0.910899 -3.30995 0
M  V30 3175 N 325.182 1.32811 0.848464 0
M  V30 3176 C 326.598 1.11937 1.13764 0
M  V30 3177 C 326.798 -0.0960789 2.01271 0
M  V30 3178 O 325.854 -0.779165 2.40178 0
M  V30 3179 C 327.167 2.402 1.809 0
M  V30 3180 C 328.715 2.46016 1.93508 0
M  V30 3181 C 329.19 3.74215 2.64059 0
M  V30 3182 N 330.681 3.75232 2.71579 0
M  V30 3183 C 331.416 4.71134 3.26833 0
M  V30 3184 N 330.912 5.77406 3.8285 0
M  V30 3185 N 332.705 4.58623 3.24995 0
M  V30 3186 H 324.856 2.1073 0.265855 0
M  V30 3187 H 327.119 0.930671 0.180431 0
M  V30 3188 H 326.825 3.29093 1.24058 0
M  V30 3189 H 326.699 2.51628 2.81004 0
M  V30 3190 H 329.086 1.57577 2.49506 0
M  V30 3191 H 329.167 2.38536 0.923811 0
M  V30 3192 H 328.811 4.63031 2.08722 0
M  V30 3193 H 328.741 3.78968 3.65637 0
M  V30 3194 H 331.232 2.98423 2.31845 0
M  V30 3195 H 331.545 6.46632 4.23187 0
M  V30 3196 H 329.89 5.81152 3.81165 0
M  V30 3197 H 333.081 3.74762 2.80484 0
M  V30 3198 H 333.254 5.33535 3.67756 0
M  V30 3199 N 326.66 -1.06551 1.16123 0
M  V30 3200 C 327.59 -2.15935 0.88851 0
M  V30 3201 C 328.571 -1.69306 -0.164135 0
M  V30 3202 O 329.756 -1.94193 -0.0167857 0
M  V30 3203 C 326.886 -3.45149 0.385942 0
M  V30 3204 C 325.84 -4.05271 1.3762 0
M  V30 3205 C 325.166 -5.29664 0.732137 0
M  V30 3206 C 326.466 -4.44355 2.74493 0
M  V30 3207 H 328.16 -2.39006 1.80323 0
M  V30 3208 H 325.706 -1.14866 0.868435 0
M  V30 3209 H 327.659 -4.21004 0.182647 0
M  V30 3210 H 326.383 -3.21689 -0.564274 0
M  V30 3211 H 325.042 -3.3147 1.56599 0
M  V30 3212 H 324.69 -5.02499 -0.224483 0
M  V30 3213 H 324.39 -5.70848 1.39307 0
M  V30 3214 H 325.914 -6.08218 0.538802 0
M  V30 3215 H 327.328 -5.11303 2.59311 0
M  V30 3216 H 325.725 -4.96515 3.37035 0
M  V30 3217 H 326.795 -3.55339 3.29943 0
M  V30 3218 N 328.138 -0.959301 -1.25041 0
M  V30 3219 C 329.07 -0.440543 -2.24926 0
M  V30 3220 C 330.083 0.446131 -1.56568 0
M  V30 3221 O 331.272 0.253657 -1.76689 0
M  V30 3222 C 328.372 0.38412 -3.36716 0
M  V30 3223 C 327.545 -0.490658 -4.34639 0
M  V30 3224 C 326.604 0.276587 -5.25473 0
M  V30 3225 O 325.63 -0.326614 -5.68262 0
M  V30 3226 N 326.832 1.56844 -5.5891 0
M  V30 3227 H 329.597 -1.29931 -2.70071 0
M  V30 3228 H 327.158 -0.830181 -1.38995 0
M  V30 3229 H 329.15 0.905228 -3.94446 0
M  V30 3230 H 327.72 1.14377 -2.90924 0
M  V30 3231 H 326.94 -1.19282 -3.7572 0
M  V30 3232 H 328.228 -1.08756 -4.97041 0
M  V30 3233 H 327.626 2.08036 -5.26059 0
M  V30 3234 H 326.183 2.03541 -6.19205 0
M  V30 3235 N 329.616 1.39756 -0.72842 0
M  V30 3236 C 330.579 2.29012 -0.0927297 0
M  V30 3237 C 331.579 1.45992 0.674025 0
M  V30 3238 O 332.769 1.66749 0.50402 0
M  V30 3239 C 329.901 3.29396 0.878137 0
M  V30 3240 H 331.094 2.86729 -0.879011 0
M  V30 3241 H 328.647 1.48293 -0.493847 0
M  V30 3242 H 329.382 2.76722 1.69101 0
M  V30 3243 H 329.167 3.907 0.331051 0
M  V30 3244 H 330.657 3.96199 1.3197 0
M  V30 3245 N 331.094 0.475555 1.50254 0
M  V30 3246 C 332.024 -0.30611 2.31485 0
M  V30 3247 C 333.005 -0.986228 1.38591 0
M  V30 3248 O 334.19 -0.982541 1.67511 0
M  V30 3249 C 331.32 -1.38588 3.1845 0
M  V30 3250 C 330.274 -0.827115 4.19932 0
M  V30 3251 C 329.6 -2.00551 4.95665 0
M  V30 3252 C 330.9 0.16463 5.2204 0
M  V30 3253 H 332.594 0.371866 2.97082 0
M  V30 3254 H 330.14 0.180282 1.42867 0
M  V30 3255 H 332.093 -1.94023 3.74076 0
M  V30 3256 H 330.817 -2.09269 2.50747 0
M  V30 3257 H 329.476 -0.294702 3.65414 0
M  V30 3258 H 329.124 -2.6994 4.2443 0
M  V30 3259 H 328.824 -1.63784 5.64313 0
M  V30 3260 H 330.348 -2.56468 5.54127 0
M  V30 3261 H 331.762 -0.300699 5.72511 0
M  V30 3262 H 330.159 0.446813 5.98434 0
M  V30 3263 H 331.229 1.08905 4.72512 0
M  V30 3264 N 332.573 -1.56217 0.208337 0
M  V30 3265 C 333.52 -2.19699 -0.707192 0
M  V30 3266 C 334.49 -1.14836 -1.20008 0
M  V30 3267 O 335.675 -1.4314 -1.26157 0
M  V30 3268 C 332.815 -2.87061 -1.91546 0
M  V30 3269 C 331.928 -4.06483 -1.46271 0
M  V30 3270 C 331.063 -4.61665 -2.62752 0
M  V30 3271 C 330.102 -5.73417 -2.14147 0
M  V30 3272 N 329.239 -6.22948 -3.23853 0
M  V30 3273 H 334.079 -2.97575 -0.159111 0
M  V30 3274 H 331.616 -1.46948 -0.0667874 0
M  V30 3275 H 333.574 -3.24294 -2.62468 0
M  V30 3276 H 332.204 -2.11725 -2.43664 0
M  V30 3277 H 331.256 -3.74825 -0.648886 0
M  V30 3278 H 332.568 -4.87271 -1.06622 0
M  V30 3279 H 331.722 -5.01272 -3.41776 0
M  V30 3280 H 330.461 -3.80013 -3.05682 0
M  V30 3281 H 329.466 -5.33326 -1.33581 0
M  V30 3282 H 330.691 -6.56897 -1.72232 0
M  V30 3283 H 328.637 -5.44213 -3.6629 0
M  V30 3284 H 328.554 -6.98823 -2.88414 0
M  V30 3285 H 329.822 -6.6721 -4.03052 0
M  V30 3286 N 334.051 0.0651679 -1.57465 0
M  V30 3287 C 334.961 1.09448 -2.07505 0
M  V30 3288 C 335.977 1.41974 -1.00595 0
M  V30 3289 O 337.153 1.52018 -1.32107 0
M  V30 3290 C 334.218 2.38689 -2.51453 0
M  V30 3291 C 333.279 2.13073 -3.72691 0
M  V30 3292 C 332.512 3.36152 -4.14533 0
M  V30 3293 O 332.735 4.45517 -3.56189 0
M  V30 3294 O 331.669 3.23974 -5.07272 0
M  V30 3295 H 335.495 0.69935 -2.95538 0
M  V30 3296 H 333.08 0.279752 -1.46757 0
M  V30 3297 H 334.962 3.14736 -2.80212 0
M  V30 3298 H 333.637 2.77568 -1.66546 0
M  V30 3299 H 332.544 1.34709 -3.49005 0
M  V30 3300 H 333.877 1.79071 -4.5847 0
M  V30 3301 N 335.529 1.53961 0.336706 0
M  V30 3302 C 336.439 1.85432 1.43708 0
M  V30 3303 C 337.455 0.745053 1.57242 0
M  V30 3304 O 338.631 1.03804 1.72588 0
M  V30 3305 C 335.696 2.06349 2.78605 0
M  V30 3306 C 334.757 3.30191 2.74358 0
M  V30 3307 C 333.99 3.50101 4.02822 0
M  V30 3308 O 334.213 2.7371 5.00439 0
M  V30 3309 O 333.147 4.43547 4.06878 0
M  V30 3310 H 336.973 2.78975 1.20028 0
M  V30 3311 H 334.558 1.39701 0.52952 0
M  V30 3312 H 336.44 2.21513 3.58483 0
M  V30 3313 H 335.115 1.15995 3.02203 0
M  V30 3314 H 334.022 3.20425 1.93078 0
M  V30 3315 H 335.355 4.2056 2.55715 0
M  V30 3316 N 337.007 -0.598083 1.45811 0
M  V30 3317 C 338.418 -1.18011 1.44673 0
M  V30 3318 C 338.769 -1.95378 0.179364 0
M  V30 3319 O 337.894 -2.04124 -0.718509 0
M  V30 3320 C 338.489 -2.14677 2.62105 0
M  V30 3321 C 337.048 -2.68236 2.64057 0
M  V30 3322 C 336.195 -1.43816 2.37091 0
M  V30 3323 H 339.146 -0.38686 1.53913 0
M  V30 3324 H 339.167 -2.97878 2.36746 0
M  V30 3325 H 338.679 -1.5834 3.5433 0
M  V30 3326 H 336.78 -3.28486 1.75864 0
M  V30 3327 H 336.893 -3.12021 3.63566 0
M  V30 3328 H 335.257 -1.731 1.86838 0
M  V30 3329 H 336.04 -0.893333 3.31473 0
M  V30 3330 N 338.485 -1.33259 -0.841409 0
M  V30 3331 C 339.417 -1.19136 -1.95804 0
M  V30 3332 C 340.43 -0.122965 -1.62335 0
M  V30 3333 O 341.619 -0.373154 -1.74556 0
M  V30 3334 C 338.719 -0.804268 -3.29218 0
M  V30 3335 C 337.892 -1.96376 -3.90839 0
M  V30 3336 C 336.951 -1.55806 -5.02604 0
M  V30 3337 O 335.977 -2.27203 -5.21888 0
M  V30 3338 N 337.179 -0.461609 -5.78662 0
M  V30 3339 H 339.944 -2.15326 -2.08458 0
M  V30 3340 H 337.505 -1.25971 -1.017 0
M  V30 3341 H 339.497 -0.51501 -4.0141 0
M  V30 3342 H 338.067 0.0668809 -3.12528 0
M  V30 3343 H 337.287 -2.41879 -3.11269 0
M  V30 3344 H 338.575 -2.73966 -4.28742 0
M  V30 3345 H 337.973 0.132343 -5.65545 0
M  V30 3346 H 336.53 -0.232013 -6.51387 0
M  V30 3347 N 339.963 1.05934 -1.16686 0
M  V30 3348 C 341.191 1.8249 -0.974929 0
M  V30 3349 C 341.606 1.82679 0.476861 0
M  V30 3350 O 340.963 1.2486 1.33103 0
M  V30 3351 C 341.014 3.28943 -1.49929 0
M  V30 3352 O 340.735 3.28886 -2.89423 0
M  V30 3353 C 342.236 4.22215 -1.35089 0
M  V30 3354 H 339.456 0.575295 -0.345365 0
M  V30 3355 H 342 1.33631 -1.548 0
M  V30 3356 H 340.155 3.751 -0.968423 0
M  V30 3357 H 340.569 4.20493 -3.13506 0
M  V30 3358 H 342.043 5.22987 -1.76603 0
M  V30 3359 H 342.52 4.38195 -0.296935 0
M  V30 3360 H 343.126 3.81907 -1.87155 0
M  V30 3361 N 341.441 0.965919 1.2453 0
M  V30 3362 C 342.687 0.62776 1.92839 0
M  V30 3363 C 343.02 -0.834694 1.75347 0
M  V30 3364 O 342.295 -1.60031 1.10546 0
M  V30 3365 C 342.578 1.00109 3.45905 0
M  V30 3366 C 342.431 2.52011 3.72573 0
M  V30 3367 C 343.75 0.53435 4.36844 0
M  V30 3368 H 340.869 0.229537 0.700344 0
M  V30 3369 H 343.511 1.2046 1.46933 0
M  V30 3370 H 341.661 0.510238 3.85135 0
M  V30 3371 H 343.333 3.08559 3.42912 0
M  V30 3372 H 341.576 2.95287 3.17786 0
M  V30 3373 H 342.247 2.73183 4.79661 0
M  V30 3374 H 344.723 0.955565 4.04979 0
M  V30 3375 H 343.599 0.824152 5.42678 0
M  V30 3376 H 343.86 -0.565589 4.38467 0
M  V30 3377 N 342.919 -1.39368 0.735821 0
M  V30 3378 C 344.33 -1.83313 0.354015 0
M  V30 3379 C 344.681 -1.61461 -1.11466 0
M  V30 3380 O 343.806 -1.10621 -1.85989 0
M  V30 3381 C 344.401 -3.32781 0.635769 0
M  V30 3382 C 342.96 -3.75142 0.307448 0
M  V30 3383 C 342.107 -2.62358 0.897974 0
M  V30 3384 H 345.058 -1.28349 0.933398 0
M  V30 3385 H 345.079 -3.80388 -0.0921773 0
M  V30 3386 H 344.591 -3.48654 1.70476 0
M  V30 3387 H 342.692 -3.64857 -0.755674 0
M  V30 3388 H 342.805 -4.72532 0.790583 0
M  V30 3389 H 341.169 -2.52624 0.324551 0
M  V30 3390 H 341.952 -2.81036 1.97164 0
M  V30 3391 N 344.397 -0.483516 -1.5 0
M  V30 3392 C 345.307 0.309172 -2.32554 0
M  V30 3393 C 346.323 0.984159 -1.43493 0
M  V30 3394 O 347.499 0.969399 -1.76535 0
M  V30 3395 C 344.564 1.36979 -3.18493 0
M  V30 3396 C 343.625 0.710095 -4.23387 0
M  V30 3397 C 342.858 1.72018 -5.05218 0
M  V30 3398 O 343.081 2.94813 -4.88305 0
M  V30 3399 O 342.015 1.28515 -5.8802 0
M  V30 3400 H 345.841 -0.366064 -3.01486 0
M  V30 3401 H 343.426 -0.24514 -1.47375 0
M  V30 3402 H 345.308 1.98385 -3.71781 0
M  V30 3403 H 343.983 2.02828 -2.52275 0
M  V30 3404 H 342.89 0.0567539 -3.74057 0
M  V30 3405 H 344.223 0.0943557 -4.9211 0
M  V30 3406 N 345.875 1.56104 -0.216619 0
M  V30 3407 C 346.808 2.16026 0.735395 0
M  V30 3408 C 347.786 1.1032 1.1945 0
M  V30 3409 O 348.97 1.38549 1.27814 0
M  V30 3410 C 346.097 2.73656 1.99575 0
M  V30 3411 C 345.143 3.92146 1.67702 0
M  V30 3412 S 345.976 5.29397 0.806145 0
M  V30 3413 C 347.132 5.90463 2.07617 0
M  V30 3414 H 347.365 2.96439 0.226072 0
M  V30 3415 H 344.898 1.544 -0.00136639 0
M  V30 3416 H 346.856 3.075 2.71945 0
M  V30 3417 H 345.517 1.93245 2.47619 0
M  V30 3418 H 344.71 4.30954 2.61332 0
M  V30 3419 H 344.312 3.59423 1.03398 0
M  V30 3420 H 346.604 6.06136 3.02664 0
M  V30 3421 H 347.547 6.86589 1.73207 0
M  V30 3422 H 347.955 5.19252 2.21445 0
M  V30 3423 N 347.353 -0.0568162 1.57498 0
M  V30 3424 C 348.764 -0.606858 1.76562 0
M  V30 3425 C 349.115 -1.77114 0.844094 0
M  V30 3426 O 348.24 -2.16376 0.0318911 0
M  V30 3427 C 348.835 -1.10766 3.20182 0
M  V30 3428 C 347.394 -1.60344 3.40539 0
M  V30 3429 C 346.541 -0.529311 2.72201 0
M  V30 3430 H 349.492 0.169393 1.57793 0
M  V30 3431 H 349.513 -1.97602 3.25167 0
M  V30 3432 H 349.025 -0.26006 3.87228 0
M  V30 3433 H 347.126 -2.47379 2.78629 0
M  V30 3434 H 347.239 -1.67006 4.4905 0
M  V30 3435 H 345.603 -0.977893 2.35179 0
M  V30 3436 H 346.386 0.308352 3.41912 0
M  V30 3437 N 348.832 -1.54138 -0.328536 0
M  V30 3438 C 350.08 -1.71765 -1.06496 0
M  V30 3439 C 350.401 -0.49149 -1.88704 0
M  V30 3440 O 349.671 0.494539 -1.89555 0
M  V30 3441 H 348.251 -0.633295 -0.396164 0
M  V30 3442 H 350.913 -1.91429 -0.366176 0
M  V30 3443 H 350.009 -2.5951 -1.73381 0
M  V30 3444 N 350.31 0.590341 -1.46126 0
M  V30 3445 C 351.22 1.72793 -1.58681 0
M  V30 3446 C 352.236 1.67516 -0.470566 0
M  V30 3447 O 353.412 1.87562 -0.733642 0
M  V30 3448 C 350.477 3.09287 -1.5666 0
M  V30 3449 C 349.538 3.25886 -2.79458 0
M  V30 3450 C 348.771 4.55869 -2.77524 0
M  V30 3451 O 348.994 5.3928 -1.85832 0
M  V30 3452 O 347.928 4.75552 -3.68964 0
M  V30 3453 H 351.754 1.65149 -2.54872 0
M  V30 3454 H 349.339 0.756486 -1.28832 0
M  V30 3455 H 351.221 3.90577 -1.58202 0
M  V30 3456 H 349.896 3.17385 -0.636271 0
M  V30 3457 H 348.803 2.44119 -2.83472 0
M  V30 3458 H 350.136 3.22675 -3.71674 0
M  V30 3459 N 351.788 1.33704 0.83433 0
M  V30 3460 C 353.016 1.28467 1.62185 0
M  V30 3461 C 353.431 -0.143526 1.88254 0
M  V30 3462 O 352.788 -1.08709 1.4659 0
M  V30 3463 C 352.839 2.06174 2.96942 0
M  V30 3464 O 352.56 3.43422 2.72016 0
M  V30 3465 C 354.061 2.08201 3.91366 0
M  V30 3466 H 351.281 0.4424 0.504503 0
M  V30 3467 H 353.825 1.76145 1.03891 0
M  V30 3468 H 351.98 1.62167 3.51825 0
M  V30 3469 H 352.394 3.83453 3.57861 0
M  V30 3470 H 353.868 2.67017 4.83121 0
M  V30 3471 H 354.345 1.07343 4.2588 0
M  V30 3472 H 354.951 2.52246 3.42421 0
M  V30 3473 N 353.266 -1.05314 1.17247 0
M  V30 3474 C 354.677 -1.59753 0.96623 0
M  V30 3475 C 355.028 -1.9005 -0.487378 0
M  V30 3476 O 354.153 -1.68126 -1.36245 0
M  V30 3477 C 354.748 -2.90249 1.74759 0
M  V30 3478 C 353.307 -3.41352 1.58606 0
M  V30 3479 C 352.454 -2.15103 1.75002 0
M  V30 3480 H 355.405 -0.881406 1.31973 0
M  V30 3481 H 355.426 -3.60097 1.22925 0
M  V30 3482 H 354.938 -2.68166 2.8055 0
M  V30 3483 H 353.039 -3.68474 0.552985 0
M  V30 3484 H 353.152 -4.16019 2.37624 0
M  V30 3485 H 351.516 -2.25804 1.17833 0
M  V30 3486 H 352.299 -1.95491 2.82202 0
M  V30 3487 N 354.744 -0.972509 -1.24016 0
M  V30 3488 C 356.155 -0.67517 -1.74064 0
M  V30 3489 C 356.506 0.808939 -1.78747 0
M  V30 3490 O 355.631 1.63286 -1.42009 0
M  V30 3491 C 356.226 -1.21889 -3.16115 0
M  V30 3492 C 354.785 -0.971358 -3.6365 0
M  V30 3493 C 353.932 -1.35134 -2.42145 0
M  V30 3494 H 356.883 -1.14727 -1.09651 0
M  V30 3495 H 356.904 -0.587489 -3.75937 0
M  V30 3496 H 356.416 -2.29906 -3.12674 0
M  V30 3497 H 354.517 0.0930686 -3.72484 0
M  V30 3498 H 354.63 -1.62039 -4.50866 0
M  V30 3499 H 352.994 -0.769751 -2.4279 0
M  V30 3500 H 353.777 -2.4411 -2.41381 0
M  V30 3501 N 356.222 1.38976 -0.743202 0
M  V30 3502 C 357.152 2.33171 -0.123873 0
M  V30 3503 C 358.133 1.54336 0.71516 0
M  V30 3504 O 359.318 1.82696 0.658467 0
M  V30 3505 C 356.448 3.38474 0.777978 0
M  V30 3506 C 355.402 4.27979 0.0424758 0
M  V30 3507 C 354.728 5.2405 1.06189 0
M  V30 3508 C 356.028 5.10155 -1.1198 0
M  V30 3509 H 357.722 2.85213 -0.910709 0
M  V30 3510 H 355.268 1.37133 -0.439388 0
M  V30 3511 H 357.221 4.03328 1.22084 0
M  V30 3512 H 355.945 2.84891 1.59702 0
M  V30 3513 H 354.604 3.64616 -0.380853 0
M  V30 3514 H 354.252 4.66758 1.87472 0
M  V30 3515 H 353.952 5.84785 0.574485 0
M  V30 3516 H 355.476 5.9178 1.50428 0
M  V30 3517 H 356.89 5.68307 -0.75499 0
M  V30 3518 H 355.287 5.80073 -1.53738 0
M  V30 3519 H 356.357 4.44504 -1.93764 0
M  V30 3520 N 357.7 0.491464 1.49741 0
M  V30 3521 C 358.925 -0.0557177 2.07325 0
M  V30 3522 C 359.35 -1.30925 1.35056 0
M  V30 3523 O 358.708 -1.76733 0.404365 0
M  V30 3524 C 358.756 -0.302074 3.59333 0
M  V30 3525 O 357.86 -1.37868 3.88672 0
M  V30 3526 H 357.201 0.0219956 0.663636 0
M  V30 3527 H 359.731 0.688352 1.92673 0
M  V30 3528 H 359.741 -0.536464 4.04458 0
M  V30 3529 H 358.416 0.61383 4.11345 0
M  V30 3530 H 356.993 -1.12999 3.55367 0
M  V30 3531 N 359.178 -1.55987 0.224894 0
M  V30 3532 C 360.589 -1.84553 -0.282345 0
M  V30 3533 C 360.94 -1.14634 -1.59227 0
M  V30 3534 O 360.065 -0.417155 -2.12341 0
M  V30 3535 C 360.66 -3.348 -0.519062 0
M  V30 3536 C 359.219 -3.63671 -0.970604 0
M  V30 3537 C 358.366 -2.77277 -0.0355261 0
M  V30 3538 H 361.317 -1.52245 0.448006 0
M  V30 3539 H 361.338 -3.55187 -1.36463 0
M  V30 3540 H 360.85 -3.8566 0.43449 0
M  V30 3541 H 358.951 -3.1827 -1.9374 0
M  V30 3542 H 359.064 -4.71631 -0.842698 0
M  V30 3543 H 357.428 -2.48846 -0.542927 0
M  V30 3544 H 358.211 -3.30937 0.913003 0
M  V30 3545 N 360.656 0.0484629 -1.57525 0
M  V30 3546 C 361.905 0.742065 -1.87553 0
M  V30 3547 C 362.218 1.77545 -0.820802 0
M  V30 3548 O 363.424 2.52027 -1.00967 0
M  V30 3549 C 361.88 1.37081 -3.32771 0
M  V30 3550 C 361.488 0.374786 -4.4643 0
M  V30 3551 C 363.232 2.04542 -3.71972 0
M  V30 3552 C 361.139 1.01077 -5.82698 0
M  V30 3553 H 360.069 0.280903 -0.699721 0
M  V30 3554 H 362.72 -0.00411877 -1.835 0
M  V30 3555 H 361.102 2.16605 -3.31509 0
M  V30 3556 H 362.276 -0.392331 -4.59127 0
M  V30 3557 H 360.591 -0.196653 -4.15935 0
M  V30 3558 H 363.188 2.52943 -4.71088 0
M  V30 3559 H 363.531 2.85515 -3.02964 0
M  V30 3560 H 364.064 1.31819 -3.75325 0
M  V30 3561 H 360.803 0.240878 -6.55057 0
M  V30 3562 H 360.323 1.74819 -5.73758 0
M  V30 3563 H 362.002 1.52383 -6.28799 0
M  V30 3564 N 362.134 1.5431 0.320358 0
M  V30 3565 C 363.411 1.63322 1.07635 0
M  V30 3566 C 363.791 0.46912 2.05821 0
M  V30 3567 O 363.139 -0.536274 2.22118 0
M  V30 3568 C 363.349 3.00465 1.77544 0
M  V30 3569 C 364.697 3.56621 2.30449 0
M  V30 3570 O 365.721 3.02791 1.87606 0
M  V30 3571 O 364.58 4.5083 3.08892 0
M  V30 3572 H 361.674 0.661502 0.496331 0
M  V30 3573 H 364.22 1.66656 0.319992 0
M  V30 3574 H 362.992 3.76629 1.06143 0
M  V30 3575 H 362.615 3.00824 2.59982 0
M  V30 3576 N 363.613 -0.582584 1.46437 0
M  V30 3577 C 364.546 -1.70633 1.51524 0
M  V30 3578 C 365.524 -1.58349 0.369351 0
M  V30 3579 O 366.708 -1.79563 0.573516 0
M  V30 3580 C 363.835 -3.08687 1.39392 0
M  V30 3581 C 362.881 -3.3949 2.58164 0
M  V30 3582 S 363.714 -3.31548 4.20519 0
M  V30 3583 C 364.87 -4.72139 4.10896 0
M  V30 3584 H 365.103 -1.66058 2.46601 0
M  V30 3585 H 362.636 -0.761337 1.34324 0
M  V30 3586 H 364.594 -3.8833 1.33079 0
M  V30 3587 H 363.255 -3.10751 0.457436 0
M  V30 3588 H 362.448 -4.40071 2.45669 0
M  V30 3589 H 362.05 -2.67415 2.61468 0
M  V30 3590 H 364.342 -5.62527 3.77584 0
M  V30 3591 H 365.285 -4.89692 5.11476 0
M  V30 3592 H 365.693 -4.48995 3.42146 0
M  V30 3593 N 365.091 -1.34144 -0.827227 0
M  V30 3594 C 366.001 -1.27428 -1.96975 0
M  V30 3595 C 367.017 -0.182728 -1.73038 0
M  V30 3596 O 368.193 -0.408426 -1.97215 0
M  V30 3597 C 365.258 -1.02526 -3.31194 0
M  V30 3598 C 364.319 -2.20796 -3.68168 0
M  V30 3599 C 363.552 -1.97073 -4.95982 0
M  V30 3600 O 363.775 -0.926822 -5.6282 0
M  V30 3601 O 362.709 -2.83912 -5.30733 0
M  V30 3602 H 366.535 -2.23537 -2.05584 0
M  V30 3603 H 364.12 -1.14307 -0.961989 0
M  V30 3604 H 366.002 -0.904026 -4.11589 0
M  V30 3605 H 364.677 -0.0945389 -3.23562 0
M  V30 3606 H 363.584 -2.38477 -2.88235 0
M  V30 3607 H 364.917 -3.12243 -3.8048 0
M  V30 3608 N 366.569 1.04691 -1.17803 0
M  V30 3609 C 367.794 1.81984 -0.994813 0
M  V30 3610 C 368.219 1.82586 0.452112 0
M  V30 3611 O 367.577 1.23854 1.324 0
M  V30 3612 C 367.625 3.2575 -1.54659 0
M  V30 3613 O 366.729 4.05267 -0.763728 0
M  V30 3614 H 366.07 0.562483 -0.352857 0
M  V30 3615 H 368.6 1.3189 -1.56417 0
M  V30 3616 H 368.61 3.76541 -1.57102 0
M  V30 3617 H 367.285 3.24627 -2.59981 0
M  V30 3618 H 365.862 3.63972 -0.811108 0
M  V30 3619 N 368.047 0.979072 1.23499 0
M  V30 3620 C 368.979 0.476271 2.24197 0
M  V30 3621 C 369.992 -0.421166 1.57258 0
M  V30 3622 O 371.181 -0.225515 1.7707 0
M  V30 3623 C 368.281 -0.330503 3.37285 0
M  V30 3624 C 367.454 0.559744 4.33804 0
M  V30 3625 C 366.513 -0.192954 5.25846 0
M  V30 3626 O 365.539 0.416978 5.67671 0
M  V30 3627 N 366.741 -1.47932 5.61334 0
M  V30 3628 H 369.506 1.34211 2.67969 0
M  V30 3629 H 367.067 0.852189 1.37657 0
M  V30 3630 H 369.059 -0.842361 3.95836 0
M  V30 3631 H 367.629 -1.09734 2.92707 0
M  V30 3632 H 366.849 1.25245 3.73775 0
M  V30 3633 H 368.137 1.1665 4.95248 0
M  V30 3634 H 367.535 -1.9964 5.29302 0
M  V30 3635 H 366.092 -1.93664 6.22364 0
M  V30 3636 N 369.525 -1.3858 0.750561 0
M  V30 3637 C 370.435 -2.34278 0.122825 0
M  V30 3638 C 371.451 -1.59116 -0.704131 0
M  V30 3639 O 372.627 -1.91326 -0.628987 0
M  V30 3640 C 369.692 -3.38221 -0.762086 0
M  V30 3641 C 368.753 -4.29227 0.078896 0
M  V30 3642 C 367.986 -5.28205 -0.763874 0
M  V30 3643 O 368.209 -5.34112 -2.00201 0
M  V30 3644 O 367.143 -6.01618 -0.18428 0
M  V30 3645 H 370.969 -2.89649 0.913088 0
M  V30 3646 H 368.554 -1.40374 0.511417 0
M  V30 3647 H 370.436 -4.01872 -1.26793 0
M  V30 3648 H 369.111 -2.85211 -1.5309 0
M  V30 3649 H 368.018 -3.68747 0.630621 0
M  V30 3650 H 369.351 -4.85484 0.810289 0
M  V30 3651 N 371.003 -0.499398 -1.49478 0
M  V30 3652 C 372.419 -0.155261 -1.58843 0
M  V30 3653 C 372.619 1.34008 -1.50479 0
M  V30 3654 O 371.675 2.11589 -1.37791 0
M  V30 3655 C 372.988 -0.730636 -2.91689 0
M  V30 3656 C 374.536 -0.696599 -3.0515 0
M  V30 3657 C 375.011 -1.25001 -4.40612 0
M  V30 3658 N 376.502 -1.21064 -4.47099 0
M  V30 3659 C 377.237 -1.60905 -5.50361 0
M  V30 3660 N 376.733 -2.08331 -6.60735 0
M  V30 3661 N 378.526 -1.52331 -5.41065 0
M  V30 3662 H 370.677 -1.47162 -1.53158 0
M  V30 3663 H 372.94 -0.610309 -0.725415 0
M  V30 3664 H 372.646 -1.77928 -3.03372 0
M  V30 3665 H 372.52 -0.190161 -3.7672 0
M  V30 3666 H 374.907 0.343204 -2.93097 0
M  V30 3667 H 374.988 -1.2742 -2.21806 0
M  V30 3668 H 374.632 -2.28859 -4.53416 0
M  V30 3669 H 374.562 -0.64836 -5.22593 0
M  V30 3670 H 377.053 -0.863128 -3.67911 0
M  V30 3671 H 377.366 -2.36805 -7.35624 0
M  V30 3672 H 375.711 -2.12304 -6.6178 0
M  V30 3673 H 378.902 -1.151 -4.53729 0
M  V30 3674 H 379.075 -1.83704 -6.21415 0
M  V30 3675 N 372.481 1.55866 -0.233164 0
M  V30 3676 C 373.73 1.97779 0.39579 0
M  V30 3677 C 374.043 1.12419 1.60066 0
M  V30 3678 O 375.249 1.44283 2.29988 0
M  V30 3679 C 373.705 3.5188 0.755556 0
M  V30 3680 C 373.313 4.45959 -0.427152 0
M  V30 3681 C 375.057 4.02479 1.34946 0
M  V30 3682 C 372.964 5.91383 -0.0443043 0
M  V30 3683 H 371.894 0.738592 0.15165 0
M  V30 3684 H 374.545 1.80486 -0.331212 0
M  V30 3685 H 372.927 3.64816 1.5403 0
M  V30 3686 H 374.101 4.44776 -1.20462 0
M  V30 3687 H 372.416 4.05765 -0.935068 0
M  V30 3688 H 375.013 5.08637 1.649 0
M  V30 3689 H 375.356 3.49014 2.26925 0
M  V30 3690 H 375.889 3.92813 0.62791 0
M  V30 3691 H 372.628 6.48857 -0.930874 0
M  V30 3692 H 372.148 5.95734 0.697238 0
M  V30 3693 H 373.827 6.45893 0.378334 0
M  V30 3694 N 373.959 -0.0401083 1.57549 0
M  V30 3695 C 374.906 -1.04413 2.05831 0
M  V30 3696 C 375.876 -1.36585 0.945184 0
M  V30 3697 O 377.061 -1.47112 1.21502 0
M  V30 3698 C 374.201 -2.34336 2.53339 0
M  V30 3699 C 373.314 -2.08419 3.78398 0
M  V30 3700 C 372.449 -3.32133 4.14561 0
M  V30 3701 C 371.488 -3.01721 5.3257 0
M  V30 3702 N 370.625 -4.17855 5.64218 0
M  V30 3703 H 375.465 -0.625442 2.91363 0
M  V30 3704 H 373.002 -0.297218 1.44066 0
M  V30 3705 H 374.96 -3.10234 2.78946 0
M  V30 3706 H 373.59 -2.73948 1.7074 0
M  V30 3707 H 372.642 -1.23069 3.59942 0
M  V30 3708 H 373.954 -1.81978 4.64419 0
M  V30 3709 H 373.108 -4.16406 4.41238 0
M  V30 3710 H 371.847 -3.61678 3.2717 0
M  V30 3711 H 370.852 -2.15849 5.05657 0
M  V30 3712 H 372.077 -2.73466 6.21605 0
M  V30 3713 H 370.023 -4.47372 4.79786 0
M  V30 3714 H 369.94 -3.94798 6.44725 0
M  V30 3715 H 371.208 -5.03033 5.95465 0
M  V30 3716 N 375.437 -1.54477 -0.31217 0
M  V30 3717 C 376.4 -1.83923 -1.36766 0
M  V30 3718 C 377.4 -0.711563 -1.44199 0
M  V30 3719 O 378.59 -0.979866 -1.44029 0
M  V30 3720 C 375.722 -2.0095 -2.75376 0
M  V30 3721 H 376.915 -2.78239 -1.11906 0
M  V30 3722 H 374.468 -1.46369 -0.548257 0
M  V30 3723 H 375.203 -1.08883 -3.05475 0
M  V30 3724 H 374.988 -2.83018 -2.71373 0
M  V30 3725 H 376.478 -2.2514 -3.51713 0
M  V30 3726 N 376.915 0.57481 -1.46744 0
M  V30 3727 C 377.825 1.711 -1.60505 0
M  V30 3728 C 378.841 1.67008 -0.488307 0
M  V30 3729 O 380.017 1.86774 -0.753495 0
M  V30 3730 C 377.082 3.07608 -1.59932 0
M  V30 3731 C 376.143 3.22904 -2.82898 0
M  V30 3732 C 375.376 4.529 -2.82343 0
M  V30 3733 O 375.599 5.37278 -1.91542 0
M  V30 3734 O 374.533 4.71611 -3.73987 0
M  V30 3735 H 378.359 1.62436 -2.56609 0
M  V30 3736 H 375.944 0.742779 -1.29627 0
M  V30 3737 H 377.826 3.88877 -1.62336 0
M  V30 3738 H 376.501 3.16692 -0.669898 0
M  V30 3739 H 375.408 2.41099 -2.86046 0
M  V30 3740 H 376.741 3.18715 -3.75076 0
M  V30 3741 N 378.394 1.34581 0.820102 0
M  V30 3742 C 379.81 1.14325 1.11364 0
M  V30 3743 C 380.01 -0.0533648 2.01429 0
M  V30 3744 O 379.066 -0.728044 2.41776 0
M  V30 3745 C 380.379 2.43983 1.75764 0
M  V30 3746 C 381.927 2.50065 1.88246 0
M  V30 3747 C 382.402 3.79732 2.56061 0
M  V30 3748 N 383.893 3.80908 2.63558 0
M  V30 3749 C 384.628 4.77961 3.16766 0
M  V30 3750 N 384.124 5.85397 3.70517 0
M  V30 3751 N 385.917 4.65413 3.15194 0
M  V30 3752 H 378.068 2.11246 0.221096 0
M  V30 3753 H 380.331 0.934289 0.160649 0
M  V30 3754 H 380.037 3.31651 1.1705 0
M  V30 3755 H 379.911 2.57531 2.75604 0
M  V30 3756 H 382.298 1.62834 2.46108 0
M  V30 3757 H 382.379 2.40442 0.873006 0
M  V30 3758 H 382.023 4.67354 1.98853 0
M  V30 3759 H 381.953 3.86639 3.57516 0
M  V30 3760 H 384.444 3.03274 2.25463 0
M  V30 3761 H 384.757 6.55463 4.09376 0
M  V30 3762 H 383.102 5.89107 3.68752 0
M  V30 3763 H 386.293 3.80627 2.72471 0
M  V30 3764 H 386.466 5.41216 3.56356 0
M  V30 3765 N 379.872 -1.04064 1.18357 0
M  V30 3766 C 380.819 -2.12077 0.910603 0
M  V30 3767 C 381.789 -1.65421 -0.15 0
M  V30 3768 O 382.974 -1.90797 -0.0103614 0
M  V30 3769 C 380.114 -3.42252 0.442472 0
M  V30 3770 C 379.227 -4.0252 1.5685 0
M  V30 3771 C 378.362 -5.20657 1.05309 0
M  V30 3772 C 377.401 -5.72955 2.1538 0
M  V30 3773 N 376.538 -6.8238 1.65233 0
M  V30 3774 H 381.378 -2.34764 1.83548 0
M  V30 3775 H 378.915 -1.15157 0.915279 0
M  V30 3776 H 380.873 -4.16921 0.152534 0
M  V30 3777 H 379.503 -3.19712 -0.445428 0
M  V30 3778 H 378.555 -3.25178 1.97391 0
M  V30 3779 H 379.867 -4.37362 2.39824 0
M  V30 3780 H 379.021 -6.0244 0.717677 0
M  V30 3781 H 377.76 -4.87318 0.19293 0
M  V30 3782 H 376.765 -4.89793 2.49766 0
M  V30 3783 H 377.99 -6.08337 3.01832 0
M  V30 3784 H 375.936 -6.50917 0.815064 0
M  V30 3785 H 375.853 -7.16286 2.41805 0
M  V30 3786 H 377.121 -7.67788 1.34619 0
M  V30 3787 N 381.35 -0.985608 -1.22978 0
M  V30 3788 C 382.766 -0.695104 -1.43668 0
M  V30 3789 C 382.966 0.736866 -1.87543 0
M  V30 3790 O 382.022 1.50868 -2.02473 0
M  V30 3791 C 383.335 -1.69447 -2.48412 0
M  V30 3792 C 384.883 -1.70909 -2.62219 0
M  V30 3793 C 385.358 -2.6969 -3.70178 0
M  V30 3794 N 386.849 -2.6824 -3.77626 0
M  V30 3795 C 387.584 -3.41339 -4.60733 0
M  V30 3796 N 387.08 -4.24015 -5.4789 0
M  V30 3797 N 388.873 -3.30079 -4.54977 0
M  V30 3798 H 381.024 -1.91054 -0.928016 0
M  V30 3799 H 383.287 -0.823553 -0.469536 0
M  V30 3800 H 382.993 -2.7188 -2.23102 0
M  V30 3801 H 382.867 -1.48147 -3.46889 0
M  V30 3802 H 385.254 -0.691785 -2.86877 0
M  V30 3803 H 385.335 -1.96276 -1.6404 0
M  V30 3804 H 384.979 -3.71566 -3.46268 0
M  V30 3805 H 384.909 -2.41595 -4.67909 0
M  V30 3806 H 387.4 -2.08243 -3.15346 0
M  V30 3807 H 387.713 -4.76636 -6.08308 0
M  V30 3808 H 386.058 -4.28104 -5.47496 0
M  V30 3809 H 389.249 -2.64937 -3.85909 0
M  V30 3810 H 389.422 -3.87308 -5.19516 0
M  V30 3811 N 382.828 1.3818 -0.7579 0
M  V30 3812 C 383.761 2.28055 -0.0814093 0
M  V30 3813 C 384.739 1.45603 0.723779 0
M  V30 3814 O 385.923 1.74961 0.701491 0
M  V30 3815 C 383.05 3.2676 0.891394 0
M  V30 3816 C 382.096 4.26153 0.171909 0
M  V30 3817 S 382.929 5.23434 -1.13035 0
M  V30 3818 C 384.085 6.25694 -0.160727 0
M  V30 3819 H 384.318 2.85082 -0.84353 0
M  V30 3820 H 381.851 1.44246 -0.550671 0
M  V30 3821 H 383.809 3.8414 1.44731 0
M  V30 3822 H 382.47 2.68706 1.62652 0
M  V30 3823 H 381.663 4.95738 0.908843 0
M  V30 3824 H 381.265 3.72691 -0.312606 0
M  V30 3825 H 383.557 6.74161 0.671773 0
M  V30 3826 H 384.5 7.03285 -0.824353 0
M  V30 3827 H 384.908 5.64064 0.221892 0
M  V30 3828 N 384.306 0.507319 1.49211 0
M  V30 3829 C 385.722 0.163682 1.58758 0
M  V30 3830 C 385.922 -1.33208 1.51188 0
M  V30 3831 O 384.978 -2.10855 1.38911 0
M  V30 3832 C 386.291 0.746095 2.91297 0
M  V30 3833 C 387.839 0.712773 3.04776 0
M  V30 3834 C 388.314 1.27336 4.39943 0
M  V30 3835 N 389.805 1.23433 4.46451 0
M  V30 3836 C 390.54 1.63821 5.495 0
M  V30 3837 N 390.036 2.11832 6.5962 0
M  V30 3838 N 391.829 1.55198 5.4025 0
M  V30 3839 H 383.98 1.47972 1.52375 0
M  V30 3840 H 386.243 0.614147 0.722168 0
M  V30 3841 H 385.949 1.79534 3.02424 0
M  V30 3842 H 385.823 0.210137 3.76614 0
M  V30 3843 H 388.21 -0.327656 2.93275 0
M  V30 3844 H 388.291 1.28595 2.21127 0
M  V30 3845 H 387.935 2.3126 4.52196 0
M  V30 3846 H 387.865 0.676066 5.22242 0
M  V30 3847 H 390.356 0.882627 3.67448 0
M  V30 3848 H 390.669 2.40703 7.34358 0
M  V30 3849 H 389.014 2.1581 6.60644 0
M  V30 3850 H 392.205 1.17505 4.53112 0
M  V30 3851 H 392.378 1.86997 6.20432 0
M  V30 3852 N 385.784 -1.5574 0.241426 0
M  V30 3853 C 386.732 -2.22538 -0.676718 0
M  V30 3854 C 387.726 -1.21117 -1.18436 0
M  V30 3855 O 388.932 -1.39144 -1.14188 0
M  V30 3856 H 385.307 -0.713776 -0.236701 0
M  V30 3857 H 387.278 -2.98264 -0.0901187 0
M  V30 3858 C 386.027 -2.93439 -1.86518 0
M  V30 3859 H 385.35 -3.7125 -1.4837 0
M  V30 3860 H 386.79 -3.43549 -2.48495 0
M  V30 3861 C 385.249 -1.97008 -2.73294 0
M  V30 3862 O 385.779 -1.49965 -3.72657 0
M  V30 3863 N 383.985 -1.64227 -2.39745 0
M  V30 3864 H 383.532 -2.02677 -1.58996 0
M  V30 3865 H 383.49 -0.999708 -2.98083 0
M  V30 3866 N 387.262 0.0317525 -1.57568 0
M  V30 3867 C 388.678 0.38735 -1.54828 0
M  V30 3868 C 388.878 1.7677 -0.967187 0
M  V30 3869 O 387.934 2.45581 -0.587063 0
M  V30 3870 C 389.247 0.291667 -2.99282 0
M  V30 3871 C 390.795 0.368946 -3.10818 0
M  V30 3872 C 391.27 0.302741 -4.56998 0
M  V30 3873 N 392.761 0.361617 -4.61786 0
M  V30 3874 C 393.496 0.333238 -5.72431 0
M  V30 3875 N 392.992 0.257308 -6.92322 0
M  V30 3876 N 394.785 0.382769 -5.60795 0
M  V30 3877 H 386.936 -0.871609 -1.93692 0
M  V30 3878 H 389.199 -0.331161 -0.888277 0
M  V30 3879 H 388.905 -0.656794 -3.45513 0
M  V30 3880 H 388.779 1.08638 -3.61217 0
M  V30 3881 H 391.166 1.30784 -2.64536 0
M  V30 3882 H 391.247 -0.455066 -2.5172 0
M  V30 3883 H 390.891 -0.632473 -5.03947 0
M  V30 3884 H 390.821 1.14482 -5.14005 0
M  V30 3885 H 393.312 0.422923 -3.75526 0
M  V30 3886 H 393.625 0.24068 -7.72425 0
M  V30 3887 H 391.97 0.223396 -6.94641 0
M  V30 3888 H 395.161 0.44006 -4.66027 0
M  V30 3889 H 395.334 0.357184 -6.47015 0
M  V30 3890 N 388.74 1.54641 0.303973 0
M  V30 3891 C 389.989 1.7299 1.03717 0
M  V30 3892 C 390.302 0.521168 1.88529 0
M  V30 3893 O 391.508 0.586408 2.65092 0
M  V30 3894 C 389.964 3.06051 1.89369 0
M  V30 3895 C 389.572 4.34393 1.09574 0
M  V30 3896 C 391.316 3.3376 2.62306 0
M  V30 3897 C 389.223 5.58506 1.94486 0
M  V30 3898 H 388.153 0.64473 0.390947 0
M  V30 3899 H 390.804 1.81124 0.294328 0
M  V30 3900 H 389.186 2.91874 2.67629 0
M  V30 3901 H 390.36 4.59396 0.359485 0
M  V30 3902 H 388.675 4.13597 0.482324 0
M  V30 3903 H 391.272 4.23687 3.26181 0
M  V30 3904 H 391.615 2.52503 3.3098 0
M  V30 3905 H 392.148 3.48894 1.91097 0
M  V30 3906 H 388.887 6.42422 1.30287 0
M  V30 3907 H 388.407 5.37694 2.65792 0
M  V30 3908 H 390.086 5.95651 2.52605 0
M  V30 3909 N 390.218 -0.567019 1.47046 0
M  V30 3910 C 391.181 -1.65696 1.58359 0
M  V30 3911 C 392.181 -1.54097 0.459441 0
M  V30 3912 O 393.371 -1.58432 0.724225 0
M  V30 3913 C 390.503 -3.05197 1.51879 0
M  V30 3914 H 391.696 -1.57019 2.5551 0
M  V30 3915 H 389.249 -0.786148 1.3509 0
M  V30 3916 H 389.984 -3.19417 0.560673 0
M  V30 3917 H 389.769 -3.15025 2.33455 0
M  V30 3918 H 391.259 -3.84511 1.62913 0
M  V30 3919 N 391.696 -1.35014 -0.812953 0
M  V30 3920 C 392.659 -1.27292 -1.90602 0
M  V30 3921 C 393.659 -0.185817 -1.59723 0
M  V30 3922 O 394.849 -0.439102 -1.68575 0
M  V30 3923 C 391.981 -0.967676 -3.26877 0
M  V30 3924 H 393.174 -2.24479 -1.9887 0
M  V30 3925 H 390.727 -1.19446 -1.00808 0
M  V30 3926 H 391.462 0.0005954 -3.243 0
M  V30 3927 H 391.247 -1.75412 -3.50675 0
M  V30 3928 H 392.737 -0.939085 -4.06904 0
M  V30 3929 N 393.175 1.03435 -1.18907 0
M  V30 3930 C 394.4 1.80919 -1.01406 0
M  V30 3931 C 394.825 1.83055 0.432721 0
M  V30 3932 O 394.183 1.25252 1.31079 0
M  V30 3933 C 394.231 3.24091 -1.58105 0
M  V30 3934 O 393.335 4.04434 -0.806669 0
M  V30 3935 H 392.676 0.558709 -0.358803 0
M  V30 3936 H 395.206 1.30223 -1.57807 0
M  V30 3937 H 395.216 3.74853 -1.61087 0
M  V30 3938 H 393.891 3.21851 -2.6341 0
M  V30 3939 H 392.468 3.63091 -0.849666 0
M  V30 3940 N 394.653 0.992116 1.22453 0
M  V30 3941 C 395.6 0.541731 2.24352 0
M  V30 3942 C 396.57 -0.425519 1.60557 0
M  V30 3943 O 397.755 -0.330453 1.87917 0
M  V30 3944 C 394.895 -0.138248 3.44823 0
M  V30 3945 C 394.008 0.870649 4.23136 0
M  V30 3946 C 393.143 0.164269 5.30946 0
M  V30 3947 C 392.182 1.16159 6.00977 0
M  V30 3948 N 391.319 0.483568 7.00433 0
M  V30 3949 H 396.159 1.41541 2.62241 0
M  V30 3950 H 393.696 0.709013 1.28885 0
M  V30 3951 H 395.654 -0.5494 4.13567 0
M  V30 3952 H 394.284 -0.975721 3.077 0
M  V30 3953 H 393.336 1.40013 3.53696 0
M  V30 3954 H 394.648 1.63014 4.7141 0
M  V30 3955 H 393.802 -0.303653 6.0594 0
M  V30 3956 H 392.541 -0.627733 4.83643 0
M  V30 3957 H 391.546 1.64015 5.24766 0
M  V30 3958 H 392.771 1.95445 6.50368 0
M  V30 3959 H 390.717 -0.289012 6.55363 0
M  V30 3960 H 390.634 1.18152 7.4671 0
M  V30 3961 H 391.902 0.0384219 7.79491 0
M  V30 3962 N 396.131 -1.37776 0.765217 0
M  V30 3963 C 397.371 -2.01691 0.331669 0
M  V30 3964 C 397.735 -1.59432 -1.06983 0
M  V30 3965 O 398.936 -2.15761 -1.60314 0
M  V30 3966 C 397.207 -3.54385 0.463261 0
M  V30 3967 S 398.766 -4.38652 0.114011 0
M  V30 3968 H 395.584 -0.699387 0.127979 0
M  V30 3969 H 398.186 -1.68084 0.998396 0
M  V30 3970 H 396.89 -3.82629 1.48401 0
M  V30 3971 H 396.421 -3.92783 -0.220246 0
M  V30 3972 H 398.436 -4.84021 -1.09261 0
M  V30 3973 N 397.609 -0.515225 -1.4894 0
M  V30 3974 C 399.025 -0.172099 -1.58669 0
M  V30 3975 C 399.225 1.32405 -1.51892 0
M  V30 3976 O 398.281 2.10116 -1.40027 0
M  V30 3977 C 399.594 -0.761533 -2.90897 0
M  V30 3978 C 401.142 -0.728926 -3.04394 0
M  V30 3979 C 401.617 -1.29667 -4.39261 0
M  V30 3980 N 403.108 -1.25799 -4.4579 0
M  V30 3981 C 403.843 -1.66733 -5.48623 0
M  V30 3982 N 403.339 -2.15327 -6.58488 0
M  V30 3983 N 405.132 -1.58061 -5.39419 0
M  V30 3984 H 397.283 -1.48778 -1.51588 0
M  V30 3985 H 399.546 -0.617968 -0.718901 0
M  V30 3986 H 399.252 -1.81136 -3.01468 0
M  V30 3987 H 399.126 -0.230106 -3.76497 0
M  V30 3988 H 401.513 0.312098 -2.93445 0
M  V30 3989 H 401.594 -1.29766 -2.20442 0
M  V30 3990 H 401.238 -2.33655 -4.50963 0
M  V30 3991 H 401.168 -0.703752 -5.21876 0
M  V30 3992 H 403.659 -0.902102 -3.66975 0
M  V30 3993 H 403.972 -2.44594 -7.33071 0
M  V30 3994 H 402.317 -2.19311 -6.59491 0
M  V30 3995 H 405.508 -1.19906 -4.52482 0
M  V30 3996 H 405.681 -1.90284 -6.19432 0
M  V30 3997 N 399.087 1.5561 -0.249682 0
M  V30 3998 C 400.034 2.21496 0.648694 0
M  V30 3999 C 401.004 1.17977 1.16921 0
M  V30 4000 O 402.189 1.46434 1.22318 0
M  V30 4001 C 399.329 2.92039 1.83868 0
M  V30 4002 C 398.442 4.10219 1.35442 0
M  V30 4003 C 397.577 4.6847 2.50419 0
M  V30 4004 C 396.616 5.78893 1.98869 0
M  V30 4005 N 395.753 6.31315 3.07223 0
M  V30 4006 H 400.593 2.97892 0.0801582 0
M  V30 4007 H 398.13 1.47074 0.0278031 0
M  V30 4008 H 400.088 3.31138 2.53778 0
M  V30 4009 H 398.718 2.18111 2.37965 0
M  V30 4010 H 397.77 3.76413 0.54928 0
M  V30 4011 H 399.082 4.89927 0.936649 0
M  V30 4012 H 398.236 5.10158 3.28366 0
M  V30 4013 H 396.975 3.87984 2.95499 0
M  V30 4014 H 395.98 5.3668 1.19393 0
M  V30 4015 H 397.205 6.61232 1.54755 0
M  V30 4016 H 395.151 5.53733 3.51732 0
M  V30 4017 H 395.068 7.06224 2.69784 0
M  V30 4018 H 396.336 6.77662 3.8522 0
M  V30 4019 N 400.565 -0.0233959 1.57583 0
M  V30 4020 C 401.981 -0.379134 1.55031 0
M  V30 4021 C 402.181 -1.76255 0.976548 0
M  V30 4022 O 401.237 -2.45266 0.600078 0
M  V30 4023 C 402.55 -0.275792 2.99433 0
M  V30 4024 C 404.098 -0.352458 3.11009 0
M  V30 4025 C 404.573 -0.278501 4.57152 0
M  V30 4026 N 406.064 -0.337123 4.61972 0
M  V30 4027 C 406.799 -0.302876 5.726 0
M  V30 4028 N 406.295 -0.220589 6.92449 0
M  V30 4029 N 408.088 -0.353023 5.6099 0
M  V30 4030 H 400.239 0.881869 1.93227 0
M  V30 4031 H 402.502 0.335867 0.886509 0
M  V30 4032 H 402.208 0.675108 3.4516 0
M  V30 4033 H 402.082 -1.06721 3.61788 0
M  V30 4034 H 404.469 -1.29379 2.65226 0
M  V30 4035 H 404.55 0.468409 2.51475 0
M  V30 4036 H 404.194 0.659189 5.03604 0
M  V30 4037 H 404.124 -1.11755 5.14605 0
M  V30 4038 H 406.615 -0.403002 3.75745 0
M  V30 4039 H 406.928 -0.199713 7.72542 0
M  V30 4040 H 405.273 -0.186555 6.9475 0
M  V30 4041 H 408.464 -0.415339 4.66254 0
M  V30 4042 H 408.637 -0.322866 6.47195 0
M  V30 4043 N 402.043 -1.548 -0.295768 0
M  V30 4044 C 402.99 -1.86113 -1.36494 0
M  V30 4045 C 403.96 -0.7105 -1.50137 0
M  V30 4046 O 405.145 -0.959626 -1.64912 0
M  V30 4047 C 402.285 -2.11861 -2.72413 0
M  V30 4048 C 401.398 -3.39471 -2.67177 0
M  V30 4049 C 400.533 -3.55035 -3.95125 0
M  V30 4050 C 399.572 -4.76418 -3.84308 0
M  V30 4051 N 398.709 -4.8876 -5.04042 0
M  V30 4052 H 403.549 -2.77314 -1.09091 0
M  V30 4053 H 401.086 -1.37315 -0.52753 0
M  V30 4054 H 403.044 -2.24786 -3.51464 0
M  V30 4055 H 401.674 -1.2392 -2.98066 0
M  V30 4056 H 400.726 -3.35139 -1.79962 0
M  V30 4057 H 402.038 -4.28646 -2.55076 0
M  V30 4058 H 401.192 -3.67653 -4.82614 0
M  V30 4059 H 399.931 -2.64002 -4.10066 0
M  V30 4060 H 398.936 -4.63827 -2.95202 0
M  V30 4061 H 400.161 -5.68863 -3.70906 0
M  V30 4062 H 398.107 -4.00652 -5.19436 0
M  V30 4063 H 398.024 -5.71945 -4.94384 0
M  V30 4064 H 399.292 -5.0574 -5.93167 0
M  V30 4065 N 403.521 0.559213 -1.47345 0
M  V30 4066 C 404.451 1.67622 -1.62558 0
M  V30 4067 C 405.432 1.63331 -0.475087 0
M  V30 4068 O 406.617 1.80983 -0.704182 0
M  V30 4069 C 403.747 3.0626 -1.63774 0
M  V30 4070 C 402.701 3.25397 -2.7803 0
M  V30 4071 C 402.027 4.64801 -2.64318 0
M  V30 4072 C 403.327 3.10965 -4.19641 0
M  V30 4073 H 405.021 1.55146 -2.56067 0
M  V30 4074 H 402.567 0.744961 -1.23233 0
M  V30 4075 H 404.52 3.84247 -1.73008 0
M  V30 4076 H 403.244 3.1969 -0.66825 0
M  V30 4077 H 401.903 2.49817 -2.68304 0
M  V30 4078 H 401.551 4.75028 -1.65401 0
M  V30 4079 H 401.251 4.78555 -3.40968 0
M  V30 4080 H 402.775 5.44926 -2.75478 0
M  V30 4081 H 404.189 3.78772 -4.30354 0
M  V30 4082 H 402.586 3.36229 -4.97062 0
M  V30 4083 H 403.656 2.07736 -4.38148 0
M  V30 4084 N 404.999 1.35443 0.805782 0
M  V30 4085 C 405.909 1.30546 1.94923 0
M  V30 4086 C 406.925 0.210233 1.72725 0
M  V30 4087 O 408.101 0.43975 1.9654 0
M  V30 4088 C 405.166 1.07782 3.29521 0
M  V30 4089 C 404.227 2.26625 3.64609 0
M  V30 4090 C 403.46 2.04938 4.92784 0
M  V30 4091 O 403.683 1.01624 5.61274 0
M  V30 4092 O 402.617 2.9232 5.26149 0
M  V30 4093 H 406.443 2.26779 2.02002 0
M  V30 4094 H 404.028 1.15823 0.943682 0
M  V30 4095 H 405.91 0.969392 4.10098 0
M  V30 4096 H 404.585 0.146003 3.23371 0
M  V30 4097 H 403.492 2.43033 2.84404 0
M  V30 4098 H 404.825 3.18257 3.75464 0
M  V30 4099 N 406.477 -1.02803 1.19454 0
M  V30 4100 C 407.893 -1.28473 0.946937 0
M  V30 4101 C 408.093 -1.97881 -0.380202 0
M  V30 4102 O 407.149 -2.26719 -1.11151 0
M  V30 4103 C 408.462 -2.13099 2.12154 0
M  V30 4104 C 410.01 -2.26404 2.16126 0
M  V30 4105 C 410.485 -3.14402 3.33039 0
M  V30 4106 N 411.976 -3.21991 3.32981 0
M  V30 4107 C 412.711 -3.90272 4.20089 0
M  V30 4108 N 412.207 -4.60777 5.17355 0
M  V30 4109 N 414 -3.8668 4.07964 0
M  V30 4110 H 406.151 -0.561665 2.04839 0
M  V30 4111 H 408.414 -0.310438 0.89573 0
M  V30 4112 H 408.12 -1.69422 3.08203 0
M  V30 4113 H 407.994 -3.13813 2.09287 0
M  V30 4114 H 410.381 -2.69311 1.20647 0
M  V30 4115 H 410.462 -1.25237 2.23045 0
M  V30 4116 H 410.106 -2.72204 4.28798 0
M  V30 4117 H 410.036 -4.1563 3.23356 0
M  V30 4118 H 412.527 -2.71778 2.62574 0
M  V30 4119 H 412.84 -5.10513 5.80169 0
M  V30 4120 H 411.185 -4.5964 5.21302 0
M  V30 4121 H 414.376 -3.30739 3.31254 0
M  V30 4122 H 414.549 -4.39621 4.76064 0
M  V30 4123 N 407.956 -0.998596 -1.21925 0
M  V30 4124 C 409.205 -0.673085 -1.90138 0
M  V30 4125 C 409.518 0.79895 -1.78539 0
M  V30 4126 O 410.724 1.23628 -2.4172 0
M  V30 4127 C 409.18 -1.15339 -3.40918 0
M  V30 4128 C 408.788 -2.65106 -3.61141 0
M  V30 4129 C 410.532 -0.902476 -4.14796 0
M  V30 4130 C 408.439 -3.0671 -5.05651 0
M  V30 4131 H 407.369 -0.248057 -0.712028 0
M  V30 4132 H 410.02 -1.20891 -1.38049 0
M  V30 4133 H 408.402 -0.545658 -3.92223 0
M  V30 4134 H 409.576 -3.31274 -3.20304 0
M  V30 4135 H 407.891 -2.88142 -3.00605 0
M  V30 4136 H 410.488 -1.18895 -5.21314 0
M  V30 4137 H 410.831 0.161349 -4.15987 0
M  V30 4138 H 411.364 -1.47269 -3.69536 0
M  V30 4139 H 408.103 -4.12292 -5.09603 0
M  V30 4140 H 407.623 -2.45249 -5.47369 0
M  V30 4141 H 409.302 -2.9833 -5.74115 0
M  V30 4142 N 409.434 1.37368 -0.772513 0
M  V30 4143 C 410.397 2.28601 -0.165541 0
M  V30 4144 C 411.397 1.48062 0.627238 0
M  V30 4145 O 412.587 1.68268 0.450715 0
M  V30 4146 C 409.719 3.32023 0.772897 0
M  V30 4147 H 410.912 2.83787 -0.969787 0
M  V30 4148 H 408.465 1.46647 -0.540775 0
M  V30 4149 H 409.2 2.81962 1.60212 0
M  V30 4150 H 408.985 3.91555 0.206585 0
M  V30 4151 H 410.475 4.00197 1.19298 0
M  V30 4152 N 410.912 0.523116 1.48665 0
M  V30 4153 C 412.328 0.180511 1.58576 0
M  V30 4154 C 412.528 -1.31597 1.52592 0
M  V30 4155 O 411.584 -2.0937 1.4114 0
M  V30 4156 C 412.897 0.776949 2.90489 0
M  V30 4157 C 414.445 0.745058 3.04003 0
M  V30 4158 C 414.92 1.31995 4.38567 0
M  V30 4159 N 416.411 1.28162 4.45117 0
M  V30 4160 C 417.146 1.6964 5.47731 0
M  V30 4161 N 416.642 2.18816 6.57337 0
M  V30 4162 N 418.435 1.6092 5.38573 0
M  V30 4163 H 410.586 1.4958 1.50797 0
M  V30 4164 H 412.849 0.621772 0.715614 0
M  V30 4165 H 412.555 1.82732 3.00503 0
M  V30 4166 H 412.429 0.25007 3.7637 0
M  V30 4167 H 414.816 -0.296532 2.93606 0
M  V30 4168 H 414.897 1.30933 2.1975 0
M  V30 4169 H 414.541 2.36043 4.49718 0
M  V30 4170 H 414.471 0.731418 5.21496 0
M  V30 4171 H 416.962 0.92155 3.66491 0
M  V30 4172 H 417.275 2.48478 7.31764 0
M  V30 4173 H 415.62 2.22805 6.58318 0
M  V30 4174 H 418.811 1.22304 4.5184 0
M  V30 4175 H 418.984 1.93567 6.18414 0
M  V30 4176 N 412.39 -1.55475 0.257931 0
M  V30 4177 C 413.32 -2.24815 -0.630912 0
M  V30 4178 C 414.301 -1.23224 -1.17259 0
M  V30 4179 O 415.486 -1.51904 -1.20991 0
M  V30 4180 C 412.616 -2.95609 -1.82298 0
M  V30 4181 C 411.57 -4.03982 -1.41359 0
M  V30 4182 C 410.896 -4.6226 -2.68738 0
M  V30 4183 C 412.196 -5.19109 -0.57648 0
M  V30 4184 H 413.89 -2.99354 -0.0526878 0
M  V30 4185 H 411.436 -1.4398 -0.023901 0
M  V30 4186 H 413.389 -3.42822 -2.45054 0
M  V30 4187 H 412.113 -2.18577 -2.42676 0
M  V30 4188 H 410.772 -3.57555 -0.809324 0
M  V30 4189 H 410.42 -3.81915 -3.27338 0
M  V30 4190 H 410.12 -5.35424 -2.42065 0
M  V30 4191 H 411.644 -5.12212 -3.32372 0
M  V30 4192 H 413.058 -5.62479 -1.10861 0
M  V30 4193 H 411.455 -5.98729 -0.405351 0
M  V30 4194 H 412.525 -4.83174 0.408776 0
M  V30 4195 N 413.868 0.0150385 -1.57593 0
M  V30 4196 C 414.778 1.02791 -2.10882 0
M  V30 4197 C 415.794 1.38702 -1.0506 0
M  V30 4198 O 416.97 1.47739 -1.36877 0
M  V30 4199 C 414.035 2.30568 -2.58919 0
M  V30 4200 C 413.096 2.01108 -3.79281 0
M  V30 4201 C 412.329 3.22794 -4.25018 0
M  V30 4202 O 412.552 4.33959 -3.70183 0
M  V30 4203 O 411.486 3.07672 -5.17322 0
M  V30 4204 H 415.312 0.604973 -2.97613 0
M  V30 4205 H 412.897 0.23292 -1.47573 0
M  V30 4206 H 414.779 3.05662 -2.90084 0
M  V30 4207 H 413.454 2.72129 -1.75293 0
M  V30 4208 H 412.361 1.23537 -3.53114 0
M  V30 4209 H 413.694 1.64394 -4.63935 0
M  V30 4210 N 415.346 1.54954 0.287554 0
M  V30 4211 C 416.256 1.8991 1.37736 0
M  V30 4212 C 417.272 0.794701 1.54792 0
M  V30 4213 O 418.448 1.09243 1.69198 0
M  V30 4214 C 415.513 2.15108 2.71899 0
M  V30 4215 C 414.574 3.38752 2.63715 0
M  V30 4216 C 413.807 3.62739 3.91479 0
M  V30 4217 O 414.03 2.89492 4.91478 0
M  V30 4218 O 412.964 4.56267 3.92561 0
M  V30 4219 H 416.79 2.82652 1.11092 0
M  V30 4220 H 414.375 1.41315 0.484807 0
M  V30 4221 H 416.257 2.32806 3.51254 0
M  V30 4222 H 414.932 1.25551 2.9836 0
M  V30 4223 H 413.839 3.26405 1.82786 0
M  V30 4224 H 415.172 4.28483 2.42205 0
M  V30 4225 N 416.824 -0.551391 1.4764 0
M  V30 4226 C 417.771 -1.65796 1.60563 0
M  V30 4227 C 418.741 -1.59932 0.448428 0
M  V30 4228 O 419.926 -1.78679 0.669222 0
M  V30 4229 C 417.066 -3.04108 1.63133 0
M  V30 4230 C 416.179 -3.20365 2.89811 0
M  V30 4231 C 415.314 -4.49109 2.8368 0
M  V30 4232 C 414.353 -4.58819 4.05156 0
M  V30 4233 N 413.49 -5.78926 3.97227 0
M  V30 4234 H 418.33 -1.54088 2.5507 0
M  V30 4235 H 415.867 -0.75052 1.26513 0
M  V30 4236 H 417.825 -3.84207 1.62606 0
M  V30 4237 H 416.455 -3.14637 0.721341 0
M  V30 4238 H 415.507 -2.33659 3.00179 0
M  V30 4239 H 416.819 -3.23402 3.79753 0
M  V30 4240 H 415.973 -5.37475 2.81434 0
M  V30 4241 H 414.712 -4.4856 1.91431 0
M  V30 4242 H 413.717 -3.68864 4.077 0
M  V30 4243 H 414.942 -4.61124 4.98539 0
M  V30 4244 H 412.888 -5.79314 3.07785 0
M  V30 4245 H 412.805 -5.83367 4.80853 0
M  V30 4246 H 414.073 -6.69637 3.99007 0
M  V30 4247 N 418.302 -1.35869 -0.798587 0
M  V30 4248 C 419.548 -1.2978 -1.55836 0
M  V30 4249 C 419.881 0.125322 -1.93795 0
M  V30 4250 O 419.156 1.07658 -1.61987 0
M  V30 4251 C 419.439 -2.21188 -2.84162 0
M  V30 4252 C 419.292 -3.72155 -2.52628 0
M  V30 4253 C 420.611 -2.11545 -3.85923 0
M  V30 4254 H 417.73 -0.472769 -0.565383 0
M  V30 4255 H 420.372 -1.66341 -0.918192 0
M  V30 4256 H 418.522 -1.90139 -3.38791 0
M  V30 4257 H 420.194 -4.13682 -2.04121 0
M  V30 4258 H 418.437 -3.92042 -1.85704 0
M  V30 4259 H 419.108 -4.31511 -3.44242 0
M  V30 4260 H 421.584 -2.38855 -3.40716 0
M  V30 4261 H 420.46 -2.77688 -4.73477 0
M  V30 4262 H 420.721 -1.09987 -4.282 0
M  V30 4263 N 419.78 1.02168 -1.19998 0
M  V30 4264 C 420.727 2.10601 -0.944228 0
M  V30 4265 C 421.697 1.65639 0.123664 0
M  V30 4266 O 422.882 1.9079 -0.0199941 0
M  V30 4267 C 420.022 3.41504 -0.496865 0
M  V30 4268 C 419.135 3.99973 -1.63234 0
M  V30 4269 C 418.27 5.18915 -1.13579 0
M  V30 4270 C 417.309 5.69456 -2.24468 0
M  V30 4271 N 416.446 6.79665 -1.76068 0
M  V30 4272 H 421.286 2.31814 -1.8726 0
M  V30 4273 H 418.823 1.13686 -0.933483 0
M  V30 4274 H 420.781 4.16626 -0.218843 0
M  V30 4275 H 419.411 3.2038 0.394508 0
M  V30 4276 H 418.463 3.21997 -2.0254 0
M  V30 4277 H 419.775 4.33492 -2.46752 0
M  V30 4278 H 418.929 6.01222 -0.813429 0
M  V30 4279 H 417.668 4.8695 -0.270434 0
M  V30 4280 H 416.673 4.85757 -2.57526 0
M  V30 4281 H 417.898 6.03459 -3.11472 0
M  V30 4282 H 415.844 6.49538 -0.918516 0
M  V30 4283 H 415.761 7.12349 -2.5317 0
M  V30 4284 H 417.029 7.65549 -1.46817 0
M  V30 4285 N 421.258 1.00505 1.21394 0
M  V30 4286 C 422.486 0.706609 1.9446 0
M  V30 4287 C 422.901 -0.73081 1.74082 0
M  V30 4288 O 422.258 -1.49446 1.04747 0
M  V30 4289 C 422.309 1.01824 3.46863 0
M  V30 4290 O 422.03 2.39919 3.66566 0
M  V30 4291 C 423.531 0.739216 4.37093 0
M  V30 4292 H 420.751 0.260394 0.618414 0
M  V30 4293 H 423.295 1.34311 1.54211 0
M  V30 4294 H 421.45 0.427343 3.85036 0
M  V30 4295 H 421.864 2.50784 4.6066 0
M  V30 4296 H 423.338 1.00744 5.42729 0
M  V30 4297 H 423.815 -0.326746 4.37983 0
M  V30 4298 H 424.421 1.31173 4.04566 0
M  V30 4299 N 422.737 -1.36956 0.779787 0
M  V30 4300 C 423.667 -2.32761 0.185651 0
M  V30 4301 C 424.648 -1.56177 -0.673989 0
M  V30 4302 O 425.833 -1.84378 -0.609797 0
M  V30 4303 C 422.963 -3.40418 -0.687964 0
M  V30 4304 C 421.917 -4.27941 0.0710102 0
M  V30 4305 C 421.243 -5.26681 -0.922573 0
M  V30 4306 C 422.543 -5.07006 1.25467 0
M  V30 4307 H 424.237 -2.82698 0.986008 0
M  V30 4308 H 421.783 -1.3592 0.475592 0
M  V30 4309 H 423.736 -4.06423 -1.11348 0
M  V30 4310 H 422.46 -2.89025 -1.52093 0
M  V30 4311 H 421.119 -3.63478 0.47739 0
M  V30 4312 H 420.767 -4.71565 -1.7503 0
M  V30 4313 H 420.467 -5.86103 -0.419237 0
M  V30 4314 H 421.991 -5.9556 -1.34686 0
M  V30 4315 H 423.405 -5.66105 0.905401 0
M  V30 4316 H 421.802 -5.75793 1.69063 0
M  V30 4317 H 422.872 -4.3921 2.05481 0
M  V30 4318 N 424.215 -0.530993 -1.48385 0
M  V30 4319 C 425.162 0.231223 -2.29639 0
M  V30 4320 C 426.132 0.932864 -1.37429 0
M  V30 4321 O 427.317 0.933692 -1.66394 0
M  V30 4322 C 424.457 1.27155 -3.2082 0
M  V30 4323 C 423.57 0.578655 -4.28107 0
M  V30 4324 C 422.705 1.602 -5.06467 0
M  V30 4325 C 421.744 0.892625 -6.05556 0
M  V30 4326 N 420.881 1.86157 -6.76971 0
M  V30 4327 H 425.721 -0.467848 -2.94305 0
M  V30 4328 H 423.258 -0.242556 -1.45086 0
M  V30 4329 H 425.216 1.88703 -3.72085 0
M  V30 4330 H 423.846 1.939 -2.58075 0
M  V30 4331 H 422.898 -0.150782 -3.80101 0
M  V30 4332 H 424.21 0.0217065 -4.98795 0
M  V30 4333 H 423.364 2.29173 -5.61751 0
M  V30 4334 H 422.103 2.19285 -4.35621 0
M  V30 4335 H 421.108 0.188829 -5.49476 0
M  V30 4336 H 422.333 0.307878 -6.78402 0
M  V30 4337 H 420.279 2.44147 -6.08875 0
M  V30 4338 H 420.196 1.35608 -7.43738 0
M  V30 4339 H 421.464 2.54325 -7.36844 0
M  V30 4340 N 425.693 1.55336 -0.266172 0
M  V30 4341 C 426.656 2.20878 0.612001 0
M  V30 4342 C 427.656 1.18388 1.08816 0
M  V30 4343 O 428.846 1.4335 0.989774 0
M  V30 4344 C 425.978 2.86765 1.84332 0
M  V30 4345 H 427.171 2.99873 0.0398718 0
M  V30 4346 H 424.724 1.56291 -0.0167309 0
M  V30 4347 H 425.459 2.11759 2.45619 0
M  V30 4348 H 425.244 3.61862 1.5099 0
M  V30 4349 H 426.734 3.36867 2.46801 0
M  V30 4350 N 427.171 -0.0066808 1.57599 0
M  V30 4351 C 428.103 -1.02827 2.04839 0
M  V30 4352 C 429.116 -1.31108 0.965113 0
M  V30 4353 O 430.305 -1.28202 1.24203 0
M  V30 4354 C 427.405 -2.36464 2.42771 0
M  V30 4355 C 426.578 -2.27219 3.73751 0
M  V30 4356 C 425.637 -3.43489 3.98625 0
M  V30 4357 O 424.663 -3.21976 4.69382 0
M  V30 4358 N 425.865 -4.66116 3.46 0
M  V30 4359 H 428.63 -0.625455 2.93101 0
M  V30 4360 H 426.191 -0.194198 1.60731 0
M  V30 4361 H 428.183 -3.13008 2.56531 0
M  V30 4362 H 426.753 -2.68512 1.60063 0
M  V30 4363 H 425.973 -1.35629 3.70133 0
M  V30 4364 H 427.261 -2.18208 4.59633 0
M  V30 4365 H 426.659 -4.86493 2.88688 0
M  V30 4366 H 425.216 -5.39949 3.65101 0
M  V30 4367 N 428.649 -1.55105 -0.279332 0
M  V30 4368 C 429.597 -1.88333 -1.36505 0
M  V30 4369 C 430.591 -0.759043 -1.51443 0
M  V30 4370 O 431.797 -0.943312 -1.53302 0
M  V30 4371 H 428.172 -0.59766 -0.456406 0
M  V30 4372 H 430.143 -2.79041 -1.05728 0
M  V30 4373 C 428.892 -2.16628 -2.7197 0
M  V30 4374 H 428.215 -3.02624 -2.61264 0
M  V30 4375 H 429.655 -2.43803 -3.46895 0
M  V30 4376 C 428.114 -0.971807 -3.22579 0
M  V30 4377 O 428.644 -0.203228 -4.01186 0
M  V30 4378 N 426.85 -0.771238 -2.80179 0
M  V30 4379 H 426.397 -1.39792 -2.1637 0
M  V30 4380 H 426.355 0.0263667 -3.14389 0
M  V30 4381 N 430.127 0.543554 -1.4793 0
M  V30 4382 C 431.352 1.32995 -1.59145 0
M  V30 4383 C 431.777 1.86472 -0.246956 0
M  V30 4384 O 431.135 1.63696 0.779324 0
M  V30 4385 C 431.183 2.46623 -2.63077 0
M  V30 4386 O 430.287 3.49261 -2.19295 0
M  V30 4387 H 429.628 0.394472 -0.534124 0
M  V30 4388 H 432.158 0.655489 -1.93816 0
M  V30 4389 H 432.168 2.93001 -2.83926 0
M  V30 4390 H 430.843 2.07059 -3.60693 0
M  V30 4391 H 429.42 3.09094 -2.08603 0
M  V30 4392 N 431.605 1.3629 0.791371 0
M  V30 4393 C 432.515 1.32606 1.93527 0
M  V30 4394 C 433.531 0.228541 1.72493 0
M  V30 4395 O 434.707 0.460571 1.96063 0
M  V30 4396 C 431.772 1.11271 3.28359 0
M  V30 4397 C 430.833 2.3048 3.62185 0
M  V30 4398 C 430.066 2.10154 4.90583 0
M  V30 4399 O 430.289 1.07572 5.60165 0
M  V30 4400 O 429.223 2.97884 5.23019 0
M  V30 4401 H 433.049 2.28909 1.99585 0
M  V30 4402 H 430.634 1.16818 0.931344 0
M  V30 4403 H 432.516 1.01283 4.09047 0
M  V30 4404 H 431.191 0.180292 3.23198 0
M  V30 4405 H 430.098 2.46036 2.81811 0
M  V30 4406 H 431.431 3.22221 3.72068 0
M  V30 4407 N 433.083 -1.0153 1.20538 0
M  V30 4408 C 434.013 -2.11972 0.979295 0
M  V30 4409 C 434.994 -1.6985 -0.0921787 0
M  V30 4410 O 436.179 -1.94089 0.0655932 0
M  V30 4411 C 433.309 -3.43201 0.531984 0
M  V30 4412 C 432.263 -3.9907 1.54685 0
M  V30 4413 C 431.589 -5.26082 0.956127 0
M  V30 4414 C 432.889 -4.32313 2.93092 0
M  V30 4415 H 434.583 -2.31143 1.90298 0
M  V30 4416 H 432.129 -1.11079 0.916372 0
M  V30 4417 H 434.082 -4.1985 0.361044 0
M  V30 4418 H 432.806 -3.23792 -0.427327 0
M  V30 4419 H 431.465 -3.2453 1.70517 0
M  V30 4420 H 431.113 -5.02999 -0.0111538 0
M  V30 4421 H 430.813 -5.64426 1.63393 0
M  V30 4422 H 432.337 -6.05386 0.796284 0
M  V30 4423 H 433.751 -4.99845 2.80763 0
M  V30 4424 H 432.148 -4.81774 3.57791 0
M  V30 4425 H 433.218 -3.41025 3.44717 0
M  V30 4426 N 434.561 -1.01147 -1.20859 0
M  V30 4427 C 435.524 -0.582224 -2.21682 0
M  V30 4428 C 436.524 0.344887 -1.57058 0
M  V30 4429 O 437.714 0.134281 -1.73682 0
M  V30 4430 C 434.846 0.150496 -3.40568 0
M  V30 4431 H 436.039 -1.47408 -2.61172 0
M  V30 4432 H 433.592 -0.800695 -1.34233 0
M  V30 4433 H 434.327 1.0575 -3.06574 0
M  V30 4434 H 434.112 -0.515444 -3.88697 0
M  V30 4435 H 435.602 0.438344 -4.15293 0
M  V30 4436 N 436.039 1.36541 -0.78704 0
M  V30 4437 C 437.264 2.0409 -0.369053 0
M  V30 4438 C 437.689 1.58957 1.00569 0
M  V30 4439 O 437.047 0.756926 1.64743 0
M  V30 4440 C 437.095 3.57924 -0.438466 0
M  V30 4441 O 436.199 4.08642 0.555479 0
M  V30 4442 H 435.54 0.645142 -0.157122 0
M  V30 4443 H 438.07 1.74545 -1.06749 0
M  V30 4444 H 438.08 4.06887 -0.301218 0
M  V30 4445 H 436.755 3.90127 -1.44132 0
M  V30 4446 H 435.332 3.70958 0.380088 0
M  V30 4447 N 437.518 0.538854 1.48102 0
M  V30 4448 C 438.746 0.0123136 2.06896 0
M  V30 4449 C 439.161 -1.27312 1.39417 0
M  V30 4450 O 438.518 -1.75949 0.484582 0
M  V30 4451 C 438.569 -0.206118 3.60912 0
M  V30 4452 O 438.29 1.0284 4.25859 0
M  V30 4453 C 439.791 -0.772033 4.36526 0
M  V30 4454 H 437.011 0.0375239 0.66995 0
M  V30 4455 H 439.555 0.747032 1.90367 0
M  V30 4456 H 437.71 -0.89091 3.77017 0
M  V30 4457 H 438.124 0.814654 5.18135 0
M  V30 4458 H 439.598 -0.874251 5.45033 0
M  V30 4459 H 440.075 -1.77904 4.01555 0
M  V30 4460 H 440.681 -0.123526 4.25121 0
M  V30 4461 N 438.996 -1.55193 0.274407 0
M  V30 4462 C 439.959 -2.212 -0.600279 0
M  V30 4463 C 440.959 -1.18963 -1.08187 0
M  V30 4464 O 442.149 -1.43873 -0.982158 0
M  V30 4465 C 439.281 -2.87739 -1.82809 0
M  V30 4466 H 440.474 -2.9989 -0.0239682 0
M  V30 4467 H 438.027 -1.5628 0.0250192 0
M  V30 4468 H 438.762 -2.13058 -2.44493 0
M  V30 4469 H 438.547 -3.62658 -1.49069 0
M  V30 4470 H 440.037 -3.38171 -2.45011 0
M  V30 4471 N 440.474 -0.00167713 -1.576 0
M  V30 4472 C 441.422 1.0074 -2.09652 0
M  V30 4473 C 442.416 1.35483 -1.01689 0
M  V30 4474 O 443.622 1.34028 -1.20152 0
M  V30 4475 H 439.997 0.342537 -0.669457 0
M  V30 4476 H 441.968 0.542841 -2.93421 0
M  V30 4477 C 440.717 2.2899 -2.61647 0
M  V30 4478 H 440.04 2.03124 -3.44355 0
M  V30 4479 H 441.48 2.9787 -3.01744 0
M  V30 4480 C 439.939 3.00085 -1.53136 0
M  V30 4481 O 440.469 3.91135 -0.91524 0
M  V30 4482 N 438.675 2.6194 -1.25841 0
M  V30 4483 H 438.222 1.8798 -1.76129 0
M  V30 4484 H 438.18 3.09822 -0.534576 0
M  V30 4485 N 441.952 1.55251 0.271103 0
M  V30 4486 C 442.885 1.83191 1.36075 0
M  V30 4487 C 443.863 0.685091 1.47463 0
M  V30 4488 O 445.047 0.928292 1.64058 0
M  V30 4489 C 442.174 1.99521 2.73696 0
M  V30 4490 C 441.22 3.22081 2.79582 0
M  V30 4491 S 442.053 4.79388 2.38636 0
M  V30 4492 C 443.209 4.98693 3.78228 0
M  V30 4493 H 443.442 2.75327 1.12171 0
M  V30 4494 H 440.975 1.47046 0.470833 0
M  V30 4495 H 442.933 2.09613 3.52948 0
M  V30 4496 H 441.594 1.0827 2.9485 0
M  V30 4497 H 440.787 3.304 3.80594 0
M  V30 4498 H 440.389 3.10589 2.08352 0
M  V30 4499 H 442.681 4.84551 4.73515 0
M  V30 4500 H 443.624 6.00738 3.7486 0
M  V30 4501 H 444.032 4.26665 3.69618 0
M  V30 4502 N 443.43 -0.535701 1.48216 0
M  V30 4503 C 444.36 -1.65014 1.65204 0
M  V30 4504 C 445.341 -1.62554 0.501011 0
M  V30 4505 O 446.526 -1.7984 0.732886 0
M  V30 4506 C 443.656 -3.03616 1.68626 0
M  V30 4507 C 442.61 -3.20932 2.83172 0
M  V30 4508 C 441.936 -4.60537 2.71679 0
M  V30 4509 C 443.236 -3.04249 4.24535 0
M  V30 4510 H 444.93 -1.51053 2.58502 0
M  V30 4511 H 442.476 -0.725262 1.24402 0
M  V30 4512 H 444.429 -3.81446 1.79099 0
M  V30 4513 H 443.153 -3.18587 0.719026 0
M  V30 4514 H 441.812 -2.45517 2.72244 0
M  V30 4515 H 441.46 -4.72336 1.72937 0
M  V30 4516 H 441.16 -4.73069 3.48538 0
M  V30 4517 H 442.684 -5.40475 2.84112 0
M  V30 4518 H 444.098 -3.71877 4.36326 0
M  V30 4519 H 442.495 -3.28278 5.02348 0
M  V30 4520 H 443.565 -2.00739 4.41397 0
M  V30 4521 N 444.908 -1.36708 -0.784132 0
M  V30 4522 C 446.324 -1.17237 -1.08294 0
M  V30 4523 C 446.524 -5.93947e-05 -2.015 0
M  V30 4524 O 445.58 0.663686 -2.43622 0
M  V30 4525 C 446.893 -2.48557 -1.69233 0
M  V30 4526 C 448.441 -2.54968 -1.8155 0
M  V30 4527 C 448.916 -3.86388 -2.45904 0
M  V30 4528 N 450.407 -3.87762 -2.53367 0
M  V30 4529 C 451.142 -4.86191 -3.03983 0
M  V30 4530 N 450.638 -5.95015 -3.54866 0
M  V30 4531 N 452.431 -4.73606 -3.02743 0
M  V30 4532 H 444.582 -2.11758 -0.16501 0
M  V30 4533 H 446.845 -0.93822 -0.135822 0
M  V30 4534 H 446.551 -3.34638 -1.08215 0
M  V30 4535 H 446.425 -2.64748 -2.68679 0
M  V30 4536 H 448.812 -1.69302 -2.41704 0
M  V30 4537 H 448.893 -2.42672 -0.80895 0
M  V30 4538 H 448.537 -4.72462 -1.86392 0
M  V30 4539 H 448.467 -3.95982 -3.4714 0
M  V30 4540 H 450.958 -3.09145 -2.17343 0
M  V30 4541 H 451.271 -6.66086 -3.91854 0
M  V30 4542 H 449.616 -5.98676 -3.53003 0
M  V30 4543 H 452.807 -3.87717 -2.62284 0
M  V30 4544 H 452.98 -5.50473 -3.41881 0
M  V30 4545 N 446.386 1.0089 -1.21074 0
M  V30 4546 C 447.296 2.13039 -0.982425 0
M  V30 4547 C 448.312 1.73881 0.0642161 0
M  V30 4548 O 449.488 2.01012 -0.12496 0
M  V30 4549 C 446.553 3.42377 -0.545803 0
M  V30 4550 C 445.614 3.95731 -1.6642 0
M  V30 4551 C 444.847 5.18896 -1.24832 0
M  V30 4552 O 445.07 5.70273 -0.120265 0
M  V30 4553 O 444.004 5.65597 -2.05873 0
M  V30 4554 H 447.83 2.35175 -1.92163 0
M  V30 4555 H 445.415 1.1142 -0.995285 0
M  V30 4556 H 447.297 4.20244 -0.311912 0
M  V30 4557 H 445.972 3.21639 0.364727 0
M  V30 4558 H 444.879 3.19108 -1.95246 0
M  V30 4559 H 446.212 4.20872 -2.55201 0
M  V30 4560 N 447.864 1.01787 1.20321 0
M  V30 4561 C 448.796 0.547357 2.22568 0
M  V30 4562 C 449.809 -0.370922 1.58518 0
M  V30 4563 O 450.998 -0.169067 1.77698 0
M  V30 4564 C 448.098 -0.223031 3.38165 0
M  V30 4565 C 447.271 0.697472 4.31803 0
M  V30 4566 C 446.33 -0.025562 5.26194 0
M  V30 4567 O 445.356 0.597367 5.66057 0
M  V30 4568 N 446.558 -1.29999 5.65757 0
M  V30 4569 H 449.323 1.42668 2.63564 0
M  V30 4570 H 446.884 0.895552 1.34876 0
M  V30 4571 H 448.876 -0.716002 3.98316 0
M  V30 4572 H 447.446 -1.00366 2.9605 0
M  V30 4573 H 446.666 1.37073 3.69601 0
M  V30 4574 H 447.954 1.32347 4.91286 0
M  V30 4575 H 447.352 -1.827 5.35385 0
M  V30 4576 H 445.909 -1.73766 6.28211 0
M  V30 4577 N 449.342 -1.36122 0.79427 0
M  V30 4578 C 450.588 -1.99406 0.369452 0
M  V30 4579 C 450.921 -1.62886 -1.05743 0
M  V30 4580 O 450.196 -0.886053 -1.73145 0
M  V30 4581 C 450.479 -3.56046 0.538833 0
M  V30 4582 C 450.332 -4.02404 2.00976 0
M  V30 4583 C 451.651 -4.40079 -0.0431359 0
M  V30 4584 H 448.77 -0.724397 0.135712 0
M  V30 4585 H 451.412 -1.61461 1.00151 0
M  V30 4586 H 449.562 -3.885 0.000771004 0
M  V30 4587 H 451.234 -3.80415 2.60926 0
M  V30 4588 H 449.477 -3.53765 2.51063 0
M  V30 4589 H 450.148 -5.11344 2.07922 0
M  V30 4590 H 452.624 -4.14013 0.416228 0
M  V30 4591 H 451.5 -5.48799 0.105374 0
M  V30 4592 H 451.761 -4.27264 -1.13571 0
M  V30 4593 N 450.82 -0.546701 -1.47814 0
M  V30 4594 C 451.783 0.196287 -2.28358 0
M  V30 4595 C 452.783 0.852437 -1.36346 0
M  V30 4596 O 453.973 0.709913 -1.59078 0
M  V30 4597 C 451.105 1.28579 -3.15722 0
M  V30 4598 H 452.298 -0.511086 -2.95513 0
M  V30 4599 H 449.851 -0.303248 -1.5333 0
M  V30 4600 H 450.586 2.0259 -2.53235 0
M  V30 4601 H 450.371 0.820229 -3.83425 0
M  V30 4602 H 451.861 1.80793 -3.76435 0
M  V30 4603 N 452.299 1.55045 -0.282633 0
M  V30 4604 C 453.231 2.2023 0.634924 0
M  V30 4605 C 454.244 1.18931 1.11172 0
M  V30 4606 O 455.433 1.4562 1.03233 0
M  V30 4607 C 452.533 2.82041 1.87899 0
M  V30 4608 C 451.706 4.091 1.54776 0
M  V30 4609 C 450.765 4.54887 2.64507 0
M  V30 4610 O 449.791 5.20496 2.30375 0
M  V30 4611 N 450.993 4.25659 3.94709 0
M  V30 4612 H 453.758 2.99601 0.0769811 0
M  V30 4613 H 451.319 1.61565 -0.104048 0
M  V30 4614 H 453.311 3.09613 2.60619 0
M  V30 4615 H 451.881 2.06618 2.3458 0
M  V30 4616 H 451.101 3.88736 0.654049 0
M  V30 4617 H 452.389 4.9187 1.30158 0
M  V30 4618 H 451.787 3.7306 4.25256 0
M  V30 4619 H 450.344 4.57984 4.63782 0
M  V30 4620 N 453.777 0.010035 1.57597 0
M  V30 4621 C 454.707 -0.976857 2.12084 0
M  V30 4622 C 455.688 -1.35191 1.03235 0
M  V30 4623 O 456.873 -1.43389 1.3097 0
M  V30 4624 C 454.003 -2.26548 2.63236 0
M  V30 4625 C 452.957 -2.03175 3.76701 0
M  V30 4626 C 452.283 -3.38138 4.14206 0
M  V30 4627 C 453.583 -1.38625 5.03568 0
M  V30 4628 H 455.277 -0.523145 2.94794 0
M  V30 4629 H 452.823 -0.250195 1.4181 0
M  V30 4630 H 454.776 -2.95952 2.99984 0
M  V30 4631 H 453.5 -2.74051 1.77661 0
M  V30 4632 H 452.159 -1.36195 3.40362 0
M  V30 4633 H 451.807 -3.83363 3.25641 0
M  V30 4634 H 451.507 -3.23312 4.90656 0
M  V30 4635 H 453.031 -4.08841 4.53521 0
M  V30 4636 H 454.445 -1.98 5.38023 0
M  V30 4637 H 452.842 -1.34256 5.84889 0
M  V30 4638 H 453.912 -0.356722 4.83586 0
M  V30 4639 N 455.255 -1.55392 -0.262866 0
M  V30 4640 C 456.202 -1.88966 -1.32516 0
M  V30 4641 C 457.172 -0.742187 -1.48596 0
M  V30 4642 O 458.357 -0.99439 -1.62839 0
M  V30 4643 C 455.497 -2.17592 -2.67858 0
M  V30 4644 C 454.61 -3.45061 -2.59917 0
M  V30 4645 C 453.745 -3.63336 -3.87505 0
M  V30 4646 C 452.784 -4.84462 -3.74116 0
M  V30 4647 N 451.921 -4.99342 -4.93561 0
M  V30 4648 H 456.761 -2.79566 -1.03184 0
M  V30 4649 H 454.298 -1.38404 -0.498285 0
M  V30 4650 H 456.256 -2.3219 -3.46617 0
M  V30 4651 H 454.886 -1.30215 -2.95371 0
M  V30 4652 H 453.938 -3.38881 -1.72812 0
M  V30 4653 H 455.25 -4.3396 -2.45926 0
M  V30 4654 H 454.404 -3.77807 -4.74707 0
M  V30 4655 H 453.143 -2.72641 -4.04374 0
M  V30 4656 H 452.148 -4.69985 -2.85297 0
M  V30 4657 H 453.373 -5.76603 -3.58757 0
M  V30 4658 H 451.319 -4.1158 -5.10821 0
M  V30 4659 H 451.236 -5.82303 -4.82141 0
M  V30 4660 H 452.504 -5.18208 -5.82306 0
M  V30 4661 N 456.733 0.527833 -1.48498 0
M  V30 4662 C 457.665 1.6482 -1.5927 0
M  V30 4663 C 458.678 1.55659 -0.476869 0
M  V30 4664 O 459.867 1.62081 -0.747806 0
M  V30 4665 C 456.967 3.0348 -1.50842 0
M  V30 4666 C 456.14 3.381 -2.77502 0
M  V30 4667 C 455.199 4.5605 -2.62497 0
M  V30 4668 O 454.225 4.59165 -3.36387 0
M  V30 4669 N 455.427 5.54353 -1.72257 0
M  V30 4670 H 458.192 1.56015 -2.55889 0
M  V30 4671 H 455.753 0.715152 -1.45249 0
M  V30 4672 H 457.745 3.80264 -1.38496 0
M  V30 4673 H 456.315 3.06352 -0.621887 0
M  V30 4674 H 455.535 2.50473 -3.04396 0
M  V30 4675 H 456.823 3.58017 -3.61527 0
M  V30 4676 H 456.221 5.54617 -1.11431 0
M  V30 4677 H 454.778 6.30347 -1.65849 0
M  V30 4678 N 458.211 1.37122 0.776871 0
M  V30 4679 C 459.158 1.3247 1.88998 0
M  V30 4680 C 460.128 0.191143 1.64997 0
M  V30 4681 O 461.313 0.379683 1.86984 0
M  V30 4682 C 458.453 1.13241 3.25992 0
M  V30 4683 C 457.566 2.35782 3.61982 0
M  V30 4684 C 456.701 2.09465 4.88158 0
M  V30 4685 C 455.74 3.279 5.16864 0
M  V30 4686 N 454.877 3.01167 6.34226 0
M  V30 4687 H 459.717 2.27642 1.9231 0
M  V30 4688 H 457.254 1.13125 0.94027 0
M  V30 4689 H 459.212 1.00115 4.0501 0
M  V30 4690 H 457.842 0.217186 3.22069 0
M  V30 4691 H 456.894 2.59666 2.77989 0
M  V30 4692 H 458.206 3.24125 3.79137 0
M  V30 4693 H 457.36 1.93341 5.75069 0
M  V30 4694 H 456.099 1.18452 4.73097 0
M  V30 4695 H 455.104 3.44569 4.2843 0
M  V30 4696 H 456.329 4.19757 5.33836 0
M  V30 4697 H 454.275 2.12779 6.20533 0
M  V30 4698 H 454.192 3.83052 6.51772 0
M  V30 4699 H 455.46 2.88649 7.24087 0
M  V30 4700 N 459.689 -1.00246 1.21608 0
M  V30 4701 C 460.935 -1.74319 1.03638 0
M  V30 4702 C 461.268 -1.89408 -0.428749 0
M  V30 4703 O 460.543 -1.43026 -1.3181 0
M  V30 4704 C 460.826 -3.15431 1.73711 0
M  V30 4705 C 460.679 -3.08049 3.27759 0
M  V30 4706 C 461.998 -4.14407 1.48173 0
M  V30 4707 H 459.117 -0.632741 0.377899 0
M  V30 4708 H 461.759 -1.16853 1.49818 0
M  V30 4709 H 459.909 -3.64493 1.34452 0
M  V30 4710 H 461.581 -2.66681 3.76403 0
M  V30 4711 H 459.824 -2.45088 3.57931 0
M  V30 4712 H 460.495 -4.07862 3.71958 0
M  V30 4713 H 462.971 -3.74061 1.82258 0
M  V30 4714 H 461.847 -5.11279 1.99713 0
M  V30 4715 H 462.108 -4.40174 0.412273 0
M  V30 4716 N 461.167 -1.02423 -1.1978 0
M  V30 4717 C 462.1 -0.545641 -2.21581 0
M  V30 4718 C 463.078 0.411024 -1.57319 0
M  V30 4719 O 464.262 0.329223 -1.85603 0
M  V30 4720 C 461.389 0.204973 -3.38079 0
M  V30 4721 C 460.435 -0.70241 -4.20676 0
M  V30 4722 S 461.268 -2.17595 -4.89298 0
M  V30 4723 C 462.424 -1.43572 -6.09211 0
M  V30 4724 H 462.657 -1.4082 -2.61834 0
M  V30 4725 H 460.19 -0.833771 -1.29952 0
M  V30 4726 H 462.148 0.631924 -4.05607 0
M  V30 4727 H 460.809 1.0432 -2.9627 0
M  V30 4728 H 460.002 -0.123193 -5.03849 0
M  V30 4729 H 459.604 -1.06747 -3.58442 0
M  V30 4730 H 461.896 -0.719806 -6.73665 0
M  V30 4731 H 462.839 -2.24388 -6.71607 0
M  V30 4732 H 463.247 -0.935252 -5.56699 0
M  V30 4733 N 462.645 1.35699 -0.801477 0
M  V30 4734 C 463.593 2.3177 -0.196317 0
M  V30 4735 C 464.587 1.56388 0.651081 0
M  V30 4736 O 465.793 1.71557 0.544815 0
M  V30 4737 H 462.168 0.750669 -0.0447189 0
M  V30 4738 H 464.139 2.8036 -1.02181 0
M  V30 4739 C 462.888 3.41671 0.644702 0
M  V30 4740 H 462.211 3.998 0.0019921 0
M  V30 4741 H 463.651 4.11184 1.0346 0
M  V30 4742 C 462.11 2.84271 1.80808 0
M  V30 4743 O 462.64 2.77408 2.9053 0
M  V30 4744 N 460.846 2.41391 1.61799 0
M  V30 4745 H 460.393 2.47173 0.725493 0
M  V30 4746 H 460.351 2.03334 2.39797 0
M  V30 4747 N 464.123 0.554532 1.47522 0
M  V30 4748 C 465.073 -0.215008 2.26984 0
M  V30 4749 C 466.057 -0.88774 1.34194 0
M  V30 4750 O 467.249 -0.786489 1.58567 0
M  V30 4751 C 464.378 -1.24604 3.19889 0
M  V30 4752 C 463.464 -0.576857 4.20159 0
M  V30 4753 N 463.855 0.351541 5.04577 0
M  V30 4754 C 462.153 -0.831104 4.38188 0
M  V30 4755 C 462.854 0.739995 5.76974 0
M  V30 4756 N 461.83 0.0954407 5.43516 0
M  V30 4757 H 465.632 0.498843 2.89636 0
M  V30 4758 H 463.146 0.374279 1.58028 0
M  V30 4759 H 465.143 -1.81128 3.75498 0
M  V30 4760 H 463.803 -1.96101 2.58794 0
M  V30 4761 H 464.814 0.725556 5.12792 0
M  V30 4762 H 461.491 -1.53479 3.88266 0
M  V30 4763 H 462.881 1.50271 6.5488 0
M  V30 4764 N 465.601 -1.54893 0.290851 0
M  V30 4765 C 466.847 -2.0023 -0.321867 0
M  V30 4766 C 467.18 -1.179 -1.54316 0
M  V30 4767 O 466.455 -0.25293 -1.92848 0
M  V30 4768 C 466.738 -3.53456 -0.688515 0
M  V30 4769 C 466.591 -4.46532 0.541209 0
M  V30 4770 C 467.91 -4.13057 -1.51895 0
M  V30 4771 H 465.029 -0.727891 -0.115515 0
M  V30 4772 H 467.671 -1.85722 0.400931 0
M  V30 4773 H 465.821 -3.6595 -1.30433 0
M  V30 4774 H 467.493 -4.4596 1.17973 0
M  V30 4775 H 465.736 -4.17545 1.17636 0
M  V30 4776 H 466.407 -5.51475 0.240675 0
M  V30 4777 H 468.883 -4.03937 -0.99872 0
M  V30 4778 H 467.759 -5.20448 -1.74429 0
M  V30 4779 H 468.02 -3.64284 -2.50498 0
M  V30 4780 N 467.08 -0.0183926 -1.57589 0
M  V30 4781 C 468.028 0.985111 -2.10709 0
M  V30 4782 C 469.022 1.34397 -1.0312 0
M  V30 4783 O 470.228 1.32746 -1.21567 0
M  V30 4784 H 466.603 0.335418 -0.673052 0
M  V30 4785 H 468.574 0.511689 -2.9398 0
M  V30 4786 C 467.323 2.26202 -2.64061 0
M  V30 4787 H 466.646 1.9946 -3.4649 0
M  V30 4788 H 468.086 2.94652 -3.04887 0
M  V30 4789 C 466.545 2.98444 -1.5631 0
M  V30 4790 O 467.075 3.90142 -0.956674 0
M  V30 4791 N 465.281 2.6059 -1.28612 0
M  V30 4792 H 464.828 1.86101 -1.78112 0
M  V30 4793 H 464.786 3.09238 -0.567406 0
M  V30 4794 N 468.558 1.5553 0.254621 0
M  V30 4795 C 469.783 1.81383 1.00573 0
M  V30 4796 C 470.208 0.594419 1.78461 0
M  V30 4797 O 469.566 -0.456403 1.75461 0
M  V30 4798 C 469.614 3.04892 1.92545 0
M  V30 4799 O 468.718 2.81266 3.01601 0
M  V30 4800 H 468.059 0.598969 0.286587 0
M  V30 4801 H 470.589 2.02703 0.277952 0
M  V30 4802 H 470.599 3.34119 2.34155 0
M  V30 4803 H 469.274 3.93287 1.3527 0
M  V30 4804 H 467.851 2.63185 2.64174 0
M  V30 4805 N 470.036 -0.519951 1.48776 0
M  V30 4806 C 471.284 -1.2727 1.56993 0
M  V30 4807 C 471.605 -1.9339 0.25004 0
M  V30 4808 O 470.875 -1.81822 -0.729216 0
M  V30 4809 H 469.455 -0.472732 0.578389 0
M  V30 4810 H 472.117 -0.604234 1.85297 0
M  V30 4811 H 471.213 -2.04669 2.3562 0
M  V30 4812 N 471.514 -1.37532 -0.769588 0
M  V30 4813 C 472.754 -1.34261 -1.54122 0
M  V30 4814 C 473.118 0.0717222 -1.91866 0
M  V30 4815 O 474.319 0.22918 -2.67821 0
M  V30 4816 C 472.59 -2.2574 -2.77086 0
M  V30 4817 S 474.149 -2.40339 -3.67127 0
M  V30 4818 H 470.967 -0.476595 -0.527615 0
M  V30 4819 H 473.569 -1.73303 -0.90479 0
M  V30 4820 H 472.273 -3.27417 -2.4744 0
M  V30 4821 H 471.804 -1.87789 -3.45686 0
M  V30 4822 H 473.819 -1.61558 -4.69163 0
M  V30 4823 N 472.992 0.995999 -1.22138 0
M  V30 4824 C 473.924 2.08745 -0.946485 0
M  V30 4825 C 474.937 1.62633 0.0737356 0
M  V30 4826 O 476.126 1.77782 -0.159886 0
M  V30 4827 C 473.226 3.36516 -0.401305 0
M  V30 4828 C 472.399 4.11672 -1.47801 0
M  V30 4829 C 471.458 5.17728 -0.940461 0
M  V30 4830 O 470.484 5.45482 -1.62596 0
M  V30 4831 N 471.686 5.80005 0.239723 0
M  V30 4832 H 474.451 2.32908 -1.88611 0
M  V30 4833 H 472.012 1.16152 -1.12785 0
M  V30 4834 H 474.004 4.04691 -0.0270837 0
M  V30 4835 H 472.574 3.0944 0.443354 0
M  V30 4836 H 471.794 3.38171 -2.02568 0
M  V30 4837 H 473.082 4.58657 -2.20253 0
M  V30 4838 H 472.48 5.5982 0.813518 0
M  V30 4839 H 471.037 6.4943 0.555361 0
M  V30 4840 N 474.47 1.03057 1.19235 0
M  V30 4841 C 475.4 0.633497 2.24742 0
M  V30 4842 C 476.381 -0.358335 1.66283 0
M  V30 4843 O 477.566 -0.240676 1.92703 0
M  V30 4844 C 474.696 -0.0147648 3.47297 0
M  V30 4845 C 473.65 0.899527 4.18441 0
M  V30 4846 C 472.976 0.116281 5.34574 0
M  V30 4847 C 474.276 2.21404 4.73051 0
M  V30 4848 H 475.97 1.5155 2.58211 0
M  V30 4849 H 473.516 0.73014 1.24117 0
M  V30 4850 H 475.469 -0.304202 4.20301 0
M  V30 4851 H 474.193 -0.931577 3.13032 0
M  V30 4852 H 472.852 1.17319 3.47321 0
M  V30 4853 H 472.5 -0.802619 4.96555 0
M  V30 4854 H 472.2 0.725293 5.83107 0
M  V30 4855 H 473.724 -0.166376 6.10373 0
M  V30 4856 H 475.138 1.98601 5.37802 0
M  V30 4857 H 473.535 2.77512 5.32078 0
M  V30 4858 H 474.605 2.86752 3.91026 0
M  V30 4859 N 475.948 -1.35272 0.808662 0
M  V30 4860 C 476.881 -2.27595 0.165994 0
M  V30 4861 C 477.859 -1.48189 -0.669241 0
M  V30 4862 O 479.043 -1.77444 -0.636073 0
M  V30 4863 C 476.17 -3.29843 -0.769505 0
M  V30 4864 C 475.216 -4.26498 -0.0136267 0
M  V30 4865 S 476.049 -5.18878 1.32384 0
M  V30 4866 C 477.205 -6.24666 0.392838 0
M  V30 4867 H 477.438 -2.81755 0.948756 0
M  V30 4868 H 474.971 -1.42103 0.603828 0
M  V30 4869 H 476.929 -3.89247 -1.30374 0
M  V30 4870 H 475.59 -2.74558 -1.52567 0
M  V30 4871 H 474.783 -4.98769 -0.724227 0
M  V30 4872 H 474.385 -3.71274 0.450713 0
M  V30 4873 H 476.677 -6.7619 -0.4211 0
M  V30 4874 H 477.62 -6.99741 1.0848 0
M  V30 4875 H 478.028 -5.64499 -0.0123908 0
M  V30 4876 N 477.426 -0.562348 -1.47226 0
M  V30 4877 C 478.356 0.170627 -2.32876 0
M  V30 4878 C 479.337 0.903748 -1.44106 0
M  V30 4879 O 480.522 0.883206 -1.72954 0
M  V30 4880 C 477.652 1.19786 -3.25989 0
M  V30 4881 C 476.606 0.580875 -4.2404 0
M  V30 4882 C 475.932 1.71311 -5.06514 0
M  V30 4883 C 477.232 -0.468714 -5.20193 0
M  V30 4884 H 478.926 -0.544441 -2.94408 0
M  V30 4885 H 476.472 -0.263271 -1.41573 0
M  V30 4886 H 478.425 1.71884 -3.84752 0
M  V30 4887 H 477.149 1.94294 -2.62521 0
M  V30 4888 H 475.808 0.0811538 -3.6651 0
M  V30 4889 H 475.456 2.44736 -4.39447 0
M  V30 4890 H 475.156 1.30604 -5.72902 0
M  V30 4891 H 476.68 2.23725 -5.68137 0
M  V30 4892 H 478.094 -0.0336028 -5.7329 0
M  V30 4893 H 476.491 -0.794957 -5.94811 0
M  V30 4894 H 477.561 -1.36269 -4.65359 0
M  V30 4895 N 478.904 1.54736 -0.299062 0
M  V30 4896 C 480.132 2.04512 0.313447 0
M  V30 4897 C 480.547 1.17643 1.47667 0
M  V30 4898 O 479.904 0.20164 1.81383 0
M  V30 4899 C 479.955 3.53171 0.771542 0
M  V30 4900 O 479.676 4.36736 -0.345379 0
M  V30 4901 C 481.177 4.18936 1.4494 0
M  V30 4902 H 478.397 0.667507 0.0683784 0
M  V30 4903 H 480.941 1.99752 -0.438129 0
M  V30 4904 H 479.096 3.58298 1.47314 0
M  V30 4905 H 479.51 5.24499 0.0109219 0
M  V30 4906 H 480.984 5.24482 1.72111 0
M  V30 4907 H 481.461 3.68554 2.38883 0
M  V30 4908 H 482.067 4.17879 0.791028 0
M  V30 4909 N 480.382 0.0267497 1.57577 0
M  V30 4910 C 481.314 -0.984594 2.06974 0
M  V30 4911 C 482.327 -1.29032 0.992705 0
M  V30 4912 O 483.516 -1.25539 1.26895 0
M  V30 4913 C 480.616 -2.31262 2.47732 0
M  V30 4914 C 479.789 -2.1924 3.78487 0
M  V30 4915 C 478.848 -3.34956 4.05821 0
M  V30 4916 O 477.874 -3.11948 4.76106 0
M  V30 4917 N 479.076 -4.58672 3.55809 0
M  V30 4918 H 481.841 -0.563143 2.94362 0
M  V30 4919 H 479.402 -0.160061 1.61107 0
M  V30 4920 H 481.394 -3.07496 2.63112 0
M  V30 4921 H 479.964 -2.65056 1.65723 0
M  V30 4922 H 479.184 -1.27747 3.72927 0
M  V30 4923 H 480.472 -2.08409 4.64158 0
M  V30 4924 H 479.87 -4.8026 2.98942 0
M  V30 4925 H 478.427 -5.32083 3.76472 0
M  V30 4926 N 481.861 -1.55662 -0.24637 0
M  V30 4927 C 482.793 -1.86811 -1.32794 0
M  V30 4928 C 483.806 -0.754413 -1.44265 0
M  V30 4929 O 484.995 -1.03253 -1.45606 0
M  V30 4930 C 482.095 -2.0397 -2.70646 0
M  V30 4931 C 481.268 -3.34832 -2.81436 0
M  V30 4932 C 480.327 -3.41727 -4.00136 0
M  V30 4933 O 479.353 -4.14934 -3.89639 0
M  V30 4934 N 480.555 -2.71058 -5.1333 0
M  V30 4935 H 483.32 -2.80174 -1.06409 0
M  V30 4936 H 480.881 -1.55906 -0.43647 0
M  V30 4937 H 482.873 -2.05924 -3.48393 0
M  V30 4938 H 481.443 -1.1735 -2.89738 0
M  V30 4939 H 480.663 -3.4519 -1.90361 0
M  V30 4940 H 481.951 -4.21085 -2.85595 0
M  V30 4941 H 481.349 -2.11314 -5.2475 0
M  V30 4942 H 479.906 -2.78704 -5.89209 0
M  V30 4943 N 483.339 0.512053 -1.4905 0
M  V30 4944 C 484.269 1.62365 -1.67809 0
M  V30 4945 C 485.25 1.61737 -0.526809 0
M  V30 4946 O 486.435 1.78651 -0.761404 0
M  V30 4947 C 483.565 3.00895 -1.73435 0
M  V30 4948 C 482.519 3.16387 -2.88242 0
M  V30 4949 C 481.845 4.56157 -2.78971 0
M  V30 4950 C 483.145 2.97457 -4.29321 0
M  V30 4951 H 484.839 1.46921 -2.60873 0
M  V30 4952 H 482.385 0.705379 -1.2554 0
M  V30 4953 H 484.338 3.78549 -1.85145 0
M  V30 4954 H 483.062 3.17403 -0.769619 0
M  V30 4955 H 481.721 2.41155 -2.76116 0
M  V30 4956 H 481.369 4.69525 -1.8043 0
M  V30 4957 H 481.069 4.67465 -3.5602 0
M  V30 4958 H 482.593 5.35886 -2.92675 0
M  V30 4959 H 484.007 3.64888 -4.42187 0
M  V30 4960 H 482.404 3.20245 -5.07507 0
M  V30 4961 H 483.474 1.93692 -4.44535 0
M  V30 4962 N 484.817 1.37938 0.762283 0
M  V30 4963 C 485.749 1.30349 1.88525 0
M  V30 4964 C 486.762 0.217402 1.61342 0
M  V30 4965 O 487.951 0.474291 1.72084 0
M  V30 4966 C 485.051 0.994844 3.23969 0
M  V30 4967 C 484.224 2.18829 3.78725 0
M  V30 4968 C 483.283 1.84844 4.92665 0
M  V30 4969 O 482.309 2.57244 5.07754 0
M  V30 4970 N 483.511 0.798201 5.74986 0
M  V30 4971 H 486.276 2.27114 1.95549 0
M  V30 4972 H 483.837 1.31686 0.941825 0
M  V30 4973 H 485.829 0.748168 3.97724 0
M  V30 4974 H 484.399 0.115446 3.12387 0
M  V30 4975 H 483.619 2.59615 2.96637 0
M  V30 4976 H 484.907 2.98497 4.1204 0
M  V30 4977 H 484.305 0.197611 5.65355 0
M  V30 4978 H 482.862 0.611396 6.48926 0
M  V30 4979 N 486.295 -0.989507 1.22664 0
M  V30 4980 C 487.523 -1.76496 1.07967 0
M  V30 4981 C 487.938 -1.85148 -0.369543 0
M  V30 4982 O 487.295 -1.32408 -1.25596 0
M  V30 4983 C 487.346 -3.19642 1.68853 0
M  V30 4984 O 487.067 -3.11453 3.08105 0
M  V30 4985 C 488.568 -4.13621 1.59475 0
M  V30 4986 H 485.788 -0.55418 0.378319 0
M  V30 4987 H 488.332 -1.24378 1.62328 0
M  V30 4988 H 486.487 -3.68816 1.18547 0
M  V30 4989 H 486.901 -4.01499 3.37489 0
M  V30 4990 H 488.375 -5.11801 2.06795 0
M  V30 4991 H 488.852 -4.35718 0.55191 0
M  V30 4992 H 489.458 -3.70346 2.09103 0
M  V30 4993 N 487.773 -1.03688 -1.18687 0
M  V30 4994 C 489.02 -0.73803 -1.88572 0
M  V30 4995 C 489.348 0.733973 -1.8012 0
M  V30 4996 O 488.603 1.55098 -1.19344 0
M  V30 4997 C 488.902 -1.14477 -3.3857 0
M  V30 4998 C 488.568 -2.61641 -3.67226 0
M  V30 4999 C 487.23 -3.01846 -3.74757 0
M  V30 5000 C 489.582 -3.56812 -3.79914 0
M  V30 5001 C 486.91 -4.36118 -3.92451 0
M  V30 5002 C 489.262 -4.90799 -3.99123 0
M  V30 5003 C 487.926 -5.3068 -4.04888 0
M  V30 5004 H 487.196 -0.270064 -0.690034 0
M  V30 5005 H 489.843 -1.3012 -1.40503 0
M  V30 5006 H 488.148 -0.500337 -3.88592 0
M  V30 5007 H 489.845 -0.89095 -3.90977 0
M  V30 5008 H 486.435 -2.29498 -3.61979 0
M  V30 5009 H 490.619 -3.26899 -3.73431 0
M  V30 5010 H 485.875 -4.66542 -3.95157 0
M  V30 5011 H 490.049 -5.64451 -4.07882 0
M  V30 5012 H 487.676 -6.34733 -4.18351 0
M  V30 5013 O 489.29 1.30511 -0.951271 0
M  V30 5014 H 489.981 1.84711 -0.583235 0
M  V30 END ATOM
M  V30 BEGIN BOND
M  V30 END BOND
M  V30 END CTAB
M  END
$$$$
