drugbank_target|Q06187 Tyrosine-protein kinase BTK (DB01254; DB01863; DB05204; DB09053; DB11703; DB12010; DB15035; DB15327)
 OpenBabel12092119513D

  0  0  0     0  0            999 V3000
M  V30 BEGIN CTAB
M  V30 COUNTS 10680 10814 0 0 0
M  V30 BEGIN ATOM
M  V30 1 H -0.908 1.98254 -0.117106 0
M  V30 2 N 0 1.576 0 0
M  V30 3 C 0.933 2.03868 1.02534 0
M  V30 4 C 1.911 0.928543 1.3348 0
M  V30 5 O 3.095 1.19667 1.45644 0
M  V30 6 C 0.222 2.43627 2.35294 0
M  V30 7 C -0.732 3.65373 2.2001 0
M  V30 8 S 0.101 5.13292 1.52614 0
M  V30 9 C 1.257 5.56322 2.86805 0
M  V30 10 H 1.49 2.90518 0.631377 0
M  V30 11 H -0.977 1.52953 0.210867 0
M  V30 12 H 0.981 2.67203 3.11629 0
M  V30 13 H -0.358 1.57376 2.7183 0
M  V30 14 H -1.165 3.90944 3.18086 0
M  V30 15 H -1.563 3.418 1.51819 0
M  V30 16 H 0.729 5.58782 3.83104 0
M  V30 17 H 1.672 6.56266 2.65933 0
M  V30 18 H 2.08 4.83886 2.90714 0
M  V30 19 N 1.4781 -0.272755 1.55222 0
M  V30 20 C 2.4411 -1.32041 1.87344 0
M  V30 21 C 3.4411 -1.42342 0.74803 0
M  V30 22 O 4.6311 -1.41488 1.0162 0
M  V30 23 C 1.7631 -2.70173 2.07893 0
M  V30 24 H 2.9561 -1.04789 2.80997 0
M  V30 25 H 0.5091 -0.51083 1.47717 0
M  V30 26 H 1.2441 -3.02605 1.16622 0
M  V30 27 H 1.0291 -2.64082 2.89833 0
M  V30 28 H 2.5191 -3.45869 2.34017 0
M  V30 29 N 2.9562 -1.48159 -0.537278 0
M  V30 30 C 3.9192 -1.61665 -1.62472 0
M  V30 31 C 4.9192 -0.490395 -1.5314 0
M  V30 32 O 6.1092 -0.755998 -1.5694 0
M  V30 33 C 3.2412 -1.57997 -3.02076 0
M  V30 34 H 4.4342 -2.58621 -1.51839 0
M  V30 35 H 1.9872 -1.36647 -0.758771 0
M  V30 36 H 2.7222 -0.624913 -3.18222 0
M  V30 37 H 2.5072 -2.39755 -3.10258 0
M  V30 38 H 3.9972 -1.70627 -3.81151 0
M  V30 39 N 4.4343 0.785586 -1.36625 0
M  V30 40 C 5.6803 1.54591 -1.31261 0
M  V30 41 C 6.0133 1.93906 0.106823 0
M  V30 42 O 5.2883 1.63007 1.06108 0
M  V30 43 C 5.5713 2.82038 -2.23889 0
M  V30 44 C 5.4243 2.49066 -3.74548 0
M  V30 45 C 6.7433 3.83887 -2.15217 0
M  V30 46 H 3.8623 0.560846 -0.478143 0
M  V30 47 H 6.5043 0.902278 -1.67209 0
M  V30 48 H 4.6543 3.36961 -1.93363 0
M  V30 49 H 6.3263 2.00164 -4.15611 0
M  V30 50 H 4.5693 1.81954 -3.93796 0
M  V30 51 H 5.2403 3.40109 -4.34776 0
M  V30 52 H 7.7163 3.38421 -2.42096 0
M  V30 53 H 6.5923 4.70806 -2.82193 0
M  V30 54 H 6.8533 4.27131 -1.14068 0
M  V30 55 N 5.9124 1.20967 1.01018 0
M  V30 56 C 7.1614 1.01796 1.74128 0
M  V30 57 C 7.4744 -0.449691 1.90361 0
M  V30 58 O 8.6804 -0.76068 2.60626 0
M  V30 59 C 7.1364 1.7727 3.13215 0
M  V30 60 C 6.7444 3.28171 3.04972 0
M  V30 61 C 8.4884 1.66489 3.90489 0
M  V30 62 C 6.3954 3.96156 4.39107 0
M  V30 63 H 5.3254 0.377276 0.652824 0
M  V30 64 H 7.9764 1.44651 1.12909 0
M  V30 65 H 6.3584 1.27205 3.75013 0
M  V30 66 H 7.5324 3.85499 2.52443 0
M  V30 67 H 5.8474 3.39437 2.41188 0
M  V30 68 H 8.4444 2.14617 4.89738 0
M  V30 69 H 8.7874 0.6222 4.11624 0
M  V30 70 H 9.3204 2.14003 3.35332 0
M  V30 71 H 6.0594 5.00604 4.23174 0
M  V30 72 H 5.5794 3.43617 4.91617 0
M  V30 73 H 7.2584 4.00774 5.07926 0
M  V30 74 N 7.3905 -1.2043 1.01659 0
M  V30 75 C 8.3205 -2.25466 0.607226 0
M  V30 76 C 9.3015 -1.65853 -0.377716 0
M  V30 77 O 10.4865 -1.92409 -0.263149 0
M  V30 78 C 7.6165 -3.47256 -0.0552949 0
M  V30 79 C 6.5705 -4.19462 0.850632 0
M  V30 80 C 5.8965 -5.34673 0.0538859 0
M  V30 81 C 7.1965 -4.75603 2.15868 0
M  V30 82 H 8.8905 -2.59962 1.48526 0
M  V30 83 H 6.4365 -1.2496 0.715605 0
M  V30 84 H 8.3895 -4.19917 -0.353233 0
M  V30 85 H 7.1135 -3.11924 -0.968045 0
M  V30 86 H 5.7725 -3.48667 1.13257 0
M  V30 87 H 5.4205 -4.95585 -0.860514 0
M  V30 88 H 5.1205 -5.83913 0.657192 0
M  V30 89 H 6.6445 -6.10138 -0.237598 0
M  V30 90 H 8.0585 -5.40083 1.92311 0
M  V30 91 H 6.4555 -5.3528 2.71284 0
M  V30 92 H 7.5255 -3.94346 2.82169 0
M  V30 93 N 8.8686 -0.792821 -1.36206 0
M  V30 94 C 9.7786 -0.194808 -2.3379 0
M  V30 95 C 10.7946 0.654869 -1.61206 0
M  V30 96 O 11.9706 0.569856 -1.9317 0
M  V30 97 C 9.0356 0.657721 -3.40404 0
M  V30 98 C 8.0966 -0.210849 -4.28782 0
M  V30 99 C 7.3296 0.601086 -5.30304 0
M  V30 100 O 7.5526 1.83682 -5.40016 0
M  V30 101 O 6.4866 -0.000808277 -6.019 0
M  V30 102 H 10.3126 -1.00172 -2.86704 0
M  V30 103 H 7.8976 -0.554341 -1.38735 0
M  V30 104 H 9.7796 1.14375 -4.05581 0
M  V30 105 H 8.4546 1.44247 -2.89784 0
M  V30 106 H 7.3616 -0.743714 -3.66633 0
M  V30 107 H 8.6946 -0.959195 -4.82763 0
M  V30 108 N 10.3467 1.47872 -0.545128 0
M  V30 109 C 11.5717 2.07391 -0.0190611 0
M  V30 110 C 11.9967 1.39688 1.25971 0
M  V30 111 O 11.3547 0.467816 1.7516 0
M  V30 112 C 11.4027 3.60188 0.172335 0
M  V30 113 O 10.5067 3.9339 1.23766 0
M  V30 114 H 9.8477 0.662411 -0.0459059 0
M  V30 115 H 12.3777 1.90066 -0.757365 0
M  V30 116 H 12.3877 4.06129 0.390305 0
M  V30 117 H 11.0627 4.08865 -0.761725 0
M  V30 118 H 9.6397 3.5921 1.00114 0
M  V30 119 N 11.8248 0.280983 1.55075 0
M  V30 120 C 13.0738 -0.334784 1.98902 0
M  V30 121 C 13.3868 -1.56534 1.17288 0
M  V30 122 O 14.5928 -2.25443 1.51287 0
M  V30 123 C 13.0488 -0.646994 3.54037 0
M  V30 124 C 12.6568 0.564085 4.44435 0
M  V30 125 C 14.4008 -1.22506 4.06439 0
M  V30 126 C 12.3078 0.226137 5.90967 0
M  V30 127 H 11.2378 -0.128866 0.742906 0
M  V30 128 H 13.8888 0.386556 1.79382 0
M  V30 129 H 12.2708 -1.42739 3.6938 0
M  V30 130 H 13.4448 1.34082 4.40861 0
M  V30 131 H 11.7598 1.0594 4.02698 0
M  V30 132 H 14.3568 -1.49182 5.13468 0
M  V30 133 H 14.6998 -2.16085 3.55827 0
M  V30 134 H 15.2328 -0.50682 3.94558 0
M  V30 135 H 11.9718 1.12996 6.45687 0
M  V30 136 H 11.4918 -0.513717 5.97596 0
M  V30 137 H 13.1708 -0.179539 6.46751 0
M  V30 138 N 13.3029 -1.57598 0.00835791 0
M  V30 139 C 14.5499 -1.90928 -0.674732 0
M  V30 140 C 14.8779 -0.88277 -1.73313 0
M  V30 141 O 14.1329 0.111294 -1.95383 0
M  V30 142 C 14.4319 -3.3101 -1.34787 0
M  V30 143 C 14.0979 -4.48922 -0.421861 0
M  V30 144 C 12.7599 -4.8091 -0.166927 0
M  V30 145 C 15.1119 -5.20755 0.215211 0
M  V30 146 C 12.4399 -5.821 0.733232 0
M  V30 147 C 14.7919 -6.22905 1.1033 0
M  V30 148 C 13.4559 -6.53346 1.36733 0
M  V30 149 H 12.7259 -0.698656 -0.246902 0
M  V30 150 H 15.3729 -1.91387 0.0656779 0
M  V30 151 H 13.6779 -3.26714 -2.16253 0
M  V30 152 H 15.3749 -3.54061 -1.8826 0
M  V30 153 H 11.9649 -4.23934 -0.630729 0
M  V30 154 H 16.1489 -4.9629 0.0312829 0
M  V30 155 H 11.4049 -6.04042 0.945712 0
M  V30 156 H 15.5789 -6.77694 1.60325 0
M  V30 157 H 13.2059 -7.31573 2.06652 0
M  V30 158 N 14.781 0.264519 -1.55364 0
M  V30 159 C 15.711 1.33121 -1.91836 0
M  V30 160 C 16.692 1.51101 -0.781192 0
M  V30 161 O 17.877 1.64003 -1.04003 0
M  V30 162 C 15.007 2.68921 -2.19769 0
M  V30 163 C 13.961 2.65661 -3.35571 0
M  V30 164 C 13.287 4.05093 -3.49004 0
M  V30 165 C 14.587 2.24187 -4.71739 0
M  V30 166 H 16.281 1.02844 -2.81182 0
M  V30 167 H 13.827 0.493286 -1.35287 0
M  V30 168 H 15.78 3.43663 -2.43872 0
M  V30 169 H 14.504 3.00799 -1.27231 0
M  V30 170 H 13.163 1.93377 -3.1145 0
M  V30 171 H 12.811 4.34206 -2.53917 0
M  V30 172 H 12.511 4.03804 -4.26868 0
M  V30 173 H 14.035 4.81561 -3.75408 0
M  V30 174 H 15.449 2.88654 -4.9533 0
M  V30 175 H 13.846 2.34044 -5.52579 0
M  V30 176 H 14.916 1.19327 -4.69988 0
M  V30 177 N 16.2591 1.48442 0.529413 0
M  V30 178 C 17.2061 1.63007 1.63394 0
M  V30 179 C 18.1761 0.47212 1.59249 0
M  V30 180 O 19.3611 0.695673 1.77666 0
M  V30 181 C 16.5011 1.6763 3.01653 0
M  V30 182 C 15.6141 2.94535 3.16027 0
M  V30 183 C 14.7491 2.90316 4.44849 0
M  V30 184 C 13.7881 4.11923 4.52754 0
M  V30 185 N 12.9251 4.05777 5.72965 0
M  V30 186 H 17.7651 2.5733 1.50285 0
M  V30 187 H 15.3021 1.27613 0.731656 0
M  V30 188 H 17.2601 1.68292 3.81751 0
M  V30 189 H 15.8901 0.76797 3.13532 0
M  V30 190 H 14.9421 3.03615 2.29177 0
M  V30 191 H 16.2541 3.84512 3.17729 0
M  V30 192 H 15.4081 2.89382 5.33238 0
M  V30 193 H 14.1471 1.98068 4.45668 0
M  V30 194 H 13.1521 4.13131 3.62771 0
M  V30 195 H 14.3771 5.0533 4.53672 0
M  V30 196 H 12.3231 3.16351 5.74681 0
M  V30 197 H 12.2401 4.8946 5.76164 0
M  V30 198 H 13.5081 4.08904 6.6364 0
M  V30 199 N 17.7372 -0.778329 1.37039 0
M  V30 200 C 19.1532 -1.07796 1.17695 0
M  V30 201 C 19.3532 -2.01498 0.00860115 0
M  V30 202 O 18.4092 -2.43901 -0.653352 0
M  V30 203 C 19.7222 -1.68178 2.49272 0
M  V30 204 C 21.2702 -1.80467 2.55735 0
M  V30 205 C 21.7452 -2.44263 3.87427 0
M  V30 206 N 23.2362 -2.51721 3.88833 0
M  V30 207 C 23.9712 -3.01919 4.87476 0
M  V30 208 N 23.4672 -3.5234 5.96513 0
M  V30 209 N 25.2602 -3.00733 4.74885 0
M  V30 210 H 17.4112 -0.156032 2.11826 0
M  V30 211 H 19.6742 -0.131844 0.938787 0
M  V30 212 H 19.3802 -1.06796 3.35093 0
M  V30 213 H 19.2542 -2.67554 2.65885 0
M  V30 214 H 21.6412 -2.40984 1.70325 0
M  V30 215 H 21.7222 -0.798656 2.43013 0
M  V30 216 H 21.3662 -1.84388 4.73248 0
M  V30 217 H 21.2962 -3.45458 3.9745 0
M  V30 218 H 23.7872 -2.1603 3.10063 0
M  V30 219 H 24.1002 -3.89027 6.67741 0
M  V30 220 H 22.4452 -3.50462 6.00168 0
M  V30 221 H 25.6362 -2.60638 3.88826 0
M  V30 222 H 25.8092 -3.39545 5.51918 0
M  V30 223 N 19.2153 -1.21501 -1.00376 0
M  V30 224 C 20.4403 -1.05977 -1.78279 0
M  V30 225 C 20.8653 0.385994 -1.84097 0
M  V30 226 O 20.2233 1.27849 -1.28547 0
M  V30 227 C 20.2713 -1.66302 -3.19963 0
M  V30 228 O 19.3753 -0.909333 -4.0225 0
M  V30 229 H 18.7163 -0.372906 -0.549397 0
M  V30 230 H 21.2463 -1.6107 -1.26165 0
M  V30 231 H 21.2563 -1.70574 -3.70632 0
M  V30 232 H 19.9313 -2.71515 -3.15043 0
M  V30 233 H 18.5083 -0.941795 -3.60811 0
M  V30 234 N 20.6934 1.19889 -1.02296 0
M  V30 235 C 21.6254 2.22334 -0.556787 0
M  V30 236 C 22.6384 1.58674 0.364199 0
M  V30 237 O 23.8274 1.77768 0.161533 0
M  V30 238 C 20.9274 3.38257 0.208694 0
M  V30 239 C 20.1004 4.31504 -0.71577 0
M  V30 240 C 19.1594 5.262 0.00325597 0
M  V30 241 O 18.1854 5.65798 -0.621357 0
M  V30 242 N 19.3874 5.66303 1.27599 0
M  V30 243 H 22.1524 2.62957 -1.43784 0
M  V30 244 H 19.7134 1.34495 -0.901261 0
M  V30 245 H 21.7054 3.98616 0.699111 0
M  V30 246 H 20.2754 2.96472 0.991102 0
M  V30 247 H 19.4954 3.69016 -1.38638 0
M  V30 248 H 20.7834 4.9072 -1.34428 0
M  V30 249 H 20.1814 5.36155 1.80429 0
M  V30 250 H 18.7384 6.28942 1.71102 0
M  V30 251 N 22.1715 0.800033 1.35784 0
M  V30 252 C 23.1035 0.163596 2.28615 0
M  V30 253 C 24.1165 -0.633317 1.49976 0
M  V30 254 O 25.3055 -0.466754 1.72289 0
M  V30 255 C 22.4055 -0.790958 3.29541 0
M  V30 256 C 21.5785 -0.0418255 4.3738 0
M  V30 257 C 20.6375 -0.91389 5.18203 0
M  V30 258 O 19.6635 -0.367234 5.68014 0
M  V30 259 N 20.8655 -2.23682 5.35674 0
M  V30 260 H 23.6305 0.96105 2.83873 0
M  V30 261 H 21.1915 0.654894 1.48063 0
M  V30 262 H 23.1835 -1.37844 3.80501 0
M  V30 263 H 21.7535 -1.48925 2.74846 0
M  V30 264 H 20.9735 0.726813 3.87442 0
M  V30 265 H 22.2615 0.474719 5.06581 0
M  V30 266 H 21.6595 -2.70497 4.96838 0
M  V30 267 H 20.2165 -2.77369 5.89839 0
M  V30 268 N 23.6496 -1.47581 0.552962 0
M  V30 269 C 24.5966 -2.29957 -0.197108 0
M  V30 270 C 25.5666 -1.38799 -0.912359 0
M  V30 271 O 26.7516 -1.67761 -0.908888 0
M  V30 272 C 23.8916 -3.22672 -1.22379 0
M  V30 273 C 23.0046 -4.28919 -0.515038 0
M  V30 274 C 22.1396 -5.0879 -1.52664 0
M  V30 275 C 21.1786 -6.06815 -0.802631 0
M  V30 276 N 20.3156 -6.7966 -1.76086 0
M  V30 277 H 25.1556 -2.93578 0.511486 0
M  V30 278 H 22.6926 -1.4471 0.264067 0
M  V30 279 H 24.6506 -3.74845 -1.83159 0
M  V30 280 H 23.2806 -2.60925 -1.90047 0
M  V30 281 H 22.3326 -3.79835 0.207192 0
M  V30 282 H 23.6446 -4.98773 0.0523425 0
M  V30 283 H 22.7986 -5.65091 -2.20809 0
M  V30 284 H 21.5376 -4.38828 -2.12794 0
M  V30 285 H 20.5426 -5.49695 -0.107238 0
M  V30 286 H 21.7676 -6.78784 -0.207135 0
M  V30 287 H 19.7136 -6.12432 -2.35081 0
M  V30 288 H 19.6306 -7.45669 -1.24552 0
M  V30 289 H 20.8986 -7.40538 -2.43359 0
M  V30 290 N 25.1277 -0.289203 -1.54924 0
M  V30 291 C 26.0747 0.592115 -2.23075 0
M  V30 292 C 27.0447 1.13881 -1.20915 0
M  V30 293 O 28.2297 1.18551 -1.495 0
M  V30 294 C 25.3697 1.76376 -2.96623 0
M  V30 295 C 24.4827 1.24959 -4.13533 0
M  V30 296 C 23.6177 2.38416 -4.74691 0
M  V30 297 C 22.6567 1.84072 -5.83767 0
M  V30 298 N 21.7937 2.91057 -6.38929 0
M  V30 299 H 26.6337 0.00432038 -2.98 0
M  V30 300 H 24.1707 -0.00963529 -1.47097 0
M  V30 301 H 26.1287 2.45268 -3.3749 0
M  V30 302 H 24.7587 2.32337 -2.24097 0
M  V30 303 H 23.8107 0.453307 -3.77689 0
M  V30 304 H 25.1227 0.811662 -4.92152 0
M  V30 305 H 24.2767 3.15276 -5.18349 0
M  V30 306 H 23.0157 2.8553 -3.95378 0
M  V30 307 H 22.0207 1.05697 -5.39545 0
M  V30 308 H 23.2457 1.37877 -6.64956 0
M  V30 309 H 21.1917 3.37526 -5.62505 0
M  V30 310 H 21.1087 2.51724 -7.12861 0
M  V30 311 H 22.3767 3.6785 -6.87246 0
M  V30 312 N 26.6058 1.57591 -0.0167156 0
M  V30 313 C 27.5528 2.09462 0.969251 0
M  V30 314 C 28.5228 0.99381 1.33089 0
M  V30 315 O 29.7078 1.26726 1.42636 0
M  V30 316 C 26.8478 2.61622 2.25051 0
M  V30 317 C 25.9608 3.85666 1.94642 0
M  V30 318 C 25.0958 4.26266 3.16972 0
M  V30 319 C 24.1348 5.43101 2.82326 0
M  V30 320 N 23.2718 5.78915 3.97243 0
M  V30 321 H 28.1118 2.93428 0.519997 0
M  V30 322 H 25.6488 1.45044 0.245087 0
M  V30 323 H 27.6068 2.89949 2.99976 0
M  V30 324 H 26.2368 1.80505 2.67615 0
M  V30 325 H 25.2888 3.64145 1.10013 0
M  V30 326 H 26.6008 4.70678 1.65117 0
M  V30 327 H 25.7548 4.55963 4.00228 0
M  V30 328 H 24.4938 3.39996 3.49648 0
M  V30 329 H 23.4988 5.1311 1.97479 0
M  V30 330 H 24.7238 6.3106 2.50879 0
M  V30 331 H 22.6698 4.95602 4.29785 0
M  V30 332 H 22.5868 6.58539 3.71299 0
M  V30 333 H 23.8548 6.13212 4.81239 0
M  V30 334 N 28.0839 -0.256276 1.55502 0
M  V30 335 C 29.3119 -1.00342 1.8094 0
M  V30 336 C 29.7269 -1.79307 0.59114 0
M  V30 337 O 29.0839 -1.77114 -0.440081 0
M  V30 338 C 29.1349 -1.94875 3.04476 0
M  V30 339 O 28.8559 -1.19107 4.21598 0
M  V30 340 C 30.3569 -2.81266 3.42644 0
M  V30 341 H 27.5769 -0.295685 0.602338 0
M  V30 342 H 30.1209 -0.281998 2.02546 0
M  V30 343 H 28.2759 -2.62457 2.84947 0
M  V30 344 H 28.6899 -1.82969 4.91551 0
M  V30 345 H 30.1639 -3.43362 4.32211 0
M  V30 346 H 30.6409 -3.51897 2.62802 0
M  V30 347 H 31.2469 -2.1915 3.64491 0
M  V30 348 N 29.562 -1.4872 -0.521534 0
M  V30 349 C 30.787 -1.61101 -1.30618 0
M  V30 350 C 31.212 -0.274611 -1.86085 0
M  V30 351 O 30.57 0.754937 -1.64834 0
M  V30 352 C 30.618 -2.66709 -2.4269 0
M  V30 353 O 29.722 -2.24456 -3.45967 0
M  V30 354 H 29.063 -0.539921 -0.386499 0
M  V30 355 H 31.593 -1.94767 -0.626645 0
M  V30 356 H 31.603 -2.88245 -2.88754 0
M  V30 357 H 30.278 -3.63727 -2.01682 0
M  V30 358 H 28.855 -2.13168 -3.05964 0
M  V30 359 N 31.0401 0.771051 -1.3745 0
M  V30 360 C 32.4511 1.34737 -1.29239 0
M  V30 361 C 32.8021 1.96109 0.0596908 0
M  V30 362 O 31.9271 1.93865 0.961534 0
M  V30 363 C 32.5221 2.44973 -2.34037 0
M  V30 364 C 31.0811 2.98372 -2.29458 0
M  V30 365 C 30.2281 1.71595 -2.17831 0
M  V30 366 H 33.1791 0.571256 -1.48062 0
M  V30 367 H 33.2001 3.24471 -1.98744 0
M  V30 368 H 32.7121 2.00276 -3.32432 0
M  V30 369 H 30.8131 3.47443 -1.34589 0
M  V30 370 H 30.9261 3.53939 -3.229 0
M  V30 371 H 29.2901 1.94547 -1.64388 0
M  V30 372 H 30.0731 1.29001 -3.18141 0
M  V30 373 N 32.5182 1.22032 0.997298 0
M  V30 374 C 33.4482 1.01065 2.10495 0
M  V30 375 C 34.4292 -0.0669542 1.69968 0
M  V30 376 O 35.6142 0.0943987 1.9397 0
M  V30 377 C 32.7442 0.582874 3.42374 0
M  V30 378 C 31.6982 1.60592 3.96729 0
M  V30 379 C 31.0242 1.03412 5.24605 0
M  V30 380 C 32.3242 2.99478 4.27914 0
M  V30 381 H 34.0182 1.93708 2.28292 0
M  V30 382 H 31.5642 0.932761 1.09707 0
M  V30 383 H 33.5172 0.423332 4.19268 0
M  V30 384 H 32.2412 -0.379213 3.24391 0
M  V30 385 H 30.9002 1.75316 3.21963 0
M  V30 386 H 30.5482 0.063518 5.0296 0
M  V30 387 H 30.2482 1.71754 5.61938 0
M  V30 388 H 31.7722 0.886066 6.04137 0
M  V30 389 H 33.1862 2.88153 4.95622 0
M  V30 390 H 31.5832 3.64903 4.76409 0
M  V30 391 H 32.6532 3.49742 3.3587 0
M  V30 392 N 33.9963 -1.19345 1.0293 0
M  V30 393 C 34.9443 -2.24621 0.604001 0
M  V30 394 C 35.9383 -1.65452 -0.363587 0
M  V30 395 O 37.1443 -1.78497 -0.23212 0
M  V30 396 H 33.5193 -0.730858 0.177061 0
M  V30 397 H 35.4903 -2.5781 1.50255 0
M  V30 398 C 34.2393 -3.47688 -0.0289127 0
M  V30 399 H 33.5623 -3.93505 0.706651 0
M  V30 400 H 35.0023 -4.23011 -0.289432 0
M  V30 401 C 33.4613 -3.11817 -1.2756 0
M  V30 402 O 33.9913 -3.2451 -2.36762 0
M  V30 403 N 32.1973 -2.66246 -1.16453 0
M  V30 404 H 31.7443 -2.56118 -0.275914 0
M  V30 405 H 31.7023 -2.42617 -1.99961 0
M  V30 406 N 35.4744 -0.807222 -1.35358 0
M  V30 407 C 36.7214 -0.387888 -1.9875 0
M  V30 408 C 37.0494 1.04509 -1.64037 0
M  V30 409 O 36.3044 1.73986 -0.895946 0
M  V30 410 C 36.6034 -0.519036 -3.53611 0
M  V30 411 C 36.2694 -1.91542 -4.08194 0
M  V30 412 C 34.9314 -2.29745 -4.22813 0
M  V30 413 C 37.2834 -2.82896 -4.37744 0
M  V30 414 C 34.6114 -3.58668 -4.643 0
M  V30 415 C 36.9634 -4.11265 -4.8067 0
M  V30 416 C 35.6274 -4.49466 -4.93494 0
M  V30 417 H 34.8974 -0.141938 -0.727279 0
M  V30 418 H 37.5444 -1.02814 -1.6156 0
M  V30 419 H 35.8494 0.204658 -3.91265 0
M  V30 420 H 37.5464 -0.175345 -4.00616 0
M  V30 421 H 34.1364 -1.60862 -3.97268 0
M  V30 422 H 38.3204 -2.54629 -4.26002 0
M  V30 423 H 33.5764 -3.88113 -4.72418 0
M  V30 424 H 37.7504 -4.82153 -5.02496 0
M  V30 425 H 35.3774 -5.49418 -5.25399 0
M  V30 426 N 36.9525 1.47285 -0.560781 0
M  V30 427 C 37.8995 2.30058 0.18491 0
M  V30 428 C 38.8695 1.39281 0.904986 0
M  V30 429 O 40.0545 1.68241 0.899979 0
M  V30 430 C 37.1945 3.23317 1.20666 0
M  V30 431 C 36.3075 4.29186 0.492285 0
M  V30 432 C 35.4425 5.09592 1.49964 0
M  V30 433 C 34.4815 6.07232 0.770439 0
M  V30 434 N 33.6185 6.80584 1.72479 0
M  V30 435 H 38.4585 2.93302 -0.527048 0
M  V30 436 H 35.9955 1.44568 -0.271738 0
M  V30 437 H 37.9535 3.75811 1.81168 0
M  V30 438 H 36.5835 2.61929 1.88661 0
M  V30 439 H 35.6355 3.7972 -0.227333 0
M  V30 440 H 36.9475 4.98738 -0.0787929 0
M  V30 441 H 36.1015 5.66254 2.17809 0
M  V30 442 H 34.8405 4.3995 2.10464 0
M  V30 443 H 33.8455 5.49745 0.0780846 0
M  V30 444 H 35.0705 6.78884 0.171134 0
M  V30 445 H 33.0165 6.1367 2.3183 0
M  V30 446 H 32.9335 7.46319 1.20596 0
M  V30 447 H 34.2015 7.41818 2.39428 0
M  V30 448 N 38.4306 0.297415 1.54768 0
M  V30 449 C 39.3776 -0.580276 2.23386 0
M  V30 450 C 40.3476 -1.13238 1.21517 0
M  V30 451 O 41.5326 -1.17757 1.50126 0
M  V30 452 C 38.6726 -1.74801 2.97555 0
M  V30 453 C 37.7856 -1.22764 4.1419 0
M  V30 454 C 36.9206 -2.35895 4.75949 0
M  V30 455 C 35.9596 -1.80974 5.84735 0
M  V30 456 N 35.0966 -2.87664 6.40464 0
M  V30 457 H 39.9366 0.0114833 2.97998 0
M  V30 458 H 37.4736 0.0174361 1.4709 0
M  V30 459 H 39.4316 -2.43475 3.38786 0
M  V30 460 H 38.0616 -2.31145 2.25326 0
M  V30 461 H 37.1136 -0.433271 3.77924 0
M  V30 462 H 38.4256 -0.785551 4.92575 0
M  V30 463 H 37.5796 -3.12523 5.20014 0
M  V30 464 H 36.3186 -2.83429 3.96887 0
M  V30 465 H 35.3236 -1.02834 5.40097 0
M  V30 466 H 36.5486 -1.34348 6.65678 0
M  V30 467 H 34.4946 -3.34538 5.64287 0
M  V30 468 H 34.4116 -2.4794 7.14186 0
M  V30 469 H 35.6796 -3.642 6.89187 0
M  V30 470 N 39.9087 -1.5758 0.0250728 0
M  V30 471 C 41.3247 -1.56124 -0.331282 0
M  V30 472 C 41.5247 -1.03029 -1.73169 0
M  V30 473 O 40.5807 -0.675215 -2.43305 0
M  V30 474 C 41.8937 -3.00139 -0.183584 0
M  V30 475 C 43.4417 -3.11946 -0.256654 0
M  V30 476 C 43.9167 -4.57793 -0.137792 0
M  V30 477 N 45.4077 -4.6279 -0.194904 0
M  V30 478 C 46.1427 -5.7326 -0.126655 0
M  V30 479 N 45.6387 -6.928 -0.00755288 0
M  V30 480 N 47.4317 -5.61811 -0.180348 0
M  V30 481 H 39.5827 -1.90424 0.94087 0
M  V30 482 H 41.8457 -0.875761 0.362968 0
M  V30 483 H 41.5517 -3.4292 0.780927 0
M  V30 484 H 41.4257 -3.64899 -0.955448 0
M  V30 485 H 43.8127 -2.69079 -1.21162 0
M  V30 486 H 43.8937 -2.49915 0.545517 0
M  V30 487 H 43.5377 -5.01339 0.813739 0
M  V30 488 H 43.4677 -5.17798 -0.958775 0
M  V30 489 H 45.9587 -3.76807 -0.287267 0
M  V30 490 H 46.2717 -7.72791 0.0379428 0
M  V30 491 H 44.6167 -6.94995 0.0271731 0
M  V30 492 H 47.8077 -4.6731 -0.271767 0
M  V30 493 H 47.9807 -6.47882 -0.123697 0
M  V30 494 N 41.3868 0.248026 -1.55636 0
M  V30 495 C 42.3168 1.31079 -1.93237 0
M  V30 496 C 43.2978 1.50264 -0.797174 0
M  V30 497 O 44.4828 1.62891 -1.05737 0
M  V30 498 C 41.6128 2.66575 -2.22609 0
M  V30 499 C 40.5668 2.62087 -3.3837 0
M  V30 500 C 39.8928 4.01369 -3.53281 0
M  V30 501 C 41.1928 2.19171 -4.7409 0
M  V30 502 H 42.8868 0.998556 -2.82257 0
M  V30 503 H 40.4328 0.47891 -1.35803 0
M  V30 504 H 42.3858 3.41057 -2.47503 0
M  V30 505 H 41.1098 2.99432 -1.30414 0
M  V30 506 H 39.7688 1.90063 -3.13483 0
M  V30 507 H 39.4168 4.31489 -2.58508 0
M  V30 508 H 39.1168 3.99254 -4.31127 0
M  V30 509 H 40.6408 4.77552 -3.80495 0
M  V30 510 H 42.0548 2.83384 -4.98363 0
M  V30 511 H 40.4518 2.2817 -5.5503 0
M  V30 512 H 41.5218 1.14336 -4.71227 0
M  V30 513 N 42.8649 1.48995 0.513639 0
M  V30 514 C 44.1119 1.57843 1.26854 0
M  V30 515 C 44.4399 0.259501 1.92761 0
M  V30 516 O 43.6949 -0.75159 1.80692 0
M  V30 517 C 43.9939 2.67756 2.36731 0
M  V30 518 C 43.6599 4.09669 1.88368 0
M  V30 519 C 42.3219 4.48291 1.74896 0
M  V30 520 C 44.6739 4.98537 1.52021 0
M  V30 521 C 42.0019 5.73568 1.23438 0
M  V30 522 C 44.3539 6.24319 1.0202 0
M  V30 523 C 43.0179 6.61783 0.871778 0
M  V30 524 H 42.2879 0.577587 0.464192 0
M  V30 525 H 44.9349 1.82778 0.571366 0
M  V30 526 H 43.2399 2.36743 3.12185 0
M  V30 527 H 44.9369 2.71813 2.9482 0
M  V30 528 H 41.5269 3.79176 1.99808 0
M  V30 529 H 45.7109 4.69363 1.61281 0
M  V30 530 H 40.9669 6.01304 1.10648 0
M  V30 531 H 45.1409 6.92566 0.729722 0
M  V30 532 H 42.7679 7.5874 0.470852 0
M  V30 533 N 44.343 -0.763751 1.37857 0
M  V30 534 C 45.273 -1.89103 1.36975 0
M  V30 535 C 46.254 -1.68439 0.237152 0
M  V30 536 O 47.439 -1.8918 0.438713 0
M  V30 537 C 44.569 -3.26496 1.18395 0
M  V30 538 C 43.523 -3.61741 2.28751 0
M  V30 539 C 42.849 -4.97762 1.95286 0
M  V30 540 C 44.149 -3.67665 3.70972 0
M  V30 541 H 45.843 -1.90099 2.31307 0
M  V30 542 H 43.389 -0.91319 1.11341 0
M  V30 543 H 45.342 -4.05003 1.16406 0
M  V30 544 H 44.066 -3.25955 0.205215 0
M  V30 545 H 42.725 -2.85547 2.29909 0
M  V30 546 H 42.373 -4.93769 0.959221 0
M  V30 547 H 42.073 -5.22313 2.69189 0
M  V30 548 H 43.597 -5.7866 1.94898 0
M  V30 549 H 45.011 -4.36307 3.719 0
M  V30 550 H 43.408 -4.03718 4.43995 0
M  V30 551 H 44.478 -2.68134 4.0402 0
M  V30 552 N 45.8211 -1.22559 -0.990812 0
M  V30 553 C 46.7511 -1.0218 -2.09956 0
M  V30 554 C 47.7321 0.0579394 -1.70001 0
M  V30 555 O 48.9171 -0.104684 -1.93918 0
M  V30 556 C 46.0471 -0.601023 -3.4206 0
M  V30 557 C 45.0011 -1.62694 -3.95872 0
M  V30 558 C 44.3271 -1.06193 -5.24049 0
M  V30 559 C 45.6271 -3.01743 -4.2632 0
M  V30 560 H 47.3211 -1.94916 -2.27262 0
M  V30 561 H 44.8671 -0.938566 -1.09211 0
M  V30 562 H 46.8201 -0.445561 -4.19038 0
M  V30 563 H 45.5441 0.362005 -3.24588 0
M  V30 564 H 44.2031 -1.77021 -3.21028 0
M  V30 565 H 43.8511 -0.0901903 -5.02919 0
M  V30 566 H 43.5511 -1.74732 -5.61019 0
M  V30 567 H 45.0751 -0.918092 -6.03658 0
M  V30 568 H 46.4891 -2.90777 -4.94087 0
M  V30 569 H 44.8861 -3.67425 -4.74467 0
M  V30 570 H 45.9561 -3.51518 -3.34011 0
M  V30 571 N 47.2992 1.18797 -1.03562 0
M  V30 572 C 48.5272 1.92599 -0.755869 0
M  V30 573 C 48.9422 1.75886 0.686271 0
M  V30 574 O 48.2992 1.08517 1.46732 0
M  V30 575 C 48.3502 3.44159 -1.10619 0
M  V30 576 O 48.0712 3.60341 -2.4917 0
M  V30 577 C 49.5722 4.3507 -0.850214 0
M  V30 578 H 46.7922 0.611587 -0.276048 0
M  V30 579 H 49.3362 1.50742 -1.38192 0
M  V30 580 H 47.4912 3.83823 -0.525194 0
M  V30 581 H 47.9052 4.54128 -2.62427 0
M  V30 582 H 49.3792 5.39989 -1.14523 0
M  V30 583 H 49.8562 4.38673 0.215176 0
M  V30 584 H 50.4622 4.01097 -1.41426 0
M  V30 585 N 48.7773 0.814389 1.34928 0
M  V30 586 C 50.0233 0.399013 1.98836 0
M  V30 587 C 50.3563 -1.03314 1.64438 0
M  V30 588 O 49.6313 -1.71811 0.911659 0
M  V30 589 C 49.9143 0.591629 3.55207 0
M  V30 590 C 49.7673 2.06928 3.99376 0
M  V30 591 C 51.0863 0.022199 4.40094 0
M  V30 592 H 48.2053 0.146451 0.722303 0
M  V30 593 H 50.8473 1.02537 1.59957 0
M  V30 594 H 48.9973 0.0584441 3.88456 0
M  V30 595 H 50.6693 2.66544 3.76499 0
M  V30 596 H 48.9123 2.56287 3.49999 0
M  V30 597 H 49.5833 2.1549 5.08201 0
M  V30 598 H 52.0593 0.477643 4.13349 0
M  V30 599 H 50.9353 0.186832 5.48582 0
M  V30 600 H 51.1963 -1.07215 4.28902 0
M  V30 601 N 50.2554 -1.46986 0.568584 0
M  V30 602 C 51.2054 -2.27179 -0.193339 0
M  V30 603 C 52.1894 -1.35035 -0.874895 0
M  V30 604 O 53.3814 -1.5931 -0.771322 0
M  V30 605 C 50.5104 -3.21063 -1.21546 0
M  V30 606 C 49.5964 -4.2069 -0.536738 0
M  V30 607 N 49.9874 -5.04218 0.399673 0
M  V30 608 C 48.2854 -4.38961 -0.789254 0
M  V30 609 C 48.9864 -5.76242 0.795017 0
M  V30 610 N 47.9624 -5.434 0.1473 0
M  V30 611 H 51.7644 -2.89146 0.526458 0
M  V30 612 H 49.2784 -1.57664 0.389342 0
M  V30 613 H 51.2754 -3.77209 -1.77536 0
M  V30 614 H 49.9354 -2.60654 -1.93623 0
M  V30 615 H 50.9464 -5.12077 0.774454 0
M  V30 616 H 47.6234 -3.89713 -1.49767 0
M  V30 617 H 49.0134 -6.53417 1.56513 0
M  V30 618 N 51.7335 -0.305618 -1.54608 0
M  V30 619 C 52.6805 0.568421 -2.23691 0
M  V30 620 C 53.6505 1.12592 -1.22116 0
M  V30 621 O 54.8355 1.16959 -1.50749 0
M  V30 622 C 51.9755 1.7322 -2.98477 0
M  V30 623 C 51.0885 1.20566 -4.14835 0
M  V30 624 C 50.2235 2.33368 -4.77193 0
M  V30 625 C 49.2625 1.7787 -5.85686 0
M  V30 626 N 48.3995 2.84263 -6.4198 0
M  V30 627 H 53.2395 -0.0272867 -2.97988 0
M  V30 628 H 50.7765 -0.0252363 -1.47078 0
M  V30 629 H 52.7345 2.41675 -3.40072 0
M  V30 630 H 51.3645 2.29947 -2.26548 0
M  V30 631 H 50.4165 0.413223 -3.78149 0
M  V30 632 H 51.7285 0.759417 -4.92985 0
M  V30 633 H 50.8825 3.09761 -5.21664 0
M  V30 634 H 49.6215 2.8132 -3.98385 0
M  V30 635 H 48.6265 0.99968 -5.40635 0
M  V30 636 H 49.8515 1.30816 -6.66381 0
M  V30 637 H 47.7975 3.31541 -5.66053 0
M  V30 638 H 47.7145 2.44149 -7.15491 0
M  V30 639 H 48.9825 3.6054 -6.91109 0
M  V30 640 N 53.2116 1.57565 -0.0334293 0
M  V30 641 C 54.1416 2.13511 0.945265 0
M  V30 642 C 55.1226 1.05231 1.33643 0
M  V30 643 O 56.3076 1.33084 1.41429 0
M  V30 644 C 53.4376 2.6657 2.22616 0
M  V30 645 C 52.3916 3.79676 1.97561 0
M  V30 646 C 51.7176 4.1918 3.31952 0
M  V30 647 C 53.0176 5.0557 1.31135 0
M  V30 648 H 54.7116 2.95538 0.479325 0
M  V30 649 H 52.2576 1.42166 0.229115 0
M  V30 650 H 54.2106 3.04344 2.91466 0
M  V30 651 H 52.9346 1.8171 2.71384 0
M  V30 652 H 51.5936 3.42347 1.31127 0
M  V30 653 H 51.2416 3.31296 3.78487 0
M  V30 654 H 50.9416 4.95402 3.15992 0
M  V30 655 H 52.4656 4.59541 4.02063 0
M  V30 656 H 53.8796 5.40903 1.89992 0
M  V30 657 H 52.2766 5.86818 1.25559 0
M  V30 658 H 53.3466 4.84062 0.284894 0
M  V30 659 N 54.6897 -0.239769 1.55765 0
M  V30 660 C 55.9147 -0.988373 1.82335 0
M  V30 661 C 56.3397 -1.77886 0.611421 0
M  V30 662 O 55.6977 -1.75889 -0.439639 0
M  V30 663 C 55.7457 -1.89627 3.06715 0
M  V30 664 O 54.8497 -2.98904 2.84131 0
M  V30 665 H 54.1907 -0.280858 0.601677 0
M  V30 666 H 56.7207 -0.258597 2.02959 0
M  V30 667 H 56.7307 -2.30957 3.36338 0
M  V30 668 H 55.4057 -1.31511 3.9456 0
M  V30 669 H 53.9827 -2.61651 2.65694 0
M  V30 670 N 56.1678 -1.49265 -0.50573 0
M  V30 671 C 57.3978 -1.61979 -1.28243 0
M  V30 672 C 57.8058 -0.288576 -1.86986 0
M  V30 673 O 57.1488 0.735408 -1.68337 0
M  V30 674 C 57.2108 -2.62632 -2.45489 0
M  V30 675 C 56.8748 -4.071 -2.07651 0
M  V30 676 C 57.8718 -4.94049 -1.61901 0
M  V30 677 C 55.5568 -4.52801 -2.17431 0
M  V30 678 C 57.5508 -6.24736 -1.26428 0
M  V30 679 C 55.2378 -5.83503 -1.8157 0
M  V30 680 C 56.2358 -6.69294 -1.36142 0
M  V30 681 O 55.9238 -7.9756 -1.00764 0
M  V30 682 H 55.6558 -0.54834 -0.395347 0
M  V30 683 H 58.2098 -1.96002 -0.614204 0
M  V30 684 H 56.4398 -2.2378 -3.15372 0
M  V30 685 H 58.1288 -2.64925 -3.07522 0
M  V30 686 H 58.8948 -4.5997 -1.53795 0
M  V30 687 H 54.7738 -3.86196 -2.51742 0
M  V30 688 H 58.3178 -6.91652 -0.908992 0
M  V30 689 H 54.2148 -6.17112 -1.89324 0
M  V30 690 H 54.9828 -8.10529 -1.13952 0
M  V30 691 N 57.6459 0.756429 -1.3826 0
M  V30 692 C 58.8759 1.54341 -1.3734 0
M  V30 693 C 59.2839 1.89159 0.0393917 0
M  V30 694 O 58.6269 1.5307 1.01565 0
M  V30 695 C 58.6889 2.87238 -2.16182 0
M  V30 696 C 58.3529 2.74973 -3.65019 0
M  V30 697 C 59.3499 2.44962 -4.58574 0
M  V30 698 C 57.0349 2.92515 -4.08338 0
M  V30 699 C 59.0289 2.32642 -5.93428 0
M  V30 700 C 56.7159 2.79815 -5.43274 0
M  V30 701 C 57.7139 2.49921 -6.35632 0
M  V30 702 O 57.4019 2.37275 -7.68086 0
M  V30 703 H 57.1339 0.484281 -0.471643 0
M  V30 704 H 59.6879 0.944152 -1.82414 0
M  V30 705 H 57.9179 3.49342 -1.65822 0
M  V30 706 H 59.6069 3.48731 -2.07705 0
M  V30 707 H 60.3729 2.31081 -4.26412 0
M  V30 708 H 56.2519 3.14781 -3.368 0
M  V30 709 H 59.7959 2.0923 -6.65484 0
M  V30 710 H 55.6929 2.93269 -5.75034 0
M  V30 711 H 56.4609 2.52509 -7.78577 0
M  V30 712 N 59.124 1.23083 0.984299 0
M  V30 713 C 60.034 1.02515 2.11016 0
M  V30 714 C 61.05 -0.0291702 1.73976 0
M  V30 715 O 62.226 0.165434 2.00719 0
M  V30 716 C 59.291 0.614673 3.41208 0
M  V30 717 C 58.352 1.74359 3.92297 0
M  V30 718 C 57.585 1.35261 5.16275 0
M  V30 719 O 57.808 0.235136 5.69915 0
M  V30 720 O 56.742 2.17227 5.61334 0
M  V30 721 H 60.568 1.96862 2.31255 0
M  V30 722 H 58.153 1.01753 1.09392 0
M  V30 723 H 60.035 0.396518 4.1953 0
M  V30 724 H 58.71 -0.299851 3.22308 0
M  V30 725 H 57.617 2.01635 3.1511 0
M  V30 726 H 58.95 2.63629 4.15645 0
M  V30 727 N 60.6021 -1.18246 1.0419 0
M  V30 728 C 61.8321 -1.91916 0.764961 0
M  V30 729 C 62.2401 -1.76485 -0.681898 0
M  V30 730 O 61.5831 -1.09275 -1.47664 0
M  V30 731 C 61.6451 -3.4373 1.05309 0
M  V30 732 C 61.3091 -3.8294 2.4941 0
M  V30 733 C 62.3061 -3.86621 3.47592 0
M  V30 734 C 59.9911 -4.142 2.84155 0
M  V30 735 C 61.9851 -4.21013 4.78568 0
M  V30 736 C 59.6721 -4.48262 4.15337 0
M  V30 737 C 60.6701 -4.51645 5.12353 0
M  V30 738 O 60.3581 -4.84911 6.41183 0
M  V30 739 H 60.0901 -0.61606 0.278292 0
M  V30 740 H 62.6441 -1.50947 1.39299 0
M  V30 741 H 60.8741 -3.84946 0.367933 0
M  V30 742 H 62.5631 -3.9865 0.763752 0
M  V30 743 H 63.3291 -3.62607 3.22089 0
M  V30 744 H 59.2081 -4.10743 2.09311 0
M  V30 745 H 62.7521 -4.23568 5.54289 0
M  V30 746 H 58.6491 -4.71737 4.40607 0
M  V30 747 H 59.4171 -5.02809 6.45852 0
M  V30 748 N 62.0802 -0.821533 -1.34494 0
M  V30 749 C 63.3572 -0.33159 -1.92769 0
M  V30 750 C 63.7372 1.18088 -1.74981 0
M  V30 751 O 63.0852 1.98733 -1.12772 0
M  V30 752 C 63.2952 -0.759398 -3.40638 0
M  V30 753 C 64.6432 -0.757433 -4.1779 0
M  V30 754 O 65.6672 -0.70189 -3.49216 0
M  V30 755 O 64.5262 -0.829361 -5.4017 0
M  V30 756 H 61.6202 -0.0902502 -0.822061 0
M  V30 757 H 64.1662 -0.906231 -1.43477 0
M  V30 758 H 62.9382 -1.8012 -3.47379 0
M  V30 759 H 62.5612 -0.160378 -3.97276 0
M  V30 760 N 63.5583 1.46682 -0.576371 0
M  V30 761 C 64.8053 2.02412 -0.0595339 0
M  V30 762 C 65.1333 1.44859 1.29793 0
M  V30 763 O 64.3883 0.601099 1.8624 0
M  V30 764 C 64.6873 3.57345 0.062886 0
M  V30 765 C 64.3533 4.33908 -1.22616 0
M  V30 766 C 63.0153 4.54544 -1.57933 0
M  V30 767 C 65.3673 4.77919 -2.07948 0
M  V30 768 C 62.6953 5.16444 -2.78393 0
M  V30 769 C 65.0473 5.41149 -3.27629 0
M  V30 770 C 63.7113 5.60014 -3.63236 0
M  V30 771 H 62.9813 0.74068 -0.021785 0
M  V30 772 H 65.6283 1.76128 -0.751735 0
M  V30 773 H 63.9333 3.82729 0.838178 0
M  V30 774 H 65.6303 3.98136 0.478439 0
M  V30 775 H 62.2203 4.18138 -0.941202 0
M  V30 776 H 66.4043 4.61738 -1.81967 0
M  V30 777 H 61.6603 5.29242 -3.06126 0
M  V30 778 H 65.8343 5.74211 -3.94023 0
M  V30 779 H 63.4613 6.07748 -4.56669 0
M  V30 780 N 65.0364 0.313813 1.54444 0
M  V30 781 C 65.9464 -0.565714 2.27677 0
M  V30 782 C 66.9624 -1.13754 1.31666 0
M  V30 783 O 68.1384 -1.15959 1.64668 0
M  V30 784 C 65.2034 -1.71528 3.01296 0
M  V30 785 C 64.2644 -1.17624 4.12872 0
M  V30 786 C 63.4974 -2.27102 4.8297 0
M  V30 787 O 63.7204 -3.47256 4.52514 0
M  V30 788 O 62.6544 -1.9307 5.70094 0
M  V30 789 H 66.4804 0.0287296 3.03686 0
M  V30 790 H 64.0654 0.0798312 1.49187 0
M  V30 791 H 65.9474 -2.38476 3.4743 0
M  V30 792 H 64.6224 -2.29608 2.2817 0
M  V30 793 H 63.5294 -0.472124 3.71109 0
M  V30 794 H 64.8624 -0.640695 4.88012 0
M  V30 795 N 66.5145 -1.57545 0.0417849 0
M  V30 796 C 67.9305 -1.56467 -0.314704 0
M  V30 797 C 68.1305 -1.04859 -1.72066 0
M  V30 798 O 67.1865 -0.700983 -2.42575 0
M  V30 799 C 68.4995 -3.00317 -0.15174 0
M  V30 800 C 70.0475 -3.12201 -0.223553 0
M  V30 801 C 70.5225 -4.57913 -0.0892295 0
M  V30 802 N 72.0135 -4.6297 -0.145808 0
M  V30 803 C 72.7485 -5.73362 -0.0658459 0
M  V30 804 N 72.2445 -6.92769 0.0659282 0
M  V30 805 N 74.0375 -5.6197 -0.12075 0
M  V30 806 H 66.1885 -1.89416 0.961014 0
M  V30 807 H 68.4515 -0.871862 0.372237 0
M  V30 808 H 68.1575 -3.42073 0.817254 0
M  V30 809 H 68.0315 -3.65892 -0.916692 0
M  V30 810 H 70.4185 -2.70349 -1.18301 0
M  V30 811 H 70.4995 -2.49323 0.571994 0
M  V30 812 H 70.1435 -5.00448 0.866867 0
M  V30 813 H 70.0735 -5.18786 -0.903802 0
M  V30 814 H 72.5645 -3.7709 -0.247286 0
M  V30 815 H 72.8775 -7.72707 0.119905 0
M  V30 816 H 71.2225 -6.94927 0.100885 0
M  V30 817 H 74.4135 -4.67572 -0.222187 0
M  V30 818 H 74.5865 -6.47977 -0.0549735 0
M  V30 819 N 67.9926 0.231505 -1.5589 0
M  V30 820 C 69.2406 0.955461 -1.78088 0
M  V30 821 C 69.5616 1.85262 -0.608533 0
M  V30 822 O 68.8316 1.92277 0.375035 0
M  V30 823 H 67.4116 0.355787 -0.656829 0
M  V30 824 H 70.0736 0.245751 -1.93344 0
M  V30 825 H 69.1696 1.56814 -2.69844 0
M  V30 826 N 69.4707 1.49531 0.497807 0
M  V30 827 C 70.8867 1.36365 0.829266 0
M  V30 828 C 71.0867 0.399184 1.97506 0
M  V30 829 O 70.1427 -0.167977 2.51941 0
M  V30 830 C 71.4557 2.77153 1.16647 0
M  V30 831 C 73.0037 2.85877 1.27449 0
M  V30 832 C 73.4787 4.2744 1.64497 0
M  V30 833 N 74.9697 4.30265 1.7154 0
M  V30 834 C 75.7047 5.3677 2.01656 0
M  V30 835 N 75.2007 6.53516 2.29976 0
M  V30 836 N 76.9937 5.24189 2.02934 0
M  V30 837 H 69.1447 2.10831 -0.257703 0
M  V30 838 H 71.4077 0.946534 -0.0527091 0
M  V30 839 H 71.1137 3.49442 0.397872 0
M  V30 840 H 70.9877 3.12722 2.10915 0
M  V30 841 H 73.3747 2.13824 2.0338 0
M  V30 842 H 73.4557 2.53887 0.312244 0
M  V30 843 H 73.0997 5.00021 0.891151 0
M  V30 844 H 73.0297 4.56896 2.61827 0
M  V30 845 H 75.5207 3.4607 1.51802 0
M  V30 846 H 75.8337 7.30506 2.52153 0
M  V30 847 H 74.1787 6.56737 2.27425 0
M  V30 848 H 77.3697 4.31988 1.80289 0
M  V30 849 H 77.5427 6.07286 2.26071 0
M  V30 850 N 70.9488 -0.749086 1.3866 0
M  V30 851 C 72.3648 -1.05276 1.19955 0
M  V30 852 C 72.5648 -2.01435 0.05134 0
M  V30 853 O 71.6208 -2.45232 -0.60147 0
M  V30 854 C 72.9338 -1.62853 2.52783 0
M  V30 855 C 74.4818 -1.75002 2.59506 0
M  V30 856 C 74.9568 -2.35991 3.92521 0
M  V30 857 N 76.4478 -2.43416 3.94085 0
M  V30 858 C 77.1828 -2.91511 4.9377 0
M  V30 859 N 76.6788 -3.39608 6.03853 0
M  V30 860 N 78.4718 -2.90592 4.81157 0
M  V30 861 H 70.6228 -0.111066 2.12109 0
M  V30 862 H 72.8858 -0.111901 0.941373 0
M  V30 863 H 72.5918 -0.99664 3.37283 0
M  V30 864 H 72.4658 -2.61854 2.715 0
M  V30 865 H 74.8528 -2.37317 1.75398 0
M  V30 866 H 74.9338 -0.74693 2.44652 0
M  V30 867 H 74.5778 -1.74308 4.77053 0
M  V30 868 H 74.5078 -3.3695 4.04688 0
M  V30 869 H 76.9988 -2.09405 3.14576 0
M  V30 870 H 77.3118 -3.74775 6.75843 0
M  V30 871 H 75.6568 -3.37653 6.07466 0
M  V30 872 H 78.8478 -2.52332 3.94267 0
M  V30 873 H 79.0208 -3.27762 5.58996 0
M  V30 874 N 72.4269 -1.23603 -0.977757 0
M  V30 875 C 73.6749 -1.06759 -1.71601 0
M  V30 876 C 73.9959 0.395929 -1.90938 0
M  V30 877 O 73.2659 1.28356 -1.47992 0
M  V30 878 H 71.8459 -0.392062 -0.635843 0
M  V30 879 H 74.5079 -1.55362 -1.1768 0
M  V30 880 H 73.6039 -1.55763 -2.70452 0
M  V30 881 N 73.905 1.17692 -1.04816 0
M  V30 882 C 75.13 1.92327 -0.776207 0
M  V30 883 C 75.555 1.76082 0.661581 0
M  V30 884 O 74.913 1.076 1.45917 0
M  V30 885 C 74.961 3.41539 -1.15687 0
M  V30 886 O 74.065 4.11402 -0.286775 0
M  V30 887 H 73.406 0.599735 -0.284981 0
M  V30 888 H 75.936 1.49201 -1.4 0
M  V30 889 H 75.946 3.92269 -1.12202 0
M  V30 890 H 74.621 3.52684 -2.20425 0
M  V30 891 H 73.198 3.70939 -0.381903 0
M  V30 892 N 75.3831 0.828654 1.34056 0
M  V30 893 C 76.3301 0.252567 2.29414 0
M  V30 894 C 77.3001 -0.62588 1.53857 0
M  V30 895 O 78.4851 -0.566312 1.82202 0
M  V30 896 C 75.6251 -0.574831 3.40279 0
M  V30 897 C 74.7381 0.326499 4.30764 0
M  V30 898 C 73.8731 -0.511016 5.28736 0
M  V30 899 C 72.9121 0.389342 6.1086 0
M  V30 900 N 72.0491 -0.409439 7.00905 0
M  V30 901 H 76.8891 1.07108 2.78086 0
M  V30 902 H 74.4261 0.539677 1.36843 0
M  V30 903 H 76.3841 -1.06992 4.03248 0
M  V30 904 H 75.0141 -1.35841 2.92826 0
M  V30 905 H 74.0661 0.939837 3.68607 0
M  V30 906 H 75.3781 1.01857 4.88289 0
M  V30 907 H 74.5321 -1.07035 5.97184 0
M  V30 908 H 73.2711 -1.23657 4.71763 0
M  V30 909 H 72.2761 0.960769 5.4134 0
M  V30 910 H 73.5011 1.1131 6.69916 0
M  V30 911 H 71.4471 -1.11856 6.46393 0
M  V30 912 H 71.3641 0.224126 7.55668 0
M  V30 913 H 72.6321 -0.951336 7.73673 0
M  V30 914 N 76.8612 -1.46375 0.584142 0
M  V30 915 C 77.8082 -2.30323 -0.148286 0
M  V30 916 C 78.7782 -1.40703 -0.882713 0
M  V30 917 O 79.9632 -1.69651 -0.873099 0
M  V30 918 C 77.1032 -3.25196 -1.15507 0
M  V30 919 C 76.2162 -4.29915 -0.423943 0
M  V30 920 C 75.3512 -5.11914 -1.41838 0
M  V30 921 C 74.3902 -6.08381 -0.673736 0
M  V30 922 N 73.5272 -6.83242 -1.6163 0
M  V30 923 H 78.3672 -2.92427 0.573644 0
M  V30 924 H 75.9042 -1.44118 0.294703 0
M  V30 925 H 77.8622 -3.78646 -1.75166 0
M  V30 926 H 76.4922 -2.64898 -1.8447 0
M  V30 927 H 75.5442 -3.7931 0.287714 0
M  V30 928 H 76.8562 -4.98549 0.158128 0
M  V30 929 H 76.0102 -5.69648 -2.08773 0
M  V30 930 H 74.7492 -4.43243 -2.03438 0
M  V30 931 H 73.7542 -5.49799 0.00938483 0
M  V30 932 H 74.9792 -6.79071 -0.0631082 0
M  V30 933 H 72.9252 -6.1728 -2.22038 0
M  V30 934 H 72.8422 -7.48144 -1.08707 0
M  V30 935 H 74.1102 -7.45534 -2.27596 0
M  V30 936 N 78.3393 -0.321999 -1.54275 0
M  V30 937 C 79.5873 0.280489 -2.00144 0
M  V30 938 C 79.9083 1.52777 -1.21178 0
M  V30 939 O 79.1783 1.9338 -0.313187 0
M  V30 940 H 77.7583 0.106632 -0.73935 0
M  V30 941 H 80.4203 -0.438184 -1.8991 0
M  V30 942 H 79.5163 0.537972 -3.07428 0
M  V30 943 N 79.8174 1.5752 -0.0501392 0
M  V30 944 C 81.0424 1.97376 0.636997 0
M  V30 945 C 81.4674 0.927466 1.63645 0
M  V30 946 O 80.8254 -0.10941 1.8097 0
M  V30 947 C 80.8734 3.36304 1.30123 0
M  V30 948 O 79.9774 3.34156 2.41689 0
M  V30 949 H 79.3184 0.642998 0.165679 0
M  V30 950 H 81.8484 2.04258 -0.118233 0
M  V30 951 H 81.8584 3.73008 1.65315 0
M  V30 952 H 80.5334 4.11993 0.568746 0
M  V30 953 H 79.1104 3.09196 2.08451 0
M  V30 954 N 81.2955 -0.223234 1.56011 0
M  V30 955 C 82.5445 -0.945912 1.78144 0
M  V30 956 C 82.8575 -1.85567 0.618396 0
M  V30 957 O 84.0635 -2.61688 0.723318 0
M  V30 958 C 82.5195 -1.73216 3.15475 0
M  V30 959 C 82.1275 -0.868619 4.39499 0
M  V30 960 C 83.8715 -2.44615 3.46935 0
M  V30 961 C 81.7785 -1.65212 5.67855 0
M  V30 962 H 80.7085 -0.356929 0.664167 0
M  V30 963 H 83.3595 -0.199845 1.82409 0
M  V30 964 H 81.7415 -2.52107 3.05382 0
M  V30 965 H 82.9155 -0.120366 4.60643 0
M  V30 966 H 81.2305 -0.26683 4.15544 0
M  V30 967 H 83.8275 -3.03732 4.40058 0
M  V30 968 H 84.1705 -3.17417 2.69355 0
M  V30 969 H 84.7035 -1.72715 3.58349 0
M  V30 970 H 81.4425 -0.967407 6.48322 0
M  V30 971 H 80.9625 -2.37503 5.50774 0
M  V30 972 H 82.6415 -2.21322 6.07968 0
M  V30 973 N 82.7736 -1.49793 -0.48987 0
M  V30 974 C 84.0506 -1.50348 -1.25119 0
M  V30 975 C 84.4306 -0.237466 -2.0976 0
M  V30 976 O 83.7786 0.77981 -2.14782 0
M  V30 977 C 83.9886 -2.78872 -2.09837 0
M  V30 978 C 85.3366 -3.288 -2.68655 0
M  V30 979 O 86.3606 -2.80065 -2.20096 0
M  V30 980 O 85.2196 -4.13707 -3.57083 0
M  V30 981 H 82.3136 -0.602242 -0.566775 0
M  V30 982 H 84.8596 -1.62067 -0.503229 0
M  V30 983 H 83.6316 -3.62499 -1.47343 0
M  V30 984 H 83.2546 -2.70066 -2.91805 0
M  V30 985 N 84.2517 0.741722 -1.39055 0
M  V30 986 C 85.4977 1.50336 -1.36113 0
M  V30 987 C 85.8307 1.94148 0.0450796 0
M  V30 988 O 85.1057 1.66301 1.00868 0
M  V30 989 C 85.3887 2.74773 -2.32749 0
M  V30 990 C 85.2417 2.37023 -3.82283 0
M  V30 991 C 86.5607 3.76846 -2.27322 0
M  V30 992 H 83.6797 0.545351 -0.495743 0
M  V30 993 H 86.3217 0.848624 -1.69995 0
M  V30 994 H 84.4717 3.30639 -2.03986 0
M  V30 995 H 86.1437 1.8684 -4.21768 0
M  V30 996 H 84.3867 1.69334 -3.99385 0
M  V30 997 H 85.0577 3.26104 -4.45376 0
M  V30 998 H 87.5337 3.30548 -2.5274 0
M  V30 999 H 86.4097 4.6159 -2.97028 0
M  V30 1000 H 86.6707 4.23286 -1.27599 0
M  V30 1001 N 85.7298 1.2412 0.971189 0
M  V30 1002 C 86.6398 1.04747 2.09917 0
M  V30 1003 C 87.6558 -0.0107162 1.73997 0
M  V30 1004 O 88.8318 0.186714 2.00533 0
M  V30 1005 C 85.8968 0.650828 3.40537 0
M  V30 1006 C 84.9578 1.7851 3.90426 0
M  V30 1007 C 84.1908 1.40729 5.14812 0
M  V30 1008 O 84.4138 0.29557 5.69634 0
M  V30 1009 O 83.3478 2.23168 5.58999 0
M  V30 1010 H 87.1738 1.99304 2.29154 0
M  V30 1011 H 84.7588 1.02908 1.08307 0
M  V30 1012 H 86.6408 0.440992 4.19086 0
M  V30 1013 H 85.3158 -0.265649 3.22608 0
M  V30 1014 H 84.2228 2.04966 3.12953 0
M  V30 1015 H 85.5558 2.68023 4.12825 0
M  V30 1016 N 87.2079 -1.17134 1.05439 0
M  V30 1017 C 88.1549 -2.21235 0.657539 0
M  V30 1018 C 89.1249 -1.62551 -0.341543 0
M  V30 1019 O 90.3099 -1.89379 -0.232393 0
M  V30 1020 C 87.4499 -3.45076 0.0410575 0
M  V30 1021 C 86.5629 -4.18042 1.08927 0
M  V30 1022 C 85.6979 -5.29376 0.439848 0
M  V30 1023 C 84.7369 -5.94132 1.4722 0
M  V30 1024 N 83.8739 -6.96975 0.846756 0
M  V30 1025 H 88.7139 -2.54534 1.54972 0
M  V30 1026 H 86.2509 -1.25028 0.775006 0
M  V30 1027 H 88.2089 -4.15862 -0.33383 0
M  V30 1028 H 86.8389 -3.12353 -0.814568 0
M  V30 1029 H 85.8909 -3.45945 1.58196 0
M  V30 1030 H 87.2029 -4.62306 1.87282 0
M  V30 1031 H 86.3569 -6.06699 0.0115125 0
M  V30 1032 H 85.0959 -4.86251 -0.375656 0
M  V30 1033 H 84.1009 -5.15538 1.91052 0
M  V30 1034 H 85.3259 -6.39337 2.28965 0
M  V30 1035 H 83.2719 -6.5598 0.0518075 0
M  V30 1036 H 83.1889 -7.39565 1.5678 0
M  V30 1037 H 84.4569 -7.78239 0.443277 0
M  V30 1038 N 88.686 -0.835752 -1.33615 0
M  V30 1039 C 89.935 -0.426289 -1.97144 0
M  V30 1040 C 90.248 1.01912 -1.66953 0
M  V30 1041 O 91.454 1.53311 -2.24072 0
M  V30 1042 C 89.91 -0.711321 -3.52801 0
M  V30 1043 C 89.518 -2.1712 -3.91871 0
M  V30 1044 C 91.262 -0.368654 -4.22896 0
M  V30 1045 C 89.169 -2.40044 -5.40493 0
M  V30 1046 H 88.099 -0.15567 -0.737755 0
M  V30 1047 H 90.75 -1.0239 -1.52278 0
M  V30 1048 H 89.132 -0.0433766 -3.95976 0
M  V30 1049 H 90.306 -2.87936 -3.59763 0
M  V30 1050 H 88.621 -2.47654 -3.34749 0
M  V30 1051 H 91.218 -0.517601 -5.32189 0
M  V30 1052 H 91.561 0.688078 -4.10574 0
M  V30 1053 H 92.094 -0.991702 -3.8524 0
M  V30 1054 H 88.833 -3.44271 -5.57815 0
M  V30 1055 H 88.353 -1.73785 -5.74072 0
M  V30 1056 H 90.032 -2.23042 -6.0734 0
M  V30 1057 N 90.1641 1.46063 -0.591896 0
M  V30 1058 C 91.3921 2.06717 -0.0868936 0
M  V30 1059 C 91.8071 1.43916 1.22203 0
M  V30 1060 O 91.1641 0.547698 1.74088 0
M  V30 1061 C 91.2151 3.6142 0.0758725 0
M  V30 1062 O 90.9361 4.21874 -1.18126 0
M  V30 1063 C 92.4371 4.39025 0.61416 0
M  V30 1064 H 89.6571 0.668162 -0.0616518 0
M  V30 1065 H 92.2011 1.8755 -0.815175 0
M  V30 1066 H 90.3561 3.79983 0.754413 0
M  V30 1067 H 90.7701 5.14861 -1.00092 0
M  V30 1068 H 92.2441 5.4783 0.677193 0
M  V30 1069 H 92.7211 4.07708 1.63312 0
M  V30 1070 H 93.3271 4.2529 -0.0298142 0
M  V30 1071 N 91.6422 0.330177 1.54103 0
M  V30 1072 C 92.8822 -0.270916 2.02597 0
M  V30 1073 C 93.2462 -1.48826 1.21304 0
M  V30 1074 O 94.4472 -2.16266 1.59633 0
M  V30 1075 C 92.7182 -0.590328 3.52491 0
M  V30 1076 S 94.2772 -1.17014 4.2291 0
M  V30 1077 H 91.0952 -0.0815379 0.706309 0
M  V30 1078 H 93.6972 0.464835 1.89893 0
M  V30 1079 H 92.4012 0.303691 4.09275 0
M  V30 1080 H 91.9322 -1.3561 3.69288 0
M  V30 1081 H 93.9472 -2.45662 4.3112 0
M  V30 1082 N 93.1203 -1.57491 0.0584922 0
M  V30 1083 C 94.3663 -1.93264 -0.614558 0
M  V30 1084 C 94.6993 -0.937717 -1.7006 0
M  V30 1085 O 93.9743 0.0351652 -1.94468 0
M  V30 1086 C 94.2573 -3.3938 -1.20386 0
M  V30 1087 C 94.1103 -4.49625 -0.125375 0
M  V30 1088 C 95.4293 -3.86039 -2.11334 0
M  V30 1089 H 92.5483 -0.702791 -0.221933 0
M  V30 1090 H 95.1903 -1.8961 0.12175 0
M  V30 1091 H 93.3403 -3.42626 -1.83139 0
M  V30 1092 H 95.0123 -4.58506 0.506971 0
M  V30 1093 H 93.2553 -4.30354 0.545672 0
M  V30 1094 H 93.9263 -5.48967 -0.577861 0
M  V30 1095 H 96.4023 -3.84716 -1.58534 0
M  V30 1096 H 95.2783 -4.88914 -2.49507 0
M  V30 1097 H 95.5393 -3.23215 -3.01636 0
M  V30 1098 N 94.5984 0.214957 -1.56127 0
M  V30 1099 C 95.5084 1.28727 -1.96129 0
M  V30 1100 C 96.5244 1.50916 -0.866044 0
M  V30 1101 O 97.7004 1.63918 -1.17016 0
M  V30 1102 C 94.7654 2.61569 -2.27558 0
M  V30 1103 C 93.8264 2.47625 -3.50685 0
M  V30 1104 C 93.0594 3.74132 -3.80606 0
M  V30 1105 O 93.2824 4.77438 -3.12104 0
M  V30 1106 O 92.2164 3.70849 -4.74083 0
M  V30 1107 H 96.0424 0.977855 -2.87527 0
M  V30 1108 H 93.6274 0.418358 -1.43423 0
M  V30 1109 H 95.5094 3.40012 -2.48938 0
M  V30 1110 H 94.1844 2.92178 -1.39332 0
M  V30 1111 H 93.0914 1.67361 -3.34576 0
M  V30 1112 H 94.4244 2.21954 -4.39315 0
M  V30 1113 N 96.0765 1.50051 0.48192 0
M  V30 1114 C 97.3045 1.64237 1.25832 0
M  V30 1115 C 97.7195 0.321336 1.86045 0
M  V30 1116 O 97.0765 -0.695478 1.68729 0
M  V30 1117 C 97.1275 2.72548 2.37487 0
M  V30 1118 O 96.8485 3.99529 1.79745 0
M  V30 1119 C 98.3495 2.9761 3.28547 0
M  V30 1120 H 95.5695 0.55237 0.380957 0
M  V30 1121 H 98.1135 1.96207 0.576467 0
M  V30 1122 H 96.2685 2.43303 3.01467 0
M  V30 1123 H 96.6825 4.59342 2.5319 0
M  V30 1124 H 98.1565 3.77084 4.03127 0
M  V30 1125 H 98.6335 2.0826 3.86684 0
M  V30 1126 H 99.2395 3.28345 2.70314 0
M  V30 1127 N 97.5546 -0.734337 1.39446 0
M  V30 1128 C 98.8006 -1.49613 1.36908 0
M  V30 1129 C 99.1336 -1.94169 -0.0347829 0
M  V30 1130 O 98.4086 -1.66833 -0.999847 0
M  V30 1131 C 98.6916 -2.73534 2.34203 0
M  V30 1132 C 98.5446 -2.34993 3.83534 0
M  V30 1133 C 99.8636 -3.75635 2.29317 0
M  V30 1134 H 96.9826 -0.542714 0.498629 0
M  V30 1135 H 99.6246 -0.839597 1.70443 0
M  V30 1136 H 97.7746 -3.29553 2.05736 0
M  V30 1137 H 99.4466 -1.84601 4.22753 0
M  V30 1138 H 97.6896 -1.67213 4.00278 0
M  V30 1139 H 98.3606 -3.23738 4.47099 0
M  V30 1140 H 100.837 -3.29203 2.54489 0
M  V30 1141 H 99.7126 -4.60008 2.99472 0
M  V30 1142 H 99.9736 -4.22603 1.29842 0
M  V30 1143 N 99.0327 -1.24633 -0.964593 0
M  V30 1144 C 100.279 -1.08949 -1.71049 0
M  V30 1145 C 100.612 0.370302 -1.90637 0
M  V30 1146 O 99.8867 1.27349 -1.47011 0
M  V30 1147 C 100.17 -1.83329 -3.0994 0
M  V30 1148 C 100.023 -3.37077 -2.97824 0
M  V30 1149 C 101.342 -1.60846 -4.09654 0
M  V30 1150 H 98.4607 -0.397178 -0.620821 0
M  V30 1151 H 101.103 -1.5334 -1.12191 0
M  V30 1152 H 99.2527 -1.45597 -3.60186 0
M  V30 1153 H 100.925 -3.84425 -2.5498 0
M  V30 1154 H 99.1677 -3.65298 -2.33965 0
M  V30 1155 H 99.8387 -3.84324 -3.96231 0
M  V30 1156 H 102.315 -1.93674 -3.68279 0
M  V30 1157 H 101.191 -2.1534 -5.04896 0
M  V30 1158 H 101.452 -0.547434 -4.38698 0
M  V30 1159 N 100.511 1.16574 -1.06058 0
M  V30 1160 C 101.922 1.68662 -0.800632 0
M  V30 1161 C 102.273 1.84184 0.67608 0
M  V30 1162 O 101.398 1.53568 1.52466 0
M  V30 1163 C 101.993 3.06356 -1.44676 0
M  V30 1164 C 100.552 3.55575 -1.23465 0
M  V30 1165 C 99.6988 2.31616 -1.52477 0
M  V30 1166 H 102.65 1.00969 -1.22438 0
M  V30 1167 H 102.671 3.70636 -0.860788 0
M  V30 1168 H 102.183 2.95027 -2.52152 0
M  V30 1169 H 100.284 3.72167 -0.179527 0
M  V30 1170 H 100.397 4.37812 -1.94571 0
M  V30 1171 H 98.7608 2.36512 -0.945209 0
M  V30 1172 H 99.5438 2.22887 -2.61106 0
M  V30 1173 N 101.989 0.842826 1.3317 0
M  V30 1174 C 102.899 0.281444 2.32906 0
M  V30 1175 C 103.915 -0.594587 1.63526 0
M  V30 1176 O 105.091 -0.49777 1.95152 0
M  V30 1177 C 102.156 -0.530929 3.42611 0
M  V30 1178 C 101.217 0.369843 4.27704 0
M  V30 1179 C 100.45 -0.403853 5.3217 0
M  V30 1180 O 100.673 -1.63513 5.46461 0
M  V30 1181 O 99.6069 0.224199 6.01482 0
M  V30 1182 H 103.433 1.10744 2.82789 0
M  V30 1183 H 101.018 0.60545 1.36582 0
M  V30 1184 H 102.9 -0.992437 4.09547 0
M  V30 1185 H 101.575 -1.33392 2.94938 0
M  V30 1186 H 100.482 0.879275 3.6362 0
M  V30 1187 H 101.815 1.13771 4.78871 0
M  V30 1188 N 103.467 -1.45747 0.599634 0
M  V30 1189 C 104.414 -2.30467 -0.123849 0
M  V30 1190 C 105.384 -1.41632 -0.86774 0
M  V30 1191 O 106.569 -1.70568 -0.855056 0
M  V30 1192 C 103.709 -3.26402 -1.12051 0
M  V30 1193 C 102.822 -4.3034 -0.37832 0
M  V30 1194 C 101.957 -5.13389 -1.364 0
M  V30 1195 C 100.996 -6.09061 -0.609171 0
M  V30 1196 N 100.133 -6.84918 -1.54374 0
M  V30 1197 H 104.973 -2.91802 0.604627 0
M  V30 1198 H 102.51 -1.43797 0.309972 0
M  V30 1199 H 104.468 -3.80482 -1.7114 0
M  V30 1200 H 103.098 -2.66839 -1.8165 0
M  V30 1201 H 102.15 -3.78984 0.327929 0
M  V30 1202 H 103.462 -4.98354 0.210997 0
M  V30 1203 H 102.616 -5.7183 -2.02719 0
M  V30 1204 H 101.355 -4.45376 -1.98725 0
M  V30 1205 H 100.36 -5.49758 0.0676979 0
M  V30 1206 H 101.585 -6.79099 0.00891991 0
M  V30 1207 H 99.531 -6.19601 -2.15478 0
M  V30 1208 H 99.448 -7.49254 -1.00766 0
M  V30 1209 H 100.716 -7.47906 -2.19676 0
M  V30 1210 N 104.945 -0.338344 -1.53925 0
M  V30 1211 C 105.893 0.536231 -2.26335 0
M  V30 1212 C 106.887 1.1063 -1.28286 0
M  V30 1213 O 108.093 1.05264 -1.46012 0
M  V30 1214 H 104.468 0.191602 -0.727181 0
M  V30 1215 H 106.439 -0.0965747 -2.98244 0
M  V30 1216 C 105.188 1.67803 -3.04528 0
M  V30 1217 H 104.511 1.24864 -3.79801 0
M  V30 1218 H 105.951 2.26526 -3.58416 0
M  V30 1219 C 104.41 2.60439 -2.13712 0
M  V30 1220 O 104.94 3.6255 -1.72975 0
M  V30 1221 N 103.146 2.29006 -1.78898 0
M  V30 1222 H 102.693 1.46011 -2.12223 0
M  V30 1223 H 102.651 2.91248 -1.18416 0
M  V30 1224 N 106.423 1.57458 -0.0668435 0
M  V30 1225 C 107.834 1.80776 0.466558 0
M  V30 1226 C 108.185 0.980361 1.69951 0
M  V30 1227 O 107.31 0.201441 2.1546 0
M  V30 1228 C 107.905 3.27881 0.85321 0
M  V30 1229 C 106.464 3.52062 1.3315 0
M  V30 1230 C 105.611 2.75513 0.314264 0
M  V30 1231 H 108.562 1.5598 -0.292588 0
M  V30 1232 H 108.583 3.39659 1.715 0
M  V30 1233 H 108.095 3.88075 -0.0443439 0
M  V30 1234 H 106.196 2.97167 2.24772 0
M  V30 1235 H 106.309 4.60762 1.31285 0
M  V30 1236 H 104.673 2.42123 0.790492 0
M  V30 1237 H 105.456 3.38442 -0.575477 0
M  V30 1238 N 107.901 -0.206675 1.56239 0
M  V30 1239 C 109.312 -0.772383 1.69974 0
M  V30 1240 C 109.663 -1.84353 0.671436 0
M  V30 1241 O 108.788 -2.15695 -0.174491 0
M  V30 1242 C 109.383 -1.40779 3.08167 0
M  V30 1243 C 107.942 -1.92072 3.23706 0
M  V30 1244 C 107.089 -0.786347 2.65917 0
M  V30 1245 H 110.04 0.0182223 1.5869 0
M  V30 1246 H 110.061 -2.27696 3.04852 0
M  V30 1247 H 109.573 -0.627958 3.82986 0
M  V30 1248 H 107.674 -2.7281 2.53782 0
M  V30 1249 H 107.787 -2.09046 4.31087 0
M  V30 1250 H 106.151 -1.1976 2.24788 0
M  V30 1251 H 106.934 -0.0189416 3.43295 0
M  V30 1252 N 109.379 -1.50304 -0.473955 0
M  V30 1253 C 110.79 -1.54042 -1.0549 0
M  V30 1254 C 111.141 -0.342248 -1.93192 0
M  V30 1255 O 110.266 0.545157 -2.09421 0
M  V30 1256 C 110.861 -2.79152 -1.91989 0
M  V30 1257 C 109.42 -2.8558 -2.45196 0
M  V30 1258 C 108.567 -2.48295 -1.2347 0
M  V30 1259 H 111.518 -1.5661 -0.256693 0
M  V30 1260 H 111.539 -2.60845 -2.7702 0
M  V30 1261 H 111.051 -3.66339 -1.28131 0
M  V30 1262 H 109.152 -2.02738 -3.12615 0
M  V30 1263 H 109.265 -3.88403 -2.80499 0
M  V30 1264 H 107.629 -2.00669 -1.56856 0
M  V30 1265 H 108.412 -3.37787 -0.612789 0
M  V30 1266 N 110.857 0.726932 -1.39834 0
M  V30 1267 C 111.767 1.87131 -1.41489 0
M  V30 1268 C 112.783 1.71239 -0.308757 0
M  V30 1269 O 113.959 1.93701 -0.551529 0
M  V30 1270 C 111.024 3.22811 -1.26468 0
M  V30 1271 C 110.085 3.51039 -2.47124 0
M  V30 1272 C 109.318 4.80245 -2.3281 0
M  V30 1273 O 109.541 5.54537 -1.33585 0
M  V30 1274 O 108.475 5.08554 -3.21957 0
M  V30 1275 H 112.301 1.8869 -2.3797 0
M  V30 1276 H 109.886 0.875837 -1.21035 0
M  V30 1277 H 111.768 4.03877 -1.20255 0
M  V30 1278 H 110.443 3.22005 -0.330862 0
M  V30 1279 H 109.35 2.70027 -2.58914 0
M  V30 1280 H 110.683 3.56632 -3.39227 0
M  V30 1281 N 112.336 1.25143 0.95797 0
M  V30 1282 C 113.752 1.01892 1.22842 0
M  V30 1283 C 113.952 -0.266311 1.99732 0
M  V30 1284 O 113.008 -0.979913 2.3271 0
M  V30 1285 C 114.321 2.24004 2.00606 0
M  V30 1286 C 115.869 2.28731 2.13662 0
M  V30 1287 C 116.344 3.5049 2.94823 0
M  V30 1288 N 117.835 3.50866 3.02403 0
M  V30 1289 C 118.57 4.4174 3.65586 0
M  V30 1290 N 118.066 5.42882 4.30408 0
M  V30 1291 N 119.859 4.29429 3.62694 0
M  V30 1292 H 112.01 2.07718 0.443493 0
M  V30 1293 H 114.273 0.912031 0.258657 0
M  V30 1294 H 113.979 3.17395 1.51503 0
M  V30 1295 H 113.853 2.26907 3.01319 0
M  V30 1296 H 116.24 1.35865 2.61963 0
M  V30 1297 H 116.321 2.29848 1.12265 0
M  V30 1298 H 115.965 4.43676 2.47213 0
M  V30 1299 H 115.895 3.46617 3.96439 0
M  V30 1300 H 118.386 2.777 2.56302 0
M  V30 1301 H 118.699 6.0844 4.76467 0
M  V30 1302 H 117.044 5.46758 4.29047 0
M  V30 1303 H 120.235 3.49643 3.11236 0
M  V30 1304 H 120.408 5.00448 4.1165 0
M  V30 1305 N 113.814 -1.1601 1.06675 0
M  V30 1306 C 114.746 -2.20115 0.638921 0
M  V30 1307 C 115.759 -1.59916 -0.305057 0
M  V30 1308 O 116.948 -1.78245 -0.0954446 0
M  V30 1309 C 114.048 -3.38798 -0.0830083 0
M  V30 1310 C 113.221 -4.2855 0.875426 0
M  V30 1311 C 112.28 -5.25849 0.192042 0
M  V30 1312 O 111.306 -5.63102 0.830921 0
M  V30 1313 N 112.508 -5.70648 -1.06493 0
M  V30 1314 H 115.273 -2.57439 1.53444 0
M  V30 1315 H 112.834 -1.31057 0.950557 0
M  V30 1316 H 114.826 -4.00936 -0.550685 0
M  V30 1317 H 113.396 -2.99947 -0.880386 0
M  V30 1318 H 112.616 -3.63617 1.52238 0
M  V30 1319 H 113.904 -4.85393 1.52548 0
M  V30 1320 H 113.302 -5.42482 -1.60405 0
M  V30 1321 H 111.859 -6.34859 -1.47641 0
M  V30 1322 N 115.292 -0.849877 -1.32721 0
M  V30 1323 C 116.541 -0.447175 -1.96681 0
M  V30 1324 C 116.854 1.00135 -1.68025 0
M  V30 1325 O 118.06 1.50926 -2.25685 0
M  V30 1326 C 116.516 -0.7487 -3.52026 0
M  V30 1327 C 116.124 -2.21264 -3.89546 0
M  V30 1328 C 117.868 -0.413487 -4.22481 0
M  V30 1329 C 115.775 -2.45763 -5.37917 0
M  V30 1330 H 114.705 -0.163486 -0.736063 0
M  V30 1331 H 117.356 -1.03999 -1.51183 0
M  V30 1332 H 115.738 -0.0853727 -3.95908 0
M  V30 1333 H 116.912 -2.91736 -3.56689 0
M  V30 1334 H 115.227 -2.5119 -3.32103 0
M  V30 1335 H 117.824 -0.574017 -5.3161 0
M  V30 1336 H 118.167 0.644492 -4.11281 0
M  V30 1337 H 118.7 -1.03251 -3.84167 0
M  V30 1338 H 115.439 -3.50168 -5.54132 0
M  V30 1339 H 114.959 -1.79864 -5.72197 0
M  V30 1340 H 116.638 -2.29471 -6.0494 0
M  V30 1341 N 116.77 1.45427 -0.607355 0
M  V30 1342 C 118.181 1.85756 -0.187535 0
M  V30 1343 C 118.532 1.5077 1.25551 0
M  V30 1344 O 117.657 0.93427 1.95193 0
M  V30 1345 C 118.252 3.37154 -0.333572 0
M  V30 1346 C 116.811 3.76387 0.0315542 0
M  V30 1347 C 115.958 2.69377 -0.658117 0
M  V30 1348 H 118.909 1.36231 -0.81405 0
M  V30 1349 H 118.93 3.78014 0.43428 0
M  V30 1350 H 118.442 3.62586 -1.38393 0
M  V30 1351 H 116.543 3.56571 1.0811 0
M  V30 1352 H 116.656 4.77731 -0.361935 0
M  V30 1353 H 115.02 2.5452 -0.0957873 0
M  V30 1354 H 115.803 2.97646 -1.7106 0
M  V30 1355 N 118.248 0.346503 1.53744 0
M  V30 1356 C 119.664 -0.00530975 1.59599 0
M  V30 1357 C 119.864 -1.48465 1.36236 0
M  V30 1358 O 118.92 -2.24376 1.15808 0
M  V30 1359 C 120.233 0.433516 2.97559 0
M  V30 1360 C 121.781 0.386111 3.10609 0
M  V30 1361 C 122.256 0.800451 4.50951 0
M  V30 1362 N 123.747 0.754753 4.5701 0
M  V30 1363 C 124.482 1.04727 5.63755 0
M  V30 1364 N 123.978 1.4081 6.7834 0
M  V30 1365 N 125.771 0.971316 5.53644 0
M  V30 1366 H 117.922 1.31009 1.67184 0
M  V30 1367 H 120.185 0.534242 0.783128 0
M  V30 1368 H 119.891 1.46509 3.19731 0
M  V30 1369 H 119.765 -0.189753 3.76722 0
M  V30 1370 H 122.152 -0.636295 2.88158 0
M  V30 1371 H 122.233 1.04462 2.33498 0
M  V30 1372 H 121.877 1.82088 4.74137 0
M  V30 1373 H 121.807 0.119386 5.26465 0
M  V30 1374 H 124.298 0.488662 3.74727 0
M  V30 1375 H 124.611 1.61607 7.55714 0
M  V30 1376 H 122.956 1.44657 6.79779 0
M  V30 1377 H 126.147 0.688748 4.63005 0
M  V30 1378 H 126.32 1.20263 6.36742 0
M  V30 1379 N 119.726 -1.57421 0.075193 0
M  V30 1380 C 121.142 -1.57099 -0.281444 0
M  V30 1381 C 121.342 -1.08486 -1.69803 0
M  V30 1382 O 120.398 -0.752279 -2.41033 0
M  V30 1383 C 121.711 -3.00571 -0.0880041 0
M  V30 1384 C 123.259 -3.12605 -0.157281 0
M  V30 1385 C 123.734 -4.57999 0.0079207 0
M  V30 1386 N 125.225 -4.63176 -0.0475725 0
M  V30 1387 C 125.96 -5.73373 0.0557876 0
M  V30 1388 N 125.456 -6.92473 0.21286 0
M  V30 1389 N 127.249 -5.621 -0.00152098 0
M  V30 1390 H 119.4 -1.87335 1.00098 0
M  V30 1391 H 121.663 -0.86377 0.390646 0
M  V30 1392 H 121.369 -3.40262 0.889629 0
M  V30 1393 H 121.243 -3.67754 -0.838875 0
M  V30 1394 H 123.63 -2.72798 -1.1254 0
M  V30 1395 H 123.711 -2.48053 0.62475 0
M  V30 1396 H 123.355 -4.98496 0.972824 0
M  V30 1397 H 123.285 -5.20586 -0.793556 0
M  V30 1398 H 125.776 -3.7753 -0.167244 0
M  V30 1399 H 126.089 -7.72279 0.283781 0
M  V30 1400 H 124.434 -6.94556 0.248267 0
M  V30 1401 H 127.625 -4.67938 -0.122958 0
M  V30 1402 H 127.798 -6.47948 0.0824844 0
M  V30 1403 N 121.204 0.198386 -1.56346 0
M  V30 1404 C 122.452 0.91747 -1.80075 0
M  V30 1405 C 122.773 1.83929 -0.647692 0
M  V30 1406 O 122.043 1.93029 0.334166 0
M  V30 1407 H 120.623 0.341774 -0.664228 0
M  V30 1408 H 123.285 0.204684 -1.93822 0
M  V30 1409 H 122.381 1.51055 -2.7311 0
M  V30 1410 N 122.682 1.50554 0.465978 0
M  V30 1411 C 123.592 1.72585 1.58907 0
M  V30 1412 C 124.608 0.60911 1.6299 0
M  V30 1413 O 125.784 0.88804 1.80765 0
M  V30 1414 C 122.849 1.81995 2.95091 0
M  V30 1415 C 121.91 3.05751 3.01355 0
M  V30 1416 C 121.143 3.14702 4.31043 0
M  V30 1417 O 121.366 2.30313 5.21835 0
M  V30 1418 O 120.3 4.07468 4.43005 0
M  V30 1419 H 124.126 2.67799 1.43239 0
M  V30 1420 H 121.711 1.34711 0.646013 0
M  V30 1421 H 123.593 1.90335 3.75966 0
M  V30 1422 H 122.268 0.899659 3.10947 0
M  V30 1423 H 121.175 3.02908 2.19539 0
M  V30 1424 H 122.508 3.97375 2.90437 0
M  V30 1425 N 124.16 -0.719506 1.40217 0
M  V30 1426 C 125.07 -1.86378 1.42479 0
M  V30 1427 C 126.086 -1.71073 0.317834 0
M  V30 1428 O 127.262 -1.93406 0.561794 0
M  V30 1429 C 124.327 -3.22136 1.28178 0
M  V30 1430 C 123.388 -3.49723 2.48982 0
M  V30 1431 C 122.621 -4.79004 2.35353 0
M  V30 1432 O 122.844 -5.53821 1.36524 0
M  V30 1433 O 121.778 -5.06839 3.2465 0
M  V30 1434 H 125.604 -1.87425 2.38968 0
M  V30 1435 H 123.189 -0.869405 1.21498 0
M  V30 1436 H 125.071 -4.03234 1.22395 0
M  V30 1437 H 123.746 -3.21825 0.347934 0
M  V30 1438 H 122.653 -2.6865 2.60342 0
M  V30 1439 H 123.986 -3.54828 3.41113 0
M  V30 1440 N 125.638 -1.25649 -0.95132 0
M  V30 1441 C 126.863 -1.13443 -1.73624 0
M  V30 1442 C 127.288 0.307565 -1.85568 0
M  V30 1443 O 126.646 1.22282 -1.33854 0
M  V30 1444 C 126.694 -1.79723 -3.12621 0
M  V30 1445 O 125.798 -1.07912 -3.98031 0
M  V30 1446 H 125.139 -0.395872 -0.533086 0
M  V30 1447 H 127.669 -1.66276 -1.1922 0
M  V30 1448 H 127.679 -1.86141 -3.63064 0
M  V30 1449 H 126.354 -2.84633 -3.03244 0
M  V30 1450 H 124.931 -1.09398 -3.56492 0
M  V30 1451 N 127.117 1.15442 -1.07289 0
M  V30 1452 C 128.342 1.90638 -0.816828 0
M  V30 1453 C 128.767 1.77445 0.624083 0
M  V30 1454 O 128.125 1.10671 1.43602 0
M  V30 1455 C 128.173 3.39008 -1.22906 0
M  V30 1456 O 127.277 4.10701 -0.373975 0
M  V30 1457 H 126.618 0.593555 -0.297638 0
M  V30 1458 H 129.148 1.46198 -1.43134 0
M  V30 1459 H 129.158 3.89801 -1.20497 0
M  V30 1460 H 127.833 3.47929 -2.27856 0
M  V30 1461 H 126.41 3.70046 -0.460499 0
M  V30 1462 N 128.595 0.856903 1.32268 0
M  V30 1463 C 129.505 0.306131 2.32594 0
M  V30 1464 C 130.521 -0.577209 1.64147 0
M  V30 1465 O 131.697 -0.477043 1.95669 0
M  V30 1466 C 128.762 -0.494561 3.43154 0
M  V30 1467 C 127.823 0.415186 4.27288 0
M  V30 1468 C 127.056 -0.347387 5.32568 0
M  V30 1469 O 127.279 -1.57708 5.48165 0
M  V30 1470 O 126.213 0.287982 6.01211 0
M  V30 1471 H 130.039 1.13737 2.81598 0
M  V30 1472 H 127.624 0.619902 1.35932 0
M  V30 1473 H 129.506 -0.948944 4.10576 0
M  V30 1474 H 128.181 -1.30257 2.96336 0
M  V30 1475 H 127.088 0.917793 3.62667 0
M  V30 1476 H 128.421 1.18844 4.77637 0
M  V30 1477 N 130.073 -1.45103 0.615059 0
M  V30 1478 C 131.006 -2.27717 -0.148408 0
M  V30 1479 C 131.984 -1.37584 -0.866572 0
M  V30 1480 O 133.168 -1.67017 -0.87393 0
M  V30 1481 C 130.295 -3.16136 -1.21557 0
M  V30 1482 C 129.341 -4.22263 -0.599712 0
M  V30 1483 S 130.174 -5.3215 0.598081 0
M  V30 1484 C 131.33 -6.24137 -0.469484 0
M  V30 1485 H 131.563 -2.92121 0.552483 0
M  V30 1486 H 129.096 -1.49054 0.402778 0
M  V30 1487 H 131.054 -3.67633 -1.82638 0
M  V30 1488 H 129.715 -2.50982 -1.88857 0
M  V30 1489 H 128.908 -4.84081 -1.4029 0
M  V30 1490 H 128.51 -3.73945 -0.063876 0
M  V30 1491 H 130.802 -6.63984 -1.34652 0
M  V30 1492 H 131.745 -7.0801 0.112725 0
M  V30 1493 H 132.153 -5.58971 -0.788168 0
M  V30 1494 N 131.551 -0.354651 -1.53558 0
M  V30 1495 C 132.461 0.50515 -2.29097 0
M  V30 1496 C 133.477 1.10223 -1.34636 0
M  V30 1497 O 134.653 1.11553 -1.67684 0
M  V30 1498 C 131.718 1.63479 -3.05738 0
M  V30 1499 C 130.779 1.06636 -4.15845 0
M  V30 1500 C 130.012 2.14217 -4.88822 0
M  V30 1501 O 130.235 3.35137 -4.61562 0
M  V30 1502 O 129.169 1.77887 -5.75013 0
M  V30 1503 H 132.995 -0.109237 -3.03503 0
M  V30 1504 H 130.58 -0.119357 -1.48922 0
M  V30 1505 H 132.462 2.2918 -3.5363 0
M  V30 1506 H 131.137 2.23478 -2.34178 0
M  V30 1507 H 130.044 0.373565 -3.7223 0
M  V30 1508 H 131.377 0.511081 -4.89539 0
M  V30 1509 N 133.029 1.57378 -0.0835403 0
M  V30 1510 C 133.961 2.10389 0.909338 0
M  V30 1511 C 134.974 1.03858 1.25369 0
M  V30 1512 O 136.163 1.31338 1.20882 0
M  V30 1513 C 133.263 2.55908 2.2218 0
M  V30 1514 C 132.436 3.86145 2.05453 0
M  V30 1515 C 131.495 4.17633 3.20108 0
M  V30 1516 O 130.521 4.87043 2.94581 0
M  V30 1517 N 131.723 3.72113 4.45547 0
M  V30 1518 H 134.488 2.962 0.456657 0
M  V30 1519 H 132.049 1.61579 0.101877 0
M  V30 1520 H 134.041 2.74027 2.97811 0
M  V30 1521 H 132.611 1.75171 2.58909 0
M  V30 1522 H 131.831 3.7729 1.1422 0
M  V30 1523 H 133.119 4.7137 1.91541 0
M  V30 1524 H 132.517 3.16062 4.69171 0
M  V30 1525 H 131.074 3.95409 5.18165 0
M  V30 1526 N 134.507 -0.190092 1.56449 0
M  V30 1527 C 135.756 -0.907912 1.80111 0
M  V30 1528 C 136.069 -1.84214 0.657619 0
M  V30 1529 O 137.275 -2.60094 0.778663 0
M  V30 1530 C 135.731 -1.66485 3.19078 0
M  V30 1531 C 135.339 -0.7752 4.41242 0
M  V30 1532 C 137.083 -2.37201 3.52045 0
M  V30 1533 C 134.99 -1.53129 5.71231 0
M  V30 1534 H 133.92 -0.34276 0.671589 0
M  V30 1535 H 136.571 -0.161109 1.82791 0
M  V30 1536 H 134.953 -2.45572 3.10661 0
M  V30 1537 H 136.127 -0.0226298 4.60794 0
M  V30 1538 H 134.442 -0.178627 4.16017 0
M  V30 1539 H 137.039 -2.94329 4.46402 0
M  V30 1540 H 137.382 -3.11632 2.76028 0
M  V30 1541 H 137.915 -1.65075 3.61932 0
M  V30 1542 H 134.654 -0.82967 6.50228 0
M  V30 1543 H 134.174 -2.25767 5.55688 0
M  V30 1544 H 135.853 -2.08377 6.12526 0
M  V30 1545 N 135.985 -1.50799 -0.457987 0
M  V30 1546 C 137.21 -1.66496 -1.23668 0
M  V30 1547 C 137.635 -0.353288 -1.84752 0
M  V30 1548 O 136.993 0.684346 -1.67888 0
M  V30 1549 C 137.041 -2.76763 -2.3116 0
M  V30 1550 O 136.145 -2.38928 -3.36136 0
M  V30 1551 H 135.486 -0.555828 -0.363252 0
M  V30 1552 H 138.016 -1.9725 -0.543474 0
M  V30 1553 H 138.026 -3.00232 -2.76269 0
M  V30 1554 H 136.701 -3.71954 -1.86073 0
M  V30 1555 H 135.278 -2.25953 -2.96647 0
M  V30 1556 N 137.463 0.71206 -1.40597 0
M  V30 1557 C 138.712 1.46754 -1.38369 0
M  V30 1558 C 139.025 1.95598 0.0097839 0
M  V30 1559 O 140.231 2.71059 0.154677 0
M  V30 1560 C 138.687 2.65289 -2.43207 0
M  V30 1561 C 138.295 2.23301 -3.88382 0
M  V30 1562 C 140.039 3.43008 -2.50091 0
M  V30 1563 C 137.946 3.38696 -4.84808 0
M  V30 1564 H 136.876 0.55118 -0.514506 0
M  V30 1565 H 139.527 0.774616 -1.66349 0
M  V30 1566 H 137.909 3.36769 -2.08332 0
M  V30 1567 H 139.083 1.59218 -4.32419 0
M  V30 1568 H 137.398 1.58618 -3.85006 0
M  V30 1569 H 139.995 4.28881 -3.1932 0
M  V30 1570 H 140.338 3.87065 -1.53253 0
M  V30 1571 H 140.871 2.78574 -2.83974 0
M  V30 1572 H 137.61 2.99668 -5.82992 0
M  V30 1573 H 137.13 4.01683 -4.45433 0
M  V30 1574 H 138.809 4.04712 -5.04794 0
M  V30 1575 N 138.941 1.26152 0.944643 0
M  V30 1576 C 140.19 1.10883 1.68487 0
M  V30 1577 C 140.503 -0.348153 1.92477 0
M  V30 1578 O 141.709 -0.621459 2.64292 0
M  V30 1579 C 140.165 1.93624 3.03377 0
M  V30 1580 C 139.773 3.43875 2.87148 0
M  V30 1581 C 141.517 1.86954 3.81115 0
M  V30 1582 C 139.424 4.18875 4.1749 0
M  V30 1583 H 138.354 0.41135 0.631907 0
M  V30 1584 H 141.005 1.50433 1.05082 0
M  V30 1585 H 139.387 1.46904 3.67743 0
M  V30 1586 H 140.561 3.98338 2.31653 0
M  V30 1587 H 138.876 3.51744 2.22856 0
M  V30 1588 H 141.473 2.40275 4.77673 0
M  V30 1589 H 141.816 0.839518 4.07747 0
M  V30 1590 H 142.349 2.31477 3.23517 0
M  V30 1591 H 139.088 5.22332 3.96043 0
M  V30 1592 H 138.608 3.69193 4.72712 0
M  V30 1593 H 140.287 4.27134 4.85968 0
M  V30 1594 N 140.419 -1.14872 1.07899 0
M  V30 1595 C 141.329 -2.2341 0.715915 0
M  V30 1596 C 142.345 -1.71808 -0.275306 0
M  V30 1597 O 143.521 -2.01039 -0.120545 0
M  V30 1598 C 140.586 -3.46474 0.125168 0
M  V30 1599 C 139.647 -4.13039 1.17034 0
M  V30 1600 C 138.88 -5.30229 0.607688 0
M  V30 1601 O 139.103 -5.675 -0.574497 0
M  V30 1602 O 138.037 -5.86444 1.35526 0
M  V30 1603 H 141.863 -2.56808 1.62121 0
M  V30 1604 H 139.448 -1.22702 0.852322 0
M  V30 1605 H 141.33 -4.20917 -0.201729 0
M  V30 1606 H 140.005 -3.14811 -0.753364 0
M  V30 1607 H 138.912 -3.40493 1.54968 0
M  V30 1608 H 140.245 -4.48796 2.02097 0
M  V30 1609 N 141.898 -0.863906 -1.31812 0
M  V30 1610 C 143.314 -0.555004 -1.49639 0
M  V30 1611 C 143.514 0.912266 -1.79666 0
M  V30 1612 O 142.57 1.69479 -1.87171 0
M  V30 1613 C 143.883 -1.44998 -2.63431 0
M  V30 1614 C 145.431 -1.45138 -2.77316 0
M  V30 1615 C 145.906 -2.33179 -3.94197 0
M  V30 1616 N 147.397 -2.31025 -4.01474 0
M  V30 1617 C 148.132 -2.95871 -4.9117 0
M  V30 1618 N 147.628 -3.69863 -5.8581 0
M  V30 1619 N 149.421 -2.85211 -4.84367 0
M  V30 1620 H 141.572 -1.81339 -1.10589 0
M  V30 1621 H 143.835 -0.77505 -0.545895 0
M  V30 1622 H 143.541 -2.49377 -2.48 0
M  V30 1623 H 143.415 -1.14409 -3.59431 0
M  V30 1624 H 145.802 -0.415201 -2.92164 0
M  V30 1625 H 145.883 -1.79747 -1.82001 0
M  V30 1626 H 145.527 -3.3687 -3.80107 0
M  V30 1627 H 145.457 -1.95897 -4.88807 0
M  V30 1628 H 147.948 -1.77238 -3.33759 0
M  V30 1629 H 148.261 -4.16486 -6.50968 0
M  V30 1630 H 146.606 -3.73971 -5.85808 0
M  V30 1631 H 149.797 -2.26948 -4.09405 0
M  V30 1632 H 149.97 -3.36027 -5.54066 0
M  V30 1633 N 143.376 1.44774 -0.622745 0
M  V30 1634 C 144.623 2.02121 -0.1239 0
M  V30 1635 C 144.951 1.48915 1.25118 0
M  V30 1636 O 144.206 0.660045 1.84233 0
M  V30 1637 C 144.505 3.57364 -0.0508323 0
M  V30 1638 C 144.171 4.29787 -1.36358 0
M  V30 1639 C 142.833 4.4929 -1.72314 0
M  V30 1640 C 145.185 4.71062 -2.23048 0
M  V30 1641 C 142.513 5.07325 -2.94682 0
M  V30 1642 C 144.865 5.30452 -3.44679 0
M  V30 1643 C 143.529 5.48175 -3.80868 0
M  V30 1644 H 142.799 0.739612 -0.0453381 0
M  V30 1645 H 145.446 1.73648 -0.807389 0
M  V30 1646 H 143.751 3.85202 0.715991 0
M  V30 1647 H 145.448 3.99456 0.351533 0
M  V30 1648 H 142.038 4.14932 -1.07375 0
M  V30 1649 H 146.222 4.55715 -1.96565 0
M  V30 1650 H 141.478 5.19235 -3.22809 0
M  V30 1651 H 145.652 5.61385 -4.12092 0
M  V30 1652 H 143.279 5.92912 -4.75773 0
M  V30 1653 N 144.854 0.36279 1.53368 0
M  V30 1654 C 146.265 -0.117022 1.86333 0
M  V30 1655 C 146.616 -1.48397 1.28347 0
M  V30 1656 O 145.741 -2.07787 0.604428 0
M  V30 1657 C 146.336 -0.21912 3.38091 0
M  V30 1658 C 144.895 -0.643184 3.70864 0
M  V30 1659 C 144.042 0.211318 2.76494 0
M  V30 1660 H 146.993 0.581687 1.47655 0
M  V30 1661 H 147.014 -1.04319 3.6592 0
M  V30 1662 H 146.526 0.775902 3.80265 0
M  V30 1663 H 144.627 -1.64654 3.34245 0
M  V30 1664 H 144.74 -0.41973 4.77258 0
M  V30 1665 H 143.104 -0.319367 2.5269 0
M  V30 1666 H 143.887 1.20383 3.21501 0
M  V30 1667 N 146.332 -1.57332 0.0918853 0
M  V30 1668 C 147.562 -1.98286 -0.580205 0
M  V30 1669 C 147.97 -0.969713 -1.6246 0
M  V30 1670 O 147.313 0.0493501 -1.83634 0
M  V30 1671 C 147.375 -3.35603 -1.28882 0
M  V30 1672 C 147.039 -4.55285 -0.395559 0
M  V30 1673 C 148.036 -5.18687 0.355002 0
M  V30 1674 C 145.721 -5.01314 -0.314556 0
M  V30 1675 C 147.715 -6.26484 1.17458 0
M  V30 1676 C 145.402 -6.08979 0.508677 0
M  V30 1677 C 146.4 -6.71429 1.2519 0
M  V30 1678 O 146.088 -7.77018 2.06151 0
M  V30 1679 H 145.82 -0.656678 -0.160466 0
M  V30 1680 H 148.374 -2.04721 0.16688 0
M  V30 1681 H 146.604 -3.25842 -2.08241 0
M  V30 1682 H 148.293 -3.61026 -1.85512 0
M  V30 1683 H 149.059 -4.84058 0.302134 0
M  V30 1684 H 144.938 -4.5247 -0.882697 0
M  V30 1685 H 148.482 -6.75159 1.75518 0
M  V30 1686 H 144.379 -6.4304 0.563037 0
M  V30 1687 H 145.147 -7.93991 1.98799 0
M  V30 1688 N 147.81 0.181792 -1.56548 0
M  V30 1689 C 149.221 0.745244 -1.71181 0
M  V30 1690 C 149.572 1.83262 -0.70068 0
M  V30 1691 O 148.697 2.15946 0.140154 0
M  V30 1692 C 149.292 1.35859 -3.10367 0
M  V30 1693 C 147.851 1.86898 -3.2672 0
M  V30 1694 C 146.998 0.743942 -2.67134 0
M  V30 1695 H 149.949 -0.0434661 -1.5864 0
M  V30 1696 H 149.97 2.22817 -3.08436 0
M  V30 1697 H 149.482 0.566948 -3.83937 0
M  V30 1698 H 147.583 2.68738 -2.5809 0
M  V30 1699 H 147.696 2.02162 -4.34359 0
M  V30 1700 H 146.06 1.16169 -2.26665 0
M  V30 1701 H 146.843 -0.035676 -3.43281 0
M  V30 1702 N 149.288 1.51039 0.449983 0
M  V30 1703 C 150.535 1.63081 1.20045 0
M  V30 1704 C 150.863 0.341024 1.91487 0
M  V30 1705 O 150.118 -0.674276 1.83717 0
M  V30 1706 C 150.417 2.77556 2.25161 0
M  V30 1707 C 150.083 4.17289 1.70823 0
M  V30 1708 C 148.745 4.55305 1.55725 0
M  V30 1709 C 151.097 5.04536 1.3074 0
M  V30 1710 C 148.425 5.78287 0.989999 0
M  V30 1711 C 150.777 6.28085 0.754482 0
M  V30 1712 C 149.441 6.64885 0.590308 0
M  V30 1713 H 148.711 0.596755 0.439277 0
M  V30 1714 H 151.358 1.85037 0.49333 0
M  V30 1715 H 149.663 2.49771 3.01863 0
M  V30 1716 H 151.36 2.84073 2.83026 0
M  V30 1717 H 147.95 3.8731 1.83546 0
M  V30 1718 H 152.134 4.75782 1.41229 0
M  V30 1719 H 147.39 6.05456 0.850451 0
M  V30 1720 H 151.564 6.95038 0.435324 0
M  V30 1721 H 149.191 7.60055 0.14862 0
M  V30 1722 N 150.766 -0.704594 1.40972 0
M  V30 1723 C 151.698 -1.82974 1.38033 0
M  V30 1724 C 152.711 -1.60305 0.283931 0
M  V30 1725 O 153.9 -1.69975 0.545042 0
M  V30 1726 C 151 -3.19578 1.12795 0
M  V30 1727 C 150.173 -3.69352 2.34302 0
M  V30 1728 C 149.232 -4.84601 2.05058 0
M  V30 1729 O 148.258 -4.96682 2.7802 0
M  V30 1730 N 149.46 -5.71194 1.03528 0
M  V30 1731 H 152.225 -1.85991 2.35005 0
M  V30 1732 H 149.786 -0.886567 1.35468 0
M  V30 1733 H 151.778 -3.9429 0.911987 0
M  V30 1734 H 150.348 -3.11642 0.24452 0
M  V30 1735 H 149.568 -2.85649 2.71659 0
M  V30 1736 H 150.856 -3.99345 3.1528 0
M  V30 1737 H 150.254 -5.64054 0.431217 0
M  V30 1738 H 148.811 -6.45843 0.879205 0
M  V30 1739 N 152.244 -1.26651 -0.937939 0
M  V30 1740 C 153.49 -1.12553 -1.687 0
M  V30 1741 C 153.823 0.329782 -1.91379 0
M  V30 1742 O 153.098 1.24202 -1.4968 0
M  V30 1743 C 153.381 -1.89862 -3.05981 0
M  V30 1744 C 153.234 -3.43318 -2.90607 0
M  V30 1745 C 154.553 -1.69499 -4.0615 0
M  V30 1746 H 151.672 -0.410257 -0.612257 0
M  V30 1747 H 154.314 -1.55685 -1.08913 0
M  V30 1748 H 152.464 -1.53204 -3.57017 0
M  V30 1749 H 154.136 -3.89747 -2.46769 0
M  V30 1750 H 152.379 -3.70179 -2.26164 0
M  V30 1751 H 153.05 -3.92642 -3.8799 0
M  V30 1752 H 155.526 -2.01442 -3.64088 0
M  V30 1753 H 154.402 -2.26002 -5.00214 0
M  V30 1754 H 154.663 -0.640365 -4.37438 0
M  V30 1755 N 153.722 1.14298 -1.08507 0
M  V30 1756 C 154.968 1.85633 -0.816581 0
M  V30 1757 C 155.301 1.82784 0.656021 0
M  V30 1758 O 154.576 1.25926 1.48233 0
M  V30 1759 C 154.859 3.34223 -1.34041 0
M  V30 1760 C 154.712 3.45639 -2.87843 0
M  V30 1761 C 156.031 4.29356 -0.9665 0
M  V30 1762 H 153.15 0.67402 -0.298104 0
M  V30 1763 H 155.792 1.34214 -1.34487 0
M  V30 1764 H 153.942 3.78144 -0.89104 0
M  V30 1765 H 155.614 3.10498 -3.41158 0
M  V30 1766 H 153.857 2.86817 -3.25451 0
M  V30 1767 H 154.528 4.50089 -3.19569 0
M  V30 1768 H 157.004 3.93457 -1.35391 0
M  V30 1769 H 155.88 5.3178 -1.3602 0
M  V30 1770 H 156.141 4.41919 0.126362 0
M  V30 1771 N 155.201 0.870884 1.31352 0
M  V30 1772 C 156.431 0.496049 2.00557 0
M  V30 1773 C 156.839 -0.916241 1.65534 0
M  V30 1774 O 156.182 -1.61188 0.881134 0
M  V30 1775 C 156.244 0.574418 3.54881 0
M  V30 1776 C 155.908 1.94849 4.1338 0
M  V30 1777 C 156.905 2.91611 4.30417 0
M  V30 1778 C 154.59 2.25005 4.49086 0
M  V30 1779 C 156.584 4.16672 4.82352 0
M  V30 1780 C 154.271 3.50315 5.00722 0
M  V30 1781 C 155.269 4.45964 5.17306 0
M  V30 1782 O 154.957 5.69052 5.67833 0
M  V30 1783 H 154.689 0.191664 0.64826 0
M  V30 1784 H 157.243 1.17409 1.68536 0
M  V30 1785 H 155.473 -0.160549 3.86367 0
M  V30 1786 H 157.162 0.212879 4.05341 0
M  V30 1787 H 157.928 2.69622 4.03149 0
M  V30 1788 H 153.807 1.51332 4.35453 0
M  V30 1789 H 157.351 4.91336 4.95211 0
M  V30 1790 H 153.248 3.72147 5.27424 0
M  V30 1791 H 154.016 5.71236 5.86201 0
M  V30 1792 N 156.679 -1.44442 0.630414 0
M  V30 1793 C 157.956 -1.9549 0.0655657 0
M  V30 1794 C 158.336 -1.5724 -1.40851 0
M  V30 1795 O 157.684 -0.846116 -2.12257 0
M  V30 1796 C 157.894 -3.47812 0.287691 0
M  V30 1797 C 159.242 -4.24216 0.180513 0
M  V30 1798 O 160.266 -3.55526 0.219019 0
M  V30 1799 O 159.125 -5.46434 0.0848493 0
M  V30 1800 H 156.219 -0.826688 -0.0227177 0
M  V30 1801 H 158.765 -1.54496 0.702068 0
M  V30 1802 H 157.537 -3.687 1.31056 0
M  V30 1803 H 157.16 -3.95751 -0.382984 0
M  V30 1804 N 158.157 -0.370918 -1.53173 0
M  V30 1805 C 159.067 0.480823 -2.2962 0
M  V30 1806 C 160.083 1.08789 -1.35798 0
M  V30 1807 O 161.259 1.09768 -1.68858 0
M  V30 1808 C 158.324 1.60227 -3.07454 0
M  V30 1809 C 157.385 1.0222 -4.16953 0
M  V30 1810 C 156.618 2.0902 -4.91066 0
M  V30 1811 O 156.841 3.30222 -4.65091 0
M  V30 1812 O 155.775 1.71778 -5.76867 0
M  V30 1813 H 159.601 -0.141421 -3.03371 0
M  V30 1814 H 157.186 -0.135146 -1.48787 0
M  V30 1815 H 159.068 2.25417 -3.56041 0
M  V30 1816 H 157.743 2.20982 -2.36535 0
M  V30 1817 H 156.65 0.334064 -3.72605 0
M  V30 1818 H 157.983 0.459131 -4.90054 0
M  V30 1819 N 159.635 1.57281 -0.100228 0
M  V30 1820 C 160.883 1.94153 0.561157 0
M  V30 1821 C 161.204 0.983157 1.68401 0
M  V30 1822 O 160.474 0.0361132 1.95867 0
M  V30 1823 H 159.054 0.716791 0.210283 0
M  V30 1824 H 161.716 1.94202 -0.164765 0
M  V30 1825 H 160.812 2.96709 0.968008 0
M  V30 1826 N 161.113 -0.173488 1.56642 0
M  V30 1827 C 162.524 -0.736155 1.71574 0
M  V30 1828 C 162.875 -1.82888 0.710389 0
M  V30 1829 O 162 -2.16017 -0.1287 0
M  V30 1830 C 162.595 -1.34211 3.11083 0
M  V30 1831 C 161.154 -1.85162 3.27707 0
M  V30 1832 C 160.301 -0.729765 2.67525 0
M  V30 1833 H 163.252 0.0518786 1.58615 0
M  V30 1834 H 163.273 -2.21178 3.09613 0
M  V30 1835 H 162.785 -0.546579 3.84232 0
M  V30 1836 H 160.886 -2.67366 2.59512 0
M  V30 1837 H 160.999 -1.99855 4.35425 0
M  V30 1838 H 159.363 -1.14965 2.27278 0
M  V30 1839 H 160.146 0.0538806 3.43258 0
M  V30 1840 N 162.591 -1.51276 -0.441967 0
M  V30 1841 C 163.521 -1.752 -1.54361 0
M  V30 1842 C 164.502 -0.601682 -1.59103 0
M  V30 1843 O 165.687 -0.843913 -1.74905 0
M  V30 1844 C 162.817 -1.87282 -2.92477 0
M  V30 1845 C 161.771 -3.02687 -3.02596 0
M  V30 1846 C 161.097 -2.99947 -4.42647 0
M  V30 1847 C 162.397 -4.4273 -2.77106 0
M  V30 1848 H 164.091 -2.67442 -1.34592 0
M  V30 1849 H 161.637 -1.28694 -0.646048 0
M  V30 1850 H 163.59 -2.02602 -3.695 0
M  V30 1851 H 162.314 -0.916844 -3.13467 0
M  V30 1852 H 160.973 -2.87065 -2.28012 0
M  V30 1853 H 160.621 -2.02136 -4.60597 0
M  V30 1854 H 160.321 -3.77439 -4.50348 0
M  V30 1855 H 161.845 -3.17354 -5.2165 0
M  V30 1856 H 163.259 -4.58727 -3.43864 0
M  V30 1857 H 161.656 -5.21893 -2.96222 0
M  V30 1858 H 162.726 -4.53087 -1.72744 0
M  V30 1859 N 164.069 0.697108 -1.41344 0
M  V30 1860 C 165.299 1.48377 -1.43763 0
M  V30 1861 C 165.707 1.89156 -0.0408726 0
M  V30 1862 O 165.05 1.57239 0.949812 0
M  V30 1863 C 165.112 2.7781 -2.2817 0
M  V30 1864 C 164.776 2.59244 -3.76353 0
M  V30 1865 C 165.773 2.25292 -4.68551 0
M  V30 1866 C 163.458 2.74933 -4.20378 0
M  V30 1867 C 165.452 2.07264 -6.02761 0
M  V30 1868 C 163.139 2.56521 -5.54653 0
M  V30 1869 C 164.137 2.22737 -6.4566 0
M  V30 1870 O 163.825 2.04485 -7.77458 0
M  V30 1871 H 163.557 0.463842 -0.491759 0
M  V30 1872 H 166.111 0.865934 -1.86255 0
M  V30 1873 H 164.341 3.41995 -1.8049 0
M  V30 1874 H 166.03 3.39608 -2.22309 0
M  V30 1875 H 166.796 2.12787 -4.35829 0
M  V30 1876 H 162.675 3.00213 -3.49848 0
M  V30 1877 H 166.219 1.80817 -6.73759 0
M  V30 1878 H 162.116 2.68616 -5.86955 0
M  V30 1879 H 162.884 2.1926 -7.88586 0
M  V30 1880 N 165.547 1.27147 0.931209 0
M  V30 1881 C 166.793 1.13446 1.68101 0
M  V30 1882 C 167.126 -0.319628 1.91552 0
M  V30 1883 O 166.401 -1.23407 1.50336 0
M  V30 1884 C 166.684 1.91482 3.0497 0
M  V30 1885 C 166.537 3.44855 2.88782 0
M  V30 1886 C 167.856 1.71651 4.05246 0
M  V30 1887 H 164.975 0.413498 0.610072 0
M  V30 1888 H 167.617 1.56261 1.08086 0
M  V30 1889 H 165.767 1.55095 3.56199 0
M  V30 1890 H 167.439 3.9105 2.44698 0
M  V30 1891 H 165.682 3.71373 2.24198 0
M  V30 1892 H 166.353 3.94694 3.85902 0
M  V30 1893 H 168.829 2.0337 3.63015 0
M  V30 1894 H 167.705 2.28651 4.99009 0
M  V30 1895 H 167.966 0.663555 4.37092 0
M  V30 1896 N 167.025 -1.13721 1.09112 0
M  V30 1897 C 168.272 -1.84924 0.825192 0
M  V30 1898 C 168.6 -1.83347 -0.649151 0
M  V30 1899 O 167.855 -1.26449 -1.49362 0
M  V30 1900 C 168.154 -3.32861 1.30146 0
M  V30 1901 C 167.82 -3.54621 2.78486 0
M  V30 1902 C 166.482 -3.60268 3.18999 0
M  V30 1903 C 168.834 -3.62855 3.74146 0
M  V30 1904 C 166.162 -3.71679 4.53951 0
M  V30 1905 C 168.514 -3.75793 5.08883 0
M  V30 1906 C 167.178 -3.79692 5.4899 0
M  V30 1907 H 166.448 -0.676684 0.301959 0
M  V30 1908 H 169.095 -1.3428 1.36533 0
M  V30 1909 H 167.4 -3.85835 0.681064 0
M  V30 1910 H 169.097 -3.86395 1.07236 0
M  V30 1911 H 165.687 -3.50879 2.46134 0
M  V30 1912 H 169.871 -3.57775 3.43963 0
M  V30 1913 H 165.127 -3.72963 4.84467 0
M  V30 1914 H 169.301 -3.81107 5.82864 0
M  V30 1915 H 166.928 -3.88287 6.53558 0
M  V30 1916 N 168.503 -0.877838 -1.30888 0
M  V30 1917 C 169.728 -0.506629 -2.01117 0
M  V30 1918 C 170.153 0.895564 -1.65412 0
M  V30 1919 O 169.511 1.5923 -0.866922 0
M  V30 1920 C 169.559 -0.680223 -3.54126 0
M  V30 1921 O 168.663 0.277033 -4.11468 0
M  V30 1922 H 168.004 -0.200518 -0.633 0
M  V30 1923 H 170.534 -1.18342 -1.66902 0
M  V30 1924 H 170.544 -0.5765 -4.03907 0
M  V30 1925 H 169.219 -1.70261 -3.79452 0
M  V30 1926 H 167.796 0.127606 -3.72682 0
M  V30 1927 N 169.982 1.44106 -0.638065 0
M  V30 1928 C 171.393 1.85316 -0.226894 0
M  V30 1929 C 171.744 1.53399 1.22324 0
M  V30 1930 O 170.869 0.975463 1.93167 0
M  V30 1931 C 171.464 3.3637 -0.405013 0
M  V30 1932 C 170.023 3.76369 -0.0482902 0
M  V30 1933 C 169.17 2.67921 -0.715108 0
M  V30 1934 H 172.121 1.34474 -0.842764 0
M  V30 1935 H 172.142 3.7885 0.354 0
M  V30 1936 H 171.654 3.59569 -1.46053 0
M  V30 1937 H 169.755 3.58784 1.00522 0
M  V30 1938 H 169.868 4.76856 -0.463187 0
M  V30 1939 H 168.232 2.54259 -0.149753 0
M  V30 1940 H 169.015 2.93951 -1.77335 0
M  V30 1941 N 171.46 0.379036 1.52974 0
M  V30 1942 C 172.688 -0.20679 2.05864 0
M  V30 1943 C 173.103 -1.41356 1.25155 0
M  V30 1944 O 172.46 -1.8009 0.295588 0
M  V30 1945 C 172.511 -0.587045 3.56702 0
M  V30 1946 O 172.232 0.571776 4.34353 0
M  V30 1947 C 173.733 -1.22983 4.25899 0
M  V30 1948 H 170.953 -0.0336123 0.670158 0
M  V30 1949 H 173.497 0.541298 1.97206 0
M  V30 1950 H 171.652 -1.28504 3.65466 0
M  V30 1951 H 172.066 0.261544 5.23847 0
M  V30 1952 H 173.54 -1.44635 5.32715 0
M  V30 1953 H 174.017 -2.19416 3.80465 0
M  V30 1954 H 174.623 -0.572892 4.21424 0
M  V30 1955 N 172.938 -1.57226 0.108567 0
M  V30 1956 C 173.848 -2.18292 -0.859401 0
M  V30 1957 C 174.864 -1.15612 -1.30038 0
M  V30 1958 O 176.04 -1.48039 -1.36552 0
M  V30 1959 C 173.105 -2.762 -2.09558 0
M  V30 1960 C 172.166 -3.93881 -1.70752 0
M  V30 1961 C 171.399 -4.49018 -2.88477 0
M  V30 1962 O 171.622 -4.03068 -4.036 0
M  V30 1963 O 170.556 -5.39852 -2.66164 0
M  V30 1964 H 174.382 -3.01441 -0.369769 0
M  V30 1965 H 171.967 -1.48945 -0.1165 0
M  V30 1966 H 173.849 -3.13156 -2.81978 0
M  V30 1967 H 172.524 -1.96089 -2.57548 0
M  V30 1968 H 171.431 -3.61713 -0.954714 0
M  V30 1969 H 172.764 -4.75396 -1.27513 0
M  V30 1970 N 174.416 0.165178 -1.56732 0
M  V30 1971 C 175.326 1.22423 -2.00125 0
M  V30 1972 C 176.342 1.48084 -0.913619 0
M  V30 1973 O 177.518 1.60112 -1.22172 0
M  V30 1974 C 174.583 2.54197 -2.35764 0
M  V30 1975 C 173.644 2.36343 -3.58386 0
M  V30 1976 C 172.877 3.61834 -3.92316 0
M  V30 1977 O 173.1 4.67267 -3.27135 0
M  V30 1978 O 172.034 3.55579 -4.85641 0
M  V30 1979 H 175.86 0.885886 -2.90492 0
M  V30 1980 H 173.445 0.372518 -1.44681 0
M  V30 1981 H 175.327 3.3192 -2.59629 0
M  V30 1982 H 174.002 2.87598 -1.48557 0
M  V30 1983 H 172.909 1.56632 -3.39731 0
M  V30 1984 H 174.242 2.07865 -4.46154 0
M  V30 1985 N 175.894 1.51508 0.433938 0
M  V30 1986 C 176.824 1.76016 1.53429 0
M  V30 1987 C 177.805 0.610112 1.58782 0
M  V30 1988 O 178.99 0.853177 1.74455 0
M  V30 1989 C 176.12 1.88831 2.9148 0
M  V30 1990 C 175.074 3.04288 3.00987 0
M  V30 1991 C 174.4 3.0229 4.4105 0
M  V30 1992 C 175.7 4.44193 2.74754 0
M  V30 1993 H 177.394 2.68152 1.33171 0
M  V30 1994 H 174.94 1.29035 0.639214 0
M  V30 1995 H 176.893 2.04559 3.6842 0
M  V30 1996 H 175.617 0.933455 3.12976 0
M  V30 1997 H 174.276 2.8827 2.26486 0
M  V30 1998 H 173.924 2.04576 4.59519 0
M  V30 1999 H 173.624 3.79822 4.4834 0
M  V30 2000 H 175.148 3.20116 5.1996 0
M  V30 2001 H 176.562 4.60544 3.41426 0
M  V30 2002 H 174.959 5.23457 2.9345 0
M  V30 2003 H 176.029 4.53996 1.70339 0
M  V30 2004 N 177.372 -0.689602 1.41712 0
M  V30 2005 C 178.788 -1.00093 1.24312 0
M  V30 2006 C 178.988 -2.01036 0.136729 0
M  V30 2007 O 178.044 -2.47562 -0.496918 0
M  V30 2008 C 179.357 -1.51985 2.59463 0
M  V30 2009 C 180.905 -1.63838 2.66695 0
M  V30 2010 C 181.38 -2.1913 4.02177 0
M  V30 2011 N 182.871 -2.26483 4.04054 0
M  V30 2012 C 183.606 -2.70306 5.0569 0
M  V30 2013 N 183.102 -3.13691 6.17713 0
M  V30 2014 N 184.895 -2.69923 4.9305 0
M  V30 2015 H 177.046 -0.0210029 2.1239 0
M  V30 2016 H 179.309 -0.0718733 0.945272 0
M  V30 2017 H 179.015 -0.85269 3.41207 0
M  V30 2018 H 178.889 -2.50103 2.82362 0
M  V30 2019 H 181.276 -2.29664 1.85306 0
M  V30 2020 H 181.357 -0.642492 2.476 0
M  V30 2021 H 181.001 -1.53918 4.84016 0
M  V30 2022 H 180.931 -3.19482 4.18615 0
M  V30 2023 H 183.422 -1.95874 3.23174 0
M  V30 2024 H 183.735 -3.45773 6.9113 0
M  V30 2025 H 182.08 -3.11585 6.21241 0
M  V30 2026 H 185.271 -2.35382 4.04614 0
M  V30 2027 H 185.444 -3.03758 5.72394 0
M  V30 2028 N 178.85 -1.27639 -0.924453 0
M  V30 2029 C 179.797 -1.10644 -2.0255 0
M  V30 2030 C 180.767 -0.00658438 -1.66099 0
M  V30 2031 O 181.952 -0.16952 -1.90045 0
M  V30 2032 C 179.092 -0.76309 -3.36557 0
M  V30 2033 C 178.205 -1.94091 -3.85944 0
M  V30 2034 C 177.34 -1.53914 -5.08413 0
M  V30 2035 C 176.379 -2.68425 -5.50104 0
M  V30 2036 N 175.516 -2.28815 -6.63768 0
M  V30 2037 H 180.356 -2.04858 -2.16419 0
M  V30 2038 H 177.893 -1.01974 -1.06017 0
M  V30 2039 H 179.851 -0.544822 -4.13627 0
M  V30 2040 H 178.481 0.142102 -3.22487 0
M  V30 2041 H 177.533 -2.27162 -3.05125 0
M  V30 2042 H 178.845 -2.7998 -4.12811 0
M  V30 2043 H 177.999 -1.28231 -5.92994 0
M  V30 2044 H 176.738 -0.651391 -4.8333 0
M  V30 2045 H 175.743 -2.94819 -4.64071 0
M  V30 2046 H 176.968 -3.57826 -5.7718 0
M  V30 2047 H 174.914 -1.42495 -6.40337 0
M  V30 2048 H 174.831 -3.08242 -6.90306 0
M  V30 2049 H 176.099 -2.06387 -7.51681 0
M  V30 2050 N 180.328 1.1314 -1.09713 0
M  V30 2051 C 181.744 1.36477 -0.827423 0
M  V30 2052 C 181.944 1.93654 0.556817 0
M  V30 2053 O 181 2.15791 1.31112 0
M  V30 2054 C 182.313 2.31334 -1.92106 0
M  V30 2055 C 183.861 2.44943 -1.94864 0
M  V30 2056 C 184.336 3.4311 -3.0338 0
M  V30 2057 N 185.827 3.50662 -3.02639 0
M  V30 2058 C 186.562 4.2651 -3.83246 0
M  V30 2059 N 186.058 5.05485 -4.73768 0
M  V30 2060 N 187.851 4.2184 -3.71493 0
M  V30 2061 H 180.002 0.743807 -1.9895 0
M  V30 2062 H 182.265 0.389823 -0.864143 0
M  V30 2063 H 181.971 1.96483 -2.91698 0
M  V30 2064 H 181.845 3.31381 -1.80184 0
M  V30 2065 H 184.232 2.79079 -0.959099 0
M  V30 2066 H 184.313 1.4481 -2.10864 0
M  V30 2067 H 183.957 3.09704 -4.02549 0
M  V30 2068 H 183.887 4.43055 -2.84622 0
M  V30 2069 H 186.378 2.94315 -2.37039 0
M  V30 2070 H 186.691 5.60675 -5.3185 0
M  V30 2071 H 185.036 5.04708 -4.77802 0
M  V30 2072 H 188.227 3.5922 -3.00131 0
M  V30 2073 H 188.4 4.80697 -4.3455 0
M  V30 2074 N 181.806 0.884767 1.30421 0
M  V30 2075 C 183.052 0.513218 1.96819 0
M  V30 2076 C 183.407 -0.927347 1.68577 0
M  V30 2077 O 182.7 -1.64644 0.979941 0
M  V30 2078 C 182.894 0.724318 3.49983 0
M  V30 2079 C 182.723 2.18385 3.93113 0
M  V30 2080 C 181.493 2.82839 4.18725 0
M  V30 2081 C 183.691 3.15763 4.05953 0
M  V30 2082 N 181.673 4.1939 4.48314 0
M  V30 2083 C 183.044 4.37387 4.39423 0
M  V30 2084 C 185.099 3.11555 3.88379 0
M  V30 2085 C 183.802 5.55343 4.5715 0
M  V30 2086 C 185.828 4.28782 4.07308 0
M  V30 2087 C 185.19 5.49172 4.41123 0
M  V30 2088 H 181.289 0.237123 0.745182 0
M  V30 2089 H 183.873 1.14246 1.57658 0
M  V30 2090 H 182.044 0.124565 3.882 0
M  V30 2091 H 183.776 0.31969 4.03435 0
M  V30 2092 H 180.531 2.33708 4.11919 0
M  V30 2093 H 180.955 4.89911 4.67243 0
M  V30 2094 H 185.597 2.19576 3.61312 0
M  V30 2095 H 183.315 6.47826 4.8306 0
M  V30 2096 H 186.901 4.26995 3.95179 0
M  V30 2097 H 185.781 6.38371 4.55469 0
M  V30 2098 N 183.284 -1.43765 0.645699 0
M  V30 2099 C 184.533 -2.01116 0.153412 0
M  V30 2100 C 184.846 -1.51493 -1.23731 0
M  V30 2101 O 186.052 -2.01067 -1.8244 0
M  V30 2102 C 184.508 -3.59206 0.223473 0
M  V30 2103 C 184.116 -4.17823 1.61642 0
M  V30 2104 C 185.86 -4.23972 -0.211597 0
M  V30 2105 C 183.767 -5.68183 1.64081 0
M  V30 2106 H 182.697 -0.752093 0.0535891 0
M  V30 2107 H 185.348 -1.6482 0.806633 0
M  V30 2108 H 183.73 -3.92867 -0.497118 0
M  V30 2109 H 184.904 -3.95674 2.36176 0
M  V30 2110 H 183.219 -3.65399 1.99681 0
M  V30 2111 H 185.816 -5.34275 -0.213112 0
M  V30 2112 H 186.159 -3.97352 -1.24165 0
M  V30 2113 H 186.692 -3.95166 0.456988 0
M  V30 2114 H 183.431 -5.99559 2.64971 0
M  V30 2115 H 182.951 -5.9241 0.938611 0
M  V30 2116 H 184.63 -6.32085 1.3812 0
M  V30 2117 N 184.763 -0.387143 -1.52771 0
M  V30 2118 C 185.713 0.465942 -2.23188 0
M  V30 2119 C 186.697 1.03138 -1.23496 0
M  V30 2120 O 187.889 0.957845 -1.48843 0
M  V30 2121 C 185.018 1.59384 -3.04059 0
M  V30 2122 C 184.104 1.04024 -4.11144 0
M  V30 2123 N 184.495 0.211416 -5.05358 0
M  V30 2124 C 182.793 1.31295 -4.26237 0
M  V30 2125 C 183.494 -0.0941698 -5.81624 0
M  V30 2126 N 182.47 0.509207 -5.4121 0
M  V30 2127 H 186.272 -0.173856 -2.93385 0
M  V30 2128 H 183.786 -0.19633 -1.61209 0
M  V30 2129 H 185.783 2.21738 -3.53041 0
M  V30 2130 H 184.443 2.23648 -2.35397 0
M  V30 2131 H 185.454 -0.151151 -5.17679 0
M  V30 2132 H 182.131 1.95679 -3.68803 0
M  V30 2133 H 183.521 -0.765572 -6.67524 0
M  V30 2134 N 186.241 1.57166 -0.116904 0
M  V30 2135 C 187.173 2.12271 0.864507 0
M  V30 2136 C 188.186 1.06494 1.23138 0
M  V30 2137 O 189.375 1.33873 1.18069 0
M  V30 2138 C 186.475 2.60564 2.16702 0
M  V30 2139 C 185.648 3.90416 1.97216 0
M  V30 2140 C 184.707 4.24329 3.11178 0
M  V30 2141 O 183.733 4.93182 2.84184 0
M  V30 2142 N 184.935 3.8148 4.37554 0
M  V30 2143 H 187.7 2.97102 0.393726 0
M  V30 2144 H 185.261 1.61759 0.0675805 0
M  V30 2145 H 187.253 2.80282 2.91932 0
M  V30 2146 H 185.823 1.80623 2.55135 0
M  V30 2147 H 185.043 3.79627 1.06192 0
M  V30 2148 H 186.331 4.75327 1.81499 0
M  V30 2149 H 185.729 3.25943 4.62361 0
M  V30 2150 H 184.286 4.06311 5.09661 0
M  V30 2151 N 187.719 -0.156864 1.56817 0
M  V30 2152 C 188.649 -1.19589 2.00551 0
M  V30 2153 C 189.63 -1.4536 0.883426 0
M  V30 2154 O 190.815 -1.56449 1.15054 0
M  V30 2155 C 187.945 -2.53143 2.37773 0
M  V30 2156 C 186.899 -2.41913 3.53075 0
M  V30 2157 C 186.225 -3.80088 3.76081 0
M  V30 2158 C 187.525 -1.91157 4.86062 0
M  V30 2159 H 189.219 -0.832293 2.87599 0
M  V30 2160 H 186.765 -0.398918 1.38364 0
M  V30 2161 H 188.718 -3.26047 2.66967 0
M  V30 2162 H 187.442 -2.91319 1.4765 0
M  V30 2163 H 186.101 -1.71462 3.24031 0
M  V30 2164 H 185.749 -4.15683 2.83225 0
M  V30 2165 H 185.449 -3.73439 4.53671 0
M  V30 2166 H 186.973 -4.54556 4.0769 0
M  V30 2167 H 188.387 -2.53846 5.14038 0
M  V30 2168 H 186.784 -1.95422 5.67389 0
M  V30 2169 H 187.854 -0.866673 4.77092 0
M  V30 2170 N 189.197 -1.51736 -0.425897 0
M  V30 2171 C 190.144 -1.73875 -1.51776 0
M  V30 2172 C 191.114 -0.580702 -1.55618 0
M  V30 2173 O 192.299 -0.81641 -1.72451 0
M  V30 2174 C 189.439 -1.88012 -2.89388 0
M  V30 2175 C 188.552 -3.15606 -2.94986 0
M  V30 2176 C 187.687 -3.20271 -4.23793 0
M  V30 2177 C 186.726 -4.42134 -4.23302 0
M  V30 2178 N 185.863 -4.44284 -5.43651 0
M  V30 2179 H 190.703 -2.67071 -1.32201 0
M  V30 2180 H 188.24 -1.32351 -0.642008 0
M  V30 2181 H 190.198 -1.9419 -3.69251 0
M  V30 2182 H 188.828 -0.98213 -3.07496 0
M  V30 2183 H 187.88 -3.18681 -2.07717 0
M  V30 2184 H 189.192 -4.05486 -2.90486 0
M  V30 2185 H 188.346 -3.25428 -5.12036 0
M  V30 2186 H 187.085 -2.28299 -4.30965 0
M  V30 2187 H 186.09 -4.3714 -3.3345 0
M  V30 2188 H 187.315 -5.35382 -4.17783 0
M  V30 2189 H 185.261 -3.55188 -5.51523 0
M  V30 2190 H 185.178 -5.27988 -5.41078 0
M  V30 2191 H 186.446 -4.53649 -6.33895 0
M  V30 2192 N 190.675 0.682077 -1.42076 0
M  V30 2193 C 191.623 1.81707 -1.45208 0
M  V30 2194 C 192.617 1.66183 -0.328591 0
M  V30 2195 O 193.823 1.7288 -0.501264 0
M  V30 2196 H 190.198 0.599014 -0.454628 0
M  V30 2197 H 192.169 1.76183 -2.40836 0
M  V30 2198 C 190.918 3.19816 -1.36428 0
M  V30 2199 H 190.241 3.32385 -2.22171 0
M  V30 2200 H 191.681 3.99272 -1.42681 0
M  V30 2201 C 190.14 3.36809 -0.078191 0
M  V30 2202 O 190.67 3.92124 0.87188 0
M  V30 2203 N 188.876 2.906 0.00229266 0
M  V30 2204 H 188.423 2.45772 -0.771616 0
M  V30 2205 H 188.381 3.02347 0.862179 0
M  V30 2206 N 192.153 1.28127 0.917671 0
M  V30 2207 C 193.399 1.15223 1.66888 0
M  V30 2208 C 193.732 -0.299293 1.9188 0
M  V30 2209 O 193.007 -1.21805 1.51637 0
M  V30 2210 C 193.29 1.94706 3.02922 0
M  V30 2211 C 193.143 3.47898 2.85109 0
M  V30 2212 C 194.462 1.75939 4.03402 0
M  V30 2213 H 191.581 0.419946 0.605652 0
M  V30 2214 H 194.223 1.57398 1.06423 0
M  V30 2215 H 192.373 1.58864 3.54534 0
M  V30 2216 H 194.045 3.93624 2.40537 0
M  V30 2217 H 192.288 3.7373 2.20246 0
M  V30 2218 H 192.959 3.98765 3.81694 0
M  V30 2219 H 195.435 2.07209 3.60837 0
M  V30 2220 H 194.311 2.33931 4.96556 0
M  V30 2221 H 194.572 0.709877 4.36364 0
M  V30 2222 N 193.631 -1.12557 1.10312 0
M  V30 2223 C 194.88 -1.83395 0.839588 0
M  V30 2224 C 195.193 -1.84939 -0.636929 0
M  V30 2225 O 196.399 -2.51761 -1.01631 0
M  V30 2226 C 194.855 -3.29303 1.45215 0
M  V30 2227 C 194.463 -3.36122 2.96186 0
M  V30 2228 C 196.207 -4.05121 1.26796 0
M  V30 2229 C 194.114 -4.76357 3.50483 0
M  V30 2230 H 193.044 -0.687133 0.310425 0
M  V30 2231 H 195.695 -1.26746 1.32694 0
M  V30 2232 H 194.077 -3.85812 0.892469 0
M  V30 2233 H 195.251 -2.89559 3.58458 0
M  V30 2234 H 193.566 -2.73776 3.13745 0
M  V30 2235 H 196.163 -5.08668 1.64806 0
M  V30 2236 H 196.506 -4.15773 0.209409 0
M  V30 2237 H 197.039 -3.54967 1.79563 0
M  V30 2238 H 193.778 -4.70899 4.55998 0
M  V30 2239 H 193.298 -5.23377 2.92978 0
M  V30 2240 H 194.977 -5.45294 3.48228 0
M  V30 2241 N 195.109 -0.891671 -1.2995 0
M  V30 2242 C 196.525 -0.58662 -1.48428 0
M  V30 2243 C 196.725 0.873951 -1.81561 0
M  V30 2244 O 195.781 1.65471 -1.90724 0
M  V30 2245 C 197.094 -1.50553 -2.60296 0
M  V30 2246 C 198.642 -1.50988 -2.74175 0
M  V30 2247 C 199.117 -2.41488 -3.89163 0
M  V30 2248 N 200.608 -2.39489 -3.96483 0
M  V30 2249 C 201.343 -3.06223 -4.84784 0
M  V30 2250 N 200.839 -3.82206 -5.77833 0
M  V30 2251 N 202.632 -2.95421 -4.78208 0
M  V30 2252 H 194.783 -1.83644 -1.06718 0
M  V30 2253 H 197.046 -0.786455 -0.529332 0
M  V30 2254 H 196.752 -2.54581 -2.42654 0
M  V30 2255 H 196.626 -1.22008 -3.56923 0
M  V30 2256 H 199.013 -0.47708 -2.91218 0
M  V30 2257 H 199.094 -1.83567 -1.78148 0
M  V30 2258 H 198.738 -3.44857 -3.72876 0
M  V30 2259 H 198.668 -2.06222 -4.84541 0
M  V30 2260 H 201.159 -1.84278 -3.29924 0
M  V30 2261 H 201.472 -4.302 -6.41988 0
M  V30 2262 H 199.817 -3.86313 -5.77743 0
M  V30 2263 H 203.008 -2.35581 -4.04499 0
M  V30 2264 H 203.181 -3.47704 -5.46814 0
M  V30 2265 N 196.587 1.43421 -0.653314 0
M  V30 2266 C 197.817 2.05864 -0.174238 0
M  V30 2267 C 198.225 1.49052 1.16534 0
M  V30 2268 O 197.568 0.616481 1.73047 0
M  V30 2269 C 197.63 3.59499 -0.00875873 0
M  V30 2270 C 197.294 4.38893 -1.27364 0
M  V30 2271 C 198.291 4.70947 -2.20239 0
M  V30 2272 C 195.976 4.789 -1.51525 0
M  V30 2273 C 197.97 5.41916 -3.35568 0
M  V30 2274 C 195.657 5.49614 -2.67147 0
M  V30 2275 C 196.655 5.81044 -3.58994 0
M  V30 2276 O 196.343 6.50313 -4.72597 0
M  V30 2277 H 196.075 0.670345 -0.0872549 0
M  V30 2278 H 198.629 1.84913 -0.894226 0
M  V30 2279 H 196.859 3.79025 0.7666 0
M  V30 2280 H 198.548 4.0364 0.427687 0
M  V30 2281 H 199.314 4.40558 -2.02815 0
M  V30 2282 H 195.193 4.53843 -0.809158 0
M  V30 2283 H 198.737 5.66365 -4.07279 0
M  V30 2284 H 194.634 5.79419 -2.84505 0
M  V30 2285 H 195.402 6.68795 -4.71864 0
M  V30 2286 N 198.065 0.39524 1.52563 0
M  V30 2287 C 199.013 -0.451859 2.28169 0
M  V30 2288 C 200.007 -1.05792 1.32304 0
M  V30 2289 O 201.213 -0.997718 1.49818 0
M  V30 2290 H 197.588 -0.164481 0.733792 0
M  V30 2291 H 199.559 0.207199 2.9768 0
M  V30 2292 C 198.308 -1.56385 3.10546 0
M  V30 2293 H 197.631 -1.10682 3.84174 0
M  V30 2294 H 199.071 -2.13067 3.66577 0
M  V30 2295 C 197.53 -2.52328 2.23231 0
M  V30 2296 O 198.06 -3.5588 1.86312 0
M  V30 2297 N 196.266 -2.22209 1.87274 0
M  V30 2298 H 195.813 -1.38033 2.17496 0
M  V30 2299 H 195.771 -2.86652 1.29143 0
M  V30 2300 N 199.544 -1.57102 0.125237 0
M  V30 2301 C 200.769 -2.0019 -0.542101 0
M  V30 2302 C 201.194 -1.00449 -1.59034 0
M  V30 2303 O 200.552 0.0229423 -1.81285 0
M  V30 2304 C 200.6 -3.42129 -1.13929 0
M  V30 2305 O 199.704 -3.45307 -2.2547 0
M  V30 2306 H 199.045 -0.650171 -0.134812 0
M  V30 2307 H 201.575 -2.03461 0.215553 0
M  V30 2308 H 201.585 -3.80471 -1.4733 0
M  V30 2309 H 200.26 -4.14237 -0.371531 0
M  V30 2310 H 198.837 -3.1879 -1.93462 0
M  V30 2311 N 201.022 0.148545 -1.56898 0
M  V30 2312 C 202.299 0.890019 -1.74178 0
M  V30 2313 C 202.679 1.99407 -0.692839 0
M  V30 2314 O 202.027 2.26671 0.288505 0
M  V30 2315 C 202.237 1.43389 -3.18183 0
M  V30 2316 C 203.585 1.89791 -3.79822 0
M  V30 2317 O 204.609 1.53134 -3.21603 0
M  V30 2318 O 203.468 2.57387 -4.82093 0
M  V30 2319 H 200.562 0.420496 -0.712118 0
M  V30 2320 H 203.108 0.134591 -1.69165 0
M  V30 2321 H 201.88 0.640383 -3.86024 0
M  V30 2322 H 201.503 2.25287 -3.27615 0
M  V30 2323 N 202.5 1.5196 0.417844 0
M  V30 2324 C 203.43 1.77634 1.51554 0
M  V30 2325 C 204.411 0.626918 1.58126 0
M  V30 2326 O 205.596 0.871632 1.7354 0
M  V30 2327 C 202.726 1.91911 2.8946 0
M  V30 2328 C 201.68 3.07463 2.97743 0
M  V30 2329 C 201.006 3.06951 4.37819 0
M  V30 2330 C 202.306 4.47082 2.70027 0
M  V30 2331 H 204 2.6955 1.3032 0
M  V30 2332 H 201.546 1.29706 0.625492 0
M  V30 2333 H 203.499 2.08455 3.6623 0
M  V30 2334 H 202.223 0.966598 3.11969 0
M  V30 2335 H 200.882 2.90656 2.23416 0
M  V30 2336 H 200.53 2.09438 4.57323 0
M  V30 2337 H 200.23 3.84556 4.44286 0
M  V30 2338 H 201.754 3.25613 5.16535 0
M  V30 2339 H 203.168 4.6414 3.36522 0
M  V30 2340 H 201.565 5.2654 2.87881 0
M  V30 2341 H 202.635 4.55777 1.65514 0
M  V30 2342 N 203.978 -0.674533 1.42435 0
M  V30 2343 C 205.224 -1.43671 1.43131 0
M  V30 2344 C 205.557 -1.94142 0.0476021 0
M  V30 2345 O 204.832 -1.70924 -0.928188 0
M  V30 2346 C 205.115 -2.63355 2.45594 0
M  V30 2347 C 204.968 -2.18514 3.93156 0
M  V30 2348 C 206.287 -3.65571 2.45043 0
M  V30 2349 H 203.406 -0.521077 0.521198 0
M  V30 2350 H 206.048 -0.766551 1.7385 0
M  V30 2351 H 204.198 -3.2053 2.19528 0
M  V30 2352 H 205.87 -1.66504 4.30202 0
M  V30 2353 H 204.113 -1.50086 4.07009 0
M  V30 2354 H 204.784 -3.04484 4.60428 0
M  V30 2355 H 207.26 -3.18113 2.68223 0
M  V30 2356 H 206.136 -4.46893 3.18713 0
M  V30 2357 H 206.397 -4.16716 1.47649 0
M  V30 2358 N 205.456 -1.28612 -0.910864 0
M  V30 2359 C 206.388 -1.08589 -2.01844 0
M  V30 2360 C 207.401 -0.0367419 -1.62759 0
M  V30 2361 O 208.59 -0.280101 -1.76289 0
M  V30 2362 C 205.69 -0.628626 -3.33019 0
M  V30 2363 C 204.863 -1.75382 -4.00699 0
M  V30 2364 C 203.922 -1.28945 -5.10156 0
M  V30 2365 O 202.948 -1.9922 -5.33198 0
M  V30 2366 N 204.15 -0.154224 -5.80295 0
M  V30 2367 H 206.915 -2.03973 -2.19579 0
M  V30 2368 H 204.476 -1.20403 -1.08234 0
M  V30 2369 H 206.468 -0.301508 -4.03575 0
M  V30 2370 H 205.038 0.232451 -3.11735 0
M  V30 2371 H 204.258 -2.25039 -3.23653 0
M  V30 2372 H 205.546 -2.50854 -4.42662 0
M  V30 2373 H 204.944 0.43194 -5.64049 0
M  V30 2374 H 203.501 0.113599 -6.51701 0
M  V30 2375 N 206.934 1.1197 -1.10907 0
M  V30 2376 C 207.881 2.17846 -0.762345 0
M  V30 2377 C 208.851 1.63995 0.263599 0
M  V30 2378 O 210.036 1.90273 0.141773 0
M  V30 2379 C 207.176 3.44487 -0.205651 0
M  V30 2380 C 206.289 4.12369 -1.28748 0
M  V30 2381 C 205.424 5.26674 -0.691919 0
M  V30 2382 C 204.463 5.86431 -1.75399 0
M  V30 2383 N 203.6 6.92142 -1.17833 0
M  V30 2384 H 208.44 2.46851 -1.6694 0
M  V30 2385 H 205.977 1.21188 -0.833776 0
M  V30 2386 H 207.935 4.16981 0.135037 0
M  V30 2387 H 206.565 3.15884 0.664613 0
M  V30 2388 H 205.617 3.38003 -1.74522 0
M  V30 2389 H 206.929 4.52844 -2.09125 0
M  V30 2390 H 206.083 6.05953 -0.300963 0
M  V30 2391 H 204.822 4.8749 0.143232 0
M  V30 2392 H 203.827 5.05835 -2.15432 0
M  V30 2393 H 205.052 6.27685 -2.59208 0
M  V30 2394 H 202.998 6.54985 -0.364725 0
M  V30 2395 H 202.915 7.31242 -1.91887 0
M  V30 2396 H 204.183 7.75237 -0.81408 0
M  V30 2397 N 208.412 0.89855 1.29475 0
M  V30 2398 C 209.642 0.538479 1.99459 0
M  V30 2399 C 210.05 -0.880922 1.67441 0
M  V30 2400 O 209.393 -1.59283 0.915127 0
M  V30 2401 C 209.455 0.649564 3.53583 0
M  V30 2402 C 209.119 2.03573 4.09154 0
M  V30 2403 C 210.116 3.00675 4.24135 0
M  V30 2404 C 207.801 2.3448 4.44212 0
M  V30 2405 C 209.795 4.26809 4.73405 0
M  V30 2406 C 207.482 3.60857 4.93179 0
M  V30 2407 C 208.48 4.56836 5.0773 0
M  V30 2408 O 208.168 5.80969 5.55635 0
M  V30 2409 H 207.9 0.205372 0.644048 0
M  V30 2410 H 210.454 1.20958 1.66007 0
M  V30 2411 H 208.684 -0.0785592 3.8662 0
M  V30 2412 H 210.373 0.29881 4.04799 0
M  V30 2413 H 211.139 2.78112 3.97339 0
M  V30 2414 H 207.018 1.60534 4.32145 0
M  V30 2415 H 210.562 5.0173 4.84678 0
M  V30 2416 H 206.459 3.83251 5.19412 0
M  V30 2417 H 207.227 5.83542 5.73952 0
M  V30 2418 N 209.89 -1.43072 0.660911 0
M  V30 2419 C 210.84 -2.27948 -0.04847 0
M  V30 2420 C 211.824 -1.40325 -0.787246 0
M  V30 2421 O 213.016 -1.63893 -0.668446 0
M  V30 2422 C 210.145 -3.28143 -1.00881 0
M  V30 2423 C 209.231 -4.23252 -0.268108 0
M  V30 2424 N 209.622 -5.00656 0.719528 0
M  V30 2425 C 207.92 -4.43092 -0.508493 0
M  V30 2426 C 208.621 -5.70019 1.15988 0
M  V30 2427 N 207.597 -5.41364 0.492584 0
M  V30 2428 H 211.399 -2.85213 0.709279 0
M  V30 2429 H 208.913 -1.54869 0.488822 0
M  V30 2430 H 210.91 -3.87736 -1.53188 0
M  V30 2431 H 209.57 -2.7244 -1.76654 0
M  V30 2432 H 210.581 -5.06115 1.09855 0
M  V30 2433 H 207.258 -3.98449 -1.24679 0
M  V30 2434 H 208.648 -6.4214 1.97751 0
M  V30 2435 N 211.368 -0.403325 -1.52352 0
M  V30 2436 C 212.779 0.0675782 -1.86578 0
M  V30 2437 C 213.13 1.44941 -1.32236 0
M  V30 2438 O 212.255 2.06112 -0.659307 0
M  V30 2439 C 212.85 0.129404 -3.38553 0
M  V30 2440 C 211.409 0.544629 -3.72439 0
M  V30 2441 C 210.556 -0.284551 -2.75836 0
M  V30 2442 H 213.507 -0.620631 -1.46061 0
M  V30 2443 H 213.528 0.94581 -3.68558 0
M  V30 2444 H 213.04 -0.87645 -3.78074 0
M  V30 2445 H 211.141 1.55734 -3.38493 0
M  V30 2446 H 211.254 0.293046 -4.78203 0
M  V30 2447 H 209.618 0.252258 -2.53448 0
M  V30 2448 H 210.401 -1.28865 -3.18196 0
M  V30 2449 N 212.846 1.57033 -0.133567 0
M  V30 2450 C 214.086 1.97575 0.523789 0
M  V30 2451 C 214.45 1.01605 1.62912 0
M  V30 2452 O 215.651 1.3114 2.3464 0
M  V30 2453 C 213.922 3.42256 1.02935 0
M  V30 2454 S 215.481 4.04817 1.69319 0
M  V30 2455 H 212.299 0.690427 0.169799 0
M  V30 2456 H 214.901 1.94234 -0.222101 0
M  V30 2457 H 213.605 4.09842 0.213917 0
M  V30 2458 H 213.136 3.4928 1.81017 0
M  V30 2459 H 215.151 3.96767 2.97977 0
M  V30 2460 N 214.325 -0.140222 1.56975 0
M  V30 2461 C 215.572 -0.851687 1.83719 0
M  V30 2462 C 215.9 -1.80862 0.715485 0
M  V30 2463 O 215.155 -1.93464 -0.294956 0
M  V30 2464 C 215.454 -1.65386 3.16832 0
M  V30 2465 C 215.12 -0.843112 4.42947 0
M  V30 2466 C 213.782 -0.619464 4.77196 0
M  V30 2467 C 216.134 -0.276582 5.20466 0
M  V30 2468 C 213.462 0.181312 5.8642 0
M  V30 2469 C 215.814 0.51127 6.30531 0
M  V30 2470 C 214.478 0.745432 6.63325 0
M  V30 2471 H 213.748 -0.311654 0.672274 0
M  V30 2472 H 216.395 -0.115006 1.91154 0
M  V30 2473 H 214.7 -2.46084 3.04877 0
M  V30 2474 H 216.397 -2.20793 3.34741 0
M  V30 2475 H 212.987 -1.0275 4.16101 0
M  V30 2476 H 217.171 -0.436632 4.94376 0
M  V30 2477 H 212.427 0.372165 6.10266 0
M  V30 2478 H 216.601 0.957354 6.89788 0
M  V30 2479 H 214.228 1.36778 7.47794 0
M  V30 2480 N 215.803 -1.52179 -0.40978 0
M  V30 2481 C 217.049 -1.67408 -1.15525 0
M  V30 2482 C 217.404 -0.398746 -1.88223 0
M  V30 2483 O 216.697 0.60678 -1.81738 0
M  V30 2484 C 216.891 -2.83428 -2.17723 0
M  V30 2485 C 216.72 -4.22121 -1.55061 0
M  V30 2486 C 215.49 -4.87657 -1.3236 0
M  V30 2487 C 217.688 -5.04248 -1.01185 0
M  V30 2488 N 215.67 -6.10387 -0.655834 0
M  V30 2489 C 217.041 -6.18209 -0.470963 0
M  V30 2490 C 219.096 -4.89583 -0.906252 0
M  V30 2491 C 217.799 -7.1911 0.165172 0
M  V30 2492 C 219.825 -5.90718 -0.28397 0
M  V30 2493 C 219.187 -7.03969 0.246243 0
M  V30 2494 H 215.286 -0.666251 -0.409431 0
M  V30 2495 H 217.87 -1.89482 -0.447729 0
M  V30 2496 H 216.041 -2.6297 -2.85834 0
M  V30 2497 H 217.773 -2.87697 -2.84627 0
M  V30 2498 H 214.528 -4.46007 -1.59294 0
M  V30 2499 H 214.952 -6.76153 -0.338596 0
M  V30 2500 H 219.594 -4.02253 -1.302 0
M  V30 2501 H 217.312 -8.06066 0.572986 0
M  V30 2502 H 220.898 -5.81443 -0.203792 0
M  V30 2503 H 219.778 -7.80886 0.720173 0
M  V30 2504 N 217.281 0.66697 -1.42791 0
M  V30 2505 C 218.53 1.42278 -1.42968 0
M  V30 2506 C 218.843 1.9553 -0.0524489 0
M  V30 2507 O 220.049 2.71414 0.068363 0
M  V30 2508 C 218.505 2.57418 -2.51524 0
M  V30 2509 C 218.113 2.10832 -3.9529 0
M  V30 2510 C 219.857 3.34878 -2.60877 0
M  V30 2511 C 217.764 3.23101 -4.95338 0
M  V30 2512 H 216.694 0.534533 -0.531781 0
M  V30 2513 H 219.345 0.721302 -1.68729 0
M  V30 2514 H 217.727 3.29971 -2.18941 0
M  V30 2515 H 218.901 1.4538 -4.37266 0
M  V30 2516 H 217.216 1.46289 -3.89857 0
M  V30 2517 H 219.813 4.18505 -3.32802 0
M  V30 2518 H 220.156 3.81993 -1.6549 0
M  V30 2519 H 220.689 2.69398 -2.92693 0
M  V30 2520 H 217.428 2.80969 -5.9223 0
M  V30 2521 H 216.948 3.87309 -4.57987 0
M  V30 2522 H 218.627 3.88447 -5.17415 0
M  V30 2523 N 218.759 1.29093 0.90403 0
M  V30 2524 C 220.036 1.075 1.63411 0
M  V30 2525 C 220.416 -0.382346 2.07609 0
M  V30 2526 O 219.764 -1.37031 1.82851 0
M  V30 2527 C 219.974 2.05858 2.81822 0
M  V30 2528 C 221.322 2.36539 3.52611 0
M  V30 2529 O 222.346 2.04019 2.91984 0
M  V30 2530 O 221.205 2.92085 4.61897 0
M  V30 2531 H 218.299 0.411547 0.717327 0
M  V30 2532 H 220.845 1.40449 0.952479 0
M  V30 2533 H 219.617 3.04037 2.46327 0
M  V30 2534 H 219.24 1.73613 3.57693 0
M  V30 2535 N 220.237 -1.11381 1.11499 0
M  V30 2536 C 221.485 -1.8277 0.862524 0
M  V30 2537 C 221.806 -1.85097 -0.613534 0
M  V30 2538 O 221.076 -1.32198 -1.4457 0
M  V30 2539 H 219.656 -0.676823 0.316101 0
M  V30 2540 H 222.318 -1.34816 1.4075 0
M  V30 2541 H 221.414 -2.86614 1.23527 0
M  V30 2542 N 221.715 -0.905404 -1.28997 0
M  V30 2543 C 222.647 -0.344748 -2.26592 0
M  V30 2544 C 223.66 0.512135 -1.54535 0
M  V30 2545 O 224.849 0.328368 -1.75454 0
M  V30 2546 C 221.949 0.526587 -3.34784 0
M  V30 2547 C 221.122 -0.305871 -4.36329 0
M  V30 2548 C 220.181 0.499209 -5.23827 0
M  V30 2549 O 219.207 -0.0853004 -5.69136 0
M  V30 2550 N 220.409 1.80408 -5.51755 0
M  V30 2551 H 223.174 -1.18359 -2.75338 0
M  V30 2552 H 220.735 -0.770481 -1.42391 0
M  V30 2553 H 222.727 1.07171 -3.90252 0
M  V30 2554 H 221.297 1.26613 -2.85811 0
M  V30 2555 H 220.517 -1.0324 -3.80441 0
M  V30 2556 H 221.805 -0.875773 -5.01206 0
M  V30 2557 H 221.203 2.3016 -5.16762 0
M  V30 2558 H 219.76 2.29621 -6.10014 0
M  V30 2559 N 223.193 1.4272 -0.668489 0
M  V30 2560 C 224.423 2.05668 -0.196063 0
M  V30 2561 C 224.831 1.5028 1.14946 0
M  V30 2562 O 224.174 0.6348 1.72383 0
M  V30 2563 C 224.236 3.59469 -0.0468879 0
M  V30 2564 C 223.9 4.37518 -1.32012 0
M  V30 2565 C 224.897 4.68584 -2.25222 0
M  V30 2566 C 222.582 4.77266 -1.56596 0
M  V30 2567 C 224.576 5.38326 -3.41297 0
M  V30 2568 C 222.263 5.4675 -2.72962 0
M  V30 2569 C 223.261 5.77204 -3.65137 0
M  V30 2570 O 222.949 6.45264 -4.79468 0
M  V30 2571 H 222.681 0.669382 -0.0943599 0
M  V30 2572 H 225.235 1.83954 -0.913788 0
M  V30 2573 H 223.465 3.79817 0.726357 0
M  V30 2574 H 225.154 4.04071 0.384852 0
M  V30 2575 H 225.92 4.38382 -2.07477 0
M  V30 2576 H 221.799 4.52959 -0.857249 0
M  V30 2577 H 225.343 5.62014 -4.13263 0
M  V30 2578 H 221.24 5.76369 -2.90635 0
M  V30 2579 H 222.008 6.63753 -4.78931 0
M  V30 2580 N 224.671 0.411399 1.52136 0
M  V30 2581 C 225.601 -0.404015 2.29978 0
M  V30 2582 C 226.582 -1.04412 1.34284 0
M  V30 2583 O 227.767 -1.0527 1.63192 0
M  V30 2584 C 224.897 -1.5197 3.12286 0
M  V30 2585 C 223.851 -1.00448 4.16046 0
M  V30 2586 C 223.177 -2.21393 4.86712 0
M  V30 2587 C 224.477 -0.0569336 5.22269 0
M  V30 2588 H 226.171 0.245529 2.98392 0
M  V30 2589 H 223.717 0.119525 1.43503 0
M  V30 2590 H 225.67 -2.09715 3.6551 0
M  V30 2591 H 224.394 -2.19716 2.41646 0
M  V30 2592 H 223.053 -0.449421 3.63835 0
M  V30 2593 H 222.701 -2.87699 4.12599 0
M  V30 2594 H 222.401 -1.87571 5.56858 0
M  V30 2595 H 223.925 -2.7974 5.4275 0
M  V30 2596 H 225.339 -0.54325 5.7072 0
M  V30 2597 H 223.736 0.192594 5.99791 0
M  V30 2598 H 224.806 0.887663 4.76706 0
M  V30 2599 N 226.149 -1.5696 0.141893 0
M  V30 2600 C 227.389 -1.9785 -0.513304 0
M  V30 2601 C 227.753 -1.02467 -1.62371 0
M  V30 2602 O 228.954 -1.32382 -2.33941 0
M  V30 2603 C 227.225 -3.42797 -1.01118 0
M  V30 2604 S 228.784 -4.05709 -1.67169 0
M  V30 2605 H 225.602 -0.691318 -0.166135 0
M  V30 2606 H 228.204 -1.94114 0.232398 0
M  V30 2607 H 226.908 -4.0995 -0.192179 0
M  V30 2608 H 226.439 -3.50235 -1.79162 0
M  V30 2609 H 228.454 -3.98342 -2.95868 0
M  V30 2610 N 227.627 0.131896 -1.57047 0
M  V30 2611 C 228.867 0.847972 -1.85981 0
M  V30 2612 C 229.231 1.77655 -0.7282 0
M  V30 2613 O 230.432 2.53322 -0.898968 0
M  V30 2614 C 228.703 1.58919 -3.20124 0
M  V30 2615 S 230.262 2.34862 -3.70655 0
M  V30 2616 H 227.08 0.283273 -0.652133 0
M  V30 2617 H 229.682 0.107057 -1.95207 0
M  V30 2618 H 228.386 0.898771 -4.00438 0
M  V30 2619 H 227.917 2.37073 -3.13942 0
M  V30 2620 H 229.932 3.60344 -3.41126 0
M  V30 2621 N 229.106 1.52395 0.401703 0
M  V30 2622 C 230.331 1.70972 1.17403 0
M  V30 2623 C 230.756 0.421615 1.83314 0
M  V30 2624 O 230.114 -0.621564 1.70312 0
M  V30 2625 C 230.162 2.85151 2.20728 0
M  V30 2626 O 229.266 2.51238 3.27037 0
M  V30 2627 H 228.607 0.568927 0.342372 0
M  V30 2628 H 231.137 1.99131 0.469891 0
M  V30 2629 H 231.147 3.10279 2.64936 0
M  V30 2630 H 229.822 3.78603 1.7214 0
M  V30 2631 H 228.399 2.36808 2.88057 0
M  V30 2632 N 230.584 -0.659388 1.43143 0
M  V30 2633 C 231.516 -1.7849 1.43784 0
M  V30 2634 C 232.529 -1.5932 0.334787 0
M  V30 2635 O 233.718 -1.68155 0.598842 0
M  V30 2636 C 230.818 -3.15828 1.22906 0
M  V30 2637 C 229.991 -3.61711 2.45934 0
M  V30 2638 C 229.05 -4.77831 2.20371 0
M  V30 2639 O 228.076 -4.87586 2.93681 0
M  V30 2640 N 229.278 -5.67611 1.21647 0
M  V30 2641 H 232.043 -1.7842 2.40803 0
M  V30 2642 H 229.604 -0.84302 1.3822 0
M  V30 2643 H 231.596 -3.91189 1.03697 0
M  V30 2644 H 230.166 -3.10707 0.343542 0
M  V30 2645 H 229.386 -2.76861 2.80609 0
M  V30 2646 H 230.674 -3.89112 3.27825 0
M  V30 2647 H 230.072 -5.62397 0.610449 0
M  V30 2648 H 228.629 -6.42719 1.08423 0
M  V30 2649 N 232.062 -1.29571 -0.897171 0
M  V30 2650 C 233.29 -1.20583 -1.68129 0
M  V30 2651 C 233.705 0.233181 -1.87354 0
M  V30 2652 O 233.062 1.15579 -1.41236 0
M  V30 2653 C 233.113 -1.91772 -3.06441 0
M  V30 2654 O 232.834 -3.30053 -2.88091 0
M  V30 2655 C 234.335 -1.89291 -4.00854 0
M  V30 2656 H 231.555 -0.417826 -0.525036 0
M  V30 2657 H 234.099 -1.70987 -1.12177 0
M  V30 2658 H 232.254 -1.45196 -3.59161 0
M  V30 2659 H 232.668 -3.65942 -3.75748 0
M  V30 2660 H 234.142 -2.43662 -4.95311 0
M  V30 2661 H 234.619 -0.869014 -4.30517 0
M  V30 2662 H 235.225 -2.35622 -3.54066 0
M  V30 2663 N 233.54 1.10788 -1.12088 0
M  V30 2664 C 234.503 2.15207 -0.788577 0
M  V30 2665 C 235.503 1.59609 0.195317 0
M  V30 2666 O 236.693 1.74174 -0.0300193 0
M  V30 2667 C 233.825 3.4047 -0.171174 0
M  V30 2668 H 235.018 2.46116 -1.71368 0
M  V30 2669 H 232.571 1.26089 -0.923652 0
M  V30 2670 H 233.306 3.15176 0.763832 0
M  V30 2671 H 233.091 3.82109 -0.879514 0
M  V30 2672 H 234.581 4.17576 0.04496 0
M  V30 2673 N 235.018 0.912232 1.28515 0
M  V30 2674 C 235.965 0.397954 2.27343 0
M  V30 2675 C 236.935 -0.526766 1.57526 0
M  V30 2676 O 238.12 -0.449292 1.85435 0
M  V30 2677 C 235.26 -0.357263 3.43246 0
M  V30 2678 C 234.373 0.599788 4.27816 0
M  V30 2679 C 233.508 -0.173725 5.30916 0
M  V30 2680 C 232.547 0.777039 6.07148 0
M  V30 2681 N 231.684 0.0371398 7.0209 0
M  V30 2682 H 236.524 1.24577 2.70711 0
M  V30 2683 H 234.061 0.625612 1.33133 0
M  V30 2684 H 236.019 -0.8113 4.09236 0
M  V30 2685 H 234.649 -1.16943 3.00872 0
M  V30 2686 H 233.701 1.17235 3.61884 0
M  V30 2687 H 235.013 1.32704 4.80823 0
M  V30 2688 H 234.167 -0.688394 6.02782 0
M  V30 2689 H 232.906 -0.934041 4.78672 0
M  V30 2690 H 231.911 1.3031 5.34134 0
M  V30 2691 H 233.136 1.53689 6.61481 0
M  V30 2692 H 231.082 -0.705213 6.52198 0
M  V30 2693 H 230.999 0.704249 7.52713 0
M  V30 2694 H 232.267 -0.457383 7.78157 0
M  V30 2695 N 236.496 -1.42363 0.676048 0
M  V30 2696 C 237.444 -2.32596 -0.0131507 0
M  V30 2697 C 238.438 -1.49891 -0.789238 0
M  V30 2698 O 239.644 -1.65955 -0.697061 0
M  V30 2699 H 236.019 -0.751647 -0.0230481 0
M  V30 2700 H 237.99 -2.88421 0.765243 0
M  V30 2701 C 236.739 -3.34479 -0.949702 0
M  V30 2702 H 236.062 -3.98158 -0.361938 0
M  V30 2703 H 237.502 -4.00199 -1.4006 0
M  V30 2704 C 235.961 -2.66838 -2.05667 0
M  V30 2705 O 236.491 -2.50124 -3.14326 0
M  V30 2706 N 234.697 -2.25843 -1.82875 0
M  V30 2707 H 234.244 -2.39637 -0.945085 0
M  V30 2708 H 234.202 -1.80918 -2.5713 0
M  V30 2709 N 237.974 -0.419461 -1.51915 0
M  V30 2710 C 238.937 0.389116 -2.25873 0
M  V30 2711 C 239.937 0.964924 -1.28631 0
M  V30 2712 O 241.127 0.842179 -1.52489 0
M  V30 2713 C 238.259 1.54874 -3.03689 0
M  V30 2714 H 239.452 -0.258799 -2.98781 0
M  V30 2715 H 237.005 -0.172209 -1.55348 0
M  V30 2716 H 237.74 2.23323 -2.35154 0
M  V30 2717 H 237.525 1.14223 -3.75094 0
M  V30 2718 H 239.015 2.12046 -3.59759 0
M  V30 2719 N 239.452 1.56882 -0.150215 0
M  V30 2720 C 240.385 2.12712 0.826358 0
M  V30 2721 C 241.363 1.05154 1.24022 0
M  V30 2722 O 242.547 1.33004 1.33575 0
M  V30 2723 C 239.674 2.64945 2.11002 0
M  V30 2724 C 238.72 3.8468 1.84183 0
M  V30 2725 S 239.553 5.25502 1.02995 0
M  V30 2726 C 240.709 5.81125 2.32474 0
M  V30 2727 H 240.942 2.95214 0.351598 0
M  V30 2728 H 238.475 1.54267 0.0641211 0
M  V30 2729 H 240.433 2.95689 2.84742 0
M  V30 2730 H 239.094 1.82568 2.55593 0
M  V30 2731 H 238.287 4.19482 2.79375 0
M  V30 2732 H 237.889 3.54714 1.1855 0
M  V30 2733 H 240.181 5.92753 3.281 0
M  V30 2734 H 241.124 6.78625 2.02171 0
M  V30 2735 H 241.532 5.09392 2.43269 0
M  V30 2736 N 240.93 -0.123565 1.57115 0
M  V30 2737 C 242.178 -0.83051 1.84247 0
M  V30 2738 C 242.499 -1.80629 0.73471 0
M  V30 2739 O 241.769 -1.94403 -0.241688 0
M  V30 2740 H 240.349 -0.309694 0.679778 0
M  V30 2741 H 243.011 -0.111976 1.94578 0
M  V30 2742 H 242.107 -1.37852 2.80006 0
M  V30 2743 N 242.408 -1.52605 -0.393616 0
M  V30 2744 C 243.648 -1.6911 -1.1481 0
M  V30 2745 C 244.012 -0.41969 -1.87357 0
M  V30 2746 O 245.213 -0.461034 -2.64817 0
M  V30 2747 C 243.484 -2.88909 -2.10395 0
M  V30 2748 S 245.043 -3.25977 -2.93742 0
M  V30 2749 H 241.861 -0.595337 -0.38871 0
M  V30 2750 H 244.463 -1.90641 -0.433178 0
M  V30 2751 H 243.167 -3.79672 -1.55812 0
M  V30 2752 H 242.698 -2.69698 -2.86403 0
M  V30 2753 H 244.713 -2.75806 -4.12487 0
M  V30 2754 N 243.887 0.651787 -1.4349 0
M  V30 2755 C 244.819 1.77725 -1.44729 0
M  V30 2756 C 245.832 1.59141 -0.343231 0
M  V30 2757 O 247.021 1.67835 -0.607751 0
M  V30 2758 C 244.121 3.15172 -1.24579 0
M  V30 2759 C 243.294 3.60402 -2.47849 0
M  V30 2760 C 242.353 4.76656 -2.22902 0
M  V30 2761 O 241.379 4.86022 -2.96263 0
M  V30 2762 N 242.581 5.66958 -1.24656 0
M  V30 2763 H 245.346 1.77141 -2.41746 0
M  V30 2764 H 242.907 0.835678 -1.38665 0
M  V30 2765 H 244.899 3.90634 -1.0577 0
M  V30 2766 H 243.469 3.1052 -0.360015 0
M  V30 2767 H 242.689 2.75369 -2.82073 0
M  V30 2768 H 243.977 3.87368 -3.29884 0
M  V30 2769 H 243.375 5.62065 -0.640265 0
M  V30 2770 H 241.932 6.42135 -1.1183 0
M  V30 2771 N 245.365 1.30045 0.890287 0
M  V30 2772 C 246.614 1.17929 1.63633 0
M  V30 2773 C 246.927 -0.266204 1.9378 0
M  V30 2774 O 248.133 -0.508804 2.6669 0
M  V30 2775 C 246.589 2.06317 2.94892 0
M  V30 2776 C 246.197 3.55745 2.72305 0
M  V30 2777 C 247.941 2.0295 3.72843 0
M  V30 2778 C 245.848 4.36205 3.99348 0
M  V30 2779 H 244.778 0.437782 0.613892 0
M  V30 2780 H 247.429 1.54754 0.986075 0
M  V30 2781 H 245.811 1.6237 3.61182 0
M  V30 2782 H 246.985 4.07805 2.1455 0
M  V30 2783 H 245.3 3.6088 2.07737 0
M  V30 2784 H 247.897 2.60319 4.67053 0
M  V30 2785 H 248.24 1.0117 4.0382 0
M  V30 2786 H 248.773 2.4499 3.13408 0
M  V30 2787 H 245.512 5.38659 3.73533 0
M  V30 2788 H 245.032 3.8891 4.56628 0
M  V30 2789 H 246.711 4.47362 4.67415 0
M  V30 2790 N 246.843 -1.10192 1.12674 0
M  V30 2791 C 247.773 -2.18652 0.819362 0
M  V30 2792 C 248.754 -1.68698 -0.217915 0
M  V30 2793 O 249.939 -1.94041 -0.0785581 0
M  V30 2794 C 247.069 -3.46202 0.27594 0
M  V30 2795 C 246.023 -4.09444 1.24656 0
M  V30 2796 C 245.349 -5.31725 0.563258 0
M  V30 2797 C 246.649 -4.52863 2.60217 0
M  V30 2798 H 248.343 -2.44622 1.72628 0
M  V30 2799 H 245.889 -1.17571 0.831451 0
M  V30 2800 H 247.842 -4.21372 0.0486149 0
M  V30 2801 H 246.566 -3.1973 -0.666331 0
M  V30 2802 H 245.225 -3.36284 1.45974 0
M  V30 2803 H 244.873 -5.0153 -0.384235 0
M  V30 2804 H 244.573 -5.74991 1.21075 0
M  V30 2805 H 246.097 -6.09624 0.34503 0
M  V30 2806 H 247.511 -5.19294 2.42913 0
M  V30 2807 H 245.908 -5.06986 3.21068 0
M  V30 2808 H 246.978 -3.65656 3.18471 0
M  V30 2809 N 248.321 -0.919034 -1.28029 0
M  V30 2810 C 249.231 -0.416756 -2.30869 0
M  V30 2811 C 250.247 0.498235 -1.66714 0
M  V30 2812 O 251.423 0.383144 -1.97722 0
M  V30 2813 C 248.488 0.330274 -3.45123 0
M  V30 2814 C 247.549 -0.618578 -4.2482 0
M  V30 2815 C 246.782 0.0928959 -5.33619 0
M  V30 2816 O 247.005 1.31375 -5.55065 0
M  V30 2817 O 245.939 -0.574499 -5.99152 0
M  V30 2818 H 249.765 -1.27043 -2.75851 0
M  V30 2819 H 247.35 -0.684052 -1.3282 0
M  V30 2820 H 249.232 0.751972 -4.14636 0
M  V30 2821 H 247.907 1.1597 -3.02213 0
M  V30 2822 H 246.814 -1.08978 -3.57875 0
M  V30 2823 H 248.147 -1.41497 -4.71423 0
M  V30 2824 N 249.799 1.42003 -0.683588 0
M  V30 2825 C 250.747 2.326 0.000815408 0
M  V30 2826 C 251.741 1.50308 0.781278 0
M  V30 2827 O 252.947 1.66322 0.688251 0
M  V30 2828 H 249.322 0.751758 0.0190616 0
M  V30 2829 H 251.293 2.88011 -0.780528 0
M  V30 2830 C 250.042 3.34978 0.93195 0
M  V30 2831 H 249.365 3.98345 0.340817 0
M  V30 2832 H 250.805 4.00936 1.37936 0
M  V30 2833 C 249.264 2.67925 2.04249 0
M  V30 2834 O 249.794 2.51788 3.12995 0
M  V30 2835 N 248 2.2681 1.81675 0
M  V30 2836 H 247.547 2.40135 0.932363 0
M  V30 2837 H 247.505 1.8228 2.56167 0
M  V30 2838 N 251.277 0.427512 1.51691 0
M  V30 2839 C 252.693 0.0792977 1.59403 0
M  V30 2840 C 252.893 -1.41035 1.43914 0
M  V30 2841 O 251.949 -2.17922 1.27539 0
M  V30 2842 C 253.262 0.590636 2.94842 0
M  V30 2843 C 254.81 0.550215 3.08126 0
M  V30 2844 C 255.285 1.03836 4.46074 0
M  V30 2845 N 256.776 0.995943 4.52366 0
M  V30 2846 C 257.511 1.34463 5.57411 0
M  V30 2847 N 257.007 1.76569 6.69922 0
M  V30 2848 N 258.8 1.26343 5.47717 0
M  V30 2849 H 250.951 1.39687 1.60004 0
M  V30 2850 H 253.214 0.575003 0.753708 0
M  V30 2851 H 252.92 1.63251 3.11516 0
M  V30 2852 H 252.794 0.0102061 3.77199 0
M  V30 2853 H 255.181 -0.482654 2.91126 0
M  V30 2854 H 255.262 1.16693 2.27632 0
M  V30 2855 H 254.906 2.06965 4.63819 0
M  V30 2856 H 254.836 0.398286 5.25092 0
M  V30 2857 H 257.327 0.68661 3.7161 0
M  V30 2858 H 257.64 2.01438 7.46085 0
M  V30 2859 H 255.985 1.80488 6.71155 0
M  V30 2860 H 259.176 0.933209 4.58703 0
M  V30 2861 H 259.349 1.53846 6.29472 0
M  V30 2862 N 252.755 -1.56801 0.158532 0
M  V30 2863 C 253.703 -2.18638 -0.793729 0
M  V30 2864 C 254.697 -1.14669 -1.24689 0
M  V30 2865 O 255.903 -1.32895 -1.21403 0
M  V30 2866 H 252.278 -0.700226 -0.274204 0
M  V30 2867 H 254.249 -2.97367 -0.248095 0
M  V30 2868 C 252.998 -2.83139 -2.0181 0
M  V30 2869 H 252.321 -3.62863 -1.67841 0
M  V30 2870 H 253.761 -3.29894 -2.66357 0
M  V30 2871 C 252.22 -1.82244 -2.83353 0
M  V30 2872 O 252.75 -1.3 -3.80083 0
M  V30 2873 N 250.956 -1.51288 -2.48114 0
M  V30 2874 H 250.503 -1.93964 -1.69516 0
M  V30 2875 H 250.461 -0.840296 -3.02963 0
M  V30 2876 N 254.233 0.115231 -1.57178 0
M  V30 2877 C 255.481 0.820727 -1.84685 0
M  V30 2878 C 255.802 1.80237 -0.744279 0
M  V30 2879 O 255.072 1.94529 0.231375 0
M  V30 2880 H 253.652 0.306084 -0.681411 0
M  V30 2881 H 256.314 0.101656 -1.94635 0
M  V30 2882 H 255.41 1.36366 -2.80733 0
M  V30 2883 N 255.711 1.52812 0.385517 0
M  V30 2884 C 256.936 1.72207 1.15583 0
M  V30 2885 C 257.361 0.441034 1.82857 0
M  V30 2886 O 256.719 -0.603465 1.70962 0
M  V30 2887 C 256.767 2.87476 2.17692 0
M  V30 2888 O 255.871 2.54693 3.24354 0
M  V30 2889 H 255.212 0.572526 0.336319 0
M  V30 2890 H 257.742 1.99618 0.448744 0
M  V30 2891 H 257.752 3.13072 2.6163 0
M  V30 2892 H 256.427 3.80408 1.68115 0
M  V30 2893 H 255.004 2.3985 2.85529 0
M  V30 2894 N 257.189 -0.644168 1.43834 0
M  V30 2895 C 258.119 -1.76814 1.52509 0
M  V30 2896 C 259.1 -1.65823 0.379052 0
M  V30 2897 O 260.285 -1.84781 0.597466 0
M  V30 2898 C 257.415 -3.15288 1.4564 0
M  V30 2899 C 256.369 -3.41053 2.58586 0
M  V30 2900 C 255.695 -4.79421 2.36769 0
M  V30 2901 C 256.995 -3.34902 4.00797 0
M  V30 2902 H 258.689 -1.69812 2.46586 0
M  V30 2903 H 256.235 -0.815542 1.1868 0
M  V30 2904 H 258.188 -3.93681 1.50311 0
M  V30 2905 H 256.912 -3.23043 0.480725 0
M  V30 2906 H 255.571 -2.65035 2.53282 0
M  V30 2907 H 255.219 -4.83863 1.37424 0
M  V30 2908 H 254.919 -4.9762 3.12487 0
M  V30 2909 H 256.443 -5.6006 2.43238 0
M  V30 2910 H 257.857 -4.03218 4.07539 0
M  V30 2911 H 256.254 -3.64637 4.76613 0
M  V30 2912 H 257.324 -2.32928 4.25291 0
M  V30 2913 N 258.668 -1.30515 -0.883378 0
M  V30 2914 C 259.615 -1.17032 -1.98927 0
M  V30 2915 C 260.585 -0.0594241 -1.65994 0
M  V30 2916 O 261.77 -0.229895 -1.8941 0
M  V30 2917 C 258.91 -0.869777 -3.33959 0
M  V30 2918 C 258.023 -2.06271 -3.79574 0
M  V30 2919 C 257.158 -1.70011 -5.03259 0
M  V30 2920 C 256.197 -2.8579 -5.41286 0
M  V30 2921 N 255.334 -2.49816 -6.56153 0
M  V30 2922 H 260.174 -2.1164 -2.09792 0
M  V30 2923 H 257.711 -1.05296 -1.02719 0
M  V30 2924 H 259.669 -0.676138 -4.11685 0
M  V30 2925 H 258.299 0.0394332 -3.22776 0
M  V30 2926 H 257.351 -2.36755 -2.97744 0
M  V30 2927 H 258.663 -2.92971 -4.03694 0
M  V30 2928 H 257.817 -1.47032 -5.88614 0
M  V30 2929 H 256.556 -0.804829 -4.81013 0
M  V30 2930 H 255.561 -3.09434 -4.54456 0
M  V30 2931 H 256.786 -3.76008 -5.65504 0
M  V30 2932 H 254.732 -1.62795 -6.35479 0
M  V30 2933 H 254.649 -3.30048 -6.8015 0
M  V30 2934 H 255.917 -2.30197 -7.44735 0
M  V30 2935 N 260.146 1.09593 -1.13257 0
M  V30 2936 C 261.557 1.63229 -0.906274 0
M  V30 2937 C 261.908 1.8811 0.557578 0
M  V30 2938 O 261.033 1.62953 1.42391 0
M  V30 2939 C 261.628 2.96535 -1.63867 0
M  V30 2940 C 260.187 3.47003 -1.45828 0
M  V30 2941 C 259.334 2.2145 -1.66898 0
M  V30 2942 H 262.285 0.92978 -1.28611 0
M  V30 2943 H 262.306 3.64411 -1.09476 0
M  V30 2944 H 261.818 2.78394 -2.70404 0
M  V30 2945 H 259.919 3.70272 -0.415848 0
M  V30 2946 H 260.032 4.24551 -2.2202 0
M  V30 2947 H 258.396 2.30022 -1.09371 0
M  V30 2948 H 259.179 2.0583 -2.74752 0
M  V30 2949 N 261.624 0.925811 1.2754 0
M  V30 2950 C 262.872 0.564138 1.94067 0
M  V30 2951 C 263.193 -0.897188 1.73134 0
M  V30 2952 O 262.463 -1.63573 1.07799 0
M  V30 2953 H 261.043 0.205645 0.718136 0
M  V30 2954 H 263.705 1.1778 1.55287 0
M  V30 2955 H 262.801 0.76881 3.02483 0
M  V30 2956 N 263.102 -1.41638 0.69111 0
M  V30 2957 C 264.327 -2.06148 0.227583 0
M  V30 2958 C 264.752 -1.51652 -1.11281 0
M  V30 2959 O 264.11 -0.64164 -1.69566 0
M  V30 2960 C 264.158 -3.60095 0.190858 0
M  V30 2961 O 263.262 -4.03845 -0.835664 0
M  V30 2962 H 262.603 -0.654434 0.112306 0
M  V30 2963 H 265.133 -1.81484 0.944714 0
M  V30 2964 H 265.143 -4.07995 0.020207 0
M  V30 2965 H 263.818 -3.99129 1.16915 0
M  V30 2966 H 262.395 -3.67458 -0.63473 0
M  V30 2967 N 264.58 -0.43555 -1.51462 0
M  V30 2968 C 265.805 0.132627 -2.06976 0
M  V30 2969 C 266.23 1.35848 -1.30104 0
M  V30 2970 O 265.588 1.78112 -0.338493 0
M  V30 2971 C 265.636 0.43523 -3.57964 0
M  V30 2972 O 264.74 1.52198 -3.83288 0
M  V30 2973 H 264.081 0.00265 -0.663995 0
M  V30 2974 H 266.611 -0.616369 -1.95095 0
M  V30 2975 H 266.621 0.686206 -4.02188 0
M  V30 2976 H 265.296 -0.460739 -4.1334 0
M  V30 2977 H 263.873 1.2611 -3.50928 0
M  V30 2978 N 266.058 1.56714 -0.166846 0
M  V30 2979 C 267.008 2.14338 0.777382 0
M  V30 2980 C 267.992 1.07642 1.19591 0
M  V30 2981 O 269.184 1.33775 1.15902 0
M  V30 2982 C 266.313 2.78417 2.00846 0
M  V30 2983 C 265.399 3.92264 1.61212 0
M  V30 2984 N 265.79 4.97268 0.925104 0
M  V30 2985 C 264.088 4.03342 1.90346 0
M  V30 2986 C 264.789 5.77093 0.730627 0
M  V30 2987 N 263.765 5.2854 1.27067 0
M  V30 2988 H 267.567 2.9289 0.243466 0
M  V30 2989 H 265.081 1.62364 0.0339954 0
M  V30 2990 H 267.078 3.18073 2.69509 0
M  V30 2991 H 265.738 2.01344 2.54736 0
M  V30 2992 H 266.749 5.14601 0.583646 0
M  V30 2993 H 263.426 3.37368 2.45946 0
M  V30 2994 H 264.816 6.71638 0.187668 0
M  V30 2995 N 267.536 -0.106894 1.57237 0
M  V30 2996 C 268.952 -0.46078 1.52804 0
M  V30 2997 C 269.152 -1.81184 0.881746 0
M  V30 2998 O 268.208 -2.48102 0.469224 0
M  V30 2999 C 269.521 -0.434127 2.9755 0
M  V30 3000 C 271.069 -0.516821 3.08704 0
M  V30 3001 C 271.544 -0.520436 4.55033 0
M  V30 3002 N 273.035 -0.58153 4.59535 0
M  V30 3003 C 273.77 -0.605973 5.70189 0
M  V30 3004 N 273.266 -0.587331 6.90306 0
M  V30 3005 N 275.059 -0.649895 5.5833 0
M  V30 3006 H 267.21 0.778203 1.9763 0
M  V30 3007 H 269.473 0.288403 0.903066 0
M  V30 3008 H 269.179 0.491197 3.48253 0
M  V30 3009 H 269.053 -1.25748 3.55622 0
M  V30 3010 H 271.44 -1.43256 2.57995 0
M  V30 3011 H 271.521 0.334449 2.53604 0
M  V30 3012 H 271.165 0.391313 5.0639 0
M  V30 3013 H 271.095 -1.38876 5.07958 0
M  V30 3014 H 273.586 -0.60161 3.73081 0
M  V30 3015 H 273.899 -0.60894 7.70397 0
M  V30 3016 H 272.244 -0.554564 6.92784 0
M  V30 3017 H 275.435 -0.661907 4.63397 0
M  V30 3018 H 275.608 -0.665476 6.44574 0
M  V30 3019 N 269.014 -1.53014 -0.377408 0
M  V30 3020 C 269.961 -1.78616 -1.46168 0
M  V30 3021 C 270.931 -0.629917 -1.53692 0
M  V30 3022 O 272.116 -0.870861 -1.69766 0
M  V30 3023 C 269.256 -1.97123 -2.8326 0
M  V30 3024 C 268.369 -3.24831 -2.84796 0
M  V30 3025 C 267.504 -3.33591 -4.13389 0
M  V30 3026 C 266.543 -4.55377 -4.09021 0
M  V30 3027 N 265.68 -4.61355 -5.29241 0
M  V30 3028 H 270.52 -2.71142 -1.23637 0
M  V30 3029 H 268.057 -1.34326 -0.599577 0
M  V30 3030 H 270.015 -2.05839 -3.62886 0
M  V30 3031 H 268.645 -1.07946 -3.04216 0
M  V30 3032 H 267.697 -3.25128 -1.97474 0
M  V30 3033 H 269.009 -4.14523 -2.77439 0
M  V30 3034 H 268.163 -3.41554 -5.01424 0
M  V30 3035 H 266.902 -2.41894 -4.23484 0
M  V30 3036 H 265.907 -4.47527 -3.19373 0
M  V30 3037 H 267.132 -5.48402 -4.00539 0
M  V30 3038 H 265.078 -3.72554 -5.39944 0
M  V30 3039 H 264.995 -5.44935 -5.24006 0
M  V30 3040 H 266.263 -4.73586 -6.19141 0
M  V30 3041 N 270.492 0.636531 -1.44174 0
M  V30 3042 C 271.72 1.42353 -1.50144 0
M  V30 3043 C 272.135 1.88389 -0.124575 0
M  V30 3044 O 271.492 1.6051 0.868489 0
M  V30 3045 C 271.543 2.64744 -2.46156 0
M  V30 3046 O 271.264 2.20629 -3.7849 0
M  V30 3047 C 272.765 3.57929 -2.61537 0
M  V30 3048 H 269.985 0.436752 -0.5094 0
M  V30 3049 H 272.529 0.778933 -1.89084 0
M  V30 3050 H 270.684 3.25307 -2.10366 0
M  V30 3051 H 271.098 2.99938 -4.30276 0
M  V30 3052 H 272.572 4.40428 -3.32757 0
M  V30 3053 H 273.049 4.06382 -1.66585 0
M  V30 3054 H 273.655 3.03238 -2.98206 0
M  V30 3055 N 271.97 1.30982 0.876444 0
M  V30 3056 C 272.917 1.18085 1.98304 0
M  V30 3057 C 273.887 0.0682263 1.6596 0
M  V30 3058 O 275.072 0.239937 1.89285 0
M  V30 3059 C 272.212 0.887475 3.33493 0
M  V30 3060 C 271.325 2.08281 3.78475 0
M  V30 3061 C 270.46 1.72678 5.0235 0
M  V30 3062 C 269.499 2.88657 5.39762 0
M  V30 3063 N 268.636 2.53292 6.54819 0
M  V30 3064 H 273.476 2.1275 2.08666 0
M  V30 3065 H 271.013 1.05839 1.02159 0
M  V30 3066 H 272.971 0.697961 4.1132 0
M  V30 3067 H 271.601 -0.022315 3.22792 0
M  V30 3068 H 270.653 2.3833 2.96484 0
M  V30 3069 H 271.965 2.95108 4.02135 0
M  V30 3070 H 271.119 1.50151 5.87826 0
M  V30 3071 H 269.858 0.830327 4.8058 0
M  V30 3072 H 268.863 3.1184 4.52809 0
M  V30 3073 H 270.088 3.79002 5.63502 0
M  V30 3074 H 268.034 1.66163 6.34607 0
M  V30 3075 H 267.951 3.3365 6.7839 0
M  V30 3076 H 269.219 2.34143 7.43503 0
M  V30 3077 N 273.449 -1.08991 1.13837 0
M  V30 3078 C 274.396 -2.15748 0.819835 0
M  V30 3079 C 275.366 -1.64636 -0.220026 0
M  V30 3080 O 276.551 -1.90582 -0.0912757 0
M  V30 3081 C 273.691 -3.4382 0.296913 0
M  V30 3082 C 272.804 -4.0881 1.39636 0
M  V30 3083 C 271.939 -5.24655 0.831314 0
M  V30 3084 C 270.978 -5.81575 1.90886 0
M  V30 3085 N 270.115 -6.88774 1.36142 0
M  V30 3086 H 274.955 -2.42338 1.73426 0
M  V30 3087 H 272.492 -1.18935 0.865613 0
M  V30 3088 H 274.45 -4.17193 -0.0244339 0
M  V30 3089 H 273.08 -3.17535 -0.580628 0
M  V30 3090 H 272.132 -3.33258 1.83422 0
M  V30 3091 H 273.444 -4.47141 2.21058 0
M  V30 3092 H 272.598 -6.04942 0.461515 0
M  V30 3093 H 271.337 -4.87698 -0.013932 0
M  V30 3094 H 270.342 -4.99946 2.28767 0
M  V30 3095 H 271.567 -6.20592 2.75758 0
M  V30 3096 H 269.513 -6.53788 0.538254 0
M  V30 3097 H 269.43 -7.25898 2.11208 0
M  V30 3098 H 270.698 -7.72806 1.01933 0
M  V30 3099 N 274.927 -0.932562 -1.27047 0
M  V30 3100 C 276.338 -0.619451 -1.76124 0
M  V30 3101 C 276.689 0.865397 -1.76083 0
M  V30 3102 O 275.814 1.67722 -1.36742 0
M  V30 3103 C 276.409 -1.11771 -3.19832 0
M  V30 3104 C 274.968 -0.855174 -3.66557 0
M  V30 3105 C 274.115 -1.27362 -2.46321 0
M  V30 3106 H 277.066 -1.11181 -1.13245 0
M  V30 3107 H 277.087 -0.46759 -3.77616 0
M  V30 3108 H 276.599 -2.19842 -3.1983 0
M  V30 3109 H 274.7 0.211524 -3.71999 0
M  V30 3110 H 274.813 -1.47613 -4.55793 0
M  V30 3111 H 273.177 -0.692119 -2.45116 0
M  V30 3112 H 273.96 -2.36307 -2.49025 0
M  V30 3113 N 276.405 1.4127 -0.698611 0
M  V30 3114 C 277.335 2.33447 -0.049629 0
M  V30 3115 C 278.316 1.51982 0.763898 0
M  V30 3116 O 279.501 1.80509 0.716257 0
M  V30 3117 C 276.631 3.35828 0.885267 0
M  V30 3118 C 275.585 4.27627 0.178613 0
M  V30 3119 C 274.911 5.20406 1.22807 0
M  V30 3120 C 276.211 5.13459 -0.956933 0
M  V30 3121 H 277.905 2.87966 -0.81951 0
M  V30 3122 H 275.451 1.38461 -0.395538 0
M  V30 3123 H 277.404 3.9924 1.34854 0
M  V30 3124 H 276.128 2.79666 1.68685 0
M  V30 3125 H 274.787 3.65643 -0.26466 0
M  V30 3126 H 274.435 4.60558 2.02226 0
M  V30 3127 H 274.135 5.82661 0.760239 0
M  V30 3128 H 275.659 5.86695 1.69179 0
M  V30 3129 H 277.073 5.70421 -0.573805 0
M  V30 3130 H 275.47 5.8467 -1.35205 0
M  V30 3131 H 276.54 4.50443 -1.79524 0
M  V30 3132 N 277.883 0.443576 1.51229 0
M  V30 3133 C 279.294 -0.0180867 1.86691 0
M  V30 3134 C 279.645 -1.41384 1.36033 0
M  V30 3135 O 278.77 -2.04291 0.713722 0
M  V30 3136 C 279.365 -0.039597 3.38777 0
M  V30 3137 C 277.924 -0.445692 3.73752 0
M  V30 3138 C 277.071 0.357584 2.74985 0
M  V30 3139 H 280.022 0.659138 1.44364 0
M  V30 3140 H 280.043 -0.847761 3.70936 0
M  V30 3141 H 279.555 0.976382 3.75617 0
M  V30 3142 H 277.656 -1.46704 3.42503 0
M  V30 3143 H 277.769 -0.166155 4.78812 0
M  V30 3144 H 276.133 -0.184973 2.54027 0
M  V30 3145 H 276.916 1.37256 3.14668 0
M  V30 3146 N 279.361 -1.56624 0.175154 0
M  V30 3147 C 280.772 -1.83561 -0.340916 0
M  V30 3148 C 281.123 -1.09511 -1.62794 0
M  V30 3149 O 280.248 -0.349389 -2.13561 0
M  V30 3150 C 280.843 -3.32979 -0.625313 0
M  V30 3151 C 279.402 -3.60399 -1.08581 0
M  V30 3152 C 278.549 -2.77024 -0.123722 0
M  V30 3153 H 281.5 -1.53593 0.399344 0
M  V30 3154 H 281.521 -3.50666 -1.47694 0
M  V30 3155 H 281.033 -3.86847 0.311575 0
M  V30 3156 H 279.134 -3.11945 -2.03767 0
M  V30 3157 H 279.247 -4.68711 -0.992317 0
M  V30 3158 H 277.611 -2.46993 -0.621821 0
M  V30 3159 H 278.394 -3.33674 0.807256 0
M  V30 3160 N 280.839 0.0985539 -1.57292 0
M  V30 3161 C 282.067 0.816318 -1.90115 0
M  V30 3162 C 282.482 1.72451 -0.768509 0
M  V30 3163 O 281.839 1.80643 0.259687 0
M  V30 3164 C 281.89 1.63259 -3.22535 0
M  V30 3165 O 281.611 0.760934 -4.31441 0
M  V30 3166 C 283.112 2.45372 -3.69199 0
M  V30 3167 H 280.332 0.233595 -0.629027 0
M  V30 3168 H 282.876 0.0768229 -2.04356 0
M  V30 3169 H 281.031 2.32463 -3.09903 0
M  V30 3170 H 281.445 1.32595 -5.07463 0
M  V30 3171 H 282.919 2.98144 -4.64558 0
M  V30 3172 H 283.396 3.23677 -2.96867 0
M  V30 3173 H 284.002 1.81373 -3.84687 0
M  V30 3174 N 282.317 1.53212 0.369288 0
M  V30 3175 C 283.728 1.60943 0.946276 0
M  V30 3176 C 284.079 0.47452 1.90375 0
M  V30 3177 O 283.204 -0.399597 2.12679 0
M  V30 3178 C 283.799 2.91715 1.72302 0
M  V30 3179 C 282.358 3.01792 2.24941 0
M  V30 3180 C 281.505 2.56211 1.06072 0
M  V30 3181 H 284.456 1.58007 0.148198 0
M  V30 3182 H 284.477 2.79309 2.58393 0
M  V30 3183 H 283.989 3.74295 1.0259 0
M  V30 3184 H 282.09 2.23791 2.97906 0
M  V30 3185 H 282.203 4.06803 2.53077 0
M  V30 3186 H 280.567 2.10998 1.4266 0
M  V30 3187 H 281.35 3.41206 0.378639 0
M  V30 3188 N 283.795 -0.628877 1.44509 0
M  V30 3189 C 284.705 -1.7694 1.54044 0
M  V30 3190 C 285.721 -1.68705 0.425987 0
M  V30 3191 O 286.897 -1.89442 0.683656 0
M  V30 3192 C 283.962 -3.13332 1.48405 0
M  V30 3193 C 283.023 -3.33181 2.70719 0
M  V30 3194 C 282.256 -4.63067 2.6534 0
M  V30 3195 O 282.479 -5.44017 1.71469 0
M  V30 3196 O 281.413 -4.85167 3.56226 0
M  V30 3197 H 285.239 -1.71848 2.50403 0
M  V30 3198 H 282.824 -0.790378 1.26781 0
M  V30 3199 H 284.706 -3.94634 1.47791 0
M  V30 3200 H 283.381 -3.1896 0.551898 0
M  V30 3201 H 282.288 -2.51549 2.769 0
M  V30 3202 H 283.621 -3.32416 3.62988 0
M  V30 3203 N 285.273 -1.31445 -0.869486 0
M  V30 3204 C 286.183 -1.21097 -2.0093 0
M  V30 3205 C 287.199 -0.127584 -1.73532 0
M  V30 3206 O 288.375 -0.345477 -1.98415 0
M  V30 3207 C 285.44 -0.919378 -3.34288 0
M  V30 3208 C 284.501 -2.08971 -3.75006 0
M  V30 3209 C 283.734 -1.81194 -5.02001 0
M  V30 3210 O 283.957 -0.747296 -5.65484 0
M  V30 3211 O 282.891 -2.66883 -5.39497 0
M  V30 3212 H 286.717 -2.16883 -2.12592 0
M  V30 3213 H 284.302 -1.11189 -0.997868 0
M  V30 3214 H 286.184 -0.772625 -4.14257 0
M  V30 3215 H 284.859 0.00844772 -3.23699 0
M  V30 3216 H 283.766 -2.29187 -2.95676 0
M  V30 3217 H 285.099 -2.9998 -3.90221 0
M  V30 3218 N 286.751 1.08385 -1.14413 0
M  V30 3219 C 288.028 1.77429 -0.823297 0
M  V30 3220 C 288.408 1.9974 0.683163 0
M  V30 3221 O 287.756 1.60739 1.62405 0
M  V30 3222 C 287.966 3.09004 -1.62227 0
M  V30 3223 C 289.314 3.83532 -1.82177 0
M  V30 3224 O 290.338 3.18786 -1.58915 0
M  V30 3225 O 289.197 4.99792 -2.21067 0
M  V30 3226 H 286.291 0.769999 -0.301712 0
M  V30 3227 H 288.837 1.14846 -1.24934 0
M  V30 3228 H 287.609 2.88316 -2.64555 0
M  V30 3229 H 287.232 3.79316 -1.19187 0
M  V30 3230 N 288.23 0.939286 1.26551 0
M  V30 3231 C 289.162 0.404704 2.25599 0
M  V30 3232 C 290.175 -0.470983 1.55838 0
M  V30 3233 O 291.364 -0.281734 1.76263 0
M  V30 3234 C 288.464 -0.43764 3.36062 0
M  V30 3235 C 287.637 0.421449 4.35365 0
M  V30 3236 C 286.696 -0.36015 5.24966 0
M  V30 3237 O 285.722 0.236167 5.6871 0
M  V30 3238 N 286.924 -1.65715 5.56344 0
M  V30 3239 H 289.689 1.25618 2.72103 0
M  V30 3240 H 287.25 0.807963 1.40298 0
M  V30 3241 H 289.242 -0.967866 3.92956 0
M  V30 3242 H 287.812 -1.18991 2.89067 0
M  V30 3243 H 287.032 1.1329 3.7757 0
M  V30 3244 H 288.32 1.00835 4.98708 0
M  V30 3245 H 287.718 -2.16378 5.22682 0
M  V30 3246 H 286.275 -2.13366 6.15888 0
M  V30 3247 N 289.708 -1.40897 0.706093 0
M  V30 3248 C 290.957 -2.00284 0.238574 0
M  V30 3249 C 291.27 -1.56604 -1.17194 0
M  V30 3250 O 292.476 -2.08624 -1.73748 0
M  V30 3251 C 290.932 -3.57934 0.375623 0
M  V30 3252 C 290.54 -4.10591 1.79217 0
M  V30 3253 C 292.284 -4.24488 -0.0315857 0
M  V30 3254 C 290.191 -5.60712 1.88032 0
M  V30 3255 H 289.121 -0.749144 0.0854398 0
M  V30 3256 H 291.772 -1.61251 0.875813 0
M  V30 3257 H 290.154 -3.94622 -0.330042 0
M  V30 3258 H 291.328 -3.85301 2.52745 0
M  V30 3259 H 289.643 -3.56601 2.15 0
M  V30 3260 H 292.24 -5.34698 0.0136842 0
M  V30 3261 H 292.583 -4.02261 -1.072 0
M  V30 3262 H 293.116 -3.92873 0.624181 0
M  V30 3263 H 289.855 -5.87781 2.90161 0
M  V30 3264 H 289.375 -5.87896 1.18903 0
M  V30 3265 H 291.054 -6.25658 1.64805 0
M  V30 3266 N 291.186 -0.45159 -1.50991 0
M  V30 3267 C 292.116 0.342898 -2.30969 0
M  V30 3268 C 293.097 1.00815 -1.37005 0
M  V30 3269 O 294.282 1.00907 -1.65926 0
M  V30 3270 C 291.412 1.43637 -3.16205 0
M  V30 3271 C 290.366 0.893818 -4.18563 0
M  V30 3272 C 289.692 2.08411 -4.92411 0
M  V30 3273 C 290.992 -0.0815568 -5.22236 0
M  V30 3274 H 292.686 -0.324556 -2.97636 0
M  V30 3275 H 290.232 -0.157531 -1.43136 0
M  V30 3276 H 292.185 1.9995 -3.70942 0
M  V30 3277 H 290.909 2.13232 -2.47386 0
M  V30 3278 H 289.568 0.352798 -3.64898 0
M  V30 3279 H 289.216 2.76658 -4.20082 0
M  V30 3280 H 288.916 1.72741 -5.61636 0
M  V30 3281 H 290.44 2.65251 -5.49976 0
M  V30 3282 H 291.854 0.391742 -5.7196 0
M  V30 3283 H 290.251 -0.351551 -5.99069 0
M  V30 3284 H 291.321 -1.01374 -4.74185 0
M  V30 3285 N 292.664 1.56529 -0.183458 0
M  V30 3286 C 293.611 2.18546 0.742055 0
M  V30 3287 C 294.581 1.12912 1.2182 0
M  V30 3288 O 295.766 1.41115 1.28418 0
M  V30 3289 C 292.906 2.83977 1.96089 0
M  V30 3290 C 292.019 4.04105 1.52719 0
M  V30 3291 C 291.154 4.57427 2.70063 0
M  V30 3292 C 290.193 5.69938 2.23243 0
M  V30 3293 N 289.33 6.17717 3.33722 0
M  V30 3294 H 294.17 2.97284 0.206432 0
M  V30 3295 H 291.707 1.46823 0.0901571 0
M  V30 3296 H 293.665 3.20077 2.67594 0
M  V30 3297 H 292.295 2.07822 2.47002 0
M  V30 3298 H 291.347 3.73745 0.708436 0
M  V30 3299 H 292.659 4.85513 1.1436 0
M  V30 3300 H 291.813 4.95772 3.49708 0
M  V30 3301 H 290.552 3.75101 3.11689 0
M  V30 3302 H 289.557 5.31133 1.42048 0
M  V30 3303 H 290.782 6.54073 1.82661 0
M  V30 3304 H 288.728 5.38317 3.74902 0
M  V30 3305 H 288.645 6.94146 2.99495 0
M  V30 3306 H 289.913 6.60713 4.13616 0
M  V30 3307 N 294.142 -0.090211 1.57342 0
M  V30 3308 C 295.089 -1.10909 2.02405 0
M  V30 3309 C 296.059 -1.39523 0.901252 0
M  V30 3310 O 297.244 -1.50903 1.1676 0
M  V30 3311 C 294.384 -2.42277 2.45755 0
M  V30 3312 C 293.497 -2.20352 3.71576 0
M  V30 3313 C 292.632 -3.45154 4.03785 0
M  V30 3314 C 291.671 -3.18512 5.22701 0
M  V30 3315 N 290.808 -4.35593 5.50639 0
M  V30 3316 H 295.648 -0.71782 2.89225 0
M  V30 3317 H 293.185 -0.342901 1.43048 0
M  V30 3318 H 295.143 -3.18951 2.68935 0
M  V30 3319 H 293.773 -2.79242 1.61938 0
M  V30 3320 H 292.825 -1.34458 3.55844 0
M  V30 3321 H 294.137 -1.96661 4.58395 0
M  V30 3322 H 293.291 -4.30233 4.27767 0
M  V30 3323 H 292.03 -3.71904 3.15498 0
M  V30 3324 H 291.035 -2.31827 4.98534 0
M  V30 3325 H 292.26 -2.93103 6.12591 0
M  V30 3326 H 290.206 -4.6241 4.6531 0
M  V30 3327 H 290.123 -4.1511 6.31838 0
M  V30 3328 H 291.391 -5.21723 5.7916 0
M  V30 3329 N 295.62 -1.53406 -0.361157 0
M  V30 3330 C 297.031 -1.61442 -0.937728 0
M  V30 3331 C 297.382 -0.48461 -1.90121 0
M  V30 3332 O 296.507 0.388312 -2.12888 0
M  V30 3333 C 297.102 -2.92624 -1.70753 0
M  V30 3334 C 295.661 -3.02981 -2.23337 0
M  V30 3335 C 294.808 -2.5677 -1.04712 0
M  V30 3336 H 297.759 -1.58083 -0.139816 0
M  V30 3337 H 297.78 -2.80675 -2.56908 0
M  V30 3338 H 297.292 -3.74834 -1.00604 0
M  V30 3339 H 295.393 -2.25368 -2.96715 0
M  V30 3340 H 295.506 -4.0814 -2.50916 0
M  V30 3341 H 293.87 -2.11752 -1.41539 0
M  V30 3342 H 294.653 -3.41402 -0.360539 0
M  V30 3343 N 297.098 0.621204 -1.44841 0
M  V30 3344 C 298.028 1.74366 -1.55303 0
M  V30 3345 C 299.009 1.65199 -0.405385 0
M  V30 3346 O 300.194 1.83807 -0.626787 0
M  V30 3347 C 297.324 3.12931 -1.50637 0
M  V30 3348 C 296.278 3.36896 -2.63979 0
M  V30 3349 C 295.604 4.75594 -2.44366 0
M  V30 3350 C 296.904 3.28483 -4.06074 0
M  V30 3351 H 298.598 1.65867 -2.49256 0
M  V30 3352 H 296.144 0.796558 -1.19962 0
M  V30 3353 H 298.097 3.9124 -1.56555 0
M  V30 3354 H 296.821 3.22237 -0.532057 0
M  V30 3355 H 295.48 2.60972 -2.57467 0
M  V30 3356 H 295.128 4.81616 -1.45105 0
M  V30 3357 H 294.828 4.92586 -3.20364 0
M  V30 3358 H 296.352 5.5612 -2.52117 0
M  V30 3359 H 297.766 3.96684 -4.13902 0
M  V30 3360 H 296.163 3.57008 -4.82354 0
M  V30 3361 H 297.233 2.26133 -4.28943 0
M  V30 3362 N 298.576 1.31904 0.862503 0
M  V30 3363 C 299.987 1.19803 1.43193 0
M  V30 3364 C 300.338 -0.192567 1.95253 0
M  V30 3365 O 299.463 -1.09081 1.86896 0
M  V30 3366 C 300.058 2.16883 2.60283 0
M  V30 3367 C 298.617 2.08692 3.13248 0
M  V30 3368 C 297.764 2.05691 1.85975 0
M  V30 3369 H 300.715 1.43846 0.670365 0
M  V30 3370 H 300.736 1.76278 3.37204 0
M  V30 3371 H 300.248 3.18083 2.22363 0
M  V30 3372 H 298.349 1.10713 3.55771 0
M  V30 3373 H 298.462 2.9815 3.75025 0
M  V30 3374 H 296.826 1.50814 2.05249 0
M  V30 3375 H 297.609 3.08659 1.50282 0
M  V30 3376 N 300.054 -1.07777 1.14986 0
M  V30 3377 C 301.465 -1.61766 0.932127 0
M  V30 3378 C 301.816 -1.88974 -0.527581 0
M  V30 3379 O 300.941 -1.65198 -1.39781 0
M  V30 3380 C 301.536 -2.93891 1.68563 0
M  V30 3381 C 300.095 -3.44639 1.5133 0
M  V30 3382 C 299.242 -2.18767 1.704 0
M  V30 3383 H 302.193 -0.909201 1.30074 0
M  V30 3384 H 302.214 -3.62623 1.15259 0
M  V30 3385 H 301.726 -2.74057 2.74799 0
M  V30 3386 H 299.827 -3.69564 0.474702 0
M  V30 3387 H 299.94 -4.20966 2.28746 0
M  V30 3388 H 298.304 -2.28253 1.13016 0
M  V30 3389 H 299.087 -2.01433 2.77992 0
M  V30 3390 N 301.532 -0.945985 -1.26051 0
M  V30 3391 C 302.442 -0.465633 -2.29933 0
M  V30 3392 C 303.458 0.462761 -1.67733 0
M  V30 3393 O 304.634 0.341118 -1.9849 0
M  V30 3394 C 301.699 0.256994 -3.45746 0
M  V30 3395 C 300.76 -0.708549 -4.23412 0
M  V30 3396 C 299.993 -0.0203135 -5.33696 0
M  V30 3397 O 300.216 1.19571 -5.57726 0
M  V30 3398 O 299.15 -0.701459 -5.97799 0
M  V30 3399 H 302.976 -1.32866 -2.73094 0
M  V30 3400 H 300.561 -0.712071 -1.31339 0
M  V30 3401 H 302.443 0.663852 -4.16138 0
M  V30 3402 H 301.118 1.09533 -3.04605 0
M  V30 3403 H 300.025 -1.16545 -3.55483 0
M  V30 3404 H 301.358 -1.51465 -4.68315 0
M  V30 3405 N 303.011 1.40521 -0.713556 0
M  V30 3406 C 304.422 1.83853 -0.324807 0
M  V30 3407 C 304.773 1.59667 1.14021 0
M  V30 3408 O 303.898 1.07649 1.87725 0
M  V30 3409 C 304.493 3.33751 -0.582746 0
M  V30 3410 C 303.052 3.75584 -0.247727 0
M  V30 3411 C 302.199 2.63753 -0.856121 0
M  V30 3412 H 305.15 1.29817 -0.91286 0
M  V30 3413 H 305.171 3.80194 0.152682 0
M  V30 3414 H 304.683 3.51322 -1.64908 0
M  V30 3415 H 302.784 3.63608 0.813624 0
M  V30 3416 H 302.897 4.7373 -0.715307 0
M  V30 3417 H 301.261 2.53108 -0.28432 0
M  V30 3418 H 302.044 2.84137 -1.92668 0
M  V30 3419 N 304.489 0.459591 1.5075 0
M  V30 3420 C 305.452 -0.329093 2.26825 0
M  V30 3421 C 306.452 -0.930481 1.31144 0
M  V30 3422 O 307.642 -0.801453 1.54669 0
M  V30 3423 C 304.774 -1.46768 3.07688 0
M  V30 3424 H 305.967 0.337924 2.9799 0
M  V30 3425 H 303.52 0.213336 1.54837 0
M  V30 3426 H 304.255 -2.17009 2.40993 0
M  V30 3427 H 304.04 -1.04238 3.77991 0
M  V30 3428 H 305.53 -2.02433 3.65254 0
M  V30 3429 N 305.967 -1.56429 0.191757 0
M  V30 3430 C 306.93 -2.17707 -0.716688 0
M  V30 3431 C 307.93 -1.13061 -1.14341 0
M  V30 3432 O 309.12 -1.38464 -1.05704 0
M  V30 3433 C 306.252 -2.77644 -1.97804 0
M  V30 3434 H 307.445 -2.99342 -0.1829 0
M  V30 3435 H 304.998 -1.56193 -0.0578566 0
M  V30 3436 H 305.733 -1.99799 -2.55443 0
M  V30 3437 H 305.518 -3.54246 -1.68083 0
M  V30 3438 H 307.008 -3.24708 -2.62592 0
M  V30 3439 N 307.445 0.0818655 -1.57387 0
M  V30 3440 C 308.408 1.08265 -2.02018 0
M  V30 3441 C 309.408 1.32183 -0.915664 0
M  V30 3442 O 310.598 1.28073 -1.18081 0
M  V30 3443 C 307.73 2.42871 -2.39221 0
M  V30 3444 H 308.923 0.698204 -2.91659 0
M  V30 3445 H 306.476 0.327303 -1.52835 0
M  V30 3446 H 307.211 2.86167 -1.52575 0
M  V30 3447 H 306.996 2.26855 -3.19811 0
M  V30 3448 H 308.486 3.14826 -2.74362 0
M  V30 3449 N 308.923 1.53595 0.353017 0
M  V30 3450 C 310.334 1.61937 0.929153 0
M  V30 3451 C 310.685 0.494686 1.89861 0
M  V30 3452 O 309.81 -0.377017 2.1309 0
M  V30 3453 C 310.405 2.93526 1.69199 0
M  V30 3454 C 308.964 3.04161 2.21727 0
M  V30 3455 C 308.111 2.57322 1.03348 0
M  V30 3456 H 311.062 1.58155 0.131431 0
M  V30 3457 H 311.083 2.82034 2.55416 0
M  V30 3458 H 310.595 3.75362 0.986144 0
M  V30 3459 H 308.696 2.26938 2.95516 0
M  V30 3460 H 308.809 4.09465 2.48748 0
M  V30 3461 H 307.173 2.12499 1.40414 0
M  V30 3462 H 307.956 3.41588 0.342428 0
M  V30 3463 N 310.401 -0.613514 1.45168 0
M  V30 3464 C 311.647 -1.37471 1.49096 0
M  V30 3465 C 311.98 -1.93765 0.129901 0
M  V30 3466 O 311.255 -1.74707 -0.854858 0
M  V30 3467 C 311.538 -2.52701 2.56542 0
M  V30 3468 C 311.391 -2.01643 4.0207 0
M  V30 3469 C 312.71 -3.54849 2.60327 0
M  V30 3470 H 309.829 -0.498502 0.54283 0
M  V30 3471 H 312.471 -0.692125 1.76945 0
M  V30 3472 H 310.621 -3.10931 2.32926 0
M  V30 3473 H 312.293 -1.48108 4.36877 0
M  V30 3474 H 310.536 -1.32688 4.13009 0
M  V30 3475 H 311.207 -2.84681 4.72928 0
M  V30 3476 H 313.683 -3.0645 2.81474 0
M  V30 3477 H 312.559 -4.32973 3.37381 0
M  V30 3478 H 312.82 -4.10079 1.6519 0
M  V30 3479 N 311.879 -1.3236 -0.855495 0
M  V30 3480 C 313.104 -1.2601 -1.64731 0
M  V30 3481 C 313.529 0.169068 -1.87339 0
M  V30 3482 O 312.887 1.12016 -1.42556 0
M  V30 3483 C 312.935 -2.02417 -2.98429 0
M  V30 3484 O 312.039 -1.3714 -3.8893 0
M  V30 3485 H 311.38 -0.434325 -0.502253 0
M  V30 3486 H 313.91 -1.74661 -1.06558 0
M  V30 3487 H 313.92 -2.12559 -3.48257 0
M  V30 3488 H 312.595 -3.06343 -2.81295 0
M  V30 3489 H 311.172 -1.3554 -3.47395 0
M  V30 3490 N 313.357 1.07166 -1.15556 0
M  V30 3491 C 314.585 1.83514 -0.955519 0
M  V30 3492 C 315 1.82163 0.49621 0
M  V30 3493 O 314.357 1.23441 1.34419 0
M  V30 3494 C 314.408 3.30515 -1.46432 0
M  V30 3495 O 314.129 3.31937 -2.85918 0
M  V30 3496 C 315.63 4.23625 -1.30603 0
M  V30 3497 H 312.85 0.578926 -0.339244 0
M  V30 3498 H 315.394 1.35265 -1.53374 0
M  V30 3499 H 313.549 3.76106 -0.928584 0
M  V30 3500 H 313.963 4.23794 -3.09029 0
M  V30 3501 H 315.437 5.24831 -1.71047 0
M  V30 3502 H 315.914 4.38485 -0.250441 0
M  V30 3503 H 316.52 3.83871 -1.83094 0
M  V30 3504 N 314.835 0.952656 1.25548 0
M  V30 3505 C 316.06 0.623025 1.97821 0
M  V30 3506 C 316.485 -0.7976 1.70352 0
M  V30 3507 O 315.843 -1.53905 0.958283 0
M  V30 3508 C 315.891 0.885532 3.49558 0
M  V30 3509 O 314.995 -0.0366641 4.12384 0
M  V30 3510 H 314.336 0.237082 0.620232 0
M  V30 3511 H 316.866 1.27871 1.59719 0
M  V30 3512 H 316.876 0.811009 3.99858 0
M  V30 3513 H 315.551 1.92094 3.6888 0
M  V30 3514 H 314.128 0.0898954 3.72792 0
M  V30 3515 N 316.313 -1.40141 0.720998 0
M  V30 3516 C 317.223 -2.34486 0.0731031 0
M  V30 3517 C 318.239 -1.57587 -0.737723 0
M  V30 3518 O 319.415 -1.89949 -0.669429 0
M  V30 3519 C 316.48 -3.36528 -0.833656 0
M  V30 3520 C 315.541 -4.29298 -0.0121673 0
M  V30 3521 C 314.774 -5.26466 -0.875742 0
M  V30 3522 O 314.997 -5.29745 -2.11485 0
M  V30 3523 O 313.931 -6.01092 -0.31185 0
M  V30 3524 H 317.757 -2.9152 0.851444 0
M  V30 3525 H 315.342 -1.41427 0.481527 0
M  V30 3526 H 317.224 -3.99093 -1.35289 0
M  V30 3527 H 315.899 -2.81899 -1.59105 0
M  V30 3528 H 314.806 -3.70001 0.552262 0
M  V30 3529 H 316.139 -4.87094 0.707129 0
M  V30 3530 N 317.792 -0.46758 -1.50504 0
M  V30 3531 C 318.722 0.318381 -2.31319 0
M  V30 3532 C 319.703 0.993564 -1.38066 0
M  V30 3533 O 320.888 0.991411 -1.66987 0
M  V30 3534 C 318.018 1.40275 -3.17711 0
M  V30 3535 C 316.972 0.849373 -4.19487 0
M  V30 3536 C 316.298 2.03177 -4.94594 0
M  V30 3537 C 317.598 -0.136942 -5.2212 0
M  V30 3538 H 319.292 -0.356106 -2.97275 0
M  V30 3539 H 316.838 -0.172703 -1.42961 0
M  V30 3540 H 318.791 1.96004 -3.73042 0
M  V30 3541 H 317.515 2.10596 -2.49634 0
M  V30 3542 H 316.174 0.314076 -3.65252 0
M  V30 3543 H 315.822 2.72187 -4.22993 0
M  V30 3544 H 315.522 1.66774 -5.63436 0
M  V30 3545 H 317.046 2.59403 -5.52759 0
M  V30 3546 H 318.46 0.331056 -5.72343 0
M  V30 3547 H 316.857 -0.41507 -5.98663 0
M  V30 3548 H 317.927 -1.06398 -4.73083 0
M  V30 3549 N 319.27 1.56325 -0.20005 0
M  V30 3550 C 320.217 2.1932 0.718833 0
M  V30 3551 C 321.187 1.14198 1.20615 0
M  V30 3552 O 322.372 1.42469 1.26914 0
M  V30 3553 C 319.512 2.86041 1.93066 0
M  V30 3554 C 318.625 4.05702 1.48425 0
M  V30 3555 C 317.76 4.60266 2.65196 0
M  V30 3556 C 316.799 5.72273 2.17185 0
M  V30 3557 N 315.936 6.21221 3.27152 0
M  V30 3558 H 320.776 2.97486 0.17489 0
M  V30 3559 H 318.313 1.46911 0.0745794 0
M  V30 3560 H 320.271 3.22897 2.64184 0
M  V30 3561 H 318.901 2.1043 2.44783 0
M  V30 3562 H 317.953 3.74475 0.668755 0
M  V30 3563 H 319.265 4.86699 1.09204 0
M  V30 3564 H 318.419 4.99453 3.4443 0
M  V30 3565 H 317.158 3.78386 3.07693 0
M  V30 3566 H 316.163 5.3261 1.36407 0
M  V30 3567 H 317.388 6.55974 1.75713 0
M  V30 3568 H 315.334 5.42263 3.69171 0
M  V30 3569 H 315.251 6.97284 2.92116 0
M  V30 3570 H 316.519 6.65063 4.06585 0
M  V30 3571 N 320.748 -0.0735177 1.57428 0
M  V30 3572 C 321.695 -1.08756 2.0357 0
M  V30 3573 C 322.665 -1.38559 0.916 0
M  V30 3574 O 323.85 -1.49656 1.18354 0
M  V30 3575 C 320.99 -2.39657 2.48311 0
M  V30 3576 C 320.103 -2.16399 3.73892 0
M  V30 3577 C 319.238 -3.40852 4.07423 0
M  V30 3578 C 318.277 -3.1295 5.2605 0
M  V30 3579 N 317.414 -4.29729 5.55228 0
M  V30 3580 H 322.254 -0.687104 2.8997 0
M  V30 3581 H 319.791 -0.327709 1.43403 0
M  V30 3582 H 321.749 -3.16081 2.72303 0
M  V30 3583 H 320.379 -2.77508 1.64891 0
M  V30 3584 H 319.431 -1.30676 3.57251 0
M  V30 3585 H 320.743 -1.91788 4.60455 0
M  V30 3586 H 319.897 -4.25671 4.32306 0
M  V30 3587 H 318.636 -3.68537 3.19425 0
M  V30 3588 H 317.641 -2.26526 5.00965 0
M  V30 3589 H 318.866 -2.86589 6.15665 0
M  V30 3590 H 316.812 -4.57448 4.70188 0
M  V30 3591 H 316.729 -4.08385 6.36206 0
M  V30 3592 H 317.997 -5.1555 5.84661 0
M  V30 3593 N 322.226 -1.5378 -0.344866 0
M  V30 3594 C 323.472 -1.71216 -1.08687 0
M  V30 3595 C 323.805 -0.473281 -1.88345 0
M  V30 3596 O 323.08 0.52968 -1.87149 0
M  V30 3597 C 323.363 -2.97486 -2.02914 0
M  V30 3598 C 323.216 -4.31579 -1.26727 0
M  V30 3599 C 324.535 -3.19422 -3.0275 0
M  V30 3600 H 321.654 -0.62301 -0.393735 0
M  V30 3601 H 324.296 -1.8645 -0.365563 0
M  V30 3602 H 322.446 -2.84629 -2.64421 0
M  V30 3603 H 324.118 -4.56284 -0.67845 0
M  V30 3604 H 322.361 -4.30049 -0.569273 0
M  V30 3605 H 323.032 -5.16106 -1.95803 0
M  V30 3606 H 325.508 -3.316 -2.51357 0
M  V30 3607 H 324.384 -4.09169 -3.65885 0
M  V30 3608 H 324.645 -2.35656 -3.74057 0
M  V30 3609 N 323.704 0.605807 -1.45491 0
M  V30 3610 C 324.95 1.36679 -1.49823 0
M  V30 3611 C 325.283 1.93693 -0.140175 0
M  V30 3612 O 324.558 1.75158 0.845581 0
M  V30 3613 C 324.841 2.51337 -2.57879 0
M  V30 3614 C 324.694 1.99508 -4.03134 0
M  V30 3615 C 326.013 3.53463 -2.62205 0
M  V30 3616 H 323.132 0.495617 -0.545466 0
M  V30 3617 H 325.774 0.682732 -1.7731 0
M  V30 3618 H 323.924 3.09691 -2.34571 0
M  V30 3619 H 325.596 1.45789 -4.37656 0
M  V30 3620 H 323.839 1.30496 -4.13707 0
M  V30 3621 H 324.51 2.82169 -4.74431 0
M  V30 3622 H 326.986 3.04953 -2.83095 0
M  V30 3623 H 325.862 4.31178 -3.39672 0
M  V30 3624 H 326.123 4.09197 -1.67363 0
M  V30 3625 N 325.182 1.32811 0.848464 0
M  V30 3626 C 326.145 1.22194 1.9391 0
M  V30 3627 C 327.145 0.143404 1.60159 0
M  V30 3628 O 328.335 0.394253 1.6968 0
M  V30 3629 C 325.467 0.88067 3.29328 0
M  V30 3630 H 326.66 2.19127 2.04752 0
M  V30 3631 H 324.213 1.16731 1.0394 0
M  V30 3632 H 324.948 -0.0865776 3.24184 0
M  V30 3633 H 324.733 1.66052 3.55203 0
M  V30 3634 H 326.223 0.830871 4.09251 0
M  V30 3635 N 326.66 -1.06551 1.16123 0
M  V30 3636 C 327.59 -2.15935 0.88851 0
M  V30 3637 C 328.571 -1.69306 -0.164135 0
M  V30 3638 O 329.756 -1.94193 -0.0167857 0
M  V30 3639 C 326.886 -3.45149 0.385942 0
M  V30 3640 C 325.84 -4.05271 1.3762 0
M  V30 3641 C 325.166 -5.29664 0.732137 0
M  V30 3642 C 326.466 -4.44355 2.74493 0
M  V30 3643 H 328.16 -2.39006 1.80323 0
M  V30 3644 H 325.706 -1.14866 0.868435 0
M  V30 3645 H 327.659 -4.21004 0.182647 0
M  V30 3646 H 326.383 -3.21689 -0.564274 0
M  V30 3647 H 325.042 -3.3147 1.56599 0
M  V30 3648 H 324.69 -5.02499 -0.224483 0
M  V30 3649 H 324.39 -5.70848 1.39307 0
M  V30 3650 H 325.914 -6.08218 0.538802 0
M  V30 3651 H 327.328 -5.11303 2.59311 0
M  V30 3652 H 325.725 -4.96515 3.37035 0
M  V30 3653 H 326.795 -3.55339 3.29943 0
M  V30 3654 N 328.138 -0.959301 -1.25041 0
M  V30 3655 C 329.368 -0.63303 -1.96663 0
M  V30 3656 C 329.776 0.800031 -1.71453 0
M  V30 3657 O 329.119 1.54736 -0.99008 0
M  V30 3658 C 329.181 -0.817523 -3.50081 0
M  V30 3659 C 328.845 -2.22863 -3.98975 0
M  V30 3660 C 329.842 -3.20569 -4.09306 0
M  V30 3661 C 327.527 -2.55407 -4.32519 0
M  V30 3662 C 329.521 -4.4891 -4.52503 0
M  V30 3663 C 327.208 -3.83976 -4.754 0
M  V30 3664 C 328.206 -4.8054 -4.85356 0
M  V30 3665 O 327.894 -6.06817 -5.27284 0
M  V30 3666 H 327.626 -0.235866 -0.633516 0
M  V30 3667 H 330.18 -1.2874 -1.60047 0
M  V30 3668 H 328.41 -0.105992 -3.86555 0
M  V30 3669 H 330.099 -0.491604 -4.02912 0
M  V30 3670 H 330.865 -2.96753 -3.83618 0
M  V30 3671 H 326.744 -1.8097 -4.23994 0
M  V30 3672 H 330.288 -5.24283 -4.60188 0
M  V30 3673 H 326.185 -4.07596 -5.00535 0
M  V30 3674 H 326.953 -6.10262 -5.45457 0
M  V30 3675 N 329.616 1.39756 -0.72842 0
M  V30 3676 C 330.893 1.94574 -0.200079 0
M  V30 3677 C 331.273 1.66569 1.29684 0
M  V30 3678 O 330.621 0.990326 2.05924 0
M  V30 3679 C 330.831 3.45004 -0.526608 0
M  V30 3680 C 332.179 4.21965 -0.472318 0
M  V30 3681 O 333.203 3.53173 -0.463413 0
M  V30 3682 O 332.062 5.44552 -0.461075 0
M  V30 3683 H 329.156 0.826289 -0.0342851 0
M  V30 3684 H 331.702 1.49293 -0.806829 0
M  V30 3685 H 330.474 3.58796 -1.56144 0
M  V30 3686 H 330.097 3.97449 0.109449 0
M  V30 3687 N 331.094 0.475555 1.50254 0
M  V30 3688 C 332.324 -0.0753399 2.06463 0
M  V30 3689 C 332.732 -1.33661 1.33908 0
M  V30 3690 O 332.075 -1.79219 0.403257 0
M  V30 3691 C 332.137 -0.424921 3.5698 0
M  V30 3692 C 331.801 0.734965 4.51051 0
M  V30 3693 C 332.798 1.61827 4.94073 0
M  V30 3694 C 330.483 0.926557 4.9368 0
M  V30 3695 C 332.477 2.67754 5.78434 0
M  V30 3696 C 330.164 1.98904 5.77824 0
M  V30 3697 C 331.162 2.8629 6.20103 0
M  V30 3698 O 330.85 3.90708 7.02568 0
M  V30 3699 H 330.582 0.00576308 0.675975 0
M  V30 3700 H 333.136 0.664662 1.94349 0
M  V30 3701 H 331.366 -1.21817 3.67012 0
M  V30 3702 H 333.055 -0.911422 3.95535 0
M  V30 3703 H 333.821 1.48196 4.61804 0
M  V30 3704 H 329.7 0.25584 4.6029 0
M  V30 3705 H 333.244 3.35992 6.11355 0
M  V30 3706 H 329.141 2.12541 6.09505 0
M  V30 3707 H 329.909 3.87751 7.20827 0
M  V30 3708 N 332.573 -1.56217 0.208337 0
M  V30 3709 C 333.506 -2.15633 -0.746842 0
M  V30 3710 C 334.484 -1.09685 -1.20034 0
M  V30 3711 O 335.668 -1.3787 -1.28547 0
M  V30 3712 C 332.795 -2.72594 -2.01023 0
M  V30 3713 C 331.841 -3.91251 -1.69779 0
M  V30 3714 S 332.674 -5.28962 -0.834209 0
M  V30 3715 C 333.83 -5.89353 -2.10745 0
M  V30 3716 H 334.063 -2.96315 -0.241789 0
M  V30 3717 H 331.596 -1.54398 -0.00682183 0
M  V30 3718 H 333.554 -3.06053 -2.73572 0
M  V30 3719 H 332.215 -1.91929 -2.48641 0
M  V30 3720 H 331.408 -4.29562 -2.63614 0
M  V30 3721 H 331.01 -3.58869 -1.05303 0
M  V30 3722 H 333.302 -6.04522 -3.05875 0
M  V30 3723 H 334.245 -6.85661 -1.76845 0
M  V30 3724 H 334.653 -5.1807 -2.24196 0
M  V30 3725 N 334.051 0.0651679 -1.57465 0
M  V30 3726 C 335.462 0.616213 -1.76238 0
M  V30 3727 C 335.813 1.7756 -0.834689 0
M  V30 3728 O 334.938 2.1639 -0.0204156 0
M  V30 3729 C 335.533 1.12462 -3.1959 0
M  V30 3730 C 334.092 1.62147 -3.39684 0
M  V30 3731 C 333.239 0.543739 -2.71917 0
M  V30 3732 H 336.19 -0.161022 -1.57881 0
M  V30 3733 H 336.211 1.99324 -3.24114 0
M  V30 3734 H 335.723 0.280592 -3.87084 0
M  V30 3735 H 333.824 2.48854 -2.77313 0
M  V30 3736 H 333.937 1.69385 -4.48158 0
M  V30 3737 H 332.301 0.990352 -2.34657 0
M  V30 3738 H 333.084 -0.290216 -3.42071 0
M  V30 3739 N 335.529 1.53961 0.336706 0
M  V30 3740 C 336.462 1.77255 1.43722 0
M  V30 3741 C 337.44 0.62193 1.50236 0
M  V30 3742 O 338.624 0.857874 1.67847 0
M  V30 3743 C 335.751 1.87733 2.81912 0
M  V30 3744 C 334.797 3.09933 2.92991 0
M  V30 3745 S 335.63 4.68836 2.58753 0
M  V30 3746 C 336.786 4.82202 3.99039 0
M  V30 3747 H 337.019 2.70322 1.23748 0
M  V30 3748 H 334.552 1.44917 0.532777 0
M  V30 3749 H 336.51 1.94455 3.61521 0
M  V30 3750 H 335.171 0.956666 2.99177 0
M  V30 3751 H 334.364 3.1396 3.94265 0
M  V30 3752 H 333.966 3.01472 2.21338 0
M  V30 3753 H 336.258 4.64032 4.9364 0
M  V30 3754 H 337.201 5.84298 4.00002 0
M  V30 3755 H 337.609 4.10604 3.87382 0
M  V30 3756 N 337.007 -0.598083 1.45811 0
M  V30 3757 C 337.955 -1.72932 1.55555 0
M  V30 3758 C 338.949 -1.63984 0.424921 0
M  V30 3759 O 340.155 -1.69663 0.601205 0
M  V30 3760 H 336.53 -0.571489 0.488779 0
M  V30 3761 H 338.501 -1.61842 2.50699 0
M  V30 3762 C 337.25 -3.11318 1.54843 0
M  V30 3763 H 336.573 -3.18867 2.41172 0
M  V30 3764 H 338.013 -3.90274 1.65717 0
M  V30 3765 C 336.472 -3.3578 0.274427 0
M  V30 3766 O 337.002 -3.9654 -0.641778 0
M  V30 3767 N 335.208 -2.90119 0.167139 0
M  V30 3768 H 334.755 -2.40855 0.913596 0
M  V30 3769 H 334.713 -3.0686 -0.684435 0
M  V30 3770 N 338.485 -1.33259 -0.841409 0
M  V30 3771 C 339.448 -1.23221 -1.9326 0
M  V30 3772 C 340.448 -0.151895 -1.60081 0
M  V30 3773 O 341.638 -0.403246 -1.69468 0
M  V30 3774 C 338.77 -0.898123 -3.28856 0
M  V30 3775 H 339.963 -2.2021 -2.03587 0
M  V30 3776 H 337.516 -1.17281 -1.03319 0
M  V30 3777 H 338.251 0.0693841 -3.24226 0
M  V30 3778 H 338.036 -1.67934 -3.54317 0
M  V30 3779 H 339.526 -0.852563 -4.08805 0
M  V30 3780 N 339.963 1.05934 -1.16686 0
M  V30 3781 C 340.911 2.15603 -0.872817 0
M  V30 3782 C 341.905 1.68647 0.159576 0
M  V30 3783 O 343.111 1.79995 0.0132125 0
M  V30 3784 H 339.486 0.703885 -0.264671 0
M  V30 3785 H 341.457 2.37613 -1.80507 0
M  V30 3786 C 340.206 3.45457 -0.394344 0
M  V30 3787 H 339.529 3.81984 -1.18019 0
M  V30 3788 H 340.969 4.2339 -0.227408 0
M  V30 3789 C 339.428 3.25021 0.88673 0
M  V30 3790 O 339.958 3.50906 1.95519 0
M  V30 3791 N 338.164 2.78437 0.831925 0
M  V30 3792 H 337.711 2.57572 -0.0377619 0
M  V30 3793 H 337.669 2.65144 1.68956 0
M  V30 3794 N 341.441 0.965919 1.2453 0
M  V30 3795 C 342.718 0.543777 1.87889 0
M  V30 3796 C 343.098 -0.97909 1.87021 0
M  V30 3797 O 342.446 -1.84969 1.3416 0
M  V30 3798 C 342.656 1.13327 3.30088 0
M  V30 3799 C 344.004 1.21707 4.06783 0
M  V30 3800 O 345.028 1.08566 3.39252 0
M  V30 3801 O 343.887 1.42456 5.27606 0
M  V30 3802 H 340.981 0.181054 0.806938 0
M  V30 3803 H 343.527 1.06007 1.32516 0
M  V30 3804 H 342.299 2.17612 3.25209 0
M  V30 3805 H 341.922 0.600911 3.93033 0
M  V30 3806 N 342.919 -1.39368 0.735821 0
M  V30 3807 C 343.849 -2.33234 0.111506 0
M  V30 3808 C 344.83 -1.53954 -0.723334 0
M  V30 3809 O 346.015 -1.82344 -0.668147 0
M  V30 3810 C 343.145 -3.38057 -0.795917 0
M  V30 3811 C 342.099 -4.2795 -0.065172 0
M  V30 3812 C 341.425 -5.23479 -1.08967 0
M  V30 3813 C 342.725 -5.10741 1.09273 0
M  V30 3814 H 344.419 -2.85692 0.895571 0
M  V30 3815 H 341.965 -1.37364 0.432109 0
M  V30 3816 H 343.918 -4.02675 -1.24221 0
M  V30 3817 H 342.642 -2.8404 -1.61211 0
M  V30 3818 H 341.301 -3.64813 0.361511 0
M  V30 3819 H 340.949 -4.65758 -1.89944 0
M  V30 3820 H 340.649 -5.84472 -0.605489 0
M  V30 3821 H 342.173 -5.90974 -1.53565 0
M  V30 3822 H 343.587 -5.68699 0.724841 0
M  V30 3823 H 341.984 -5.8088 1.50659 0
M  V30 3824 H 343.054 -4.45525 1.91404 0
M  V30 3825 N 344.397 -0.483516 -1.5 0
M  V30 3826 C 345.329 0.340634 -2.26655 0
M  V30 3827 C 346.342 0.946152 -1.32483 0
M  V30 3828 O 347.531 0.832453 -1.579 0
M  V30 3829 C 344.631 1.4929 -3.04246 0
M  V30 3830 C 343.804 0.997903 -4.25865 0
M  V30 3831 C 342.863 2.02569 -4.85646 0
M  V30 3832 O 341.889 1.60128 -5.46212 0
M  V30 3833 N 343.091 3.3548 -4.73744 0
M  V30 3834 H 345.856 -0.316577 -2.98023 0
M  V30 3835 H 343.417 -0.315024 -1.58806 0
M  V30 3836 H 345.409 2.17766 -3.41116 0
M  V30 3837 H 343.979 2.05458 -2.35597 0
M  V30 3838 H 343.199 0.138617 -3.93956 0
M  V30 3839 H 344.487 0.645305 -5.04691 0
M  V30 3840 H 343.885 3.72661 -4.25605 0
M  V30 3841 H 342.442 3.99718 -5.14848 0
M  V30 3842 N 345.875 1.56104 -0.216619 0
M  V30 3843 C 346.805 2.23063 0.690296 0
M  V30 3844 C 347.786 1.20072 1.20485 0
M  V30 3845 O 348.971 1.48643 1.24976 0
M  V30 3846 C 346.101 2.90672 1.90072 0
M  V30 3847 C 345.055 4.00092 1.5202 0
M  V30 3848 C 344.381 4.54972 2.80899 0
M  V30 3849 C 345.681 5.17398 0.71391 0
M  V30 3850 H 347.375 2.99109 0.132038 0
M  V30 3851 H 344.921 1.43866 0.0620664 0
M  V30 3852 H 346.874 3.36204 2.54057 0
M  V30 3853 H 345.598 2.12066 2.48386 0
M  V30 3854 H 344.257 3.55283 0.903839 0
M  V30 3855 H 343.905 3.73102 3.37348 0
M  V30 3856 H 343.605 5.28817 2.56176 0
M  V30 3857 H 345.129 5.0322 3.45836 0
M  V30 3858 H 346.543 5.59342 1.25735 0
M  V30 3859 H 344.94 5.97444 0.563951 0
M  V30 3860 H 346.01 4.84088 -0.280527 0
M  V30 3861 N 347.353 -0.0568162 1.57498 0
M  V30 3862 C 348.769 -0.411933 1.54192 0
M  V30 3863 C 348.969 -1.78287 0.938942 0
M  V30 3864 O 348.025 -2.46483 0.547919 0
M  V30 3865 C 349.338 -0.339244 2.9878 0
M  V30 3866 C 350.886 -0.418348 3.10192 0
M  V30 3867 C 351.361 -0.375407 4.56459 0
M  V30 3868 N 352.852 -0.435038 4.61153 0
M  V30 3869 C 353.587 -0.424265 5.71828 0
M  V30 3870 N 353.083 -0.367418 6.91825 0
M  V30 3871 N 354.876 -0.471938 5.60115 0
M  V30 3872 H 347.027 0.840684 1.95055 0
M  V30 3873 H 349.29 0.316987 0.893433 0
M  V30 3874 H 348.996 0.601742 3.46514 0
M  V30 3875 H 348.87 -1.14371 3.59443 0
M  V30 3876 H 351.257 -1.34976 2.62422 0
M  V30 3877 H 351.338 0.414962 2.52412 0
M  V30 3878 H 350.982 0.552219 5.04889 0
M  V30 3879 H 350.912 -1.22645 5.12119 0
M  V30 3880 H 353.403 -0.482612 3.74806 0
M  V30 3881 H 353.716 -0.363535 7.71944 0
M  V30 3882 H 352.061 -0.333879 6.94198 0
M  V30 3883 H 355.252 -0.514145 4.65268 0
M  V30 3884 H 355.425 -0.460073 6.46365 0
M  V30 3885 N 348.832 -1.54138 -0.328536 0
M  V30 3886 C 349.779 -1.83176 -1.40411 0
M  V30 3887 C 350.749 -0.678494 -1.5161 0
M  V30 3888 O 351.934 -0.92443 -1.6691 0
M  V30 3889 C 349.074 -2.06035 -2.76846 0
M  V30 3890 C 348.187 -3.33727 -2.74318 0
M  V30 3891 C 347.322 -3.46574 -4.02567 0
M  V30 3892 C 346.361 -4.68159 -3.94327 0
M  V30 3893 N 345.498 -4.77959 -5.14296 0
M  V30 3894 H 350.338 -2.74938 -1.14948 0
M  V30 3895 H 347.875 -1.36166 -0.556538 0
M  V30 3896 H 349.833 -2.1728 -3.56153 0
M  V30 3897 H 348.463 -1.1757 -3.00628 0
M  V30 3898 H 347.515 -3.31246 -1.8703 0
M  V30 3899 H 348.827 -4.23139 -2.64111 0
M  V30 3900 H 347.981 -3.57333 -4.90304 0
M  V30 3901 H 346.72 -2.55245 -4.15574 0
M  V30 3902 H 345.725 -4.57461 -3.04974 0
M  V30 3903 H 346.95 -5.60868 -3.82889 0
M  V30 3904 H 344.896 -3.89544 -5.27818 0
M  V30 3905 H 344.813 -5.6133 -5.06404 0
M  V30 3906 H 346.081 -4.93044 -6.03761 0
M  V30 3907 N 350.31 0.590341 -1.46126 0
M  V30 3908 C 351.558 1.34616 -1.50742 0
M  V30 3909 C 351.879 1.94363 -0.157486 0
M  V30 3910 O 351.149 1.78136 0.815136 0
M  V30 3911 H 349.729 0.499789 -0.555175 0
M  V30 3912 H 352.391 0.691953 -1.82203 0
M  V30 3913 H 351.487 2.15678 -2.25587 0
M  V30 3914 N 351.788 1.33704 0.83433 0
M  V30 3915 C 353.065 1.16011 1.57483 0
M  V30 3916 C 353.445 -0.27176 2.09343 0
M  V30 3917 O 352.793 -1.27146 1.89858 0
M  V30 3918 C 353.003 2.20507 2.70514 0
M  V30 3919 C 354.351 2.54898 3.39577 0
M  V30 3920 O 355.375 2.19209 2.80759 0
M  V30 3921 O 354.234 3.16158 4.45765 0
M  V30 3922 H 351.328 0.448992 0.694503 0
M  V30 3923 H 353.874 1.453 0.876691 0
M  V30 3924 H 352.646 3.16667 2.29865 0
M  V30 3925 H 352.269 1.92329 3.47987 0
M  V30 3926 N 353.266 -1.05314 1.17247 0
M  V30 3927 C 354.176 -2.16538 0.90268 0
M  V30 3928 C 355.192 -1.73523 -0.128707 0
M  V30 3929 O 356.368 -2.01337 0.0502701 0
M  V30 3930 C 353.433 -3.44167 0.418356 0
M  V30 3931 C 352.494 -4.01635 1.51618 0
M  V30 3932 C 351.727 -5.23171 1.05487 0
M  V30 3933 O 351.95 -5.70327 -0.0914715 0
M  V30 3934 O 350.884 -5.72848 1.8474 0
M  V30 3935 H 354.71 -2.42145 1.83302 0
M  V30 3936 H 352.295 -1.15037 0.953246 0
M  V30 3937 H 354.177 -4.21112 0.155726 0
M  V30 3938 H 352.852 -3.20063 -0.48385 0
M  V30 3939 H 351.759 -3.26135 1.83268 0
M  V30 3940 H 353.092 -4.30053 2.39405 0
M  V30 3941 N 354.744 -0.972509 -1.24016 0
M  V30 3942 C 355.974 -0.653853 -1.9598 0
M  V30 3943 C 356.382 0.781801 -1.72292 0
M  V30 3944 O 355.725 1.53677 -1.00644 0
M  V30 3945 C 355.787 -0.854608 -3.49194 0
M  V30 3946 C 355.451 -2.27082 -3.96589 0
M  V30 3947 C 356.448 -3.24892 -4.05883 0
M  V30 3948 C 354.133 -2.5998 -4.29786 0
M  V30 3949 C 356.127 -4.53684 -4.47716 0
M  V30 3950 C 353.814 -3.88997 -4.71301 0
M  V30 3951 C 354.812 -4.85661 -4.80232 0
M  V30 3952 O 354.5 -6.12376 -5.20818 0
M  V30 3953 H 354.232 -0.242572 -0.630979 0
M  V30 3954 H 356.786 -1.30431 -1.58673 0
M  V30 3955 H 355.016 -0.146985 -3.86421 0
M  V30 3956 H 356.705 -0.534311 -4.02368 0
M  V30 3957 H 357.471 -3.00805 -3.80449 0
M  V30 3958 H 353.35 -1.85457 -4.22051 0
M  V30 3959 H 356.894 -5.29135 -4.54601 0
M  V30 3960 H 352.791 -4.12882 -4.96184 0
M  V30 3961 H 353.559 -6.16013 -5.38953 0
M  V30 3962 N 356.222 1.38976 -0.743202 0
M  V30 3963 C 357.469 2.00343 -0.294752 0
M  V30 3964 C 357.797 1.58983 1.12047 0
M  V30 3965 O 357.052 0.813809 1.77977 0
M  V30 3966 C 357.351 3.55647 -0.353517 0
M  V30 3967 C 357.017 4.16685 -1.72292 0
M  V30 3968 C 355.679 4.3307 -2.09771 0
M  V30 3969 C 358.031 4.50464 -2.62168 0
M  V30 3970 C 355.359 4.80526 -3.36618 0
M  V30 3971 C 357.711 4.99332 -3.88395 0
M  V30 3972 C 356.375 5.13924 -4.25956 0
M  V30 3973 H 355.645 0.733108 -0.107857 0
M  V30 3974 H 358.292 1.6618 -0.951651 0
M  V30 3975 H 356.597 3.89884 0.386954 0
M  V30 3976 H 358.294 4.00998 0.0117269 0
M  V30 3977 H 354.884 4.04339 -1.42155 0
M  V30 3978 H 359.068 4.37416 -2.3448 0
M  V30 3979 H 354.324 4.90008 -3.65653 0
M  V30 3980 H 358.498 5.2444 -4.58187 0
M  V30 3981 H 356.125 5.50457 -5.2431 0
M  V30 3982 N 357.7 0.491464 1.49741 0
M  V30 3983 C 358.949 -0.0582189 2.01616 0
M  V30 3984 C 359.262 -1.38927 1.3769 0
M  V30 3985 O 360.468 -2.02509 1.80838 0
M  V30 3986 C 358.924 -0.154235 3.59569 0
M  V30 3987 C 358.532 1.1696 4.32463 0
M  V30 3988 C 360.276 -0.65479 4.1942 0
M  V30 3989 C 358.183 1.03627 5.8225 0
M  V30 3990 H 357.113 -0.0255317 0.753568 0
M  V30 3991 H 359.764 0.629445 1.72367 0
M  V30 3992 H 358.146 -0.906138 3.85493 0
M  V30 3993 H 359.32 1.93405 4.18248 0
M  V30 3994 H 357.635 1.60285 3.84315 0
M  V30 3995 H 360.232 -0.771903 5.29099 0
M  V30 3996 H 360.575 -1.65127 3.8215 0
M  V30 3997 H 361.108 0.040304 3.9778 0
M  V30 3998 H 357.847 2.00672 6.24028 0
M  V30 3999 H 357.367 0.312546 5.98985 0
M  V30 4000 H 359.046 0.711114 6.4308 0
M  V30 4001 N 359.178 -1.55987 0.224894 0
M  V30 4002 C 360.108 -2.23426 -0.678457 0
M  V30 4003 C 361.089 -1.20709 -1.19847 0
M  V30 4004 O 362.274 -1.49304 -1.24186 0
M  V30 4005 C 359.404 -2.91676 -1.88527 0
M  V30 4006 C 358.358 -4.00893 -1.49896 0
M  V30 4007 C 357.684 -4.56455 -2.78483 0
M  V30 4008 C 358.984 -5.17769 -0.686461 0
M  V30 4009 H 360.678 -2.99175 -0.116173 0
M  V30 4010 H 358.224 -1.43897 -0.054436 0
M  V30 4011 H 360.177 -3.37547 -2.5227 0
M  V30 4012 H 358.901 -2.1338 -2.47258 0
M  V30 4013 H 357.56 -3.55758 -0.884985 0
M  V30 4014 H 357.208 -3.74886 -3.35365 0
M  V30 4015 H 356.908 -5.30169 -2.53368 0
M  V30 4016 H 358.432 -5.05047 -3.43162 0
M  V30 4017 H 359.846 -5.60001 -1.22767 0
M  V30 4018 H 358.243 -5.97735 -0.532259 0
M  V30 4019 H 359.313 -4.83932 0.306196 0
M  V30 4020 N 360.656 0.0484629 -1.57525 0
M  V30 4021 C 361.566 1.07241 -2.08654 0
M  V30 4022 C 362.582 1.409 -1.02095 0
M  V30 4023 O 363.758 1.50609 -1.33712 0
M  V30 4024 C 360.823 2.36008 -2.5397 0
M  V30 4025 C 359.884 2.09108 -3.7493 0
M  V30 4026 C 359.117 3.31736 -4.18075 0
M  V30 4027 O 359.34 4.41714 -3.60895 0
M  V30 4028 O 358.274 3.18576 -5.10679 0
M  V30 4029 H 362.1 0.667965 -2.96263 0
M  V30 4030 H 359.685 0.26417 -1.47046 0
M  V30 4031 H 361.567 3.11747 -2.83535 0
M  V30 4032 H 360.242 2.75786 -1.69481 0
M  V30 4033 H 359.149 1.31 -3.50414 0
M  V30 4034 H 360.482 1.74198 -4.60343 0
M  V30 4035 N 362.134 1.5431 0.320358 0
M  V30 4036 C 363.044 1.86946 1.41734 0
M  V30 4037 C 364.06 0.761689 1.56443 0
M  V30 4038 O 365.236 1.05629 1.71477 0
M  V30 4039 C 362.301 2.09293 2.76401 0
M  V30 4040 C 361.362 3.33082 2.70841 0
M  V30 4041 C 360.595 3.54353 3.99086 0
M  V30 4042 O 360.818 2.79002 4.97508 0
M  V30 4043 O 359.752 4.47838 4.0215 0
M  V30 4044 H 363.578 2.80232 1.17062 0
M  V30 4045 H 361.163 1.40255 0.514673 0
M  V30 4046 H 363.045 2.25303 3.56113 0
M  V30 4047 H 361.72 1.19194 3.00956 0
M  V30 4048 H 360.627 3.22454 1.89668 0
M  V30 4049 H 361.96 4.23249 2.5124 0
M  V30 4050 N 363.613 -0.582584 1.46437 0
M  V30 4051 C 364.838 -1.37168 1.55563 0
M  V30 4052 C 365.263 -1.87061 0.19743 0
M  V30 4053 O 364.621 -1.61572 -0.822451 0
M  V30 4054 C 364.669 -2.53511 2.56446 0
M  V30 4055 O 363.773 -3.54953 2.09958 0
M  V30 4056 H 363.114 -0.408494 0.523477 0
M  V30 4057 H 365.644 -0.706646 1.9201 0
M  V30 4058 H 365.654 -3.00426 2.76058 0
M  V30 4059 H 364.329 -2.16549 3.55076 0
M  V30 4060 H 362.906 -3.14516 2.00334 0
M  V30 4061 N 365.091 -1.34144 -0.827227 0
M  V30 4062 C 366.039 -1.25364 -1.95925 0
M  V30 4063 C 367.033 -0.152608 -1.68711 0
M  V30 4064 O 368.239 -0.317311 -1.77181 0
M  V30 4065 H 364.614 -0.389342 -0.643364 0
M  V30 4066 H 366.585 -2.21045 -2.00454 0
M  V30 4067 C 365.334 -1.02158 -3.32354 0
M  V30 4068 H 364.657 -1.86111 -3.5384 0
M  V30 4069 H 366.097 -1.00048 -4.12027 0
M  V30 4070 C 364.556 0.275244 -3.35774 0
M  V30 4071 O 365.086 1.27806 -3.80826 0
M  V30 4072 N 363.292 0.306853 -2.88975 0
M  V30 4073 H 362.839 -0.509777 -2.52506 0
M  V30 4074 H 362.797 1.17432 -2.91646 0
M  V30 4075 N 366.569 1.04691 -1.17803 0
M  V30 4076 C 367.499 2.14494 -0.92275 0
M  V30 4077 C 368.48 1.69546 0.137179 0
M  V30 4078 O 369.665 1.94195 -0.0141108 0
M  V30 4079 C 366.795 3.44491 -0.440803 0
M  V30 4080 C 365.749 4.03031 -1.4405 0
M  V30 4081 C 365.075 5.28432 -0.81631 0
M  V30 4082 C 366.375 4.39932 -2.81527 0
M  V30 4083 H 368.069 2.36107 -1.84103 0
M  V30 4084 H 365.615 1.1347 -0.886599 0
M  V30 4085 H 367.568 4.2066 -0.249602 0
M  V30 4086 H 366.292 3.22546 0.513025 0
M  V30 4087 H 364.951 3.28937 -1.61853 0
M  V30 4088 H 364.599 5.02792 0.144511 0
M  V30 4089 H 364.299 5.68559 -1.48371 0
M  V30 4090 H 365.823 6.07284 -0.635496 0
M  V30 4091 H 367.237 5.07113 -2.67412 0
M  V30 4092 H 365.634 4.9109 -3.44892 0
M  V30 4093 H 366.704 3.50045 -3.35554 0
M  V30 4094 N 368.047 0.979072 1.23499 0
M  V30 4095 C 369.458 0.684391 1.73704 0
M  V30 4096 C 369.809 -0.799448 1.79174 0
M  V30 4097 O 368.934 -1.62531 1.42873 0
M  V30 4098 C 369.529 1.23564 3.15464 0
M  V30 4099 C 368.088 0.99063 3.6313 0
M  V30 4100 C 367.235 1.36416 2.41425 0
M  V30 4101 H 370.186 1.15307 1.09041 0
M  V30 4102 H 370.207 0.607417 3.7562 0
M  V30 4103 H 369.719 2.31561 3.1145 0
M  V30 4104 H 367.82 -0.0733136 3.72528 0
M  V30 4105 H 367.933 1.64427 4.5 0
M  V30 4106 H 366.297 0.782616 2.42378 0
M  V30 4107 H 367.08 2.45387 2.40083 0
M  V30 4108 N 369.525 -1.3858 0.750561 0
M  V30 4109 C 370.771 -2.0095 0.31477 0
M  V30 4110 C 371.126 -1.58509 -1.09053 0
M  V30 4111 O 370.419 -0.8112 -1.7358 0
M  V30 4112 C 370.613 -3.55455 0.372373 0
M  V30 4113 C 370.442 -4.12898 1.78173 0
M  V30 4114 C 369.212 -4.44797 2.39757 0
M  V30 4115 C 371.41 -4.35366 2.7379 0
M  V30 4116 N 369.392 -4.87831 3.72685 0
M  V30 4117 C 370.763 -4.80775 3.91478 0
M  V30 4118 C 372.818 -4.1746 2.71351 0
M  V30 4119 C 371.521 -5.10155 5.07084 0
M  V30 4120 C 373.547 -4.47963 3.86113 0
M  V30 4121 C 372.909 -4.93593 5.02539 0
M  V30 4122 H 369.008 -0.765083 0.161776 0
M  V30 4123 H 371.592 -1.68246 0.979867 0
M  V30 4124 H 369.763 -3.87512 -0.26244 0
M  V30 4125 H 371.495 -4.04614 -0.0834479 0
M  V30 4126 H 368.25 -4.33135 1.91548 0
M  V30 4127 H 368.674 -5.13685 4.40972 0
M  V30 4128 H 373.316 -3.81372 1.82524 0
M  V30 4129 H 371.034 -5.45141 5.96529 0
M  V30 4130 H 374.62 -4.35717 3.85542 0
M  V30 4131 H 373.5 -5.16746 5.89867 0
M  V30 4132 N 371.003 -0.499398 -1.49478 0
M  V30 4133 C 372.249 0.0377587 -2.03365 0
M  V30 4134 C 372.604 1.3484 -1.37244 0
M  V30 4135 O 371.897 1.85 -0.498547 0
M  V30 4136 C 372.091 0.248424 -3.56536 0
M  V30 4137 C 371.92 -1.04025 -4.37503 0
M  V30 4138 C 370.69 -1.59159 -4.79579 0
M  V30 4139 C 372.888 -1.9431 -4.76181 0
M  V30 4140 N 370.87 -2.82634 -5.44969 0
M  V30 4141 C 372.241 -3.02364 -5.41272 0
M  V30 4142 C 374.296 -1.95008 -4.58123 0
M  V30 4143 C 372.999 -4.1114 -5.90217 0
M  V30 4144 C 375.025 -3.02758 -5.08027 0
M  V30 4145 C 374.387 -4.09531 -5.73118 0
M  V30 4146 H 370.486 -0.026923 -0.781536 0
M  V30 4147 H 373.07 -0.673901 -1.82665 0
M  V30 4148 H 371.241 0.929139 -3.77123 0
M  V30 4149 H 372.973 0.782445 -3.97064 0
M  V30 4150 H 369.728 -1.13696 -4.5975 0
M  V30 4151 H 370.152 -3.45416 -5.82252 0
M  V30 4152 H 374.794 -1.13766 -4.07207 0
M  V30 4153 H 372.512 -4.93181 -6.40155 0
M  V30 4154 H 376.098 -3.04315 -4.95866 0
M  V30 4155 H 374.978 -4.91534 -6.11035 0
M  V30 4156 N 372.481 1.55866 -0.233164 0
M  V30 4157 C 373.897 1.59133 0.121988 0
M  V30 4158 C 374.097 1.25016 1.58029 0
M  V30 4159 O 373.153 0.990922 2.32243 0
M  V30 4160 C 374.466 2.99932 -0.214792 0
M  V30 4161 C 376.014 3.12601 -0.157971 0
M  V30 4162 C 376.489 4.55597 -0.46859 0
M  V30 4163 N 377.98 4.61305 -0.418585 0
M  V30 4164 C 378.715 5.69903 -0.63227 0
M  V30 4165 N 378.211 6.86819 -0.90835 0
M  V30 4166 N 380.004 5.59264 -0.563913 0
M  V30 4167 H 372.155 1.76315 -1.18434 0
M  V30 4168 H 374.418 0.820093 -0.475553 0
M  V30 4169 H 374.124 3.29588 -1.22739 0
M  V30 4170 H 373.998 3.74327 0.464691 0
M  V30 4171 H 376.385 2.82735 0.845283 0
M  V30 4172 H 376.466 2.40511 -0.871102 0
M  V30 4173 H 376.11 4.86182 -1.46934 0
M  V30 4174 H 376.04 5.25928 0.265865 0
M  V30 4175 H 378.531 3.77297 -0.213368 0
M  V30 4176 H 378.844 7.65507 -1.05919 0
M  V30 4177 H 377.189 6.88536 -0.945673 0
M  V30 4178 H 380.38 4.66802 -0.348372 0
M  V30 4179 H 380.553 6.43831 -0.733847 0
M  V30 4180 N 373.959 -0.0401083 1.57549 0
M  V30 4181 C 374.922 -1.02871 2.04817 0
M  V30 4182 C 375.922 -1.29708 0.950388 0
M  V30 4183 O 377.112 -1.24897 1.21435 0
M  V30 4184 C 374.244 -2.36443 2.45576 0
M  V30 4185 H 375.437 -0.620631 2.93408 0
M  V30 4186 H 372.99 -0.286667 1.53649 0
M  V30 4187 H 373.725 -2.82021 1.60108 0
M  V30 4188 H 373.51 -2.18296 3.25713 0
M  V30 4189 H 375 -3.07441 2.82612 0
M  V30 4190 N 375.437 -1.54477 -0.31217 0
M  V30 4191 C 376.853 -1.45442 -0.657185 0
M  V30 4192 C 377.053 -0.63653 -1.91182 0
M  V30 4193 O 376.109 -0.139815 -2.52113 0
M  V30 4194 C 377.422 -2.89287 -0.82058 0
M  V30 4195 C 378.97 -2.9926 -0.917188 0
M  V30 4196 C 379.445 -4.44279 -1.11267 0
M  V30 4197 N 380.936 -4.4794 -1.17914 0
M  V30 4198 C 381.671 -5.57318 -1.34848 0
M  V30 4199 N 381.167 -6.76642 -1.48752 0
M  V30 4200 N 382.96 -5.44986 -1.37647 0
M  V30 4201 H 375.111 -2.06129 0.512313 0
M  V30 4202 H 377.374 -0.933088 0.167485 0
M  V30 4203 H 377.08 -3.51687 0.0302604 0
M  V30 4204 H 376.954 -3.36061 -1.71298 0
M  V30 4205 H 379.341 -2.36981 -1.75852 0
M  V30 4206 H 379.422 -2.558 -0.00101257 0
M  V30 4207 H 379.066 -5.07149 -0.27614 0
M  V30 4208 H 378.996 -4.85359 -2.04289 0
M  V30 4209 H 381.487 -3.61969 -1.08567 0
M  V30 4210 H 381.8 -7.55758 -1.61397 0
M  V30 4211 H 380.145 -6.79529 -1.45828 0
M  V30 4212 H 383.336 -4.50715 -1.26388 0
M  V30 4213 H 383.509 -6.3028 -1.50501 0
M  V30 4214 N 376.915 0.57481 -1.46744 0
M  V30 4215 C 378.192 1.3352 -1.4294 0
M  V30 4216 C 378.572 2.10775 -0.117009 0
M  V30 4217 O 377.92 2.09966 0.901474 0
M  V30 4218 C 378.13 2.25456 -2.66403 0
M  V30 4219 C 379.478 2.87035 -3.12883 0
M  V30 4220 O 380.502 2.35766 -2.67007 0
M  V30 4221 O 379.361 3.80179 -3.92589 0
M  V30 4222 H 376.455 0.600318 -0.568812 0
M  V30 4223 H 379.001 0.595171 -1.58921 0
M  V30 4224 H 377.773 1.67851 -3.53471 0
M  V30 4225 H 377.396 3.06785 -2.52921 0
M  V30 4226 N 378.394 1.34581 0.820102 0
M  V30 4227 C 379.341 1.2639 1.93117 0
M  V30 4228 C 380.311 0.138554 1.65521 0
M  V30 4229 O 381.496 0.320004 1.88097 0
M  V30 4230 C 378.636 1.02812 3.29429 0
M  V30 4231 C 377.749 2.24146 3.693 0
M  V30 4232 C 376.884 1.93829 4.94574 0
M  V30 4233 C 375.923 3.1129 5.27034 0
M  V30 4234 N 375.06 2.80838 6.43486 0
M  V30 4235 H 379.9 2.21408 1.99455 0
M  V30 4236 H 377.437 1.10077 0.975784 0
M  V30 4237 H 379.395 0.871788 4.0799 0
M  V30 4238 H 378.025 0.114612 3.22596 0
M  V30 4239 H 377.077 2.50691 2.86109 0
M  V30 4240 H 378.389 3.11899 3.89257 0
M  V30 4241 H 377.543 1.74948 5.80929 0
M  V30 4242 H 376.282 1.03341 4.76626 0
M  V30 4243 H 375.287 3.30764 4.39175 0
M  V30 4244 H 376.512 4.02561 5.4692 0
M  V30 4245 H 374.458 1.92929 6.26988 0
M  V30 4246 H 374.375 3.62123 6.63629 0
M  V30 4247 H 375.643 2.65467 7.32903 0
M  V30 4248 N 379.872 -1.04064 1.18357 0
M  V30 4249 C 380.82 -2.14187 0.907007 0
M  V30 4250 C 381.814 -1.68879 -0.132725 0
M  V30 4251 O 383.02 -1.79993 0.0154248 0
M  V30 4252 H 379.395 -0.699585 0.275835 0
M  V30 4253 H 381.366 -2.34711 1.84264 0
M  V30 4254 C 380.115 -3.44785 0.449254 0
M  V30 4255 H 379.438 -3.80058 1.24081 0
M  V30 4256 H 380.878 -4.22974 0.294737 0
M  V30 4257 C 379.337 -3.26391 -0.834909 0
M  V30 4258 O 379.867 -3.53973 -1.89911 0
M  V30 4259 N 378.073 -2.79726 -0.787523 0
M  V30 4260 H 377.62 -2.5748 0.0787347 0
M  V30 4261 H 377.578 -2.67798 -1.64716 0
M  V30 4262 N 381.35 -0.985608 -1.22978 0
M  V30 4263 C 382.598 -0.656087 -1.91154 0
M  V30 4264 C 382.919 0.813561 -1.77218 0
M  V30 4265 O 382.189 1.58244 -1.1548 0
M  V30 4266 H 380.769 -0.239674 -0.707506 0
M  V30 4267 H 383.431 -1.25054 -1.49491 0
M  V30 4268 H 382.527 -0.912253 -2.9847 0
M  V30 4269 N 382.828 1.3818 -0.7579 0
M  V30 4270 C 383.76 2.2901 -0.0932177 0
M  V30 4271 C 384.773 1.47958 0.679136 0
M  V30 4272 O 385.962 1.70773 0.519514 0
M  V30 4273 C 383.062 3.26953 0.89192 0
M  V30 4274 C 382.235 4.37045 0.176303 0
M  V30 4275 C 381.294 5.15148 1.07281 0
M  V30 4276 O 380.32 5.66616 0.541728 0
M  V30 4277 N 381.522 5.28542 2.40049 0
M  V30 4278 H 384.287 2.86694 -0.873303 0
M  V30 4279 H 381.848 1.50007 -0.609054 0
M  V30 4280 H 383.84 3.76083 1.49479 0
M  V30 4281 H 382.41 2.70136 1.57306 0
M  V30 4282 H 381.63 3.89493 -0.607328 0
M  V30 4283 H 382.918 5.07801 -0.318718 0
M  V30 4284 H 382.316 4.88285 2.85647 0
M  V30 4285 H 380.873 5.8103 2.95376 0
M  V30 4286 N 384.306 0.507319 1.49211 0
M  V30 4287 C 385.216 -0.272136 2.33016 0
M  V30 4288 C 386.232 -0.961206 1.45041 0
M  V30 4289 O 387.408 -0.941191 1.78055 0
M  V30 4290 C 384.473 -1.31895 3.20631 0
M  V30 4291 C 383.534 -0.642648 4.24463 0
M  V30 4292 C 382.767 -1.63959 5.07891 0
M  V30 4293 O 382.99 -2.87007 4.92933 0
M  V30 4294 O 381.924 -1.19143 5.8999 0
M  V30 4295 H 385.75 0.413982 3.00865 0
M  V30 4296 H 383.335 0.268556 1.46966 0
M  V30 4297 H 385.217 -1.92446 3.7489 0
M  V30 4298 H 383.892 -1.98788 2.5547 0
M  V30 4299 H 382.799 0.00276252 3.741 0
M  V30 4300 H 384.132 -0.0160534 4.92197 0
M  V30 4301 N 385.784 -1.5574 0.241426 0
M  V30 4302 C 387.032 -1.98417 -0.384075 0
M  V30 4303 C 387.353 -1.13078 -1.58866 0
M  V30 4304 O 386.623 -0.212312 -1.94746 0
M  V30 4305 H 385.203 -0.732813 -0.144894 0
M  V30 4306 H 387.865 -1.9193 0.338943 0
M  V30 4307 H 386.961 -3.04219 -0.696939 0
M  V30 4308 N 387.262 0.0317525 -1.57568 0
M  V30 4309 C 388.492 0.733884 -1.93126 0
M  V30 4310 C 388.9 1.69563 -0.839352 0
M  V30 4311 O 388.243 1.82681 0.193175 0
M  V30 4312 C 388.305 1.54798 -3.24465 0
M  V30 4313 C 387.969 0.751304 -4.50782 0
M  V30 4314 C 388.966 0.0527632 -5.19873 0
M  V30 4315 C 386.651 0.706639 -4.97305 0
M  V30 4316 C 388.645 -0.679774 -6.33765 0
M  V30 4317 C 386.332 -0.0296449 -6.11093 0
M  V30 4318 C 387.33 -0.721614 -6.79177 0
M  V30 4319 O 387.018 -1.44595 -7.90789 0
M  V30 4320 H 386.75 0.211459 -0.642076 0
M  V30 4321 H 389.304 -0.00585615 -2.05399 0
M  V30 4322 H 387.534 2.33147 -3.08512 0
M  V30 4323 H 389.223 2.13247 -3.4537 0
M  V30 4324 H 389.989 0.0783188 -4.84937 0
M  V30 4325 H 385.868 1.23474 -4.44157 0
M  V30 4326 H 389.412 -1.22042 -6.86842 0
M  V30 4327 H 385.309 -0.0571331 -6.45475 0
M  V30 4328 H 386.077 -1.35935 -8.07133 0
M  V30 4329 N 388.74 1.54641 0.303973 0
M  V30 4330 C 389.989 1.7299 1.03717 0
M  V30 4331 C 390.302 0.521168 1.88529 0
M  V30 4332 O 391.508 0.586408 2.65092 0
M  V30 4333 C 389.964 3.06051 1.89369 0
M  V30 4334 C 389.572 4.34393 1.09574 0
M  V30 4335 C 391.316 3.3376 2.62306 0
M  V30 4336 C 389.223 5.58506 1.94486 0
M  V30 4337 H 388.153 0.64473 0.390947 0
M  V30 4338 H 390.804 1.81124 0.294328 0
M  V30 4339 H 389.186 2.91874 2.67629 0
M  V30 4340 H 390.36 4.59396 0.359485 0
M  V30 4341 H 388.675 4.13597 0.482324 0
M  V30 4342 H 391.272 4.23687 3.26181 0
M  V30 4343 H 391.615 2.52503 3.3098 0
M  V30 4344 H 392.148 3.48894 1.91097 0
M  V30 4345 H 388.887 6.42422 1.30287 0
M  V30 4346 H 388.407 5.37694 2.65792 0
M  V30 4347 H 390.086 5.95651 2.52605 0
M  V30 4348 N 390.218 -0.567019 1.47046 0
M  V30 4349 C 391.629 -1.14916 1.47143 0
M  V30 4350 C 391.98 -1.94954 0.220767 0
M  V30 4351 O 391.105 -2.05602 -0.67505 0
M  V30 4352 C 391.7 -2.09069 2.666 0
M  V30 4353 C 390.259 -2.62575 2.69687 0
M  V30 4354 C 389.406 -1.38755 2.40088 0
M  V30 4355 H 392.357 -0.354126 1.54699 0
M  V30 4356 H 392.378 -2.92789 2.43011 0
M  V30 4357 H 391.89 -1.50789 3.57609 0
M  V30 4358 H 389.991 -3.24681 1.82792 0
M  V30 4359 H 390.104 -3.04239 3.70102 0
M  V30 4360 H 388.468 -1.69098 1.90468 0
M  V30 4361 H 389.251 -0.822822 3.33293 0
M  V30 4362 N 391.696 -1.35014 -0.812953 0
M  V30 4363 C 392.921 -1.31187 -1.60639 0
M  V30 4364 C 393.346 0.109382 -1.87782 0
M  V30 4365 O 392.704 1.07424 -1.46047 0
M  V30 4366 C 392.752 -2.11809 -2.91838 0
M  V30 4367 O 391.856 -1.49444 -3.8437 0
M  V30 4368 H 391.197 -0.450084 -0.488181 0
M  V30 4369 H 393.727 -1.77963 -1.00947 0
M  V30 4370 H 393.737 -2.23531 -3.41318 0
M  V30 4371 H 392.412 -3.15137 -2.71407 0
M  V30 4372 H 390.989 -1.46524 -3.42907 0
M  V30 4373 N 393.175 1.03435 -1.18907 0
M  V30 4374 C 394.123 2.13703 -0.918353 0
M  V30 4375 C 395.117 1.68947 0.123767 0
M  V30 4376 O 396.323 1.79983 -0.0249701 0
M  V30 4377 H 392.698 0.698112 -0.279542 0
M  V30 4378 H 394.669 2.33731 -1.85506 0
M  V30 4379 C 393.418 3.44542 -0.467532 0
M  V30 4380 H 392.741 3.79394 -1.26095 0
M  V30 4381 H 394.181 4.22812 -0.317164 0
M  V30 4382 C 392.64 3.26829 0.817588 0
M  V30 4383 O 393.17 3.54975 1.88031 0
M  V30 4384 N 391.376 2.80139 0.772677 0
M  V30 4385 H 390.923 2.57434 -0.0923883 0
M  V30 4386 H 390.881 2.68668 1.63294 0
M  V30 4387 N 394.653 0.992116 1.22453 0
M  V30 4388 C 395.883 0.684949 1.94915 0
M  V30 4389 C 396.291 -0.754292 1.73514 0
M  V30 4390 O 395.634 -1.52056 1.03076 0
M  V30 4391 C 395.696 0.910054 3.47791 0
M  V30 4392 C 395.36 2.33363 3.92926 0
M  V30 4393 C 396.357 3.31308 4.00663 0
M  V30 4394 C 394.042 2.66785 4.25595 0
M  V30 4395 C 396.036 4.6075 4.40441 0
M  V30 4396 C 393.723 3.96446 4.65053 0
M  V30 4397 C 394.721 4.9324 4.72444 0
M  V30 4398 O 394.409 6.20584 5.1101 0
M  V30 4399 H 394.141 0.25258 0.62704 0
M  V30 4400 H 396.695 1.32939 1.56577 0
M  V30 4401 H 394.925 0.208443 3.86138 0
M  V30 4402 H 396.614 0.598257 4.01467 0
M  V30 4403 H 397.38 3.0682 3.75615 0
M  V30 4404 H 393.259 1.92148 4.19047 0
M  V30 4405 H 396.803 5.363 4.46126 0
M  V30 4406 H 392.7 4.20724 4.89552 0
M  V30 4407 H 393.468 6.24509 5.29085 0
M  V30 4408 N 396.131 -1.37776 0.765217 0
M  V30 4409 C 397.377 -2.00145 0.327072 0
M  V30 4410 C 397.71 -1.60607 -1.09175 0
M  V30 4411 O 396.985 -0.849127 -1.74986 0
M  V30 4412 C 397.268 -3.57109 0.46319 0
M  V30 4413 C 397.121 -4.06576 1.92395 0
M  V30 4414 C 398.44 -4.39888 -0.136473 0
M  V30 4415 H 395.559 -0.727113 0.120316 0
M  V30 4416 H 398.201 -1.63549 0.967039 0
M  V30 4417 H 396.351 -3.88414 -0.0816358 0
M  V30 4418 H 398.023 -3.85864 2.52798 0
M  V30 4419 H 396.266 -3.59011 2.43503 0
M  V30 4420 H 396.937 -5.15639 1.97028 0
M  V30 4421 H 399.413 -4.14803 0.328317 0
M  V30 4422 H 398.289 -5.48899 -0.0110582 0
M  V30 4423 H 398.55 -4.24758 -1.22608 0
M  V30 4424 N 397.609 -0.515225 -1.4894 0
M  V30 4425 C 398.837 0.0206034 -2.0689 0
M  V30 4426 C 399.252 1.29514 -1.37374 0
M  V30 4427 O 398.609 1.76698 -0.456529 0
M  V30 4428 C 398.66 0.26351 -3.60538 0
M  V30 4429 O 398.381 -0.960517 -4.27441 0
M  V30 4430 C 399.882 0.841383 -4.35242 0
M  V30 4431 H 397.102 -0.0268608 -0.670462 0
M  V30 4432 H 399.646 -0.716651 -1.91532 0
M  V30 4433 H 397.801 0.950777 -3.75552 0
M  V30 4434 H 398.215 -0.73212 -5.19365 0
M  V30 4435 H 399.689 0.96085 -5.43573 0
M  V30 4436 H 400.166 1.8427 -3.98674 0
M  V30 4437 H 400.772 0.191143 -4.2487 0
M  V30 4438 N 399.087 1.5561 -0.249682 0
M  V30 4439 C 399.997 2.25143 0.659375 0
M  V30 4440 C 401.013 1.2685 1.19101 0
M  V30 4441 O 402.189 1.59732 1.22669 0
M  V30 4442 C 399.254 2.93945 1.8384 0
M  V30 4443 C 398.315 4.07655 1.34596 0
M  V30 4444 C 397.548 4.73167 2.46878 0
M  V30 4445 O 397.771 4.37768 3.65671 0
M  V30 4446 O 396.705 5.61623 2.16478 0
M  V30 4447 H 400.531 3.03545 0.0968698 0
M  V30 4448 H 398.116 1.49389 -0.018074 0
M  V30 4449 H 399.998 3.37271 2.52638 0
M  V30 4450 H 398.673 2.18481 2.38847 0
M  V30 4451 H 397.58 3.68839 0.625174 0
M  V30 4452 H 398.913 4.84946 0.841941 0
M  V30 4453 N 400.565 -0.0233959 1.57583 0
M  V30 4454 C 401.528 -1.00693 2.05897 0
M  V30 4455 C 402.528 -1.28693 0.964092 0
M  V30 4456 O 403.718 -1.23602 1.22753 0
M  V30 4457 C 400.85 -2.33825 2.4807 0
M  V30 4458 H 402.043 -0.589476 2.9405 0
M  V30 4459 H 399.596 -0.270354 1.53944 0
M  V30 4460 H 400.331 -2.80307 1.6309 0
M  V30 4461 H 400.116 -2.1483 3.2801 0
M  V30 4462 H 401.606 -3.04426 2.85857 0
M  V30 4463 N 402.043 -1.548 -0.295768 0
M  V30 4464 C 402.953 -1.89177 -1.38742 0
M  V30 4465 C 403.969 -0.786481 -1.55211 0
M  V30 4466 O 405.145 -1.08344 -1.69775 0
M  V30 4467 C 402.21 -2.13663 -2.73036 0
M  V30 4468 C 401.271 -3.37349 -2.65508 0
M  V30 4469 C 400.504 -3.60658 -3.93398 0
M  V30 4470 O 400.727 -2.86882 -4.93006 0
M  V30 4471 O 399.661 -4.54179 -3.94975 0
M  V30 4472 H 403.487 -2.82059 -1.12589 0
M  V30 4473 H 401.072 -1.41056 -0.492295 0
M  V30 4474 H 402.954 -2.3094 -3.52484 0
M  V30 4475 H 401.629 -1.23967 -2.99022 0
M  V30 4476 H 400.536 -3.25431 -1.84514 0
M  V30 4477 H 401.869 -4.27192 -2.44474 0
M  V30 4478 N 403.521 0.559213 -1.47345 0
M  V30 4479 C 404.798 1.31997 -1.44348 0
M  V30 4480 C 405.178 2.1064 -0.139358 0
M  V30 4481 O 404.526 2.1091 0.879153 0
M  V30 4482 C 404.736 2.22618 -2.68779 0
M  V30 4483 C 406.084 2.83701 -3.1591 0
M  V30 4484 O 407.108 2.32921 -2.69493 0
M  V30 4485 O 405.967 3.75993 -3.966 0
M  V30 4486 H 403.061 0.594251 -0.575147 0
M  V30 4487 H 405.607 0.578282 -1.59543 0
M  V30 4488 H 404.379 1.64093 -3.55231 0
M  V30 4489 H 404.002 3.04085 -2.5616 0
M  V30 4490 N 404.999 1.35443 0.805782 0
M  V30 4491 C 406.224 1.32037 1.59941 0
M  V30 4492 C 406.649 -0.0994215 1.87837 0
M  V30 4493 O 406.007 -1.06648 1.46615 0
M  V30 4494 C 406.055 2.13354 2.90711 0
M  V30 4495 O 405.159 1.5148 3.83572 0
M  V30 4496 H 404.5 0.452666 0.485787 0
M  V30 4497 H 407.03 1.78496 1.00002 0
M  V30 4498 H 407.04 2.25338 3.40128 0
M  V30 4499 H 405.715 3.16572 2.69732 0
M  V30 4500 H 404.292 1.4834 3.42125 0
M  V30 4501 N 406.477 -1.02803 1.19454 0
M  V30 4502 C 407.726 -1.7562 0.991996 0
M  V30 4503 C 408.039 -1.89672 -0.477901 0
M  V30 4504 O 409.245 -2.59468 -0.799287 0
M  V30 4505 C 407.701 -3.15812 1.72601 0
M  V30 4506 C 407.309 -3.0981 3.23607 0
M  V30 4507 C 409.053 -3.92918 1.60674 0
M  V30 4508 C 406.96 -4.44939 3.89594 0
M  V30 4509 H 405.89 -0.658352 0.367543 0
M  V30 4510 H 408.541 -1.15044 1.42959 0
M  V30 4511 H 406.923 -3.7686 1.21624 0
M  V30 4512 H 408.097 -2.58138 3.81709 0
M  V30 4513 H 406.412 -2.46201 3.35819 0
M  V30 4514 H 409.009 -4.9287 2.07323 0
M  V30 4515 H 409.352 -4.12502 0.561025 0
M  V30 4516 H 409.885 -3.38472 2.09001 0
M  V30 4517 H 406.624 -4.30559 4.94267 0
M  V30 4518 H 406.144 -4.96664 3.36281 0
M  V30 4519 H 407.823 -5.1382 3.93189 0
M  V30 4520 N 407.956 -0.998596 -1.21925 0
M  V30 4521 C 408.866 -0.562736 -2.27751 0
M  V30 4522 C 409.882 0.391203 -1.69545 0
M  V30 4523 O 411.058 0.256625 -1.99758 0
M  V30 4524 C 408.123 0.11012 -3.46525 0
M  V30 4525 C 407.184 -0.887495 -4.20026 0
M  V30 4526 C 406.417 -0.246654 -5.3313 0
M  V30 4527 O 406.64 0.958088 -5.62296 0
M  V30 4528 O 405.574 -0.954374 -5.94286 0
M  V30 4529 H 409.4 -1.44329 -2.67213 0
M  V30 4530 H 406.985 -0.767135 -1.28201 0
M  V30 4531 H 408.867 0.486756 -4.18579 0
M  V30 4532 H 407.542 0.965154 -3.08976 0
M  V30 4533 H 406.449 -1.31517 -3.5022 0
M  V30 4534 H 407.782 -1.71191 -4.6147 0
M  V30 4535 N 409.434 1.37368 -0.772513 0
M  V30 4536 C 410.367 2.27956 -0.105593 0
M  V30 4537 C 411.345 1.46362 0.708295 0
M  V30 4538 O 412.529 1.75695 0.682895 0
M  V30 4539 C 409.656 3.27687 0.856686 0
M  V30 4540 C 408.702 4.26312 0.1267 0
M  V30 4541 S 409.535 5.22206 -1.1858 0
M  V30 4542 C 410.691 6.25488 -0.227081 0
M  V30 4543 H 410.924 2.84171 -0.87372 0
M  V30 4544 H 408.457 1.43654 -0.565939 0
M  V30 4545 H 410.415 3.85653 1.40648 0
M  V30 4546 H 409.076 2.70417 1.59793 0
M  V30 4547 H 408.269 4.96674 0.856212 0
M  V30 4548 H 407.871 3.72339 -0.352117 0
M  V30 4549 H 410.163 6.74836 0.600231 0
M  V30 4550 H 411.106 7.02371 -0.898899 0
M  V30 4551 H 411.514 5.64267 0.162053 0
M  V30 4552 N 410.912 0.523116 1.48665 0
M  V30 4553 C 412.142 -0.00961724 2.06598 0
M  V30 4554 C 412.55 -1.29333 1.38093 0
M  V30 4555 O 411.893 -1.77846 0.46007 0
M  V30 4556 C 411.955 -0.311135 3.58151 0
M  V30 4557 C 411.619 0.878092 4.48485 0
M  V30 4558 C 412.616 1.77464 4.88674 0
M  V30 4559 C 410.301 1.08315 4.90483 0
M  V30 4560 C 412.295 2.86021 5.69623 0
M  V30 4561 C 409.982 2.17187 5.71203 0
M  V30 4562 C 410.98 3.05873 6.10681 0
M  V30 4563 O 410.668 4.12862 6.89783 0
M  V30 4564 H 410.4 0.0272658 0.67545 0
M  V30 4565 H 412.954 0.726156 1.92136 0
M  V30 4566 H 411.184 -1.10079 3.70701 0
M  V30 4567 H 412.873 -0.785125 3.98234 0
M  V30 4568 H 413.639 1.62813 4.56855 0
M  V30 4569 H 409.518 0.402149 4.59243 0
M  V30 4570 H 413.062 3.55272 6.00356 0
M  V30 4571 H 408.959 2.31824 6.02435 0
M  V30 4572 H 409.727 4.10487 7.08126 0
M  V30 4573 N 412.39 -1.55475 0.257931 0
M  V30 4574 C 413.3 -2.2549 -0.647425 0
M  V30 4575 C 414.316 -1.2748 -1.18427 0
M  V30 4576 O 415.492 -1.6038 -1.2182 0
M  V30 4577 C 412.557 -2.94916 -1.82278 0
M  V30 4578 C 411.618 -4.08363 -1.32432 0
M  V30 4579 C 410.851 -4.74469 -2.44366 0
M  V30 4580 O 411.074 -4.39701 -3.63344 0
M  V30 4581 O 410.008 -5.62763 -2.13497 0
M  V30 4582 H 413.834 -3.03593 -0.0807707 0
M  V30 4583 H 411.419 -1.49377 0.0259962 0
M  V30 4584 H 413.301 -3.38606 -2.50846 0
M  V30 4585 H 411.976 -2.19744 -2.37685 0
M  V30 4586 H 410.883 -3.69166 -0.605605 0
M  V30 4587 H 412.216 -4.85385 -0.816211 0
M  V30 4588 N 413.868 0.0150385 -1.57593 0
M  V30 4589 C 415.114 0.69849 -1.91031 0
M  V30 4590 C 415.469 1.72208 -0.85804 0
M  V30 4591 O 414.762 1.91147 0.131614 0
M  V30 4592 C 414.956 1.39686 -3.28972 0
M  V30 4593 C 414.785 0.442428 -4.47518 0
M  V30 4594 C 413.555 0.0583223 -5.05266 0
M  V30 4595 C 415.753 -0.285072 -5.13509 0
M  V30 4596 N 413.735 -0.895893 -6.07328 0
M  V30 4597 C 415.106 -1.09447 -6.10263 0
M  V30 4598 C 417.161 -0.350518 -4.96665 0
M  V30 4599 C 415.864 -1.96333 -6.91987 0
M  V30 4600 C 417.89 -1.20655 -5.78962 0
M  V30 4601 C 417.252 -2.00383 -6.75297 0
M  V30 4602 H 413.351 0.22926 -0.747639 0
M  V30 4603 H 415.935 -0.0417748 -1.94655 0
M  V30 4604 H 414.106 2.1075 -3.2625 0
M  V30 4605 H 415.838 2.03381 -3.49883 0
M  V30 4606 H 412.593 0.423506 -4.71703 0
M  V30 4607 H 413.017 -1.36792 -6.63036 0
M  V30 4608 H 417.659 0.251596 -4.22051 0
M  V30 4609 H 415.377 -2.57618 -7.65936 0
M  V30 4610 H 418.963 -1.2609 -5.67972 0
M  V30 4611 H 417.843 -2.65552 -7.3787 0
M  V30 4612 N 415.346 1.54954 0.287554 0
M  V30 4613 C 416.576 1.78622 1.03816 0
M  V30 4614 C 416.984 0.552451 1.80955 0
M  V30 4615 O 416.327 -0.487665 1.77109 0
M  V30 4616 C 416.389 2.94975 2.055 0
M  V30 4617 C 416.053 4.32565 1.47433 0
M  V30 4618 C 417.05 5.12096 0.897436 0
M  V30 4619 C 414.735 4.79195 1.50591 0
M  V30 4620 C 416.729 6.36383 0.359851 0
M  V30 4621 C 414.416 6.03441 0.964459 0
M  V30 4622 C 415.414 6.81872 0.392413 0
M  V30 4623 O 415.102 8.03777 -0.140788 0
M  V30 4624 H 414.834 0.599144 0.313053 0
M  V30 4625 H 417.388 2.02761 0.328225 0
M  V30 4626 H 415.618 2.66493 2.80211 0
M  V30 4627 H 417.307 3.06097 2.6657 0
M  V30 4628 H 418.073 4.77209 0.865841 0
M  V30 4629 H 413.952 4.18167 1.94055 0
M  V30 4630 H 417.496 6.97545 -0.0872951 0
M  V30 4631 H 413.393 6.37813 0.993246 0
M  V30 4632 H 414.161 8.18495 -0.0287617 0
M  V30 4633 N 416.824 -0.551391 1.4764 0
M  V30 4634 C 418.049 -1.33837 1.58437 0
M  V30 4635 C 418.474 -1.866 0.237063 0
M  V30 4636 O 417.832 -1.6328 -0.787994 0
M  V30 4637 C 417.88 -2.48014 2.61766 0
M  V30 4638 O 416.984 -3.50419 2.1744 0
M  V30 4639 H 416.325 -0.397299 0.532024 0
M  V30 4640 H 418.855 -0.665759 1.93465 0
M  V30 4641 H 418.865 -2.94503 2.82369 0
M  V30 4642 H 417.54 -2.08969 3.5959 0
M  V30 4643 H 416.117 -3.10196 2.06961 0
M  V30 4644 N 418.302 -1.35869 -0.798587 0
M  V30 4645 C 419.249 -1.29446 -1.91082 0
M  V30 4646 C 420.219 -0.16487 -1.6528 0
M  V30 4647 O 421.404 -0.349888 -1.87564 0
M  V30 4648 C 418.544 -1.0804 -3.27752 0
M  V30 4649 C 417.657 -2.29993 -3.65687 0
M  V30 4650 C 416.792 -2.01673 -4.91428 0
M  V30 4651 C 415.831 -3.19636 -5.22015 0
M  V30 4652 N 414.968 -2.91039 -6.38937 0
M  V30 4653 H 419.808 -2.24553 -1.95907 0
M  V30 4654 H 417.345 -1.11615 -0.958148 0
M  V30 4655 H 419.303 -0.936586 -4.06551 0
M  V30 4656 H 417.933 -0.16592 -3.22373 0
M  V30 4657 H 416.985 -2.55211 -2.82085 0
M  V30 4658 H 418.297 -3.18052 -3.84245 0
M  V30 4659 H 417.451 -1.84168 -5.78072 0
M  V30 4660 H 416.19 -1.10911 -4.74921 0
M  V30 4661 H 415.195 -3.37709 -4.33858 0
M  V30 4662 H 416.42 -4.11211 -5.40447 0
M  V30 4663 H 414.366 -2.0288 -6.2384 0
M  V30 4664 H 414.283 -3.72635 -6.57784 0
M  V30 4665 H 415.551 -2.77093 -7.28587 0
M  V30 4666 N 419.78 1.02168 -1.19998 0
M  V30 4667 C 420.73 2.08969 -0.911921 0
M  V30 4668 C 421.714 1.60404 0.12621 0
M  V30 4669 O 422.906 1.76817 -0.0804706 0
M  V30 4670 C 420.035 3.402 -0.460277 0
M  V30 4671 C 419.121 3.9548 -1.53155 0
M  V30 4672 N 419.512 4.24332 -2.75275 0
M  V30 4673 C 417.81 4.23572 -1.39653 0
M  V30 4674 C 418.511 4.68834 -3.44339 0
M  V30 4675 N 417.487 4.70804 -2.71744 0
M  V30 4676 H 421.289 2.29178 -1.83997 0
M  V30 4677 H 418.803 1.20094 -1.09322 0
M  V30 4678 H 420.8 4.16235 -0.235337 0
M  V30 4679 H 419.46 3.21408 0.4612 0
M  V30 4680 H 420.471 4.13393 -3.11973 0
M  V30 4681 H 417.148 4.14005 -0.539067 0
M  V30 4682 H 418.538 5.00019 -4.4881 0
M  V30 4683 N 421.258 1.00505 1.21394 0
M  V30 4684 C 422.191 0.51032 2.22421 0
M  V30 4685 C 423.169 -0.436 1.56645 0
M  V30 4686 O 424.353 -0.358709 1.85055 0
M  V30 4687 C 421.48 -0.258733 3.3771 0
M  V30 4688 C 420.526 0.635395 4.2174 0
M  V30 4689 S 421.359 2.09783 4.92698 0
M  V30 4690 C 422.515 1.33862 6.11418 0
M  V30 4691 H 422.748 1.36637 2.64041 0
M  V30 4692 H 420.281 0.812991 1.31262 0
M  V30 4693 H 422.239 -0.696372 4.0455 0
M  V30 4694 H 420.9 -1.0902 2.94573 0
M  V30 4695 H 420.093 0.0430189 5.03982 0
M  V30 4696 H 419.695 1.01031 3.60095 0
M  V30 4697 H 421.987 0.612541 6.74725 0
M  V30 4698 H 422.93 2.13675 6.75092 0
M  V30 4699 H 423.338 0.846568 5.58116 0
M  V30 4700 N 422.737 -1.36956 0.779787 0
M  V30 4701 C 423.965 -2.03755 0.359398 0
M  V30 4702 C 424.38 -1.58807 -1.02106 0
M  V30 4703 O 423.737 -0.773024 -1.6532 0
M  V30 4704 C 423.788 -3.59251 0.402568 0
M  V30 4705 O 423.509 -4.02557 1.72858 0
M  V30 4706 C 425.01 -4.43291 -0.0284068 0
M  V30 4707 H 422.23 -0.654148 0.149437 0
M  V30 4708 H 424.774 -1.75128 1.05595 0
M  V30 4709 H 422.929 -3.86621 -0.245478 0
M  V30 4710 H 423.343 -4.97111 1.67275 0
M  V30 4711 H 424.817 -5.51975 0.0529466 0
M  V30 4712 H 425.294 -4.25719 -1.07982 0
M  V30 4713 H 425.9 -4.21163 0.591758 0
M  V30 4714 N 424.215 -0.530993 -1.48385 0
M  V30 4715 C 425.631 -0.188919 -1.58478 0
M  V30 4716 C 425.831 1.30786 -1.53288 0
M  V30 4717 O 424.887 2.08619 -1.42248 0
M  V30 4718 C 426.2 -0.792343 -2.90073 0
M  V30 4719 C 427.748 -0.76117 -3.03604 0
M  V30 4720 C 428.223 -1.34319 -4.37861 0
M  V30 4721 N 429.714 -1.3052 -4.44431 0
M  V30 4722 C 430.449 -1.72543 -5.46824 0
M  V30 4723 N 429.945 -2.22299 -6.56167 0
M  V30 4724 N 431.738 -1.63773 -5.37712 0
M  V30 4725 H 423.889 -1.50377 -1.50002 0
M  V30 4726 H 426.152 -0.625559 -0.712306 0
M  V30 4727 H 425.858 -1.84323 -2.99529 0
M  V30 4728 H 425.732 -0.270026 -3.76232 0
M  V30 4729 H 428.119 0.280957 -2.93759 0
M  V30 4730 H 428.2 -1.32097 -2.19053 0
M  V30 4731 H 427.844 -2.38425 -4.4846 0
M  V30 4732 H 427.774 -0.759064 -5.21101 0
M  V30 4733 H 430.265 -0.940973 -3.65997 0
M  V30 4734 H 430.578 -2.52356 -7.30436 0
M  V30 4735 H 428.923 -2.26293 -6.57127 0
M  V30 4736 H 432.114 -1.24698 -4.51185 0
M  V30 4737 H 432.287 -1.96844 -6.17379 0
M  V30 4738 N 425.693 1.55336 -0.266172 0
M  V30 4739 C 426.918 2.04258 0.359661 0
M  V30 4740 C 427.343 1.14359 1.49344 0
M  V30 4741 O 426.701 0.140369 1.80756 0
M  V30 4742 C 426.749 3.50997 0.826635 0
M  V30 4743 O 425.853 3.64204 1.93466 0
M  V30 4744 H 425.194 0.659668 0.075727 0
M  V30 4745 H 427.724 2.00694 -0.39786 0
M  V30 4746 H 427.734 3.9219 1.12477 0
M  V30 4747 H 426.409 4.159 -0.00293032 0
M  V30 4748 H 424.986 3.34913 1.63974 0
M  V30 4749 N 427.171 -0.0066808 1.57599 0
M  V30 4750 C 428.103 -1.02827 2.04839 0
M  V30 4751 C 429.116 -1.31108 0.965113 0
M  V30 4752 O 430.305 -1.28202 1.24203 0
M  V30 4753 C 427.405 -2.36464 2.42771 0
M  V30 4754 C 426.578 -2.27219 3.73751 0
M  V30 4755 C 425.637 -3.43489 3.98625 0
M  V30 4756 O 424.663 -3.21976 4.69382 0
M  V30 4757 N 425.865 -4.66116 3.46 0
M  V30 4758 H 428.63 -0.625455 2.93101 0
M  V30 4759 H 426.191 -0.194198 1.60731 0
M  V30 4760 H 428.183 -3.13008 2.56531 0
M  V30 4761 H 426.753 -2.68512 1.60063 0
M  V30 4762 H 425.973 -1.35629 3.70133 0
M  V30 4763 H 427.261 -2.18208 4.59633 0
M  V30 4764 H 426.659 -4.86493 2.88688 0
M  V30 4765 H 425.216 -5.39949 3.65101 0
M  V30 4766 N 428.649 -1.55105 -0.279332 0
M  V30 4767 C 429.612 -1.86783 -1.32834 0
M  V30 4768 C 430.612 -0.74199 -1.42657 0
M  V30 4769 O 431.802 -1.0102 -1.41918 0
M  V30 4770 C 428.934 -2.06746 -2.71052 0
M  V30 4771 H 430.127 -2.8055 -1.05979 0
M  V30 4772 H 427.68 -1.47499 -0.517087 0
M  V30 4773 H 428.415 -1.15339 -3.03097 0
M  V30 4774 H 428.2 -2.88711 -2.65309 0
M  V30 4775 H 429.69 -2.32549 -3.46858 0
M  V30 4776 N 430.127 0.543554 -1.4793 0
M  V30 4777 C 431.037 1.67657 -1.64098 0
M  V30 4778 C 432.053 1.65934 -0.523622 0
M  V30 4779 O 433.229 1.85133 -0.792943 0
M  V30 4780 C 430.294 3.04146 -1.66421 0
M  V30 4781 C 429.355 3.16831 -2.89684 0
M  V30 4782 C 428.588 4.46809 -2.91886 0
M  V30 4783 O 428.811 5.33095 -2.02895 0
M  V30 4784 O 427.745 4.63573 -3.83906 0
M  V30 4785 H 431.571 1.56957 -2.59997 0
M  V30 4786 H 429.156 0.715116 -1.31173 0
M  V30 4787 H 431.038 3.85346 -1.70548 0
M  V30 4788 H 429.713 3.152 -0.736923 0
M  V30 4789 H 428.62 2.34977 -2.91095 0
M  V30 4790 H 429.953 3.10687 -3.81752 0
M  V30 4791 N 431.605 1.3629 0.791371 0
M  V30 4792 C 432.537 1.26321 1.91248 0
M  V30 4793 C 433.55 0.18313 1.61767 0
M  V30 4794 O 434.739 0.437682 1.73051 0
M  V30 4795 C 431.839 0.925901 3.26007 0
M  V30 4796 C 431.012 2.10746 3.83281 0
M  V30 4797 C 430.071 1.74352 4.96475 0
M  V30 4798 O 429.097 2.46416 5.13096 0
M  V30 4799 N 430.299 0.676058 5.7655 0
M  V30 4800 H 433.064 2.22915 2.00323 0
M  V30 4801 H 430.625 1.29659 0.969546 0
M  V30 4802 H 432.617 0.663636 3.99222 0
M  V30 4803 H 431.187 0.0491581 3.12561 0
M  V30 4804 H 430.407 2.53264 3.02077 0
M  V30 4805 H 431.695 2.8969 4.18279 0
M  V30 4806 H 431.093 0.0776467 5.65647 0
M  V30 4807 H 429.65 0.473612 6.50077 0
M  V30 4808 N 433.083 -1.0153 1.20538 0
M  V30 4809 C 434.013 -2.11972 0.979295 0
M  V30 4810 C 434.994 -1.6985 -0.0921787 0
M  V30 4811 O 436.179 -1.94089 0.0655932 0
M  V30 4812 C 433.309 -3.43201 0.531984 0
M  V30 4813 C 432.263 -3.9907 1.54685 0
M  V30 4814 C 431.589 -5.26082 0.956127 0
M  V30 4815 C 432.889 -4.32313 2.93092 0
M  V30 4816 H 434.583 -2.31143 1.90298 0
M  V30 4817 H 432.129 -1.11079 0.916372 0
M  V30 4818 H 434.082 -4.1985 0.361044 0
M  V30 4819 H 432.806 -3.23792 -0.427327 0
M  V30 4820 H 431.465 -3.2453 1.70517 0
M  V30 4821 H 431.113 -5.02999 -0.0111538 0
M  V30 4822 H 430.813 -5.64426 1.63393 0
M  V30 4823 H 432.337 -6.05386 0.796284 0
M  V30 4824 H 433.751 -4.99845 2.80763 0
M  V30 4825 H 432.148 -4.81774 3.57791 0
M  V30 4826 H 433.218 -3.41025 3.44717 0
M  V30 4827 N 434.561 -1.01147 -1.20859 0
M  V30 4828 C 435.491 -0.597663 -2.25722 0
M  V30 4829 C 436.472 0.384744 -1.65692 0
M  V30 4830 O 437.657 0.271303 -1.92296 0
M  V30 4831 C 434.787 0.0700149 -3.47229 0
M  V30 4832 C 433.741 -0.832843 -4.19819 0
M  V30 4833 C 433.067 -0.0312202 -5.34691 0
M  V30 4834 C 434.367 -2.1385 -4.76514 0
M  V30 4835 H 436.061 -1.47423 -2.60589 0
M  V30 4836 H 433.607 -0.710301 -1.25263 0
M  V30 4837 H 435.56 0.37103 -4.19763 0
M  V30 4838 H 434.284 0.981259 -3.11511 0
M  V30 4839 H 432.943 -1.11778 -3.49144 0
M  V30 4840 H 432.591 0.881515 -4.95215 0
M  V30 4841 H 432.291 -0.632434 -5.84187 0
M  V30 4842 H 433.815 0.26346 -6.10031 0
M  V30 4843 H 435.229 -1.9002 -5.40893 0
M  V30 4844 H 433.626 -2.69012 -5.36426 0
M  V30 4845 H 434.696 -2.80495 -3.95538 0
M  V30 4846 N 436.039 1.36541 -0.78704 0
M  V30 4847 C 436.986 2.30082 -0.181901 0
M  V30 4848 C 437.956 1.5186 0.672896 0
M  V30 4849 O 439.141 1.80374 0.622072 0
M  V30 4850 C 436.281 3.3835 0.679197 0
M  V30 4851 C 435.394 4.31565 -0.193882 0
M  V30 4852 C 434.529 5.26915 0.673364 0
M  V30 4853 C 433.568 6.11769 -0.201315 0
M  V30 4854 N 432.705 6.99315 0.624777 0
M  V30 4855 H 437.545 2.81248 -0.985064 0
M  V30 4856 H 435.082 1.38437 -0.497342 0
M  V30 4857 H 437.04 3.99767 1.19341 0
M  V30 4858 H 435.67 2.8851 1.44781 0
M  V30 4859 H 434.722 3.71323 -0.826044 0
M  V30 4860 H 436.034 4.91191 -0.867937 0
M  V30 4861 H 435.188 5.9361 1.25348 0
M  V30 4862 H 433.927 4.67737 1.38105 0
M  V30 4863 H 432.932 5.44039 -0.793849 0
M  V30 4864 H 434.157 6.73022 -0.906568 0
M  V30 4865 H 432.103 6.42648 1.3168 0
M  V30 4866 H 432.02 7.56 0.00835237 0
M  V30 4867 H 433.288 7.70382 1.18879 0
M  V30 4868 N 437.518 0.538854 1.48102 0
M  V30 4869 C 438.45 -0.256278 2.27763 0
M  V30 4870 C 439.463 -0.89633 1.35904 0
M  V30 4871 O 440.652 -0.773275 1.60881 0
M  V30 4872 C 437.752 -1.37896 3.09577 0
M  V30 4873 C 436.925 -0.839159 4.29275 0
M  V30 4874 C 435.984 -1.84405 4.9283 0
M  V30 4875 O 435.01 -1.39746 5.51779 0
M  V30 4876 N 436.212 -3.17666 4.85869 0
M  V30 4877 H 438.977 0.426968 2.96643 0
M  V30 4878 H 436.538 0.373747 1.57527 0
M  V30 4879 H 438.53 -2.04955 3.48963 0
M  V30 4880 H 437.1 -1.96572 2.4306 0
M  V30 4881 H 436.32 0.00769287 3.94199 0
M  V30 4882 H 437.608 -0.457548 5.06739 0
M  V30 4883 H 437.006 -3.56609 4.39143 0
M  V30 4884 H 435.563 -3.80334 5.29329 0
M  V30 4885 N 438.996 -1.55193 0.274407 0
M  V30 4886 C 439.906 -2.26164 -0.623473 0
M  V30 4887 C 440.922 -1.28729 -1.17068 0
M  V30 4888 O 442.098 -1.61663 -1.20112 0
M  V30 4889 C 439.163 -2.96833 -1.7914 0
M  V30 4890 C 438.224 -4.09745 -1.28093 0
M  V30 4891 C 437.457 -4.77034 -2.3932 0
M  V30 4892 O 437.68 -4.4353 -3.5866 0
M  V30 4893 O 436.614 -5.64996 -2.07516 0
M  V30 4894 H 440.44 -3.03661 -0.0485661 0
M  V30 4895 H 438.025 -1.49341 0.0418382 0
M  V30 4896 H 439.907 -3.41248 -2.4724 0
M  V30 4897 H 438.582 -2.22253 -2.35341 0
M  V30 4898 H 437.489 -3.69787 -0.566416 0
M  V30 4899 H 438.822 -4.86224 -0.764683 0
M  V30 4900 N 440.474 -0.00167713 -1.576 0
M  V30 4901 C 441.722 0.681471 -1.90264 0
M  V30 4902 C 442.043 1.7422 -0.875924 0
M  V30 4903 O 441.313 1.95709 0.0864412 0
M  V30 4904 H 439.893 0.254696 -0.702239 0
M  V30 4905 H 442.555 -0.0429996 -1.94853 0
M  V30 4906 H 441.651 1.15166 -2.90075 0
M  V30 4907 N 441.952 1.55251 0.271103 0
M  V30 4908 C 442.899 1.88261 1.33516 0
M  V30 4909 C 443.869 0.734296 1.48988 0
M  V30 4910 O 445.054 0.985741 1.63364 0
M  V30 4911 C 442.194 2.16168 2.69008 0
M  V30 4912 C 441.307 3.43678 2.61743 0
M  V30 4913 C 440.442 3.61276 3.89427 0
M  V30 4914 C 439.481 4.82472 3.7668 0
M  V30 4915 N 438.618 4.96717 4.96202 0
M  V30 4916 H 443.458 2.79015 1.04665 0
M  V30 4917 H 440.995 1.38137 0.505618 0
M  V30 4918 H 442.953 2.30349 3.47844 0
M  V30 4919 H 441.583 1.28646 2.96057 0
M  V30 4920 H 440.635 3.37959 1.74607 0
M  V30 4921 H 441.947 4.3265 2.48224 0
M  V30 4922 H 441.101 3.75284 4.76704 0
M  V30 4923 H 439.84 2.70492 4.05814 0
M  V30 4924 H 438.845 4.68465 2.87786 0
M  V30 4925 H 440.07 5.74692 3.61809 0
M  V30 4926 H 438.016 4.08865 5.12997 0
M  V30 4927 H 437.933 5.79738 4.85222 0
M  V30 4928 H 439.201 5.15113 5.85046 0
M  V30 4929 N 443.43 -0.535701 1.48216 0
M  V30 4930 C 444.34 -1.66785 1.64985 0
M  V30 4931 C 445.356 -1.65654 0.532414 0
M  V30 4932 O 446.532 -1.8471 0.80275 0
M  V30 4933 C 443.597 -3.0326 1.68031 0
M  V30 4934 C 442.658 -3.1529 2.9136 0
M  V30 4935 C 441.891 -4.45255 2.94252 0
M  V30 4936 O 442.114 -5.32011 2.05719 0
M  V30 4937 O 441.048 -4.6153 3.86359 0
M  V30 4938 H 444.874 -1.55576 2.60825 0
M  V30 4939 H 442.459 -0.70815 1.31551 0
M  V30 4940 H 444.341 -3.84436 1.72589 0
M  V30 4941 H 443.016 -3.14805 0.753628 0
M  V30 4942 H 441.923 -2.3343 2.92337 0
M  V30 4943 H 443.256 -3.08658 3.83394 0
M  V30 4944 N 444.908 -1.36708 -0.784132 0
M  V30 4945 C 446.156 -1.30972 -1.53918 0
M  V30 4946 C 446.477 0.109086 -1.94695 0
M  V30 4947 O 445.747 1.05048 -1.65353 0
M  V30 4948 H 444.327 -0.481819 -0.570841 0
M  V30 4949 H 446.989 -1.71063 -0.934002 0
M  V30 4950 H 446.085 -1.94061 -2.44431 0
M  V30 4951 N 446.386 1.0089 -1.21074 0
M  V30 4952 C 447.634 1.74262 -1.02358 0
M  V30 4953 C 447.955 1.89869 0.444393 0
M  V30 4954 O 447.225 1.44677 1.32081 0
M  V30 4955 H 445.805 0.645615 -0.375754 0
M  V30 4956 H 448.467 1.21596 -1.52317 0
M  V30 4957 H 447.563 2.74328 -1.4883 0
M  V30 4958 N 447.864 1.01787 1.20321 0
M  V30 4959 C 449.111 0.707936 1.89722 0
M  V30 4960 C 449.439 -0.762535 1.78929 0
M  V30 4961 O 448.694 -1.56977 1.16861 0
M  V30 4962 C 448.993 1.09076 3.40349 0
M  V30 4963 C 448.659 2.55765 3.71342 0
M  V30 4964 C 447.321 2.95845 3.79511 0
M  V30 4965 C 449.673 3.50723 3.85542 0
M  V30 4966 C 447.001 4.2982 3.99339 0
M  V30 4967 C 449.353 4.84387 4.06881 0
M  V30 4968 C 448.017 5.24172 4.1328 0
M  V30 4969 H 447.287 0.259052 0.694243 0
M  V30 4970 H 449.934 1.27868 1.42555 0
M  V30 4971 H 448.239 0.438453 3.89339 0
M  V30 4972 H 449.936 0.828636 3.92345 0
M  V30 4973 H 446.526 2.2371 3.65584 0
M  V30 4974 H 450.71 3.20916 3.78585 0
M  V30 4975 H 445.966 4.60196 4.02529 0
M  V30 4976 H 450.14 5.57891 4.1681 0
M  V30 4977 H 447.767 6.27997 4.28396 0
M  V30 4978 N 449.342 -1.36122 0.79427 0
M  V30 4979 C 450.591 -1.98361 0.365464 0
M  V30 4980 C 450.904 -1.6374 -1.06997 0
M  V30 4981 O 452.11 -2.19251 -1.60129 0
M  V30 4982 C 450.566 -3.54821 0.602496 0
M  V30 4983 C 450.174 -3.98362 2.04967 0
M  V30 4984 C 451.918 -4.2383 0.238437 0
M  V30 4985 C 449.825 -5.47619 2.2331 0
M  V30 4986 H 448.755 -0.742193 0.13291 0
M  V30 4987 H 451.406 -1.55354 0.976589 0
M  V30 4988 H 449.788 -3.95922 -0.078409 0
M  V30 4989 H 450.962 -3.68447 2.76737 0
M  V30 4990 H 449.277 -3.42206 2.37243 0
M  V30 4991 H 451.874 -5.33529 0.353705 0
M  V30 4992 H 452.217 -4.08264 -0.814006 0
M  V30 4993 H 452.75 -3.88108 0.872769 0
M  V30 4994 H 449.489 -5.68138 3.26955 0
M  V30 4995 H 449.009 -5.79145 1.5605 0
M  V30 4996 H 450.688 -6.13911 2.0426 0
M  V30 4997 N 450.82 -0.546701 -1.47814 0
M  V30 4998 C 452.066 -0.0187684 -2.02791 0
M  V30 4999 C 452.399 1.32338 -1.42128 0
M  V30 5000 O 451.674 1.85867 -0.573023 0
M  V30 5001 C 451.957 0.0854985 -3.59998 0
M  V30 5002 C 451.81 -1.283 -4.31114 0
M  V30 5003 C 453.129 0.80412 -4.32691 0
M  V30 5004 H 450.248 -0.0082946 -0.736953 0
M  V30 5005 H 452.89 -0.706962 -1.76358 0
M  V30 5006 H 451.04 0.671609 -3.82651 0
M  V30 5007 H 452.712 -1.91151 -4.19832 0
M  V30 5008 H 450.955 -1.86049 -3.91878 0
M  V30 5009 H 451.626 -1.16287 -5.39612 0
M  V30 5010 H 454.102 0.306576 -4.14969 0
M  V30 5011 H 452.978 0.846011 -5.42341 0
M  V30 5012 H 453.239 1.85802 -4.01161 0
M  V30 5013 N 452.299 1.55045 -0.282633 0
M  V30 5014 C 453.715 1.59441 0.0712997 0
M  V30 5015 C 453.915 1.2998 1.53972 0
M  V30 5016 O 452.971 1.06431 2.28973 0
M  V30 5017 C 454.284 2.99097 -0.310104 0
M  V30 5018 C 455.832 3.1194 -0.257343 0
M  V30 5019 C 456.307 4.53875 -0.613297 0
M  V30 5020 N 457.798 4.5974 -0.565134 0
M  V30 5021 C 458.533 5.67603 -0.81326 0
M  V30 5022 N 458.029 6.83582 -1.1264 0
M  V30 5023 N 459.822 5.57187 -0.741553 0
M  V30 5024 H 451.973 1.72458 -1.23984 0
M  V30 5025 H 454.236 0.804549 -0.501403 0
M  V30 5026 H 453.942 3.25516 -1.33163 0
M  V30 5027 H 453.816 3.75616 0.345366 0
M  V30 5028 H 456.203 2.85281 0.754905 0
M  V30 5029 H 456.284 2.37618 -0.947178 0
M  V30 5030 H 455.928 4.81261 -1.62327 0
M  V30 5031 H 455.858 5.26508 0.09841 0
M  V30 5032 H 458.349 3.76427 -0.333294 0
M  V30 5033 H 458.662 7.6175 -1.30219 0
M  V30 5034 H 457.007 6.85179 -1.16425 0
M  V30 5035 H 460.198 4.65457 -0.496705 0
M  V30 5036 H 460.371 6.41171 -0.938306 0
M  V30 5037 N 453.777 0.010035 1.57597 0
M  V30 5038 C 455.054 -0.710296 1.82248 0
M  V30 5039 C 455.434 -1.91426 0.889911 0
M  V30 5040 O 454.782 -2.28424 -0.0590292 0
M  V30 5041 C 454.992 -1.10655 3.30993 0
M  V30 5042 C 456.34 -1.50621 3.96987 0
M  V30 5043 O 457.364 -1.20007 3.35375 0
M  V30 5044 O 456.223 -2.07587 5.05539 0
M  V30 5045 H 453.317 -0.34673 0.750804 0
M  V30 5046 H 455.863 0.0362578 1.69661 0
M  V30 5047 H 454.635 -0.248826 3.90508 0
M  V30 5048 H 454.258 -1.91189 3.48615 0
M  V30 5049 N 455.255 -1.55392 -0.262866 0
M  V30 5050 C 456.48 -1.80847 -1.01533 0
M  V30 5051 C 456.905 -0.584946 -1.78774 0
M  V30 5052 O 456.263 0.465701 -1.75217 0
M  V30 5053 C 456.311 -3.03866 -1.94159 0
M  V30 5054 O 455.415 -2.79662 -3.03089 0
M  V30 5055 H 454.756 -0.597441 -0.289759 0
M  V30 5056 H 457.286 -2.02553 -0.288698 0
M  V30 5057 H 457.296 -3.32872 -2.35924 0
M  V30 5058 H 455.971 -3.92564 -1.37354 0
M  V30 5059 H 454.548 -2.61781 -2.65566 0
M  V30 5060 N 456.733 0.527833 -1.48498 0
M  V30 5061 C 457.958 1.313 -1.60546 0
M  V30 5062 C 458.383 1.86199 -0.26672 0
M  V30 5063 O 457.741 1.64513 0.761918 0
M  V30 5064 C 457.789 2.43818 -2.65678 0
M  V30 5065 O 456.893 3.46916 -2.22987 0
M  V30 5066 H 456.234 0.388784 -0.538277 0
M  V30 5067 H 458.764 0.634896 -1.945 0
M  V30 5068 H 458.774 2.89973 -2.87018 0
M  V30 5069 H 457.449 2.03222 -3.62869 0
M  V30 5070 H 456.026 3.06864 -2.11869 0
M  V30 5071 N 458.211 1.37122 0.776871 0
M  V30 5072 C 459.158 1.3247 1.88998 0
M  V30 5073 C 460.128 0.191143 1.64997 0
M  V30 5074 O 461.313 0.379683 1.86984 0
M  V30 5075 C 458.453 1.13241 3.25992 0
M  V30 5076 C 457.566 2.35782 3.61982 0
M  V30 5077 C 456.701 2.09465 4.88158 0
M  V30 5078 C 455.74 3.279 5.16864 0
M  V30 5079 N 454.877 3.01167 6.34226 0
M  V30 5080 H 459.717 2.27642 1.9231 0
M  V30 5081 H 457.254 1.13125 0.94027 0
M  V30 5082 H 459.212 1.00115 4.0501 0
M  V30 5083 H 457.842 0.217186 3.22069 0
M  V30 5084 H 456.894 2.59666 2.77989 0
M  V30 5085 H 458.206 3.24125 3.79137 0
M  V30 5086 H 457.36 1.93341 5.75069 0
M  V30 5087 H 456.099 1.18452 4.73097 0
M  V30 5088 H 455.104 3.44569 4.2843 0
M  V30 5089 H 456.329 4.19757 5.33836 0
M  V30 5090 H 454.275 2.12779 6.20533 0
M  V30 5091 H 454.192 3.83052 6.51772 0
M  V30 5092 H 455.46 2.88649 7.24087 0
M  V30 5093 N 459.689 -1.00246 1.21608 0
M  V30 5094 C 460.652 -2.07233 0.979133 0
M  V30 5095 C 461.652 -1.6072 -0.0508219 0
M  V30 5096 O 462.842 -1.73196 0.186712 0
M  V30 5097 C 459.974 -3.37546 0.477016 0
M  V30 5098 H 461.167 -2.29687 1.92831 0
M  V30 5099 H 458.72 -1.17261 1.03342 0
M  V30 5100 H 459.455 -3.20773 -0.476966 0
M  V30 5101 H 459.24 -3.72638 1.21997 0
M  V30 5102 H 460.73 -4.16285 0.331181 0
M  V30 5103 N 461.167 -1.02423 -1.1978 0
M  V30 5104 C 462.415 -0.716569 -1.8897 0
M  V30 5105 C 462.736 0.756769 -1.79716 0
M  V30 5106 O 462.006 1.5449 -1.20456 0
M  V30 5107 H 460.586 -0.262062 -0.699523 0
M  V30 5108 H 463.248 -1.29747 -1.45436 0
M  V30 5109 H 462.344 -1.00675 -2.95417 0
M  V30 5110 N 462.645 1.35699 -0.801477 0
M  V30 5111 C 463.592 2.29876 -0.206294 0
M  V30 5112 C 464.562 1.52565 0.656752 0
M  V30 5113 O 465.747 1.81024 0.602906 0
M  V30 5114 C 462.887 3.39052 0.643272 0
M  V30 5115 C 462 4.31335 -0.239644 0
M  V30 5116 C 461.135 5.27599 0.61744 0
M  V30 5117 C 460.174 6.11521 -0.26619 0
M  V30 5118 N 459.311 6.99938 0.550571 0
M  V30 5119 H 464.151 2.80187 -1.01484 0
M  V30 5120 H 461.688 1.37902 -0.511997 0
M  V30 5121 H 463.646 4.0101 1.15094 0
M  V30 5122 H 462.276 2.9003 1.41713 0
M  V30 5123 H 461.328 3.70426 -0.865381 0
M  V30 5124 H 462.64 4.90243 -0.919985 0
M  V30 5125 H 461.794 5.94906 1.19045 0
M  V30 5126 H 460.533 4.69176 1.33137 0
M  V30 5127 H 459.538 5.43166 -0.851507 0
M  V30 5128 H 460.763 6.72022 -0.9779 0
M  V30 5129 H 458.709 6.44008 1.24856 0
M  V30 5130 H 458.626 7.55966 -0.071832 0
M  V30 5131 H 459.894 7.71599 1.10702 0
M  V30 5132 N 464.123 0.554532 1.47522 0
M  V30 5133 C 465.353 0.0342074 2.06572 0
M  V30 5134 C 465.761 -1.26375 1.40805 0
M  V30 5135 O 465.104 -1.7683 0.49769 0
M  V30 5136 C 465.166 -0.235096 3.5873 0
M  V30 5137 C 464.83 0.973024 4.46521 0
M  V30 5138 C 465.827 1.8779 4.848 0
M  V30 5139 C 463.512 1.18694 4.88075 0
M  V30 5140 C 465.506 2.98039 5.63428 0
M  V30 5141 C 463.193 2.29254 5.66468 0
M  V30 5142 C 464.191 3.18757 6.04055 0
M  V30 5143 O 463.879 4.27401 6.8087 0
M  V30 5144 H 463.611 0.041587 0.67472 0
M  V30 5145 H 466.165 0.766748 1.90552 0
M  V30 5146 H 464.395 -1.02191 3.72953 0
M  V30 5147 H 466.084 -0.700477 3.9981 0
M  V30 5148 H 466.85 1.72467 4.53299 0
M  V30 5149 H 462.729 0.49947 4.58286 0
M  V30 5150 H 466.273 3.67926 5.92685 0
M  V30 5151 H 462.17 2.4455 5.97382 0
M  V30 5152 H 462.938 4.25415 6.9926 0
M  V30 5153 N 465.601 -1.54893 0.290851 0
M  V30 5154 C 466.829 -2.04343 -0.324288 0
M  V30 5155 C 467.244 -1.16859 -1.48289 0
M  V30 5156 O 466.601 -0.192018 -1.81487 0
M  V30 5157 C 466.652 -3.52756 -0.79026 0
M  V30 5158 O 466.373 -4.36913 0.322213 0
M  V30 5159 C 467.874 -4.18161 -1.4716 0
M  V30 5160 H 465.094 -0.667135 -0.0719173 0
M  V30 5161 H 467.638 -1.99981 0.427529 0
M  V30 5162 H 465.793 -3.57511 -1.49213 0
M  V30 5163 H 466.207 -5.24486 -0.0387372 0
M  V30 5164 H 467.681 -5.23562 -1.7489 0
M  V30 5165 H 468.158 -3.67282 -2.40834 0
M  V30 5166 H 468.764 -4.17454 -0.813178 0
M  V30 5167 N 467.08 -0.0183926 -1.57589 0
M  V30 5168 C 468.326 0.663543 -1.91638 0
M  V30 5169 C 468.659 1.72392 -0.894134 0
M  V30 5170 O 467.934 1.94316 0.0846449 0
M  V30 5171 C 468.217 1.28984 -3.36207 0
M  V30 5172 C 468.07 0.239761 -4.49161 0
M  V30 5173 C 469.389 2.2109 -3.80536 0
M  V30 5174 H 466.508 0.239746 -0.696915 0
M  V30 5175 H 469.15 -0.073456 -1.89858 0
M  V30 5176 H 467.3 1.91799 -3.37854 0
M  V30 5177 H 468.972 -0.390119 -4.59647 0
M  V30 5178 H 467.215 -0.435972 -4.31604 0
M  V30 5179 H 467.886 0.717383 -5.47319 0
M  V30 5180 H 470.362 1.68273 -3.80557 0
M  V30 5181 H 469.238 2.61869 -4.82406 0
M  V30 5182 H 469.499 3.09764 -3.15434 0
M  V30 5183 N 468.558 1.5553 0.254621 0
M  V30 5184 C 469.783 1.81383 1.00573 0
M  V30 5185 C 470.208 0.594419 1.78461 0
M  V30 5186 O 469.566 -0.456403 1.75461 0
M  V30 5187 C 469.614 3.04892 1.92545 0
M  V30 5188 O 468.718 2.81266 3.01601 0
M  V30 5189 H 468.059 0.598969 0.286587 0
M  V30 5190 H 470.589 2.02703 0.277952 0
M  V30 5191 H 470.599 3.34119 2.34155 0
M  V30 5192 H 469.274 3.93287 1.3527 0
M  V30 5193 H 467.851 2.63185 2.64174 0
M  V30 5194 N 470.036 -0.519951 1.48776 0
M  V30 5195 C 471.282 -1.27711 1.57536 0
M  V30 5196 C 471.615 -1.92547 0.252866 0
M  V30 5197 O 470.89 -1.7979 -0.742021 0
M  V30 5198 C 471.173 -2.35875 2.72094 0
M  V30 5199 C 471.026 -1.75664 4.1408 0
M  V30 5200 C 472.345 -3.37575 2.82367 0
M  V30 5201 H 469.464 -0.462971 0.573434 0
M  V30 5202 H 472.106 -0.578194 1.80989 0
M  V30 5203 H 470.256 -2.95488 2.52228 0
M  V30 5204 H 471.928 -1.20025 4.45412 0
M  V30 5205 H 470.171 -1.06154 4.20611 0
M  V30 5206 H 470.842 -2.54029 4.90075 0
M  V30 5207 H 473.318 -2.87929 3.00393 0
M  V30 5208 H 472.194 -4.1064 3.64233 0
M  V30 5209 H 472.455 -3.98743 1.90936 0
M  V30 5210 N 471.514 -1.37532 -0.769588 0
M  V30 5211 C 472.761 -1.3286 -1.52822 0
M  V30 5212 C 473.089 0.0862597 -1.94309 0
M  V30 5213 O 472.344 1.05995 -1.6451 0
M  V30 5214 C 472.643 -2.21558 -2.8044 0
M  V30 5215 C 472.309 -3.69796 -2.57996 0
M  V30 5216 C 470.971 -4.10194 -2.51583 0
M  V30 5217 C 473.323 -4.63699 -2.37976 0
M  V30 5218 C 470.651 -5.42608 -2.23144 0
M  V30 5219 C 473.003 -5.96353 -2.1106 0
M  V30 5220 C 471.667 -6.35853 -2.03093 0
M  V30 5221 H 470.937 -0.486168 -0.559215 0
M  V30 5222 H 473.584 -1.69757 -0.886277 0
M  V30 5223 H 471.889 -1.77663 -3.49204 0
M  V30 5224 H 473.586 -2.15256 -3.38328 0
M  V30 5225 H 470.176 -3.37759 -2.63851 0
M  V30 5226 H 474.36 -4.33346 -2.41919 0
M  V30 5227 H 469.616 -5.72173 -2.15472 0
M  V30 5228 H 473.79 -6.68667 -1.94568 0
M  V30 5229 H 471.417 -7.38382 -1.8082 0
M  V30 5230 N 472.992 0.995999 -1.22138 0
M  V30 5231 C 473.955 2.06711 -0.990109 0
M  V30 5232 C 474.955 1.60744 0.0422978 0
M  V30 5233 O 476.145 1.73095 -0.195895 0
M  V30 5234 C 473.277 3.37288 -0.49491 0
M  V30 5235 H 474.47 2.28661 -1.94047 0
M  V30 5236 H 472.023 1.16711 -1.03963 0
M  V30 5237 H 472.758 3.21022 0.459948 0
M  V30 5238 H 472.543 3.71986 -1.23971 0
M  V30 5239 H 474.033 4.16103 -0.353253 0
M  V30 5240 N 474.47 1.03057 1.19235 0
M  V30 5241 C 475.417 0.612832 2.22515 0
M  V30 5242 C 476.387 -0.374224 1.61829 0
M  V30 5243 O 477.572 -0.270501 1.88873 0
M  V30 5244 C 474.712 -0.028475 3.45088 0
M  V30 5245 C 473.825 1.00483 4.20151 0
M  V30 5246 C 472.96 0.333102 5.30155 0
M  V30 5247 C 471.999 1.3522 5.96977 0
M  V30 5248 N 471.136 0.70616 6.9854 0
M  V30 5249 H 475.976 1.49812 2.57605 0
M  V30 5250 H 473.513 0.749658 1.26564 0
M  V30 5251 H 475.471 -0.417548 4.15105 0
M  V30 5252 H 474.101 -0.877334 3.10649 0
M  V30 5253 H 473.153 1.51194 3.49062 0
M  V30 5254 H 474.465 1.77929 4.65986 0
M  V30 5255 H 473.619 -0.110725 6.06599 0
M  V30 5256 H 472.358 -0.473547 4.85396 0
M  V30 5257 H 471.363 1.80627 5.19282 0
M  V30 5258 H 472.588 2.16037 6.4382 0
M  V30 5259 H 470.534 -0.0803667 6.55951 0
M  V30 5260 H 470.451 1.41848 7.42573 0
M  V30 5261 H 471.719 0.286391 7.78974 0
M  V30 5262 N 475.948 -1.35272 0.808662 0
M  V30 5263 C 477.173 -2.03477 0.401475 0
M  V30 5264 C 477.598 -1.60537 -0.980279 0
M  V30 5265 O 476.956 -0.78304 -1.63518 0
M  V30 5266 C 477.004 -3.57181 0.495354 0
M  V30 5267 O 476.108 -4.09474 -0.490397 0
M  V30 5268 H 475.449 -0.642561 0.167366 0
M  V30 5269 H 477.979 -1.72824 1.09512 0
M  V30 5270 H 477.989 -4.06356 0.365912 0
M  V30 5271 H 476.664 -3.87784 1.5032 0
M  V30 5272 H 475.241 -3.71516 -0.321023 0
M  V30 5273 N 477.426 -0.562348 -1.47226 0
M  V30 5274 C 478.654 -0.0452275 -2.06851 0
M  V30 5275 C 479.069 1.25078 -1.41424 0
M  V30 5276 O 478.426 1.75156 -0.512513 0
M  V30 5277 C 478.477 0.148674 -3.61194 0
M  V30 5278 O 478.198 -1.09602 -4.24169 0
M  V30 5279 C 479.699 0.702488 -4.37699 0
M  V30 5280 H 476.919 -0.0481775 -0.669268 0
M  V30 5281 H 479.463 -0.777223 -1.89155 0
M  V30 5282 H 477.618 0.830817 -3.78386 0
M  V30 5283 H 478.032 -0.896982 -5.16773 0
M  V30 5284 H 479.506 0.78743 -5.46355 0
M  V30 5285 H 479.983 1.71493 -4.04335 0
M  V30 5286 H 480.589 0.0558772 -4.25263 0
M  V30 5287 N 478.904 1.54736 -0.299062 0
M  V30 5288 C 480.152 1.99706 0.31017 0
M  V30 5289 C 480.473 1.18896 1.54559 0
M  V30 5290 O 479.743 0.284445 1.93824 0
M  V30 5291 H 478.323 0.737686 0.117596 0
M  V30 5292 H 480.985 1.9054 -0.409943 0
M  V30 5293 H 480.081 3.06596 0.58355 0
M  V30 5294 N 480.382 0.0267497 1.57577 0
M  V30 5295 C 481.659 -0.690926 1.82991 0
M  V30 5296 C 482.039 -1.90471 0.910164 0
M  V30 5297 O 481.387 -2.28474 -0.0347985 0
M  V30 5298 C 481.597 -1.07139 3.32148 0
M  V30 5299 C 482.945 -1.46402 3.98562 0
M  V30 5300 O 483.969 -1.16443 3.36629 0
M  V30 5301 O 482.828 -2.02214 5.07712 0
M  V30 5302 H 479.922 -0.338747 0.75444 0
M  V30 5303 H 482.468 0.0542506 1.69613 0
M  V30 5304 H 481.24 -0.207394 3.9075 0
M  V30 5305 H 480.863 -1.87481 3.50623 0
M  V30 5306 N 481.861 -1.55662 -0.24637 0
M  V30 5307 C 483.272 -1.67953 -0.81539 0
M  V30 5308 C 483.623 -0.624302 -1.86002 0
M  V30 5309 O 482.748 0.229328 -2.15181 0
M  V30 5310 C 483.343 -3.04484 -1.48576 0
M  V30 5311 C 481.902 -3.18713 -2.00248 0
M  V30 5312 C 481.049 -2.6383 -0.853766 0
M  V30 5313 H 484 -1.58685 -0.0221692 0
M  V30 5314 H 484.021 -2.98959 -2.3538 0
M  V30 5315 H 483.533 -3.81264 -0.725222 0
M  V30 5316 H 481.634 -2.46757 -2.79181 0
M  V30 5317 H 481.747 -4.25628 -2.1995 0
M  V30 5318 H 480.111 -2.21667 -1.25442 0
M  V30 5319 H 480.894 -3.43135 -0.106302 0
M  V30 5320 N 483.339 0.512053 -1.4905 0
M  V30 5321 C 484.271 1.63121 -1.6101 0
M  V30 5322 C 485.284 1.55145 -0.493352 0
M  V30 5323 O 486.473 1.61278 -0.764955 0
M  V30 5324 C 483.573 3.01863 -1.54052 0
M  V30 5325 C 482.746 3.35138 -2.81072 0
M  V30 5326 C 481.805 4.5324 -2.67319 0
M  V30 5327 O 480.831 4.55571 -3.41238 0
M  V30 5328 N 482.033 5.52495 -1.78127 0
M  V30 5329 H 484.798 1.53292 -2.5753 0
M  V30 5330 H 482.359 0.699706 -1.45999 0
M  V30 5331 H 484.351 3.78774 -1.42521 0
M  V30 5332 H 482.921 3.05675 -0.654345 0
M  V30 5333 H 482.141 2.4723 -3.07036 0
M  V30 5334 H 483.429 3.54162 -3.65304 0
M  V30 5335 H 482.827 5.53403 -1.17308 0
M  V30 5336 H 481.384 6.28553 -1.72525 0
M  V30 5337 N 484.817 1.37938 0.762283 0
M  V30 5338 C 486.065 1.33404 1.51815 0
M  V30 5339 C 486.386 -0.0780975 1.94844 0
M  V30 5340 O 485.656 -1.02405 1.67003 0
M  V30 5341 H 484.236 0.490839 0.563104 0
M  V30 5342 H 486.898 1.72527 0.906669 0
M  V30 5343 H 485.994 1.97926 2.41313 0
M  V30 5344 N 486.295 -0.989507 1.22664 0
M  V30 5345 C 487.541 -1.7321 1.05481 0
M  V30 5346 C 487.874 -1.89852 -0.408635 0
M  V30 5347 O 487.149 -1.44416 -1.30285 0
M  V30 5348 C 487.432 -3.1357 1.77047 0
M  V30 5349 C 487.285 -3.04555 3.31008 0
M  V30 5350 C 488.604 -4.12812 1.5256 0
M  V30 5351 H 485.723 -0.628697 0.384589 0
M  V30 5352 H 488.365 -1.15258 1.51049 0
M  V30 5353 H 486.515 -3.63046 1.3831 0
M  V30 5354 H 488.187 -2.62674 3.7921 0
M  V30 5355 H 486.43 -2.41278 3.6051 0
M  V30 5356 H 487.101 -4.03894 3.76263 0
M  V30 5357 H 489.577 -3.72106 1.86215 0
M  V30 5358 H 488.453 -5.09132 2.05124 0
M  V30 5359 H 488.714 -4.39711 0.458936 0
M  V30 5360 N 487.773 -1.03688 -1.18687 0
M  V30 5361 C 489.022 -0.733235 -1.879 0
M  V30 5362 C 489.335 0.741745 -1.8099 0
M  V30 5363 O 490.541 1.15875 -2.4553 0
M  V30 5364 C 488.997 -1.26127 -3.37076 0
M  V30 5365 C 488.605 -2.76461 -3.52524 0
M  V30 5366 C 490.349 -1.03398 -4.11715 0
M  V30 5367 C 488.256 -3.22642 -4.95637 0
M  V30 5368 H 487.186 -0.270584 -0.703776 0
M  V30 5369 H 489.837 -1.25222 -1.34133 0
M  V30 5370 H 488.219 -0.670165 -3.90288 0
M  V30 5371 H 489.393 -3.41296 -3.09602 0
M  V30 5372 H 487.708 -2.97559 -2.91286 0
M  V30 5373 H 490.305 -1.3542 -5.17267 0
M  V30 5374 H 490.648 0.0289246 -4.1629 0
M  V30 5375 H 491.181 -1.5895 -3.64664 0
M  V30 5376 H 487.92 -4.28296 -4.96228 0
M  V30 5377 H 487.44 -2.62539 -5.39289 0
M  V30 5378 H 489.119 -3.16444 -5.64333 0
M  V30 5379 N 489.251 1.34841 -0.815825 0
M  V30 5380 C 490.667 1.51543 -0.500697 0
M  V30 5381 C 490.867 1.76261 0.976444 0
M  V30 5382 O 489.923 1.8094 1.76117 0
M  V30 5383 C 491.236 2.68487 -1.35407 0
M  V30 5384 C 492.784 2.82368 -1.35046 0
M  V30 5385 C 493.259 4.02347 -2.18816 0
M  V30 5386 N 494.75 4.09542 -2.16402 0
M  V30 5387 C 495.485 5.01517 -2.77971 0
M  V30 5388 N 494.981 5.98763 -3.48503 0
M  V30 5389 N 496.774 4.94334 -2.67563 0
M  V30 5390 H 488.925 1.17055 -1.77234 0
M  V30 5391 H 491.188 0.573481 -0.754866 0
M  V30 5392 H 490.894 2.56829 -2.40274 0
M  V30 5393 H 490.768 3.63321 -1.01377 0
M  V30 5394 H 493.155 2.93471 -0.309604 0
M  V30 5395 H 493.236 1.88363 -1.73069 0
M  V30 5396 H 492.88 3.92004 -3.22948 0
M  V30 5397 H 492.81 4.95551 -1.78148 0
M  V30 5398 H 495.301 3.39932 -1.65091 0
M  V30 5399 H 495.614 6.6556 -3.92747 0
M  V30 5400 H 493.959 5.98909 -3.52609 0
M  V30 5401 H 497.15 4.1732 -2.12041 0
M  V30 5402 H 497.323 5.6582 -3.15834 0
M  V30 5403 N 490.729 0.570148 1.46925 0
M  V30 5404 C 491.679 -0.190921 2.27199 0
M  V30 5405 C 492.663 -0.873457 1.35128 0
M  V30 5406 O 493.855 -0.769627 1.59392 0
M  V30 5407 C 490.984 -1.21204 3.21192 0
M  V30 5408 C 490.07 -0.532261 4.20747 0
M  V30 5409 N 490.461 0.405038 5.04176 0
M  V30 5410 C 488.759 -0.784582 4.39045 0
M  V30 5411 C 489.46 0.801149 5.76157 0
M  V30 5412 N 488.436 0.153082 5.43384 0
M  V30 5413 H 492.238 0.529535 2.8909 0
M  V30 5414 H 489.752 0.391019 1.57622 0
M  V30 5415 H 491.749 -1.77135 3.77398 0
M  V30 5416 H 490.409 -1.93345 2.6086 0
M  V30 5417 H 491.42 0.779903 5.11994 0
M  V30 5418 H 488.097 -1.49352 3.89872 0
M  V30 5419 H 489.487 1.57208 6.5325 0
M  V30 5420 N 492.207 -1.54576 0.307264 0
M  V30 5421 C 493.437 -2.04378 -0.302158 0
M  V30 5422 C 493.845 -1.18381 -1.47589 0
M  V30 5423 O 493.188 -0.20352 -1.82569 0
M  V30 5424 C 493.25 -3.50133 -0.815305 0
M  V30 5425 C 492.914 -4.56401 0.233977 0
M  V30 5426 C 493.911 -5.08884 1.06456 0
M  V30 5427 C 491.596 -5.0088 0.377478 0
M  V30 5428 C 493.59 -6.04394 2.02452 0
M  V30 5429 C 491.277 -5.96208 1.34088 0
M  V30 5430 C 492.275 -6.47849 2.16288 0
M  V30 5431 O 491.963 -7.41308 3.10994 0
M  V30 5432 H 491.695 -0.672502 -0.0686839 0
M  V30 5433 H 494.249 -2.00484 0.446682 0
M  V30 5434 H 492.479 -3.51371 -1.61478 0
M  V30 5435 H 494.168 -3.83098 -1.34129 0
M  V30 5436 H 494.934 -4.75311 0.964596 0
M  V30 5437 H 490.813 -4.60309 -0.252405 0
M  V30 5438 H 494.357 -6.44626 2.66652 0
M  V30 5439 H 490.254 -6.29198 1.44154 0
M  V30 5440 H 491.022 -7.5913 3.06045 0
M  V30 5441 N 493.685 -0.035106 -1.57561 0
M  V30 5442 C 494.931 0.64318 -1.92331 0
M  V30 5443 C 495.264 1.71434 -0.912368 0
M  V30 5444 O 494.539 1.94395 0.0640303 0
M  V30 5445 C 494.822 1.25411 -3.37556 0
M  V30 5446 C 494.675 0.192109 -4.4939 0
M  V30 5447 C 495.994 2.17041 -3.82859 0
M  V30 5448 H 493.113 0.232341 -0.699419 0
M  V30 5449 H 495.755 -0.0935889 -1.89769 0
M  V30 5450 H 493.905 1.88205 -3.39869 0
M  V30 5451 H 495.577 -0.438849 -4.59208 0
M  V30 5452 H 493.82 -0.481725 -4.31117 0
M  V30 5453 H 494.491 0.659292 -5.48049 0
M  V30 5454 H 496.967 1.64228 -3.8232 0
M  V30 5455 H 495.843 2.56738 -4.85157 0
M  V30 5456 H 496.104 3.06401 -3.18702 0
M  V30 5457 N 495.163 1.55791 0.238111 0
M  V30 5458 C 496.409 1.78297 0.966337 0
M  V30 5459 C 496.742 0.601903 1.84637 0
M  V30 5460 O 496.017 -0.399499 1.90353 0
M  V30 5461 C 496.3 3.10758 1.81939 0
M  V30 5462 C 496.153 4.39283 0.966958 0
M  V30 5463 C 497.472 3.39519 2.80027 0
M  V30 5464 H 494.591 0.648654 0.349882 0
M  V30 5465 H 497.233 1.88525 0.236253 0
M  V30 5466 H 495.383 3.02168 2.44185 0
M  V30 5467 H 497.055 4.59873 0.362514 0
M  V30 5468 H 495.298 4.32948 0.271669 0
M  V30 5469 H 495.969 5.28368 1.59784 0
M  V30 5470 H 498.445 3.48128 2.27917 0
M  V30 5471 H 497.321 4.33402 3.36829 0
M  V30 5472 H 497.582 2.60864 3.56934 0
M  V30 5473 N 496.642 -0.504142 1.49319 0
M  V30 5474 C 497.882 -1.26867 1.60263 0
M  V30 5475 C 498.246 -1.89924 0.281578 0
M  V30 5476 O 499.447 -2.67479 0.266176 0
M  V30 5477 C 497.718 -2.30956 2.72753 0
M  V30 5478 S 499.277 -3.1679 3.03628 0
M  V30 5479 H 496.095 -0.431198 0.565322 0
M  V30 5480 H 498.697 -0.571407 1.86963 0
M  V30 5481 H 497.401 -1.83156 3.67263 0
M  V30 5482 H 496.932 -3.05356 2.48035 0
M  V30 5483 H 498.947 -4.31549 2.44908 0
M  V30 5484 N 498.12 -1.38341 -0.754957 0
M  V30 5485 C 499.345 -1.37882 -1.5493 0
M  V30 5486 C 499.77 0.0296385 -1.88077 0
M  V30 5487 O 499.128 1.01133 -1.50472 0
M  V30 5488 C 499.176 -2.23996 -2.82592 0
M  V30 5489 O 498.28 -1.65612 -3.77686 0
M  V30 5490 H 497.621 -0.470384 -0.468652 0
M  V30 5491 H 500.151 -1.82084 -0.933082 0
M  V30 5492 H 500.161 -2.37806 -3.3153 0
M  V30 5493 H 498.836 -3.26365 -2.57796 0
M  V30 5494 H 497.413 -1.60936 -3.36384 0
M  V30 5495 N 499.598 0.982988 -1.23187 0
M  V30 5496 C 500.826 1.75921 -1.08901 0
M  V30 5497 C 501.241 1.85341 0.359719 0
M  V30 5498 O 500.598 1.33072 1.24892 0
M  V30 5499 C 500.649 3.18742 -1.70545 0
M  V30 5500 O 500.37 3.09814 -3.09753 0
M  V30 5501 C 501.871 4.1277 -1.61667 0
M  V30 5502 H 499.091 0.552166 -0.381252 0
M  V30 5503 H 501.635 1.23516 -1.62985 0
M  V30 5504 H 499.79 3.68182 -1.20501 0
M  V30 5505 H 500.204 3.99703 -3.39614 0
M  V30 5506 H 501.678 5.10697 -2.09506 0
M  V30 5507 H 502.155 4.3542 -0.575009 0
M  V30 5508 H 502.761 3.69232 -2.11064 0
M  V30 5509 N 501.076 1.04316 1.18135 0
M  V30 5510 C 502.487 0.775505 1.69832 0
M  V30 5511 C 502.838 -0.703348 1.8316 0
M  V30 5512 O 501.963 -1.54729 1.51287 0
M  V30 5513 C 502.558 1.40112 3.0847 0
M  V30 5514 C 501.117 1.18172 3.57368 0
M  V30 5515 C 500.264 1.49022 2.33854 0
M  V30 5516 H 503.215 1.20925 1.02775 0
M  V30 5517 H 503.236 0.805672 3.71873 0
M  V30 5518 H 502.748 2.47744 2.98738 0
M  V30 5519 H 500.849 0.124258 3.72393 0
M  V30 5520 H 500.962 1.8805 4.40652 0
M  V30 5521 H 499.326 0.909995 2.37889 0
M  V30 5522 H 500.109 2.57768 2.26738 0
M  V30 5523 N 502.554 -1.34406 0.822964 0
M  V30 5524 C 503.486 -2.28305 0.202375 0
M  V30 5525 C 504.499 -1.5103 -0.60777 0
M  V30 5526 O 505.688 -1.73057 -0.437444 0
M  V30 5527 C 502.788 -3.30836 -0.734911 0
M  V30 5528 C 501.961 -4.37388 0.0324177 0
M  V30 5529 C 501.02 -5.1968 -0.825803 0
M  V30 5530 O 500.046 -5.68556 -0.270771 0
M  V30 5531 N 501.248 -5.39393 -2.14558 0
M  V30 5532 H 504.013 -2.82201 1.00909 0
M  V30 5533 H 501.574 -1.4693 0.67993 0
M  V30 5534 H 503.566 -3.82786 -1.31365 0
M  V30 5535 H 502.136 -2.77334 -1.44238 0
M  V30 5536 H 501.356 -3.86152 0.792469 0
M  V30 5537 H 502.644 -5.05702 0.560633 0
M  V30 5538 H 502.042 -5.01357 -2.62025 0
M  V30 5539 H 500.599 -5.94461 -2.67318 0
M  V30 5540 N 504.032 -0.577932 -1.46621 0
M  V30 5541 C 505.257 -0.0652536 -2.07297 0
M  V30 5542 C 505.682 1.22828 -1.4246 0
M  V30 5543 O 505.04 1.74075 -0.506718 0
M  V30 5544 C 505.088 0.0920589 -3.60482 0
M  V30 5545 O 504.192 1.14972 -3.96049 0
M  V30 5546 H 503.533 -0.06065 -0.661224 0
M  V30 5547 H 506.063 -0.799515 -1.88332 0
M  V30 5548 H 506.073 0.299741 -4.06897 0
M  V30 5549 H 504.748 -0.852612 -4.07067 0
M  V30 5550 H 503.325 0.920879 -3.61351 0
M  V30 5551 N 505.51 1.54411 -0.315457 0
M  V30 5552 C 506.442 2.21527 0.588067 0
M  V30 5553 C 507.455 1.21263 1.08624 0
M  V30 5554 O 508.644 1.47777 1.00121 0
M  V30 5555 C 505.744 2.85963 1.81875 0
M  V30 5556 C 504.917 4.12291 1.46063 0
M  V30 5557 C 503.976 4.60396 2.54799 0
M  V30 5558 O 503.002 5.25265 2.19283 0
M  V30 5559 N 504.204 4.33935 3.85591 0
M  V30 5560 H 506.969 2.99697 0.013414 0
M  V30 5561 H 504.53 1.61308 -0.138295 0
M  V30 5562 H 506.522 3.15071 2.53993 0
M  V30 5563 H 505.092 2.11548 2.30144 0
M  V30 5564 H 504.312 3.90036 0.571445 0
M  V30 5565 H 505.6 4.9452 1.19695 0
M  V30 5566 H 504.998 3.81996 4.17248 0
M  V30 5567 H 503.555 4.67718 4.53964 0
M  V30 5568 N 506.988 0.0434614 1.5754 0
M  V30 5569 C 508.218 -0.640905 1.96408 0
M  V30 5570 C 508.626 -1.65365 0.919297 0
M  V30 5571 O 507.969 -1.83395 -0.105795 0
M  V30 5572 C 508.031 -1.39141 3.31482 0
M  V30 5573 C 507.695 -0.535375 4.53853 0
M  V30 5574 C 508.692 0.195335 5.19533 0
M  V30 5575 C 506.377 -0.468564 5.0011 0
M  V30 5576 C 508.371 0.981377 6.298 0
M  V30 5577 C 506.058 0.321171 6.10255 0
M  V30 5578 C 507.056 1.04484 6.74961 0
M  V30 5579 O 506.744 1.8216 7.8299 0
M  V30 5580 H 506.476 -0.180584 0.651433 0
M  V30 5581 H 509.03 0.103848 2.05137 0
M  V30 5582 H 507.26 -2.18162 3.19284 0
M  V30 5583 H 508.949 -1.96526 3.55151 0
M  V30 5584 H 509.715 0.15314 4.84758 0
M  V30 5585 H 505.594 -1.02142 4.49542 0
M  V30 5586 H 509.138 1.54674 6.80237 0
M  V30 5587 H 505.035 0.365032 6.44467 0
M  V30 5588 H 505.803 1.74289 7.99728 0
M  V30 5589 N 508.466 -1.55915 -0.229846 0
M  V30 5590 C 509.696 -1.82352 -0.971152 0
M  V30 5591 C 510.104 -0.619231 -1.7878 0
M  V30 5592 O 509.447 0.421597 -1.78797 0
M  V30 5593 C 509.509 -3.02399 -1.9441 0
M  V30 5594 C 509.173 -4.37739 -1.31277 0
M  V30 5595 C 510.17 -5.15074 -0.706757 0
M  V30 5596 C 507.855 -4.84454 -1.32702 0
M  V30 5597 C 509.849 -6.37281 -0.123413 0
M  V30 5598 C 507.536 -6.06605 -0.739831 0
M  V30 5599 C 508.534 -6.82858 -0.139071 0
M  V30 5600 O 508.222 -8.027 0.439007 0
M  V30 5601 H 507.954 -0.61035 -0.290601 0
M  V30 5602 H 510.508 -2.03839 -0.252746 0
M  V30 5603 H 508.738 -2.76709 -2.70128 0
M  V30 5604 H 510.427 -3.15779 -2.55026 0
M  V30 5605 H 511.193 -4.80093 -0.688131 0
M  V30 5606 H 507.072 -4.25081 -1.78402 0
M  V30 5607 H 510.616 -6.96741 0.346124 0
M  V30 5608 H 506.513 -6.4106 -0.755841 0
M  V30 5609 H 507.281 -8.17824 0.332521 0
M  V30 5610 N 509.944 0.496216 -1.49584 0
M  V30 5611 C 510.874 1.60576 -1.69521 0
M  V30 5612 C 511.855 1.61169 -0.543933 0
M  V30 5613 O 513.04 1.77834 -0.78031 0
M  V30 5614 C 510.17 2.99038 -1.76616 0
M  V30 5615 C 509.124 3.13312 -2.91581 0
M  V30 5616 C 508.45 4.53172 -2.83794 0
M  V30 5617 C 509.75 2.92886 -4.32452 0
M  V30 5618 H 511.444 1.44146 -2.62416 0
M  V30 5619 H 508.99 0.692024 -1.26282 0
M  V30 5620 H 510.943 3.76564 -1.8915 0
M  V30 5621 H 509.667 3.16568 -0.80324 0
M  V30 5622 H 508.326 2.38213 -2.78658 0
M  V30 5623 H 507.974 4.67585 -1.854 0
M  V30 5624 H 507.674 4.63662 -3.60958 0
M  V30 5625 H 509.198 5.32752 -2.98342 0
M  V30 5626 H 510.612 3.60178 -4.46032 0
M  V30 5627 H 509.009 3.14844 -5.10875 0
M  V30 5628 H 510.079 1.88966 -4.46565 0
M  V30 5629 N 511.423 1.38739 0.74761 0
M  V30 5630 C 512.386 1.36241 1.84312 0
M  V30 5631 C 513.386 0.261811 1.58654 0
M  V30 5632 O 514.576 0.519031 1.66288 0
M  V30 5633 C 511.708 1.12253 3.21888 0
M  V30 5634 H 512.901 2.33712 1.87933 0
M  V30 5635 H 510.454 1.2412 0.949946 0
M  V30 5636 H 511.189 0.154133 3.23934 0
M  V30 5637 H 510.974 1.91943 3.41907 0
M  V30 5638 H 512.464 1.13215 4.0196 0
M  V30 5639 N 512.901 -0.976442 1.23707 0
M  V30 5640 C 513.811 -2.10359 1.03856 0
M  V30 5641 C 514.827 -1.73991 -0.0180919 0
M  V30 5642 O 516.003 -2.0061 0.178211 0
M  V30 5643 C 513.068 -3.40809 0.636387 0
M  V30 5644 C 512.129 -3.91179 1.76854 0
M  V30 5645 C 511.362 -5.15404 1.38546 0
M  V30 5646 O 511.585 -5.69754 0.27142 0
M  V30 5647 O 510.519 -5.5994 2.20797 0
M  V30 5648 H 514.345 -2.29997 1.98331 0
M  V30 5649 H 511.93 -1.08742 1.02448 0
M  V30 5650 H 513.812 -4.19269 0.423223 0
M  V30 5651 H 512.487 -3.22493 -0.279322 0
M  V30 5652 H 511.394 -3.13819 2.03638 0
M  V30 5653 H 512.727 -4.13958 2.6627 0
M  V30 5654 N 514.379 -1.04941 -1.1758 0
M  V30 5655 C 515.326 -0.648155 -2.21512 0
M  V30 5656 C 516.296 0.348431 -1.62404 0
M  V30 5657 O 517.481 0.240419 -1.89279 0
M  V30 5658 C 514.621 -0.0264291 -3.4509 0
M  V30 5659 C 513.734 -1.07154 -4.185 0
M  V30 5660 C 512.869 -0.417403 -5.29558 0
M  V30 5661 C 511.908 -1.447 -5.94751 0
M  V30 5662 N 511.045 -0.817203 -6.97328 0
M  V30 5663 H 515.885 -1.53891 -2.55189 0
M  V30 5664 H 513.422 -0.769699 -1.25356 0
M  V30 5665 H 515.38 0.351456 -4.15717 0
M  V30 5666 H 514.01 0.827802 -3.12005 0
M  V30 5667 H 513.062 -1.56728 -3.46613 0
M  V30 5668 H 514.374 -1.8532 -4.63096 0
M  V30 5669 H 513.528 0.0142061 -6.06698 0
M  V30 5670 H 512.267 0.396265 -4.86087 0
M  V30 5671 H 511.272 -1.88865 -5.16343 0
M  V30 5672 H 512.497 -2.26252 -6.40302 0
M  V30 5673 H 510.443 -0.0239995 -6.55996 0
M  V30 5674 H 510.36 -1.53644 -7.40223 0
M  V30 5675 H 511.628 -0.410283 -7.7842 0
M  V30 5676 N 515.857 1.33968 -0.830081 0
M  V30 5677 C 516.807 2.26845 -0.229242 0
M  V30 5678 C 517.791 1.48862 0.610659 0
M  V30 5679 O 518.983 1.70808 0.464067 0
M  V30 5680 C 516.112 3.3798 0.602057 0
M  V30 5681 C 515.198 4.23369 -0.248866 0
M  V30 5682 N 515.589 4.88182 -1.32334 0
M  V30 5683 C 513.887 4.45987 -0.0344077 0
M  V30 5684 C 514.588 5.51671 -1.84482 0
M  V30 5685 N 513.564 5.31348 -1.14762 0
M  V30 5686 H 517.366 2.74464 -1.05104 0
M  V30 5687 H 514.88 1.4777 -0.673623 0
M  V30 5688 H 516.877 4.03494 1.04873 0
M  V30 5689 H 515.537 2.9191 1.42193 0
M  V30 5690 H 516.548 4.88988 -1.70619 0
M  V30 5691 H 513.225 4.10658 0.752727 0
M  V30 5692 H 514.615 6.13308 -2.74413 0
M  V30 5693 N 517.335 0.585699 1.46312 0
M  V30 5694 C 518.265 -0.133556 2.33118 0
M  V30 5695 C 519.246 -0.880707 1.45525 0
M  V30 5696 O 520.431 -0.855579 1.74337 0
M  V30 5697 C 517.561 -1.14585 3.27853 0
M  V30 5698 C 516.515 -0.513341 4.2491 0
M  V30 5699 C 515.841 -1.63231 5.09175 0
M  V30 5700 C 517.141 0.551413 5.19381 0
M  V30 5701 H 518.835 0.59121 2.93505 0
M  V30 5702 H 516.381 0.285761 1.41136 0
M  V30 5703 H 518.334 -1.65741 3.87438 0
M  V30 5704 H 517.058 -1.90093 2.65579 0
M  V30 5705 H 515.717 -0.0228349 3.66593 0
M  V30 5706 H 515.365 -2.37713 4.43285 0
M  V30 5707 H 515.065 -1.21473 5.74907 0
M  V30 5708 H 516.589 -2.14658 5.71624 0
M  V30 5709 H 518.003 0.124804 5.73164 0
M  V30 5710 H 516.4 0.889486 5.93471 0
M  V30 5711 H 517.47 1.43655 4.63132 0
M  V30 5712 N 518.813 -1.54241 0.323641 0
M  V30 5713 C 520.06 -2.0057 -0.27891 0
M  V30 5714 C 520.388 -1.21181 -1.52136 0
M  V30 5715 O 519.643 -0.282043 -1.93657 0
M  V30 5716 C 519.942 -3.5129 -0.658031 0
M  V30 5717 C 519.608 -4.48281 0.485252 0
M  V30 5718 C 518.27 -4.74519 0.799055 0
M  V30 5719 C 520.622 -5.05909 1.25322 0
M  V30 5720 C 517.95 -5.55643 1.88354 0
M  V30 5721 C 520.302 -5.88215 2.32779 0
M  V30 5722 C 518.966 -6.12755 2.64741 0
M  V30 5723 H 518.236 -0.733938 -0.10206 0
M  V30 5724 H 520.883 -1.862 0.447435 0
M  V30 5725 H 519.188 -3.63388 -1.4648 0
M  V30 5726 H 520.885 -3.84578 -1.1358 0
M  V30 5727 H 517.475 -4.27979 0.230593 0
M  V30 5728 H 521.659 -4.8562 1.02404 0
M  V30 5729 H 516.915 -5.72888 2.13564 0
M  V30 5730 H 521.089 -6.31888 2.92729 0
M  V30 5731 H 518.716 -6.75404 3.48904 0
M  V30 5732 N 520.291 -0.0518155 -1.57515 0
M  V30 5733 C 521.516 0.634896 -1.97443 0
M  V30 5734 C 521.941 1.63546 -0.929207 0
M  V30 5735 O 521.299 1.80981 0.107484 0
M  V30 5736 C 521.347 1.29765 -3.36442 0
M  V30 5737 O 520.451 2.41333 -3.34413 0
M  V30 5738 H 519.792 0.164994 -0.643174 0
M  V30 5739 H 522.322 -0.120407 -2.04245 0
M  V30 5740 H 522.332 1.64918 -3.73184 0
M  V30 5741 H 521.007 0.564361 -4.12053 0
M  V30 5742 H 519.584 2.08122 -3.09418 0
M  V30 5743 N 521.769 1.56035 0.221574 0
M  V30 5744 C 522.997 1.8313 0.962864 0
M  V30 5745 C 523.412 0.630934 1.77946 0
M  V30 5746 O 522.769 -0.400519 1.78051 0
M  V30 5747 C 522.82 3.08742 1.88045 0
M  V30 5748 O 522.541 4.24147 1.09686 0
M  V30 5749 C 524.042 3.48824 2.73563 0
M  V30 5750 H 521.262 0.608775 0.282194 0
M  V30 5751 H 523.806 2.03124 0.23681 0
M  V30 5752 H 521.961 2.90723 2.56045 0
M  V30 5753 H 522.375 4.95505 1.71974 0
M  V30 5754 H 523.849 4.39752 3.3365 0
M  V30 5755 H 524.326 2.70575 3.45956 0
M  V30 5756 H 524.932 3.69282 2.10976 0
M  V30 5757 N 523.247 -0.488276 1.49845 0
M  V30 5758 C 524.496 -1.23826 1.59217 0
M  V30 5759 C 524.809 -1.93439 0.289966 0
M  V30 5760 O 526.015 -2.70229 0.262382 0
M  V30 5761 C 524.471 -2.24902 2.80976 0
M  V30 5762 C 524.079 -1.6117 4.18005 0
M  V30 5763 C 525.823 -3.00648 2.99685 0
M  V30 5764 C 523.73 -2.60431 5.3097 0
M  V30 5765 H 522.66 -0.465858 0.592868 0
M  V30 5766 H 525.311 -0.510645 1.76252 0
M  V30 5767 H 523.693 -3.0088 2.57463 0
M  V30 5768 H 524.867 -0.910968 4.51706 0
M  V30 5769 H 523.182 -0.97767 4.0476 0
M  V30 5770 H 525.779 -3.74903 3.81251 0
M  V30 5771 H 526.122 -3.5902 2.10738 0
M  V30 5772 H 526.655 -2.31784 3.23297 0
M  V30 5773 H 523.394 -2.06823 6.22017 0
M  V30 5774 H 522.914 -3.28707 5.01709 0
M  V30 5775 H 524.593 -3.22606 5.60834 0
M  V30 5776 N 524.725 -1.39134 -0.740242 0
M  V30 5777 C 526.136 -1.32208 -1.31825 0
M  V30 5778 C 526.487 0.0159919 -1.96193 0
M  V30 5779 O 525.612 0.918111 -1.95958 0
M  V30 5780 C 526.207 -2.39436 -2.39699 0
M  V30 5781 C 524.766 -2.36048 -2.93187 0
M  V30 5782 C 523.913 -2.21599 -1.66701 0
M  V30 5783 H 526.864 -1.49298 -0.538133 0
M  V30 5784 H 526.885 -2.05922 -3.19963 0
M  V30 5785 H 526.397 -3.36811 -1.92821 0
M  V30 5786 H 524.498 -1.42295 -3.44359 0
M  V30 5787 H 524.611 -3.30704 -3.46658 0
M  V30 5788 H 522.975 -1.68681 -1.90837 0
M  V30 5789 H 523.758 -3.20936 -1.21882 0
M  V30 5790 N 526.204 0.969867 -1.24223 0
M  V30 5791 C 527.114 2.09806 -1.0497 0
M  V30 5792 C 528.13 1.73998 0.00886455 0
M  V30 5793 O 529.306 2.00513 -0.188848 0
M  V30 5794 C 526.371 3.40467 -0.654452 0
M  V30 5795 C 525.432 3.90236 -1.78926 0
M  V30 5796 C 524.665 5.14662 -1.41277 0
M  V30 5797 O 524.888 5.69602 -0.301632 0
M  V30 5798 O 523.822 5.58761 -2.23763 0
M  V30 5799 H 527.648 2.28942 -1.99548 0
M  V30 5800 H 525.233 1.08197 -1.03023 0
M  V30 5801 H 527.115 4.19039 -0.445452 0
M  V30 5802 H 525.79 3.22636 0.262216 0
M  V30 5803 H 524.697 3.12735 -2.05299 0
M  V30 5804 H 526.03 4.1254 -2.68462 0
M  V30 5805 N 527.682 1.05563 1.17022 0
M  V30 5806 C 528.612 0.681026 2.23348 0
M  V30 5807 C 529.593 -0.322983 1.67005 0
M  V30 5808 O 530.778 -0.199746 1.9317 0
M  V30 5809 C 527.908 0.0589053 3.4725 0
M  V30 5810 C 526.862 0.988082 4.16438 0
M  V30 5811 C 526.188 0.229646 5.34207 0
M  V30 5812 C 527.488 2.31388 4.68249 0
M  V30 5813 H 529.182 1.56993 2.54938 0
M  V30 5814 H 526.728 0.756302 1.2254 0
M  V30 5815 H 528.681 -0.214982 4.20851 0
M  V30 5816 H 527.405 -0.864968 3.14938 0
M  V30 5817 H 526.064 1.24659 3.44754 0
M  V30 5818 H 525.712 -0.697111 4.98146 0
M  V30 5819 H 525.412 0.848815 5.81437 0
M  V30 5820 H 526.936 -0.0368694 6.10589 0
M  V30 5821 H 528.35 2.09964 5.33468 0
M  V30 5822 H 526.747 2.88736 5.26072 0
M  V30 5823 H 527.817 2.94982 3.84855 0
M  V30 5824 N 529.16 -1.33526 0.837174 0
M  V30 5825 C 530.409 -1.97098 0.428387 0
M  V30 5826 C 530.722 -1.67062 -1.01734 0
M  V30 5827 O 531.928 -2.24235 -1.53072 0
M  V30 5828 C 530.384 -3.52725 0.715075 0
M  V30 5829 C 529.992 -3.9164 2.17537 0
M  V30 5830 C 531.736 -4.22857 0.373154 0
M  V30 5831 C 529.643 -5.40237 2.40619 0
M  V30 5832 H 528.573 -0.737589 0.156455 0
M  V30 5833 H 531.224 -1.52169 1.02552 0
M  V30 5834 H 529.606 -3.95971 0.0475904 0
M  V30 5835 H 530.78 -3.59456 2.88319 0
M  V30 5836 H 529.095 -3.34485 2.4801 0
M  V30 5837 H 531.692 -5.32133 0.523264 0
M  V30 5838 H 532.035 -4.10647 -0.683708 0
M  V30 5839 H 532.568 -3.85135 0.995801 0
M  V30 5840 H 529.307 -5.57449 3.44864 0
M  V30 5841 H 528.827 -5.73887 1.74396 0
M  V30 5842 H 530.506 -6.07102 2.23688 0
M  V30 5843 N 530.638 -0.59345 -1.46 0
M  V30 5844 C 531.586 0.146268 -2.3214 0
M  V30 5845 C 532.58 0.873743 -1.45128 0
M  V30 5846 O 533.786 0.790912 -1.61693 0
M  V30 5847 H 530.161 0.0660349 -0.749095 0
M  V30 5848 H 532.132 -0.598895 -2.92328 0
M  V30 5849 C 530.881 1.1396 -3.28494 0
M  V30 5850 H 530.204 0.589252 -3.95434 0
M  V30 5851 H 531.644 1.62738 -3.91526 0
M  V30 5852 C 530.103 2.20604 -2.54628 0
M  V30 5853 O 530.633 3.28128 -2.31722 0
M  V30 5854 N 528.839 1.95502 -2.15005 0
M  V30 5855 H 528.386 1.0807 -2.33834 0
M  V30 5856 H 528.344 2.67064 -1.65904 0
M  V30 5857 N 532.116 1.54067 -0.331816 0
M  V30 5858 C 533.346 2.04833 0.269605 0
M  V30 5859 C 533.754 1.20714 1.45687 0
M  V30 5860 O 533.097 0.232539 1.82222 0
M  V30 5861 C 533.159 3.51386 0.759499 0
M  V30 5862 C 532.823 4.55971 -0.306557 0
M  V30 5863 C 533.82 5.07126 -1.14538 0
M  V30 5864 C 531.505 5.00216 -0.457116 0
M  V30 5865 C 533.499 6.01096 -2.12042 0
M  V30 5866 C 531.186 5.93999 -1.43556 0
M  V30 5867 C 532.184 6.44326 -2.26568 0
M  V30 5868 O 531.872 7.36267 -3.22749 0
M  V30 5869 H 531.604 0.673509 0.0579763 0
M  V30 5870 H 534.158 1.99748 -0.478521 0
M  V30 5871 H 532.388 3.53896 1.55867 0
M  V30 5872 H 534.077 3.85184 1.28017 0
M  V30 5873 H 534.843 4.73716 -1.04009 0
M  V30 5874 H 530.722 4.60652 0.179142 0
M  V30 5875 H 534.266 6.40302 -2.76873 0
M  V30 5876 H 530.163 6.26825 -1.54146 0
M  V30 5877 H 530.931 7.54165 -3.18083 0
M  V30 5878 N 533.594 0.0601682 1.57485 0
M  V30 5879 C 534.544 -0.920969 2.08572 0
M  V30 5880 C 535.528 -1.26617 0.992827 0
M  V30 5881 O 536.72 -1.24708 1.25606 0
M  V30 5882 C 533.849 -2.19267 2.64153 0
M  V30 5883 C 532.935 -1.87447 3.80427 0
M  V30 5884 N 533.326 -1.26025 4.89848 0
M  V30 5885 C 531.624 -2.17265 3.89502 0
M  V30 5886 C 532.325 -1.12036 5.70809 0
M  V30 5887 N 531.301 -1.62624 5.18705 0
M  V30 5888 H 535.103 -0.441561 2.90564 0
M  V30 5889 H 532.617 -0.144043 1.6176 0
M  V30 5890 H 534.614 -2.90462 2.99061 0
M  V30 5891 H 533.274 -2.67806 1.83603 0
M  V30 5892 H 534.285 -0.931336 5.09457 0
M  V30 5893 H 530.962 -2.68262 3.19909 0
M  V30 5894 H 532.352 -0.642783 6.68818 0
M  V30 5895 N 535.072 -1.5615 -0.213296 0
M  V30 5896 C 536.004 -1.89586 -1.28802 0
M  V30 5897 C 537.017 -0.784844 -1.42633 0
M  V30 5898 O 538.206 -1.06319 -1.43383 0
M  V30 5899 C 535.306 -2.09665 -2.66259 0
M  V30 5900 C 534.479 -3.40726 -2.7427 0
M  V30 5901 C 533.538 -3.50137 -3.92798 0
M  V30 5902 O 532.564 -4.23105 -3.8075 0
M  V30 5903 N 533.766 -2.81886 -5.07465 0
M  V30 5904 H 536.531 -2.82368 -1.00442 0
M  V30 5905 H 534.092 -1.56796 -0.403302 0
M  V30 5906 H 536.084 -2.13268 -3.43946 0
M  V30 5907 H 534.654 -1.23469 -2.87183 0
M  V30 5908 H 533.874 -3.4915 -1.82997 0
M  V30 5909 H 535.162 -4.27048 -2.76599 0
M  V30 5910 H 534.56 -2.22397 -5.2015 0
M  V30 5911 H 533.117 -2.91139 -5.83165 0
M  V30 5912 N 536.55 0.480323 -1.50102 0
M  V30 5913 C 537.5 1.57685 -1.6468 0
M  V30 5914 C 538.484 1.52878 -0.5017 0
M  V30 5915 O 539.676 1.60058 -0.755668 0
M  V30 5916 C 536.805 2.96185 -1.73578 0
M  V30 5917 C 535.891 3.0591 -2.93734 0
M  V30 5918 N 536.282 2.85471 -4.1754 0
M  V30 5919 C 534.58 3.37036 -2.92101 0
M  V30 5920 C 535.281 2.99921 -4.9842 0
M  V30 5921 N 534.257 3.29715 -4.32191 0
M  V30 5922 H 538.059 1.40568 -2.58104 0
M  V30 5923 H 535.573 0.686874 -1.47159 0
M  V30 5924 H 537.57 3.75015 -1.82124 0
M  V30 5925 H 536.23 3.14356 -0.813057 0
M  V30 5926 H 537.241 2.61235 -4.47188 0
M  V30 5927 H 533.918 3.61253 -2.09291 0
M  V30 5928 H 535.308 2.88436 -6.06839 0
M  V30 5929 N 538.028 1.39524 0.732853 0
M  V30 5930 C 538.976 1.38563 1.86824 0
M  V30 5931 C 539.97 0.268467 1.67259 0
M  V30 5932 O 541.176 0.438613 1.74574 0
M  V30 5933 H 537.551 0.432737 0.615014 0
M  V30 5934 H 539.522 2.34328 1.84751 0
M  V30 5935 C 538.271 1.2481 3.24527 0
M  V30 5936 H 537.594 2.10044 3.40179 0
M  V30 5937 H 539.034 1.28194 4.04156 0
M  V30 5938 C 537.493 -0.0432825 3.36872 0
M  V30 5939 O 538.023 -1.01268 3.88726 0
M  V30 5940 N 536.229 -0.107055 2.90403 0
M  V30 5941 H 535.776 0.682512 2.48394 0
M  V30 5942 H 535.734 -0.970618 2.99042 0
M  V30 5943 N 539.506 -0.963266 1.24736 0
M  V30 5944 C 540.731 -1.74699 1.11781 0
M  V30 5945 C 541.156 -1.85267 -0.325258 0
M  V30 5946 O 540.514 -1.32681 -1.23553 0
M  V30 5947 C 540.562 -3.14322 1.76731 0
M  V30 5948 O 539.666 -3.99043 1.04109 0
M  V30 5949 H 539.007 -0.53684 0.390767 0
M  V30 5950 H 541.537 -1.20801 1.65131 0
M  V30 5951 H 541.547 -3.64824 1.82668 0
M  V30 5952 H 540.222 -3.05946 2.81726 0
M  V30 5953 H 538.799 -3.5752 1.05991 0
M  V30 5954 N 540.985 -1.06182 -1.16461 0
M  V30 5955 C 541.948 -0.675723 -2.19013 0
M  V30 5956 C 542.948 0.277963 -1.58379 0
M  V30 5957 O 544.138 0.0604962 -1.74095 0
M  V30 5958 C 541.27 0.00591459 -3.40899 0
M  V30 5959 H 542.463 -1.58353 -2.54685 0
M  V30 5960 H 540.016 -0.856908 -1.30716 0
M  V30 5961 H 540.751 0.92652 -3.10783 0
M  V30 5962 H 540.536 -0.67984 -3.86161 0
M  V30 5963 H 542.026 0.26181 -4.16778 0
M  V30 5964 N 542.463 1.3308 -0.844243 0
M  V30 5965 C 543.711 1.97215 -0.441676 0
M  V30 5966 C 544.032 1.67185 1.0037 0
M  V30 5967 O 543.302 0.973588 1.69994 0
M  V30 5968 H 541.882 0.72959 -0.160335 0
M  V30 5969 H 544.544 1.62348 -1.07838 0
M  V30 5970 H 543.64 3.06698 -0.57815 0
M  V30 5971 N 543.941 0.601185 1.45683 0
M  V30 5972 C 544.871 -0.108824 2.33246 0
M  V30 5973 C 545.852 -0.865223 1.46451 0
M  V30 5974 O 547.037 -0.83704 1.75235 0
M  V30 5975 C 544.167 -1.11101 3.2905 0
M  V30 5976 C 543.121 -0.468244 4.25431 0
M  V30 5977 C 542.447 -1.57822 5.10878 0
M  V30 5978 C 543.747 0.606469 5.18767 0
M  V30 5979 H 545.441 0.622306 2.92861 0
M  V30 5980 H 542.987 0.300714 1.40825 0
M  V30 5981 H 544.94 -1.61622 3.89174 0
M  V30 5982 H 543.664 -1.87265 2.67581 0
M  V30 5983 H 542.323 0.0160484 3.66596 0
M  V30 5984 H 541.971 -2.32998 4.45781 0
M  V30 5985 H 541.671 -1.15369 5.76163 0
M  V30 5986 H 543.195 -2.08583 5.73869 0
M  V30 5987 H 544.609 0.185589 5.73 0
M  V30 5988 H 543.006 0.952381 5.92494 0
M  V30 5989 H 544.076 1.48559 4.61582 0
M  V30 5990 N 545.419 -1.53889 0.339982 0
M  V30 5991 C 546.668 -2.00035 -0.258604 0
M  V30 5992 C 546.981 -1.23179 -1.51942 0
M  V30 5993 O 548.187 -1.59784 -2.19503 0
M  V30 5994 C 546.643 -3.56249 -0.511359 0
M  V30 5995 C 546.251 -4.41957 0.733349 0
M  V30 5996 C 547.995 -4.1082 -1.069 0
M  V30 5997 C 545.902 -5.89673 0.451591 0
M  V30 5998 H 544.832 -0.747284 -0.10041 0
M  V30 5999 H 547.483 -1.77776 0.454758 0
M  V30 6000 H 545.865 -3.7456 -1.28533 0
M  V30 6001 H 547.039 -4.35421 1.50815 0
M  V30 6002 H 545.354 -3.9836 1.21237 0
M  V30 6003 H 547.951 -5.18789 -1.2947 0
M  V30 6004 H 548.294 -3.63817 -2.02343 0
M  V30 6005 H 548.827 -3.96205 -0.355817 0
M  V30 6006 H 545.566 -6.40903 1.37565 0
M  V30 6007 H 545.086 -5.99122 -0.285193 0
M  V30 6008 H 546.765 -6.46965 0.0675067 0
M  V30 6009 N 546.897 -0.0685191 -1.57451 0
M  V30 6010 C 548.122 0.613919 -1.98106 0
M  V30 6011 C 548.547 1.62551 -0.946501 0
M  V30 6012 O 547.905 1.81085 0.0882824 0
M  V30 6013 C 547.953 1.26189 -3.378 0
M  V30 6014 O 547.057 2.37773 -3.36954 0
M  V30 6015 H 546.398 0.158163 -0.644888 0
M  V30 6016 H 548.928 -0.142063 -2.04106 0
M  V30 6017 H 548.938 1.60951 -3.74912 0
M  V30 6018 H 547.613 0.520625 -4.12629 0
M  V30 6019 H 546.19 2.04829 -3.11608 0
M  V30 6020 N 548.375 1.56261 0.205012 0
M  V30 6021 C 549.791 1.49623 0.555433 0
M  V30 6022 C 549.991 0.766719 1.86343 0
M  V30 6023 O 549.047 0.313158 2.50551 0
M  V30 6024 C 550.36 2.94253 0.619347 0
M  V30 6025 C 551.908 3.04868 0.708855 0
M  V30 6026 C 552.383 4.50888 0.803969 0
M  V30 6027 N 553.874 4.54999 0.867758 0
M  V30 6028 C 554.609 5.65284 0.96135 0
M  V30 6029 N 554.105 6.85282 1.01786 0
M  V30 6030 N 555.898 5.53174 0.997771 0
M  V30 6031 H 548.049 2.0211 -0.653094 0
M  V30 6032 H 550.312 0.919333 -0.231366 0
M  V30 6033 H 550.018 3.50643 -0.272458 0
M  V30 6034 H 549.892 3.47063 1.47741 0
M  V30 6035 H 552.279 2.48532 1.5911 0
M  V30 6036 H 552.36 2.55199 -0.175205 0
M  V30 6037 H 552.004 5.07846 -0.0738798 0
M  V30 6038 H 551.934 4.98279 1.70369 0
M  V30 6039 H 554.425 3.68588 0.833735 0
M  V30 6040 H 554.738 7.65081 1.08951 0
M  V30 6041 H 553.083 6.8796 0.986706 0
M  V30 6042 H 556.274 4.5835 0.950392 0
M  V30 6043 H 556.447 6.39151 1.06725 0
M  V30 6044 N 549.853 -0.472356 1.50355 0
M  V30 6045 C 550.783 -1.57859 1.72055 0
M  V30 6046 C 551.764 -1.60283 0.569505 0
M  V30 6047 O 552.949 -1.7657 0.808503 0
M  V30 6048 C 550.079 -2.96191 1.81351 0
M  V30 6049 C 549.033 -3.08633 2.96529 0
M  V30 6050 C 548.359 -4.486 2.90968 0
M  V30 6051 C 549.659 -2.85969 4.37057 0
M  V30 6052 H 551.353 -1.39953 2.64676 0
M  V30 6053 H 548.899 -0.671846 1.27367 0
M  V30 6054 H 550.852 -3.73507 1.95117 0
M  V30 6055 H 549.576 -3.15251 0.853502 0
M  V30 6056 H 548.235 -2.33749 2.82413 0
M  V30 6057 H 547.883 -4.64577 1.92815 0
M  V30 6058 H 547.583 -4.57861 3.68289 0
M  V30 6059 H 549.107 -5.27938 3.0678 0
M  V30 6060 H 550.521 -3.53036 4.51706 0
M  V30 6061 H 548.918 -3.06677 5.15819 0
M  V30 6062 H 549.988 -1.81838 4.49514 0
M  V30 6063 N 551.331 -1.39911 -0.725443 0
M  V30 6064 C 552.278 -1.39393 -1.83952 0
M  V30 6065 C 553.248 -0.252249 -1.64173 0
M  V30 6066 O 554.433 -0.44882 -1.85446 0
M  V30 6067 C 551.573 -1.25262 -3.21564 0
M  V30 6068 C 550.686 -2.49054 -3.52982 0
M  V30 6069 C 549.821 -2.27439 -4.80047 0
M  V30 6070 C 548.86 -3.46857 -5.04338 0
M  V30 6071 N 547.997 -3.24499 -6.22611 0
M  V30 6072 H 552.837 -2.34622 -1.83729 0
M  V30 6073 H 550.374 -1.16537 -0.897636 0
M  V30 6074 H 552.332 -1.15077 -4.01015 0
M  V30 6075 H 550.962 -0.33657 -3.21041 0
M  V30 6076 H 550.014 -2.69805 -2.6816 0
M  V30 6077 H 551.326 -3.37973 -3.66846 0
M  V30 6078 H 550.48 -2.14551 -5.67497 0
M  V30 6079 H 549.219 -1.35929 -4.68374 0
M  V30 6080 H 548.224 -3.60232 -4.15346 0
M  V30 6081 H 549.449 -4.3928 -5.17889 0
M  V30 6082 H 547.395 -2.35663 -6.12208 0
M  V30 6083 H 547.312 -4.06978 -6.37106 0
M  V30 6084 H 548.58 -3.15325 -7.12875 0
M  V30 6085 N 552.809 0.956637 -1.25245 0
M  V30 6086 C 554.039 1.7332 -1.12445 0
M  V30 6087 C 554.447 1.86392 0.324732 0
M  V30 6088 O 553.79 1.35967 1.23526 0
M  V30 6089 C 553.852 3.16603 -1.70303 0
M  V30 6090 C 553.516 3.26966 -3.19284 0
M  V30 6091 C 554.513 3.11434 -4.16299 0
M  V30 6092 C 552.198 3.50851 -3.59456 0
M  V30 6093 C 554.192 3.1963 -5.51467 0
M  V30 6094 C 551.879 3.58684 -4.94761 0
M  V30 6095 C 552.877 3.43087 -5.90576 0
M  V30 6096 O 552.565 3.50598 -7.2342 0
M  V30 6097 H 552.297 0.549981 -0.393061 0
M  V30 6098 H 554.851 1.20892 -1.66055 0
M  V30 6099 H 553.081 3.70385 -1.11138 0
M  V30 6100 H 554.77 3.76109 -1.52632 0
M  V30 6101 H 555.536 2.92853 -3.86604 0
M  V30 6102 H 551.415 3.62053 -2.85375 0
M  V30 6103 H 554.959 3.07373 -6.26233 0
M  V30 6104 H 550.856 3.76782 -5.24124 0
M  V30 6105 H 551.624 3.67242 -7.31489 0
M  V30 6106 N 554.287 1.06798 1.15896 0
M  V30 6107 C 555.698 0.811355 1.68149 0
M  V30 6108 C 556.049 -0.664339 1.8461 0
M  V30 6109 O 555.174 -1.51485 1.54535 0
M  V30 6110 C 555.769 1.46624 3.05429 0
M  V30 6111 C 554.328 1.25726 3.54781 0
M  V30 6112 C 553.475 1.53949 2.3064 0
M  V30 6113 H 556.426 1.23078 1.00187 0
M  V30 6114 H 556.447 0.88437 3.7008 0
M  V30 6115 H 555.959 2.54025 2.93416 0
M  V30 6116 H 554.06 0.20322 3.72045 0
M  V30 6117 H 554.173 1.97354 4.36564 0
M  V30 6118 H 552.537 0.96025 2.35905 0
M  V30 6119 H 553.32 2.6252 2.2122 0
M  V30 6120 N 555.766 -1.3263 0.851289 0
M  V30 6121 C 557.012 -1.9766 0.453694 0
M  V30 6122 C 557.345 -1.67225 -0.987396 0
M  V30 6123 O 556.62 -0.958693 -1.69232 0
M  V30 6124 C 556.903 -3.5344 0.68936 0
M  V30 6125 C 556.756 -3.93517 2.17862 0
M  V30 6126 C 558.075 -4.39866 0.143555 0
M  V30 6127 H 555.194 -0.717989 0.166314 0
M  V30 6128 H 557.836 -1.57068 1.06909 0
M  V30 6129 H 555.986 -3.88147 0.165546 0
M  V30 6130 H 557.658 -3.69006 2.76826 0
M  V30 6131 H 555.901 -3.42798 2.65841 0
M  V30 6132 H 556.572 -5.02065 2.29422 0
M  V30 6133 H 559.048 -4.11875 0.591451 0
M  V30 6134 H 557.924 -5.47858 0.338043 0
M  V30 6135 H 558.185 -4.31696 -0.953466 0
M  V30 6136 N 557.244 -0.608902 -1.45362 0
M  V30 6137 C 558.469 -0.10921 -2.07112 0
M  V30 6138 C 558.894 1.19779 -1.45033 0
M  V30 6139 O 558.252 1.72961 -0.543527 0
M  V30 6140 C 558.3 0.0155745 -3.60597 0
M  V30 6141 O 557.404 1.06546 -3.98399 0
M  V30 6142 H 556.745 -0.0746619 -0.659789 0
M  V30 6143 H 559.275 -0.839283 -1.86594 0
M  V30 6144 H 559.285 0.213364 -4.07442 0
M  V30 6145 H 557.96 -0.938765 -4.05167 0
M  V30 6146 H 556.537 0.844024 -3.63223 0
M  V30 6147 N 558.722 1.53707 -0.348139 0
M  V30 6148 C 559.654 2.22725 0.540946 0
M  V30 6149 C 560.667 1.2354 1.06027 0
M  V30 6150 O 561.856 1.49867 0.96964 0
M  V30 6151 C 558.956 2.89756 1.75768 0
M  V30 6152 C 558.129 4.15297 1.37285 0
M  V30 6153 C 557.188 4.65697 2.44976 0
M  V30 6154 O 556.214 5.29798 2.08092 0
M  V30 6155 N 557.416 4.42017 3.763 0
M  V30 6156 H 560.181 2.99658 -0.0501592 0
M  V30 6157 H 557.742 1.60979 -0.17248 0
M  V30 6158 H 559.734 3.20388 2.47252 0
M  V30 6159 H 558.304 2.16382 2.25605 0
M  V30 6160 H 557.524 3.9116 0.488584 0
M  V30 6161 H 558.812 4.96948 1.09179 0
M  V30 6162 H 558.21 3.9076 4.09051 0
M  V30 6163 H 556.767 4.77242 4.4394 0
M  V30 6164 N 560.2 0.0768682 1.57412 0
M  V30 6165 C 561.132 -0.918248 2.10002 0
M  V30 6166 C 562.145 -1.25808 1.03325 0
M  V30 6167 O 563.334 -1.21438 1.30824 0
M  V30 6168 C 560.434 -2.23263 2.54964 0
M  V30 6169 C 559.607 -2.07088 3.8527 0
M  V30 6170 C 558.666 -3.21876 4.16272 0
M  V30 6171 O 557.692 -2.96643 4.8579 0
M  V30 6172 N 558.894 -4.4712 3.70221 0
M  V30 6173 H 561.659 -0.469209 2.96004 0
M  V30 6174 H 559.22 -0.108725 1.61535 0
M  V30 6175 H 561.212 -2.9897 2.72762 0
M  V30 6176 H 559.782 -2.59649 1.74072 0
M  V30 6177 H 559.002 -1.15818 3.76802 0
M  V30 6178 H 560.29 -1.93537 4.70554 0
M  V30 6179 H 559.688 -4.70506 3.1407 0
M  V30 6180 H 558.245 -5.19837 3.93209 0
M  V30 6181 N 561.678 -1.56367 -0.196722 0
M  V30 6182 C 562.626 -1.95304 -1.2633 0
M  V30 6183 C 563.62 -0.838252 -1.47206 0
M  V30 6184 O 564.826 -1.02325 -1.48087 0
M  V30 6185 H 561.201 -0.621013 -0.424083 0
M  V30 6186 H 563.172 -2.84254 -0.907879 0
M  V30 6187 C 561.921 -2.3074 -2.60104 0
M  V30 6188 H 561.244 -3.16047 -2.44856 0
M  V30 6189 H 562.684 -2.61849 -3.33484 0
M  V30 6190 C 561.143 -1.14143 -3.16975 0
M  V30 6191 O 561.673 -0.415602 -3.99544 0
M  V30 6192 N 559.879 -0.91867 -2.75697 0
M  V30 6193 H 559.426 -1.51065 -2.08656 0
M  V30 6194 H 559.384 -0.140321 -3.14087 0
M  V30 6195 N 563.156 0.464375 -1.50603 0
M  V30 6196 C 564.103 1.56152 -1.69956 0
M  V30 6197 C 565.073 1.57046 -0.54091 0
M  V30 6198 O 566.258 1.74473 -0.772258 0
M  V30 6199 C 563.398 2.94079 -1.80586 0
M  V30 6200 C 562.511 3.02923 -3.07996 0
M  V30 6201 C 561.646 4.31806 -3.09382 0
M  V30 6202 C 560.685 4.34417 -4.31218 0
M  V30 6203 N 559.822 5.54782 -4.30304 0
M  V30 6204 H 564.662 1.38955 -2.6362 0
M  V30 6205 H 562.199 0.675482 -1.30674 0
M  V30 6206 H 564.157 3.74073 -1.8473 0
M  V30 6207 H 562.787 3.09896 -0.903556 0
M  V30 6208 H 561.839 2.1576 -3.13292 0
M  V30 6209 H 563.151 3.00712 -3.97962 0
M  V30 6210 H 562.305 5.20153 -3.12292 0
M  V30 6211 H 561.044 4.36636 -2.17257 0
M  V30 6212 H 560.049 3.44467 -4.28512 0
M  V30 6213 H 561.274 4.31273 -5.24576 0
M  V30 6214 H 559.22 5.60384 -3.41037 0
M  V30 6215 H 559.137 5.54339 -5.14047 0
M  V30 6216 H 560.405 6.45235 -4.3737 0
M  V30 6217 N 564.634 1.40294 0.718013 0
M  V30 6218 C 565.582 1.40536 1.85344 0
M  V30 6219 C 566.576 0.286192 1.66965 0
M  V30 6220 O 567.782 0.457105 1.74099 0
M  V30 6221 H 564.157 0.439236 0.61039 0
M  V30 6222 H 566.128 2.36275 1.82255 0
M  V30 6223 C 564.877 1.28245 3.23185 0
M  V30 6224 H 564.2 2.1364 3.37932 0
M  V30 6225 H 565.64 1.32474 4.02774 0
M  V30 6226 C 564.099 -0.0075503 3.36899 0
M  V30 6227 O 564.629 -0.971391 3.89778 0
M  V30 6228 N 562.835 -0.0762479 2.905 0
M  V30 6229 H 562.382 0.708819 2.47656 0
M  V30 6230 H 562.34 -0.938846 3.00055 0
M  V30 6231 N 566.112 -0.949982 1.2575 0
M  V30 6232 C 567.075 -2.02894 1.06615 0
M  V30 6233 C 568.075 -1.60791 0.0173905 0
M  V30 6234 O 569.265 -1.72249 0.260003 0
M  V30 6235 C 566.397 -3.35219 0.619751 0
M  V30 6236 H 567.59 -2.21302 2.02399 0
M  V30 6237 H 565.143 -1.12772 1.08223 0
M  V30 6238 H 565.878 -3.22508 -0.340486 0
M  V30 6239 H 565.663 -3.67129 1.37692 0
M  V30 6240 H 567.153 -4.14505 0.507443 0
M  V30 6241 N 567.59 -1.07411 -1.15328 0
M  V30 6242 C 569.001 -0.820261 -1.67716 0
M  V30 6243 C 569.352 0.654539 -1.8496 0
M  V30 6244 O 568.477 1.50664 -1.55337 0
M  V30 6245 C 569.072 -1.48242 -3.04647 0
M  V30 6246 C 567.631 -1.27606 -3.5411 0
M  V30 6247 C 566.778 -1.5517 -2.29821 0
M  V30 6248 H 569.729 -1.23608 -0.995332 0
M  V30 6249 H 569.75 -0.903984 -3.69606 0
M  V30 6250 H 569.262 -2.55578 -2.92064 0
M  V30 6251 H 567.363 -0.222948 -3.71932 0
M  V30 6252 H 567.476 -1.99667 -4.35511 0
M  V30 6253 H 565.84 -0.972747 -2.35393 0
M  V30 6254 H 566.623 -2.63689 -2.19824 0
M  V30 6255 N 569.068 1.32177 -0.85831 0
M  V30 6256 C 570.293 2.01847 -0.476718 0
M  V30 6257 C 570.718 1.64065 0.920021 0
M  V30 6258 O 570.076 0.843189 1.60499 0
M  V30 6259 C 570.124 3.55097 -0.627578 0
M  V30 6260 O 569.228 4.11012 0.338086 0
M  V30 6261 H 568.569 0.635907 -0.191099 0
M  V30 6262 H 571.099 1.68641 -1.15851 0
M  V30 6263 H 571.109 4.04718 -0.516476 0
M  V30 6264 H 569.784 3.81938 -1.64609 0
M  V30 6265 H 568.361 3.72451 0.182917 0
M  V30 6266 N 570.547 0.616602 1.45037 0
M  V30 6267 C 571.775 0.121968 2.0654 0
M  V30 6268 C 572.19 -1.19743 1.45969 0
M  V30 6269 O 571.547 -1.73133 0.577168 0
M  V30 6270 C 571.598 -0.0145171 3.61497 0
M  V30 6271 O 571.319 1.25269 4.19809 0
M  V30 6272 C 572.82 -0.539555 4.40004 0
M  V30 6273 H 570.04 0.0729837 0.667019 0
M  V30 6274 H 572.584 0.846891 1.8614 0
M  V30 6275 H 570.739 -0.689809 3.81209 0
M  V30 6276 H 571.153 1.08816 5.13088 0
M  V30 6277 H 572.627 -0.584112 5.48901 0
M  V30 6278 H 573.104 -1.56368 4.10421 0
M  V30 6279 H 573.71 0.101995 4.25178 0
M  V30 6280 N 572.025 -1.5352 0.356285 0
M  V30 6281 C 572.988 -2.24071 -0.482182 0
M  V30 6282 C 573.988 -1.24531 -1.01729 0
M  V30 6283 O 575.178 -1.48876 -0.904513 0
M  V30 6284 C 572.31 -2.97025 -1.67299 0
M  V30 6285 H 573.503 -2.99596 0.135031 0
M  V30 6286 H 571.056 -1.55928 0.107825 0
M  V30 6287 H 571.791 -2.25719 -2.32855 0
M  V30 6288 H 571.576 -3.7005 -1.29636 0
M  V30 6289 H 573.066 -3.50683 -2.26741 0
M  V30 6290 N 573.503 -0.0852151 -1.57369 0
M  V30 6291 C 574.751 0.579658 -1.93609 0
M  V30 6292 C 575.072 1.69332 -0.967043 0
M  V30 6293 O 574.342 1.95892 -0.0174215 0
M  V30 6294 H 572.922 0.217113 -0.714752 0
M  V30 6295 H 575.584 -0.146226 -1.94351 0
M  V30 6296 H 574.68 0.996276 -2.95771 0
M  V30 6297 N 574.981 1.5647 0.188427 0
M  V30 6298 C 575.911 1.98101 1.23606 0
M  V30 6299 C 576.892 0.853961 1.47111 0
M  V30 6300 O 578.077 1.11879 1.58735 0
M  V30 6301 C 575.207 2.32624 2.57882 0
M  V30 6302 C 574.161 3.48129 2.48978 0
M  V30 6303 C 573.487 3.68347 3.87588 0
M  V30 6304 C 574.787 4.82112 2.00911 0
M  V30 6305 H 576.481 2.85864 0.890068 0
M  V30 6306 H 574.027 1.37532 0.426714 0
M  V30 6307 H 575.98 2.60343 3.3136 0
M  V30 6308 H 574.704 1.41751 2.94235 0
M  V30 6309 H 573.363 3.20511 1.77956 0
M  V30 6310 H 573.011 2.74793 4.21305 0
M  V30 6311 H 572.711 4.46055 3.82503 0
M  V30 6312 H 574.235 3.98449 4.62678 0
M  V30 6313 H 575.649 5.08819 2.64151 0
M  V30 6314 H 574.046 5.63337 2.06814 0
M  V30 6315 H 575.116 4.75249 0.96262 0
M  V30 6316 N 576.459 -0.456382 1.50847 0
M  V30 6317 C 577.707 -1.20497 1.62249 0
M  V30 6318 C 578.028 -1.92156 0.331839 0
M  V30 6319 O 577.298 -1.84751 -0.651443 0
M  V30 6320 H 575.878 -0.447775 0.597918 0
M  V30 6321 H 578.54 -0.525099 1.87693 0
M  V30 6322 H 577.636 -1.94492 2.44089 0
M  V30 6323 N 577.937 -1.40673 -0.710563 0
M  V30 6324 C 579.167 -1.4234 -1.49742 0
M  V30 6325 C 579.575 -0.022821 -1.89186 0
M  V30 6326 O 578.918 0.964773 -1.56326 0
M  V30 6327 C 578.98 -2.25509 -2.79975 0
M  V30 6328 C 578.644 -3.73862 -2.62824 0
M  V30 6329 C 579.641 -4.66379 -2.29752 0
M  V30 6330 C 577.326 -4.17735 -2.78932 0
M  V30 6331 C 579.32 -6.00756 -2.13006 0
M  V30 6332 C 577.007 -5.5218 -2.61802 0
M  V30 6333 C 578.005 -6.43505 -2.28888 0
M  V30 6334 O 577.693 -7.75472 -2.11894 0
M  V30 6335 H 577.425 -0.487311 -0.468513 0
M  V30 6336 H 579.979 -1.8542 -0.883668 0
M  V30 6337 H 578.209 -1.77218 -3.43701 0
M  V30 6338 H 579.898 -2.19058 -3.41714 0
M  V30 6339 H 580.664 -4.33778 -2.16936 0
M  V30 6340 H 576.543 -3.46967 -3.03537 0
M  V30 6341 H 580.087 -6.72003 -1.87237 0
M  V30 6342 H 575.984 -5.84365 -2.74204 0
M  V30 6343 H 576.752 -7.86458 -2.26775 0
M  V30 6344 N 579.415 0.9433 -1.26252 0
M  V30 6345 C 580.663 1.68592 -1.11451 0
M  V30 6346 C 580.984 1.91957 0.343123 0
M  V30 6347 O 580.254 1.51475 1.24226 0
M  V30 6348 H 578.834 0.624789 -0.409448 0
M  V30 6349 H 581.496 1.13351 -1.58548 0
M  V30 6350 H 580.592 2.66054 -1.63162 0
M  V30 6351 N 580.893 1.08022 1.14757 0
M  V30 6352 C 582.118 0.82895 1.90114 0
M  V30 6353 C 582.543 -0.612772 1.77839 0
M  V30 6354 O 581.901 -1.42895 1.11583 0
M  V30 6355 C 581.949 1.25062 3.38219 0
M  V30 6356 O 581.053 0.400119 4.10454 0
M  V30 6357 H 580.394 0.301412 0.591648 0
M  V30 6358 H 582.924 1.44062 1.45284 0
M  V30 6359 H 582.934 1.22977 3.89025 0
M  V30 6360 H 581.609 2.30067 3.46471 0
M  V30 6361 H 580.186 0.484052 3.69745 0
M  V30 6362 N 582.371 -1.3172 0.865308 0
M  V30 6363 C 583.617 -1.97559 0.483944 0
M  V30 6364 C 583.972 -1.67181 -0.95227 0
M  V30 6365 O 583.265 -0.955392 -1.66081 0
M  V30 6366 C 583.459 -3.5102 0.672283 0
M  V30 6367 C 583.288 -3.96312 2.12525 0
M  V30 6368 C 582.058 -4.22877 2.76591 0
M  V30 6369 C 584.256 -4.10596 3.09702 0
M  V30 6370 N 582.238 -4.5449 4.12689 0
M  V30 6371 C 583.609 -4.45867 4.30816 0
M  V30 6372 C 585.664 -3.92961 3.05755 0
M  V30 6373 C 584.367 -4.65344 5.48495 0
M  V30 6374 C 586.393 -4.13628 4.22688 0
M  V30 6375 C 585.755 -4.49227 5.42563 0
M  V30 6376 H 581.854 -0.74862 0.226035 0
M  V30 6377 H 584.438 -1.59336 1.11893 0
M  V30 6378 H 582.609 -3.88342 0.0669224 0
M  V30 6379 H 584.341 -4.03865 0.259765 0
M  V30 6380 H 581.096 -4.15343 2.27567 0
M  V30 6381 H 581.52 -4.74464 4.82921 0
M  V30 6382 H 586.162 -3.64531 2.14188 0
M  V30 6383 H 583.88 -4.92624 6.40584 0
M  V30 6384 H 587.466 -4.01474 4.21082 0
M  V30 6385 H 586.346 -4.64895 6.31539 0
M  V30 6386 N 583.85 -0.624285 -1.44708 0
M  V30 6387 C 584.76 0.0861083 -2.34442 0
M  V30 6388 C 585.776 0.84291 -1.5222 0
M  V30 6389 O 586.952 0.796723 -1.84971 0
M  V30 6390 C 584.017 1.05999 -3.30099 0
M  V30 6391 C 583.077 0.303316 -4.28227 0
M  V30 6392 C 582.311 1.23081 -5.19314 0
M  V30 6393 O 582.534 2.46929 -5.14181 0
M  V30 6394 O 581.468 0.71883 -5.97592 0
M  V30 6395 H 585.293 -0.651756 -2.96624 0
M  V30 6396 H 582.879 -0.384493 -1.44368 0
M  V30 6397 H 584.76 1.62046 -3.88997 0
M  V30 6398 H 583.436 1.77859 -2.70459 0
M  V30 6399 H 582.343 -0.300033 -3.72895 0
M  V30 6400 H 583.676 -0.375123 -4.90768 0
M  V30 6401 N 585.328 1.53329 -0.364422 0
M  V30 6402 C 586.577 2.00421 0.226747 0
M  V30 6403 C 586.89 1.25581 1.49963 0
M  V30 6404 O 588.096 1.63256 2.16933 0
M  V30 6405 C 586.552 3.57017 0.454618 0
M  V30 6406 C 586.16 4.40734 -0.803568 0
M  V30 6407 C 587.904 4.12468 1.00351 0
M  V30 6408 C 585.811 5.8888 -0.545345 0
M  V30 6409 H 584.741 0.748787 0.0885082 0
M  V30 6410 H 587.392 1.7703 -0.482983 0
M  V30 6411 H 585.774 3.76558 1.22558 0
M  V30 6412 H 586.948 4.32967 -1.57723 0
M  V30 6413 H 585.263 3.96381 -1.27559 0
M  V30 6414 H 587.86 5.20783 1.212 0
M  V30 6415 H 588.203 3.6699 1.9653 0
M  V30 6416 H 588.736 3.96721 0.29274 0
M  V30 6417 H 585.475 6.38633 -1.47743 0
M  V30 6418 H 584.995 5.99499 0.189842 0
M  V30 6419 H 586.674 6.46776 -0.170425 0
M  V30 6420 N 586.806 0.0935595 1.57322 0
M  V30 6421 C 588.083 -0.612692 1.85756 0
M  V30 6422 C 588.463 -1.86439 0.99013 0
M  V30 6423 O 587.811 -2.28416 0.0621362 0
M  V30 6424 C 588.021 -0.929547 3.36393 0
M  V30 6425 C 589.369 -1.29366 4.04413 0
M  V30 6426 O 590.393 -1.02061 3.41265 0
M  V30 6427 O 589.252 -1.80498 5.15832 0
M  V30 6428 H 586.346 -0.306444 0.768128 0
M  V30 6429 H 588.892 0.126141 1.69231 0
M  V30 6430 H 587.664 -0.0414766 3.91278 0
M  V30 6431 H 587.287 -1.72441 3.5826 0
M  V30 6432 N 588.284 -1.56567 -0.180126 0
M  V30 6433 C 589.695 -1.7126 -0.743422 0
M  V30 6434 C 590.046 -0.70263 -1.83187 0
M  V30 6435 O 589.171 0.137856 -2.1596 0
M  V30 6436 C 589.766 -3.10512 -1.35528 0
M  V30 6437 C 588.325 -3.26919 -1.8655 0
M  V30 6438 C 587.472 -2.67213 -0.741099 0
M  V30 6439 H 590.423 -1.58636 0.0451543 0
M  V30 6440 H 590.444 -3.08673 -2.22489 0
M  V30 6441 H 589.956 -3.83997 -0.562862 0
M  V30 6442 H 588.057 -2.58376 -2.68464 0
M  V30 6443 H 588.17 -4.34574 -2.01699 0
M  V30 6444 H 586.534 -2.26788 -1.15927 0
M  V30 6445 H 587.317 -3.43277 0.0393291 0
M  V30 6446 N 589.762 0.448376 -1.51087 0
M  V30 6447 C 590.709 1.54341 -1.71603 0
M  V30 6448 C 591.679 1.56463 -0.557536 0
M  V30 6449 O 592.864 1.73644 -0.79072 0
M  V30 6450 C 590.004 2.92148 -1.83695 0
M  V30 6451 C 589.117 2.99639 -3.11192 0
M  V30 6452 C 588.252 4.285 -3.13944 0
M  V30 6453 C 587.291 4.29819 -4.35801 0
M  V30 6454 N 586.428 5.50186 -4.36164 0
M  V30 6455 H 591.268 1.36151 -2.65079 0
M  V30 6456 H 588.805 0.661585 -1.31383 0
M  V30 6457 H 590.763 3.72093 -1.88687 0
M  V30 6458 H 589.393 3.0892 -0.936374 0
M  V30 6459 H 588.445 2.12425 -3.15562 0
M  V30 6460 H 589.757 2.96474 -4.01129 0
M  V30 6461 H 588.911 5.16811 -3.17791 0
M  V30 6462 H 587.65 4.34307 -2.21876 0
M  V30 6463 H 586.655 3.39902 -4.32142 0
M  V30 6464 H 587.88 4.25685 -5.29121 0
M  V30 6465 H 585.826 5.56735 -3.46961 0
M  V30 6466 H 585.743 5.48856 -5.19897 0
M  V30 6467 H 587.011 6.40559 -4.44189 0
M  V30 6468 N 591.24 1.41047 0.703093 0
M  V30 6469 C 592.517 1.30493 1.45708 0
M  V30 6470 C 592.897 -0.0709892 2.10981 0
M  V30 6471 O 592.245 -1.08471 2.01113 0
M  V30 6472 C 592.455 2.45287 2.48265 0
M  V30 6473 C 593.803 2.86104 3.13735 0
M  V30 6474 O 594.827 2.44971 2.58587 0
M  V30 6475 O 593.686 3.57206 4.13601 0
M  V30 6476 H 590.78 0.513144 0.648546 0
M  V30 6477 H 593.326 1.52995 0.734208 0
M  V30 6478 H 592.098 3.37135 1.98635 0
M  V30 6479 H 591.721 2.24622 3.28071 0
M  V30 6480 N 592.718 -0.936591 1.26751 0
M  V30 6481 C 593.648 -2.05315 1.11212 0
M  V30 6482 C 594.629 -1.70092 0.0160262 0
M  V30 6483 O 595.814 -1.93279 0.188894 0
M  V30 6484 C 592.944 -3.39123 0.749171 0
M  V30 6485 C 591.898 -3.88425 1.79751 0
M  V30 6486 C 591.224 -5.18936 1.28876 0
M  V30 6487 C 592.524 -4.12798 3.19992 0
M  V30 6488 H 594.218 -2.18573 2.04613 0
M  V30 6489 H 591.764 -1.05027 0.985159 0
M  V30 6490 H 593.717 -4.16704 0.627323 0
M  V30 6491 H 592.441 -3.25855 -0.220543 0
M  V30 6492 H 591.1 -3.13028 1.90811 0
M  V30 6493 H 590.748 -5.02051 0.308757 0
M  V30 6494 H 590.448 -5.52892 1.98958 0
M  V30 6495 H 591.972 -5.99096 1.17967 0
M  V30 6496 H 593.386 -4.80977 3.11983 0
M  V30 6497 H 591.783 -4.58044 3.87705 0
M  V30 6498 H 592.853 -3.18412 3.65707 0
M  V30 6499 N 594.196 -1.08629 -1.14182 0
M  V30 6500 C 595.424 -0.838889 -1.8913 0
M  V30 6501 C 595.839 0.609153 -1.78703 0
M  V30 6502 O 595.196 1.41876 -1.14794 0
M  V30 6503 C 595.247 -1.25477 -3.39025 0
M  V30 6504 O 594.968 -2.64601 -3.49167 0
M  V30 6505 C 596.469 -1.03856 -4.30963 0
M  V30 6506 H 593.689 -0.302377 -0.599007 0
M  V30 6507 H 596.233 -1.44615 -1.44592 0
M  V30 6508 H 594.388 -0.691571 -3.81177 0
M  V30 6509 H 594.802 -2.81922 -4.42289 0
M  V30 6510 H 596.276 -1.37892 -5.345 0
M  V30 6511 H 596.753 0.0242522 -4.39193 0
M  V30 6512 H 597.359 -1.58731 -3.94569 0
M  V30 6513 N 595.674 1.31259 -0.872281 0
M  V30 6514 C 596.921 1.96622 -0.484365 0
M  V30 6515 C 597.249 1.68939 0.963841 0
M  V30 6516 O 596.504 0.97974 1.6941 0
M  V30 6517 C 596.803 3.50659 -0.690889 0
M  V30 6518 C 596.469 3.98366 -2.11224 0
M  V30 6519 C 595.131 4.11104 -2.50094 0
M  V30 6520 C 597.483 4.23425 -3.0391 0
M  V30 6521 C 594.811 4.46254 -3.80887 0
M  V30 6522 C 597.163 4.60039 -4.3422 0
M  V30 6523 C 595.827 4.70984 -4.73001 0
M  V30 6524 H 595.097 0.71949 -0.177242 0
M  V30 6525 H 597.744 1.56353 -1.10571 0
M  V30 6526 H 596.049 3.91798 0.0135782 0
M  V30 6527 H 597.746 3.99284 -0.370534 0
M  V30 6528 H 594.336 3.88949 -1.80047 0
M  V30 6529 H 598.52 4.13075 -2.75104 0
M  V30 6530 H 593.776 4.52926 -4.10692 0
M  V30 6531 H 597.95 4.78381 -5.06088 0
M  V30 6532 H 595.577 4.97977 -5.7439 0
M  V30 6533 N 597.152 0.631951 1.44375 0
M  V30 6534 C 598.082 -0.0593243 2.33425 0
M  V30 6535 C 599.063 -0.833964 1.48253 0
M  V30 6536 O 600.248 -0.799682 1.76971 0
M  V30 6537 C 597.378 -1.04096 3.31333 0
M  V30 6538 C 596.332 -0.377899 4.26328 0
M  V30 6539 C 595.658 -1.4695 5.14111 0
M  V30 6540 C 596.958 0.716371 5.17364 0
M  V30 6541 H 598.652 0.684287 2.91475 0
M  V30 6542 H 596.198 0.330518 1.40156 0
M  V30 6543 H 598.151 -1.53331 3.92514 0
M  V30 6544 H 596.875 -1.81547 2.71493 0
M  V30 6545 H 595.534 0.0938054 3.6648 0
M  V30 6546 H 595.182 -2.2349 4.50623 0
M  V30 6547 H 594.882 -1.03121 5.78481 0
M  V30 6548 H 596.406 -1.96363 5.78164 0
M  V30 6549 H 597.82 0.307089 5.72477 0
M  V30 6550 H 596.217 1.07784 5.90341 0
M  V30 6551 H 597.287 1.58316 4.58327 0
M  V30 6552 N 598.631 -1.53133 0.372548 0
M  V30 6553 C 599.578 -2.25951 -0.470631 0
M  V30 6554 C 600.548 -1.26895 -1.07176 0
M  V30 6555 O 601.733 -1.55691 -1.10294 0
M  V30 6556 C 598.873 -3.05726 -1.6008 0
M  V30 6557 C 597.986 -4.19684 -1.02416 0
M  V30 6558 C 597.121 -4.86888 -2.124 0
M  V30 6559 C 596.16 -5.92866 -1.52238 0
M  V30 6560 N 595.297 -6.53732 -2.56084 0
M  V30 6561 H 600.137 -2.97587 0.156816 0
M  V30 6562 H 597.674 -1.4683 0.0891571 0
M  V30 6563 H 599.632 -3.50258 -2.26661 0
M  V30 6564 H 598.262 -2.36331 -2.1988 0
M  V30 6565 H 597.314 -3.79588 -0.248426 0
M  V30 6566 H 598.626 -4.95821 -0.544366 0
M  V30 6567 H 597.78 -5.34638 -2.86787 0
M  V30 6568 H 596.519 -4.10239 -2.63734 0
M  V30 6569 H 595.524 -5.4447 -0.763685 0
M  V30 6570 H 596.749 -6.71439 -1.0172 0
M  V30 6571 H 594.695 -5.79932 -3.06618 0
M  V30 6572 H 594.612 -7.25429 -2.12811 0
M  V30 6573 H 595.88 -7.0613 -3.30152 0
M  V30 6574 N 600.109 -0.101901 -1.5727 0
M  V30 6575 C 601.019 0.868647 -2.17926 0
M  V30 6576 C 602.035 1.30527 -1.1506 0
M  V30 6577 O 603.211 1.37178 -1.47459 0
M  V30 6578 C 600.276 2.10727 -2.75309 0
M  V30 6579 C 599.337 1.7242 -3.93154 0
M  V30 6580 C 598.57 2.90377 -4.47791 0
M  V30 6581 O 598.793 4.05305 -4.01353 0
M  V30 6582 O 597.727 2.6845 -5.38719 0
M  V30 6583 H 601.553 0.382544 -3.01281 0
M  V30 6584 H 599.138 0.122812 -1.48894 0
M  V30 6585 H 601.02 2.83303 -3.11958 0
M  V30 6586 H 599.695 2.58376 -1.94996 0
M  V30 6587 H 598.602 0.970039 -3.61305 0
M  V30 6588 H 599.935 1.29528 -4.74851 0
M  V30 6589 N 601.587 1.56661 0.17182 0
M  V30 6590 C 602.517 1.99401 1.21498 0
M  V30 6591 C 603.498 0.869516 1.46197 0
M  V30 6592 O 604.683 1.13556 1.57539 0
M  V30 6593 C 601.813 2.35346 2.55401 0
M  V30 6594 C 600.767 3.5075 2.45272 0
M  V30 6595 C 600.093 3.72437 3.8366 0
M  V30 6596 C 601.393 4.84216 1.95787 0
M  V30 6597 H 603.087 2.86792 0.859699 0
M  V30 6598 H 600.633 1.37977 0.412103 0
M  V30 6599 H 602.586 2.63843 3.2858 0
M  V30 6600 H 601.31 1.44864 2.92715 0
M  V30 6601 H 599.969 3.2238 1.74547 0
M  V30 6602 H 599.617 2.79246 4.18367 0
M  V30 6603 H 599.317 4.50087 3.77751 0
M  V30 6604 H 600.841 4.03334 4.58426 0
M  V30 6605 H 602.255 5.11592 2.5874 0
M  V30 6606 H 600.652 5.65498 2.00827 0
M  V30 6607 H 601.722 4.76243 0.912159 0
M  V30 6608 N 603.065 -0.440357 1.51323 0
M  V30 6609 C 604.313 -1.18769 1.63518 0
M  V30 6610 C 604.634 -1.91793 0.352201 0
M  V30 6611 O 603.904 -1.85432 -0.631811 0
M  V30 6612 H 602.484 -0.441408 0.602634 0
M  V30 6613 H 605.146 -0.505162 1.8824 0
M  V30 6614 H 604.242 -1.91892 2.46138 0
M  V30 6615 N 604.543 -1.41418 -0.695603 0
M  V30 6616 C 605.771 -1.4413 -1.48439 0
M  V30 6617 C 606.186 -0.0465698 -1.88743 0
M  V30 6618 O 605.543 0.934117 -1.56782 0
M  V30 6619 C 605.594 -2.34998 -2.74696 0
M  V30 6620 O 605.315 -3.69043 -2.36091 0
M  V30 6621 C 606.816 -2.46513 -3.68438 0
M  V30 6622 H 604.036 -0.490905 -0.457442 0
M  V30 6623 H 606.58 -1.85702 -0.856454 0
M  V30 6624 H 604.735 -1.96735 -3.33728 0
M  V30 6625 H 605.149 -4.17505 -3.17474 0
M  V30 6626 H 606.623 -3.1426 -4.53811 0
M  V30 6627 H 607.1 -1.49638 -4.12922 0
M  V30 6628 H 607.706 -2.85412 -3.1531 0
M  V30 6629 N 606.021 0.929856 -1.27246 0
M  V30 6630 C 607.269 1.674 -1.13233 0
M  V30 6631 C 607.59 1.92311 0.322744 0
M  V30 6632 O 606.86 1.52784 1.22612 0
M  V30 6633 H 605.44 0.620411 -0.416052 0
M  V30 6634 H 608.102 1.11663 -1.59741 0
M  V30 6635 H 607.198 2.64308 -1.65975 0
M  V30 6636 N 607.499 1.09233 1.13605 0
M  V30 6637 C 608.431 0.687794 2.18637 0
M  V30 6638 C 609.444 -0.26936 1.60556 0
M  V30 6639 O 610.633 -0.0557162 1.78413 0
M  V30 6640 C 607.733 -0.00751901 3.38899 0
M  V30 6641 C 606.906 0.97067 4.26494 0
M  V30 6642 C 605.965 0.309129 5.25291 0
M  V30 6643 O 604.991 0.956149 5.61112 0
M  V30 6644 N 606.193 -0.937555 5.72879 0
M  V30 6645 H 608.958 1.59141 2.53957 0
M  V30 6646 H 606.519 0.979515 1.28907 0
M  V30 6647 H 608.511 -0.461238 4.02063 0
M  V30 6648 H 607.081 -0.813353 3.01833 0
M  V30 6649 H 606.301 1.603 3.60135 0
M  V30 6650 H 607.589 1.63323 4.81875 0
M  V30 6651 H 606.987 -1.48281 5.4592 0
M  V30 6652 H 605.544 -1.33463 6.3799 0
M  V30 6653 N 608.977 -1.30795 0.87923 0
M  V30 6654 C 610.224 -1.96362 0.494786 0
M  V30 6655 C 610.552 -1.69448 -0.954868 0
M  V30 6656 O 609.807 -0.988711 -1.68888 0
M  V30 6657 C 610.106 -3.50287 0.709476 0
M  V30 6658 C 609.772 -3.9724 2.13333 0
M  V30 6659 C 608.434 -4.09772 2.52271 0
M  V30 6660 C 610.786 -4.21807 3.06151 0
M  V30 6661 C 608.114 -4.44227 3.83248 0
M  V30 6662 C 610.466 -4.5773 4.36654 0
M  V30 6663 C 609.13 -4.68469 4.75492 0
M  V30 6664 H 608.4 -0.71854 0.181055 0
M  V30 6665 H 611.047 -1.55764 1.11399 0
M  V30 6666 H 609.352 -3.91799 0.0072 0
M  V30 6667 H 611.049 -3.99082 0.391703 0
M  V30 6668 H 607.639 -3.87988 1.82107 0
M  V30 6669 H 611.823 -4.11611 2.77291 0
M  V30 6670 H 607.079 -4.50741 4.13089 0
M  V30 6671 H 611.253 -4.7569 5.08617 0
M  V30 6672 H 608.88 -4.94923 5.77022 0
M  V30 6673 N 610.455 -0.639598 -1.44038 0
M  V30 6674 C 611.703 -0.147188 -2.01563 0
M  V30 6675 C 612.024 1.2384 -1.50628 0
M  V30 6676 O 611.294 1.82452 -0.713316 0
M  V30 6677 H 609.874 -0.0514231 -0.745228 0
M  V30 6678 H 612.536 -0.828205 -1.76428 0
M  V30 6679 H 611.632 -0.121358 -3.11864 0
M  V30 6680 N 611.933 1.52934 -0.380664 0
M  V30 6681 C 613.179 2.01765 0.20458 0
M  V30 6682 C 613.512 1.26696 1.47179 0
M  V30 6683 O 612.787 0.364936 1.91046 0
M  V30 6684 C 613.07 3.56869 0.481269 0
M  V30 6685 C 612.923 4.42617 -0.800629 0
M  V30 6686 C 614.242 4.2121 1.27554 0
M  V30 6687 H 611.361 0.733388 0.0728803 0
M  V30 6688 H 614.003 1.83068 -0.50853 0
M  V30 6689 H 612.153 3.72932 1.08875 0
M  V30 6690 H 613.825 4.38323 -1.43773 0
M  V30 6691 H 612.068 4.09977 -1.4178 0
M  V30 6692 H 612.739 5.49134 -0.561791 0
M  V30 6693 H 615.215 4.09072 0.761514 0
M  V30 6694 H 614.091 5.29732 1.43788 0
M  V30 6695 H 614.352 3.78269 2.28833 0
M  V30 6696 N 613.412 0.11024 1.57214 0
M  V30 6697 C 614.658 -0.550684 1.9518 0
M  V30 6698 C 614.991 -1.66885 0.993122 0
M  V30 6699 O 614.266 -1.94479 0.0287907 0
M  V30 6700 C 614.549 -1.09163 3.43155 0
M  V30 6701 C 614.402 0.0225198 4.49794 0
M  V30 6702 C 615.721 -1.98527 3.92778 0
M  V30 6703 H 612.84 -0.198706 0.709708 0
M  V30 6704 H 615.482 0.184024 1.89107 0
M  V30 6705 H 613.632 -1.71775 3.48462 0
M  V30 6706 H 615.304 0.657443 4.56591 0
M  V30 6707 H 613.547 0.686868 4.28328 0
M  V30 6708 H 614.218 -0.39706 5.5057 0
M  V30 6709 H 616.694 -1.458 3.8972 0
M  V30 6710 H 615.57 -2.33298 4.96853 0
M  V30 6711 H 615.831 -2.90846 3.32958 0
M  V30 6712 N 614.89 -1.56749 -0.16351 0
M  V30 6713 C 615.837 -1.97011 -1.2023 0
M  V30 6714 C 616.807 -0.835186 -1.43575 0
M  V30 6715 O 617.992 -1.09594 -1.56185 0
M  V30 6716 C 615.132 -2.34186 -2.53478 0
M  V30 6717 C 614.245 -3.60893 -2.37446 0
M  V30 6718 C 613.38 -3.87245 -3.63614 0
M  V30 6719 C 612.419 -5.07274 -3.42548 0
M  V30 6720 N 611.556 -5.29719 -4.60806 0
M  V30 6721 H 616.396 -2.85562 -0.851958 0
M  V30 6722 H 613.933 -1.41292 -0.409257 0
M  V30 6723 H 615.891 -2.53764 -3.31149 0
M  V30 6724 H 614.521 -1.48736 -2.86492 0
M  V30 6725 H 613.573 -3.49185 -1.50911 0
M  V30 6726 H 614.885 -4.48722 -2.1783 0
M  V30 6727 H 614.039 -4.07232 -4.49719 0
M  V30 6728 H 612.778 -2.97806 -3.86216 0
M  V30 6729 H 611.783 -4.87177 -2.5483 0
M  V30 6730 H 613.008 -5.98251 -3.2136 0
M  V30 6731 H 610.954 -4.43233 -4.83612 0
M  V30 6732 H 610.871 -6.11786 -4.44132 0
M  V30 6733 H 612.139 -5.54192 -5.48171 0
M  V30 6734 N 616.368 0.432326 -1.51554 0
M  V30 6735 C 617.598 1.2019 -1.68042 0
M  V30 6736 C 618.006 1.85356 -0.379434 0
M  V30 6737 O 617.349 1.71724 0.652427 0
M  V30 6738 C 617.411 2.32387 -2.74292 0
M  V30 6739 C 617.075 1.87548 -4.16743 0
M  V30 6740 C 618.072 1.37611 -5.01357 0
M  V30 6741 C 615.757 1.95087 -4.62868 0
M  V30 6742 C 617.751 0.958069 -6.30159 0
M  V30 6743 C 615.438 1.52894 -5.91664 0
M  V30 6744 C 616.436 1.03336 -6.75137 0
M  V30 6745 O 616.124 0.617435 -8.01525 0
M  V30 6746 H 615.856 0.368132 -0.56697 0
M  V30 6747 H 618.41 0.517875 -1.98764 0
M  V30 6748 H 616.64 3.04082 -2.38895 0
M  V30 6749 H 618.329 2.94235 -2.79608 0
M  V30 6750 H 619.095 1.31178 -4.66923 0
M  V30 6751 H 614.974 2.32606 -3.98015 0
M  V30 6752 H 618.518 0.570562 -6.95263 0
M  V30 6753 H 614.415 1.58999 -6.25611 0
M  V30 6754 H 615.183 0.742835 -8.15122 0
M  V30 6755 N 617.846 1.41785 0.688094 0
M  V30 6756 C 619.094 1.41264 1.4453 0
M  V30 6757 C 619.415 0.0252946 1.94984 0
M  V30 6758 O 618.685 -0.934081 1.72197 0
M  V30 6759 H 617.265 0.519998 0.536294 0
M  V30 6760 H 619.927 1.7709 0.813941 0
M  V30 6761 H 619.023 2.10439 2.30482 0
M  V30 6762 N 619.324 -0.923095 1.27737 0
M  V30 6763 C 620.271 -2.02432 1.1086 0
M  V30 6764 C 621.241 -1.66098 0.00835195 0
M  V30 6765 O 622.426 -1.90027 0.171542 0
M  V30 6766 C 619.566 -3.36476 0.766671 0
M  V30 6767 C 618.679 -3.85737 1.94501 0
M  V30 6768 C 617.814 -5.08249 1.54455 0
M  V30 6769 C 616.853 -5.49818 2.6901 0
M  V30 6770 N 615.99 -6.63524 2.29521 0
M  V30 6771 H 620.83 -2.16201 2.05089 0
M  V30 6772 H 618.367 -1.05909 1.02087 0
M  V30 6773 H 620.325 -4.13569 0.549223 0
M  V30 6774 H 618.955 -3.22502 -0.13867 0
M  V30 6775 H 618.007 -3.04883 2.27487 0
M  V30 6776 H 619.319 -4.12513 2.80419 0
M  V30 6777 H 618.473 -5.92857 1.28862 0
M  V30 6778 H 617.212 -4.83261 0.656534 0
M  V30 6779 H 616.217 -4.63757 2.95313 0
M  V30 6780 H 617.442 -5.76799 3.5844 0
M  V30 6781 H 615.388 -6.40185 1.43177 0
M  V30 6782 H 615.305 -6.89978 3.08977 0
M  V30 6783 H 616.573 -7.51461 2.07187 0
M  V30 6784 N 620.802 -1.09834 -1.13024 0
M  V30 6785 C 622.048 -0.848072 -1.84876 0
M  V30 6786 C 622.403 0.619663 -1.82148 0
M  V30 6787 O 621.696 1.45067 -1.25164 0
M  V30 6788 C 621.89 -1.32263 -3.32026 0
M  V30 6789 C 621.719 -2.83497 -3.49084 0
M  V30 6790 C 620.489 -3.51425 -3.63082 0
M  V30 6791 C 622.687 -3.81623 -3.44773 0
M  V30 6792 N 620.669 -4.91042 -3.68443 0
M  V30 6793 C 622.04 -5.07217 -3.56555 0
M  V30 6794 C 624.095 -3.74419 -3.282 0
M  V30 6795 C 622.798 -6.26457 -3.53474 0
M  V30 6796 C 624.824 -4.93151 -3.26429 0
M  V30 6797 C 624.186 -6.1759 -3.38765 0
M  V30 6798 H 620.285 -0.363249 -0.692513 0
M  V30 6799 H 622.869 -1.39952 -1.35357 0
M  V30 6800 H 621.04 -0.79858 -3.80102 0
M  V30 6801 H 622.772 -1.01725 -3.91707 0
M  V30 6802 H 619.527 -3.0186 -3.64935 0
M  V30 6803 H 619.951 -5.63782 -3.74805 0
M  V30 6804 H 624.593 -2.79132 -3.17561 0
M  V30 6805 H 622.311 -7.22039 -3.62884 0
M  V30 6806 H 625.897 -4.8928 -3.14796 0
M  V30 6807 H 624.777 -7.07925 -3.37361 0
M  V30 6808 N 622.28 1.30327 -0.886154 0
M  V30 6809 C 623.696 1.48676 -0.580323 0
M  V30 6810 C 623.896 1.81189 0.881639 0
M  V30 6811 O 622.952 1.90021 1.66278 0
M  V30 6812 C 624.265 2.60932 -1.49449 0
M  V30 6813 C 625.813 2.74812 -1.49824 0
M  V30 6814 C 626.288 3.90183 -2.39836 0
M  V30 6815 N 627.779 3.97495 -2.37806 0
M  V30 6816 C 628.514 4.86078 -3.04165 0
M  V30 6817 N 628.01 5.79448 -3.79753 0
M  V30 6818 N 629.803 4.79456 -2.93391 0
M  V30 6819 H 621.954 1.07495 -1.8319 0
M  V30 6820 H 624.217 0.532661 -0.784204 0
M  V30 6821 H 623.923 2.43731 -2.5355 0
M  V30 6822 H 623.797 3.57437 -1.20494 0
M  V30 6823 H 626.184 2.91418 -0.464731 0
M  V30 6824 H 626.265 1.78924 -1.82811 0
M  V30 6825 H 625.909 3.74334 -3.43273 0
M  V30 6826 H 625.839 4.85411 -2.04166 0
M  V30 6827 H 628.33 3.30703 -1.82877 0
M  V30 6828 H 628.643 6.43805 -4.27475 0
M  V30 6829 H 626.988 5.79376 -3.8386 0
M  V30 6830 H 630.179 4.05494 -2.33864 0
M  V30 6831 H 630.352 5.48283 -3.45383 0
M  V30 6832 N 623.758 0.647228 1.43697 0
M  V30 6833 C 625.006 0.157876 2.01482 0
M  V30 6834 C 625.327 -1.23039 1.51282 0
M  V30 6835 O 624.597 -1.82071 0.722982 0
M  V30 6836 H 623.177 0.0553745 0.744945 0
M  V30 6837 H 625.839 0.83755 1.75986 0
M  V30 6838 H 624.935 0.137895 3.11795 0
M  V30 6839 N 625.236 -1.5273 0.388769 0
M  V30 6840 C 626.168 -2.24081 -0.481704 0
M  V30 6841 C 627.181 -1.26307 -1.02715 0
M  V30 6842 O 628.37 -1.52386 -0.929565 0
M  V30 6843 C 625.47 -2.94315 -1.68024 0
M  V30 6844 C 624.643 -4.18791 -1.26226 0
M  V30 6845 C 623.702 -4.72028 -2.32542 0
M  V30 6846 O 622.728 -5.35129 -1.93972 0
M  V30 6847 N 623.93 -4.51838 -3.64448 0
M  V30 6848 H 626.695 -2.9942 0.129591 0
M  V30 6849 H 624.256 -1.60465 0.2151 0
M  V30 6850 H 626.248 -3.26831 -2.38671 0
M  V30 6851 H 624.818 -2.22287 -2.19789 0
M  V30 6852 H 624.038 -3.92318 -0.384703 0
M  V30 6853 H 625.326 -4.99668 -0.959647 0
M  V30 6854 H 624.724 -4.01468 -3.98547 0
M  V30 6855 H 623.281 -4.88845 -4.31131 0
M  V30 6856 N 626.714 -0.118576 -1.57153 0
M  V30 6857 C 627.944 0.546466 -1.99242 0
M  V30 6858 C 628.352 1.60791 -0.997148 0
M  V30 6859 O 627.695 1.83691 0.0181745 0
M  V30 6860 C 627.757 1.23167 -3.37743 0
M  V30 6861 C 627.421 0.318226 -4.55891 0
M  V30 6862 C 628.418 -0.442988 -5.18009 0
M  V30 6863 C 626.103 0.229421 -5.01776 0
M  V30 6864 C 628.097 -1.28074 -6.244 0
M  V30 6865 C 625.784 -0.611966 -6.08028 0
M  V30 6866 C 626.782 -1.36568 -6.69207 0
M  V30 6867 O 626.47 -2.1931 -7.73407 0
M  V30 6868 H 626.202 0.149297 -0.659307 0
M  V30 6869 H 628.756 -0.201603 -2.04408 0
M  V30 6870 H 626.986 2.0268 -3.29329 0
M  V30 6871 H 628.675 1.79358 -3.64123 0
M  V30 6872 H 629.441 -0.38425 -4.83475 0
M  V30 6873 H 625.32 0.805771 -4.53903 0
M  V30 6874 H 628.864 -1.86952 -6.72082 0
M  V30 6875 H 624.761 -0.6721 -6.41991 0
M  V30 6876 H 625.529 -2.12247 -7.90502 0
M  V30 6877 N 628.193 1.56834 0.155195 0
M  V30 6878 C 629.47 1.73799 0.897395 0
M  V30 6879 C 629.85 0.684379 1.99698 0
M  V30 6880 O 629.198 -0.298111 2.26547 0
M  V30 6881 C 629.408 3.17572 1.44737 0
M  V30 6882 C 630.756 3.79014 1.91399 0
M  V30 6883 O 631.78 3.20951 1.54496 0
M  V30 6884 O 630.639 4.80998 2.59429 0
M  V30 6885 H 627.733 0.710329 0.423511 0
M  V30 6886 H 630.279 1.69107 0.141761 0
M  V30 6887 H 629.051 3.85749 0.656741 0
M  V30 6888 H 628.674 3.26657 2.26674 0
M  V30 6889 N 629.671 -0.424282 1.51781 0
M  V30 6890 C 630.917 -1.17434 1.6534 0
M  V30 6891 C 631.25 -1.90549 0.374806 0
M  V30 6892 O 630.525 -1.84145 -0.626179 0
M  V30 6893 C 630.808 -2.18093 2.86544 0
M  V30 6894 C 630.661 -1.48975 4.24413 0
M  V30 6895 C 631.98 -3.18934 3.03264 0
M  V30 6896 H 629.099 -0.425566 0.601716 0
M  V30 6897 H 631.741 -0.461921 1.84299 0
M  V30 6898 H 629.891 -2.78849 2.7051 0
M  V30 6899 H 631.563 -0.914551 4.52143 0
M  V30 6900 H 629.806 -0.791893 4.26511 0
M  V30 6901 H 630.477 -2.22347 5.05238 0
M  V30 6902 H 632.953 -2.68243 3.18096 0
M  V30 6903 H 631.829 -3.86645 3.89611 0
M  V30 6904 H 632.09 -3.85793 2.15908 0
M  V30 6905 N 631.149 -1.42148 -0.680565 0
M  V30 6906 C 632.112 -1.4488 -1.77602 0
M  V30 6907 C 633.112 -0.337209 -1.57224 0
M  V30 6908 O 634.302 -0.597778 -1.63622 0
M  V30 6909 C 631.434 -1.27483 -3.16166 0
M  V30 6910 H 632.627 -2.42412 -1.76568 0
M  V30 6911 H 630.18 -1.28511 -0.889645 0
M  V30 6912 H 630.915 -0.30851 -3.22829 0
M  V30 6913 H 630.7 -2.08037 -3.3236 0
M  V30 6914 H 632.19 -1.32265 -3.96101 0
M  V30 6915 N 632.627 0.916307 -1.28225 0
M  V30 6916 C 633.876 1.65975 -1.14608 0
M  V30 6917 C 634.189 1.93204 0.305191 0
M  V30 6918 O 635.395 2.65611 0.562432 0
M  V30 6919 C 633.851 2.98989 -2.00333 0
M  V30 6920 C 633.459 2.79417 -3.50186 0
M  V30 6921 C 635.203 3.76856 -1.95397 0
M  V30 6922 C 633.11 4.08056 -4.28071 0
M  V30 6923 H 632.04 0.622587 -0.425324 0
M  V30 6924 H 634.691 1.01705 -1.52736 0
M  V30 6925 H 633.073 3.6438 -1.5506 0
M  V30 6926 H 634.247 2.22723 -4.034 0
M  V30 6927 H 632.562 2.14966 -3.56621 0
M  V30 6928 H 635.159 4.72203 -2.50856 0
M  V30 6929 H 635.502 4.05776 -0.930137 0
M  V30 6930 H 636.035 3.1828 -2.38626 0
M  V30 6931 H 632.774 3.8431 -5.31024 0
M  V30 6932 H 632.294 4.64371 -3.79631 0
M  V30 6933 H 633.973 4.76333 -4.37854 0
M  V30 6934 N 634.105 1.10431 1.1244 0
M  V30 6935 C 635.052 0.753103 2.18167 0
M  V30 6936 C 636.022 -0.270549 1.63882 0
M  V30 6937 O 637.207 -0.149837 1.90211 0
M  V30 6938 C 634.347 0.191046 3.44571 0
M  V30 6939 C 633.46 1.26999 4.12911 0
M  V30 6940 C 632.595 0.669586 5.26963 0
M  V30 6941 C 631.634 1.72912 5.87169 0
M  V30 6942 N 630.771 1.14898 6.92635 0
M  V30 6943 H 635.611 1.65892 2.47556 0
M  V30 6944 H 633.148 0.828631 1.21541 0
M  V30 6945 H 635.106 -0.152712 4.1692 0
M  V30 6946 H 633.736 -0.677997 3.15599 0
M  V30 6947 H 632.788 1.73087 3.3874 0
M  V30 6948 H 634.1 2.07204 4.53727 0
M  V30 6949 H 633.254 0.275274 6.06075 0
M  V30 6950 H 631.993 -0.163895 4.87425 0
M  V30 6951 H 630.998 2.13286 5.06744 0
M  V30 6952 H 632.223 2.56544 6.28778 0
M  V30 6953 H 630.169 0.336956 6.55134 0
M  V30 6954 H 630.086 1.88786 7.32049 0
M  V30 6955 H 631.354 0.78121 7.75576 0
M  V30 6956 N 635.583 -1.29855 0.893053 0
M  V30 6957 C 636.516 -2.26079 0.3104 0
M  V30 6958 C 637.494 -1.52145 -0.573644 0
M  V30 6959 O 638.678 -1.8113 -0.521937 0
M  V30 6960 C 635.805 -3.34069 -0.558179 0
M  V30 6961 C 634.851 -4.25721 0.257638 0
M  V30 6962 S 635.684 -5.09409 1.65114 0
M  V30 6963 C 636.84 -6.20903 0.789307 0
M  V30 6964 H 637.073 -2.75151 1.12602 0
M  V30 6965 H 634.606 -1.37975 0.692978 0
M  V30 6966 H 636.564 -3.9675 -1.05355 0
M  V30 6967 H 635.225 -2.83705 -1.34797 0
M  V30 6968 H 634.418 -5.02366 -0.405562 0
M  V30 6969 H 634.02 -3.67656 0.685917 0
M  V30 6970 H 636.312 -6.77499 0.00978451 0
M  V30 6971 H 637.255 -6.91426 1.52762 0
M  V30 6972 H 637.663 -5.63435 0.346634 0
M  V30 6973 N 637.061 -0.65484 -1.43351 0
M  V30 6974 C 638.31 -0.166215 -2.01014 0
M  V30 6975 C 638.623 1.22764 -1.52278 0
M  V30 6976 O 639.829 1.81156 -2.02224 0
M  V30 6977 C 638.285 -0.246341 -3.59056 0
M  V30 6978 C 637.893 -1.64299 -4.16785 0
M  V30 6979 C 639.637 0.184597 -4.24098 0
M  V30 6980 C 637.544 -1.67695 -5.67126 0
M  V30 6981 H 636.474 -0.0583769 -0.751737 0
M  V30 6982 H 639.125 -0.817111 -1.64303 0
M  V30 6983 H 637.507 0.472092 -3.93176 0
M  V30 6984 H 638.681 -2.3869 -3.94162 0
M  V30 6985 H 636.996 -2.02004 -3.6412 0
M  V30 6986 H 639.593 0.179088 -5.344 0
M  V30 6987 H 639.936 1.21632 -3.98135 0
M  V30 6988 H 640.469 -0.482141 -3.94867 0
M  V30 6989 H 637.208 -2.68783 -5.9786 0
M  V30 6990 H 636.728 -0.976313 -5.91801 0
M  V30 6991 H 638.407 -1.42142 -6.31193 0
M  V30 6992 N 638.539 1.52521 -0.396863 0
M  V30 6993 C 639.486 2.26671 0.434624 0
M  V30 6994 C 640.456 1.28584 1.05144 0
M  V30 6995 O 641.641 1.57426 1.07804 0
M  V30 6996 C 638.781 3.08234 1.55196 0
M  V30 6997 C 637.894 4.21261 0.957262 0
M  V30 6998 C 637.029 4.90205 2.04627 0
M  V30 6999 C 636.068 5.95213 1.42787 0
M  V30 7000 N 635.205 6.57723 2.45651 0
M  V30 7001 H 640.045 2.973 -0.204139 0
M  V30 7002 H 637.582 1.46669 -0.112505 0
M  V30 7003 H 639.54 3.53819 2.2106 0
M  V30 7004 H 638.17 2.398 2.16092 0
M  V30 7005 H 637.222 3.79935 0.188005 0
M  V30 7006 H 638.534 4.96624 0.465416 0
M  V30 7007 H 637.688 5.39133 2.78246 0
M  V30 7008 H 636.427 4.14383 2.57174 0
M  V30 7009 H 635.432 5.45616 0.676968 0
M  V30 7010 H 636.657 6.72972 0.910255 0
M  V30 7011 H 634.603 5.84737 2.97353 0
M  V30 7012 H 634.52 7.28723 2.01243 0
M  V30 7013 H 635.788 7.11293 3.18876 0
M  V30 7014 N 640.017 0.126909 1.57088 0
M  V30 7015 C 640.927 -0.833867 2.1928 0
M  V30 7016 C 641.943 -1.2868 1.17122 0
M  V30 7017 O 643.119 -1.34815 1.49622 0
M  V30 7018 C 640.184 -2.0632 2.78627 0
M  V30 7019 C 639.245 -1.66143 3.95847 0
M  V30 7020 C 638.478 -2.83217 4.52354 0
M  V30 7021 O 638.701 -3.98868 4.0775 0
M  V30 7022 O 637.635 -2.59846 5.42922 0
M  V30 7023 H 641.461 -0.334564 3.01852 0
M  V30 7024 H 639.046 -0.0991091 1.49071 0
M  V30 7025 H 640.928 -2.78304 3.16425 0
M  V30 7026 H 639.603 -2.55242 1.99082 0
M  V30 7027 H 638.51 -0.912435 3.62802 0
M  V30 7028 H 639.843 -1.21957 4.76852 0
M  V30 7029 N 641.495 -1.56914 -0.146875 0
M  V30 7030 C 642.743 -1.82994 -0.85777 0
M  V30 7031 C 643.064 -0.707814 -1.817 0
M  V30 7032 O 642.334 0.270521 -1.94023 0
M  V30 7033 H 640.914 -0.675106 -0.319751 0
M  V30 7034 H 643.576 -1.9439 -0.140849 0
M  V30 7035 H 642.672 -2.77928 -1.41994 0
M  V30 7036 N 642.974 0.416227 -1.52004 0
M  V30 7037 C 644.199 1.19029 -1.69843 0
M  V30 7038 C 644.624 1.83708 -0.404103 0
M  V30 7039 O 643.982 1.69711 0.637787 0
M  V30 7040 C 644.03 2.23439 -2.83032 0
M  V30 7041 O 643.134 3.29419 -2.48106 0
M  V30 7042 H 642.475 0.347785 -0.565634 0
M  V30 7043 H 645.005 0.488871 -1.98674 0
M  V30 7044 H 645.015 2.67884 -3.07737 0
M  V30 7045 H 643.69 1.75745 -3.76944 0
M  V30 7046 H 642.267 2.90303 -2.34048 0
M  V30 7047 N 644.452 1.42507 0.673017 0
M  V30 7048 C 645.385 1.40557 1.79774 0
M  V30 7049 C 646.363 0.269606 1.60349 0
M  V30 7050 O 647.547 0.460105 1.82798 0
M  V30 7051 C 644.674 1.19815 3.168 0
M  V30 7052 C 643.72 2.36429 3.5497 0
M  V30 7053 S 644.553 3.98963 3.57196 0
M  V30 7054 C 645.709 3.80567 4.9691 0
M  V30 7055 H 645.942 2.35734 1.81154 0
M  V30 7056 H 643.475 1.293 0.843846 0
M  V30 7057 H 645.433 1.08535 3.95892 0
M  V30 7058 H 644.094 0.262215 3.13004 0
M  V30 7059 H 643.287 2.17669 4.54573 0
M  V30 7060 H 642.889 2.44233 2.83242 0
M  V30 7061 H 645.181 3.41668 5.85038 0
M  V30 7062 H 646.124 4.79852 5.20718 0
M  V30 7063 H 646.532 3.13399 4.69512 0
M  V30 7064 N 645.93 -0.909495 1.28709 0
M  V30 7065 C 647.155 -1.69801 1.1909 0
M  V30 7066 C 647.58 -1.86479 -0.246388 0
M  V30 7067 O 646.938 -1.37802 -1.17815 0
M  V30 7068 C 646.986 -3.06543 1.89904 0
M  V30 7069 O 646.09 -3.94268 1.2094 0
M  V30 7070 H 645.431 -0.519783 0.413185 0
M  V30 7071 H 647.961 -1.13689 1.70106 0
M  V30 7072 H 647.971 -3.56748 1.97977 0
M  V30 7073 H 646.646 -2.93722 2.94449 0
M  V30 7074 H 645.223 -3.52702 1.2106 0
M  V30 7075 N 647.408 -1.11026 -1.11852 0
M  V30 7076 C 648.318 -0.777252 -2.2135 0
M  V30 7077 C 649.334 0.227821 -1.72502 0
M  V30 7078 O 650.51 0.0650587 -2.01295 0
M  V30 7079 C 647.575 -0.220668 -3.45997 0
M  V30 7080 C 646.636 -1.2838 -4.09655 0
M  V30 7081 C 645.869 -0.753678 -5.28352 0
M  V30 7082 O 646.092 0.417779 -5.68868 0
M  V30 7083 O 645.026 -1.51647 -5.82483 0
M  V30 7084 H 648.852 -1.69141 -2.5224 0
M  V30 7085 H 646.437 -0.885836 -1.20305 0
M  V30 7086 H 648.319 0.0855756 -4.21313 0
M  V30 7087 H 646.994 0.666262 -3.16769 0
M  V30 7088 H 645.901 -1.64299 -3.3609 0
M  V30 7089 H 647.234 -2.14396 -4.43052 0
M  V30 7090 N 648.886 1.2938 -0.899927 0
M  V30 7091 C 650.163 1.9046 -0.445443 0
M  V30 7092 C 650.543 1.81683 1.07492 0
M  V30 7093 O 649.891 1.24371 1.91688 0
M  V30 7094 C 650.101 3.35529 -0.960279 0
M  V30 7095 C 651.449 4.12556 -1.00412 0
M  V30 7096 O 652.473 3.44434 -0.907965 0
M  V30 7097 O 651.332 5.34294 -1.14857 0
M  V30 7098 H 648.426 0.815253 -0.138893 0
M  V30 7099 H 650.972 1.37844 -0.989808 0
M  V30 7100 H 649.744 3.36074 -2.00425 0
M  V30 7101 H 649.367 3.95624 -0.395939 0
M  V30 7102 N 650.364 0.662433 1.43002 0
M  V30 7103 C 651.274 -0.0239199 2.34588 0
M  V30 7104 C 652.29 -0.802255 1.54402 0
M  V30 7105 O 653.466 -0.747401 1.87018 0
M  V30 7106 C 650.531 -0.972098 3.32793 0
M  V30 7107 C 649.592 -0.189673 4.28881 0
M  V30 7108 C 648.825 -1.09269 5.22395 0
M  V30 7109 O 649.048 -2.33209 5.20547 0
M  V30 7110 O 647.982 -0.560136 5.99288 0
M  V30 7111 H 651.808 0.730171 2.94792 0
M  V30 7112 H 649.393 0.422635 1.43297 0
M  V30 7113 H 651.275 -1.51676 3.93157 0
M  V30 7114 H 649.95 -1.70626 2.75079 0
M  V30 7115 H 648.857 0.398794 3.71968 0
M  V30 7116 H 650.19 0.50511 4.89601 0
M  V30 7117 N 651.842 -1.52309 0.404946 0
M  V30 7118 C 653.089 -2.01767 -0.1722 0
M  V30 7119 C 653.417 -1.29075 -1.45498 0
M  V30 7120 O 652.672 -0.3843 -1.9189 0
M  V30 7121 C 652.971 -3.54284 -0.470895 0
M  V30 7122 C 652.637 -4.45079 0.722194 0
M  V30 7123 C 651.299 -4.69617 1.04946 0
M  V30 7124 C 653.651 -4.98555 1.51962 0
M  V30 7125 C 650.979 -5.44878 2.17543 0
M  V30 7126 C 653.331 -5.75049 2.63632 0
M  V30 7127 C 651.995 -5.9786 2.9685 0
M  V30 7128 H 651.265 -0.738316 -0.0630125 0
M  V30 7129 H 653.912 -1.83566 0.545506 0
M  V30 7130 H 652.217 -3.70642 -1.27012 0
M  V30 7131 H 653.914 -3.90058 -0.930346 0
M  V30 7132 H 650.504 -4.26155 0.457131 0
M  V30 7133 H 654.688 -4.79509 1.28002 0
M  V30 7134 H 649.944 -5.60762 2.43631 0
M  V30 7135 H 654.118 -6.15483 3.25813 0
M  V30 7136 H 651.745 -6.5596 3.84215 0
M  V30 7137 N 653.32 -0.135238 -1.57019 0
M  V30 7138 C 654.569 0.518694 -1.94917 0
M  V30 7139 C 654.882 1.66783 -1.0219 0
M  V30 7140 O 656.088 2.38561 -1.29619 0
M  V30 7141 C 654.544 0.974123 -3.46466 0
M  V30 7142 C 654.152 -0.147439 -4.47757 0
M  V30 7143 C 655.896 1.59851 -3.93253 0
M  V30 7144 C 653.803 0.325599 -5.90503 0
M  V30 7145 H 652.733 0.19754 -0.727663 0
M  V30 7146 H 655.384 -0.217698 -1.82204 0
M  V30 7147 H 653.766 1.76542 -3.5447 0
M  V30 7148 H 654.94 -0.924122 -4.51438 0
M  V30 7149 H 653.255 -0.679496 -4.10818 0
M  V30 7150 H 655.852 1.96385 -4.9733 0
M  V30 7151 H 656.195 2.48306 -3.3414 0
M  V30 7152 H 656.728 0.872323 -3.88118 0
M  V30 7153 H 653.467 -0.523295 -6.53408 0
M  V30 7154 H 652.987 1.06841 -5.90208 0
M  V30 7155 H 654.666 0.781498 -6.42263 0
M  V30 7156 N 654.798 1.5699 0.138552 0
M  V30 7157 C 655.708 2.02174 1.19008 0
M  V30 7158 C 656.724 0.938622 1.46512 0
M  V30 7159 O 657.9 1.24872 1.58016 0
M  V30 7160 C 654.965 2.40045 2.50159 0
M  V30 7161 C 654.026 3.62346 2.30226 0
M  V30 7162 C 653.259 3.98401 3.55123 0
M  V30 7163 O 653.482 3.35019 4.61647 0
M  V30 7164 O 652.416 4.91606 3.47285 0
M  V30 7165 H 656.242 2.91954 0.836452 0
M  V30 7166 H 653.827 1.45293 0.347907 0
M  V30 7167 H 655.709 2.65225 3.27465 0
M  V30 7168 H 654.384 1.53417 2.85035 0
M  V30 7169 H 653.291 3.42341 1.50843 0
M  V30 7170 H 654.624 4.49617 2.00262 0
M  V30 7171 N 656.276 -0.40816 1.52223 0
M  V30 7172 C 657.186 -1.52202 1.78526 0
M  V30 7173 C 658.202 -1.60546 0.670892 0
M  V30 7174 O 659.378 -1.77242 0.956404 0
M  V30 7175 C 656.443 -2.87928 1.93128 0
M  V30 7176 C 655.504 -2.89463 3.17033 0
M  V30 7177 C 654.737 -4.18715 3.30929 0
M  V30 7178 O 654.96 -5.12662 2.50067 0
M  V30 7179 O 653.894 -4.27125 4.24084 0
M  V30 7180 H 657.72 -1.32911 2.73072 0
M  V30 7181 H 655.305 -0.594112 1.37079 0
M  V30 7182 H 657.187 -3.68426 2.04549 0
M  V30 7183 H 655.862 -3.07285 1.01772 0
M  V30 7184 H 654.769 -2.07815 3.11069 0
M  V30 7185 H 656.102 -2.75055 4.08174 0
M  V30 7186 N 657.755 -1.42862 -0.66545 0
M  V30 7187 C 658.718 -1.46756 -1.76055 0
M  V30 7188 C 659.718 -0.353866 -1.56858 0
M  V30 7189 O 660.908 -0.615099 -1.62979 0
M  V30 7190 C 658.04 -1.30829 -3.14796 0
M  V30 7191 H 659.233 -2.44271 -1.73987 0
M  V30 7192 H 656.786 -1.29447 -0.875965 0
M  V30 7193 H 657.521 -0.342733 -3.22484 0
M  V30 7194 H 657.306 -2.11551 -3.30134 0
M  V30 7195 H 658.796 -1.36458 -3.94676 0
M  V30 7196 N 659.233 0.902656 -1.29189 0
M  V30 7197 C 660.18 2.00643 -1.14066 0
M  V30 7198 C 661.15 1.66064 -0.0347756 0
M  V30 7199 O 662.335 1.8973 -0.201752 0
M  V30 7200 C 659.475 3.35214 -0.820104 0
M  V30 7201 C 658.588 3.82594 -2.00614 0
M  V30 7202 C 657.723 5.05727 -1.62522 0
M  V30 7203 C 656.762 5.45469 -2.77724 0
M  V30 7204 N 655.899 6.59789 -2.40048 0
M  V30 7205 H 660.739 2.1291 -2.08502 0
M  V30 7206 H 658.276 1.04271 -1.03759 0
M  V30 7207 H 660.234 4.12643 -0.614949 0
M  V30 7208 H 658.864 3.22682 0.0873452 0
M  V30 7209 H 657.916 3.01226 -2.32308 0
M  V30 7210 H 659.228 4.07999 -2.86946 0
M  V30 7211 H 658.382 5.90732 -1.38277 0
M  V30 7212 H 657.121 4.82155 -0.733333 0
M  V30 7213 H 656.126 4.59 -3.02653 0
M  V30 7214 H 657.351 5.71024 -3.67572 0
M  V30 7215 H 655.297 6.37826 -1.53343 0
M  V30 7216 H 655.214 6.84975 -3.19914 0
M  V30 7217 H 656.482 7.4807 -2.19116 0
M  V30 7218 N 660.711 1.11618 1.11262 0
M  V30 7219 C 661.957 0.867463 1.83311 0
M  V30 7220 C 662.29 -0.605366 1.84524 0
M  V30 7221 O 661.565 -1.44704 1.29965 0
M  V30 7222 C 661.848 1.43207 3.30399 0
M  V30 7223 C 661.701 2.97265 3.3757 0
M  V30 7224 C 663.02 1.08454 4.26528 0
M  V30 7225 H 660.139 0.316578 0.665543 0
M  V30 7226 H 662.781 1.38137 1.30454 0
M  V30 7227 H 660.931 0.994982 3.75543 0
M  V30 7228 H 662.603 3.49591 3.00971 0
M  V30 7229 H 660.846 3.33237 2.77733 0
M  V30 7230 H 661.517 3.31859 4.41105 0
M  V30 7231 H 663.993 1.4619 3.89574 0
M  V30 7232 H 662.869 1.50633 5.27826 0
M  V30 7233 H 663.13 -0.00444568 4.421 0
M  V30 7234 N 662.189 -1.289 0.906776 0
M  V30 7235 C 663.122 -2.25737 0.334362 0
M  V30 7236 C 664.1 -1.52745 -0.557474 0
M  V30 7237 O 665.284 -1.81673 -0.502697 0
M  V30 7238 C 662.411 -3.34642 -0.522716 0
M  V30 7239 C 661.457 -4.25424 0.302777 0
M  V30 7240 S 662.29 -5.07629 1.70508 0
M  V30 7241 C 663.446 -6.20031 0.855118 0
M  V30 7242 H 663.679 -2.73941 1.15514 0
M  V30 7243 H 661.212 -1.37233 0.707573 0
M  V30 7244 H 663.17 -3.97845 -1.01141 0
M  V30 7245 H 661.831 -2.85119 -1.31781 0
M  V30 7246 H 661.024 -5.02767 -0.352257 0
M  V30 7247 H 660.626 -3.66908 0.724873 0
M  V30 7248 H 662.918 -6.77451 0.0816418 0
M  V30 7249 H 663.861 -6.89767 1.60087 0
M  V30 7250 H 664.269 -5.63035 0.406375 0
M  V30 7251 N 663.667 -0.670007 -1.42649 0
M  V30 7252 C 664.6 0.0613623 -2.28117 0
M  V30 7253 C 665.578 0.813414 -1.40792 0
M  V30 7254 O 666.762 0.809529 -1.70232 0
M  V30 7255 C 663.889 1.09399 -3.20546 0
M  V30 7256 C 662.935 0.438064 -4.24244 0
M  V30 7257 S 663.768 -0.800808 -5.29478 0
M  V30 7258 C 664.924 0.23086 -6.25474 0
M  V30 7259 H 665.157 -0.663606 -2.89799 0
M  V30 7260 H 662.69 -0.45939 -1.47407 0
M  V30 7261 H 664.648 1.68469 -3.74337 0
M  V30 7262 H 663.309 1.79137 -2.58009 0
M  V30 7263 H 662.502 1.21707 -4.89084 0
M  V30 7264 H 662.104 -0.0789346 -3.73917 0
M  V30 7265 H 664.396 1.09204 -6.68641 0
M  V30 7266 H 665.339 -0.382945 -7.07064 0
M  V30 7267 H 665.747 0.574191 -5.61572 0
M  V30 7268 N 665.145 1.52092 -0.413018 0
M  V30 7269 C 666.093 2.28681 0.425199 0
M  V30 7270 C 667.087 1.3353 1.04241 0
M  V30 7271 O 668.293 1.50973 0.980166 0
M  V30 7272 H 664.668 0.735661 0.155906 0
M  V30 7273 H 666.639 2.97418 -0.241926 0
M  V30 7274 C 665.388 3.1235 1.5275 0
M  V30 7275 H 664.711 3.85439 1.06191 0
M  V30 7276 H 666.151 3.69038 2.08774 0
M  V30 7277 C 664.61 2.26161 2.49706 0
M  V30 7278 O 665.14 1.90452 3.53682 0
M  V30 7279 N 663.346 1.89854 2.20008 0
M  V30 7280 H 662.893 2.19092 1.35486 0
M  V30 7281 H 662.851 1.3248 2.85125 0
M  V30 7282 N 666.623 0.143563 1.56945 0
M  V30 7283 C 667.553 -0.7936 2.196 0
M  V30 7284 C 668.534 -1.25955 1.14321 0
M  V30 7285 O 669.719 -1.31773 1.42651 0
M  V30 7286 C 666.849 -2.03424 2.81489 0
M  V30 7287 C 665.803 -1.70519 3.92565 0
M  V30 7288 C 665.129 -3.01817 4.41373 0
M  V30 7289 C 666.429 -0.95449 5.13504 0
M  V30 7290 H 668.123 -0.271423 2.98167 0
M  V30 7291 H 665.669 -0.12911 1.4342 0
M  V30 7292 H 667.622 -2.69463 3.23987 0
M  V30 7293 H 666.346 -2.58008 2.00248 0
M  V30 7294 H 665.005 -1.06859 3.5068 0
M  V30 7295 H 664.653 -3.54386 3.56959 0
M  V30 7296 H 664.353 -2.80565 5.16292 0
M  V30 7297 H 665.877 -3.68934 4.86539 0
M  V30 7298 H 667.291 -1.5169 5.52868 0
M  V30 7299 H 665.688 -0.842035 5.94163 0
M  V30 7300 H 666.758 0.0544033 4.84869 0
M  V30 7301 N 668.101 -1.57061 -0.130224 0
M  V30 7302 C 669.326 -1.88802 -0.858409 0
M  V30 7303 C 669.751 -0.734353 -1.73173 0
M  V30 7304 O 669.109 0.315529 -1.78533 0
M  V30 7305 C 669.157 -3.19228 -1.67708 0
M  V30 7306 O 668.261 -3.04343 -2.78297 0
M  V30 7307 H 667.602 -0.619849 -0.238083 0
M  V30 7308 H 670.132 -2.04271 -0.115995 0
M  V30 7309 H 670.142 -3.51669 -2.06864 0
M  V30 7310 H 668.817 -4.02793 -1.0359 0
M  V30 7311 H 667.394 -2.83346 -2.42425 0
M  V30 7312 N 669.579 0.400081 -1.52437 0
M  V30 7313 C 670.529 1.48734 -1.72807 0
M  V30 7314 C 671.513 1.50004 -0.582032 0
M  V30 7315 O 672.705 1.55828 -0.839449 0
M  V30 7316 C 669.834 2.86568 -1.89034 0
M  V30 7317 C 668.92 2.8991 -3.09537 0
M  V30 7318 N 669.311 2.62937 -4.32086 0
M  V30 7319 C 667.609 3.21078 -3.09556 0
M  V30 7320 C 668.31 2.73079 -5.13617 0
M  V30 7321 N 667.286 3.06342 -4.49061 0
M  V30 7322 H 671.088 1.26689 -2.65193 0
M  V30 7323 H 668.602 0.607902 -1.50593 0
M  V30 7324 H 670.599 3.64834 -2.01746 0
M  V30 7325 H 669.259 3.09604 -0.978547 0
M  V30 7326 H 670.27 2.37163 -4.60406 0
M  V30 7327 H 666.947 3.49651 -2.28146 0
M  V30 7328 H 668.337 2.55863 -6.21276 0
M  V30 7329 N 671.057 1.43213 0.657864 0
M  V30 7330 C 671.967 1.50448 1.80007 0
M  V30 7331 C 672.983 0.39191 1.69529 0
M  V30 7332 O 674.159 0.645349 1.90781 0
M  V30 7333 C 671.224 1.42062 3.16258 0
M  V30 7334 C 670.285 2.63951 3.38568 0
M  V30 7335 C 669.518 2.55956 4.68318 0
M  V30 7336 O 669.741 1.60473 5.47361 0
M  V30 7337 O 668.675 3.46378 4.92245 0
M  V30 7338 H 672.501 2.4689 1.76858 0
M  V30 7339 H 670.086 1.25163 0.81576 0
M  V30 7340 H 671.968 1.3981 3.97531 0
M  V30 7341 H 670.643 0.487524 3.20008 0
M  V30 7342 H 669.55 2.71776 2.57077 0
M  V30 7343 H 670.883 3.56217 3.39662 0
M  V30 7344 N 672.536 -0.895792 1.29666 0
M  V30 7345 C 673.483 -2.00035 1.15129 0
M  V30 7346 C 674.453 -1.66043 0.0435819 0
M  V30 7347 O 675.638 -1.89621 0.211811 0
M  V30 7348 C 672.778 -3.34774 0.83787 0
M  V30 7349 C 671.891 -3.81525 2.0264 0
M  V30 7350 C 671.026 -5.04858 1.65201 0
M  V30 7351 C 670.065 -5.43988 2.80612 0
M  V30 7352 N 669.202 -6.58507 2.43544 0
M  V30 7353 H 674.042 -2.11802 2.09628 0
M  V30 7354 H 671.579 -1.03719 1.04311 0
M  V30 7355 H 673.537 -4.12311 0.636824 0
M  V30 7356 H 672.167 -3.22724 -0.0702314 0
M  V30 7357 H 671.219 -2.9999 2.33903 0
M  V30 7358 H 672.531 -4.06472 2.89106 0
M  V30 7359 H 671.685 -5.8999 1.41408 0
M  V30 7360 H 670.424 -4.81759 0.758893 0
M  V30 7361 H 669.429 -4.57388 3.05083 0
M  V30 7362 H 670.654 -5.69066 3.70595 0
M  V30 7363 H 668.6 -6.37004 1.56724 0
M  V30 7364 H 668.517 -6.83269 3.23542 0
M  V30 7365 H 669.785 -7.46897 2.2308 0
M  V30 7366 N 674.014 -1.12206 -1.10668 0
M  V30 7367 C 674.944 -0.810086 -2.18997 0
M  V30 7368 C 675.925 0.225065 -1.68604 0
M  V30 7369 O 677.11 0.086783 -1.94006 0
M  V30 7370 C 674.24 -0.261262 -3.46316 0
M  V30 7371 C 673.194 -1.2292 -4.09969 0
M  V30 7372 C 672.52 -0.540713 -5.31959 0
M  V30 7373 C 673.82 -2.58295 -4.53962 0
M  V30 7374 H 675.514 -1.7159 -2.45352 0
M  V30 7375 H 673.06 -0.82646 -1.17922 0
M  V30 7376 H 675.013 -0.0307522 -4.21389 0
M  V30 7377 H 673.737 0.679879 -3.19445 0
M  V30 7378 H 672.396 -1.44548 -3.369 0
M  V30 7379 H 672.044 0.405492 -5.01363 0
M  V30 7380 H 671.744 -1.18637 -5.75499 0
M  V30 7381 H 673.268 -0.319184 -6.09765 0
M  V30 7382 H 674.682 -2.40709 -5.20319 0
M  V30 7383 H 673.079 -3.18916 -5.08343 0
M  V30 7384 H 674.149 -3.16918 -3.67002 0
M  V30 7385 N 675.492 1.28418 -0.913599 0
M  V30 7386 C 676.738 1.9527 -0.547484 0
M  V30 7387 C 677.071 1.71745 0.906486 0
M  V30 7388 O 676.346 1.03834 1.64465 0
M  V30 7389 C 676.629 3.49748 -0.857205 0
M  V30 7390 C 676.482 3.82675 -2.3639 0
M  V30 7391 C 677.801 4.3868 -0.353258 0
M  V30 7392 H 674.92 0.709236 -0.200381 0
M  V30 7393 H 677.562 1.51789 -1.14281 0
M  V30 7394 H 675.712 3.86915 -0.350548 0
M  V30 7395 H 677.384 3.55378 -2.94116 0
M  V30 7396 H 675.627 3.29724 -2.81894 0
M  V30 7397 H 676.298 4.90547 -2.53115 0
M  V30 7398 H 678.774 4.08584 -0.787288 0
M  V30 7399 H 677.65 5.45621 -0.599049 0
M  V30 7400 H 677.911 4.35753 0.746413 0
M  V30 7401 N 676.97 0.677563 1.42291 0
M  V30 7402 C 677.902 -0.0380218 2.29168 0
M  V30 7403 C 678.915 -0.762714 1.43828 0
M  V30 7404 O 680.104 -0.616413 1.67519 0
M  V30 7405 C 677.204 -1.07761 3.21311 0
M  V30 7406 C 676.377 -0.42618 4.35319 0
M  V30 7407 C 675.436 -1.36592 5.08162 0
M  V30 7408 O 674.462 -0.865174 5.62586 0
M  V30 7409 N 675.664 -2.69909 5.13935 0
M  V30 7410 H 678.429 0.707766 2.91223 0
M  V30 7411 H 675.99 0.52219 1.53247 0
M  V30 7412 H 677.982 -1.70761 3.6691 0
M  V30 7413 H 676.552 -1.72511 2.60689 0
M  V30 7414 H 675.772 0.383385 3.92331 0
M  V30 7415 H 677.06 0.0275277 5.08793 0
M  V30 7416 H 676.458 -3.13129 4.71134 0
M  V30 7417 H 675.015 -3.2815 5.6317 0
M  V30 7418 N 678.448 -1.51871 0.421078 0
M  V30 7419 C 679.378 -2.30231 -0.389363 0
M  V30 7420 C 680.359 -1.34946 -1.03555 0
M  V30 7421 O 681.544 -1.63859 -1.04229 0
M  V30 7422 C 678.674 -3.13247 -1.49979 0
M  V30 7423 C 677.628 -4.16677 -0.977966 0
M  V30 7424 C 676.954 -4.88112 -2.1829 0
M  V30 7425 C 678.254 -5.22295 -0.0236775 0
M  V30 7426 H 679.948 -2.98229 0.264524 0
M  V30 7427 H 677.494 -1.43424 0.12866 0
M  V30 7428 H 679.447 -3.66838 -2.07383 0
M  V30 7429 H 678.171 -2.4304 -2.18173 0
M  V30 7430 H 676.83 -3.64114 -0.426245 0
M  V30 7431 H 676.478 -4.14423 -2.85066 0
M  V30 7432 H 676.178 -5.58041 -1.84021 0
M  V30 7433 H 677.702 -5.44521 -2.76278 0
M  V30 7434 H 679.116 -5.71055 -0.506899 0
M  V30 7435 H 677.513 -5.99656 0.230782 0
M  V30 7436 H 678.583 -4.76131 0.917999 0
M  V30 7437 N 679.926 -0.151884 -1.56866 0
M  V30 7438 C 681.156 0.504081 -2.00356 0
M  V30 7439 C 681.564 1.58639 -1.03103 0
M  V30 7440 O 680.907 1.83688 -0.0207931 0
M  V30 7441 C 680.969 1.15975 -3.40279 0
M  V30 7442 C 680.633 0.221453 -4.56463 0
M  V30 7443 C 681.63 -0.552766 -5.16953 0
M  V30 7444 C 679.315 0.122936 -5.0215 0
M  V30 7445 C 681.309 -1.4129 -6.21543 0
M  V30 7446 C 678.996 -0.740801 -6.06593 0
M  V30 7447 C 679.994 -1.50732 -6.6616 0
M  V30 7448 O 679.682 -2.35666 -7.68581 0
M  V30 7449 H 679.414 0.135279 -0.662326 0
M  V30 7450 H 681.968 -0.244916 -2.03935 0
M  V30 7451 H 680.198 1.95649 -3.33554 0
M  V30 7452 H 681.887 1.71594 -3.67846 0
M  V30 7453 H 682.653 -0.486716 -4.82552 0
M  V30 7454 H 678.532 0.70931 -4.5551 0
M  V30 7455 H 682.076 -2.01166 -6.67966 0
M  V30 7456 H 677.973 -0.808125 -6.40421 0
M  V30 7457 H 678.741 -2.28967 -7.85822 0
M  V30 7458 N 681.404 1.57128 0.121893 0
M  V30 7459 C 682.652 1.84335 0.828548 0
M  V30 7460 C 682.973 0.736632 1.80551 0
M  V30 7461 O 682.243 -0.23962 1.94429 0
M  V30 7462 H 680.823 0.680108 0.30897 0
M  V30 7463 H 683.485 1.9459 0.109906 0
M  V30 7464 H 682.581 2.80152 1.37554 0
M  V30 7465 N 682.882 -0.391992 1.52647 0
M  V30 7466 C 684.128 -1.139 1.67793 0
M  V30 7467 C 684.461 -1.89711 0.41514 0
M  V30 7468 O 683.736 -1.85431 -0.586979 0
M  V30 7469 C 684.019 -2.11966 2.91105 0
M  V30 7470 C 683.872 -1.39939 4.27478 0
M  V30 7471 C 685.191 -3.1243 3.09961 0
M  V30 7472 H 682.31 -0.412707 0.610608 0
M  V30 7473 H 684.952 -0.422725 1.85238 0
M  V30 7474 H 683.102 -2.73048 2.76364 0
M  V30 7475 H 684.774 -0.818439 4.53982 0
M  V30 7476 H 683.017 -0.701246 4.28095 0
M  V30 7477 H 683.688 -2.1158 5.09841 0
M  V30 7478 H 686.164 -2.61435 3.23714 0
M  V30 7479 H 685.04 -3.78294 3.97725 0
M  V30 7480 H 685.301 -3.81127 2.24042 0
M  V30 7481 N 684.36 -1.4356 -0.65026 0
M  V30 7482 C 685.6 -1.46839 -1.42188 0
M  V30 7483 C 685.964 -0.0911433 -1.91784 0
M  V30 7484 O 687.165 0.00137545 -2.688 0
M  V30 7485 C 685.436 -2.48411 -2.56957 0
M  V30 7486 S 686.995 -2.70589 -3.45438 0
M  V30 7487 H 683.813 -0.519596 -0.485325 0
M  V30 7488 H 686.415 -1.80347 -0.75466 0
M  V30 7489 H 685.119 -3.47209 -2.18801 0
M  V30 7490 H 684.65 -2.16411 -3.28527 0
M  V30 7491 H 686.665 -2.00738 -4.53782 0
M  V30 7492 N 685.838 0.888903 -1.30139 0
M  V30 7493 C 687.066 1.67358 -1.21651 0
M  V30 7494 C 687.481 1.87499 0.221246 0
M  V30 7495 O 686.838 1.41969 1.14677 0
M  V30 7496 C 686.889 3.05213 -1.93719 0
M  V30 7497 O 686.61 2.85984 -3.31881 0
M  V30 7498 C 688.111 3.9964 -1.9184 0
M  V30 7499 H 685.331 0.522365 -0.42116 0
M  V30 7500 H 687.875 1.11086 -1.71698 0
M  V30 7501 H 686.03 3.5823 -1.4748 0
M  V30 7502 H 686.444 3.73411 -3.68327 0
M  V30 7503 H 687.918 4.93749 -2.46811 0
M  V30 7504 H 688.395 4.29955 -0.896409 0
M  V30 7505 H 689.001 3.52558 -2.37872 0
M  V30 7506 N 687.317 1.12792 1.10072 0
M  V30 7507 C 688.264 0.79921 2.16521 0
M  V30 7508 C 689.234 -0.235726 1.64419 0
M  V30 7509 O 690.419 -0.109457 1.90486 0
M  V30 7510 C 687.559 0.264091 3.44088 0
M  V30 7511 C 686.672 1.35729 4.10124 0
M  V30 7512 C 685.807 0.781212 5.25424 0
M  V30 7513 C 684.846 1.85327 5.8337 0
M  V30 7514 N 683.983 1.29564 6.90042 0
M  V30 7515 H 688.823 1.71105 2.43981 0
M  V30 7516 H 686.36 0.854225 1.19756 0
M  V30 7517 H 688.318 -0.0642423 4.17151 0
M  V30 7518 H 686.948 -0.610901 3.16967 0
M  V30 7519 H 686 1.80234 3.34993 0
M  V30 7520 H 687.312 2.16782 4.4923 0
M  V30 7521 H 686.466 0.403769 6.05355 0
M  V30 7522 H 685.205 -0.0604686 4.87663 0
M  V30 7523 H 684.21 2.23986 5.02106 0
M  V30 7524 H 685.435 2.69824 6.23195 0
M  V30 7525 H 683.381 0.475844 6.54272 0
M  V30 7526 H 683.298 2.04271 7.2788 0
M  V30 7527 H 684.566 0.945545 7.73744 0
M  V30 7528 N 688.795 -1.27931 0.920396 0
M  V30 7529 C 689.727 -2.26175 0.371169 0
M  V30 7530 C 690.74 -1.55122 -0.494065 0
M  V30 7531 O 691.929 -1.75825 -0.30787 0
M  V30 7532 C 689.029 -3.35376 -0.487481 0
M  V30 7533 C 688.202 -4.35943 0.356772 0
M  V30 7534 C 687.261 -5.24374 -0.438042 0
M  V30 7535 O 686.287 -5.68998 0.151715 0
M  V30 7536 N 687.489 -5.53823 -1.73956 0
M  V30 7537 H 690.254 -2.73938 1.21564 0
M  V30 7538 H 687.815 -1.41482 0.787047 0
M  V30 7539 H 689.807 -3.91476 -1.02609 0
M  V30 7540 H 688.377 -2.87269 -1.23269 0
M  V30 7541 H 687.597 -3.7921 1.07672 0
M  V30 7542 H 688.885 -5.0015 0.934206 0
M  V30 7543 H 688.283 -5.19413 -2.24114 0
M  V30 7544 H 686.84 -6.12653 -2.22486 0
M  V30 7545 N 690.273 -0.685099 -1.4193 0
M  V30 7546 C 691.689 -0.355632 -1.55587 0
M  V30 7547 C 691.889 1.13823 -1.66273 0
M  V30 7548 O 690.945 1.92387 -1.63534 0
M  V30 7549 C 692.258 -1.09498 -2.80055 0
M  V30 7550 C 693.806 -1.07831 -2.93839 0
M  V30 7551 C 694.281 -1.79919 -4.21181 0
M  V30 7552 N 695.772 -1.76837 -4.28115 0
M  V30 7553 C 696.507 -2.29463 -5.25485 0
M  V30 7554 N 696.003 -2.90516 -6.28945 0
M  V30 7555 N 697.796 -2.19779 -5.17353 0
M  V30 7556 H 689.947 -1.65412 -1.33239 0
M  V30 7557 H 692.21 -0.697453 -0.642078 0
M  V30 7558 H 691.916 -2.14997 -2.78333 0
M  V30 7559 H 691.79 -0.666813 -3.71259 0
M  V30 7560 H 694.177 -0.0316152 -2.95083 0
M  V30 7561 H 694.258 -1.54545 -2.03837 0
M  V30 7562 H 693.902 -2.84562 -4.20698 0
M  V30 7563 H 693.832 -1.30647 -5.10136 0
M  V30 7564 H 696.323 -1.32315 -3.53979 0
M  V30 7565 H 696.636 -3.28266 -6.99615 0
M  V30 7566 H 694.981 -2.94589 -6.29478 0
M  V30 7567 H 698.172 -1.71763 -4.35448 0
M  V30 7568 H 698.345 -2.61097 -5.9307 0
M  V30 7569 N 691.751 1.51645 -0.429126 0
M  V30 7570 C 693.162 1.86665 0.0359003 0
M  V30 7571 C 693.513 1.34677 1.42676 0
M  V30 7572 O 692.638 0.694195 2.04963 0
M  V30 7573 C 693.233 3.38724 0.0719221 0
M  V30 7574 C 691.792 3.7331 0.481336 0
M  V30 7575 C 690.939 2.75313 -0.331329 0
M  V30 7576 H 693.89 1.44987 -0.645333 0
M  V30 7577 H 693.911 3.7011 0.883118 0
M  V30 7578 H 693.423 3.76532 -0.940495 0
M  V30 7579 H 691.524 3.41088 1.49966 0
M  V30 7580 H 691.637 4.78631 0.211837 0
M  V30 7581 H 690.001 2.53839 0.209204 0
M  V30 7582 H 690.784 3.15963 -1.34247 0
M  V30 7583 N 693.229 0.160201 1.56784 0
M  V30 7584 C 694.478 -0.487619 1.95717 0
M  V30 7585 C 694.791 -1.65136 1.0483 0
M  V30 7586 O 695.997 -2.36468 1.33398 0
M  V30 7587 C 694.453 -0.91888 3.47972 0
M  V30 7588 C 694.061 0.218655 4.47466 0
M  V30 7589 C 695.805 -1.53575 3.95746 0
M  V30 7590 C 693.712 -0.231614 5.90946 0
M  V30 7591 H 692.642 -0.185939 0.730714 0
M  V30 7592 H 695.293 0.246657 1.81835 0
M  V30 7593 H 693.675 -1.70881 3.57234 0
M  V30 7594 H 694.849 0.995825 4.49911 0
M  V30 7595 H 693.164 0.744767 4.09685 0
M  V30 7596 H 695.761 -1.88448 5.00391 0
M  V30 7597 H 696.104 -2.42959 3.38048 0
M  V30 7598 H 696.637 -0.810467 3.89456 0
M  V30 7599 H 693.376 0.62718 6.52493 0
M  V30 7600 H 692.896 -0.974379 5.91833 0
M  V30 7601 H 694.575 -0.67922 6.43425 0
M  V30 7602 N 694.707 -1.5719 -0.113559 0
M  V30 7603 C 695.954 -1.85138 -0.820382 0
M  V30 7604 C 696.282 -0.74608 -1.79622 0
M  V30 7605 O 695.537 0.262077 -1.93937 0
M  V30 7606 C 695.836 -3.19593 -1.59984 0
M  V30 7607 C 695.502 -4.44315 -0.767809 0
M  V30 7608 C 694.164 -4.78179 -0.538379 0
M  V30 7609 C 696.516 -5.2086 -0.188203 0
M  V30 7610 C 693.844 -5.86028 0.28082 0
M  V30 7611 C 696.196 -6.29572 0.618217 0
M  V30 7612 C 694.86 -6.61964 0.857912 0
M  V30 7613 H 694.13 -0.677467 -0.300199 0
M  V30 7614 H 696.777 -1.91322 -0.0825443 0
M  V30 7615 H 695.082 -3.0901 -2.40874 0
M  V30 7616 H 696.779 -3.3844 -2.1508 0
M  V30 7617 H 693.369 -4.17786 -0.956724 0
M  V30 7618 H 697.553 -4.95045 -0.352658 0
M  V30 7619 H 692.809 -6.09547 0.475693 0
M  V30 7620 H 696.983 -6.88064 1.0743 0
M  V30 7621 H 694.61 -7.45365 1.49451 0
M  V30 7622 N 696.185 0.383891 -1.52853 0
M  V30 7623 C 697.434 1.12563 -1.67369 0
M  V30 7624 C 697.747 1.90982 -0.422533 0
M  V30 7625 O 698.953 2.6778 -0.447914 0
M  V30 7626 C 697.409 2.05011 -2.95801 0
M  V30 7627 C 697.017 1.31991 -4.28115 0
M  V30 7628 C 698.761 2.79289 -3.19684 0
M  V30 7629 C 696.668 2.23235 -5.4765 0
M  V30 7630 H 695.598 0.42391 -0.623552 0
M  V30 7631 H 698.249 0.388016 -1.79351 0
M  V30 7632 H 696.631 2.82429 -2.77578 0
M  V30 7633 H 697.805 0.597633 -4.56908 0
M  V30 7634 H 696.12 0.696517 -4.10533 0
M  V30 7635 H 698.717 3.47749 -4.06171 0
M  V30 7636 H 699.06 3.43649 -2.3497 0
M  V30 7637 H 699.593 2.08962 -3.38496 0
M  V30 7638 H 696.332 1.63482 -6.34786 0
M  V30 7639 H 695.852 2.93364 -5.23161 0
M  V30 7640 H 697.531 2.83205 -5.81725 0
M  V30 7641 N 697.663 1.43903 0.642637 0
M  V30 7642 C 698.912 1.45362 1.39831 0
M  V30 7643 C 699.225 0.0856289 1.95412 0
M  V30 7644 O 700.431 -0.0222856 2.71491 0
M  V30 7645 C 698.887 2.55857 2.53111 0
M  V30 7646 C 698.495 3.98811 2.04092 0
M  V30 7647 C 700.239 2.66524 3.30402 0
M  V30 7648 C 698.146 5.00751 3.14647 0
M  V30 7649 H 697.076 0.540777 0.52543 0
M  V30 7650 H 699.727 1.69929 0.692559 0
M  V30 7651 H 698.109 2.2451 3.26207 0
M  V30 7652 H 699.283 4.3967 1.37938 0
M  V30 7653 H 697.598 3.92284 1.39651 0
M  V30 7654 H 700.195 3.39858 4.12796 0
M  V30 7655 H 700.538 1.71949 3.79129 0
M  V30 7656 H 701.071 2.97224 2.64392 0
M  V30 7657 H 697.81 5.96914 2.70876 0
M  V30 7658 H 697.33 4.64495 3.79479 0
M  V30 7659 H 699.009 5.23933 3.79609 0
M  V30 7660 N 699.141 -0.881989 1.30609 0
M  V30 7661 C 700.369 -1.66711 1.22536 0
M  V30 7662 C 700.784 -1.87614 -0.2113 0
M  V30 7663 O 700.141 -1.42576 -1.13923 0
M  V30 7664 C 700.192 -3.04182 1.95335 0
M  V30 7665 O 699.913 -2.8422 3.33393 0
M  V30 7666 C 701.414 -3.98617 1.93956 0
M  V30 7667 H 698.634 -0.520124 0.423925 0
M  V30 7668 H 701.178 -1.10174 1.72285 0
M  V30 7669 H 699.333 -3.57442 1.49378 0
M  V30 7670 H 699.747 -3.71452 3.70302 0
M  V30 7671 H 701.221 -4.92433 2.49426 0
M  V30 7672 H 701.698 -4.29473 0.919198 0
M  V30 7673 H 702.304 -3.51292 2.39738 0
M  V30 7674 N 700.619 -1.13374 -1.09472 0
M  V30 7675 C 701.529 -0.824029 -2.19652 0
M  V30 7676 C 702.545 0.19118 -1.72947 0
M  V30 7677 O 703.721 0.0223464 -2.01388 0
M  V30 7678 C 700.786 -0.294009 -3.45451 0
M  V30 7679 C 699.847 -1.3704 -4.0684 0
M  V30 7680 C 699.08 -0.86558 -5.26634 0
M  V30 7681 O 699.303 0.29702 -5.69626 0
M  V30 7682 O 698.237 -1.63968 -5.79136 0
M  V30 7683 H 702.063 -1.74454 -2.48595 0
M  V30 7684 H 699.648 -0.911155 -1.18399 0
M  V30 7685 H 701.53 -0.00381039 -4.214 0
M  V30 7686 H 700.205 0.598921 -3.18111 0
M  V30 7687 H 699.112 -1.71391 -3.3253 0
M  V30 7688 H 700.445 -2.23746 -4.38405 0
M  V30 7689 N 702.098 1.27442 -0.927168 0
M  V30 7690 C 703.328 1.9821 -0.582775 0
M  V30 7691 C 703.736 1.69361 0.843406 0
M  V30 7692 O 703.079 0.950381 1.57205 0
M  V30 7693 C 703.141 3.52048 -0.728165 0
M  V30 7694 C 702.805 4.04518 -2.12637 0
M  V30 7695 C 703.802 4.17332 -3.10048 0
M  V30 7696 C 701.487 4.38879 -2.44317 0
M  V30 7697 C 703.481 4.6378 -4.37249 0
M  V30 7698 C 701.168 4.85018 -3.71753 0
M  V30 7699 C 702.166 4.97428 -4.68033 0
M  V30 7700 O 701.854 5.42556 -5.93202 0
M  V30 7701 H 701.586 0.639314 -0.219667 0
M  V30 7702 H 704.14 1.63272 -1.24626 0
M  V30 7703 H 702.37 3.86699 -0.00758143 0
M  V30 7704 H 704.059 4.04033 -0.388906 0
M  V30 7705 H 704.825 3.91046 -2.86894 0
M  V30 7706 H 700.704 4.28462 -1.70121 0
M  V30 7707 H 704.248 4.73382 -5.12402 0
M  V30 7708 H 700.145 5.10746 -3.94726 0
M  V30 7709 H 700.913 5.60811 -5.96182 0
M  V30 7710 N 703.576 0.692616 1.41565 0
M  V30 7711 C 704.509 -0.025063 2.28186 0
M  V30 7712 C 705.487 -0.790912 1.42068 0
M  V30 7713 O 706.671 -0.782344 1.71498 0
M  V30 7714 C 703.798 -1.04285 3.22246 0
M  V30 7715 C 702.844 -0.370515 4.24888 0
M  V30 7716 S 703.677 0.884942 5.28137 0
M  V30 7717 C 704.833 -0.131324 6.25762 0
M  V30 7718 H 705.066 0.709626 2.88707 0
M  V30 7719 H 702.599 0.482783 1.46658 0
M  V30 7720 H 704.557 -1.62493 3.7697 0
M  V30 7721 H 703.218 -1.7501 2.60827 0
M  V30 7722 H 702.411 -1.13911 4.90959 0
M  V30 7723 H 702.013 0.138411 3.73744 0
M  V30 7724 H 704.305 -0.985527 6.70294 0
M  V30 7725 H 705.248 0.495384 7.06365 0
M  V30 7726 H 705.656 -0.484777 5.62415 0
M  V30 7727 N 705.054 -1.51416 0.437162 0
M  V30 7728 C 706.017 -2.26312 -0.362729 0
M  V30 7729 C 707.017 -1.29748 -0.949847 0
M  V30 7730 O 708.207 -1.53462 -0.824325 0
M  V30 7731 C 705.339 -3.05475 -1.5132 0
M  V30 7732 H 706.532 -2.98459 0.29365 0
M  V30 7733 H 704.085 -1.55137 0.190327 0
M  V30 7734 H 704.82 -2.37744 -2.20563 0
M  V30 7735 H 704.605 -3.76401 -1.09838 0
M  V30 7736 H 706.095 -3.62209 -2.07833 0
M  V30 7737 N 706.532 -0.168513 -1.56696 0
M  V30 7738 C 707.48 0.779791 -2.19139 0
M  V30 7739 C 708.474 1.23957 -1.1546 0
M  V30 7740 O 709.68 1.20555 -1.33666 0
M  V30 7741 H 706.055 0.269739 -0.701958 0
M  V30 7742 H 708.026 0.229156 -2.97519 0
M  V30 7743 C 706.775 2.00003 -2.84419 0
M  V30 7744 H 706.098 1.65527 -3.63924 0
M  V30 7745 H 707.538 2.64251 -3.31583 0
M  V30 7746 C 705.997 2.82187 -1.84044 0
M  V30 7747 O 706.527 3.79247 -1.32418 0
M  V30 7748 N 704.733 2.47145 -1.52864 0
M  V30 7749 H 704.28 1.68277 -1.9504 0
M  V30 7750 H 704.238 3.02422 -0.859569 0
M  V30 7751 N 708.01 1.57248 0.105221 0
M  V30 7752 C 709.258 1.85204 0.808951 0
M  V30 7753 C 709.579 0.75574 1.7976 0
M  V30 7754 O 708.849 -0.218984 1.94672 0
M  V30 7755 H 707.429 0.683346 0.301739 0
M  V30 7756 H 710.091 1.94695 0.0892605 0
M  V30 7757 H 709.187 2.81595 1.34575 0
M  V30 7758 N 709.488 -0.375779 1.53054 0
M  V30 7759 C 710.728 -1.12828 1.70438 0
M  V30 7760 C 711.092 -1.86854 0.441527 0
M  V30 7761 O 712.293 -2.64261 0.491908 0
M  V30 7762 C 710.564 -2.07009 2.91345 0
M  V30 7763 S 712.123 -2.89917 3.29383 0
M  V30 7764 H 708.941 -0.381736 0.599832 0
M  V30 7765 H 711.543 -0.4109 1.91133 0
M  V30 7766 H 710.247 -1.51371 3.81464 0
M  V30 7767 H 709.778 -2.83236 2.73022 0
M  V30 7768 H 711.793 -4.0924 2.80601 0
M  V30 7769 N 710.966 -1.44241 -0.634997 0
M  V30 7770 C 711.896 -1.53632 -1.7584 0
M  V30 7771 C 712.877 -0.389603 -1.65578 0
M  V30 7772 O 714.062 -0.609219 -1.84397 0
M  V30 7773 C 711.192 -1.47644 -3.14354 0
M  V30 7774 C 710.146 -2.60752 -3.394 0
M  V30 7775 C 709.472 -2.39817 -4.77904 0
M  V30 7776 C 710.772 -4.02921 -3.32343 0
M  V30 7777 H 712.466 -2.47662 -1.68238 0
M  V30 7778 H 710.012 -1.19197 -0.807969 0
M  V30 7779 H 711.965 -1.52815 -3.92716 0
M  V30 7780 H 710.689 -0.501284 -3.2273 0
M  V30 7781 H 709.348 -2.54965 -2.63417 0
M  V30 7782 H 708.996 -1.40502 -4.82978 0
M  V30 7783 H 708.696 -3.15649 -4.9562 0
M  V30 7784 H 710.22 -2.46799 -5.585 0
M  V30 7785 H 711.634 -4.10098 -4.00615 0
M  V30 7786 H 710.031 -4.78925 -3.61595 0
M  V30 7787 H 711.101 -4.26766 -2.30215 0
M  V30 7788 N 712.444 0.87505 -1.31075 0
M  V30 7789 C 713.374 1.99775 -1.20881 0
M  V30 7790 C 714.355 1.69822 -0.0971612 0
M  V30 7791 O 715.54 1.92158 -0.280895 0
M  V30 7792 C 712.67 3.35163 -0.910118 0
M  V30 7793 C 711.624 3.79406 -1.98078 0
M  V30 7794 C 710.95 5.12197 -1.53488 0
M  V30 7795 C 712.25 3.97061 -3.39323 0
M  V30 7796 H 713.944 2.08562 -2.14808 0
M  V30 7797 H 711.49 1.00207 -1.03415 0
M  V30 7798 H 713.443 4.13237 -0.825423 0
M  V30 7799 H 712.167 3.26536 0.064822 0
M  V30 7800 H 710.826 3.03568 -2.05528 0
M  V30 7801 H 710.474 5.00007 -0.547941 0
M  V30 7802 H 710.174 5.4277 -2.2511 0
M  V30 7803 H 711.698 5.92785 -1.46417 0
M  V30 7804 H 713.112 4.65545 -3.34576 0
M  V30 7805 H 711.509 4.39025 -4.09118 0
M  V30 7806 H 712.579 3.00601 -3.80483 0
M  V30 7807 N 713.922 1.13953 1.08869 0
M  V30 7808 C 714.87 0.817664 2.17754 0
M  V30 7809 C 715.864 -0.202444 1.68186 0
M  V30 7810 O 717.07 -0.0590159 1.79903 0
M  V30 7811 H 713.445 0.246671 0.710392 0
M  V30 7812 H 715.416 1.74401 2.4213 0
M  V30 7813 C 714.165 0.3063 3.46348 0
M  V30 7814 H 713.488 1.08259 3.84864 0
M  V30 7815 H 714.928 0.119584 4.23831 0
M  V30 7816 C 713.387 -0.969158 3.22659 0
M  V30 7817 O 713.917 -2.04386 3.45817 0
M  V30 7818 N 712.123 -0.902516 2.7623 0
M  V30 7819 H 711.67 -0.027801 2.57585 0
M  V30 7820 H 711.628 -1.75649 2.60758 0
M  V30 7821 N 715.4 -1.26948 0.933913 0
M  V30 7822 C 716.63 -1.97898 0.593279 0
M  V30 7823 C 717.038 -1.69806 -0.834412 0
M  V30 7824 O 716.381 -0.958704 -1.56699 0
M  V30 7825 C 716.443 -3.51657 0.746825 0
M  V30 7826 C 716.107 -4.03384 2.14779 0
M  V30 7827 C 717.104 -4.15682 3.12257 0
M  V30 7828 C 714.789 -4.37577 2.46641 0
M  V30 7829 C 716.783 -4.61455 4.39702 0
M  V30 7830 C 714.47 -4.8304 3.7432 0
M  V30 7831 C 715.468 -4.94939 4.70664 0
M  V30 7832 O 715.156 -5.39403 5.96071 0
M  V30 7833 H 714.888 -0.63814 0.223055 0
M  V30 7834 H 717.442 -1.62608 1.2549 0
M  V30 7835 H 715.672 -3.8669 0.0280889 0
M  V30 7836 H 717.361 -4.03821 0.410328 0
M  V30 7837 H 718.127 -3.89519 2.88964 0
M  V30 7838 H 714.006 -4.27554 1.72391 0
M  V30 7839 H 717.55 -4.70658 5.14905 0
M  V30 7840 H 713.447 -5.08646 3.97429 0
M  V30 7841 H 714.215 -5.57641 5.99148 0
M  V30 7842 N 716.879 -0.700114 -1.41195 0
M  V30 7843 C 717.809 -0.0521132 -2.33442 0
M  V30 7844 C 718.79 0.76228 -1.52063 0
M  V30 7845 O 719.975 0.714336 -1.80585 0
M  V30 7846 C 717.105 0.881693 -3.35922 0
M  V30 7847 C 716.059 0.174062 -4.27646 0
M  V30 7848 C 715.385 1.22254 -5.20536 0
M  V30 7849 C 716.685 -0.962396 -5.13357 0
M  V30 7850 H 718.379 -0.822574 -2.87879 0
M  V30 7851 H 715.925 -0.397011 -1.38419 0
M  V30 7852 H 717.878 1.34429 -3.99383 0
M  V30 7853 H 716.602 1.68387 -2.79845 0
M  V30 7854 H 715.261 -0.268551 -3.65615 0
M  V30 7855 H 714.909 2.01736 -4.60773 0
M  V30 7856 H 714.609 0.754038 -5.82742 0
M  V30 7857 H 716.133 1.68555 -5.86874 0
M  V30 7858 H 717.547 -0.579875 -5.7036 0
M  V30 7859 H 715.944 -1.35828 -5.84526 0
M  V30 7860 H 717.014 -1.80003 -4.50252 0
M  V30 7861 N 718.357 1.51182 -0.445186 0
M  V30 7862 C 719.773 1.59299 -0.0978954 0
M  V30 7863 C 719.973 1.4555 1.39346 0
M  V30 7864 O 719.029 1.30073 2.16419 0
M  V30 7865 C 720.342 2.94133 -0.625005 0
M  V30 7866 C 721.89 3.07463 -0.586137 0
M  V30 7867 C 722.365 4.44832 -1.09035 0
M  V30 7868 N 723.856 4.51173 -1.04867 0
M  V30 7869 C 724.591 5.55804 -1.40959 0
M  V30 7870 N 724.087 6.67816 -1.84375 0
M  V30 7871 N 725.88 5.46205 -1.32726 0
M  V30 7872 H 718.031 1.58363 -1.41544 0
M  V30 7873 H 720.294 0.746946 -0.58376 0
M  V30 7874 H 720 3.09589 -1.66876 0
M  V30 7875 H 719.874 3.77161 -0.0542262 0
M  V30 7876 H 722.261 2.9167 0.448646 0
M  V30 7877 H 722.342 2.26255 -1.19341 0
M  V30 7878 H 721.986 4.61372 -2.12364 0
M  V30 7879 H 721.916 5.24591 -0.459539 0
M  V30 7880 H 724.407 3.70783 -0.729932 0
M  V30 7881 H 724.72 7.43683 -2.10131 0
M  V30 7882 H 723.065 6.69003 -1.88308 0
M  V30 7883 H 726.256 4.57583 -0.986678 0
M  V30 7884 H 726.429 6.27634 -1.61182 0
M  V30 7885 N 719.835 0.176821 1.56605 0
M  V30 7886 C 720.745 -0.763682 2.21822 0
M  V30 7887 C 721.761 -1.24889 1.21156 0
M  V30 7888 O 722.937 -1.29987 1.53836 0
M  V30 7889 C 720.002 -1.97352 2.8505 0
M  V30 7890 C 719.063 -1.53466 4.00932 0
M  V30 7891 C 718.296 -2.68682 4.61135 0
M  V30 7892 O 718.519 -3.85694 4.20234 0
M  V30 7893 O 717.453 -2.42442 5.50913 0
M  V30 7894 H 721.279 -0.238363 3.02763 0
M  V30 7895 H 718.864 -0.0516331 1.49311 0
M  V30 7896 H 720.746 -2.68096 3.25119 0
M  V30 7897 H 719.421 -2.48779 2.07101 0
M  V30 7898 H 718.328 -0.796551 3.65521 0
M  V30 7899 H 719.661 -1.06724 4.8049 0
M  V30 7900 N 721.313 -1.57302 -0.09688 0
M  V30 7901 C 722.246 -1.97179 -1.14872 0
M  V30 7902 C 723.224 -0.844734 -1.38935 0
M  V30 7903 O 724.408 -1.10487 -1.52725 0
M  V30 7904 C 721.535 -2.28703 -2.49826 0
M  V30 7905 C 720.581 -3.51158 -2.42054 0
M  V30 7906 S 721.414 -5.0294 -1.83879 0
M  V30 7907 C 722.57 -5.37639 -3.2046 0
M  V30 7908 H 722.803 -2.86088 -0.808771 0
M  V30 7909 H 720.336 -1.51368 -0.304492 0
M  V30 7910 H 722.294 -2.47541 -3.27466 0
M  V30 7911 H 720.955 -1.40368 -2.8099 0
M  V30 7912 H 720.148 -3.70651 -3.41517 0
M  V30 7913 H 719.75 -3.31821 -1.72543 0
M  V30 7914 H 722.042 -5.34175 -4.16729 0
M  V30 7915 H 722.985 -6.38677 -3.05773 0
M  V30 7916 H 723.393 -4.651 -3.19909 0
M  V30 7917 N 722.791 0.367657 -1.53252 0
M  V30 7918 C 724.207 0.709191 -1.42978 0
M  V30 7919 C 724.407 1.93352 -0.567193 0
M  V30 7920 O 723.463 2.52453 -0.0488349 0
M  V30 7921 C 724.776 0.924338 -2.86141 0
M  V30 7922 C 726.324 1.02448 -2.95759 0
M  V30 7923 C 726.799 1.27211 -4.39979 0
M  V30 7924 N 728.29 1.33986 -4.43398 0
M  V30 7925 C 729.025 1.54852 -5.52095 0
M  V30 7926 N 728.521 1.73049 -6.7084 0
M  V30 7927 N 730.314 1.57205 -5.39669 0
M  V30 7928 H 722.465 -0.437669 -2.07842 0
M  V30 7929 H 724.728 -0.133737 -0.938519 0
M  V30 7930 H 724.434 0.0965455 -3.51567 0
M  V30 7931 H 724.308 1.83302 -3.29667 0
M  V30 7932 H 726.695 1.84282 -2.30487 0
M  V30 7933 H 726.776 0.0932301 -2.5563 0
M  V30 7934 H 726.42 0.458792 -5.05824 0
M  V30 7935 H 726.35 2.21654 -4.77679 0
M  V30 7936 H 728.841 1.21545 -3.5782 0
M  V30 7937 H 729.154 1.88538 -7.49449 0
M  V30 7938 H 727.499 1.70231 -6.7383 0
M  V30 7939 H 730.69 1.42555 -4.45865 0
M  V30 7940 H 730.863 1.73126 -6.24445 0
M  V30 7941 N 724.269 1.44576 0.627338 0
M  V30 7942 C 725.219 1.48168 1.73293 0
M  V30 7943 C 726.203 0.347045 1.57113 0
M  V30 7944 O 727.395 0.592605 1.66785 0
M  V30 7945 C 724.524 1.43236 3.11991 0
M  V30 7946 C 723.61 2.61828 3.33627 0
M  V30 7947 N 724.001 3.87053 3.25612 0
M  V30 7948 C 722.299 2.57104 3.64436 0
M  V30 7949 C 723 4.66093 3.48041 0
M  V30 7950 N 721.976 3.97228 3.71095 0
M  V30 7951 H 725.778 2.42832 1.6556 0
M  V30 7952 H 723.292 1.39592 0.829934 0
M  V30 7953 H 725.289 1.43893 3.91281 0
M  V30 7954 H 723.949 0.496133 3.20887 0
M  V30 7955 H 724.96 4.18966 3.04447 0
M  V30 7956 H 721.637 1.72295 3.8029 0
M  V30 7957 H 723.027 5.75117 3.47404 0
M  V30 7958 N 725.747 -0.868086 1.31537 0
M  V30 7959 C 727.163 -1.15414 1.10235 0
M  V30 7960 C 727.363 -2.01106 -0.125947 0
M  V30 7961 O 726.419 -2.38994 -0.814734 0
M  V30 7962 C 727.732 -1.84445 2.37488 0
M  V30 7963 C 729.28 -1.97139 2.43116 0
M  V30 7964 C 729.755 -2.69585 3.70254 0
M  V30 7965 N 731.246 -2.77119 3.71159 0
M  V30 7966 C 731.981 -3.33791 4.6623 0
M  V30 7967 N 731.477 -3.9138 5.71659 0
M  V30 7968 N 733.27 -3.31767 4.53747 0
M  V30 7969 H 725.421 -0.297109 2.10312 0
M  V30 7970 H 727.684 -0.194227 0.92789 0
M  V30 7971 H 727.39 -1.2893 3.27215 0
M  V30 7972 H 727.264 -2.84709 2.47428 0
M  V30 7973 H 729.651 -2.51818 1.53856 0
M  V30 7974 H 729.732 -0.95912 2.37138 0
M  V30 7975 H 729.376 -2.15572 4.59881 0
M  V30 7976 H 729.306 -3.71223 3.73499 0
M  V30 7977 H 731.797 -2.3625 2.94948 0
M  V30 7978 H 732.11 -4.3274 6.40278 0
M  V30 7979 H 730.455 -3.8975 5.7543 0
M  V30 7980 H 733.646 -2.86016 3.70557 0
M  V30 7981 H 733.819 -3.75636 5.28017 0
M  V30 7982 N 727.225 -1.14528 -1.08264 0
M  V30 7983 C 728.472 -0.914405 -1.80679 0
M  V30 7984 C 728.8 0.558952 -1.86295 0
M  V30 7985 O 728.055 1.43017 -1.33584 0
M  V30 7986 C 728.354 -1.46226 -3.26117 0
M  V30 7987 C 728.02 -2.95451 -3.40616 0
M  V30 7988 C 726.682 -3.36191 -3.4428 0
M  V30 7989 C 729.034 -3.91399 -3.44175 0
M  V30 7990 C 726.362 -4.71539 -3.49096 0
M  V30 7991 C 728.714 -5.26606 -3.50526 0
M  V30 7992 C 727.378 -5.66856 -3.52464 0
M  V30 7993 H 726.648 -0.334604 -0.661151 0
M  V30 7994 H 729.295 -1.4292 -1.27461 0
M  V30 7995 H 727.6 -0.868442 -3.82054 0
M  V30 7996 H 729.297 -1.25955 -3.80705 0
M  V30 7997 H 725.887 -2.62955 -3.38456 0
M  V30 7998 H 730.071 -3.61004 -3.40573 0
M  V30 7999 H 725.327 -5.02082 -3.4889 0
M  V30 8000 H 729.501 -6.00758 -3.52225 0
M  V30 8001 H 727.128 -6.71718 -3.55948 0
M  V30 8002 N 728.703 1.26451 -0.940633 0
M  V30 8003 C 729.635 2.25556 -0.407104 0
M  V30 8004 C 730.648 1.55888 0.469324 0
M  V30 8005 O 731.837 1.76292 0.279858 0
M  V30 8006 C 728.937 3.36109 0.434064 0
M  V30 8007 C 728.11 4.3532 -0.426082 0
M  V30 8008 C 727.169 5.25004 0.354563 0
M  V30 8009 O 726.195 5.68684 -0.242219 0
M  V30 8010 N 727.397 5.5652 1.65123 0
M  V30 8011 H 730.162 2.7197 -1.25907 0
M  V30 8012 H 727.723 1.40212 -0.809456 0
M  V30 8013 H 729.715 3.93059 0.963684 0
M  V30 8014 H 728.285 2.89194 1.18683 0
M  V30 8015 H 727.505 3.77449 -1.13692 0
M  V30 8016 H 728.793 4.986 -1.01366 0
M  V30 8017 H 728.191 5.22912 2.15822 0
M  V30 8018 H 726.748 6.16115 2.12711 0
M  V30 8019 N 730.181 0.707592 1.40822 0
M  V30 8020 C 731.409 0.253073 2.05346 0
M  V30 8021 C 731.824 -1.10218 1.53289 0
M  V30 8022 O 731.181 -1.69112 0.686105 0
M  V30 8023 C 731.232 0.215411 3.60858 0
M  V30 8024 O 730.953 1.51714 4.10992 0
M  V30 8025 C 732.454 -0.258636 4.42545 0
M  V30 8026 H 729.674 0.115256 0.661027 0
M  V30 8027 H 732.218 0.963555 1.80377 0
M  V30 8028 H 730.373 -0.445978 3.84824 0
M  V30 8029 H 730.787 1.41226 5.05129 0
M  V30 8030 H 732.261 -0.233849 5.51504 0
M  V30 8031 H 732.738 -1.2995 4.19535 0
M  V30 8032 H 733.344 0.372186 4.23668 0
M  V30 8033 N 731.66 -1.50943 0.453197 0
M  V30 8034 C 732.592 -2.25922 -0.38623 0
M  V30 8035 C 733.605 -1.3055 -0.972652 0
M  V30 8036 O 734.794 -1.56191 -0.864097 0
M  V30 8037 C 731.894 -3.01176 -1.5539 0
M  V30 8038 C 731.067 -4.23768 -1.0835 0
M  V30 8039 C 730.126 -4.81466 -2.12313 0
M  V30 8040 O 729.152 -5.42875 -1.71101 0
M  V30 8041 N 730.354 -4.66889 -3.44956 0
M  V30 8042 H 733.119 -2.98601 0.256468 0
M  V30 8043 H 730.68 -1.59408 0.282965 0
M  V30 8044 H 732.672 -3.36659 -2.24594 0
M  V30 8045 H 731.242 -2.31409 -2.10163 0
M  V30 8046 H 730.462 -3.93597 -0.217961 0
M  V30 8047 H 731.75 -5.03289 -0.746857 0
M  V30 8048 H 731.148 -4.18011 -3.81161 0
M  V30 8049 H 729.705 -5.06691 -4.1001 0
M  V30 8050 N 733.138 -0.185124 -1.56509 0
M  V30 8051 C 734.07 0.771401 -2.15829 0
M  V30 8052 C 735.083 1.18392 -1.11747 0
M  V30 8053 O 736.272 1.12137 -1.38879 0
M  V30 8054 C 733.372 2.05169 -2.69739 0
M  V30 8055 C 732.545 1.80056 -3.98621 0
M  V30 8056 C 731.604 2.92435 -4.37456 0
M  V30 8057 O 730.63 2.62473 -5.05071 0
M  V30 8058 N 731.832 4.20554 -4.00143 0
M  V30 8059 H 734.597 0.264184 -2.98533 0
M  V30 8060 H 732.158 -0.00281069 -1.619 0
M  V30 8061 H 734.15 2.7947 -2.92709 0
M  V30 8062 H 732.72 2.47041 -1.91545 0
M  V30 8063 H 731.94 0.895862 -3.83885 0
M  V30 8064 H 733.228 1.60662 -4.82768 0
M  V30 8065 H 732.626 4.47753 -3.45736 0
M  V30 8066 H 731.183 4.91514 -4.28085 0
M  V30 8067 N 734.616 1.57351 0.0885366 0
M  V30 8068 C 735.546 2.05561 1.10757 0
M  V30 8069 C 736.527 0.945789 1.41382 0
M  V30 8070 O 737.712 1.21747 1.51299 0
M  V30 8071 C 734.842 2.48554 2.42566 0
M  V30 8072 C 733.796 3.63259 2.26334 0
M  V30 8073 C 733.122 3.9225 3.63378 0
M  V30 8074 C 734.422 4.93913 1.69844 0
M  V30 8075 H 736.116 2.90946 0.706468 0
M  V30 8076 H 733.662 1.39968 0.338385 0
M  V30 8077 H 735.615 2.8089 3.14132 0
M  V30 8078 H 734.339 1.60176 2.84625 0
M  V30 8079 H 732.998 3.31179 1.57213 0
M  V30 8080 H 732.646 3.0103 4.02976 0
M  V30 8081 H 732.346 4.69478 3.53362 0
M  V30 8082 H 733.87 4.27067 4.36401 0
M  V30 8083 H 735.284 5.24588 2.31258 0
M  V30 8084 H 733.681 5.75349 1.70569 0
M  V30 8085 H 734.751 4.80409 0.65843 0
M  V30 8086 N 736.094 -0.359525 1.53444 0
M  V30 8087 C 737.024 -1.44662 1.8329 0
M  V30 8088 C 738.005 -1.55617 0.68683 0
M  V30 8089 O 739.19 -1.70086 0.93725 0
M  V30 8090 C 736.32 -2.81923 2.02822 0
M  V30 8091 C 735.274 -2.85787 3.18606 0
M  V30 8092 C 734.6 -4.25781 3.23442 0
M  V30 8093 C 735.9 -2.52762 4.57065 0
M  V30 8094 H 737.594 -1.19934 2.74329 0
M  V30 8095 H 735.14 -0.575517 1.31999 0
M  V30 8096 H 737.093 -3.58005 2.22285 0
M  V30 8097 H 735.817 -3.08051 1.085 0
M  V30 8098 H 734.476 -2.12157 2.98973 0
M  V30 8099 H 734.124 -4.48994 2.26745 0
M  V30 8100 H 733.824 -4.29281 4.01238 0
M  V30 8101 H 735.348 -5.03727 3.45096 0
M  V30 8102 H 736.762 -3.18557 4.76649 0
M  V30 8103 H 735.159 -2.67569 5.37147 0
M  V30 8104 H 736.229 -1.47993 4.61764 0
M  V30 8105 N 737.572 -1.44907 -0.619662 0
M  V30 8106 C 738.482 -1.55168 -1.75955 0
M  V30 8107 C 739.498 -0.43672 -1.6843 0
M  V30 8108 O 740.674 -0.695704 -1.89002 0
M  V30 8109 C 737.739 -1.50397 -3.12381 0
M  V30 8110 C 736.8 -2.72835 -3.31451 0
M  V30 8111 C 736.033 -2.68283 -4.61368 0
M  V30 8112 O 736.256 -1.74929 -5.42914 0
M  V30 8113 O 735.19 -3.59308 -4.82889 0
M  V30 8114 H 739.016 -2.51493 -1.7025 0
M  V30 8115 H 736.601 -1.27282 -0.782289 0
M  V30 8116 H 738.483 -1.50301 -3.93685 0
M  V30 8117 H 737.158 -0.572197 -3.18603 0
M  V30 8118 H 736.065 -2.78496 -2.49781 0
M  V30 8119 H 737.398 -3.65098 -3.30098 0
M  V30 8120 N 739.05 0.861098 -1.31996 0
M  V30 8121 C 739.983 1.97266 -1.14724 0
M  V30 8122 C 740.961 1.62528 -0.0483789 0
M  V30 8123 O 742.145 1.87366 -0.206478 0
M  V30 8124 C 739.272 3.30181 -0.754861 0
M  V30 8125 C 738.318 3.839 -1.85804 0
M  V30 8126 S 739.151 4.08274 -3.46515 0
M  V30 8127 C 740.307 5.44174 -3.09235 0
M  V30 8128 H 740.54 2.11614 -2.08822 0
M  V30 8129 H 738.073 1.01232 -1.16582 0
M  V30 8130 H 740.031 4.06996 -0.535232 0
M  V30 8131 H 738.692 3.13655 0.167155 0
M  V30 8132 H 737.885 4.80013 -1.53633 0
M  V30 8133 H 737.487 3.13907 -2.03318 0
M  V30 8134 H 739.779 6.26172 -2.58679 0
M  V30 8135 H 740.722 5.81301 -4.04345 0
M  V30 8136 H 741.13 5.0787 -2.46431 0
M  V30 8137 N 740.528 1.15101 1.07655 0
M  V30 8138 C 741.768 0.934462 1.81789 0
M  V30 8139 C 742.132 -0.529101 1.84566 0
M  V30 8140 O 743.333 -0.863868 2.5454 0
M  V30 8141 C 741.604 1.52817 3.23082 0
M  V30 8142 S 743.163 1.45429 4.14 0
M  V30 8143 H 739.981 0.336379 0.626395 0
M  V30 8144 H 742.583 1.46593 1.29347 0
M  V30 8145 H 741.287 2.58635 3.18647 0
M  V30 8146 H 740.818 0.995432 3.80598 0
M  V30 8147 H 742.833 0.445058 4.942 0
M  V30 8148 N 742.006 -1.2595 0.947325 0
M  V30 8149 C 742.953 -2.26159 0.460497 0
M  V30 8150 C 743.923 -1.58919 -0.483125 0
M  V30 8151 O 745.108 -1.86603 -0.397983 0
M  V30 8152 C 742.248 -3.441 -0.26247 0
M  V30 8153 C 741.361 -4.25999 0.717539 0
M  V30 8154 C 740.496 -5.31193 -0.0272486 0
M  V30 8155 C 739.535 -6.04774 0.944177 0
M  V30 8156 N 738.672 -7.01721 0.230741 0
M  V30 8157 H 743.512 -2.67173 1.31995 0
M  V30 8158 H 741.049 -1.31358 0.662088 0
M  V30 8159 H 743.007 -4.11317 -0.698137 0
M  V30 8160 H 741.637 -3.03983 -1.08602 0
M  V30 8161 H 740.689 -3.58513 1.27171 0
M  V30 8162 H 742.001 -4.76981 1.45913 0
M  V30 8163 H 741.155 -6.04451 -0.521903 0
M  V30 8164 H 739.894 -4.81066 -0.801682 0
M  V30 8165 H 738.899 -5.30338 1.4499 0
M  V30 8166 H 740.124 -6.56991 1.71872 0
M  V30 8167 H 738.07 -6.53895 -0.525088 0
M  V30 8168 H 737.987 -7.50484 0.911556 0
M  V30 8169 H 739.255 -7.79122 -0.242616 0
M  V30 8170 N 743.484 -0.715051 -1.40445 0
M  V30 8171 C 744.761 -0.181503 -1.94756 0
M  V30 8172 C 745.141 1.31268 -1.65324 0
M  V30 8173 O 744.489 2.0686 -0.970631 0
M  V30 8174 C 744.699 -0.493663 -3.45491 0
M  V30 8175 C 746.047 -0.432032 -4.22396 0
M  V30 8176 O 747.071 -0.429692 -3.53599 0
M  V30 8177 O 745.93 -0.409091 -5.44967 0
M  V30 8178 H 743.024 -0.0263989 -0.826579 0
M  V30 8179 H 745.57 -0.792546 -1.50056 0
M  V30 8180 H 744.342 -1.52713 -3.6027 0
M  V30 8181 H 743.965 0.14737 -3.97327 0
M  V30 8182 N 744.962 1.50701 -0.461195 0
M  V30 8183 C 746.208 2.02566 0.0973411 0
M  V30 8184 C 746.541 1.3432 1.40257 0
M  V30 8185 O 745.816 0.465692 1.88843 0
M  V30 8186 C 746.099 3.58919 0.291423 0
M  V30 8187 C 745.952 4.37751 -1.03413 0
M  V30 8188 C 747.271 4.27379 1.05048 0
M  V30 8189 H 744.39 0.73622 0.0339026 0
M  V30 8190 H 747.032 1.80115 -0.604855 0
M  V30 8191 H 745.182 3.78179 0.889539 0
M  V30 8192 H 746.854 4.30085 -1.66806 0
M  V30 8193 H 745.097 4.01885 -1.63313 0
M  V30 8194 H 745.768 5.45384 -0.852085 0
M  V30 8195 H 748.244 4.12534 0.543603 0
M  V30 8196 H 747.12 5.36609 1.15506 0
M  V30 8197 H 747.381 3.89868 2.0846 0
M  V30 8198 N 746.441 0.193421 1.56409 0
M  V30 8199 C 747.681 -0.447977 1.9943 0
M  V30 8200 C 748.045 -1.58915 1.07751 0
M  V30 8201 O 749.246 -2.29462 1.40002 0
M  V30 8202 C 747.517 -0.89793 3.45936 0
M  V30 8203 S 749.076 -1.5374 4.10986 0
M  V30 8204 H 745.894 -0.143316 0.696406 0
M  V30 8205 H 748.496 0.296093 1.93245 0
M  V30 8206 H 747.2 -0.0572927 4.1036 0
M  V30 8207 H 746.731 -1.67551 3.55936 0
M  V30 8208 H 748.746 -2.82612 4.07854 0
M  V30 8209 N 747.919 -1.57396 -0.0801906 0
M  V30 8210 C 748.829 -2.06451 -1.11423 0
M  V30 8211 C 749.845 -0.992352 -1.42928 0
M  V30 8212 O 751.021 -1.30651 -1.53272 0
M  V30 8213 C 748.086 -2.49164 -2.41077 0
M  V30 8214 C 747.147 -3.70641 -2.16619 0
M  V30 8215 C 746.38 -4.11307 -3.40092 0
M  V30 8216 O 746.603 -3.51922 -4.48895 0
M  V30 8217 O 745.537 -5.04157 -3.288 0
M  V30 8218 H 749.363 -2.94857 -0.727519 0
M  V30 8219 H 746.948 -1.46484 -0.293743 0
M  V30 8220 H 748.83 -2.77196 -3.17396 0
M  V30 8221 H 747.505 -1.6389 -2.79145 0
M  V30 8222 H 746.412 -3.47703 -1.38033 0
M  V30 8223 H 747.745 -4.5674 -1.83437 0
M  V30 8224 N 749.397 0.351382 -1.53633 0
M  V30 8225 C 750.36 1.41403 -1.80383 0
M  V30 8226 C 751.36 1.45963 -0.674635 0
M  V30 8227 O 752.55 1.46476 -0.942895 0
M  V30 8228 C 749.682 2.80401 -1.93876 0
M  V30 8229 H 750.875 1.18951 -2.75301 0
M  V30 8230 H 748.428 0.58533 -1.44926 0
M  V30 8231 H 749.163 3.08147 -1.01074 0
M  V30 8232 H 748.948 2.78488 -2.7602 0
M  V30 8233 H 750.438 3.57329 -2.16116 0
M  V30 8234 N 750.875 1.45233 0.611969 0
M  V30 8235 C 751.808 1.48056 1.73651 0
M  V30 8236 C 752.786 0.337373 1.59061 0
M  V30 8237 O 753.97 0.537222 1.80683 0
M  V30 8238 C 751.097 1.33144 3.11433 0
M  V30 8239 C 750.143 2.51272 3.44623 0
M  V30 8240 S 750.976 4.13754 3.39953 0
M  V30 8241 C 752.132 4.013 4.80322 0
M  V30 8242 H 752.365 2.43205 1.70993 0
M  V30 8243 H 749.898 1.32763 0.788246 0
M  V30 8244 H 751.856 1.25228 3.90932 0
M  V30 8245 H 750.517 0.394734 3.1161 0
M  V30 8246 H 749.71 2.36753 4.44932 0
M  V30 8247 H 749.312 2.56027 2.72629 0
M  V30 8248 H 751.604 3.66174 5.7002 0
M  V30 8249 H 752.547 5.01506 4.99897 0
M  V30 8250 H 752.955 3.3303 4.55797 0
M  V30 8251 N 752.353 -0.854086 1.3245 0
M  V30 8252 C 753.263 -1.99503 1.23434 0
M  V30 8253 C 754.279 -1.73371 0.147828 0
M  V30 8254 O 755.455 -1.97998 0.368609 0
M  V30 8255 C 752.52 -3.33192 0.958328 0
M  V30 8256 C 751.581 -3.72542 2.13333 0
M  V30 8257 C 750.814 -4.99852 1.8704 0
M  V30 8258 O 751.037 -5.64573 0.813239 0
M  V30 8259 O 749.971 -5.36345 2.73161 0
M  V30 8260 H 753.797 -2.10046 2.1935 0
M  V30 8261 H 751.382 -0.984823 1.12346 0
M  V30 8262 H 753.264 -4.13327 0.820918 0
M  V30 8263 H 751.939 -3.23687 0.0293299 0
M  V30 8264 H 750.846 -2.92981 2.32622 0
M  V30 8265 H 752.179 -3.86694 3.04514 0
M  V30 8266 N 753.831 -1.1567 -1.07043 0
M  V30 8267 C 755.061 -0.956083 -1.83146 0
M  V30 8268 C 755.469 0.498969 -1.82502 0
M  V30 8269 O 754.812 1.35791 -1.23719 0
M  V30 8270 C 754.874 -1.39704 -3.31245 0
M  V30 8271 C 754.538 -2.87045 -3.55604 0
M  V30 8272 C 755.535 -3.85092 -3.49285 0
M  V30 8273 C 753.22 -3.24787 -3.8317 0
M  V30 8274 C 755.214 -5.18885 -3.70185 0
M  V30 8275 C 752.901 -4.58751 -4.03721 0
M  V30 8276 C 753.899 -5.55609 -3.97224 0
M  V30 8277 O 753.587 -6.87154 -4.17223 0
M  V30 8278 H 753.319 -0.339473 -0.58458 0
M  V30 8279 H 755.873 -1.53922 -1.36005 0
M  V30 8280 H 754.103 -0.757326 -3.79212 0
M  V30 8281 H 755.792 -1.16503 -3.88821 0
M  V30 8282 H 756.558 -3.5728 -3.27988 0
M  V30 8283 H 752.437 -2.49979 -3.87339 0
M  V30 8284 H 755.981 -5.94473 -3.6503 0
M  V30 8285 H 751.878 -4.86277 -4.24505 0
M  V30 8286 H 752.646 -6.93618 -4.34553 0
M  V30 8287 N 755.309 1.25446 -0.953992 0
M  V30 8288 C 756.239 2.28264 -0.491717 0
M  V30 8289 C 757.22 1.63717 0.461617 0
M  V30 8290 O 758.405 1.90821 0.36071 0
M  V30 8291 C 755.535 3.46525 0.231915 0
M  V30 8292 C 754.489 4.23247 -0.636098 0
M  V30 8293 C 753.815 5.34254 0.218238 0
M  V30 8294 C 755.115 4.85971 -1.91389 0
M  V30 8295 H 756.809 2.67183 -1.35106 0
M  V30 8296 H 754.355 1.2844 -0.651095 0
M  V30 8297 H 756.308 4.17576 0.566439 0
M  V30 8298 H 755.032 3.06594 1.12551 0
M  V30 8299 H 753.691 3.53978 -0.953696 0
M  V30 8300 H 753.339 4.90564 1.11156 0
M  V30 8301 H 753.039 5.86501 -0.359232 0
M  V30 8302 H 754.563 6.08138 0.547743 0
M  V30 8303 H 755.977 5.49168 -1.64581 0
M  V30 8304 H 754.374 5.48391 -2.43696 0
M  V30 8305 H 755.444 4.08192 -2.61738 0
M  V30 8306 N 756.787 0.722489 1.40064 0
M  V30 8307 C 757.697 0.0755984 2.34478 0
M  V30 8308 C 758.713 -0.736046 1.57665 0
M  V30 8309 O 759.889 -0.667407 1.9002 0
M  V30 8310 C 756.954 -0.830075 3.36616 0
M  V30 8311 C 756.015 -0.00759884 4.29299 0
M  V30 8312 C 755.248 -0.870139 5.26559 0
M  V30 8313 O 755.471 -2.10921 5.2997 0
M  V30 8314 O 754.405 -0.305454 6.01124 0
M  V30 8315 H 758.231 0.854545 2.9143 0
M  V30 8316 H 755.816 0.483032 1.41376 0
M  V30 8317 H 757.698 -1.34864 3.99236 0
M  V30 8318 H 756.373 -1.58805 2.82069 0
M  V30 8319 H 755.28 0.556199 3.69942 0
M  V30 8320 H 756.613 0.712312 4.87018 0
M  V30 8321 N 758.265 -1.50454 0.469181 0
M  V30 8322 C 759.49 -2.0722 -0.0864892 0
M  V30 8323 C 759.915 -1.33098 -1.32916 0
M  V30 8324 O 759.273 -0.378084 -1.77314 0
M  V30 8325 C 759.321 -3.58845 -0.355384 0
M  V30 8326 O 758.425 -3.86583 -1.43622 0
M  V30 8327 H 757.766 -0.663889 0.0121414 0
M  V30 8328 H 760.296 -1.93674 0.659674 0
M  V30 8329 H 760.306 -4.03617 -0.596447 0
M  V30 8330 H 758.981 -4.12211 0.552698 0
M  V30 8331 H 757.558 -3.5365 -1.18262 0
M  V30 8332 N 759.743 -0.201713 -1.56304 0
M  V30 8333 C 760.69 0.716499 -2.19397 0
M  V30 8334 C 761.66 1.20494 -1.14326 0
M  V30 8335 O 762.845 1.26763 -1.42604 0
M  V30 8336 C 759.985 1.92762 -2.86246 0
M  V30 8337 C 759.098 1.47993 -4.0586 0
M  V30 8338 C 758.233 2.64706 -4.60547 0
M  V30 8339 C 757.272 2.16576 -5.72504 0
M  V30 8340 N 756.409 3.26491 -6.21569 0
M  V30 8341 H 761.249 0.171724 -2.97505 0
M  V30 8342 H 758.786 0.073016 -1.46919 0
M  V30 8343 H 760.744 2.6384 -3.23178 0
M  V30 8344 H 759.374 2.44559 -2.10691 0
M  V30 8345 H 758.426 0.66477 -3.74546 0
M  V30 8346 H 759.738 1.08686 -4.86815 0
M  V30 8347 H 758.892 3.43898 -4.99819 0
M  V30 8348 H 757.631 3.0729 -3.78713 0
M  V30 8349 H 756.636 1.3584 -5.32755 0
M  V30 8350 H 757.861 1.75015 -6.56161 0
M  V30 8351 H 755.807 3.68594 -5.42655 0
M  V30 8352 H 755.724 2.91374 -6.97594 0
M  V30 8353 H 756.992 4.05877 -6.65495 0
M  V30 8354 N 761.222 1.57436 0.0718424 0
M  V30 8355 C 762.154 2.00412 1.1121 0
M  V30 8356 C 763.167 0.910074 1.34987 0
M  V30 8357 O 764.356 1.18796 1.33228 0
M  V30 8358 C 761.456 2.32786 2.46301 0
M  V30 8359 C 760.629 3.64036 2.4248 0
M  V30 8360 C 759.688 3.8408 3.59679 0
M  V30 8361 O 758.714 4.55667 3.4111 0
M  V30 8362 N 759.916 3.2643 4.80025 0
M  V30 8363 H 762.681 2.90264 0.746118 0
M  V30 8364 H 760.242 1.59791 0.260495 0
M  V30 8365 H 762.234 2.43368 3.23348 0
M  V30 8366 H 760.804 1.48824 2.74901 0
M  V30 8367 H 760.024 3.64208 1.50818 0
M  V30 8368 H 761.312 4.50217 2.37027 0
M  V30 8369 H 760.71 2.68325 4.98014 0
M  V30 8370 H 759.267 3.42461 5.54584 0
M  V30 8371 N 762.7 -0.34323 1.53817 0
M  V30 8372 C 763.947 -1.08344 1.71079 0
M  V30 8373 C 764.275 -1.88633 0.474133 0
M  V30 8374 O 763.53 -1.87984 -0.544116 0
M  V30 8375 C 763.829 -2.05195 2.92626 0
M  V30 8376 C 763.495 -1.41215 4.28216 0
M  V30 8377 C 762.157 -1.23495 4.65083 0
M  V30 8378 C 764.509 -0.951273 5.12445 0
M  V30 8379 C 761.837 -0.583065 5.83796 0
M  V30 8380 C 764.189 -0.313292 6.31824 0
M  V30 8381 C 762.853 -0.123779 6.67385 0
M  V30 8382 H 762.123 -0.396458 0.626021 0
M  V30 8383 H 764.77 -0.362689 1.88034 0
M  V30 8384 H 763.075 -2.83653 2.70275 0
M  V30 8385 H 764.772 -2.62462 3.03175 0
M  V30 8386 H 761.362 -1.56005 3.992 0
M  V30 8387 H 765.546 -1.07602 4.84495 0
M  V30 8388 H 760.802 -0.424854 6.09922 0
M  V30 8389 H 764.976 0.0519179 6.96381 0
M  V30 8390 H 762.603 0.383398 7.59233 0
M  V30 8391 N 764.178 -1.45556 -0.604258 0
M  V30 8392 C 765.108 -1.57327 -1.72541 0
M  V30 8393 C 766.089 -0.424637 -1.64714 0
M  V30 8394 O 767.274 -0.648196 -1.83063 0
M  V30 8395 C 764.404 -1.54279 -3.11152 0
M  V30 8396 C 763.358 -2.67893 -3.33792 0
M  V30 8397 C 762.684 -2.499 -4.72709 0
M  V30 8398 C 763.984 -4.0988 -3.23722 0
M  V30 8399 H 765.678 -2.51175 -1.62947 0
M  V30 8400 H 763.224 -1.20884 -0.782504 0
M  V30 8401 H 765.177 -1.6111 -3.89386 0
M  V30 8402 H 763.901 -0.569627 -3.21594 0
M  V30 8403 H 762.56 -2.60495 -2.57949 0
M  V30 8404 H 762.208 -1.50715 -4.79889 0
M  V30 8405 H 761.908 -3.26091 -4.88813 0
M  V30 8406 H 763.432 -2.5859 -5.5314 0
M  V30 8407 H 764.846 -4.18503 -3.91826 0
M  V30 8408 H 763.243 -4.86487 -3.51355 0
M  V30 8409 H 764.313 -4.31553 -2.21111 0
M  V30 8410 N 765.656 0.84705 -1.32902 0
M  V30 8411 C 766.606 1.94451 -1.19049 0
M  V30 8412 C 767.59 1.60617 -0.095461 0
M  V30 8413 O 768.782 1.74033 -0.322739 0
M  V30 8414 C 765.911 3.30645 -0.923509 0
M  V30 8415 C 764.997 3.70675 -2.0606 0
M  V30 8416 N 765.388 3.82468 -3.30986 0
M  V30 8417 C 763.686 4.00357 -1.96547 0
M  V30 8418 C 764.387 4.17056 -4.05511 0
M  V30 8419 N 763.363 4.28985 -3.33876 0
M  V30 8420 H 767.165 2.01713 -2.1375 0
M  V30 8421 H 764.679 1.03928 -1.24791 0
M  V30 8422 H 766.676 4.0905 -0.805212 0
M  V30 8423 H 765.336 3.24697 0.0150523 0
M  V30 8424 H 766.347 3.66589 -3.65832 0
M  V30 8425 H 763.024 4.02666 -1.10299 0
M  V30 8426 H 764.414 4.33585 -5.13277 0
M  V30 8427 N 767.134 1.16236 1.06428 0
M  V30 8428 C 768.55 0.906983 1.31324 0
M  V30 8429 C 768.75 -0.440872 1.96618 0
M  V30 8430 O 767.806 -1.1807 2.23194 0
M  V30 8431 C 769.119 2.05501 2.19522 0
M  V30 8432 C 770.667 2.09061 2.32943 0
M  V30 8433 C 771.142 3.23214 3.24495 0
M  V30 8434 N 772.633 3.22922 3.32078 0
M  V30 8435 C 773.368 4.07889 4.03006 0
M  V30 8436 N 772.864 5.02941 4.76469 0
M  V30 8437 N 774.657 3.95881 3.99043 0
M  V30 8438 H 766.808 2.03015 0.624388 0
M  V30 8439 H 769.071 0.88576 0.337835 0
M  V30 8440 H 768.777 3.02847 1.78819 0
M  V30 8441 H 768.651 1.99538 3.201 0
M  V30 8442 H 771.038 1.12308 2.72893 0
M  V30 8443 H 771.119 2.19089 1.32037 0
M  V30 8444 H 770.763 4.20225 2.85261 0
M  V30 8445 H 770.693 3.10423 4.25377 0
M  V30 8446 H 773.184 2.54093 2.79724 0
M  V30 8447 H 773.497 5.64196 5.28112 0
M  V30 8448 H 771.842 5.06922 4.75453 0
M  V30 8449 H 775.033 3.20927 3.40769 0
M  V30 8450 H 775.206 4.62321 4.54052 0
M  V30 8451 N 768.612 -1.24939 0.960631 0
M  V30 8452 C 769.889 -1.88118 0.535807 0
M  V30 8453 C 770.269 -1.86605 -0.987009 0
M  V30 8454 O 769.617 -1.33375 -1.85536 0
M  V30 8455 C 769.827 -3.30565 1.11927 0
M  V30 8456 C 771.175 -4.07296 1.19981 0
M  V30 8457 O 772.199 -3.39709 1.07126 0
M  V30 8458 O 771.058 -5.28206 1.40218 0
M  V30 8459 H 768.152 -0.807698 0.177631 0
M  V30 8460 H 770.698 -1.32964 1.05445 0
M  V30 8461 H 769.47 -3.26128 2.16231 0
M  V30 8462 H 769.093 -3.93284 0.584245 0
M  V30 8463 N 770.09 -0.729906 -1.39679 0
M  V30 8464 C 771.02 -0.101618 -2.33279 0
M  V30 8465 C 772.001 0.729854 -1.53646 0
M  V30 8466 O 773.186 0.67587 -1.82059 0
M  V30 8467 C 770.316 0.81024 -3.37716 0
M  V30 8468 C 769.27 0.0833126 -4.27919 0
M  V30 8469 C 768.596 1.11185 -5.23012 0
M  V30 8470 C 769.896 -1.07107 -5.112 0
M  V30 8471 H 771.59 -0.883452 -2.86069 0
M  V30 8472 H 769.136 -0.426283 -1.37546 0
M  V30 8473 H 771.089 1.25927 -4.02145 0
M  V30 8474 H 769.813 1.62413 -2.83354 0
M  V30 8475 H 768.472 -0.346043 -3.64963 0
M  V30 8476 H 768.12 1.91917 -4.64948 0
M  V30 8477 H 767.82 0.63026 -5.8421 0
M  V30 8478 H 769.344 1.56068 -5.90318 0
M  V30 8479 H 770.758 -0.700726 -5.69002 0
M  V30 8480 H 769.155 -1.48196 -5.81514 0
M  V30 8481 H 770.225 -1.89513 -4.46332 0
M  V30 8482 N 771.568 1.50203 -0.477153 0
M  V30 8483 C 772.531 2.27194 0.302599 0
M  V30 8484 C 773.531 1.32221 0.915112 0
M  V30 8485 O 774.721 1.55593 0.783348 0
M  V30 8486 C 771.853 3.0938 1.43167 0
M  V30 8487 H 773.046 2.97575 -0.372678 0
M  V30 8488 H 770.599 1.54578 -0.231392 0
M  V30 8489 H 771.334 2.43509 2.14182 0
M  V30 8490 H 771.119 3.79181 0.998197 0
M  V30 8491 H 772.609 3.67592 1.98157 0
M  V30 8492 N 773.046 0.209999 1.56195 0
M  V30 8493 C 774.009 -0.691232 2.18528 0
M  V30 8494 C 775.009 -1.13013 1.14388 0
M  V30 8495 O 776.199 -1.04081 1.39688 0
M  V30 8496 C 773.331 -1.94551 2.79934 0
M  V30 8497 H 774.524 -0.147953 2.99535 0
M  V30 8498 H 772.077 -0.0396243 1.5625 0
M  V30 8499 H 772.812 -2.53094 2.02766 0
M  V30 8500 H 772.597 -1.63938 3.56184 0
M  V30 8501 H 774.087 -2.58785 3.2775 0
M  V30 8502 N 774.524 -1.57472 -0.0634922 0
M  V30 8503 C 775.94 -1.54016 -0.418466 0
M  V30 8504 C 776.14 -0.931376 -1.78683 0
M  V30 8505 O 775.196 -0.537465 -2.46714 0
M  V30 8506 C 776.509 -2.98634 -0.351906 0
M  V30 8507 C 778.057 -3.10012 -0.431494 0
M  V30 8508 C 778.532 -4.56296 -0.394754 0
M  V30 8509 N 780.023 -4.60964 -0.454583 0
M  V30 8510 C 780.758 -5.71643 -0.448501 0
M  V30 8511 N 780.254 -6.91663 -0.396742 0
M  V30 8512 N 782.047 -5.5991 -0.495677 0
M  V30 8513 H 774.198 -1.95409 0.832408 0
M  V30 8514 H 776.461 -0.894769 0.313197 0
M  V30 8515 H 776.167 -3.46766 0.587048 0
M  V30 8516 H 776.041 -3.58955 -1.15893 0
M  V30 8517 H 778.428 -2.61848 -1.36087 0
M  V30 8518 H 778.509 -2.52585 0.404258 0
M  V30 8519 H 778.153 -5.05119 0.530811 0
M  V30 8520 H 778.083 -5.11594 -1.24815 0
M  V30 8521 H 780.574 -3.74598 -0.498496 0
M  V30 8522 H 780.887 -7.71783 -0.396256 0
M  V30 8523 H 779.232 -6.9405 -0.363304 0
M  V30 8524 H 782.423 -4.65046 -0.533864 0
M  V30 8525 H 782.596 -6.46164 -0.487469 0
M  V30 8526 N 776.003 0.335068 -1.53997 0
M  V30 8527 C 776.951 1.43206 -1.83289 0
M  V30 8528 C 777.945 1.54081 -0.703953 0
M  V30 8529 O 779.151 1.56603 -0.887432 0
M  V30 8530 H 775.526 0.477655 -0.580818 0
M  V30 8531 H 777.497 1.15719 -2.75049 0
M  V30 8532 C 776.246 2.79602 -2.06683 0
M  V30 8533 H 775.569 2.72004 -2.93008 0
M  V30 8534 H 777.009 3.55459 -2.31139 0
M  V30 8535 C 775.468 3.25873 -0.854883 0
M  V30 8536 O 775.998 4.01657 -0.0584648 0
M  V30 8537 N 774.204 2.82777 -0.669729 0
M  V30 8538 H 773.751 2.21269 -1.31901 0
M  V30 8539 H 773.709 3.1409 0.13969 0
M  V30 8540 N 777.481 1.45874 0.596531 0
M  V30 8541 C 778.721 1.52015 1.36641 0
M  V30 8542 C 779.085 0.16226 1.91313 0
M  V30 8543 O 780.286 0.0983889 2.6862 0
M  V30 8544 C 778.557 2.57776 2.4756 0
M  V30 8545 S 780.116 2.83223 3.35157 0
M  V30 8546 H 776.934 0.537251 0.465706 0
M  V30 8547 H 779.536 1.83024 0.687205 0
M  V30 8548 H 778.24 3.55091 2.05764 0
M  V30 8549 H 777.771 2.28455 3.20269 0
M  V30 8550 H 779.786 2.17442 4.4602 0
M  V30 8551 N 778.959 -0.83999 1.33349 0
M  V30 8552 C 779.889 -1.965 1.26135 0
M  V30 8553 C 780.87 -1.69505 0.142152 0
M  V30 8554 O 782.055 -1.91346 0.331743 0
M  V30 8555 C 779.185 -3.32632 0.99866 0
M  V30 8556 C 778.139 -3.74021 2.08068 0
M  V30 8557 C 777.465 -5.07947 1.67014 0
M  V30 8558 C 778.765 -3.87925 3.49731 0
M  V30 8559 H 780.459 -2.02793 2.20262 0
M  V30 8560 H 778.005 -0.974297 1.06035 0
M  V30 8561 H 779.958 -4.10903 0.934696 0
M  V30 8562 H 778.682 -3.26593 0.0217759 0
M  V30 8563 H 777.341 -2.98012 2.13505 0
M  V30 8564 H 776.989 -4.98378 0.680316 0
M  V30 8565 H 776.689 -5.36611 2.39422 0
M  V30 8566 H 778.213 -5.88695 1.62082 0
M  V30 8567 H 779.627 -4.5651 3.46802 0
M  V30 8568 H 778.024 -4.28023 4.20614 0
M  V30 8569 H 779.094 -2.90407 3.88319 0
M  V30 8570 N 780.437 -1.16799 -1.0581 0
M  V30 8571 C 781.683 -0.953935 -1.78963 0
M  V30 8572 C 782.016 0.516638 -1.87202 0
M  V30 8573 O 781.291 1.38338 -1.36721 0
M  V30 8574 C 781.574 -1.58808 -3.23191 0
M  V30 8575 C 781.427 -3.13032 -3.23003 0
M  V30 8576 C 782.746 -1.2868 -4.20867 0
M  V30 8577 H 779.865 -0.347972 -0.64968 0
M  V30 8578 H 782.507 -1.44204 -1.23715 0
M  V30 8579 H 780.657 -1.17303 -3.70368 0
M  V30 8580 H 782.329 -3.63553 -2.83949 0
M  V30 8581 H 780.572 -3.46108 -2.61518 0
M  V30 8582 H 781.243 -3.52527 -4.24769 0
M  V30 8583 H 783.719 -1.6461 -3.82155 0
M  V30 8584 H 782.595 -1.75645 -5.20038 0
M  V30 8585 H 782.856 -0.206491 -4.41618 0
M  V30 8586 N 781.915 1.24427 -0.967243 0
M  V30 8587 C 782.863 2.27403 -0.488927 0
M  V30 8588 C 783.857 1.63388 0.447302 0
M  V30 8589 O 785.063 1.77085 0.322643 0
M  V30 8590 H 781.438 0.738921 -0.139643 0
M  V30 8591 H 783.409 2.65122 -1.36942 0
M  V30 8592 C 782.158 3.4709 0.205787 0
M  V30 8593 H 781.481 3.96591 -0.50551 0
M  V30 8594 H 782.921 4.2099 0.504296 0
M  V30 8595 C 781.38 3.04923 1.43261 0
M  V30 8596 O 781.91 3.12043 2.52967 0
M  V30 8597 N 780.116 2.59976 1.29849 0
M  V30 8598 H 779.663 2.54382 0.405876 0
M  V30 8599 H 779.621 2.32128 2.12047 0
M  V30 8600 N 783.393 0.737304 1.3929 0
M  V30 8601 C 784.67 0.212464 1.94443 0
M  V30 8602 C 785.05 -1.28621 1.67391 0
M  V30 8603 O 784.398 -2.0529 1.00342 0
M  V30 8604 C 784.608 0.548565 3.44662 0
M  V30 8605 C 785.956 0.499177 4.21656 0
M  V30 8606 O 786.98 0.485892 3.5287 0
M  V30 8607 O 785.839 0.495739 5.44247 0
M  V30 8608 H 782.933 0.0395457 0.826054 0
M  V30 8609 H 785.479 0.816319 1.48776 0
M  V30 8610 H 784.251 1.58426 3.57795 0
M  V30 8611 H 783.874 -0.0841399 3.97511 0
M  V30 8612 N 784.871 -1.49948 0.485112 0
M  V30 8613 C 785.803 -2.26691 -0.338222 0
M  V30 8614 C 786.816 -1.32584 -0.944742 0
M  V30 8615 O 788.005 -1.57989 -0.830772 0
M  V30 8616 C 785.105 -3.04405 -1.48966 0
M  V30 8617 C 784.278 -4.25971 -0.993371 0
M  V30 8618 C 783.337 -4.85861 -2.02052 0
M  V30 8619 O 782.363 -5.46382 -1.59547 0
M  V30 8620 N 783.565 -4.74101 -3.34975 0
M  V30 8621 H 786.33 -2.97989 0.319748 0
M  V30 8622 H 783.891 -1.58772 0.316714 0
M  V30 8623 H 785.883 -3.41348 -2.17403 0
M  V30 8624 H 784.453 -2.35815 -2.05207 0
M  V30 8625 H 783.673 -3.93971 -0.134424 0
M  V30 8626 H 784.961 -5.0476 -0.639934 0
M  V30 8627 H 784.359 -4.26002 -3.72208 0
M  V30 8628 H 782.916 -5.15274 -3.9917 0
M  V30 8629 N 786.349 -0.21828 -1.56081 0
M  V30 8630 C 787.597 0.413488 -1.97825 0
M  V30 8631 C 787.918 1.60527 -1.10707 0
M  V30 8632 O 787.188 1.9504 -0.183378 0
M  V30 8633 H 785.768 0.155757 -0.730581 0
M  V30 8634 H 788.43 -0.310413 -1.92412 0
M  V30 8635 H 787.526 0.742024 -3.03151 0
M  V30 8636 N 787.827 1.57504 0.0551401 0
M  V30 8637 C 789.073 1.88334 0.752216 0
M  V30 8638 C 789.406 0.812742 1.76375 0
M  V30 8639 O 788.681 -0.175198 1.93709 0
M  V30 8640 C 788.964 3.29824 1.44528 0
M  V30 8641 C 788.817 4.47553 0.449026 0
M  V30 8642 C 790.136 3.69808 2.38601 0
M  V30 8643 H 787.255 0.684973 0.271995 0
M  V30 8644 H 789.897 1.89994 0.0151895 0
M  V30 8645 H 788.047 3.28539 2.07351 0
M  V30 8646 H 789.719 4.60967 -0.175277 0
M  V30 8647 H 787.962 4.33168 -0.234162 0
M  V30 8648 H 788.633 5.43376 0.971917 0
M  V30 8649 H 791.109 3.72293 1.85842 0
M  V30 8650 H 789.985 4.69665 2.84088 0
M  V30 8651 H 790.246 3.00641 3.24141 0
M  V30 8652 N 789.305 -0.326896 1.54172 0
M  V30 8653 C 790.551 -1.06681 1.72473 0
M  V30 8654 C 790.884 -1.87779 0.49523 0
M  V30 8655 O 790.159 -1.87754 -0.507803 0
M  V30 8656 C 790.442 -1.99429 2.99834 0
M  V30 8657 C 790.295 -1.21682 4.33028 0
M  V30 8658 C 791.614 -2.99002 3.22933 0
M  V30 8659 H 788.733 -0.386438 0.627563 0
M  V30 8660 H 791.375 -0.343779 1.86864 0
M  V30 8661 H 789.525 -2.61081 2.87696 0
M  V30 8662 H 791.197 -0.625153 4.57044 0
M  V30 8663 H 789.44 -0.519045 4.30684 0
M  V30 8664 H 790.111 -1.89766 5.18356 0
M  V30 8665 H 792.587 -2.4747 3.34511 0
M  V30 8666 H 791.463 -3.61085 4.13412 0
M  V30 8667 H 791.724 -3.71281 2.40006 0
M  V30 8668 N 790.784 -1.46188 -0.588786 0
M  V30 8669 C 791.731 -1.56292 -1.69828 0
M  V30 8670 C 792.701 -0.407581 -1.61022 0
M  V30 8671 O 793.886 -0.623532 -1.80324 0
M  V30 8672 C 791.026 -1.55341 -3.08161 0
M  V30 8673 C 790.139 -2.81564 -3.27636 0
M  V30 8674 C 789.274 -2.72158 -4.56183 0
M  V30 8675 C 788.313 -3.93348 -4.68981 0
M  V30 8676 N 787.45 -3.82365 -5.88848 0
M  V30 8677 H 792.29 -2.51066 -1.6053 0
M  V30 8678 H 789.827 -1.24562 -0.782474 0
M  V30 8679 H 791.785 -1.52776 -3.88221 0
M  V30 8680 H 790.415 -0.641034 -3.16371 0
M  V30 8681 H 789.467 -2.94136 -2.41223 0
M  V30 8682 H 790.779 -3.714 -3.32962 0
M  V30 8683 H 789.933 -2.67665 -5.44464 0
M  V30 8684 H 788.672 -1.79953 -4.53286 0
M  V30 8685 H 787.677 -3.98181 -3.7912 0
M  V30 8686 H 788.902 -4.86643 -4.73662 0
M  V30 8687 H 786.848 -2.92942 -5.86959 0
M  V30 8688 H 786.765 -4.65851 -5.95415 0
M  V30 8689 H 788.033 -3.81836 -6.79575 0
M  V30 8690 N 792.262 0.832906 -1.33792 0
M  V30 8691 C 793.508 1.59089 -1.25772 0
M  V30 8692 C 793.841 1.93414 0.174601 0
M  V30 8693 O 793.116 1.59195 1.11746 0
M  V30 8694 C 793.399 2.89699 -2.13885 0
M  V30 8695 C 793.252 2.62017 -3.65605 0
M  V30 8696 C 794.571 3.91182 -2.01654 0
M  V30 8697 H 791.69 0.577232 -0.458227 0
M  V30 8698 H 794.332 0.960227 -1.6395 0
M  V30 8699 H 792.482 3.4352 -1.81456 0
M  V30 8700 H 794.154 2.14582 -4.08353 0
M  V30 8701 H 792.397 1.95621 -3.87189 0
M  V30 8702 H 793.068 3.55112 -4.2261 0
M  V30 8703 H 795.544 3.46684 -2.30107 0
M  V30 8704 H 794.42 4.80391 -2.65548 0
M  V30 8705 H 794.681 4.30861 -0.990536 0
M  V30 8706 N 793.74 1.17359 1.05189 0
M  V30 8707 C 794.965 0.98709 1.82404 0
M  V30 8708 C 795.39 -0.459848 1.82392 0
M  V30 8709 O 794.748 -1.32924 1.23292 0
M  V30 8710 C 794.796 1.53276 3.26403 0
M  V30 8711 O 793.9 0.746541 4.05587 0
M  V30 8712 H 793.241 0.35047 0.563974 0
M  V30 8713 H 795.771 1.55856 1.32552 0
M  V30 8714 H 795.781 1.55504 3.77203 0
M  V30 8715 H 794.456 2.58603 3.25726 0
M  V30 8716 H 793.033 0.795671 3.64312 0
M  V30 8717 N 795.218 -1.23913 0.973828 0
M  V30 8718 C 796.495 -1.87539 0.555729 0
M  V30 8719 C 796.875 -1.87641 -0.967162 0
M  V30 8720 O 796.223 -1.35335 -1.84111 0
M  V30 8721 C 796.433 -3.29359 1.15427 0
M  V30 8722 C 797.781 -4.06 1.24294 0
M  V30 8723 O 798.805 -3.38554 1.10723 0
M  V30 8724 O 797.664 -5.26689 1.45813 0
M  V30 8725 H 794.758 -0.805769 0.186188 0
M  V30 8726 H 797.304 -1.31838 1.06849 0
M  V30 8727 H 796.076 -3.23817 2.19678 0
M  V30 8728 H 795.699 -3.92642 0.625925 0
M  V30 8729 N 796.696 -0.74468 -1.38897 0
M  V30 8730 C 797.943 -0.296884 -2.00312 0
M  V30 8731 C 798.271 1.11878 -1.59102 0
M  V30 8732 O 797.526 1.7789 -0.815702 0
M  V30 8733 C 797.825 -0.357302 -3.55609 0
M  V30 8734 C 797.491 -1.72736 -4.16501 0
M  V30 8735 C 796.153 -2.10232 -4.32846 0
M  V30 8736 C 798.505 -2.62647 -4.50184 0
M  V30 8737 C 795.833 -3.3713 -4.80167 0
M  V30 8738 C 798.185 -3.88926 -4.98918 0
M  V30 8739 C 796.849 -4.26503 -5.1347 0
M  V30 8740 H 796.119 -0.108638 -0.732993 0
M  V30 8741 H 798.766 -0.953419 -1.66079 0
M  V30 8742 H 797.071 0.382805 -3.89925 0
M  V30 8743 H 798.768 0.0074596 -4.00999 0
M  V30 8744 H 795.358 -1.42585 -4.04187 0
M  V30 8745 H 799.542 -2.34945 -4.37166 0
M  V30 8746 H 794.798 -3.66174 -4.89619 0
M  V30 8747 H 798.972 -4.58745 -5.23952 0
M  V30 8748 H 796.599 -5.24896 -5.49898 0
M  V30 8749 N 798.174 1.49689 -0.493057 0
M  V30 8750 C 799.422 2.02027 0.0541642 0
M  V30 8751 C 799.743 1.37554 1.38217 0
M  V30 8752 O 799.013 0.528174 1.88646 0
M  V30 8753 H 797.593 0.746646 0.0230069 0
M  V30 8754 H 800.255 1.83795 -0.648489 0
M  V30 8755 H 799.351 3.11523 0.189652 0
M  V30 8756 N 799.652 0.226554 1.55963 0
M  V30 8757 C 800.582 -0.676079 2.23498 0
M  V30 8758 C 801.563 -1.19718 1.20837 0
M  V30 8759 O 802.748 -1.24027 1.49436 0
M  V30 8760 C 799.878 -1.88217 2.91876 0
M  V30 8761 C 798.832 -1.4947 4.01052 0
M  V30 8762 C 798.158 -2.77997 4.56751 0
M  V30 8763 C 799.458 -0.680951 5.17842 0
M  V30 8764 H 801.152 -0.112989 2.99187 0
M  V30 8765 H 798.698 -0.0529046 1.43903 0
M  V30 8766 H 800.651 -2.51911 3.37815 0
M  V30 8767 H 799.375 -2.47031 2.13643 0
M  V30 8768 H 798.034 -0.881199 3.55852 0
M  V30 8769 H 797.682 -3.34966 3.75243 0
M  V30 8770 H 797.382 -2.52803 5.30438 0
M  V30 8771 H 798.906 -3.42625 5.05411 0
M  V30 8772 H 800.32 -1.22171 5.60131 0
M  V30 8773 H 798.717 -0.525898 5.97791 0
M  V30 8774 H 799.787 0.311346 4.83899 0
M  V30 8775 N 801.13 -1.57531 -0.0467866 0
M  V30 8776 C 802.355 -1.93087 -0.757123 0
M  V30 8777 C 802.78 -0.825116 -1.69037 0
M  V30 8778 O 802.138 0.220449 -1.79955 0
M  V30 8779 C 802.186 -3.27669 -1.5055 0
M  V30 8780 O 801.29 -3.18667 -2.61773 0
M  V30 8781 H 800.631 -0.631597 -0.204892 0
M  V30 8782 H 803.161 -2.04599 -0.00755232 0
M  V30 8783 H 803.171 -3.6214 -1.87932 0
M  V30 8784 H 801.846 -4.07717 -0.820931 0
M  V30 8785 H 800.423 -2.95798 -2.27064 0
M  V30 8786 N 802.608 0.318715 -1.54344 0
M  V30 8787 C 804.024 0.663345 -1.45162 0
M  V30 8788 C 804.224 1.9145 -0.62842 0
M  V30 8789 O 803.28 2.5217 -0.129126 0
M  V30 8790 C 804.593 0.832836 -2.88937 0
M  V30 8791 C 806.141 0.929866 -2.98869 0
M  V30 8792 C 806.616 1.13149 -4.43803 0
M  V30 8793 N 808.107 1.19811 -4.47437 0
M  V30 8794 C 808.842 1.37209 -5.56742 0
M  V30 8795 N 808.338 1.51619 -6.76006 0
M  V30 8796 N 810.131 1.39956 -5.44398 0
M  V30 8797 H 802.282 -0.50357 -2.06344 0
M  V30 8798 H 804.545 -0.163528 -0.933789 0
M  V30 8799 H 804.251 -0.0153519 -3.51697 0
M  V30 8800 H 804.125 1.72721 -3.35332 0
M  V30 8801 H 806.512 1.76855 -2.36233 0
M  V30 8802 H 806.593 0.0118561 -2.55797 0
M  V30 8803 H 806.237 0.297636 -5.07027 0
M  V30 8804 H 806.167 2.06345 -4.84489 0
M  V30 8805 H 808.658 1.101 -3.61506 0
M  V30 8806 H 808.971 1.64599 -7.55067 0
M  V30 8807 H 807.316 1.48708 -6.78904 0
M  V30 8808 H 810.507 1.28298 -4.50175 0
M  V30 8809 H 810.68 1.53172 -6.29637 0
M  V30 8810 N 804.086 1.46499 0.581025 0
M  V30 8811 C 805.316 1.55244 1.36319 0
M  V30 8812 C 805.724 0.193059 1.88212 0
M  V30 8813 O 805.067 -0.820109 1.64377 0
M  V30 8814 C 805.129 2.498 2.58535 0
M  V30 8815 C 804.793 3.96007 2.28096 0
M  V30 8816 C 805.79 4.85171 1.8683 0
M  V30 8817 C 803.475 4.41152 2.40189 0
M  V30 8818 C 805.469 6.17493 1.58053 0
M  V30 8819 C 803.156 5.73508 2.11024 0
M  V30 8820 C 804.154 6.615 1.70021 0
M  V30 8821 O 803.842 7.914 1.41215 0
M  V30 8822 H 803.574 0.527513 0.422736 0
M  V30 8823 H 806.128 1.92623 0.713139 0
M  V30 8824 H 804.358 2.07443 3.2635 0
M  V30 8825 H 806.047 2.48934 3.20604 0
M  V30 8826 H 806.813 4.51548 1.77001 0
M  V30 8827 H 802.692 3.72886 2.71066 0
M  V30 8828 H 806.236 6.86131 1.25974 0
M  V30 8829 H 802.133 6.06679 2.20478 0
M  V30 8830 H 802.901 8.03681 1.55046 0
M  V30 8831 N 805.565 -0.825799 1.34232 0
M  V30 8832 C 806.811 -1.58419 1.26614 0
M  V30 8833 C 807.144 -1.93503 -0.164341 0
M  V30 8834 O 806.419 -1.59785 -1.109 0
M  V30 8835 C 806.702 -2.8856 2.15418 0
M  V30 8836 C 806.555 -2.60075 3.66989 0
M  V30 8837 C 807.874 -3.90107 2.03726 0
M  V30 8838 H 804.993 -0.574794 0.461282 0
M  V30 8839 H 807.635 -0.951519 1.64457 0
M  V30 8840 H 805.785 -3.42553 1.83275 0
M  V30 8841 H 807.457 -2.12414 4.09485 0
M  V30 8842 H 805.7 -1.93565 3.88221 0
M  V30 8843 H 806.371 -3.52866 4.24488 0
M  V30 8844 H 808.847 -3.45459 2.31942 0
M  V30 8845 H 807.723 -4.78976 2.68092 0
M  V30 8846 H 807.984 -4.30329 1.01337 0
M  V30 8847 N 807.043 -1.17915 -1.04565 0
M  V30 8848 C 807.973 -0.925033 -2.14395 0
M  V30 8849 C 808.954 0.135375 -1.6956 0
M  V30 8850 O 810.139 -0.0161774 -1.94193 0
M  V30 8851 C 807.269 -0.444469 -3.44444 0
M  V30 8852 C 806.223 -1.44478 -4.02877 0
M  V30 8853 C 805.549 -0.821933 -5.28345 0
M  V30 8854 C 806.849 -2.81995 -4.39632 0
M  V30 8855 H 808.543 -1.84354 -2.35911 0
M  V30 8856 H 806.089 -0.887806 -1.13375 0
M  V30 8857 H 808.042 -0.254078 -4.20633 0
M  V30 8858 H 806.766 0.509592 -3.226 0
M  V30 8859 H 805.425 -1.62203 -3.28764 0
M  V30 8860 H 805.073 0.139161 -5.02807 0
M  V30 8861 H 804.773 -1.48976 -5.68401 0
M  V30 8862 H 806.297 -0.641959 -6.07216 0
M  V30 8863 H 807.711 -2.67952 -5.06828 0
M  V30 8864 H 806.108 -3.45414 -4.90723 0
M  V30 8865 H 807.178 -3.35927 -3.49687 0
M  V30 8866 N 808.521 1.23394 -0.980386 0
M  V30 8867 C 809.798 1.87242 -0.565667 0
M  V30 8868 C 810.178 1.88151 0.957197 0
M  V30 8869 O 809.526 1.36309 1.8339 0
M  V30 8870 C 809.736 3.28743 -1.17172 0
M  V30 8871 C 811.084 4.05335 -1.26446 0
M  V30 8872 O 812.108 3.37962 -1.12517 0
M  V30 8873 O 810.967 5.25908 -1.48604 0
M  V30 8874 H 808.061 0.80477 -0.190459 0
M  V30 8875 H 810.607 1.3127 -1.07547 0
M  V30 8876 H 809.379 3.22647 -2.21392 0
M  V30 8877 H 809.002 3.92305 -0.646739 0
M  V30 8878 N 809.999 0.752036 1.385 0
M  V30 8879 C 811.276 0.233075 1.94206 0
M  V30 8880 C 811.656 -1.26838 1.68746 0
M  V30 8881 O 811.004 -2.04214 1.02513 0
M  V30 8882 C 811.214 0.58509 3.44061 0
M  V30 8883 C 812.562 0.543871 4.21102 0
M  V30 8884 O 813.586 0.523291 3.52335 0
M  V30 8885 O 812.445 0.553436 5.4369 0
M  V30 8886 H 809.539 0.0483049 0.825588 0
M  V30 8887 H 812.085 0.832053 1.47902 0
M  V30 8888 H 810.857 1.62212 3.56094 0
M  V30 8889 H 810.48 -0.0419738 3.97578 0
M  V30 8890 N 811.477 -1.49425 0.500989 0
M  V30 8891 C 812.387 -2.32899 -0.282011 0
M  V30 8892 C 813.403 -1.44632 -0.967346 0
M  V30 8893 O 814.579 -1.77654 -0.94873 0
M  V30 8894 C 811.644 -3.20069 -1.33253 0
M  V30 8895 C 810.705 -4.24186 -0.660636 0
M  V30 8896 C 809.938 -5.07191 -1.6611 0
M  V30 8897 O 810.161 -4.91712 -2.89094 0
M  V30 8898 O 809.095 -5.8948 -1.21643 0
M  V30 8899 H 812.921 -3.01038 0.401224 0
M  V30 8900 H 810.506 -1.47079 0.262323 0
M  V30 8901 H 812.388 -3.74071 -1.94033 0
M  V30 8902 H 811.063 -2.54625 -1.9987 0
M  V30 8903 H 809.97 -3.74098 -0.0130959 0
M  V30 8904 H 811.303 -4.92186 -0.0369179 0
M  V30 8905 N 812.955 -0.234822 -1.55841 0
M  V30 8906 C 814.185 0.397168 -2.02746 0
M  V30 8907 C 814.593 1.52951 -1.11367 0
M  V30 8908 O 813.936 1.8332 -0.118133 0
M  V30 8909 C 813.998 0.977748 -3.45948 0
M  V30 8910 C 813.662 -0.0208193 -4.56995 0
M  V30 8911 C 814.659 -0.826015 -5.13296 0
M  V30 8912 C 812.344 -0.143416 -5.02095 0
M  V30 8913 C 814.338 -1.74038 -6.1318 0
M  V30 8914 C 812.025 -1.0613 -6.01814 0
M  V30 8915 C 813.023 -1.85832 -6.57233 0
M  V30 8916 O 812.711 -2.76075 -7.55008 0
M  V30 8917 H 812.443 0.0999802 -0.668566 0
M  V30 8918 H 814.997 -0.352673 -2.0235 0
M  V30 8919 H 813.227 1.77693 -3.43456 0
M  V30 8920 H 814.916 1.51854 -3.76424 0
M  V30 8921 H 815.682 -0.741822 -4.79293 0
M  V30 8922 H 811.561 0.466857 -4.5863 0
M  V30 8923 H 815.105 -2.36291 -6.56363 0
M  V30 8924 H 811.002 -1.14646 -6.35237 0
M  V30 8925 H 811.77 -2.703 -7.7258 0
M  V30 8926 N 814.433 1.57553 0.0384317 0
M  V30 8927 C 815.661 1.93093 0.743141 0
M  V30 8928 C 816.076 0.833787 1.69391 0
M  V30 8929 O 815.433 -0.190532 1.81503 0
M  V30 8930 C 815.484 3.28533 1.50826 0
M  V30 8931 O 815.205 4.34032 0.595665 0
M  V30 8932 C 816.706 3.78297 2.31098 0
M  V30 8933 H 813.926 0.637486 0.20941 0
M  V30 8934 H 816.47 2.045 -0.00125154 0
M  V30 8935 H 814.625 3.18552 2.20462 0
M  V30 8936 H 815.039 5.12155 1.13124 0
M  V30 8937 H 816.513 4.75602 2.80191 0
M  V30 8938 H 816.99 3.09008 3.12107 0
M  V30 8939 H 817.596 3.91331 1.66555 0
M  V30 8940 N 815.911 -0.310526 1.54511 0
M  V30 8941 C 817.136 -1.07046 1.7764 0
M  V30 8942 C 817.561 -1.80488 0.529696 0
M  V30 8943 O 816.919 -1.73702 -0.519361 0
M  V30 8944 C 816.967 -2.03411 2.97752 0
M  V30 8945 O 816.071 -3.11545 2.7021 0
M  V30 8946 H 815.412 -0.307994 0.588248 0
M  V30 8947 H 817.942 -0.350848 2.01569 0
M  V30 8948 H 817.952 -2.46048 3.2546 0
M  V30 8949 H 816.627 -1.49361 3.88155 0
M  V30 8950 H 815.204 -2.7349 2.53491 0
M  V30 8951 N 817.389 -1.46805 -0.573248 0
M  V30 8952 C 818.614 -1.56433 -1.36175 0
M  V30 8953 C 819.039 -0.209336 -1.86932 0
M  V30 8954 O 818.397 0.812146 -1.62092 0
M  V30 8955 C 818.445 -2.58055 -2.51873 0
M  V30 8956 O 817.549 -2.12214 -3.53609 0
M  V30 8957 H 816.89 -0.526068 -0.405153 0
M  V30 8958 H 819.42 -1.92456 -0.694405 0
M  V30 8959 H 819.43 -2.77966 -2.98662 0
M  V30 8960 H 818.105 -3.56448 -2.14284 0
M  V30 8961 H 816.682 -2.02333 -3.13234 0
M  V30 8962 N 818.867 0.818669 -1.34668 0
M  V30 8963 C 820.113 1.57746 -1.27453 0
M  V30 8964 C 820.446 1.93588 0.154077 0
M  V30 8965 O 819.721 1.60371 1.10051 0
M  V30 8966 C 820.004 2.87414 -2.16945 0
M  V30 8967 C 819.857 2.58125 -3.68363 0
M  V30 8968 C 821.176 3.89021 -2.05792 0
M  V30 8969 H 818.295 0.572339 -0.464324 0
M  V30 8970 H 820.937 0.942784 -1.64959 0
M  V30 8971 H 819.087 3.41576 -1.85089 0
M  V30 8972 H 820.759 2.10239 -4.10606 0
M  V30 8973 H 819.002 1.91503 -3.89242 0
M  V30 8974 H 819.673 3.5061 -4.26353 0
M  V30 8975 H 822.149 3.44224 -2.33771 0
M  V30 8976 H 821.025 4.77548 -2.70628 0
M  V30 8977 H 821.286 4.29786 -1.03618 0
M  V30 8978 N 820.346 1.18468 1.03938 0
M  V30 8979 C 821.594 0.978895 1.76811 0
M  V30 8980 C 821.915 -0.49257 1.88676 0
M  V30 8981 O 821.185 -1.3572 1.41269 0
M  V30 8982 H 819.765 0.359201 0.654968 0
M  V30 8983 H 822.427 1.49173 1.25433 0
M  V30 8984 H 821.523 1.418 2.78027 0
M  V30 8985 N 821.824 -1.22873 0.986916 0
M  V30 8986 C 823.049 -1.96028 0.677341 0
M  V30 8987 C 823.474 -1.72487 -0.750319 0
M  V30 8988 O 822.832 -1.00036 -1.51203 0
M  V30 8989 C 822.88 -3.46983 0.981593 0
M  V30 8990 O 821.984 -4.12328 0.0770729 0
M  V30 8991 H 821.325 -0.613458 0.254096 0
M  V30 8992 H 823.855 -1.56132 1.32227 0
M  V30 8993 H 823.865 -3.9747 0.920969 0
M  V30 8994 H 822.54 -3.63442 2.02194 0
M  V30 8995 H 821.117 -3.72402 0.192666 0
M  V30 8996 N 823.302 -0.75937 -1.38099 0
M  V30 8997 C 824.249 -0.135508 -2.30402 0
M  V30 8998 C 825.219 0.703356 -1.50473 0
M  V30 8999 O 826.404 0.658287 -1.79084 0
M  V30 9000 C 823.544 0.747228 -3.36913 0
M  V30 9001 C 822.657 -0.106893 -4.31868 0
M  V30 9002 C 821.792 0.779388 -5.25451 0
M  V30 9003 C 820.831 -0.0780179 -6.1205 0
M  V30 9004 N 819.968 0.765545 -6.97914 0
M  V30 9005 H 824.808 -0.9282 -2.83176 0
M  V30 9006 H 822.345 -0.46935 -1.39411 0
M  V30 9007 H 824.303 1.27371 -3.97281 0
M  V30 9008 H 822.933 1.50565 -2.85535 0
M  V30 9009 H 821.985 -0.751063 -3.72912 0
M  V30 9010 H 823.297 -0.768798 -4.9284 0
M  V30 9011 H 822.451 1.37282 -5.90964 0
M  V30 9012 H 821.19 1.47501 -4.6486 0
M  V30 9013 H 820.195 -0.684078 -5.45528 0
M  V30 9014 H 821.42 -0.770786 -6.74712 0
M  V30 9015 H 819.366 1.44601 -6.39864 0
M  V30 9016 H 819.283 0.160666 -7.55829 0
M  V30 9017 H 820.551 1.34377 -7.6783 0
M  V30 9018 N 824.78 1.49157 -0.508906 0
M  V30 9019 C 826.027 2.02473 0.0327983 0
M  V30 9020 C 826.355 1.38792 1.36261 0
M  V30 9021 O 825.61 0.515576 1.88786 0
M  V30 9022 C 825.909 3.56687 0.225717 0
M  V30 9023 C 825.575 4.39046 -1.02708 0
M  V30 9024 C 824.237 4.61271 -1.37048 0
M  V30 9025 C 826.589 4.86902 -1.85946 0
M  V30 9026 C 823.917 5.28598 -2.54562 0
M  V30 9027 C 826.269 5.55521 -3.0262 0
M  V30 9028 C 824.933 5.7599 -3.3733 0
M  V30 9029 H 824.203 0.740903 0.0120017 0
M  V30 9030 H 826.85 1.79372 -0.670665 0
M  V30 9031 H 825.155 3.78511 1.01177 0
M  V30 9032 H 826.852 3.95541 0.659433 0
M  V30 9033 H 823.442 4.21994 -0.749615 0
M  V30 9034 H 827.626 4.69553 -1.6073 0
M  V30 9035 H 822.882 5.42646 -2.81682 0
M  V30 9036 H 827.056 5.91576 -3.67438 0
M  V30 9037 H 824.683 6.27934 -4.2849 0
M  V30 9038 N 826.258 0.243083 1.55714 0
M  V30 9039 C 827.669 -0.260788 1.8487 0
M  V30 9040 C 828.02 -1.57879 1.16485 0
M  V30 9041 O 827.145 -2.1184 0.441908 0
M  V30 9042 C 827.74 -0.479954 3.35383 0
M  V30 9043 C 826.299 -0.928096 3.64778 0
M  V30 9044 C 825.446 -0.00316416 2.773 0
M  V30 9045 H 828.397 0.465743 1.51712 0
M  V30 9046 H 828.418 -1.32308 3.56756 0
M  V30 9047 H 827.93 0.479468 3.85127 0
M  V30 9048 H 826.031 -1.90012 3.20509 0
M  V30 9049 H 826.144 -0.7876 4.72582 0
M  V30 9050 H 824.508 -0.513849 2.49463 0
M  V30 9051 H 825.291 0.951562 3.29849 0
M  V30 9052 N 827.736 -1.57571 -0.0300757 0
M  V30 9053 C 828.982 -1.89506 -0.722159 0
M  V30 9054 C 829.315 -0.840699 -1.7506 0
M  V30 9055 O 828.59 0.144358 -1.93964 0
M  V30 9056 C 828.873 -3.32081 -1.39262 0
M  V30 9057 C 828.726 -4.48211 -0.377768 0
M  V30 9058 C 830.045 -3.73557 -2.32687 0
M  V30 9059 H 827.164 -0.689213 -0.261064 0
M  V30 9060 H 829.806 -1.89994 0.0150388 0
M  V30 9061 H 827.956 -3.31796 -2.02098 0
M  V30 9062 H 829.628 -4.6063 0.248591 0
M  V30 9063 H 827.871 -4.3274 0.303045 0
M  V30 9064 H 828.542 -5.44854 -0.885347 0
M  V30 9065 H 831.018 -3.75202 -1.79896 0
M  V30 9066 H 829.894 -4.74125 -2.7658 0
M  V30 9067 H 830.155 -3.05759 -3.19317 0
M  V30 9068 N 829.214 0.302327 -1.54673 0
M  V30 9069 C 830.63 0.647911 -1.45857 0
M  V30 9070 C 830.83 1.90773 -0.64869 0
M  V30 9071 O 829.886 2.52018 -0.155865 0
M  V30 9072 C 831.199 0.802144 -2.89804 0
M  V30 9073 C 832.747 0.898114 -2.99838 0
M  V30 9074 C 833.222 1.08436 -4.44978 0
M  V30 9075 N 834.713 1.15059 -4.48682 0
M  V30 9076 C 835.448 1.31296 -5.58166 0
M  V30 9077 N 834.944 1.4444 -6.77576 0
M  V30 9078 N 836.737 1.34174 -5.45851 0
M  V30 9079 H 828.888 -0.525428 -2.05798 0
M  V30 9080 H 831.151 -0.173423 -0.932002 0
M  V30 9081 H 830.857 -0.0526531 -3.51661 0
M  V30 9082 H 830.731 1.69155 -3.37145 0
M  V30 9083 H 833.118 1.7434 -2.38096 0
M  V30 9084 H 833.199 -0.0152752 -2.55795 0
M  V30 9085 H 832.843 0.243843 -5.07314 0
M  V30 9086 H 832.773 2.01195 -4.8665 0
M  V30 9087 H 835.264 1.0626 -3.62653 0
M  V30 9088 H 835.577 1.56582 -7.56771 0
M  V30 9089 H 833.922 1.41499 -6.80443 0
M  V30 9090 H 837.113 1.23516 -4.5151 0
M  V30 9091 H 837.286 1.46485 -6.31226 0
M  V30 9092 N 830.692 1.47107 0.565454 0
M  V30 9093 C 831.938 1.54519 1.3227 0
M  V30 9094 C 832.293 0.201313 1.91344 0
M  V30 9095 O 831.586 -0.792058 1.74462 0
M  V30 9096 C 831.78 2.59309 2.45954 0
M  V30 9097 C 831.609 4.03756 1.98019 0
M  V30 9098 C 830.379 4.71293 1.8224 0
M  V30 9099 C 832.577 4.91029 1.52955 0
M  V30 9100 N 830.559 6.00288 1.28557 0
M  V30 9101 C 831.93 6.09986 1.10981 0
M  V30 9102 C 833.985 4.77539 1.4093 0
M  V30 9103 C 832.688 7.16943 0.581796 0
M  V30 9104 C 834.714 5.84584 0.895307 0
M  V30 9105 C 834.076 7.02725 0.485454 0
M  V30 9106 H 830.175 0.620177 0.476345 0
M  V30 9107 H 832.759 1.83814 0.641901 0
M  V30 9108 H 830.93 2.31896 3.11575 0
M  V30 9109 H 832.662 2.56614 3.1294 0
M  V30 9110 H 829.417 4.27074 2.04707 0
M  V30 9111 H 829.841 6.68991 1.03828 0
M  V30 9112 H 834.483 3.86574 1.71231 0
M  V30 9113 H 832.201 8.07661 0.266399 0
M  V30 9114 H 835.787 5.76191 0.805939 0
M  V30 9115 H 834.667 7.84144 0.0938828 0
M  V30 9116 N 832.17 -0.811516 1.35101 0
M  V30 9117 C 833.395 -1.60499 1.31358 0
M  V30 9118 C 833.82 -1.87793 -0.107383 0
M  V30 9119 O 833.178 -1.46161 -1.07268 0
M  V30 9120 C 833.226 -2.91612 2.12119 0
M  V30 9121 O 832.33 -3.84211 1.49853 0
M  V30 9122 H 831.671 -0.487702 0.450603 0
M  V30 9123 H 834.201 -1.00758 1.7807 0
M  V30 9124 H 834.211 -3.4108 2.23894 0
M  V30 9125 H 832.886 -2.71071 3.15426 0
M  V30 9126 H 831.463 -3.42751 1.46889 0
M  V30 9127 N 833.648 -1.19017 -1.03309 0
M  V30 9128 C 835.059 -0.993206 -1.5809 0
M  V30 9129 C 835.41 0.45505 -1.9085 0
M  V30 9130 O 834.535 1.33372 -1.70414 0
M  V30 9131 C 835.13 -1.79661 -2.87241 0
M  V30 9132 C 833.689 -1.64377 -3.38611 0
M  V30 9133 C 832.836 -1.78628 -2.12102 0
M  V30 9134 H 835.787 -1.3345 -0.858879 0
M  V30 9135 H 835.808 -1.29019 -3.57958 0
M  V30 9136 H 835.32 -2.85061 -2.63366 0
M  V30 9137 H 833.421 -0.615447 -3.67482 0
M  V30 9138 H 833.534 -2.44651 -4.11926 0
M  V30 9139 H 831.898 -1.21648 -2.23772 0
M  V30 9140 H 832.681 -2.8548 -1.90673 0
M  V30 9141 N 835.127 1.22348 -0.993418 0
M  V30 9142 C 836.538 1.72893 -0.704616 0
M  V30 9143 C 836.889 1.80095 0.778483 0
M  V30 9144 O 836.014 1.4476 1.60853 0
M  V30 9145 C 836.609 3.14 -1.27237 0
M  V30 9146 C 835.168 3.61949 -1.03294 0
M  V30 9147 C 834.315 2.39816 -1.39225 0
M  V30 9148 H 837.266 1.07688 -1.16572 0
M  V30 9149 H 837.287 3.74886 -0.651212 0
M  V30 9150 H 836.799 3.08727 -2.3518 0
M  V30 9151 H 834.9 3.72588 0.0298329 0
M  V30 9152 H 835.013 4.48051 -1.69668 0
M  V30 9153 H 833.377 2.41448 -0.810849 0
M  V30 9154 H 834.16 2.37203 -2.48172 0
M  V30 9155 N 836.605 0.766683 1.37694 0
M  V30 9156 C 837.515 0.150158 2.34119 0
M  V30 9157 C 838.531 -0.685513 1.59927 0
M  V30 9158 O 839.707 -0.606616 1.92047 0
M  V30 9159 C 836.772 -0.722562 3.39087 0
M  V30 9160 C 835.833 0.128983 4.29106 0
M  V30 9161 C 835.066 -0.702178 5.29061 0
M  V30 9162 O 835.289 -1.93954 5.36412 0
M  V30 9163 O 834.223 -0.114056 6.01792 0
M  V30 9164 H 838.049 0.946829 2.88563 0
M  V30 9165 H 835.634 0.527765 1.39768 0
M  V30 9166 H 837.516 -1.22095 4.03325 0
M  V30 9167 H 836.191 -1.49751 2.86978 0
M  V30 9168 H 835.098 0.673612 3.67985 0
M  V30 9169 H 836.431 0.866892 4.84506 0
M  V30 9170 N 838.083 -1.48885 0.516809 0
M  V30 9171 C 839.329 -2.02788 -0.0220928 0
M  V30 9172 C 839.662 -1.39433 -1.35175 0
M  V30 9173 O 838.937 -0.535459 -1.86984 0
M  V30 9174 C 839.22 -3.59753 -0.158012 0
M  V30 9175 C 839.073 -4.33611 1.19588 0
M  V30 9176 C 840.392 -4.30984 -0.891133 0
M  V30 9177 H 837.511 -0.736971 -0.00655488 0
M  V30 9178 H 840.153 -1.77746 0.671287 0
M  V30 9179 H 838.303 -3.8122 -0.748568 0
M  V30 9180 H 839.975 -4.23598 1.82653 0
M  V30 9181 H 838.218 -3.95547 1.78116 0
M  V30 9182 H 838.889 -5.41846 1.05391 0
M  V30 9183 H 841.365 -4.14267 -0.39012 0
M  V30 9184 H 840.241 -5.40527 -0.955107 0
M  V30 9185 H 840.502 -3.97336 -1.93847 0
M  V30 9186 N 839.561 -0.251338 -1.55583 0
M  V30 9187 C 840.491 0.640437 -2.24545 0
M  V30 9188 C 841.472 1.17781 -1.22726 0
M  V30 9189 O 842.657 1.21633 -1.5139 0
M  V30 9190 C 839.787 1.8355 -2.94834 0
M  V30 9191 C 838.741 1.4307 -4.03379 0
M  V30 9192 C 838.067 2.70695 -4.61116 0
M  V30 9193 C 839.367 0.59848 -5.1886 0
M  V30 9194 H 841.061 0.0653772 -2.99329 0
M  V30 9195 H 838.607 0.0300042 -1.43969 0
M  V30 9196 H 840.56 2.46505 -3.4178 0
M  V30 9197 H 839.284 2.43601 -2.17546 0
M  V30 9198 H 837.943 0.824474 -3.57209 0
M  V30 9199 H 837.591 3.28954 -3.80524 0
M  V30 9200 H 837.291 2.44332 -5.34393 0
M  V30 9201 H 838.815 3.34541 -5.10798 0
M  V30 9202 H 840.229 1.13244 -5.62004 0
M  V30 9203 H 838.626 0.430728 -5.98552 0
M  V30 9204 H 839.696 -0.38829 -4.83343 0
M  V30 9205 N 841.039 1.57585 0.0217189 0
M  V30 9206 C 841.972 2.02435 1.05334 0
M  V30 9207 C 842.95 0.91006 1.34747 0
M  V30 9208 O 844.134 1.17648 1.47279 0
M  V30 9209 C 841.261 2.40362 2.38629 0
M  V30 9210 C 840.307 3.62307 2.25025 0
M  V30 9211 S 841.14 5.11141 1.59673 0
M  V30 9212 C 842.296 5.52316 2.94444 0
M  V30 9213 H 842.529 2.89621 0.671354 0
M  V30 9214 H 840.062 1.52648 0.231925 0
M  V30 9215 H 842.02 2.62883 3.15282 0
M  V30 9216 H 840.681 1.53615 2.73973 0
M  V30 9217 H 839.874 3.86523 3.23443 0
M  V30 9218 H 839.476 3.39675 1.56515 0
M  V30 9219 H 841.768 5.53449 3.90768 0
M  V30 9220 H 842.711 6.52539 2.74952 0
M  V30 9221 H 843.119 4.79834 2.97355 0
M  V30 9222 N 842.517 -0.29412 1.54831 0
M  V30 9223 C 843.747 -1.04572 1.7818 0
M  V30 9224 C 844.155 -1.81187 0.544776 0
M  V30 9225 O 843.498 -1.769 -0.495169 0
M  V30 9226 C 843.56 -2.06748 2.94101 0
M  V30 9227 C 843.224 -1.49265 4.31936 0
M  V30 9228 C 844.221 -0.919136 5.11711 0
M  V30 9229 C 841.906 -1.52621 4.78552 0
M  V30 9230 C 843.9 -0.386824 6.36225 0
M  V30 9231 C 841.587 -0.990031 6.03027 0
M  V30 9232 C 842.585 -0.421315 6.81699 0
M  V30 9233 O 842.273 0.106713 8.03829 0
M  V30 9234 H 842.005 -0.31559 0.597812 0
M  V30 9235 H 844.559 -0.336817 2.0262 0
M  V30 9236 H 842.789 -2.81339 2.65303 0
M  V30 9237 H 844.478 -2.67865 3.04964 0
M  V30 9238 H 845.244 -0.886062 4.76837 0
M  V30 9239 H 841.123 -1.95826 4.17341 0
M  V30 9240 H 844.667 0.0577248 6.97576 0
M  V30 9241 H 840.564 -1.02027 6.37386 0
M  V30 9242 H 841.332 -0.00593526 8.185 0
M  V30 9243 N 843.995 -1.47404 -0.557645 0
M  V30 9244 C 845.22 -1.57868 -1.34508 0
M  V30 9245 C 845.645 -0.229151 -1.86699 0
M  V30 9246 O 845.003 0.794908 -1.62944 0
M  V30 9247 C 845.051 -2.60712 -2.49122 0
M  V30 9248 O 844.155 -2.15952 -3.51338 0
M  V30 9249 H 843.496 -0.530335 -0.399551 0
M  V30 9250 H 846.026 -1.93181 -0.673954 0
M  V30 9251 H 846.036 -2.81118 -2.95697 0
M  V30 9252 H 844.711 -3.58701 -2.10491 0
M  V30 9253 H 843.288 -2.05644 -3.11071 0
M  V30 9254 N 845.473 0.80434 -1.35529 0
M  V30 9255 C 846.42 1.91629 -1.28635 0
M  V30 9256 C 847.39 1.65348 -0.157862 0
M  V30 9257 O 848.575 1.87711 -0.341934 0
M  V30 9258 C 845.715 3.28207 -1.0665 0
M  V30 9259 C 844.828 3.66659 -2.28441 0
M  V30 9260 C 843.963 4.92279 -1.99588 0
M  V30 9261 C 843.002 5.23365 -3.1742 0
M  V30 9262 N 842.139 6.40165 -2.88328 0
M  V30 9263 H 846.979 1.96858 -2.23721 0
M  V30 9264 H 844.516 0.962871 -1.11208 0
M  V30 9265 H 846.474 4.06945 -0.919343 0
M  V30 9266 H 845.104 3.22441 -0.152253 0
M  V30 9267 H 844.156 2.83164 -2.54013 0
M  V30 9268 H 845.468 3.8559 -3.1642 0
M  V30 9269 H 844.622 5.78847 -1.81715 0
M  V30 9270 H 843.361 4.75387 -1.08896 0
M  V30 9271 H 842.366 4.35285 -3.35867 0
M  V30 9272 H 843.591 5.42185 -4.08916 0
M  V30 9273 H 841.537 6.24694 -2.00233 0
M  V30 9274 H 841.454 6.59357 -3.69843 0
M  V30 9275 H 842.722 7.29755 -2.74002 0
M  V30 9276 N 846.951 1.19563 1.02676 0
M  V30 9277 C 848.198 0.999568 1.7611 0
M  V30 9278 C 848.526 -0.469432 1.8875 0
M  V30 9279 O 847.781 -1.36481 1.40255 0
M  V30 9280 C 848.08 1.61619 3.18769 0
M  V30 9281 C 847.746 3.11366 3.26132 0
M  V30 9282 C 846.408 3.52234 3.27848 0
M  V30 9283 C 848.76 4.07374 3.25109 0
M  V30 9284 C 846.088 4.87658 3.26201 0
M  V30 9285 C 848.44 5.42731 3.25002 0
M  V30 9286 C 847.104 5.83027 3.25017 0
M  V30 9287 H 846.374 0.365768 0.644434 0
M  V30 9288 H 849.021 1.48838 1.20497 0
M  V30 9289 H 847.326 1.04974 3.77476 0
M  V30 9290 H 849.023 1.43975 3.74262 0
M  V30 9291 H 845.613 2.78804 3.25525 0
M  V30 9292 H 849.797 3.76842 3.22961 0
M  V30 9293 H 845.053 5.18156 3.24537 0
M  V30 9294 H 849.227 6.16879 3.23161 0
M  V30 9295 H 846.854 6.87936 3.23494 0
M  V30 9296 N 848.429 -1.21819 0.999893 0
M  V30 9297 C 849.654 -1.95298 0.698094 0
M  V30 9298 C 850.079 -1.73273 -0.731982 0
M  V30 9299 O 849.437 -1.01634 -1.50134 0
M  V30 9300 C 849.485 -3.45922 1.01834 0
M  V30 9301 O 848.589 -4.12223 0.120801 0
M  V30 9302 H 847.93 -0.610729 0.260588 0
M  V30 9303 H 850.46 -1.5472 1.33876 0
M  V30 9304 H 850.47 -3.96471 0.963074 0
M  V30 9305 H 849.145 -3.61278 2.06037 0
M  V30 9306 H 847.722 -3.72177 0.232153 0
M  V30 9307 N 849.908 -0.773975 -1.37286 0
M  V30 9308 C 851.133 -0.349561 -2.04433 0
M  V30 9309 C 851.558 1.02082 -1.5799 0
M  V30 9310 O 850.916 1.65458 -0.741172 0
M  V30 9311 C 850.964 -0.404292 -3.58326 0
M  V30 9312 O 850.068 0.594447 -4.08093 0
M  V30 9313 H 849.409 -0.150959 -0.646612 0
M  V30 9314 H 851.939 -1.05079 -1.75555 0
M  V30 9315 H 851.949 -0.262378 -4.07155 0
M  V30 9316 H 850.624 -1.40403 -3.91484 0
M  V30 9317 H 849.201 0.415468 -3.70578 0
M  V30 9318 N 851.386 1.48609 -0.524698 0
M  V30 9319 C 852.333 2.29539 0.240956 0
M  V30 9320 C 853.303 1.37033 0.938681 0
M  V30 9321 O 854.488 1.65996 0.940737 0
M  V30 9322 C 851.628 3.20278 1.28514 0
M  V30 9323 C 850.741 4.27858 0.596798 0
M  V30 9324 C 849.876 5.05784 1.62346 0
M  V30 9325 C 848.915 6.05173 0.918287 0
M  V30 9326 N 848.052 6.76176 1.89025 0
M  V30 9327 H 852.892 2.945 -0.455368 0
M  V30 9328 H 850.429 1.45188 -0.236403 0
M  V30 9329 H 852.387 3.71281 1.90279 0
M  V30 9330 H 851.017 2.57251 1.94992 0
M  V30 9331 H 850.069 3.80162 -0.134668 0
M  V30 9332 H 851.381 4.98782 0.0428506 0
M  V30 9333 H 850.535 5.60775 2.31553 0
M  V30 9334 H 849.274 4.34687 2.2113 0
M  V30 9335 H 848.279 5.49391 0.21212 0
M  V30 9336 H 849.504 6.78265 0.336633 0
M  V30 9337 H 847.45 6.07834 2.46726 0
M  V30 9338 H 847.367 7.43157 1.3876 0
M  V30 9339 H 848.635 7.35759 2.57446 0
M  V30 9340 N 852.864 0.259585 1.55447 0
M  V30 9341 C 854.089 -0.368317 2.04103 0
M  V30 9342 C 854.514 -1.49827 1.13725 0
M  V30 9343 O 853.872 -1.80814 0.132705 0
M  V30 9344 C 853.92 -0.841506 3.50644 0
M  V30 9345 O 853.024 -1.95008 3.63381 0
M  V30 9346 H 852.365 -0.0785227 0.659341 0
M  V30 9347 H 854.895 0.389349 2.00861 0
M  V30 9348 H 854.905 -1.14138 3.9171 0
M  V30 9349 H 853.58 -0.0147001 4.15897 0
M  V30 9350 H 852.157 -1.65393 3.34215 0
M  V30 9351 N 854.342 -1.57594 -0.0133615 0
M  V30 9352 C 855.619 -1.81173 -0.737273 0
M  V30 9353 C 855.999 -0.861395 -1.92726 0
M  V30 9354 O 855.347 0.0929324 -2.28311 0
M  V30 9355 C 855.557 -3.29314 -1.15557 0
M  V30 9356 C 856.905 -3.94707 -1.56498 0
M  V30 9357 O 857.929 -3.33557 -1.24973 0
M  V30 9358 O 856.788 -5.02402 -2.15069 0
M  V30 9359 H 853.882 -0.745575 -0.357837 0
M  V30 9360 H 856.428 -1.69696 0.0110674 0
M  V30 9361 H 855.2 -3.90096 -0.30677 0
M  V30 9362 H 854.823 -3.45739 -1.96343 0
M  V30 9363 N 855.82 0.285905 -1.54985 0
M  V30 9364 C 857.069 1.01691 -1.74189 0
M  V30 9365 C 857.382 1.87908 -0.543135 0
M  V30 9366 O 858.588 2.64389 -0.617305 0
M  V30 9367 C 857.044 1.85785 -3.0824 0
M  V30 9368 C 856.652 1.04497 -4.35642 0
M  V30 9369 C 858.396 2.58393 -3.36798 0
M  V30 9370 C 856.303 1.87955 -5.60738 0
M  V30 9371 H 855.233 0.383396 -0.649248 0
M  V30 9372 H 857.884 0.27317 -1.81455 0
M  V30 9373 H 856.266 2.64205 -2.94978 0
M  V30 9374 H 857.44 0.305847 -4.59784 0
M  V30 9375 H 855.755 0.434023 -4.14132 0
M  V30 9376 H 858.352 3.21214 -4.27464 0
M  V30 9377 H 858.695 3.28011 -2.56349 0
M  V30 9378 H 859.228 1.87012 -3.511 0
M  V30 9379 H 855.967 1.22781 -6.43898 0
M  V30 9380 H 855.487 2.59499 -5.40759 0
M  V30 9381 H 857.166 2.45636 -5.98558 0
M  V30 9382 N 857.298 1.47698 0.54982 0
M  V30 9383 C 858.544 1.55914 1.30624 0
M  V30 9384 C 858.899 0.221596 1.9112 0
M  V30 9385 O 858.192 -0.77351 1.75292 0
M  V30 9386 C 858.386 2.61903 2.4319 0
M  V30 9387 C 858.215 4.05833 1.93725 0
M  V30 9388 C 856.985 4.73199 1.77231 0
M  V30 9389 C 859.183 4.92624 1.47738 0
M  V30 9390 N 857.165 6.01618 1.22183 0
M  V30 9391 C 858.536 6.11129 1.04505 0
M  V30 9392 C 860.591 4.79006 1.35857 0
M  V30 9393 C 859.294 7.1752 0.505722 0
M  V30 9394 C 861.32 5.85501 0.833254 0
M  V30 9395 C 860.682 7.03201 0.410894 0
M  V30 9396 H 856.781 0.625194 0.469741 0
M  V30 9397 H 859.365 1.84485 0.622369 0
M  V30 9398 H 857.536 2.35188 3.09098 0
M  V30 9399 H 859.268 2.59919 3.102 0
M  V30 9400 H 856.023 4.29221 2.00166 0
M  V30 9401 H 856.447 6.70054 0.967263 0
M  V30 9402 H 861.089 3.88369 1.67122 0
M  V30 9403 H 858.807 8.07898 0.180721 0
M  V30 9404 H 862.393 5.77013 0.744781 0
M  V30 9405 H 861.273 7.84199 0.0107086 0
M  V30 9406 N 858.776 -0.797141 1.35954 0
M  V30 9407 C 859.739 -1.89104 1.29508 0
M  V30 9408 C 860.739 -1.59495 0.204444 0
M  V30 9409 O 861.929 -1.68051 0.458746 0
M  V30 9410 C 859.061 -3.25726 1.00576 0
M  V30 9411 H 860.254 -1.96237 2.26785 0
M  V30 9412 H 857.807 -0.994075 1.20614 0
M  V30 9413 H 858.542 -3.24279 0.0372519 0
M  V30 9414 H 858.327 -3.48604 1.79492 0
M  V30 9415 H 859.817 -4.0578 0.986508 0
M  V30 9416 N 860.254 -1.20106 -1.0204 0
M  V30 9417 C 861.501 -1.00889 -1.75578 0
M  V30 9418 C 861.829 0.459415 -1.88996 0
M  V30 9419 O 861.084 1.35735 -1.40977 0
M  V30 9420 C 861.383 -1.63308 -3.17908 0
M  V30 9421 C 861.049 -3.13091 -3.24476 0
M  V30 9422 C 859.711 -3.53968 -3.25976 0
M  V30 9423 C 862.063 -4.09093 -3.22944 0
M  V30 9424 C 859.391 -4.89381 -3.2361 0
M  V30 9425 C 861.743 -5.44447 -3.22119 0
M  V30 9426 C 860.407 -5.84742 -3.2192 0
M  V30 9427 H 859.677 -0.36918 -0.642485 0
M  V30 9428 H 862.324 -1.49475 -1.19706 0
M  V30 9429 H 860.629 -1.06974 -3.76914 0
M  V30 9430 H 862.326 -1.45958 -3.73493 0
M  V30 9431 H 858.916 -2.80526 -3.24042 0
M  V30 9432 H 863.1 -3.78549 -3.20958 0
M  V30 9433 H 858.356 -5.1987 -3.21785 0
M  V30 9434 H 862.53 -6.18584 -3.19885 0
M  V30 9435 H 860.157 -6.89642 -3.19841 0
M  V30 9436 N 861.732 1.21287 -1.00634 0
M  V30 9437 C 862.98 1.90013 -0.688438 0
M  V30 9438 C 863.301 1.78573 0.783365 0
M  V30 9439 O 862.571 1.1815 1.56261 0
M  V30 9440 H 861.151 0.703336 -0.251648 0
M  V30 9441 H 863.813 1.47346 -1.27574 0
M  V30 9442 H 862.909 2.96879 -0.962781 0
M  V30 9443 N 863.21 0.781244 1.36873 0
M  V30 9444 C 864.456 0.350407 1.9975 0
M  V30 9445 C 864.789 -1.07293 1.6187 0
M  V30 9446 O 864.064 -1.73983 0.869491 0
M  V30 9447 C 864.347 0.504834 3.56544 0
M  V30 9448 C 864.2 1.97127 4.04303 0
M  V30 9449 C 865.519 -0.0851272 4.40018 0
M  V30 9450 H 862.638 0.128794 0.725659 0
M  V30 9451 H 865.28 0.98606 1.6241 0
M  V30 9452 H 863.43 -0.0363006 3.88483 0
M  V30 9453 H 865.102 2.57284 3.82887 0
M  V30 9454 H 863.345 2.47676 3.56145 0
M  V30 9455 H 864.016 2.03033 5.13305 0
M  V30 9456 H 866.492 0.376704 4.14391 0
M  V30 9457 H 865.368 0.0530015 5.48874 0
M  V30 9458 H 865.629 -1.17642 4.2616 0
M  V30 9459 N 864.689 -1.48329 0.532571 0
M  V30 9460 C 865.619 -2.32485 -0.217511 0
M  V30 9461 C 866.6 -1.42255 -0.932598 0
M  V30 9462 O 867.785 -1.7114 -0.917873 0
M  V30 9463 C 864.915 -3.23509 -1.26329 0
M  V30 9464 C 863.869 -4.22784 -0.666191 0
M  V30 9465 C 863.195 -5.0296 -1.81482 0
M  V30 9466 C 864.495 -5.21031 0.363813 0
M  V30 9467 H 866.189 -2.95445 0.485014 0
M  V30 9468 H 863.735 -1.42075 0.234694 0
M  V30 9469 H 865.688 -3.81211 -1.79601 0
M  V30 9470 H 864.412 -2.58554 -1.99543 0
M  V30 9471 H 863.071 -3.66272 -0.15498 0
M  V30 9472 H 862.719 -4.34427 -2.5354 0
M  V30 9473 H 862.419 -5.70154 -1.4212 0
M  V30 9474 H 863.943 -5.63514 -2.35126 0
M  V30 9475 H 865.357 -5.73241 -0.0819079 0
M  V30 9476 H 863.754 -5.96292 0.674956 0
M  V30 9477 H 864.824 -4.6801 1.26865 0
M  V30 9478 N 866.167 -0.267825 -1.55308 0
M  V30 9479 C 867.1 0.663973 -2.18327 0
M  V30 9480 C 868.078 1.15759 -1.14187 0
M  V30 9481 O 869.262 1.23189 -1.42677 0
M  V30 9482 C 866.389 1.9047 -2.8007 0
M  V30 9483 C 865.435 1.54718 -3.97447 0
M  V30 9484 S 866.268 0.631654 -5.31762 0
M  V30 9485 C 867.424 1.88092 -5.96969 0
M  V30 9486 H 867.657 0.128486 -2.97022 0
M  V30 9487 H 865.19 -0.052129 -1.54312 0
M  V30 9488 H 867.148 2.61688 -3.16275 0
M  V30 9489 H 865.809 2.41132 -2.01281 0
M  V30 9490 H 865.002 2.47022 -4.39313 0
M  V30 9491 H 864.604 0.915254 -3.62628 0
M  V30 9492 H 866.896 2.82572 -6.15759 0
M  V30 9493 H 867.839 1.50539 -6.91913 0
M  V30 9494 H 868.247 2.04254 -5.26252 0
M  V30 9495 N 867.645 1.57599 0.00500368 0
M  V30 9496 C 868.891 1.91471 0.686313 0
M  V30 9497 C 869.246 0.868988 1.71658 0
M  V30 9498 O 868.539 -0.11944 1.91227 0
M  V30 9499 C 868.733 3.29855 1.37588 0
M  V30 9500 C 868.562 4.47791 0.413924 0
M  V30 9501 C 867.332 5.05293 0.0261488 0
M  V30 9502 C 869.53 5.13317 -0.317764 0
M  V30 9503 N 867.512 6.06745 -0.934545 0
M  V30 9504 C 868.883 6.09554 -1.13331 0
M  V30 9505 C 870.938 4.96431 -0.382136 0
M  V30 9506 C 869.641 6.90723 -2.00735 0
M  V30 9507 C 871.667 5.78182 -1.24339 0
M  V30 9508 C 871.029 6.74007 -2.04679 0
M  V30 9509 H 867.128 0.749083 0.224495 0
M  V30 9510 H 869.712 1.94625 -0.0541684 0
M  V30 9511 H 867.883 3.27585 2.08668 0
M  V30 9512 H 869.615 3.51171 2.01149 0
M  V30 9513 H 866.37 4.71963 0.393462 0
M  V30 9514 H 866.794 6.62152 -1.41012 0
M  V30 9515 H 871.436 4.22202 0.224718 0
M  V30 9516 H 869.154 7.64281 -2.6249 0
M  V30 9517 H 872.74 5.67158 -1.29704 0
M  V30 9518 H 871.62 7.36164 -2.70244 0
M  V30 9519 N 869.123 -0.277682 1.55134 0
M  V30 9520 C 870.033 -1.36524 1.90783 0
M  V30 9521 C 871.049 -1.54283 0.804542 0
M  V30 9522 O 872.225 -1.68499 1.10318 0
M  V30 9523 C 869.29 -2.70524 2.16835 0
M  V30 9524 C 868.351 -2.61552 3.40424 0
M  V30 9525 C 867.584 -3.89162 3.65224 0
M  V30 9526 O 867.807 -4.89624 2.92616 0
M  V30 9527 O 866.741 -3.89647 4.58758 0
M  V30 9528 H 870.567 -1.0929 2.83354 0
M  V30 9529 H 868.152 -0.475799 1.41621 0
M  V30 9530 H 870.034 -3.49765 2.35038 0
M  V30 9531 H 868.709 -2.97555 1.27448 0
M  V30 9532 H 867.616 -1.80704 3.27562 0
M  V30 9533 H 868.949 -2.39472 4.30016 0
M  V30 9534 N 870.601 -1.47988 -0.541979 0
M  V30 9535 C 871.85 -1.5465 -1.29485 0
M  V30 9536 C 872.163 -0.220041 -1.94358 0
M  V30 9537 O 873.369 -0.164792 -2.70999 0
M  V30 9538 C 871.825 -2.72685 -2.34885 0
M  V30 9539 C 871.433 -4.11923 -1.76134 0
M  V30 9540 C 873.177 -2.88651 -3.11257 0
M  V30 9541 C 871.084 -5.21237 -2.79404 0
M  V30 9542 H 870.014 -0.575688 -0.486928 0
M  V30 9543 H 872.665 -1.74296 -0.573853 0
M  V30 9544 H 871.047 -2.46448 -3.09966 0
M  V30 9545 H 872.221 -4.48128 -1.07322 0
M  V30 9546 H 870.536 -4.00972 -1.12295 0
M  V30 9547 H 873.133 -3.67487 -3.88404 0
M  V30 9548 H 873.476 -1.97658 -3.66384 0
M  V30 9549 H 874.009 -3.14731 -2.43288 0
M  V30 9550 H 870.748 -6.14156 -2.29113 0
M  V30 9551 H 870.268 -4.89533 -3.4658 0
M  V30 9552 H 871.947 -5.48839 -3.42615 0
M  V30 9553 N 872.079 0.78992 -1.36375 0
M  V30 9554 C 873.309 1.57644 -1.33536 0
M  V30 9555 C 873.717 1.89007 0.0855075 0
M  V30 9556 O 873.06 1.50547 1.05267 0
M  V30 9557 C 873.122 2.92424 -2.09113 0
M  V30 9558 C 872.786 2.83793 -3.58205 0
M  V30 9559 C 873.783 2.56072 -4.52464 0
M  V30 9560 C 871.468 3.02386 -4.01084 0
M  V30 9561 C 873.462 2.47044 -5.87578 0
M  V30 9562 C 871.149 2.9298 -5.36289 0
M  V30 9563 C 872.147 2.65347 -6.29349 0
M  V30 9564 O 871.835 2.55935 -7.62071 0
M  V30 9565 H 871.567 0.495639 -0.459694 0
M  V30 9566 H 874.121 0.988354 -1.80058 0
M  V30 9567 H 872.351 3.53282 -1.57254 0
M  V30 9568 H 874.04 3.53693 -1.99139 0
M  V30 9569 H 874.806 2.4141 -4.2065 0
M  V30 9570 H 870.685 3.229 -3.29023 0
M  V30 9571 H 874.229 2.25396 -6.60184 0
M  V30 9572 H 870.126 3.07204 -5.67711 0
M  V30 9573 H 870.894 2.7142 -7.72187 0
M  V30 9574 N 873.557 1.20646 1.01402 0
M  V30 9575 C 874.782 1.04462 1.79172 0
M  V30 9576 C 875.207 -0.401588 1.83763 0
M  V30 9577 O 874.565 -1.28934 1.27459 0
M  V30 9578 C 874.613 1.63583 3.21361 0
M  V30 9579 O 873.717 0.875198 4.03006 0
M  V30 9580 H 873.058 0.368235 0.552539 0
M  V30 9581 H 875.588 1.59994 1.27526 0
M  V30 9582 H 875.598 1.67426 3.72065 0
M  V30 9583 H 874.273 2.68835 3.17334 0
M  V30 9584 H 872.85 0.911172 3.61597 0
M  V30 9585 N 875.035 -1.20752 1.01276 0
M  V30 9586 C 875.965 -2.25658 0.600064 0
M  V30 9587 C 876.946 -1.65733 -0.38298 0
M  V30 9588 O 878.131 -1.92324 -0.269256 0
M  V30 9589 C 875.261 -3.47237 -0.0663197 0
M  V30 9590 C 874.215 -4.1973 0.83731 0
M  V30 9591 C 873.541 -5.34687 0.0369102 0
M  V30 9592 C 874.841 -4.76286 2.14357 0
M  V30 9593 H 876.535 -2.60432 1.477 0
M  V30 9594 H 874.081 -1.25187 0.711634 0
M  V30 9595 H 876.034 -4.19803 -0.366563 0
M  V30 9596 H 874.758 -3.11615 -0.977944 0
M  V30 9597 H 873.417 -3.49024 1.1215 0
M  V30 9598 H 873.065 -4.95309 -0.876244 0
M  V30 9599 H 872.765 -5.84119 0.63865 0
M  V30 9600 H 874.289 -6.10059 -0.256968 0
M  V30 9601 H 875.703 -5.40691 1.90595 0
M  V30 9602 H 874.1 -5.36139 2.69583 0
M  V30 9603 H 875.17 -3.9524 2.80916 0
M  V30 9604 N 876.513 -0.788492 -1.36457 0
M  V30 9605 C 877.761 -0.359749 -1.98872 0
M  V30 9606 C 878.082 1.07197 -1.62892 0
M  V30 9607 O 877.352 1.73875 -0.902463 0
M  V30 9608 H 875.932 -0.130029 -0.735596 0
M  V30 9609 H 878.594 -1.01033 -1.66668 0
M  V30 9610 H 877.69 -0.450835 -3.08827 0
M  V30 9611 N 877.991 1.48044 -0.54043 0
M  V30 9612 C 878.938 2.29781 0.216597 0
M  V30 9613 C 879.908 1.38021 0.924094 0
M  V30 9614 O 881.093 1.66985 0.923078 0
M  V30 9615 C 878.233 3.21623 1.2511 0
M  V30 9616 C 877.346 4.28467 0.551384 0
M  V30 9617 C 876.481 5.07477 1.56972 0
M  V30 9618 C 875.52 6.06113 0.854048 0
M  V30 9619 N 874.657 6.78143 1.81842 0
M  V30 9620 H 879.497 2.94001 -0.486578 0
M  V30 9621 H 877.034 1.44929 -0.251789 0
M  V30 9622 H 878.992 3.73279 1.8633 0
M  V30 9623 H 877.622 2.59305 1.92252 0
M  V30 9624 H 876.674 3.79997 -0.174982 0
M  V30 9625 H 877.986 4.98799 -0.0100542 0
M  V30 9626 H 877.14 5.63199 2.25592 0
M  V30 9627 H 875.879 4.37008 2.16507 0
M  V30 9628 H 874.884 5.49585 0.153838 0
M  V30 9629 H 876.109 6.78584 0.264675 0
M  V30 9630 H 874.055 6.10417 2.40265 0
M  V30 9631 H 873.972 7.44587 1.3087 0
M  V30 9632 H 875.24 7.38448 2.49628 0
M  V30 9633 N 879.47 0.276058 1.55163 0
M  V30 9634 C 880.403 -0.652386 2.18676 0
M  V30 9635 C 881.381 -1.15151 1.148 0
M  V30 9636 O 882.565 -1.22431 1.43328 0
M  V30 9637 C 879.692 -1.88982 2.81076 0
M  V30 9638 C 878.738 -1.52609 3.98262 0
M  V30 9639 S 879.571 -0.603445 5.32089 0
M  V30 9640 C 880.727 -1.84923 5.97958 0
M  V30 9641 H 880.96 -0.112733 2.97086 0
M  V30 9642 H 878.493 0.0603118 1.54282 0
M  V30 9643 H 880.451 -2.60007 3.17658 0
M  V30 9644 H 879.112 -2.40061 2.02557 0
M  V30 9645 H 878.305 -2.44689 4.40617 0
M  V30 9646 H 877.907 -0.89601 3.63108 0
M  V30 9647 H 880.199 -2.79303 6.17249 0
M  V30 9648 H 881.142 -1.46868 6.92702 0
M  V30 9649 H 881.55 -2.0146 5.27327 0
M  V30 9650 N 880.948 -1.576 0.00335426 0
M  V30 9651 C 882.359 -1.7875 -0.539008 0
M  V30 9652 C 882.71 -0.911097 -1.73763 0
M  V30 9653 O 881.835 -0.114476 -2.16097 0
M  V30 9654 C 882.43 -3.24177 -0.984611 0
M  V30 9655 C 880.989 -3.46412 -1.47226 0
M  V30 9656 C 880.136 -2.74024 -0.425004 0
M  V30 9657 H 883.087 -1.57032 0.229511 0
M  V30 9658 H 883.108 -3.32474 -1.85044 0
M  V30 9659 H 882.62 -3.87938 -0.112035 0
M  V30 9660 H 880.721 -2.8787 -2.36562 0
M  V30 9661 H 880.834 -4.55098 -1.49741 0
M  V30 9662 H 879.198 -2.38741 -0.887394 0
M  V30 9663 H 879.981 -3.40486 0.438662 0
M  V30 9664 N 882.426 0.269451 -1.5528 0
M  V30 9665 C 883.656 1.01724 -1.79821 0
M  V30 9666 C 884.064 1.80298 -0.573532 0
M  V30 9667 O 883.407 1.77666 0.466963 0
M  V30 9668 C 883.469 2.02043 -2.97353 0
M  V30 9669 C 883.133 1.42375 -4.34256 0
M  V30 9670 C 884.13 0.837611 -5.13108 0
M  V30 9671 C 881.815 1.44988 -4.8092 0
M  V30 9672 C 883.809 0.285557 -6.3676 0
M  V30 9673 C 881.496 0.893969 -6.04526 0
M  V30 9674 C 882.494 0.312809 -6.82283 0
M  V30 9675 O 882.182 -0.234582 -8.03558 0
M  V30 9676 H 881.914 0.30604 -0.602757 0
M  V30 9677 H 884.468 0.30454 -2.0313 0
M  V30 9678 H 882.698 2.77082 -2.69745 0
M  V30 9679 H 884.387 2.6298 -3.09187 0
M  V30 9680 H 885.153 0.81009 -4.78187 0
M  V30 9681 H 881.032 1.89162 -4.20403 0
M  V30 9682 H 884.576 -0.168696 -6.97396 0
M  V30 9683 H 880.473 0.918742 -6.38928 0
M  V30 9684 H 881.241 -0.124282 -8.18406 0
M  V30 9685 N 883.904 1.48273 0.534124 0
M  V30 9686 C 884.814 1.65162 1.66609 0
M  V30 9687 C 885.83 0.534177 1.65598 0
M  V30 9688 O 887.006 0.804715 1.84625 0
M  V30 9689 C 884.071 1.68354 3.03081 0
M  V30 9690 C 883.132 2.91696 3.1498 0
M  V30 9691 C 882.365 2.94725 4.44941 0
M  V30 9692 O 882.588 2.06285 5.31792 0
M  V30 9693 O 881.522 3.8685 4.61119 0
M  V30 9694 H 885.348 2.60991 1.55298 0
M  V30 9695 H 882.933 1.31626 0.706749 0
M  V30 9696 H 884.815 1.72998 3.84252 0
M  V30 9697 H 883.49 0.756978 3.14725 0
M  V30 9698 H 882.397 2.92586 2.33119 0
M  V30 9699 H 883.73 3.83722 3.0825 0
M  V30 9700 N 885.382 -0.782676 1.36792 0
M  V30 9701 C 886.798 -1.08169 1.17352 0
M  V30 9702 C 886.998 -2.015 0.0022037 0
M  V30 9703 O 886.054 -2.43692 -0.661093 0
M  V30 9704 C 887.367 -1.68969 2.48737 0
M  V30 9705 C 888.915 -1.81278 2.55161 0
M  V30 9706 C 889.39 -2.45492 3.86649 0
M  V30 9707 N 890.881 -2.52954 3.88032 0
M  V30 9708 C 891.616 -3.03465 4.86515 0
M  V30 9709 N 891.112 -3.54232 5.95392 0
M  V30 9710 N 892.905 -3.02239 4.73928 0
M  V30 9711 H 885.056 -0.162757 2.11775 0
M  V30 9712 H 887.319 -0.134823 0.938364 0
M  V30 9713 H 887.025 -1.07859 3.34753 0
M  V30 9714 H 886.899 -2.68397 2.65034 0
M  V30 9715 H 889.286 -2.41524 1.69559 0
M  V30 9716 H 889.367 -0.806367 2.42758 0
M  V30 9717 H 889.011 -1.85889 4.7266 0
M  V30 9718 H 888.941 -3.46718 3.96351 0
M  V30 9719 H 891.432 -2.17014 3.09376 0
M  V30 9720 H 891.745 -3.91145 6.66503 0
M  V30 9721 H 890.09 -3.52366 5.99052 0
M  V30 9722 H 893.281 -2.61871 3.87996 0
M  V30 9723 H 893.454 -3.41295 5.50837 0
M  V30 9724 N 886.86 -1.21182 -1.00761 0
M  V30 9725 C 888.107 -1.02746 -1.74498 0
M  V30 9726 C 888.435 0.439344 -1.89473 0
M  V30 9727 O 887.69 1.34232 -1.42409 0
M  V30 9728 C 887.989 -1.6667 -3.16158 0
M  V30 9729 C 887.655 -3.16515 -3.21137 0
M  V30 9730 C 886.317 -3.57405 -3.22203 0
M  V30 9731 C 888.669 -4.12495 -3.18587 0
M  V30 9732 C 885.997 -4.92786 -3.18401 0
M  V30 9733 C 888.349 -5.47833 -3.16326 0
M  V30 9734 C 887.013 -5.88124 -3.157 0
M  V30 9735 H 886.283 -0.375974 -0.638533 0
M  V30 9736 H 888.93 -1.50736 -1.18114 0
M  V30 9737 H 887.235 -1.10966 -3.75758 0
M  V30 9738 H 888.932 -1.49911 -3.71924 0
M  V30 9739 H 885.522 -2.83947 -3.21048 0
M  V30 9740 H 889.706 -3.81932 -3.16925 0
M  V30 9741 H 884.962 -5.23253 -3.16253 0
M  V30 9742 H 889.136 -6.21942 -3.13306 0
M  V30 9743 H 886.763 -6.92995 -3.12508 0
M  V30 9744 N 888.338 1.20213 -1.01915 0
M  V30 9745 C 889.566 1.93622 -0.729255 0
M  V30 9746 C 889.981 1.74923 0.710444 0
M  V30 9747 O 889.338 1.06484 1.48214 0
M  V30 9748 C 889.389 3.45651 -1.05865 0
M  V30 9749 O 889.11 3.63741 -2.44181 0
M  V30 9750 C 890.611 4.36201 -0.790176 0
M  V30 9751 H 887.831 0.615333 -0.267594 0
M  V30 9752 H 890.375 1.52633 -1.36101 0
M  V30 9753 H 888.53 3.84511 -0.47225 0
M  V30 9754 H 888.944 4.57702 -2.56143 0
M  V30 9755 H 890.418 5.41516 -1.07071 0
M  V30 9756 H 890.895 4.38334 0.275609 0
M  V30 9757 H 891.501 4.03008 -1.35885 0
M  V30 9758 N 889.816 0.795718 1.36037 0
M  V30 9759 C 890.764 0.18649 2.31851 0
M  V30 9760 C 891.758 -0.657704 1.56111 0
M  V30 9761 O 892.964 -0.552083 1.71324 0
M  V30 9762 H 889.339 0.0415363 0.750852 0
M  V30 9763 H 891.31 1.00992 2.8079 0
M  V30 9764 C 890.059 -0.65918 3.41394 0
M  V30 9765 H 889.382 -0.01894 3.99796 0
M  V30 9766 H 890.822 -1.05202 4.10741 0
M  V30 9767 C 889.281 -1.82011 2.83502 0
M  V30 9768 O 889.811 -2.91703 2.76174 0
M  V30 9769 N 888.017 -1.62821 2.40703 0
M  V30 9770 H 887.564 -0.735965 2.46863 0
M  V30 9771 H 887.522 -2.40657 2.02316 0
M  V30 9772 N 891.294 -1.47756 0.548274 0
M  V30 9773 C 892.519 -2.07387 0.023475 0
M  V30 9774 C 892.944 -1.39956 -1.25674 0
M  V30 9775 O 892.302 -0.471543 -1.7506 0
M  V30 9776 C 892.35 -3.60224 -0.164669 0
M  V30 9777 O 891.454 -3.93653 -1.22928 0
M  V30 9778 H 890.795 -0.662312 0.0473156 0
M  V30 9779 H 893.325 -1.89905 0.761409 0
M  V30 9780 H 893.335 -4.06211 -0.38166 0
M  V30 9781 H 892.01 -4.08702 0.770425 0
M  V30 9782 H 890.587 -3.59422 -0.993495 0
M  V30 9783 N 892.772 -0.284283 -1.55015 0
M  V30 9784 C 893.682 0.60906 -2.26556 0
M  V30 9785 C 894.698 1.16246 -1.29472 0
M  V30 9786 O 895.874 1.1908 -1.62425 0
M  V30 9787 C 892.939 1.77246 -2.97968 0
M  V30 9788 C 892 1.25482 -4.10552 0
M  V30 9789 C 891.233 2.36277 -4.78549 0
M  V30 9790 O 891.456 3.55829 -4.45805 0
M  V30 9791 O 890.39 2.03914 -5.66306 0
M  V30 9792 H 894.216 0.0292298 -3.03686 0
M  V30 9793 H 891.801 -0.0513466 -1.49312 0
M  V30 9794 H 893.683 2.45062 -3.42815 0
M  V30 9795 H 892.358 2.33921 -2.23747 0
M  V30 9796 H 891.265 0.542859 -3.7014 0
M  V30 9797 H 892.598 0.733708 -4.86701 0
M  V30 9798 N 894.251 1.57596 -0.0117121 0
M  V30 9799 C 895.479 1.9536 0.681334 0
M  V30 9800 C 895.894 0.887255 1.66653 0
M  V30 9801 O 895.251 -0.132692 1.82017 0
M  V30 9802 C 895.302 3.33165 1.40298 0
M  V30 9803 O 895.023 4.35707 0.45728 0
M  V30 9804 C 896.524 3.85458 2.18946 0
M  V30 9805 H 893.744 0.643826 0.189023 0
M  V30 9806 H 896.288 2.04392 -0.066311 0
M  V30 9807 H 894.443 3.25404 2.10216 0
M  V30 9808 H 894.857 5.15495 0.96773 0
M  V30 9809 H 896.331 4.84275 2.64918 0
M  V30 9810 H 896.808 3.18781 3.02118 0
M  V30 9811 H 897.414 3.96431 1.5402 0
M  V30 9812 N 895.729 -0.261212 1.5542 0
M  V30 9813 C 896.692 -1.30645 1.8832 0
M  V30 9814 C 897.692 -1.41782 0.758588 0
M  V30 9815 O 898.882 -1.40729 1.02669 0
M  V30 9816 C 896.014 -2.6862 2.09895 0
M  V30 9817 H 897.207 -1.02698 2.81768 0
M  V30 9818 H 894.76 -0.499838 1.48092 0
M  V30 9819 H 895.495 -3.0173 1.18868 0
M  V30 9820 H 895.28 -2.61921 2.91787 0
M  V30 9821 H 896.77 -3.44121 2.36581 0
M  V30 9822 N 897.207 -1.48554 -0.526253 0
M  V30 9823 C 898.117 -1.66044 -1.65731 0
M  V30 9824 C 899.133 -0.542951 -1.65312 0
M  V30 9825 O 900.309 -0.814495 -1.84195 0
M  V30 9826 C 897.374 -1.69959 -3.02184 0
M  V30 9827 C 896.435 -2.93362 -3.13428 0
M  V30 9828 C 895.668 -2.97081 -4.43372 0
M  V30 9829 O 895.891 -2.09103 -5.3069 0
M  V30 9830 O 894.825 -3.8929 -4.59061 0
M  V30 9831 H 898.651 -2.61811 -1.53912 0
M  V30 9832 H 896.236 -1.31999 -0.699759 0
M  V30 9833 H 898.118 -1.75033 -3.83329 0
M  V30 9834 H 896.793 -0.773658 -3.14319 0
M  V30 9835 H 895.7 -2.93818 -2.31564 0
M  V30 9836 H 897.033 -3.85352 -3.06211 0
M  V30 9837 N 898.685 0.775411 -1.37205 0
M  V30 9838 C 899.635 1.87867 -1.29189 0
M  V30 9839 C 900.619 1.59885 -0.180466 0
M  V30 9840 O 901.811 1.72077 -0.414536 0
M  V30 9841 C 898.94 3.25285 -1.09748 0
M  V30 9842 C 898.026 3.59231 -2.25419 0
M  V30 9843 N 898.417 3.64386 -3.50795 0
M  V30 9844 C 896.715 3.89375 -2.17492 0
M  V30 9845 C 897.416 3.94974 -4.27048 0
M  V30 9846 N 896.392 4.10684 -3.56146 0
M  V30 9847 H 900.194 1.90099 -2.24142 0
M  V30 9848 H 897.708 0.971667 -1.30125 0
M  V30 9849 H 899.705 4.04207 -1.02091 0
M  V30 9850 H 898.365 3.2432 -0.157083 0
M  V30 9851 H 899.376 3.46682 -3.8475 0
M  V30 9852 H 896.053 3.96254 -1.31489 0
M  V30 9853 H 897.443 4.05768 -5.35539 0
M  V30 9854 N 900.163 1.21714 1.00117 0
M  V30 9855 C 901.412 1.03087 1.73367 0
M  V30 9856 C 901.725 -0.435532 1.90689 0
M  V30 9857 O 902.931 -0.741291 2.61184 0
M  V30 9858 C 901.387 1.79593 3.11888 0
M  V30 9859 C 900.995 3.30428 3.02525 0
M  V30 9860 C 902.739 1.69386 3.89241 0
M  V30 9861 C 900.646 3.99408 4.3615 0
M  V30 9862 H 899.576 0.382117 0.650002 0
M  V30 9863 H 902.227 1.45486 1.11831 0
M  V30 9864 H 900.609 1.29988 3.74058 0
M  V30 9865 H 901.783 3.87364 2.49571 0
M  V30 9866 H 900.098 3.4122 2.38659 0
M  V30 9867 H 902.695 2.18251 4.8813 0
M  V30 9868 H 903.038 0.652773 4.1115 0
M  V30 9869 H 903.571 2.16489 3.33733 0
M  V30 9870 H 900.31 5.03735 4.19442 0
M  V30 9871 H 899.83 3.47261 4.8905 0
M  V30 9872 H 901.509 4.04537 5.04934 0
M  V30 9873 N 901.641 -1.19671 1.02551 0
M  V30 9874 C 902.604 -2.20987 0.608055 0
M  V30 9875 C 903.604 -1.5745 -0.326534 0
M  V30 9876 O 904.794 -1.73827 -0.114003 0
M  V30 9877 C 901.926 -3.4072 -0.11074 0
M  V30 9878 H 903.119 -2.59434 1.50446 0
M  V30 9879 H 900.672 -1.3329 0.816307 0
M  V30 9880 H 901.407 -3.07787 -1.02165 0
M  V30 9881 H 901.192 -3.88069 0.560772 0
M  V30 9882 H 902.682 -4.15776 -0.389848 0
M  V30 9883 N 903.119 -0.802921 -1.35613 0
M  V30 9884 C 904.051 -0.168461 -2.2858 0
M  V30 9885 C 905.064 0.630123 -1.50111 0
M  V30 9886 O 906.253 0.463086 -1.72388 0
M  V30 9887 C 903.353 0.783943 -3.29708 0
M  V30 9888 C 902.526 0.0325165 -4.37388 0
M  V30 9889 C 901.585 0.902859 -5.18396 0
M  V30 9890 O 900.611 0.355144 -5.68091 0
M  V30 9891 N 901.813 2.22542 -5.36149 0
M  V30 9892 H 904.578 -0.96709 -2.83668 0
M  V30 9893 H 902.139 -0.658043 -1.47924 0
M  V30 9894 H 904.131 1.37034 -3.80794 0
M  V30 9895 H 902.701 1.48339 -2.75162 0
M  V30 9896 H 901.921 -0.735057 -3.87286 0
M  V30 9897 H 903.209 -0.485499 -5.06478 0
M  V30 9898 H 902.607 2.69439 -4.97412 0
M  V30 9899 H 901.164 2.76113 -5.90428 0
M  V30 9900 N 904.597 1.47463 -0.556102 0
M  V30 9901 C 905.845 2.02075 -0.0315712 0
M  V30 9902 C 906.166 1.43292 1.32259 0
M  V30 9903 O 905.436 0.60771 1.86236 0
M  V30 9904 H 904.016 0.74695 -0.0086816 0
M  V30 9905 H 906.678 1.80879 -0.725859 0
M  V30 9906 H 905.774 3.12047 0.0573538 0
M  V30 9907 N 906.075 0.2925 1.54862 0
M  V30 9908 C 907.005 -0.580677 2.26165 0
M  V30 9909 C 907.986 -1.14485 1.25806 0
M  V30 9910 O 909.171 -1.17577 1.54562 0
M  V30 9911 C 906.301 -1.75668 2.99596 0
M  V30 9912 C 905.255 -1.32325 4.07031 0
M  V30 9913 C 904.581 -2.58374 4.68131 0
M  V30 9914 C 905.881 -0.460703 5.20264 0
M  V30 9915 H 907.575 0.0140075 2.99397 0
M  V30 9916 H 905.121 0.00817706 1.43998 0
M  V30 9917 H 907.074 -2.37356 3.48195 0
M  V30 9918 H 905.798 -2.37747 2.23928 0
M  V30 9919 H 904.457 -0.729477 3.59269 0
M  V30 9920 H 904.105 -3.18749 3.89112 0
M  V30 9921 H 903.805 -2.30078 5.40683 0
M  V30 9922 H 905.329 -3.2088 5.19489 0
M  V30 9923 H 906.743 -0.983037 5.64809 0
M  V30 9924 H 905.14 -0.271881 5.99484 0
M  V30 9925 H 906.21 0.516304 4.82143 0
M  V30 9926 N 907.553 -1.57587 0.0200696 0
M  V30 9927 C 908.969 -1.56018 -0.336237 0
M  V30 9928 C 909.169 -1.02478 -1.73495 0
M  V30 9929 O 908.225 -0.667487 -2.43518 0
M  V30 9930 C 909.538 -3.00079 -0.193112 0
M  V30 9931 C 911.086 -3.11863 -0.266557 0
M  V30 9932 C 911.561 -4.57747 -0.152326 0
M  V30 9933 N 913.052 -4.62726 -0.209596 0
M  V30 9934 C 913.787 -5.73217 -0.144855 0
M  V30 9935 N 913.283 -6.92794 -0.0295487 0
M  V30 9936 N 915.076 -5.61751 -0.198184 0
M  V30 9937 H 907.227 -1.90722 0.93482 0
M  V30 9938 H 909.49 -0.876909 0.360186 0
M  V30 9939 H 909.196 -3.43167 0.770036 0
M  V30 9940 H 909.07 -3.64593 -0.967029 0
M  V30 9941 H 911.457 -2.68693 -1.22016 0
M  V30 9942 H 911.538 -2.50087 0.53758 0
M  V30 9943 H 911.182 -5.01595 0.797817 0
M  V30 9944 H 911.112 -5.17491 -0.97521 0
M  V30 9945 H 913.603 -3.76713 -0.299229 0
M  V30 9946 H 913.916 -7.72799 0.0134071 0
M  V30 9947 H 912.261 -6.95 0.00510737 0
M  V30 9948 H 915.452 -4.67222 -0.286603 0
M  V30 9949 H 915.625 -6.47839 -0.144266 0
M  V30 9950 N 909.032 0.252966 -1.55557 0
M  V30 9951 C 909.962 1.31691 -1.9282 0
M  V30 9952 C 910.943 1.50516 -0.7924 0
M  V30 9953 O 912.128 1.63225 -1.05219 0
M  V30 9954 C 909.258 2.67281 -2.21762 0
M  V30 9955 C 908.212 2.6316 -3.37536 0
M  V30 9956 C 907.538 4.02488 -3.52005 0
M  V30 9957 C 908.838 2.20675 -4.73392 0
M  V30 9958 H 910.532 1.00751 -2.81939 0
M  V30 9959 H 908.078 0.483219 -1.3565 0
M  V30 9960 H 910.031 3.41842 -2.46419 0
M  V30 9961 H 908.755 2.99845 -1.29463 0
M  V30 9962 H 907.414 1.91057 -3.12878 0
M  V30 9963 H 907.062 4.32307 -2.57137 0
M  V30 9964 H 906.762 4.00621 -4.29857 0
M  V30 9965 H 908.286 4.78758 -3.78977 0
M  V30 9966 H 909.7 2.84965 -4.97461 0
M  V30 9967 H 908.097 2.29931 -5.54303 0
M  V30 9968 H 909.167 1.15831 -4.70862 0
M  V30 9969 N 910.51 1.48831 0.518367 0
M  V30 9970 C 911.74 1.60886 1.29612 0
M  V30 9971 C 912.148 0.272713 1.87224 0
M  V30 9972 O 911.491 -0.749653 1.67708 0
M  V30 9973 C 911.553 2.60541 2.47707 0
M  V30 9974 C 911.217 4.05324 2.11095 0
M  V30 9975 C 912.214 4.92658 1.66084 0
M  V30 9976 C 909.899 4.50942 2.21262 0
M  V30 9977 C 911.893 6.23641 1.3172 0
M  V30 9978 C 909.58 5.81943 1.8651 0
M  V30 9979 C 910.578 6.68116 1.41812 0
M  V30 9980 O 910.266 7.96677 1.07522 0
M  V30 9981 H 909.998 0.544968 0.399982 0
M  V30 9982 H 912.552 1.95474 0.630799 0
M  V30 9983 H 910.782 2.21098 3.17258 0
M  V30 9984 H 912.471 2.62308 3.09757 0
M  V30 9985 H 913.237 4.58649 1.5769 0
M  V30 9986 H 909.116 3.84048 2.55007 0
M  V30 9987 H 912.66 6.90857 0.967598 0
M  V30 9988 H 908.557 6.15484 1.94549 0
M  V30 9989 H 909.325 8.09534 1.2082 0
M  V30 9990 N 911.988 -0.768124 1.37614 0
M  V30 9991 C 913.404 -1.06919 1.18493 0
M  V30 9992 C 913.604 -2.01486 0.0235753 0
M  V30 9993 O 912.66 -2.4438 -0.635209 0
M  V30 9994 C 913.973 -1.66321 2.50515 0
M  V30 9995 C 915.521 -1.78562 2.57069 0
M  V30 9996 C 915.996 -2.41377 3.89231 0
M  V30 9997 N 917.487 -2.48824 3.90693 0
M  V30 9998 C 918.222 -2.98288 4.89706 0
M  V30 9999 N 917.718 -3.47897 5.99115 0
M  V30 10000 N 919.511 -2.97196 4.77107 0
M  V30 10001 H 911.662 -0.140286 2.11936 0
M  V30 10002 H 913.925 -0.124863 0.939741 0
M  V30 10003 H 913.631 -1.04303 3.35878 0
M  V30 10004 H 913.505 -2.65571 2.67866 0
M  V30 10005 H 915.892 -2.39712 1.72111 0
M  V30 10006 H 915.973 -0.780574 2.43599 0
M  V30 10007 H 915.617 -1.80866 4.74605 0
M  V30 10008 H 915.547 -3.42495 4.00006 0
M  V30 10009 H 918.038 -2.1372 3.1166 0
M  V30 10010 H 918.351 -3.84053 6.70614 0
M  V30 10011 H 916.696 -3.45993 6.02755 0
M  V30 10012 H 919.887 -2.57741 3.90752 0
M  V30 10013 H 920.06 -3.35434 5.54426 0
M  V30 10014 N 913.466 -1.22244 -0.994698 0
M  V30 10015 C 914.877 -1.043 -1.5485 0
M  V30 10016 C 915.228 0.394102 -1.92201 0
M  V30 10017 O 914.353 1.27883 -1.74571 0
M  V30 10018 C 914.948 -1.88708 -2.8138 0
M  V30 10019 C 913.507 -1.75067 -3.3321 0
M  V30 10020 C 912.654 -1.85286 -2.06312 0
M  V30 10021 H 915.605 -1.36115 -0.815988 0
M  V30 10022 H 915.626 -1.40342 -3.53673 0
M  V30 10023 H 915.138 -2.93296 -2.54164 0
M  V30 10024 H 913.239 -0.732047 -3.65338 0
M  V30 10025 H 913.352 -2.57632 -4.03934 0
M  V30 10026 H 911.716 -1.28706 -2.19788 0
M  V30 10027 H 912.499 -2.91401 -1.81494 0
M  V30 10028 N 914.944 1.19125 -1.03184 0
M  V30 10029 C 915.894 2.20348 -0.585731 0
M  V30 10030 C 916.878 1.56656 0.367109 0
M  V30 10031 O 918.07 1.76003 0.187598 0
M  V30 10032 C 915.199 3.43249 0.0590006 0
M  V30 10033 C 914.285 4.1408 -0.916457 0
M  V30 10034 N 914.676 4.61051 -2.08005 0
M  V30 10035 C 912.974 4.39809 -0.74054 0
M  V30 10036 C 913.675 5.15477 -2.69552 0
M  V30 10037 N 912.651 5.06456 -1.97493 0
M  V30 10038 H 916.453 2.54346 -1.47259 0
M  V30 10039 H 913.967 1.35232 -0.899225 0
M  V30 10040 H 915.964 4.15013 0.396236 0
M  V30 10041 H 914.624 3.1075 0.941507 0
M  V30 10042 H 915.635 4.55782 -2.45934 0
M  V30 10043 H 912.312 4.17397 0.0926238 0
M  V30 10044 H 913.702 5.62088 -3.68112 0
M  V30 10045 N 916.422 0.810101 1.35185 0
M  V30 10046 C 917.352 0.237453 2.32289 0
M  V30 10047 C 918.333 -0.639032 1.5764 0
M  V30 10048 O 919.518 -0.568575 1.8569 0
M  V30 10049 C 916.648 -0.611964 3.41866 0
M  V30 10050 C 915.602 0.166318 4.27677 0
M  V30 10051 C 914.928 -0.805024 5.28605 0
M  V30 10052 C 916.228 1.36729 5.04086 0
M  V30 10053 H 917.922 1.04874 2.80432 0
M  V30 10054 H 915.468 0.505751 1.34826 0
M  V30 10055 H 917.421 -1.02267 4.08802 0
M  V30 10056 H 916.145 -1.45617 2.92341 0
M  V30 10057 H 914.804 0.558238 3.62325 0
M  V30 10058 H 914.452 -1.64483 4.75347 0
M  V30 10059 H 914.152 -0.288577 5.86891 0
M  V30 10060 H 915.676 -1.21386 5.98413 0
M  V30 10061 H 917.09 1.03128 5.63948 0
M  V30 10062 H 915.487 1.81848 5.71884 0
M  V30 10063 H 916.557 2.15214 4.34524 0
M  V30 10064 N 917.9 -1.47166 0.563914 0
M  V30 10065 C 918.863 -2.28571 -0.169624 0
M  V30 10066 C 919.863 -1.37331 -0.836467 0
M  V30 10067 O 921.053 -1.59896 -0.6913 0
M  V30 10068 C 918.185 -3.17201 -1.24886 0
M  V30 10069 H 919.378 -2.94896 0.545539 0
M  V30 10070 H 916.931 -1.52966 0.321121 0
M  V30 10071 H 917.666 -2.55582 -1.99621 0
M  V30 10072 H 917.451 -3.84356 -0.775426 0
M  V30 10073 H 918.941 -3.7852 -1.76388 0
M  V30 10074 N 919.378 -0.300708 -1.54705 0
M  V30 10075 C 920.603 0.314073 -2.05008 0
M  V30 10076 C 921.028 1.46759 -1.17657 0
M  V30 10077 O 920.386 1.80398 -0.180598 0
M  V30 10078 C 920.434 0.748243 -3.52752 0
M  V30 10079 O 919.538 1.85305 -3.68424 0
M  V30 10080 H 918.879 0.0610139 -0.661191 0
M  V30 10081 H 921.409 -0.442467 -1.99758 0
M  V30 10082 H 921.419 1.03713 -3.94598 0
M  V30 10083 H 920.094 -0.095573 -4.1579 0
M  V30 10084 H 918.671 1.56473 -3.38483 0
M  V30 10085 N 920.856 1.57574 -0.0284266 0
M  V30 10086 C 921.766 2.13637 0.96936 0
M  V30 10087 C 922.782 1.08845 1.35752 0
M  V30 10088 O 923.958 1.40899 1.43908 0
M  V30 10089 C 921.023 2.65179 2.2334 0
M  V30 10090 C 920.084 3.84683 1.90572 0
M  V30 10091 C 919.317 4.33758 3.1095 0
M  V30 10092 O 919.54 3.82009 4.23586 0
M  V30 10093 O 918.474 5.2561 2.93288 0
M  V30 10094 H 922.3 2.99169 0.52267 0
M  V30 10095 H 919.885 1.48159 0.192135 0
M  V30 10096 H 921.767 2.98402 2.97547 0
M  V30 10097 H 920.442 1.82731 2.67191 0
M  V30 10098 H 919.349 3.56386 1.13753 0
M  V30 10099 H 920.682 4.68292 1.51538 0
M  V30 10100 N 922.334 -0.244713 1.55689 0
M  V30 10101 C 923.281 -1.30301 1.905 0
M  V30 10102 C 924.251 -1.4772 0.759478 0
M  V30 10103 O 925.436 -1.61667 1.01333 0
M  V30 10104 C 922.576 -2.653 2.20703 0
M  V30 10105 C 921.689 -2.55872 3.48071 0
M  V30 10106 C 920.824 -3.83238 3.67834 0
M  V30 10107 C 919.863 -3.68436 4.88796 0
M  V30 10108 N 919 -4.877 5.05068 0
M  V30 10109 H 923.84 -0.999143 2.80751 0
M  V30 10110 H 921.377 -0.482099 1.38976 0
M  V30 10111 H 923.335 -3.43884 2.36219 0
M  V30 10112 H 921.965 -2.93831 1.33653 0
M  V30 10113 H 921.017 -1.68846 3.40874 0
M  V30 10114 H 922.329 -2.40845 4.36801 0
M  V30 10115 H 921.483 -4.70266 3.83321 0
M  V30 10116 H 920.222 -4.01165 2.77341 0
M  V30 10117 H 919.227 -2.79793 4.73282 0
M  V30 10118 H 920.452 -3.52003 5.8075 0
M  V30 10119 H 918.398 -5.05983 4.17513 0
M  V30 10120 H 918.315 -4.75312 5.8789 0
M  V30 10121 H 919.583 -5.76219 5.24969 0
M  V30 10122 N 923.813 -1.49104 -0.510467 0
M  V30 10123 C 925.059 -1.58346 -1.26705 0
M  V30 10124 C 925.392 -0.265121 -1.92382 0
M  V30 10125 O 924.667 0.730558 -1.80258 0
M  V30 10126 C 924.95 -2.7359 -2.34137 0
M  V30 10127 C 924.803 -4.1519 -1.73024 0
M  V30 10128 C 926.122 -2.84511 -3.3577 0
M  V30 10129 H 923.241 -0.57637 -0.459311 0
M  V30 10130 H 925.883 -1.81353 -0.566658 0
M  V30 10131 H 924.033 -2.54105 -2.93876 0
M  V30 10132 H 925.705 -4.46167 -1.17186 0
M  V30 10133 H 923.948 -4.21279 -1.03473 0
M  V30 10134 H 924.619 -4.91683 -2.50903 0
M  V30 10135 H 927.095 -3.0222 -2.86011 0
M  V30 10136 H 925.971 -3.6684 -4.08313 0
M  V30 10137 H 926.232 -1.93471 -3.97519 0
M  V30 10138 N 925.291 0.760815 -1.38019 0
M  V30 10139 C 926.521 1.54776 -1.3685 0
M  V30 10140 C 926.929 1.89146 0.0453971 0
M  V30 10141 O 926.272 1.52746 1.0205 0
M  V30 10142 C 926.334 2.87923 -2.15269 0
M  V30 10143 C 925.998 2.76131 -3.64144 0
M  V30 10144 C 926.995 2.46417 -4.57794 0
M  V30 10145 C 924.68 2.9381 -4.07408 0
M  V30 10146 C 926.674 2.34525 -5.92686 0
M  V30 10147 C 924.361 2.81539 -5.42383 0
M  V30 10148 C 925.359 2.51938 -6.34836 0
M  V30 10149 O 925.047 2.39713 -7.67329 0
M  V30 10150 H 924.779 0.485776 -0.470104 0
M  V30 10151 H 927.333 0.949939 -1.82113 0
M  V30 10152 H 925.563 3.49867 -1.64712 0
M  V30 10153 H 927.252 3.49389 -2.06596 0
M  V30 10154 H 928.018 2.32433 -4.25676 0
M  V30 10155 H 923.897 3.15849 -3.35799 0
M  V30 10156 H 927.441 2.11342 -6.64816 0
M  V30 10157 H 923.338 2.95093 -5.741 0
M  V30 10158 H 924.106 2.5498 -7.77771 0
M  V30 10159 N 926.769 1.22769 0.988202 0
M  V30 10160 C 927.997 1.08155 1.76381 0
M  V30 10161 C 928.412 -0.367573 1.85187 0
M  V30 10162 O 927.769 -1.25455 1.32541 0
M  V30 10163 C 927.82 1.69193 3.19462 0
M  V30 10164 O 927.541 3.08437 3.11125 0
M  V30 10165 C 929.042 1.59915 4.13451 0
M  V30 10166 H 926.262 0.378908 0.553778 0
M  V30 10167 H 928.806 1.6246 1.24206 0
M  V30 10168 H 926.961 1.18939 3.6869 0
M  V30 10169 H 927.375 3.37916 4.0114 0
M  V30 10170 H 928.849 2.07339 5.1158 0
M  V30 10171 H 929.326 0.556546 4.3566 0
M  V30 10172 H 929.932 2.09497 3.70123 0
M  V30 10173 N 928.247 -1.18576 1.03814 0
M  V30 10174 C 929.496 -1.87822 0.735235 0
M  V30 10175 C 929.809 -1.81069 -0.739819 0
M  V30 10176 O 931.015 -2.45654 -1.15614 0
M  V30 10177 C 929.471 -3.36941 1.26486 0
M  V30 10178 C 929.079 -3.5223 2.76836 0
M  V30 10179 C 930.823 -4.11604 1.03836 0
M  V30 10180 C 928.73 -4.95294 3.23169 0
M  V30 10181 H 927.66 -0.703487 0.271333 0
M  V30 10182 H 930.311 -1.34 1.25365 0
M  V30 10183 H 928.693 -3.90217 0.674318 0
M  V30 10184 H 929.867 -3.09239 3.41625 0
M  V30 10185 H 928.182 -2.90969 2.97869 0
M  V30 10186 H 930.779 -5.17123 1.3597 0
M  V30 10187 H 931.122 -4.16293 -0.0244945 0
M  V30 10188 H 931.655 -3.64494 1.59338 0
M  V30 10189 H 928.394 -4.95772 4.28824 0
M  V30 10190 H 927.914 -5.3901 2.63113 0
M  V30 10191 H 929.593 -5.63996 3.17045 0
M  V30 10192 N 929.725 -0.817259 -1.34754 0
M  V30 10193 C 930.658 -0.180483 -2.27485 0
M  V30 10194 C 931.636 0.659792 -1.48612 0
M  V30 10195 O 932.82 0.624761 -1.77845 0
M  V30 10196 C 929.947 0.748487 -3.30326 0
M  V30 10197 C 928.993 -0.0135304 -4.26498 0
M  V30 10198 S 929.826 -1.35685 -5.18025 0
M  V30 10199 C 930.982 -0.432605 -6.24403 0
M  V30 10200 H 931.215 -0.966677 -2.81145 0
M  V30 10201 H 928.748 -0.612864 -1.41716 0
M  V30 10202 H 930.706 1.27893 -3.90069 0
M  V30 10203 H 929.367 1.50816 -2.75524 0
M  V30 10204 H 928.56 0.692454 -4.9922 0
M  V30 10205 H 928.162 -0.474344 -3.7098 0
M  V30 10206 H 930.454 0.378035 -6.76444 0
M  V30 10207 H 931.397 -1.12934 -6.99036 0
M  V30 10208 H 931.805 -0.0235533 -5.64495 0
M  V30 10209 N 931.203 1.46865 -0.571711 0
M  V30 10210 C 932.433 2.06518 -0.0583129 0
M  V30 10211 C 932.841 1.4227 1.24723 0
M  V30 10212 O 932.184 0.518293 1.76237 0
M  V30 10213 C 932.246 3.5898 0.193214 0
M  V30 10214 C 931.91 4.45355 -1.02507 0
M  V30 10215 C 932.907 4.82575 -1.93435 0
M  V30 10216 C 930.592 4.86656 -1.24382 0
M  V30 10217 C 932.586 5.59912 -3.04595 0
M  V30 10218 C 930.273 5.63754 -2.35849 0
M  V30 10219 C 931.271 6.00294 -3.25785 0
M  V30 10220 O 930.959 6.75836 -4.35318 0
M  V30 10221 H 930.691 0.674188 -0.0494584 0
M  V30 10222 H 933.245 1.89644 -0.788934 0
M  V30 10223 H 931.475 3.7412 0.978319 0
M  V30 10224 H 933.164 4.006 0.653769 0
M  V30 10225 H 933.93 4.51256 -1.77745 0
M  V30 10226 H 929.809 4.57672 -0.55292 0
M  V30 10227 H 933.353 5.88351 -3.74818 0
M  V30 10228 H 929.25 5.94487 -2.51506 0
M  V30 10229 H 930.018 6.94247 -4.33547 0
M  V30 10230 N 932.681 0.308908 1.54543 0
M  V30 10231 C 933.906 -0.303196 2.05172 0
M  V30 10232 C 934.331 -1.46133 1.18434 0
M  V30 10233 O 933.689 -1.803 0.190162 0
M  V30 10234 C 933.737 -0.729526 3.53143 0
M  V30 10235 O 932.841 -1.83348 3.69401 0
M  V30 10236 H 932.182 -0.0575066 0.661505 0
M  V30 10237 H 934.712 0.453055 1.99521 0
M  V30 10238 H 934.722 -1.01619 3.95143 0
M  V30 10239 H 933.397 0.117622 4.15734 0
M  V30 10240 H 931.974 -1.54676 3.39308 0
M  V30 10241 N 934.159 -1.57557 0.0367827 0
M  V30 10242 C 935.399 -1.93981 -0.644252 0
M  V30 10243 C 935.763 -0.913982 -1.6885 0
M  V30 10244 O 936.964 -1.16468 -2.42257 0
M  V30 10245 C 935.235 -3.35281 -1.23779 0
M  V30 10246 S 936.794 -3.93643 -1.93883 0
M  V30 10247 H 933.612 -0.678683 -0.21192 0
M  V30 10248 H 936.214 -1.95232 0.102281 0
M  V30 10249 H 934.918 -4.07752 -0.465451 0
M  V30 10250 H 934.449 -3.37492 -2.02146 0
M  V30 10251 H 936.464 -3.777 -3.21803 0
M  V30 10252 N 935.637 0.236453 -1.55816 0
M  V30 10253 C 936.883 0.960127 -1.79313 0
M  V30 10254 C 937.238 1.8256 -0.607406 0
M  V30 10255 O 936.531 1.87398 0.399046 0
M  V30 10256 C 936.725 1.84549 -3.06066 0
M  V30 10257 C 936.554 1.06721 -4.36853 0
M  V30 10258 C 935.324 0.76811 -4.99428 0
M  V30 10259 C 937.522 0.439715 -5.12417 0
M  V30 10260 N 935.504 -0.0331365 -6.13891 0
M  V30 10261 C 936.875 -0.225616 -6.19589 0
M  V30 10262 C 938.93 0.351237 -4.9666 0
M  V30 10263 C 937.633 -0.970943 -7.12717 0
M  V30 10264 C 939.659 -0.380585 -5.90174 0
M  V30 10265 C 939.021 -1.03451 -6.96762 0
M  V30 10266 H 935.12 0.332095 -0.707981 0
M  V30 10267 H 937.704 0.232311 -1.93309 0
M  V30 10268 H 935.875 2.54525 -2.93379 0
M  V30 10269 H 937.607 2.50552 -3.17814 0
M  V30 10270 H 934.362 1.08248 -4.61063 0
M  V30 10271 H 934.786 -0.422159 -6.75682 0
M  V30 10272 H 939.428 0.842469 -4.14321 0
M  V30 10273 H 937.146 -1.47374 -7.94548 0
M  V30 10274 H 940.732 -0.449851 -5.80058 0
M  V30 10275 H 939.612 -1.59175 -7.67876 0
M  V30 10276 N 937.115 1.49373 0.502552 0
M  V30 10277 C 938.065 1.62321 1.60112 0
M  V30 10278 C 939.049 0.47895 1.53606 0
M  V30 10279 O 940.241 0.731824 1.61162 0
M  V30 10280 C 937.37 1.69162 2.98729 0
M  V30 10281 C 936.456 2.89161 3.10237 0
M  V30 10282 N 936.847 4.13256 2.91638 0
M  V30 10283 C 935.145 2.87065 3.41335 0
M  V30 10284 C 935.846 4.93913 3.07287 0
M  V30 10285 N 934.822 4.27249 3.36094 0
M  V30 10286 H 938.624 2.55989 1.44384 0
M  V30 10287 H 936.138 1.46123 0.708644 0
M  V30 10288 H 938.135 1.76536 3.77678 0
M  V30 10289 H 936.795 0.766301 3.15528 0
M  V30 10290 H 937.806 4.4326 2.67844 0
M  V30 10291 H 934.483 2.03905 3.6432 0
M  V30 10292 H 935.873 6.02491 2.97413 0
M  V30 10293 N 938.594 -0.753485 1.38421 0
M  V30 10294 C 939.504 -1.89797 1.37892 0
M  V30 10295 C 940.52 -1.71797 0.276023 0
M  V30 10296 O 941.696 -1.94718 0.514464 0
M  V30 10297 C 938.761 -3.25166 1.20284 0
M  V30 10298 C 937.822 -3.55691 2.4038 0
M  V30 10299 C 937.055 -4.84601 2.23602 0
M  V30 10300 O 937.278 -5.56985 1.22979 0
M  V30 10301 O 936.212 -5.14605 3.12194 0
M  V30 10302 H 940.038 -1.93197 2.34326 0
M  V30 10303 H 937.623 -0.898775 1.19342 0
M  V30 10304 H 939.505 -4.06099 1.12525 0
M  V30 10305 H 938.18 -3.22577 0.269352 0
M  V30 10306 H 937.087 -2.74919 2.53714 0
M  V30 10307 H 938.42 -3.6304 3.32359 0
M  V30 10308 N 940.072 -1.23292 -0.981677 0
M  V30 10309 C 941.019 -1.01296 -2.07383 0
M  V30 10310 C 941.989 0.069139 -1.65956 0
M  V30 10311 O 943.174 -0.0827108 -1.90621 0
M  V30 10312 C 940.314 -0.608876 -3.39686 0
M  V30 10313 C 939.427 -1.76296 -3.9439 0
M  V30 10314 C 938.562 -1.30578 -5.14901 0
M  V30 10315 C 937.601 -2.4307 -5.61768 0
M  V30 10316 N 936.738 -1.98319 -6.73509 0
M  V30 10317 H 941.578 -1.9478 -2.25532 0
M  V30 10318 H 939.115 -0.970356 -1.10555 0
M  V30 10319 H 941.073 -0.355702 -4.15681 0
M  V30 10320 H 939.703 0.288961 -3.21504 0
M  V30 10321 H 938.755 -2.13017 -3.15163 0
M  V30 10322 H 940.067 -2.60871 -4.25145 0
M  V30 10323 H 939.221 -1.01066 -5.98223 0
M  V30 10324 H 937.96 -0.430386 -4.85797 0
M  V30 10325 H 936.965 -2.73358 -4.77028 0
M  V30 10326 H 938.19 -3.31144 -5.92892 0
M  V30 10327 H 936.136 -1.13157 -6.46167 0
M  V30 10328 H 936.053 -2.76454 -7.0364 0
M  V30 10329 H 937.321 -1.71907 -7.60308 0
M  V30 10330 N 941.55 1.18024 -1.04442 0
M  V30 10331 C 942.513 2.19992 -0.643136 0
M  V30 10332 C 943.513 1.57949 0.301444 0
M  V30 10333 O 944.703 1.73986 0.0863341 0
M  V30 10334 C 941.835 3.40853 0.0565208 0
M  V30 10335 H 943.028 2.57008 -1.54554 0
M  V30 10336 H 940.581 1.31974 -0.837408 0
M  V30 10337 H 941.316 3.09373 0.972553 0
M  V30 10338 H 941.101 3.87128 -0.622439 0
M  V30 10339 H 942.591 4.16344 0.323652 0
M  V30 10340 N 943.028 0.824394 1.34319 0
M  V30 10341 C 944.305 0.335692 1.92698 0
M  V30 10342 C 944.685 -1.17715 1.75232 0
M  V30 10343 O 944.033 -1.98493 1.13194 0
M  V30 10344 C 944.243 0.766647 3.40475 0
M  V30 10345 C 945.591 0.766323 4.17627 0
M  V30 10346 O 946.615 0.709321 3.49066 0
M  V30 10347 O 945.474 0.840856 5.39992 0
M  V30 10348 H 942.568 0.0919996 0.821867 0
M  V30 10349 H 945.114 0.909282 1.43283 0
M  V30 10350 H 943.886 1.80859 3.46995 0
M  V30 10351 H 943.509 0.168833 3.97241 0
M  V30 10352 N 944.506 -1.46559 0.579492 0
M  V30 10353 C 945.416 -2.34066 -0.15816 0
M  V30 10354 C 946.432 -1.49556 -0.88932 0
M  V30 10355 O 947.608 -1.82434 -0.853226 0
M  V30 10356 C 944.673 -3.26683 -1.161 0
M  V30 10357 C 943.734 -4.27092 -0.434855 0
M  V30 10358 C 942.967 -5.15283 -1.38992 0
M  V30 10359 O 943.19 -5.06345 -2.62623 0
M  V30 10360 O 942.124 -5.95099 -0.902253 0
M  V30 10361 H 945.95 -2.98488 0.560234 0
M  V30 10362 H 943.535 -1.45482 0.339918 0
M  V30 10363 H 945.417 -3.8383 -1.73932 0
M  V30 10364 H 944.092 -2.64862 -1.86091 0
M  V30 10365 H 942.999 -3.73641 0.185224 0
M  V30 10366 H 944.332 -4.9169 0.224031 0
M  V30 10367 N 945.984 -0.3171 -1.54377 0
M  V30 10368 C 947.4 0.035766 -1.5956 0
M  V30 10369 C 947.6 1.51038 -1.33378 0
M  V30 10370 O 946.656 2.26546 -1.11505 0
M  V30 10371 C 947.969 -0.376652 -2.98332 0
M  V30 10372 C 949.517 -0.326765 -3.1129 0
M  V30 10373 C 949.992 -0.714247 -4.52396 0
M  V30 10374 N 951.483 -0.667402 -4.58367 0
M  V30 10375 C 952.218 -0.939494 -5.65651 0
M  V30 10376 N 951.714 -1.27839 -6.80903 0
M  V30 10377 N 953.507 -0.865484 -5.55397 0
M  V30 10378 H 945.658 -1.27794 -1.69654 0
M  V30 10379 H 947.921 -0.5192 -0.79318 0
M  V30 10380 H 947.627 -1.40381 -3.22469 0
M  V30 10381 H 947.501 0.261611 -3.76292 0
M  V30 10382 H 949.888 0.69117 -2.86892 0
M  V30 10383 H 949.969 -0.999873 -2.35449 0
M  V30 10384 H 949.613 -1.73007 -4.77526 0
M  V30 10385 H 949.543 -0.0188962 -5.26597 0
M  V30 10386 H 952.034 -0.417062 -3.75592 0
M  V30 10387 H 952.347 -1.47155 -7.5866 0
M  V30 10388 H 950.692 -1.31658 -6.82416 0
M  V30 10389 H 953.883 -0.600265 -4.64235 0
M  V30 10390 H 954.056 -1.0809 -6.38921 0
M  V30 10391 N 947.462 1.57535 -0.0451378 0
M  V30 10392 C 948.873 1.80116 0.491426 0
M  V30 10393 C 949.224 0.956846 1.71286 0
M  V30 10394 O 948.349 0.17173 2.15718 0
M  V30 10395 C 948.944 3.26674 0.898315 0
M  V30 10396 C 947.503 3.50194 1.37989 0
M  V30 10397 C 946.65 2.75054 0.352202 0
M  V30 10398 H 949.601 1.56368 -0.271065 0
M  V30 10399 H 949.622 3.37263 1.76164 0
M  V30 10400 H 949.134 3.88099 0.009141 0
M  V30 10401 H 947.235 2.94041 2.28846 0
M  V30 10402 H 947.348 4.58909 1.37622 0
M  V30 10403 H 945.712 2.4101 0.823784 0
M  V30 10404 H 946.495 3.39203 -0.528782 0
M  V30 10405 N 948.94 -0.228186 1.55939 0
M  V30 10406 C 950.168 -0.970618 1.8272 0
M  V30 10407 C 950.583 -1.78212 0.623385 0
M  V30 10408 O 949.94 -1.77879 -0.408063 0
M  V30 10409 C 949.991 -1.89352 3.07942 0
M  V30 10410 O 949.712 -1.11483 4.23678 0
M  V30 10411 C 951.213 -2.75039 3.47661 0
M  V30 10412 H 948.433 -0.284772 0.607574 0
M  V30 10413 H 950.977 -0.245419 2.03022 0
M  V30 10414 H 949.132 -2.57275 2.89635 0
M  V30 10415 H 949.546 -1.74073 4.94772 0
M  V30 10416 H 951.02 -3.35511 4.38334 0
M  V30 10417 H 951.497 -3.471 2.69106 0
M  V30 10418 H 952.103 -2.1254 3.68384 0
M  V30 10419 N 950.418 -1.49637 -0.494624 0
M  V30 10420 C 951.665 -1.59445 -1.24834 0
M  V30 10421 C 951.993 -0.284028 -1.92415 0
M  V30 10422 O 951.248 0.728519 -1.81634 0
M  V30 10423 C 951.547 -2.70749 -2.33302 0
M  V30 10424 C 951.213 -4.12034 -1.83135 0
M  V30 10425 C 949.875 -4.50482 -1.69173 0
M  V30 10426 C 952.227 -5.00432 -1.4566 0
M  V30 10427 C 949.555 -5.75093 -1.16124 0
M  V30 10428 C 951.907 -6.25568 -0.940608 0
M  V30 10429 C 950.571 -6.62839 -0.787432 0
M  V30 10430 H 949.841 -0.583451 -0.456799 0
M  V30 10431 H 952.488 -1.8349 -0.548044 0
M  V30 10432 H 950.793 -2.407 -3.09145 0
M  V30 10433 H 952.49 -2.75546 -2.91334 0
M  V30 10434 H 949.08 -3.8169 -1.94964 0
M  V30 10435 H 953.264 -4.71379 -1.55291 0
M  V30 10436 H 948.52 -6.02665 -1.02982 0
M  V30 10437 H 952.694 -6.93439 -0.641467 0
M  V30 10438 H 950.321 -7.59279 -0.374191 0
M  V30 10439 N 951.896 0.746133 -1.38819 0
M  V30 10440 C 952.843 1.86001 -1.36647 0
M  V30 10441 C 953.813 1.6453 -0.227849 0
M  V30 10442 O 954.998 1.86092 -0.421241 0
M  V30 10443 C 952.138 3.23388 -1.20474 0
M  V30 10444 C 951.251 3.5664 -2.43786 0
M  V30 10445 C 950.386 4.8337 -2.20287 0
M  V30 10446 C 949.425 5.09431 -3.39332 0
M  V30 10447 N 948.562 6.2736 -3.1522 0
M  V30 10448 H 953.402 1.87192 -2.31869 0
M  V30 10449 H 950.939 0.914838 -1.15192 0
M  V30 10450 H 952.897 4.02679 -1.09112 0
M  V30 10451 H 951.527 3.21505 -0.288874 0
M  V30 10452 H 950.579 2.72135 -2.65794 0
M  V30 10453 H 951.891 3.71823 -3.3249 0
M  V30 10454 H 951.045 5.70619 -2.06103 0
M  V30 10455 H 949.784 4.70341 -1.28961 0
M  V30 10456 H 948.789 4.20648 -3.54027 0
M  V30 10457 H 950.014 5.24354 -4.31544 0
M  V30 10458 H 947.96 6.15639 -2.26549 0
M  V30 10459 H 947.877 6.43078 -3.97476 0
M  V30 10460 H 949.145 7.17477 -3.04707 0
M  V30 10461 N 953.375 1.23811 0.975125 0
M  V30 10462 C 954.624 1.06741 1.71141 0
M  V30 10463 C 954.937 -0.394986 1.9157 0
M  V30 10464 O 956.143 -0.685723 2.62698 0
M  V30 10465 C 954.599 1.86168 3.08009 0
M  V30 10466 C 954.207 3.36771 2.95448 0
M  V30 10467 C 955.951 1.77604 3.85561 0
M  V30 10468 C 953.858 4.0857 4.2758 0
M  V30 10469 H 952.788 0.395819 0.64175 0
M  V30 10470 H 955.439 1.47825 1.0872 0
M  V30 10471 H 953.821 1.37893 3.71216 0
M  V30 10472 H 954.995 3.92571 2.41298 0
M  V30 10473 H 953.31 3.46205 2.31368 0
M  V30 10474 H 955.907 2.28556 4.83391 0
M  V30 10475 H 956.25 0.739837 4.09673 0
M  V30 10476 H 956.783 2.23519 3.29065 0
M  V30 10477 H 953.522 5.12518 4.08663 0
M  V30 10478 H 953.042 3.57556 4.81574 0
M  V30 10479 H 954.721 4.15157 4.9624 0
M  V30 10480 N 954.853 -1.17469 1.05066 0
M  V30 10481 C 955.783 -2.23635 0.671552 0
M  V30 10482 C 956.764 -1.66867 -0.33006 0
M  V30 10483 O 957.949 -1.93084 -0.207933 0
M  V30 10484 C 955.079 -3.47272 0.0441845 0
M  V30 10485 C 954.033 -4.16854 0.97042 0
M  V30 10486 C 953.359 -5.34299 0.206998 0
M  V30 10487 C 954.659 -4.69225 2.29401 0
M  V30 10488 H 956.353 -2.55602 1.55911 0
M  V30 10489 H 953.899 -1.2286 0.751101 0
M  V30 10490 H 955.852 -4.20756 -0.23282 0
M  V30 10491 H 954.576 -3.14568 -0.878311 0
M  V30 10492 H 953.235 -3.4528 1.23197 0
M  V30 10493 H 952.883 -4.97846 -0.718222 0
M  V30 10494 H 952.583 -5.81792 0.82416 0
M  V30 10495 H 954.107 -6.10568 -0.0627525 0
M  V30 10496 H 955.521 -5.34353 2.077 0
M  V30 10497 H 953.918 -5.27291 2.86503 0
M  V30 10498 H 954.988 -3.86102 2.93348 0
M  V30 10499 N 956.331 -0.831506 -1.3388 0
M  V30 10500 C 957.261 -0.274378 -2.31882 0
M  V30 10501 C 958.242 0.613872 -1.58637 0
M  V30 10502 O 959.427 0.538961 -1.86571 0
M  V30 10503 C 956.557 0.557498 -3.42796 0
M  V30 10504 C 955.511 -0.234337 -4.27358 0
M  V30 10505 C 954.837 0.720825 -5.29819 0
M  V30 10506 C 956.137 -1.44732 -5.01847 0
M  V30 10507 H 957.831 -1.09322 -2.78728 0
M  V30 10508 H 955.377 -0.527136 -1.34005 0
M  V30 10509 H 957.33 0.957501 -4.10378 0
M  V30 10510 H 956.054 1.40947 -2.94621 0
M  V30 10511 H 954.713 -0.61581 -3.61391 0
M  V30 10512 H 954.361 1.569 -4.77903 0
M  V30 10513 H 954.061 0.195171 -5.87276 0
M  V30 10514 H 955.585 1.1185 -6.00268 0
M  V30 10515 H 956.999 -1.12087 -5.62236 0
M  V30 10516 H 955.396 -1.90923 -5.68919 0
M  V30 10517 H 956.466 -2.22099 -4.31045 0
M  V30 10518 N 957.809 1.4625 -0.587256 0
M  V30 10519 C 959.034 2.07252 -0.0784517 0
M  V30 10520 C 959.459 1.43239 1.21919 0
M  V30 10521 O 958.817 0.517791 1.73749 0
M  V30 10522 C 958.865 3.60534 0.0691037 0
M  V30 10523 O 957.969 3.96773 1.12448 0
M  V30 10524 H 957.31 0.660825 -0.064859 0
M  V30 10525 H 959.84 1.87819 -0.811491 0
M  V30 10526 H 959.85 4.0708 0.273826 0
M  V30 10527 H 958.525 4.06516 -0.878514 0
M  V30 10528 H 957.102 3.6193 0.897852 0
M  V30 10529 N 959.287 0.325282 1.54207 0
M  V30 10530 C 960.235 -0.5554 2.25872 0
M  V30 10531 C 961.229 -1.11714 1.27344 0
M  V30 10532 O 962.435 -1.06498 1.45115 0
M  V30 10533 H 958.81 -0.19776 0.725531 0
M  V30 10534 H 960.781 0.0712858 2.98315 0
M  V30 10535 C 959.53 -1.70379 3.03095 0
M  V30 10536 H 958.853 -1.2808 3.78729 0
M  V30 10537 H 960.293 -2.29556 3.56483 0
M  V30 10538 C 958.752 -2.62242 2.11496 0
M  V30 10539 O 959.282 -3.64003 1.69895 0
M  V30 10540 N 957.488 -2.30515 1.7695 0
M  V30 10541 H 957.035 -1.47805 2.10978 0
M  V30 10542 H 956.993 -2.92241 1.15942 0
M  V30 10543 N 960.765 -1.57509 0.0534917 0
M  V30 10544 C 962.014 -1.91959 -0.619244 0
M  V30 10545 C 962.327 -0.933882 -1.71866 0
M  V30 10546 O 963.533 -1.17052 -2.44972 0
M  V30 10547 C 961.989 -3.40938 -1.15278 0
M  V30 10548 C 961.597 -4.47919 -0.085348 0
M  V30 10549 C 963.341 -3.84419 -1.80063 0
M  V30 10550 C 961.248 -5.88014 -0.631897 0
M  V30 10551 H 960.178 -0.71642 -0.235072 0
M  V30 10552 H 962.829 -1.83089 0.122758 0
M  V30 10553 H 961.211 -3.44821 -1.94717 0
M  V30 10554 H 962.385 -4.55629 0.688374 0
M  V30 10555 H 960.7 -4.13793 0.465178 0
M  V30 10556 H 963.297 -4.86457 -2.21954 0
M  V30 10557 H 963.64 -3.20791 -2.65328 0
M  V30 10558 H 964.173 -3.83062 -1.07275 0
M  V30 10559 H 960.912 -6.55244 0.183175 0
M  V30 10560 H 960.432 -5.83861 -1.37355 0
M  V30 10561 H 962.111 -6.37336 -1.11407 0
M  V30 10562 N 962.243 0.219913 -1.56058 0
M  V30 10563 C 963.173 1.27572 -1.9557 0
M  V30 10564 C 964.154 1.48801 -0.824148 0
M  V30 10565 O 965.339 1.60957 -1.08658 0
M  V30 10566 C 962.469 2.62517 -2.27381 0
M  V30 10567 C 961.423 2.55941 -3.43042 0
M  V30 10568 C 960.749 3.94931 -3.60463 0
M  V30 10569 C 962.049 2.10584 -4.77966 0
M  V30 10570 H 963.743 0.947482 -2.84013 0
M  V30 10571 H 961.289 0.454337 -1.36645 0
M  V30 10572 H 963.242 3.36538 -2.53615 0
M  V30 10573 H 961.966 2.97031 -1.35794 0
M  V30 10574 H 960.625 1.84377 -3.1686 0
M  V30 10575 H 960.273 4.26756 -2.66249 0
M  V30 10576 H 959.973 3.91413 -4.38258 0
M  V30 10577 H 961.497 4.70611 -3.89046 0
M  V30 10578 H 962.911 2.74349 -5.03394 0
M  V30 10579 H 961.308 2.18122 -5.59055 0
M  V30 10580 H 962.378 1.05818 -4.73213 0
M  V30 10581 N 963.721 1.49897 0.486681 0
M  V30 10582 C 964.998 1.50614 1.24799 0
M  V30 10583 C 965.378 0.24193 2.09709 0
M  V30 10584 O 964.726 -0.775237 2.14947 0
M  V30 10585 C 964.936 2.79318 2.09243 0
M  V30 10586 C 966.284 3.29371 2.67955 0
M  V30 10587 O 967.308 2.80533 2.19499 0
M  V30 10588 O 966.167 4.14466 3.56202 0
M  V30 10589 H 963.261 0.603447 0.565491 0
M  V30 10590 H 965.807 1.62174 0.499778 0
M  V30 10591 H 964.579 3.62812 1.46572 0
M  V30 10592 H 964.202 2.70687 2.91229 0
M  V30 10593 N 965.199 -0.738761 1.39212 0
M  V30 10594 C 966.445 -1.50046 1.36433 0
M  V30 10595 C 966.778 -1.94157 -0.0409474 0
M  V30 10596 O 966.053 -1.66515 -1.00514 0
M  V30 10597 C 966.336 -2.74277 2.33333 0
M  V30 10598 C 966.189 -2.36209 3.82786 0
M  V30 10599 C 967.508 -3.76361 2.28123 0
M  V30 10600 H 964.627 -0.544294 0.496903 0
M  V30 10601 H 967.269 -0.845005 1.70175 0
M  V30 10602 H 965.419 -3.30204 2.04689 0
M  V30 10603 H 967.091 -1.85942 4.22165 0
M  V30 10604 H 965.334 -1.68483 3.99745 0
M  V30 10605 H 966.005 -3.25156 4.46069 0
M  V30 10606 H 968.481 -3.30009 2.53443 0
M  V30 10607 H 967.357 -4.60957 2.9801 0
M  V30 10608 H 967.618 -4.23013 1.28499 0
M  V30 10609 N 966.677 -1.24326 -0.968545 0
M  V30 10610 C 967.61 -0.978121 -2.06175 0
M  V30 10611 C 968.588 0.0878107 -1.62363 0
M  V30 10612 O 969.772 -0.0489472 -1.88436 0
M  V30 10613 C 966.899 -0.475884 -3.3534 0
M  V30 10614 C 965.945 -1.53023 -3.98103 0
M  V30 10615 S 966.778 -3.11131 -4.35841 0
M  V30 10616 C 967.934 -2.62608 -5.68144 0
M  V30 10617 H 968.167 -1.9038 -2.28348 0
M  V30 10618 H 965.7 -1.07701 -1.10633 0
M  V30 10619 H 967.658 -0.192739 -4.10047 0
M  V30 10620 H 966.319 0.429067 -3.11156 0
M  V30 10621 H 965.512 -1.12922 -4.91187 0
M  V30 10622 H 965.114 -1.76334 -3.29822 0
M  V30 10623 H 967.406 -2.05367 -6.45624 0
M  V30 10624 H 968.349 -3.54277 -6.13101 0
M  V30 10625 H 968.757 -2.03063 -5.26712 0
M  V30 10626 N 968.156 1.1691 -1.05688 0
M  V30 10627 C 969.433 1.83266 -0.683601 0
M  V30 10628 C 969.813 1.93858 0.835602 0
M  V30 10629 O 969.161 1.47696 1.7435 0
M  V30 10630 C 969.371 3.20625 -1.37842 0
M  V30 10631 C 970.719 3.96473 -1.51967 0
M  V30 10632 O 971.743 3.30122 -1.33783 0
M  V30 10633 O 970.602 5.15393 -1.81749 0
M  V30 10634 H 967.696 0.791028 -0.241254 0
M  V30 10635 H 970.242 1.24165 -1.15677 0
M  V30 10636 H 969.014 3.07914 -2.41463 0
M  V30 10637 H 968.637 3.87398 -0.894921 0
M  V30 10638 N 969.634 0.838594 1.33437 0
M  V30 10639 C 970.544 0.274048 2.32994 0
M  V30 10640 C 971.56 -0.599776 1.63336 0
M  V30 10641 O 972.736 -0.503963 1.94993 0
M  V30 10642 C 969.801 -0.541804 3.4244 0
M  V30 10643 C 968.862 0.356262 4.27819 0
M  V30 10644 C 968.095 -0.420747 5.32039 0
M  V30 10645 O 968.318 -1.65247 5.45939 0
M  V30 10646 O 967.252 0.205101 6.0155 0
M  V30 10647 H 971.078 1.09846 2.83139 0
M  V30 10648 H 968.663 0.601111 1.36774 0
M  V30 10649 H 970.545 -1.00544 4.0923 0
M  V30 10650 H 969.22 -1.34328 2.94513 0
M  V30 10651 H 968.127 0.867726 3.63897 0
M  V30 10652 H 969.46 1.1225 4.79229 0
M  V30 10653 N 971.112 -1.45937 0.595003 0
M  V30 10654 C 972.022 -2.34221 -0.133325 0
M  V30 10655 C 973.038 -1.50491 -0.873407 0
M  V30 10656 O 974.214 -1.83328 -0.833828 0
M  V30 10657 C 971.279 -3.27896 -1.12628 0
M  V30 10658 C 970.34 -4.27529 -0.389532 0
M  V30 10659 C 969.573 -5.16729 -1.33519 0
M  V30 10660 O 969.796 -5.09102 -2.57238 0
M  V30 10661 O 968.73 -5.96023 -0.839084 0
M  V30 10662 H 972.556 -2.97877 0.591861 0
M  V30 10663 H 970.141 -1.45113 0.355329 0
M  V30 10664 H 972.023 -3.85654 -1.69851 0
M  V30 10665 H 970.698 -2.6682 -1.83272 0
M  V30 10666 H 969.605 -3.73424 0.224843 0
M  V30 10667 H 970.938 -4.91425 0.276169 0
M  V30 10668 N 972.59 -0.333456 -1.54032 0
M  V30 10669 C 973.815 0.270517 -2.05628 0
M  V30 10670 C 974.24 1.44231 -1.20744 0
M  V30 10671 O 973.598 1.79975 -0.218822 0
M  V30 10672 C 973.646 0.673251 -3.54259 0
M  V30 10673 O 972.75 1.77448 -3.72271 0
M  V30 10674 H 972.091 0.0469753 -0.662336 0
M  V30 10675 H 974.621 -0.484739 -1.98775 0
M  V30 10676 H 974.631 0.953194 -3.96709 0
M  V30 10677 H 973.306 -0.183747 -4.15494 0
M  V30 10678 H 971.883 1.49259 -3.41725 0
M  V30 10679 O 974.107 1.6024 -0.201336 0
M  V30 10680 H 974.798 1.89877 0.382941 0
M  V30 END ATOM
M  V30 BEGIN BOND
M  V30 END BOND
M  V30 END CTAB
M  END
$$$$
