drugbank_target|Q12852 Mitogen-activated protein kinase kinase kinase 12 (DB12010)
 OpenBabel12092121163D

  0  0  0     0  0            999 V3000
M  V30 BEGIN CTAB
M  V30 COUNTS 13000 13156 0 0 0
M  V30 BEGIN ATOM
M  V30 1 H -0.908 1.98254 -0.117106 0
M  V30 2 N 0 1.576 0 0
M  V30 3 C 0.933 2.03868 1.02534 0
M  V30 4 C 1.911 0.928543 1.3348 0
M  V30 5 O 3.095 1.19667 1.45644 0
M  V30 6 C 0.222 2.43627 2.35294 0
M  V30 7 C -0.732 3.65373 2.2001 0
M  V30 8 S 0.101 5.13292 1.52614 0
M  V30 9 C 1.257 5.56322 2.86805 0
M  V30 10 H 1.49 2.90518 0.631377 0
M  V30 11 H -0.977 1.52953 0.210867 0
M  V30 12 H 0.981 2.67203 3.11629 0
M  V30 13 H -0.358 1.57376 2.7183 0
M  V30 14 H -1.165 3.90944 3.18086 0
M  V30 15 H -1.563 3.418 1.51819 0
M  V30 16 H 0.729 5.58782 3.83104 0
M  V30 17 H 1.672 6.56266 2.65933 0
M  V30 18 H 2.08 4.83886 2.90714 0
M  V30 19 N 1.4781 -0.272755 1.55222 0
M  V30 20 C 2.4411 -1.32041 1.87344 0
M  V30 21 C 3.4411 -1.42342 0.74803 0
M  V30 22 O 4.6311 -1.41488 1.0162 0
M  V30 23 C 1.7631 -2.70173 2.07893 0
M  V30 24 H 2.9561 -1.04789 2.80997 0
M  V30 25 H 0.5091 -0.51083 1.47717 0
M  V30 26 H 1.2441 -3.02605 1.16622 0
M  V30 27 H 1.0291 -2.64082 2.89833 0
M  V30 28 H 2.5191 -3.45869 2.34017 0
M  V30 29 N 2.9562 -1.48159 -0.537278 0
M  V30 30 C 4.1962 -1.57397 -1.30405 0
M  V30 31 C 4.5602 -0.239202 -1.90504 0
M  V30 32 O 5.7612 -0.206528 -2.68005 0
M  V30 33 C 4.0322 -2.6754 -2.36974 0
M  V30 34 S 5.5912 -2.96496 -3.23475 0
M  V30 35 H 2.4092 -0.555577 -0.443684 0
M  V30 36 H 5.0112 -1.85644 -0.612912 0
M  V30 37 H 3.7152 -3.63092 -1.91291 0
M  V30 38 H 3.2462 -2.41172 -3.10805 0
M  V30 39 H 5.2612 -2.35234 -4.36897 0
M  V30 40 N 4.4343 0.785586 -1.36625 0
M  V30 41 C 5.3643 1.91259 -1.33949 0
M  V30 42 C 6.3453 1.68795 -0.210325 0
M  V30 43 O 7.5303 1.89854 -0.408561 0
M  V30 44 C 4.6603 3.28339 -1.13186 0
M  V30 45 C 3.6143 3.65335 -2.22967 0
M  V30 46 C 2.9403 5.00806 -1.87342 0
M  V30 47 C 4.2403 3.7352 -3.65075 0
M  V30 48 H 5.9343 1.93755 -2.28253 0
M  V30 49 H 3.4803 0.930788 -1.09874 0
M  V30 50 H 5.4333 4.06804 -1.09948 0
M  V30 51 H 4.1573 3.2624 -0.153332 0
M  V30 52 H 2.8163 2.89169 -2.25337 0
M  V30 53 H 2.4643 4.95233 -0.880545 0
M  V30 54 H 2.1643 5.26529 -2.60846 0
M  V30 55 H 3.6883 5.81687 -1.85667 0
M  V30 56 H 5.1023 4.42168 -3.64911 0
M  V30 57 H 3.4993 4.10731 -4.37516 0
M  V30 58 H 4.5693 2.74527 -3.99703 0
M  V30 59 N 5.9124 1.20967 1.01018 0
M  V30 60 C 6.8624 0.93182 2.08089 0
M  V30 61 C 7.8464 -0.110898 1.60517 0
M  V30 62 O 9.0384 0.0973392 1.76732 0
M  V30 63 C 6.1674 0.492719 3.39746 0
M  V30 64 C 5.2534 1.56922 3.94 0
M  V30 65 N 5.6444 2.79312 4.21686 0
M  V30 66 C 3.9424 1.43688 4.2222 0
M  V30 67 C 4.6434 3.48797 4.65527 0
M  V30 68 N 3.6194 2.76224 4.68189 0
M  V30 69 H 7.4214 1.86175 2.27412 0
M  V30 70 H 4.9354 1.10463 1.19045 0
M  V30 71 H 6.9324 0.275044 4.15992 0
M  V30 72 H 5.5924 -0.430509 3.21833 0
M  V30 73 H 6.6034 3.15903 4.10397 0
M  V30 74 H 3.2804 0.578548 4.13472 0
M  V30 75 H 4.6704 4.53561 4.95714 0
M  V30 76 N 7.3905 -1.2043 1.01659 0
M  V30 77 C 8.3005 -2.2689 0.596484 0
M  V30 78 C 9.3165 -1.70107 -0.36599 0
M  V30 79 O 10.4925 -2.00117 -0.226942 0
M  V30 80 C 7.5575 -3.4665 -0.0586659 0
M  V30 81 C 6.6185 -4.18662 0.949751 0
M  V30 82 C 5.8515 -5.32705 0.32577 0
M  V30 83 O 6.0745 -5.63656 -0.874509 0
M  V30 84 O 5.0085 -5.92803 1.04249 0
M  V30 85 H 8.8345 -2.65041 1.4828 0
M  V30 86 H 6.4195 -1.27048 0.786082 0
M  V30 87 H 8.3015 -4.19256 -0.424564 0
M  V30 88 H 6.9765 -3.10375 -0.91918 0
M  V30 89 H 5.8835 -3.48229 1.36702 0
M  V30 90 H 7.2165 -4.58878 1.78023 0
M  V30 91 N 8.8686 -0.792821 -1.36206 0
M  V30 92 C 10.0966 -0.378825 -2.03402 0
M  V30 93 C 10.5116 1.00586 -1.59774 0
M  V30 94 O 9.8686 1.64574 -0.788764 0
M  V30 95 C 9.9196 -0.43683 -3.58851 0
M  V30 96 O 9.6406 -1.76691 -4.00889 0
M  V30 97 C 11.1416 -0.0138943 -4.43298 0
M  V30 98 H 8.3616 -0.155673 -0.652692 0
M  V30 99 H 10.9056 -1.07261 -1.74113 0
M  V30 100 H 9.0606 0.208575 -3.86838 0
M  V30 101 H 9.4746 -1.72011 -4.95492 0
M  V30 102 H 10.9486 -0.105615 -5.51899 0
M  V30 103 H 11.4256 1.03915 -4.2673 0
M  V30 104 H 12.0316 -0.63192 -4.20579 0
M  V30 105 N 10.3467 1.47872 -0.545128 0
M  V30 106 C 11.7627 1.5829 -0.204032 0
M  V30 107 C 11.9627 1.54529 1.29317 0
M  V30 108 O 11.0187 1.44232 2.07252 0
M  V30 109 C 12.3317 2.89304 -0.819987 0
M  V30 110 C 13.8797 3.02864 -0.790105 0
M  V30 111 C 14.3547 4.3656 -1.38491 0
M  V30 112 N 15.8457 4.43165 -1.34755 0
M  V30 113 C 16.5807 5.45153 -1.77753 0
M  V30 114 N 16.0767 6.54016 -2.2855 0
M  V30 115 N 17.8697 5.36125 -1.68897 0
M  V30 116 H 10.0207 1.4856 -1.51802 0
M  V30 117 H 12.2837 0.706305 -0.632327 0
M  V30 118 H 11.9897 2.97757 -1.87173 0
M  V30 119 H 11.8637 3.75957 -0.305915 0
M  V30 120 H 14.2507 2.94014 0.252913 0
M  V30 121 H 14.3317 2.17782 -1.34181 0
M  V30 122 H 13.9757 4.46164 -2.42693 0
M  V30 123 H 13.9057 5.20353 -0.808754 0
M  V30 124 H 16.3967 3.65083 -0.975855 0
M  V30 125 H 16.7097 7.27994 -2.59314 0
M  V30 126 H 15.0547 6.54938 -2.32553 0
M  V30 127 H 18.2457 4.49975 -1.28998 0
M  V30 128 H 18.4187 6.15472 -2.02726 0
M  V30 129 N 11.8248 0.280983 1.55075 0
M  V30 130 C 13.0528 -0.337293 2.04132 0
M  V30 131 C 13.4678 -1.4903 1.15912 0
M  V30 132 O 12.8248 -1.81606 0.180459 0
M  V30 133 C 12.8758 -0.812706 3.52246 0
M  V30 134 O 12.5968 0.294387 4.3711 0
M  V30 135 C 14.0978 -1.4982 4.17216 0
M  V30 136 H 11.3178 -0.0761638 0.666663 0
M  V30 137 H 13.8618 0.414787 2.00249 0
M  V30 138 H 12.0168 -1.51486 3.56554 0
M  V30 139 H 12.4308 -0.0721325 5.2445 0
M  V30 140 H 13.9048 -1.7822 5.22438 0
M  V30 141 H 14.3818 -2.43168 3.65741 0
M  V30 142 H 14.9878 -0.839742 4.16927 0
M  V30 143 N 13.3029 -1.57598 0.00835791 0
M  V30 144 C 14.7139 -1.7892 -0.53333 0
M  V30 145 C 15.0649 -0.916609 -1.73473 0
M  V30 146 O 14.1899 -0.121336 -2.1606 0
M  V30 147 C 14.7849 -3.24488 -0.974313 0
M  V30 148 C 13.3439 -3.46878 -1.46125 0
M  V30 149 C 12.4909 -2.74157 -0.416302 0
M  V30 150 H 15.4419 -1.56958 0.234495 0
M  V30 151 H 15.4629 -3.3306 -1.83988 0
M  V30 152 H 14.9749 -3.87972 -0.099718 0
M  V30 153 H 13.0759 -2.8862 -2.35646 0
M  V30 154 H 13.1889 -4.55572 -1.48295 0
M  V30 155 H 11.5529 -2.39022 -0.87981 0
M  V30 156 H 12.3359 -3.40345 0.44947 0
M  V30 157 N 14.781 0.264519 -1.55364 0
M  V30 158 C 16.006 1.01726 -1.80739 0
M  V30 159 C 16.431 1.78836 -0.583044 0
M  V30 160 O 15.789 1.75167 0.467566 0
M  V30 161 C 15.837 1.94482 -3.03659 0
M  V30 162 O 14.941 3.03386 -2.7934 0
M  V30 163 H 14.282 0.290395 -0.597132 0
M  V30 164 H 16.812 0.290854 -2.02522 0
M  V30 165 H 16.822 2.36278 -3.32621 0
M  V30 166 H 15.497 1.37772 -3.92418 0
M  V30 167 H 14.074 2.65844 -2.61498 0
M  V30 168 N 16.2591 1.48442 0.529413 0
M  V30 169 C 17.6701 1.5002 1.11134 0
M  V30 170 C 18.0211 0.27031 1.94329 0
M  V30 171 O 17.1461 -0.622507 2.07253 0
M  V30 172 C 17.7411 2.71834 2.02217 0
M  V30 173 C 16.3001 2.76283 2.55627 0
M  V30 174 C 15.4471 2.43542 1.326 0
M  V30 175 H 18.3981 1.5555 0.314641 0
M  V30 176 H 18.4191 2.50384 2.8651 0
M  V30 177 H 17.9311 3.61331 1.41639 0
M  V30 178 H 16.0321 1.90995 3.19924 0
M  V30 179 H 16.1451 3.77725 2.94721 0
M  V30 180 H 14.5091 1.94709 1.64196 0
M  V30 181 H 15.2921 3.3528 0.737734 0
M  V30 182 N 17.7372 -0.778329 1.37039 0
M  V30 183 C 18.9622 -1.57248 1.35233 0
M  V30 184 C 19.3872 -1.87999 -0.0615568 0
M  V30 185 O 18.7452 -1.48734 -1.03672 0
M  V30 186 C 18.7932 -2.86353 2.19167 0
M  V30 187 O 17.8972 -3.80442 1.59178 0
M  V30 188 H 17.2382 -0.476569 0.462362 0
M  V30 189 H 19.7682 -0.963853 1.80474 0
M  V30 190 H 19.7782 -3.35519 2.32145 0
M  V30 191 H 18.4532 -2.63299 3.21942 0
M  V30 192 H 17.0302 -3.39067 1.55203 0
M  V30 193 N 19.2153 -1.21501 -1.00376 0
M  V30 194 C 20.4623 -1.03299 -1.74171 0
M  V30 195 C 20.7903 0.433326 -1.89612 0
M  V30 196 O 20.0453 1.33779 -1.42834 0
M  V30 197 C 20.3443 -1.67673 -3.15627 0
M  V30 198 C 20.0103 -3.17533 -3.2013 0
M  V30 199 C 18.6723 -3.58427 -3.21067 0
M  V30 200 C 21.0243 -4.13504 -3.17275 0
M  V30 201 C 18.3523 -4.93794 -3.16835 0
M  V30 202 C 20.7043 -5.48834 -3.14585 0
M  V30 203 C 19.3683 -5.89123 -3.13831 0
M  V30 204 H 18.6383 -0.377999 -0.637336 0
M  V30 205 H 21.2853 -1.51111 -1.17634 0
M  V30 206 H 19.5903 -1.12158 -3.75404 0
M  V30 207 H 21.2873 -1.51091 -3.71446 0
M  V30 208 H 17.8773 -2.84965 -3.20145 0
M  V30 209 H 22.0613 -3.82936 -3.15711 0
M  V30 210 H 17.3173 -5.24255 -3.1459 0
M  V30 211 H 21.4913 -6.22934 -3.1133 0
M  V30 212 H 19.1183 -6.93984 -3.10307 0
M  V30 213 N 20.6934 1.19889 -1.02296 0
M  V30 214 C 21.9414 1.89046 -0.714558 0
M  V30 215 C 22.2624 1.79636 0.758681 0
M  V30 216 O 21.5324 1.20292 1.54618 0
M  V30 217 H 20.1124 0.699802 -0.261317 0
M  V30 218 H 22.7744 1.45574 -1.29592 0
M  V30 219 H 21.8704 2.95524 -1.0036 0
M  V30 220 N 22.1715 0.800033 1.35784 0
M  V30 221 C 23.4195 0.376597 1.9856 0
M  V30 222 C 23.7405 -1.05812 1.63795 0
M  V30 223 O 23.0105 -1.73103 0.917171 0
M  V30 224 H 21.5905 0.136261 0.734467 0
M  V30 225 H 24.2525 1.02442 1.65806 0
M  V30 226 H 23.3485 0.477002 3.08433 0
M  V30 227 N 23.6496 -1.47581 0.552962 0
M  V30 228 C 24.8966 -2.02482 0.0273243 0
M  V30 229 C 25.2246 -1.42776 -1.32081 0
M  V30 230 O 24.4796 -0.571393 -1.87173 0
M  V30 231 C 24.7786 -3.57199 -0.119728 0
M  V30 232 C 24.4446 -4.35804 1.15697 0
M  V30 233 C 23.1066 -4.57 1.50681 0
M  V30 234 C 25.4586 -4.81167 2.00319 0
M  V30 235 C 22.7866 -5.20807 2.70142 0
M  V30 236 C 25.1386 -5.46293 3.18978 0
M  V30 237 C 23.8026 -5.65722 3.54281 0
M  V30 238 H 23.0726 -0.740933 0.00999866 0
M  V30 239 H 25.7196 -1.77302 0.72362 0
M  V30 240 H 24.0246 -3.81348 -0.89896 0
M  V30 241 H 25.7216 -3.97324 -0.541718 0
M  V30 242 H 22.3116 -4.19582 0.874561 0
M  V30 243 H 26.4956 -4.64574 1.74599 0
M  V30 244 H 21.7516 -5.34045 2.97668 0
M  V30 245 H 25.9256 -5.80407 3.84838 0
M  V30 246 H 23.5526 -6.14936 4.46942 0
M  V30 247 N 25.1277 -0.289203 -1.54924 0
M  V30 248 C 26.3737 0.323998 -2.00195 0
M  V30 249 C 26.7067 1.54441 -1.17735 0
M  V30 250 O 25.9817 1.92875 -0.250878 0
M  V30 251 C 26.2647 0.692276 -3.53383 0
M  V30 252 C 26.1177 -0.536457 -4.46589 0
M  V30 253 C 27.4367 1.52335 -4.12895 0
M  V30 254 H 24.5557 0.116289 -0.727768 0
M  V30 255 H 27.1977 -0.398954 -1.85764 0
M  V30 256 H 25.3477 1.30822 -3.65811 0
M  V30 257 H 27.0197 -1.17499 -4.46085 0
M  V30 258 H 25.2627 -1.17192 -4.1767 0
M  V30 259 H 25.9337 -0.234806 -5.515 0
M  V30 260 H 28.4097 1.00302 -4.0383 0
M  V30 261 H 27.2857 1.74982 -5.20262 0
M  V30 262 H 27.5467 2.50886 -3.64018 0
M  V30 263 N 26.6058 1.57591 -0.0167156 0
M  V30 264 C 27.8308 1.9598 0.67872 0
M  V30 265 C 28.2558 0.892546 1.65575 0
M  V30 266 O 27.6138 -0.147772 1.80697 0
M  V30 267 C 27.6618 3.33468 1.37227 0
M  V30 268 O 26.7658 3.28954 2.48722 0
M  V30 269 H 26.1068 0.639339 0.17928 0
M  V30 270 H 28.6368 2.04463 -0.0748802 0
M  V30 271 H 28.6468 3.69417 1.7319 0
M  V30 272 H 27.3218 4.10694 0.656007 0
M  V30 273 H 25.8988 3.04705 2.14963 0
M  V30 274 N 28.0839 -0.256276 1.55502 0
M  V30 275 C 29.3119 -1.00342 1.8094 0
M  V30 276 C 29.7269 -1.79307 0.59114 0
M  V30 277 O 29.0839 -1.77114 -0.440081 0
M  V30 278 C 29.1349 -1.94875 3.04476 0
M  V30 279 O 28.8559 -1.19107 4.21598 0
M  V30 280 C 30.3569 -2.81266 3.42644 0
M  V30 281 H 27.5769 -0.295685 0.602338 0
M  V30 282 H 30.1209 -0.281998 2.02546 0
M  V30 283 H 28.2759 -2.62457 2.84947 0
M  V30 284 H 28.6899 -1.82969 4.91551 0
M  V30 285 H 30.1639 -3.43362 4.32211 0
M  V30 286 H 30.6409 -3.51897 2.62802 0
M  V30 287 H 31.2469 -2.1915 3.64491 0
M  V30 288 N 29.562 -1.4872 -0.521534 0
M  V30 289 C 30.492 -1.66771 -1.63431 0
M  V30 290 C 31.473 -0.516499 -1.62069 0
M  V30 291 O 32.658 -0.750013 -1.79132 0
M  V30 292 C 29.788 -1.71515 -3.01993 0
M  V30 293 C 28.742 -2.86222 -3.18216 0
M  V30 294 C 28.068 -2.76061 -4.57924 0
M  V30 295 C 29.368 -4.27419 -3.00184 0
M  V30 296 H 31.062 -2.59932 -1.48579 0
M  V30 297 H 28.608 -1.25089 -0.713358 0
M  V30 298 H 30.561 -1.82731 -3.7972 0
M  V30 299 H 29.285 -0.749393 -3.17886 0
M  V30 300 H 27.944 -2.74575 -2.42908 0
M  V30 301 H 27.592 -1.77437 -4.70665 0
M  V30 302 H 27.292 -3.53037 -4.69722 0
M  V30 303 H 28.816 -2.89256 -5.37739 0
M  V30 304 H 30.23 -4.39855 -3.67697 0
M  V30 305 H 28.627 -5.05458 -3.2347 0
M  V30 306 H 29.697 -4.43293 -1.96518 0
M  V30 307 N 31.0401 0.771051 -1.3745 0
M  V30 308 C 32.2651 1.56529 -1.36065 0
M  V30 309 C 32.6901 1.88029 0.0515859 0
M  V30 310 O 32.0481 1.49282 1.02882 0
M  V30 311 C 32.0961 2.85187 -2.20683 0
M  V30 312 O 31.2001 3.79593 -1.61193 0
M  V30 313 H 30.5411 0.47411 -0.464883 0
M  V30 314 H 33.0711 0.954269 -1.80983 0
M  V30 315 H 33.0811 3.34283 -2.33921 0
M  V30 316 H 31.7561 2.61588 -3.23334 0
M  V30 317 H 30.3331 3.38239 -1.56999 0
M  V30 318 N 32.5182 1.22032 0.997298 0
M  V30 319 C 33.4282 1.00271 2.12092 0
M  V30 320 C 34.4442 -0.047621 1.73935 0
M  V30 321 O 35.6202 0.144136 2.00884 0
M  V30 322 C 32.6852 0.578449 3.4184 0
M  V30 323 C 31.7462 1.70189 3.94125 0
M  V30 324 C 30.9792 1.29778 5.17681 0
M  V30 325 O 31.2022 0.174676 5.70132 0
M  V30 326 O 30.1362 2.11261 5.63607 0
M  V30 327 H 33.9622 1.94398 2.3333 0
M  V30 328 H 31.5472 1.00587 1.10465 0
M  V30 329 H 33.4292 0.351998 4.19927 0
M  V30 330 H 32.1042 -0.334019 3.21972 0
M  V30 331 H 31.0112 1.98282 3.1723 0
M  V30 332 H 32.3442 2.59206 4.18417 0
M  V30 333 N 33.9963 -1.19345 1.0293 0
M  V30 334 C 34.9593 -2.20793 0.615069 0
M  V30 335 C 35.9593 -1.57553 -0.321533 0
M  V30 336 O 37.1493 -1.73862 -0.108483 0
M  V30 337 C 34.2813 -3.40754 -0.0999222 0
M  V30 338 H 35.4743 -2.58955 1.51269 0
M  V30 339 H 33.0273 -1.3303 0.820534 0
M  V30 340 H 33.7623 -3.0811 -1.01187 0
M  V30 341 H 33.5473 -3.87889 0.57309 0
M  V30 342 H 35.0373 -4.15898 -0.376645 0
M  V30 343 N 35.4744 -0.807222 -1.35358 0
M  V30 344 C 36.6994 -0.399309 -2.0352 0
M  V30 345 C 37.1244 0.981986 -1.60433 0
M  V30 346 O 36.4824 1.63601 -0.781299 0
M  V30 347 C 36.5304 -0.491552 -3.57234 0
M  V30 348 O 35.6344 0.494754 -4.09421 0
M  V30 349 H 34.9754 -0.166682 -0.642739 0
M  V30 350 H 37.5054 -1.09328 -1.72941 0
M  V30 351 H 37.5154 -0.361588 -4.06395 0
M  V30 352 H 36.1904 -1.49907 -3.87944 0
M  V30 353 H 34.7674 0.324977 -3.71481 0
M  V30 354 N 36.9525 1.47285 -0.560781 0
M  V30 355 C 37.8855 2.27009 0.232821 0
M  V30 356 C 38.8635 1.34273 0.917039 0
M  V30 357 O 40.0475 1.63659 0.935315 0
M  V30 358 C 37.1745 3.11406 1.33206 0
M  V30 359 C 36.2205 4.19746 0.756019 0
M  V30 360 S 37.0535 5.34003 -0.400165 0
M  V30 361 C 38.2095 6.21964 0.700805 0
M  V30 362 H 38.4425 2.93971 -0.443683 0
M  V30 363 H 35.9755 1.50446 -0.347181 0
M  V30 364 H 37.9335 3.60601 1.96156 0
M  V30 365 H 36.5945 2.438 1.98041 0
M  V30 366 H 35.7875 4.78541 1.5816 0
M  V30 367 H 35.3895 3.73451 0.202619 0
M  V30 368 H 37.6815 6.58529 1.59202 0
M  V30 369 H 38.6245 7.07941 0.150126 0
M  V30 370 H 39.0325 5.5566 0.995083 0
M  V30 371 N 38.4306 0.297415 1.54768 0
M  V30 372 C 39.8466 -0.0560823 1.59501 0
M  V30 373 C 40.0466 -1.52725 1.31444 0
M  V30 374 O 39.1026 -2.27947 1.08611 0
M  V30 375 C 40.4156 0.338631 2.98787 0
M  V30 376 C 41.9636 0.287097 3.11681 0
M  V30 377 C 42.4386 0.656579 4.53269 0
M  V30 378 N 43.9296 0.608977 4.59179 0
M  V30 379 C 44.6646 0.867385 5.66802 0
M  V30 380 N 44.1606 1.19157 6.82476 0
M  V30 381 N 45.9536 0.794687 5.56454 0
M  V30 382 H 38.1046 1.25624 1.71267 0
M  V30 383 H 40.3676 0.509057 0.799728 0
M  V30 384 H 40.0736 1.36263 3.2423 0
M  V30 385 H 39.9476 -0.309508 3.75928 0
M  V30 386 H 42.3346 -0.727649 2.85988 0
M  V30 387 H 42.4156 0.969809 2.36703 0
M  V30 388 H 42.0596 1.66912 4.7969 0
M  V30 389 H 41.9896 -0.0481649 5.26578 0
M  V30 390 H 44.4806 0.369198 3.76092 0
M  V30 391 H 44.7936 1.37482 7.60473 0
M  V30 392 H 43.1386 1.22958 6.84037 0
M  V30 393 H 46.3296 0.541098 4.64962 0
M  V30 394 H 46.5026 0.999445 6.40246 0
M  V30 395 N 39.9087 -1.5758 0.0250728 0
M  V30 396 C 40.8557 -2.09973 -0.958129 0
M  V30 397 C 41.8257 -1.00085 -1.3256 0
M  V30 398 O 43.0107 -1.27481 -1.41962 0
M  V30 399 C 40.1507 -2.62812 -2.2366 0
M  V30 400 C 39.2637 -3.86693 -1.92594 0
M  V30 401 C 38.3987 -4.27941 -3.14707 0
M  V30 402 C 37.4377 -5.44591 -2.79442 0
M  V30 403 N 36.5747 -5.81014 -3.94167 0
M  V30 404 H 41.4147 -2.937 -0.504428 0
M  V30 405 H 38.9517 -1.45172 -0.237392 0
M  V30 406 H 40.9097 -2.91536 -2.98434 0
M  V30 407 H 39.5397 -1.81922 -2.66654 0
M  V30 408 H 38.5917 -3.64723 -1.0808 0
M  V30 409 H 39.9037 -4.71547 -1.62619 0
M  V30 410 H 39.0577 -4.58079 -3.97804 0
M  V30 411 H 37.7967 -3.41845 -3.4784 0
M  V30 412 H 36.8017 -5.1415 -1.94755 0
M  V30 413 H 38.0267 -6.32382 -2.47528 0
M  V30 414 H 35.9727 -4.97874 -4.2715 0
M  V30 415 H 35.8897 -6.60498 -3.67801 0
M  V30 416 H 37.1577 -6.15756 -4.7798 0
M  V30 417 N 41.3868 0.248026 -1.55636 0
M  V30 418 C 42.3168 1.31079 -1.93237 0
M  V30 419 C 43.2978 1.50264 -0.797174 0
M  V30 420 O 44.4828 1.62891 -1.05737 0
M  V30 421 C 41.6128 2.66575 -2.22609 0
M  V30 422 C 40.5668 2.62087 -3.3837 0
M  V30 423 C 39.8928 4.01369 -3.53281 0
M  V30 424 C 41.1928 2.19171 -4.7409 0
M  V30 425 H 42.8868 0.998556 -2.82257 0
M  V30 426 H 40.4328 0.47891 -1.35803 0
M  V30 427 H 42.3858 3.41057 -2.47503 0
M  V30 428 H 41.1098 2.99432 -1.30414 0
M  V30 429 H 39.7688 1.90063 -3.13483 0
M  V30 430 H 39.4168 4.31489 -2.58508 0
M  V30 431 H 39.1168 3.99254 -4.31127 0
M  V30 432 H 40.6408 4.77552 -3.80495 0
M  V30 433 H 42.0548 2.83384 -4.98363 0
M  V30 434 H 40.4518 2.2817 -5.5503 0
M  V30 435 H 41.5218 1.14336 -4.71227 0
M  V30 436 N 42.8649 1.48995 0.513639 0
M  V30 437 C 44.1419 1.48338 1.27495 0
M  V30 438 C 44.5219 0.204065 2.10111 0
M  V30 439 O 43.8699 -0.813881 2.13514 0
M  V30 440 C 44.0799 2.75498 2.14247 0
M  V30 441 C 45.4279 3.24484 2.73852 0
M  V30 442 O 46.4519 2.76528 2.24523 0
M  V30 443 O 45.3109 4.07974 3.6362 0
M  V30 444 H 42.4049 0.593149 0.576284 0
M  V30 445 H 44.9509 1.61246 0.528948 0
M  V30 446 H 43.7229 3.60109 1.53092 0
M  V30 447 H 43.3459 2.6539 2.96064 0
M  V30 448 N 44.343 -0.763751 1.37857 0
M  V30 449 C 45.754 -1.3405 1.29952 0
M  V30 450 C 46.105 -1.96138 -0.0492898 0
M  V30 451 O 45.23 -1.94372 -0.951239 0
M  V30 452 C 45.825 -2.43729 2.35333 0
M  V30 453 C 44.384 -2.97151 2.31037 0
M  V30 454 C 43.531 -1.70438 2.18738 0
M  V30 455 H 46.482 -0.563396 1.48363 0
M  V30 456 H 46.503 -3.23412 2.00462 0
M  V30 457 H 46.015 -1.9851 3.33489 0
M  V30 458 H 44.116 -3.46724 1.3643 0
M  V30 459 H 44.229 -3.52221 3.24772 0
M  V30 460 H 42.593 -1.93673 1.65418 0
M  V30 461 H 43.376 -1.27312 3.18821 0
M  V30 462 N 45.8211 -1.22559 -0.990812 0
M  V30 463 C 47.0981 -0.959875 -1.70428 0
M  V30 464 C 47.4781 0.524455 -2.04481 0
M  V30 465 O 46.8261 1.49302 -1.72977 0
M  V30 466 C 47.0361 -1.85955 -2.95333 0
M  V30 467 C 48.3841 -2.11687 -3.68068 0
M  V30 468 O 49.4081 -1.8342 -3.05345 0
M  V30 469 O 48.2671 -2.59572 -4.80921 0
M  V30 470 H 45.3611 -0.361154 -0.743974 0
M  V30 471 H 47.9071 -1.33554 -1.04697 0
M  V30 472 H 46.6791 -2.86346 -2.66687 0
M  V30 473 H 46.3021 -1.4856 -3.68803 0
M  V30 474 N 47.2992 1.18797 -1.03562 0
M  V30 475 C 48.5272 1.92599 -0.755869 0
M  V30 476 C 48.9422 1.75886 0.686271 0
M  V30 477 O 48.2992 1.08517 1.46732 0
M  V30 478 C 48.3502 3.44159 -1.10619 0
M  V30 479 O 48.0712 3.60341 -2.4917 0
M  V30 480 C 49.5722 4.3507 -0.850214 0
M  V30 481 H 46.7922 0.611587 -0.276048 0
M  V30 482 H 49.3362 1.50742 -1.38192 0
M  V30 483 H 47.4912 3.83823 -0.525194 0
M  V30 484 H 47.9052 4.54128 -2.62427 0
M  V30 485 H 49.3792 5.39989 -1.14523 0
M  V30 486 H 49.8562 4.38673 0.215176 0
M  V30 487 H 50.4622 4.01097 -1.41426 0
M  V30 488 N 48.7773 0.814389 1.34928 0
M  V30 489 C 50.0023 0.410097 2.03305 0
M  V30 490 C 50.4273 -0.973464 1.60951 0
M  V30 491 O 49.7853 -1.63185 0.789964 0
M  V30 492 C 49.8333 0.51049 3.56968 0
M  V30 493 O 48.9373 -0.473035 4.09678 0
M  V30 494 H 48.2783 0.170088 0.641846 0
M  V30 495 H 50.8083 1.10244 1.72358 0
M  V30 496 H 50.8183 0.383135 4.06197 0
M  V30 497 H 49.4933 1.51963 3.87144 0
M  V30 498 H 48.0703 -0.305272 3.71648 0
M  V30 499 N 50.2554 -1.46986 0.568584 0
M  V30 500 C 51.5324 -1.95592 -0.0174074 0
M  V30 501 C 51.9124 -1.51124 -1.47393 0
M  V30 502 O 51.2604 -0.755329 -2.15655 0
M  V30 503 C 51.4704 -3.48719 0.139913 0
M  V30 504 C 52.8184 -4.246 0.000426376 0
M  V30 505 O 53.8424 -3.56135 0.0680316 0
M  V30 506 O 52.7014 -5.46302 -0.146988 0
M  V30 507 H 49.7954 -0.82498 -0.0577599 0
M  V30 508 H 52.3414 -1.57335 0.635909 0
M  V30 509 H 51.1134 -3.73927 1.15301 0
M  V30 510 H 50.7364 -3.93771 -0.550491 0
M  V30 511 N 51.7335 -0.305618 -1.54608 0
M  V30 512 C 52.9735 0.303114 -2.0214 0
M  V30 513 C 53.3375 1.50737 -1.18921 0
M  V30 514 O 54.5385 2.18778 -1.56172 0
M  V30 515 C 52.8095 0.646332 -3.51507 0
M  V30 516 S 54.3685 1.23727 -4.20995 0
M  V30 517 H 51.1865 0.0927643 -0.704923 0
M  V30 518 H 53.7885 -0.434566 -1.90609 0
M  V30 519 H 52.4925 -0.238541 -4.09706 0
M  V30 520 H 52.0235 1.41468 -3.67084 0
M  V30 521 H 54.0385 2.52489 -4.27158 0
M  V30 522 N 53.2116 1.57565 -0.0334293 0
M  V30 523 C 54.4396 1.9628 0.654347 0
M  V30 524 C 54.8546 0.910138 1.65414 0
M  V30 525 O 54.2116 -0.107595 1.82183 0
M  V30 526 C 54.2626 3.35067 1.35693 0
M  V30 527 O 53.9836 4.36296 0.397191 0
M  V30 528 C 55.4846 3.88439 2.13613 0
M  V30 529 H 52.7046 0.646369 0.180132 0
M  V30 530 H 55.2486 2.04282 -0.0944721 0
M  V30 531 H 53.4036 3.2827 2.05712 0
M  V30 532 H 53.8176 5.1678 0.896597 0
M  V30 533 H 55.2916 4.8788 2.58219 0
M  V30 534 H 55.7686 3.22914 2.97696 0
M  V30 535 H 56.3746 3.98516 1.48543 0
M  V30 536 N 54.6897 -0.239769 1.55765 0
M  V30 537 C 56.1007 -0.808263 1.68297 0
M  V30 538 C 56.4517 -1.85736 0.632181 0
M  V30 539 O 55.5767 -2.15277 -0.220204 0
M  V30 540 C 56.1717 -1.47284 3.05111 0
M  V30 541 C 54.7307 -1.98895 3.19559 0
M  V30 542 C 53.8777 -0.842575 2.64189 0
M  V30 543 H 56.8287 -0.0154422 1.58692 0
M  V30 544 H 56.8497 -2.34111 2.99954 0
M  V30 545 H 56.3617 -0.709053 3.81568 0
M  V30 546 H 54.4627 -2.78132 2.47938 0
M  V30 547 H 54.5757 -2.18143 4.26556 0
M  V30 548 H 52.9397 -1.24501 2.22197 0
M  V30 549 H 53.7227 -0.0917552 3.43177 0
M  V30 550 N 56.1678 -1.49265 -0.50573 0
M  V30 551 C 57.0778 -1.68312 -1.63427 0
M  V30 552 C 58.0938 -0.565682 -1.64548 0
M  V30 553 O 59.2698 -0.839801 -1.83055 0
M  V30 554 C 56.3348 -1.74107 -2.99813 0
M  V30 555 C 55.3958 -2.97653 -3.09356 0
M  V30 556 C 54.6288 -3.03163 -4.39236 0
M  V30 557 O 54.8518 -2.16396 -5.27758 0
M  V30 558 O 53.7858 -3.9558 -4.53652 0
M  V30 559 H 57.6118 -2.63907 -1.50289 0
M  V30 560 H 55.1968 -1.32951 -0.681502 0
M  V30 561 H 57.0788 -1.803 -3.80881 0
M  V30 562 H 55.7538 -0.816901 -3.13223 0
M  V30 563 H 54.6608 -2.96981 -2.27493 0
M  V30 564 H 55.9938 -3.89535 -3.00871 0
M  V30 565 N 57.6459 0.756429 -1.3826 0
M  V30 566 C 58.5929 1.87011 -1.35261 0
M  V30 567 C 59.5629 1.64695 -0.215616 0
M  V30 568 O 60.7479 1.864 -0.407399 0
M  V30 569 C 57.8879 3.24275 -1.18068 0
M  V30 570 C 57.0009 3.58442 -2.41129 0
M  V30 571 C 56.1359 4.84994 -2.16689 0
M  V30 572 C 55.1749 5.11939 -3.35537 0
M  V30 573 N 54.3119 6.29685 -3.10549 0
M  V30 574 H 59.1519 1.8891 -2.30472 0
M  V30 575 H 56.6889 0.923373 -1.14509 0
M  V30 576 H 58.6469 4.03479 -1.06116 0
M  V30 577 H 57.2769 3.21711 -0.264973 0
M  V30 578 H 56.3289 2.74103 -2.63764 0
M  V30 579 H 57.6409 3.74283 -3.29717 0
M  V30 580 H 56.7949 5.72135 -2.01857 0
M  V30 581 H 55.5339 4.71286 -1.25462 0
M  V30 582 H 54.5389 4.23268 -3.50891 0
M  V30 583 H 55.7639 5.27546 -4.27635 0
M  V30 584 H 53.7099 6.17306 -2.21967 0
M  V30 585 H 53.6269 6.46014 -3.92686 0
M  V30 586 H 54.8949 7.19722 -2.99367 0
M  V30 587 N 59.124 1.23083 0.984299 0
M  V30 588 C 60.401 0.9689 1.69917 0
M  V30 589 C 60.781 -0.513604 2.04757 0
M  V30 590 O 60.129 -1.48383 1.73767 0
M  V30 591 C 60.339 1.87518 2.94343 0
M  V30 592 C 61.687 2.13636 3.6694 0
M  V30 593 O 62.711 1.85036 3.04368 0
M  V30 594 O 61.57 2.62119 4.79537 0
M  V30 595 H 58.664 0.365095 0.742048 0
M  V30 596 H 61.21 1.34107 1.03987 0
M  V30 597 H 59.982 2.87756 2.65164 0
M  V30 598 H 59.605 1.50514 3.6801 0
M  V30 599 N 60.6021 -1.18246 1.0419 0
M  V30 600 C 61.5321 -2.24127 0.654914 0
M  V30 601 C 62.5131 -1.66617 -0.342451 0
M  V30 602 O 63.6981 -1.92924 -0.222277 0
M  V30 603 C 60.8281 -3.47295 0.0183757 0
M  V30 604 C 59.7821 -4.17563 0.939414 0
M  V30 605 C 59.1081 -5.34438 0.167286 0
M  V30 606 C 60.4081 -4.70917 2.25908 0
M  V30 607 H 62.1021 -2.56753 1.54007 0
M  V30 608 H 59.6481 -1.23414 0.74195 0
M  V30 609 H 61.6011 -4.20572 -0.264082 0
M  V30 610 H 60.3251 -3.13907 -0.901664 0
M  V30 611 H 58.9841 -3.46186 1.20628 0
M  V30 612 H 58.6321 -4.97298 -0.7552 0
M  V30 613 H 58.3321 -5.82388 0.780901 0
M  V30 614 H 59.8561 -6.10504 -0.108125 0
M  V30 615 H 61.2701 -5.35882 2.03724 0
M  V30 616 H 59.6671 -5.29406 2.82577 0
M  V30 617 H 60.7371 -3.88272 2.9047 0
M  V30 618 N 62.0802 -0.821533 -1.34494 0
M  V30 619 C 63.3082 -0.421884 -2.02553 0
M  V30 620 C 63.7232 0.971745 -1.61872 0
M  V30 621 O 63.0802 1.62864 -0.823496 0
M  V30 622 C 63.1312 -0.51285 -3.57844 0
M  V30 623 O 62.8522 -1.85155 -3.97051 0
M  V30 624 C 64.3532 -0.107921 -4.43169 0
M  V30 625 H 61.5732 -0.169482 -0.649243 0
M  V30 626 H 64.1172 -1.1093 -1.71798 0
M  V30 627 H 62.2722 0.126474 -3.87193 0
M  V30 628 H 62.6862 -1.82482 -4.91732 0
M  V30 629 H 64.1602 -0.222657 -5.51551 0
M  V30 630 H 64.6372 0.948401 -4.28838 0
M  V30 631 H 65.2432 -0.720989 -4.19144 0
M  V30 632 N 63.5583 1.46682 -0.576371 0
M  V30 633 C 64.9693 1.86112 -0.148091 0
M  V30 634 C 65.3203 1.48073 1.2872 0
M  V30 635 O 64.4453 0.892656 1.97131 0
M  V30 636 C 65.0403 3.37786 -0.261982 0
M  V30 637 C 63.5993 3.76235 0.111384 0
M  V30 638 C 62.7463 2.70713 -0.60083 0
M  V30 639 H 65.6973 1.37927 -0.78497 0
M  V30 640 H 65.7183 3.77007 0.514364 0
M  V30 641 H 65.2303 3.6544 -1.30671 0
M  V30 642 H 63.3313 3.54198 1.15649 0
M  V30 643 H 63.4443 4.78391 -0.26052 0
M  V30 644 H 61.8083 2.54666 -0.0417783 0
M  V30 645 H 62.5913 3.01208 -1.64708 0
M  V30 646 N 65.0364 0.313813 1.54444 0
M  V30 647 C 66.2644 -0.293918 2.04802 0
M  V30 648 C 66.6794 -1.46537 1.19047 0
M  V30 649 O 66.0364 -1.81182 0.218939 0
M  V30 650 C 66.0874 -0.737806 3.53891 0
M  V30 651 O 65.8084 0.387038 4.36387 0
M  V30 652 C 67.3094 -1.40936 4.203 0
M  V30 653 H 64.5294 -0.0620057 0.668129 0
M  V30 654 H 67.0734 0.457169 1.99324 0
M  V30 655 H 65.2284 -1.43889 3.59687 0
M  V30 656 H 65.6424 0.0391274 5.24485 0
M  V30 657 H 67.1164 -1.67099 5.26101 0
M  V30 658 H 67.5934 -2.35355 3.70816 0
M  V30 659 H 68.1994 -0.751117 4.18615 0
M  V30 660 N 66.5145 -1.57545 0.0417849 0
M  V30 661 C 67.4645 -2.07483 -0.945247 0
M  V30 662 C 68.4485 -0.977983 -1.27767 0
M  V30 663 O 69.6405 -1.24142 -1.26166 0
M  V30 664 C 66.7695 -2.61576 -2.22335 0
M  V30 665 C 65.8555 -3.78213 -1.91874 0
M  V30 666 N 66.2465 -4.88344 -1.31733 0
M  V30 667 C 64.5445 -3.8694 -2.21796 0
M  V30 668 C 65.2455 -5.69462 -1.1869 0
M  V30 669 N 64.2215 -5.16771 -1.68666 0
M  V30 670 H 68.0235 -2.90029 -0.475441 0
M  V30 671 H 65.5375 -1.61581 -0.162911 0
M  V30 672 H 67.5345 -2.95651 -2.93932 0
M  V30 673 H 66.1945 -1.80465 -2.69931 0
M  V30 674 H 67.2055 -5.08335 -0.990729 0
M  V30 675 H 63.8825 -3.16757 -2.71977 0
M  V30 676 H 65.2725 -6.68023 -0.720793 0
M  V30 677 N 67.9926 0.231505 -1.5589 0
M  V30 678 C 69.2386 0.95877 -1.78705 0
M  V30 679 C 69.5716 1.8438 -0.609725 0
M  V30 680 O 68.8466 1.90521 0.391426 0
M  V30 681 C 69.1296 1.8062 -3.11526 0
M  V30 682 C 68.9826 0.948328 -4.39689 0
M  V30 683 C 70.3016 2.78585 -3.40703 0
M  V30 684 H 67.4206 0.347129 -0.650131 0
M  V30 685 H 70.0626 0.228259 -1.88624 0
M  V30 686 H 68.2126 2.42902 -3.03201 0
M  V30 687 H 69.8846 0.343016 -4.60023 0
M  V30 688 H 68.1276 0.253314 -4.3306 0
M  V30 689 H 68.7986 1.57543 -5.29041 0
M  V30 690 H 71.2746 2.26439 -3.49091 0
M  V30 691 H 70.1506 3.34988 -4.34826 0
M  V30 692 H 70.4116 3.55825 -2.62375 0
M  V30 693 N 69.4707 1.49531 0.497807 0
M  V30 694 C 70.4007 1.6935 1.60757 0
M  V30 695 C 71.3817 0.542218 1.61227 0
M  V30 696 O 72.5667 0.778417 1.77917 0
M  V30 697 C 69.6967 1.76298 2.99226 0
M  V30 698 C 68.6507 2.91248 3.13622 0
M  V30 699 C 67.9767 2.83312 4.53474 0
M  V30 700 C 69.2767 4.3214 2.93346 0
M  V30 701 H 70.9707 2.62263 1.44425 0
M  V30 702 H 68.5167 1.26208 0.693367 0
M  V30 703 H 70.4697 1.88749 3.76765 0
M  V30 704 H 69.1937 0.799871 3.16654 0
M  V30 705 H 67.8527 2.78404 2.38509 0
M  V30 706 H 67.5007 1.84902 4.67782 0
M  V30 707 H 67.2007 3.60465 4.64046 0
M  V30 708 H 68.7247 2.97775 5.33069 0
M  V30 709 H 70.1387 4.45649 3.60652 0
M  V30 710 H 68.5357 5.1054 3.15387 0
M  V30 711 H 69.6057 4.46363 1.89441 0
M  V30 712 N 70.9488 -0.749086 1.3866 0
M  V30 713 C 71.8808 -1.87273 1.32142 0
M  V30 714 C 72.8938 -1.61127 0.232787 0
M  V30 715 O 74.0828 -1.71623 0.49069 0
M  V30 716 C 71.1828 -3.23005 1.02571 0
M  V30 717 C 70.3558 -3.7662 2.22433 0
M  V30 718 C 69.4148 -4.90879 1.89537 0
M  V30 719 O 68.4408 -5.05276 2.62078 0
M  V30 720 N 69.6428 -5.74198 0.853031 0
M  V30 721 H 72.4078 -1.93373 2.28969 0
M  V30 722 H 69.9688 -0.929216 1.32579 0
M  V30 723 H 71.9608 -3.96992 0.786085 0
M  V30 724 H 70.5308 -3.12262 0.145249 0
M  V30 725 H 69.7508 -2.94147 2.62434 0
M  V30 726 H 71.0388 -4.09173 3.02415 0
M  V30 727 H 70.4368 -5.6514 0.25155 0
M  V30 728 H 68.9938 -6.48313 0.67329 0
M  V30 729 N 72.4269 -1.23603 -0.977757 0
M  V30 730 C 73.3569 -1.04401 -2.0886 0
M  V30 731 C 74.3379 0.0399052 -1.70053 0
M  V30 732 O 75.5229 -0.125246 -1.93796 0
M  V30 733 C 72.6529 -0.637269 -3.41403 0
M  V30 734 C 71.6069 -1.66883 -3.94124 0
M  V30 735 C 70.9329 -1.11745 -5.22893 0
M  V30 736 C 72.2329 -3.06247 -4.23096 0
M  V30 737 H 73.9269 -1.97316 -2.25182 0
M  V30 738 H 71.4729 -0.950096 -1.08209 0
M  V30 739 H 73.4259 -0.48998 -4.18542 0
M  V30 740 H 72.1499 0.327557 -3.24953 0
M  V30 741 H 70.8089 -1.80416 -3.19133 0
M  V30 742 H 70.4569 -0.143527 -5.02795 0
M  V30 743 H 70.1569 -1.80672 -5.59134 0
M  V30 744 H 71.6809 -0.982067 -6.02651 0
M  V30 745 H 73.0949 -2.96001 -4.90975 0
M  V30 746 H 71.4919 -3.72436 -4.70544 0
M  V30 747 H 72.5619 -3.55041 -3.30263 0
M  V30 748 N 73.905 1.17692 -1.04816 0
M  V30 749 C 74.855 2.1952 -0.616042 0
M  V30 750 C 75.839 1.57147 0.345485 0
M  V30 751 O 77.031 1.76245 0.163325 0
M  V30 752 C 74.16 3.43298 0.0116917 0
M  V30 753 C 73.246 4.12777 -0.973435 0
M  V30 754 N 73.637 4.5814 -2.14339 0
M  V30 755 C 71.935 4.38747 -0.80108 0
M  V30 756 C 72.636 5.11713 -2.7663 0
M  V30 757 N 71.612 5.03686 -2.04453 0
M  V30 758 H 75.414 2.52293 -1.5075 0
M  V30 759 H 72.928 1.3398 -0.917776 0
M  V30 760 H 74.925 4.15519 0.339006 0
M  V30 761 H 73.585 3.12018 0.898593 0
M  V30 762 H 74.596 4.52349 -2.52191 0
M  V30 763 H 71.273 4.17485 0.0350934 0
M  V30 764 H 72.663 5.56962 -3.75823 0
M  V30 765 N 75.3831 0.828654 1.34056 0
M  V30 766 C 76.2931 0.256725 2.33191 0
M  V30 767 C 77.3091 -0.611898 1.62886 0
M  V30 768 O 78.4851 -0.51844 1.94613 0
M  V30 769 C 75.5501 -0.567238 3.42028 0
M  V30 770 C 74.6111 0.324458 4.28072 0
M  V30 771 C 73.8441 -0.460274 5.31712 0
M  V30 772 O 74.0671 -1.693 5.44696 0
M  V30 773 O 73.0011 0.160391 6.01686 0
M  V30 774 H 76.8271 1.07739 2.83947 0
M  V30 775 H 74.4121 0.59093 1.37217 0
M  V30 776 H 76.2941 -1.03582 4.08471 0
M  V30 777 H 74.9691 -1.36513 2.93506 0
M  V30 778 H 73.8761 0.840659 3.64532 0
M  V30 779 H 75.2091 1.08685 4.8005 0
M  V30 780 N 76.8612 -1.46375 0.584142 0
M  V30 781 C 77.7932 -2.28443 -0.186119 0
M  V30 782 C 78.8062 -1.38596 -0.854115 0
M  V30 783 O 79.9952 -1.63183 -0.723438 0
M  V30 784 C 77.0952 -3.13671 -1.28311 0
M  V30 785 C 76.2682 -4.31652 -0.706758 0
M  V30 786 C 75.3272 -4.98267 -1.69163 0
M  V30 787 O 74.3532 -5.55815 -1.22712 0
M  V30 788 N 75.5552 -4.95408 -3.02575 0
M  V30 789 H 78.3202 -2.9519 0.517986 0
M  V30 790 H 75.8812 -1.56303 0.42201 0
M  V30 791 H 77.8732 -3.55101 -1.94128 0
M  V30 792 H 76.4432 -2.48989 -1.89005 0
M  V30 793 H 75.6632 -3.93989 0.128908 0
M  V30 794 H 76.9512 -5.07906 -0.301506 0
M  V30 795 H 76.3492 -4.49902 -3.42936 0
M  V30 796 H 74.9062 -5.40774 -3.63877 0
M  V30 797 N 78.3393 -0.321999 -1.54275 0
M  V30 798 C 79.6163 0.335232 -1.92706 0
M  V30 799 C 79.9963 1.70006 -1.25145 0
M  V30 800 O 79.3443 2.25067 -0.394596 0
M  V30 801 C 79.5543 0.429008 -3.46353 0
M  V30 802 C 80.9023 0.690029 -4.18956 0
M  V30 803 O 81.9263 0.511992 -3.52501 0
M  V30 804 O 80.7853 1.03338 -5.36641 0
M  V30 805 H 77.8793 0.191143 -0.804608 0
M  V30 806 H 80.4253 -0.3716 -1.65581 0
M  V30 807 H 79.1973 -0.529611 -3.87699 0
M  V30 808 H 78.8203 1.18348 -3.79578 0
M  V30 809 N 79.8174 1.5752 -0.0501392 0
M  V30 810 C 80.7804 2.1037 0.909786 0
M  V30 811 C 81.7804 1.02308 1.24056 0
M  V30 812 O 82.9704 1.28385 1.17741 0
M  V30 813 C 80.1024 2.58708 2.21998 0
M  V30 814 H 81.2954 2.96479 0.451665 0
M  V30 815 H 78.8484 1.55038 0.198248 0
M  V30 816 H 79.5834 1.75989 2.72394 0
M  V30 817 H 79.3684 3.37675 1.99295 0
M  V30 818 H 80.8584 2.99747 2.9076 0
M  V30 819 N 81.2955 -0.223234 1.56011 0
M  V30 820 C 82.5435 -0.946003 1.78592 0
M  V30 821 C 82.8645 -1.84936 0.618349 0
M  V30 822 O 82.1345 -1.92473 -0.364833 0
M  V30 823 H 80.7145 -0.352298 0.658707 0
M  V30 824 H 83.3765 -0.235494 1.93472 0
M  V30 825 H 82.4725 -1.55381 2.70672 0
M  V30 826 N 82.7736 -1.49793 -0.48987 0
M  V30 827 C 84.0216 -1.59525 -1.24081 0
M  V30 828 C 84.3426 -0.288953 -1.92847 0
M  V30 829 O 83.6126 0.692436 -1.83254 0
M  V30 830 H 82.1926 -0.587796 -0.460983 0
M  V30 831 H 84.8546 -1.86477 -0.566778 0
M  V30 832 H 83.9506 -2.39696 -1.99881 0
M  V30 833 N 84.2517 0.741722 -1.39055 0
M  V30 834 C 85.6627 1.31966 -1.32068 0
M  V30 835 C 86.0137 1.96192 0.0180797 0
M  V30 836 O 85.1387 1.95861 0.920196 0
M  V30 837 C 85.7337 2.39954 -2.39181 0
M  V30 838 C 84.2927 2.93438 -2.35735 0
M  V30 839 C 83.4397 1.66936 -2.21422 0
M  V30 840 H 86.3907 0.539721 -1.4924 0
M  V30 841 H 86.4117 3.20182 -2.05581 0
M  V30 842 H 85.9237 1.9318 -3.36605 0
M  V30 843 H 84.0247 3.4451 -1.41929 0
M  V30 844 H 84.1377 3.4701 -3.30335 0
M  V30 845 H 82.5017 1.91016 -1.68478 0
M  V30 846 H 83.2847 1.22224 -3.20806 0
M  V30 847 N 85.7298 1.2412 0.971189 0
M  V30 848 C 86.9778 1.07668 1.71032 0
M  V30 849 C 87.2988 -0.385797 1.91146 0
M  V30 850 O 86.5688 -1.27569 1.4867 0
M  V30 851 H 85.1488 0.395429 0.633755 0
M  V30 852 H 87.8108 1.55984 1.16855 0
M  V30 853 H 86.9068 1.57195 2.69622 0
M  V30 854 N 87.2079 -1.17134 1.05439 0
M  V30 855 C 88.4559 -1.87085 0.764429 0
M  V30 856 C 88.7769 -1.81584 -0.710787 0
M  V30 857 O 88.0469 -1.24349 -1.51374 0
M  V30 858 H 86.6269 -0.692627 0.279779 0
M  V30 859 H 89.2889 -1.42087 1.33406 0
M  V30 860 H 88.3849 -2.92759 1.0816 0
M  V30 861 N 88.686 -0.835752 -1.33615 0
M  V30 862 C 89.649 -0.272 -2.2758 0
M  V30 863 C 90.649 0.557487 -1.50827 0
M  V30 864 O 91.839 0.37173 -1.70188 0
M  V30 865 C 88.971 0.617173 -3.35267 0
M  V30 866 H 90.164 -1.10111 -2.78954 0
M  V30 867 H 87.717 -0.608594 -1.43965 0
M  V30 868 H 88.452 1.46884 -2.89129 0
M  V30 869 H 88.237 0.0237066 -3.92093 0
M  V30 870 H 89.727 1.005 -4.05326 0
M  V30 871 N 90.1641 1.46063 -0.591896 0
M  V30 872 C 91.1271 2.28854 0.125973 0
M  V30 873 C 92.1271 1.38903 0.810107 0
M  V30 874 O 93.3171 1.61186 0.66066 0
M  V30 875 C 90.4491 3.19526 1.1881 0
M  V30 876 H 91.6421 2.93802 -0.601717 0
M  V30 877 H 89.1951 1.52325 -0.350254 0
M  V30 878 H 89.9301 2.59345 1.94707 0
M  V30 879 H 89.7151 3.85766 0.701936 0
M  V30 880 H 91.2051 3.81817 1.69132 0
M  V30 881 N 91.6422 0.330177 1.54103 0
M  V30 882 C 92.8902 -0.269871 2.0029 0
M  V30 883 C 93.2112 -1.52133 1.21986 0
M  V30 884 O 92.4812 -1.93212 0.323438 0
M  V30 885 H 91.0612 -0.10271 0.739905 0
M  V30 886 H 93.7232 0.448249 1.89675 0
M  V30 887 H 92.8192 -0.52166 3.07709 0
M  V30 888 N 93.1203 -1.57491 0.0584922 0
M  V30 889 C 94.3453 -1.97711 -0.62652 0
M  V30 890 C 94.7703 -0.936132 -1.63151 0
M  V30 891 O 94.1283 0.099811 -1.81025 0
M  V30 892 C 94.1763 -3.36989 -1.28338 0
M  V30 893 O 93.2803 -3.35433 -2.39913 0
M  V30 894 H 92.6213 -0.643868 -0.162266 0
M  V30 895 H 95.1513 -2.04193 0.129064 0
M  V30 896 H 95.1613 -3.73879 -1.63335 0
M  V30 897 H 93.8363 -4.12289 -0.546889 0
M  V30 898 H 92.4133 -3.10298 -2.06809 0
M  V30 899 N 94.5984 0.214957 -1.56127 0
M  V30 900 C 96.0094 0.781386 -1.69562 0
M  V30 901 C 96.3604 1.84707 -0.66165 0
M  V30 902 O 95.4854 2.156 0.185927 0
M  V30 903 C 96.0804 1.42411 -3.07416 0
M  V30 904 C 94.6394 1.93786 -3.22683 0
M  V30 905 C 93.7864 0.800438 -2.65496 0
M  V30 906 H 96.7374 -0.00980633 -1.58697 0
M  V30 907 H 96.7584 2.29309 -3.0364 0
M  V30 908 H 96.2704 0.64826 -3.82648 0
M  V30 909 H 94.3714 2.74152 -2.52332 0
M  V30 910 H 94.4844 2.1133 -4.29973 0
M  V30 911 H 92.8484 1.2095 -2.2415 0
M  V30 912 H 93.6314 0.0371471 -3.4328 0
M  V30 913 N 96.0765 1.50051 0.48192 0
M  V30 914 C 96.9865 1.7089 1.60728 0
M  V30 915 C 98.0025 0.591788 1.63627 0
M  V30 916 O 99.1785 0.868817 1.81696 0
M  V30 917 C 96.2435 1.78855 2.97005 0
M  V30 918 C 95.3045 3.02537 3.04581 0
M  V30 919 C 94.5375 3.10112 4.34357 0
M  V30 920 O 94.7605 2.24765 5.24249 0
M  V30 921 O 93.6945 4.02747 4.47301 0
M  V30 922 H 97.5205 2.66264 1.46072 0
M  V30 923 H 95.1055 1.34018 0.660264 0
M  V30 924 H 96.9875 1.86336 3.77964 0
M  V30 925 H 95.6625 0.866628 3.11883 0
M  V30 926 H 94.5695 3.00563 2.22739 0
M  V30 927 H 95.9025 3.94272 2.94636 0
M  V30 928 N 97.5546 -0.734337 1.39446 0
M  V30 929 C 98.7796 -1.52866 1.40167 0
M  V30 930 C 99.2046 -1.881 -0.00171513 0
M  V30 931 O 98.5626 -1.51957 -0.988879 0
M  V30 932 C 98.6106 -2.79235 2.28167 0
M  V30 933 O 97.7146 -3.75185 1.71201 0
M  V30 934 H 97.0556 -0.461618 0.477289 0
M  V30 935 H 99.5856 -0.905949 1.8345 0
M  V30 936 H 99.5956 -3.27963 2.42702 0
M  V30 937 H 98.2706 -2.52923 3.30156 0
M  V30 938 H 96.8476 -3.33958 1.65912 0
M  V30 939 N 99.0327 -1.24633 -0.964593 0
M  V30 940 C 100.449 -1.01239 -1.2338 0
M  V30 941 C 100.649 0.2769 -1.99588 0
M  V30 942 O 99.7047 0.992241 -2.32187 0
M  V30 943 C 101.018 -2.22937 -2.01791 0
M  V30 944 C 102.566 -2.27594 -2.14872 0
M  V30 945 C 103.041 -3.48921 -2.96678 0
M  V30 946 N 104.532 -3.49257 -3.04259 0
M  V30 947 C 105.267 -4.39795 -3.67924 0
M  V30 948 N 104.763 -5.40591 -4.33281 0
M  V30 949 N 106.556 -4.275 -3.64966 0
M  V30 950 H 98.7067 -2.0748 -0.454502 0
M  V30 951 H 100.97 -0.910647 -0.26349 0
M  V30 952 H 100.676 -3.16587 -1.53184 0
M  V30 953 H 100.55 -2.25306 -3.02518 0
M  V30 954 H 102.937 -1.34473 -2.6268 0
M  V30 955 H 103.018 -2.2925 -1.13482 0
M  V30 956 H 102.662 -4.42359 -2.49562 0
M  V30 957 H 102.592 -3.4451 -3.98272 0
M  V30 958 H 105.083 -2.76337 -2.57771 0
M  V30 959 H 105.396 -6.05904 -4.79687 0
M  V30 960 H 103.741 -5.44475 -4.3194 0
M  V30 961 H 106.932 -3.47987 -3.13086 0
M  V30 962 H 107.105 -4.98258 -4.14298 0
M  V30 963 N 100.511 1.16574 -1.06058 0
M  V30 964 C 101.474 2.19085 -0.673392 0
M  V30 965 C 102.474 1.5835 0.279648 0
M  V30 966 O 103.664 1.74088 0.0623488 0
M  V30 967 C 100.796 3.40899 0.00954234 0
M  V30 968 H 101.989 2.54853 -1.58081 0
M  V30 969 H 99.5418 1.30808 -0.855516 0
M  V30 970 H 100.277 3.10684 0.929826 0
M  V30 971 H 100.062 3.86233 -0.67573 0
M  V30 972 H 101.552 4.1675 0.266245 0
M  V30 973 N 101.989 0.842826 1.3317 0
M  V30 974 C 103.214 0.453129 2.02389 0
M  V30 975 C 103.639 -0.939105 1.6298 0
M  V30 976 O 102.997 -1.61472 0.8244 0
M  V30 977 C 103.045 0.586094 3.55805 0
M  V30 978 O 102.149 -0.386029 4.10589 0
M  V30 979 H 101.49 0.183664 0.638094 0
M  V30 980 H 104.02 1.13875 1.69981 0
M  V30 981 H 104.03 0.469209 4.05293 0
M  V30 982 H 102.705 1.6014 3.83833 0
M  V30 983 H 101.282 -0.226371 3.72212 0
M  V30 984 N 103.467 -1.45747 0.599634 0
M  V30 985 C 104.883 -1.57424 0.26264 0
M  V30 986 C 105.083 -1.59222 -1.23493 0
M  V30 987 O 104.139 -1.51825 -2.01756 0
M  V30 988 C 105.452 -2.86061 0.926795 0
M  V30 989 C 107 -2.99722 0.901967 0
M  V30 990 C 107.475 -4.31119 1.54598 0
M  V30 991 N 108.966 -4.37858 1.5111 0
M  V30 992 C 109.701 -5.3818 1.97863 0
M  V30 993 N 109.197 -6.45083 2.52666 0
M  V30 994 N 110.99 -5.29487 1.88679 0
M  V30 995 H 103.141 -1.42823 1.57211 0
M  V30 996 H 105.404 -0.68235 0.658105 0
M  V30 997 H 105.11 -2.90605 1.98095 0
M  V30 998 H 104.984 -3.74563 0.445238 0
M  V30 999 H 107.371 -2.9475 -0.143617 0
M  V30 1000 H 107.452 -2.12652 1.42171 0
M  V30 1001 H 107.096 -4.36849 2.59085 0
M  V30 1002 H 107.026 -5.16992 1.00132 0
M  V30 1003 H 109.517 -3.61209 1.11068 0
M  V30 1004 H 109.83 -7.17869 2.86155 0
M  V30 1005 H 108.175 -6.45856 2.56701 0
M  V30 1006 H 111.366 -4.44877 1.4561 0
M  V30 1007 H 111.539 -6.07524 2.25429 0
M  V30 1008 N 104.945 -0.338344 -1.53925 0
M  V30 1009 C 106.191 0.260143 -2.01125 0
M  V30 1010 C 106.524 1.50617 -1.22589 0
M  V30 1011 O 105.799 1.91979 -0.312113 0
M  V30 1012 C 106.082 0.579499 -3.55407 0
M  V30 1013 C 105.935 -0.678264 -4.44657 0
M  V30 1014 C 107.254 1.39122 -4.17532 0
M  V30 1015 H 104.373 0.0930772 -0.731099 0
M  V30 1016 H 107.015 -0.457852 -1.84401 0
M  V30 1017 H 105.165 1.19118 -3.69788 0
M  V30 1018 H 106.837 -1.31631 -4.42121 0
M  V30 1019 H 105.08 -1.3042 -4.13731 0
M  V30 1020 H 105.751 -0.410143 -5.50474 0
M  V30 1021 H 108.227 0.874035 -4.06817 0
M  V30 1022 H 107.103 1.58342 -5.25565 0
M  V30 1023 H 107.364 2.39178 -3.71815 0
M  V30 1024 N 106.423 1.57458 -0.0668435 0
M  V30 1025 C 107.839 1.56947 0.289772 0
M  V30 1026 C 108.039 1.07584 1.70376 0
M  V30 1027 O 107.095 0.739486 2.41429 0
M  V30 1028 C 108.408 3.0052 0.103943 0
M  V30 1029 C 109.956 3.12517 0.173857 0
M  V30 1030 C 110.431 4.57997 0.0163682 0
M  V30 1031 N 111.922 4.63144 0.0721352 0
M  V30 1032 C 112.657 5.73394 -0.0253794 0
M  V30 1033 N 112.153 6.92576 -0.176133 0
M  V30 1034 N 113.946 5.62091 0.0313305 0
M  V30 1035 H 106.097 1.87863 -0.991027 0
M  V30 1036 H 108.36 0.86583 -0.38606 0
M  V30 1037 H 108.066 3.40729 -0.871572 0
M  V30 1038 H 107.94 3.67304 0.858366 0
M  V30 1039 H 110.327 2.72197 1.13985 0
M  V30 1040 H 110.408 2.48381 -0.611586 0
M  V30 1041 H 110.052 4.99005 -0.946374 0
M  V30 1042 H 109.982 5.20158 0.821153 0
M  V30 1043 H 112.473 3.77436 0.187263 0
M  V30 1044 H 112.786 7.72418 -0.242821 0
M  V30 1045 H 111.131 6.94678 -0.211429 0
M  V30 1046 H 114.322 4.67867 0.147773 0
M  V30 1047 H 114.495 6.47982 -0.048121 0
M  V30 1048 N 107.901 -0.206675 1.56239 0
M  V30 1049 C 108.864 -1.23976 1.92776 0
M  V30 1050 C 109.864 -1.39041 0.807729 0
M  V30 1051 O 111.054 -1.37051 1.0753 0
M  V30 1052 C 108.186 -2.61112 2.19165 0
M  V30 1053 H 109.379 -0.927764 2.85189 0
M  V30 1054 H 106.932 -0.447718 1.4975 0
M  V30 1055 H 107.667 -2.97386 1.29352 0
M  V30 1056 H 107.452 -2.51552 3.00772 0
M  V30 1057 H 108.942 -3.35633 2.48476 0
M  V30 1058 N 109.379 -1.50304 -0.473955 0
M  V30 1059 C 110.656 -1.51667 -1.23518 0
M  V30 1060 C 111.036 -0.259701 -2.09496 0
M  V30 1061 O 110.384 0.756986 -2.15597 0
M  V30 1062 C 110.594 -2.81082 -2.06868 0
M  V30 1063 C 111.942 -3.31631 -2.65153 0
M  V30 1064 O 112.966 -2.82384 -2.17113 0
M  V30 1065 O 111.825 -4.17471 -3.52675 0
M  V30 1066 H 108.919 -0.60822 -0.560355 0
M  V30 1067 H 111.465 -1.62592 -0.486011 0
M  V30 1068 H 110.237 -3.64041 -1.4349 0
M  V30 1069 H 109.86 -2.73146 -2.88924 0
M  V30 1070 N 110.857 0.726932 -1.39834 0
M  V30 1071 C 111.767 1.87131 -1.41489 0
M  V30 1072 C 112.783 1.71239 -0.308757 0
M  V30 1073 O 113.959 1.93701 -0.551529 0
M  V30 1074 C 111.024 3.22811 -1.26468 0
M  V30 1075 C 110.085 3.51039 -2.47124 0
M  V30 1076 C 109.318 4.80245 -2.3281 0
M  V30 1077 O 109.541 5.54537 -1.33585 0
M  V30 1078 O 108.475 5.08554 -3.21957 0
M  V30 1079 H 112.301 1.8869 -2.3797 0
M  V30 1080 H 109.886 0.875837 -1.21035 0
M  V30 1081 H 111.768 4.03877 -1.20255 0
M  V30 1082 H 110.443 3.22005 -0.330862 0
M  V30 1083 H 109.35 2.70027 -2.58914 0
M  V30 1084 H 110.683 3.56632 -3.39227 0
M  V30 1085 N 112.336 1.25143 0.95797 0
M  V30 1086 C 113.582 1.09855 1.70469 0
M  V30 1087 C 113.915 -0.360187 1.90831 0
M  V30 1088 O 113.19 -1.26568 1.47685 0
M  V30 1089 C 113.473 1.8497 3.08963 0
M  V30 1090 C 113.326 3.38652 2.96032 0
M  V30 1091 C 114.645 1.63016 4.08795 0
M  V30 1092 H 111.764 0.400465 0.618706 0
M  V30 1093 H 114.406 1.53933 1.11376 0
M  V30 1094 H 112.556 1.47505 3.59409 0
M  V30 1095 H 114.228 3.85772 2.52938 0
M  V30 1096 H 112.471 3.66534 2.32025 0
M  V30 1097 H 113.142 3.8642 3.94187 0
M  V30 1098 H 115.618 1.95625 3.67247 0
M  V30 1099 H 114.494 2.18015 5.03747 0
M  V30 1100 H 114.755 0.570692 4.38401 0
M  V30 1101 N 113.814 -1.1601 1.06675 0
M  V30 1102 C 115.23 -1.38622 0.790948 0
M  V30 1103 C 115.43 -1.92109 -0.607965 0
M  V30 1104 O 114.486 -2.12239 -1.36787 0
M  V30 1105 C 115.799 -2.36347 1.85905 0
M  V30 1106 C 117.347 -2.50023 1.88301 0
M  V30 1107 C 117.822 -3.51033 2.94176 0
M  V30 1108 N 119.313 -3.58563 2.93235 0
M  V30 1109 C 120.048 -4.36521 3.71803 0
M  V30 1110 N 119.544 -5.17869 4.602 0
M  V30 1111 N 121.337 -4.31541 3.60178 0
M  V30 1112 H 113.488 -0.796294 1.96908 0
M  V30 1113 H 115.751 -0.412597 0.853503 0
M  V30 1114 H 115.457 -2.04147 2.86386 0
M  V30 1115 H 115.331 -3.36042 1.71334 0
M  V30 1116 H 117.718 -2.81524 0.884769 0
M  V30 1117 H 117.799 -1.5035 2.06951 0
M  V30 1118 H 117.443 -3.20268 3.94196 0
M  V30 1119 H 117.373 -4.50445 2.72776 0
M  V30 1120 H 119.864 -3.00496 2.29152 0
M  V30 1121 H 120.177 -5.74578 5.16797 0
M  V30 1122 H 118.522 -5.17199 4.64253 0
M  V30 1123 H 121.713 -3.67051 2.90502 0
M  V30 1124 H 121.886 -4.9205 4.21653 0
M  V30 1125 N 115.292 -0.849877 -1.32721 0
M  V30 1126 C 116.222 -0.306308 -2.31482 0
M  V30 1127 C 117.203 0.591952 -1.59468 0
M  V30 1128 O 118.388 0.513199 -1.87296 0
M  V30 1129 C 115.518 0.510204 -3.43532 0
M  V30 1130 C 114.472 -0.293209 -4.26994 0
M  V30 1131 C 113.798 0.647743 -5.30762 0
M  V30 1132 C 115.098 -1.51634 -4.99804 0
M  V30 1133 H 116.792 -1.13153 -2.77195 0
M  V30 1134 H 114.338 -0.545553 -1.33266 0
M  V30 1135 H 116.291 0.900856 -4.11658 0
M  V30 1136 H 115.015 1.36874 -2.96535 0
M  V30 1137 H 113.674 -0.665555 -3.60508 0
M  V30 1138 H 113.322 1.50299 -4.8002 0
M  V30 1139 H 113.022 0.11422 -5.87489 0
M  V30 1140 H 114.546 1.03567 -6.01753 0
M  V30 1141 H 115.96 -1.19824 -5.60638 0
M  V30 1142 H 114.357 -1.98745 -5.66234 0
M  V30 1143 H 115.427 -2.28018 -4.27943 0
M  V30 1144 N 116.77 1.45427 -0.607355 0
M  V30 1145 C 117.702 2.2871 0.149752 0
M  V30 1146 C 118.715 1.39937 0.831958 0
M  V30 1147 O 119.904 1.64313 0.697385 0
M  V30 1148 C 117.004 3.15673 1.23304 0
M  V30 1149 C 116.177 4.32722 0.637996 0
M  V30 1150 C 115.236 5.00895 1.61215 0
M  V30 1151 O 114.262 5.57697 1.13854 0
M  V30 1152 N 115.464 5.00159 2.94655 0
M  V30 1153 H 118.229 2.94328 -0.564882 0
M  V30 1154 H 115.79 1.55612 -0.446823 0
M  V30 1155 H 117.782 3.58144 1.88454 0
M  V30 1156 H 116.352 2.51965 1.8502 0
M  V30 1157 H 115.572 3.93734 -0.191572 0
M  V30 1158 H 116.86 5.08321 0.220665 0
M  V30 1159 H 116.258 4.553 3.35735 0
M  V30 1160 H 114.815 5.46495 3.55228 0
M  V30 1161 N 118.248 0.346503 1.53744 0
M  V30 1162 C 119.488 -0.249413 2.02873 0
M  V30 1163 C 119.852 -1.47532 1.22876 0
M  V30 1164 O 121.053 -2.1456 1.61918 0
M  V30 1165 C 119.324 -0.552909 3.53097 0
M  V30 1166 S 120.883 -1.12521 4.24128 0
M  V30 1167 H 117.701 -0.074042 0.707134 0
M  V30 1168 H 120.303 0.48495 1.8939 0
M  V30 1169 H 119.007 0.347083 4.0893 0
M  V30 1170 H 118.538 -1.31686 3.70705 0
M  V30 1171 H 120.553 -2.41075 4.33702 0
M  V30 1172 N 119.726 -1.57421 0.075193 0
M  V30 1173 C 120.658 -2.09904 -0.920483 0
M  V30 1174 C 121.671 -1.03191 -1.25918 0
M  V30 1175 O 122.86 -1.30695 -1.21577 0
M  V30 1176 C 119.96 -2.54726 -2.23534 0
M  V30 1177 C 119.133 -3.8505 -2.07498 0
M  V30 1178 C 118.192 -4.15929 -3.22319 0
M  V30 1179 O 117.218 -4.85474 -2.9716 0
M  V30 1180 N 118.42 -3.69745 -4.47514 0
M  V30 1181 H 121.185 -2.95954 -0.472359 0
M  V30 1182 H 118.746 -1.61523 -0.110444 0
M  V30 1183 H 120.738 -2.72443 -2.9926 0
M  V30 1184 H 119.308 -1.73795 -2.59835 0
M  V30 1185 H 118.528 -3.76679 -1.16219 0
M  V30 1186 H 119.816 -4.70348 -1.94038 0
M  V30 1187 H 119.214 -3.13569 -4.7084 0
M  V30 1188 H 117.771 -3.92655 -5.20255 0
M  V30 1189 N 121.204 0.198386 -1.56346 0
M  V30 1190 C 122.429 0.939682 -1.84891 0
M  V30 1191 C 122.854 1.76202 -0.658369 0
M  V30 1192 O 122.212 1.76993 0.392851 0
M  V30 1193 C 122.26 1.81428 -3.11635 0
M  V30 1194 O 121.364 2.91265 -2.91956 0
M  V30 1195 H 120.705 0.264807 -0.608912 0
M  V30 1196 H 123.235 0.204695 -2.03573 0
M  V30 1197 H 123.245 2.21958 -3.42343 0
M  V30 1198 H 121.92 1.21004 -3.97908 0
M  V30 1199 H 120.497 2.54514 -2.72538 0
M  V30 1200 N 122.682 1.50554 0.465978 0
M  V30 1201 C 123.93 1.61479 1.21528 0
M  V30 1202 C 124.251 0.319596 1.92363 0
M  V30 1203 O 123.521 -0.663194 1.84333 0
M  V30 1204 H 122.101 0.595055 0.451573 0
M  V30 1205 H 124.763 1.87355 0.53704 0
M  V30 1206 H 123.859 2.42846 1.96042 0
M  V30 1207 N 124.16 -0.719506 1.40217 0
M  V30 1208 C 125.385 -1.51371 1.4178 0
M  V30 1209 C 125.81 -1.88091 0.0182355 0
M  V30 1210 O 125.168 -1.52997 -0.972707 0
M  V30 1211 C 125.216 -2.768 2.31115 0
M  V30 1212 O 124.32 -3.73349 1.7517 0
M  V30 1213 H 123.661 -0.456529 0.482159 0
M  V30 1214 H 126.191 -0.88644 1.844 0
M  V30 1215 H 126.201 -3.25371 2.46167 0
M  V30 1216 H 124.876 -2.49407 3.3282 0
M  V30 1217 H 123.453 -3.32179 1.69444 0
M  V30 1218 N 125.638 -1.25649 -0.95132 0
M  V30 1219 C 126.886 -1.10375 -1.69298 0
M  V30 1220 C 127.207 0.355339 -1.91735 0
M  V30 1221 O 126.477 1.25188 -1.50681 0
M  V30 1222 H 125.057 -0.405461 -0.627384 0
M  V30 1223 H 127.719 -1.57823 -1.14358 0
M  V30 1224 H 126.815 -1.61465 -2.67087 0
M  V30 1225 N 127.117 1.15442 -1.07289 0
M  V30 1226 C 128.364 1.86213 -0.795668 0
M  V30 1227 C 128.692 1.82291 0.678238 0
M  V30 1228 O 127.947 1.24057 1.51355 0
M  V30 1229 C 128.246 3.3489 -1.24834 0
M  V30 1230 C 127.912 3.59007 -2.72809 0
M  V30 1231 C 126.574 3.65298 -3.13227 0
M  V30 1232 C 128.926 3.68762 -3.68326 0
M  V30 1233 C 126.254 3.78854 -4.4798 0
M  V30 1234 C 128.606 3.83842 -5.0284 0
M  V30 1235 C 127.27 3.88378 -5.4288 0
M  V30 1236 H 126.54 0.681403 -0.291155 0
M  V30 1237 H 129.187 1.36435 -1.34379 0
M  V30 1238 H 127.492 3.8687 -0.619595 0
M  V30 1239 H 129.189 3.88052 -1.01076 0
M  V30 1240 H 125.779 3.5475 -2.40521 0
M  V30 1241 H 129.963 3.63202 -3.38227 0
M  V30 1242 H 125.219 3.80623 -4.78472 0
M  V30 1243 H 129.393 3.90332 -5.76727 0
M  V30 1244 H 127.02 3.98635 -6.47298 0
M  V30 1245 N 128.595 0.856903 1.32268 0
M  V30 1246 C 129.525 0.31858 2.31316 0
M  V30 1247 C 130.506 -0.583487 1.59779 0
M  V30 1248 O 131.691 -0.503259 1.87566 0
M  V30 1249 C 128.821 -0.491979 3.43798 0
M  V30 1250 C 127.775 0.315849 4.26833 0
M  V30 1251 C 127.101 -0.619586 5.31098 0
M  V30 1252 C 128.401 1.54282 4.98993 0
M  V30 1253 H 130.095 1.14621 2.76591 0
M  V30 1254 H 127.641 0.552613 1.32974 0
M  V30 1255 H 129.594 -0.879012 4.1213 0
M  V30 1256 H 128.318 -1.35299 2.97257 0
M  V30 1257 H 126.977 0.684664 3.6015 0
M  V30 1258 H 126.625 -1.47751 4.8081 0
M  V30 1259 H 126.325 -0.0830621 5.87541 0
M  V30 1260 H 127.849 -1.00375 6.02293 0
M  V30 1261 H 129.263 1.22796 5.59995 0
M  V30 1262 H 127.66 2.01745 5.65172 0
M  V30 1263 H 128.73 2.30285 4.26728 0
M  V30 1264 N 130.073 -1.45103 0.615059 0
M  V30 1265 C 130.983 -2.34382 -0.101034 0
M  V30 1266 C 131.999 -1.51681 -0.852585 0
M  V30 1267 O 133.175 -1.8446 -0.808484 0
M  V30 1268 C 130.24 -3.29417 -1.08099 0
M  V30 1269 C 129.301 -4.28025 -0.330577 0
M  V30 1270 C 128.534 -5.1852 -1.26385 0
M  V30 1271 O 128.757 -5.12598 -2.50198 0
M  V30 1272 O 127.691 -5.97122 -0.756866 0
M  V30 1273 H 131.517 -2.97033 0.632855 0
M  V30 1274 H 129.102 -1.4461 0.375293 0
M  V30 1275 H 130.984 -3.87958 -1.6452 0
M  V30 1276 H 129.659 -2.69321 -1.79577 0
M  V30 1277 H 128.566 -3.73078 0.276283 0
M  V30 1278 H 129.899 -4.90997 0.343866 0
M  V30 1279 N 131.551 -0.354651 -1.53558 0
M  V30 1280 C 132.799 0.237972 -2.00694 0
M  V30 1281 C 133.12 1.50173 -1.24391 0
M  V30 1282 O 132.39 1.92673 -0.354135 0
M  V30 1283 H 130.97 0.0909256 -0.741446 0
M  V30 1284 H 133.632 -0.478368 -1.88938 0
M  V30 1285 H 132.728 0.47264 -3.085 0
M  V30 1286 N 133.029 1.57378 -0.0835403 0
M  V30 1287 C 133.959 2.1641 0.87686 0
M  V30 1288 C 134.94 1.09429 1.30228 0
M  V30 1289 O 136.125 1.37516 1.37124 0
M  V30 1290 C 133.255 2.73517 2.14022 0
M  V30 1291 C 132.209 3.85769 1.85381 0
M  V30 1292 C 131.535 4.29529 3.18448 0
M  V30 1293 C 132.835 5.09486 1.14984 0
M  V30 1294 H 134.529 2.96914 0.385059 0
M  V30 1295 H 132.075 1.42823 0.18377 0
M  V30 1296 H 134.028 3.13463 2.81636 0
M  V30 1297 H 132.752 1.90252 2.65465 0
M  V30 1298 H 131.411 3.46345 1.20169 0
M  V30 1299 H 131.059 3.43169 3.67755 0
M  V30 1300 H 130.759 5.05204 3.00071 0
M  V30 1301 H 132.283 4.72099 3.8724 0
M  V30 1302 H 133.697 5.46674 1.72687 0
M  V30 1303 H 132.094 5.90515 1.06826 0
M  V30 1304 H 133.164 4.84724 0.130749 0
M  V30 1305 N 134.507 -0.190092 1.56449 0
M  V30 1306 C 135.754 -0.909705 1.80916 0
M  V30 1307 C 136.082 -1.83047 0.657583 0
M  V30 1308 O 135.337 -1.92428 -0.356356 0
M  V30 1309 C 135.636 -1.75382 3.1141 0
M  V30 1310 C 135.302 -0.983606 4.40041 0
M  V30 1311 C 133.964 -0.770967 4.74984 0
M  V30 1312 C 136.316 -0.442024 5.19322 0
M  V30 1313 C 133.644 -0.0053448 5.867 0
M  V30 1314 C 135.996 0.310412 6.31838 0
M  V30 1315 C 134.66 0.534023 6.6536 0
M  V30 1316 H 133.93 -0.332885 0.662019 0
M  V30 1317 H 136.577 -0.175762 1.90692 0
M  V30 1318 H 134.882 -2.55659 2.96893 0
M  V30 1319 H 136.579 -2.31331 3.27547 0
M  V30 1320 H 133.169 -1.15936 4.12622 0
M  V30 1321 H 137.353 -0.593693 4.92736 0
M  V30 1322 H 132.609 0.177825 6.11141 0
M  V30 1323 H 136.783 0.737419 6.92485 0
M  V30 1324 H 134.41 1.12918 7.51767 0
M  V30 1325 N 135.985 -1.50799 -0.457987 0
M  V30 1326 C 137.233 -1.62121 -1.2067 0
M  V30 1327 C 137.554 -0.329793 -1.92191 0
M  V30 1328 O 136.824 0.653409 -1.84682 0
M  V30 1329 H 135.404 -0.597441 -0.448411 0
M  V30 1330 H 138.066 -1.87637 -0.527096 0
M  V30 1331 H 137.162 -2.43882 -1.94751 0
M  V30 1332 N 137.463 0.71206 -1.40597 0
M  V30 1333 C 138.703 1.48438 -1.40519 0
M  V30 1334 C 139.067 1.91998 -0.00767611 0
M  V30 1335 O 140.268 2.6854 0.118239 0
M  V30 1336 C 138.539 2.67514 -2.37004 0
M  V30 1337 S 140.098 3.56875 -2.55315 0
M  V30 1338 H 136.916 0.507457 -0.498005 0
M  V30 1339 H 139.518 0.832355 -1.76896 0
M  V30 1340 H 138.222 2.33689 -3.37368 0
M  V30 1341 H 137.753 3.37625 -2.01923 0
M  V30 1342 H 139.768 4.62081 -1.8082 0
M  V30 1343 N 138.941 1.26152 0.944643 0
M  V30 1344 C 139.871 1.09902 2.06019 0
M  V30 1345 C 140.852 0.00519538 1.70099 0
M  V30 1346 O 142.037 0.176583 1.93396 0
M  V30 1347 C 139.167 0.727562 3.39594 0
M  V30 1348 C 138.121 1.77274 3.89561 0
M  V30 1349 C 137.447 1.25569 5.19747 0
M  V30 1350 C 138.747 3.17357 4.14827 0
M  V30 1351 H 140.441 2.03217 2.19871 0
M  V30 1352 H 137.987 0.978452 1.05652 0
M  V30 1353 H 139.94 0.600777 4.17095 0
M  V30 1354 H 138.664 -0.241287 3.25707 0
M  V30 1355 H 137.323 1.88814 3.14237 0
M  V30 1356 H 136.971 0.276783 5.02238 0
M  V30 1357 H 136.671 1.95433 5.54148 0
M  V30 1358 H 138.195 1.1415 5.99835 0
M  V30 1359 H 139.609 3.08914 4.82954 0
M  V30 1360 H 138.006 3.84781 4.60504 0
M  V30 1361 H 139.076 3.63673 3.20734 0
M  V30 1362 N 140.419 -1.14872 1.07899 0
M  V30 1363 C 141.835 -1.37776 0.805606 0
M  V30 1364 C 142.035 -1.92743 -0.587555 0
M  V30 1365 O 141.091 -2.13678 -1.34528 0
M  V30 1366 C 142.404 -2.34361 1.88402 0
M  V30 1367 C 143.952 -2.48012 1.90942 0
M  V30 1368 C 144.427 -3.47893 2.97883 0
M  V30 1369 N 145.918 -3.55433 2.97021 0
M  V30 1370 C 146.653 -4.32553 3.76412 0
M  V30 1371 N 146.149 -5.12959 4.65666 0
M  V30 1372 N 147.942 -4.27697 3.64735 0
M  V30 1373 H 140.093 -0.775365 1.97742 0
M  V30 1374 H 142.356 -0.403521 0.857831 0
M  V30 1375 H 142.062 -2.01098 2.88535 0
M  V30 1376 H 141.936 -3.34206 1.74889 0
M  V30 1377 H 144.323 -2.8057 0.914579 0
M  V30 1378 H 144.404 -1.48147 2.08534 0
M  V30 1379 H 144.048 -3.16069 3.97571 0
M  V30 1380 H 143.978 -4.47527 2.77538 0
M  V30 1381 H 146.469 -2.98048 2.32326 0
M  V30 1382 H 146.782 -5.69065 5.22862 0
M  V30 1383 H 145.127 -5.12245 4.69712 0
M  V30 1384 H 148.318 -3.63949 2.94378 0
M  V30 1385 H 148.491 -4.8755 4.26848 0
M  V30 1386 N 141.898 -0.863906 -1.31812 0
M  V30 1387 C 143.309 -0.52522 -1.7916 0
M  V30 1388 C 143.66 0.957518 -1.71248 0
M  V30 1389 O 142.785 1.74734 -1.27659 0
M  V30 1390 C 143.38 -0.9466 -3.25307 0
M  V30 1391 C 141.939 -0.659668 -3.70574 0
M  V30 1392 C 141.086 -1.14126 -2.52726 0
M  V30 1393 H 144.037 -1.05022 -1.1898 0
M  V30 1394 H 144.058 -0.266766 -3.79564 0
M  V30 1395 H 143.57 -2.02579 -3.31034 0
M  V30 1396 H 141.671 0.408416 -3.70355 0
M  V30 1397 H 141.784 -1.23245 -4.62977 0
M  V30 1398 H 140.148 -0.561216 -2.4844 0
M  V30 1399 H 140.931 -2.22775 -2.61201 0
M  V30 1400 N 143.376 1.44774 -0.622745 0
M  V30 1401 C 144.622 2.0242 -0.124083 0
M  V30 1402 C 144.955 1.4881 1.24777 0
M  V30 1403 O 144.23 0.668799 1.8264 0
M  V30 1404 C 144.513 3.59957 -0.101619 0
M  V30 1405 C 144.366 4.23867 -1.50521 0
M  V30 1406 C 145.685 4.36284 0.578272 0
M  V30 1407 H 142.804 0.735528 -0.0465645 0
M  V30 1408 H 145.446 1.72447 -0.797617 0
M  V30 1409 H 143.596 3.85623 0.471934 0
M  V30 1410 H 145.268 4.09336 -2.12701 0
M  V30 1411 H 143.511 3.81684 -2.06154 0
M  V30 1412 H 144.182 5.32843 -1.4416 0
M  V30 1413 H 146.658 4.16001 0.0906057 0
M  V30 1414 H 145.534 5.46004 0.563149 0
M  V30 1415 H 145.795 4.10271 1.64713 0
M  V30 1416 N 144.854 0.36279 1.53368 0
M  V30 1417 C 146.1 -0.220702 2.02199 0
M  V30 1418 C 146.455 -1.46649 1.24546 0
M  V30 1419 O 145.748 -1.88737 0.32996 0
M  V30 1420 C 145.942 -0.568417 3.52851 0
M  V30 1421 C 145.771 0.642126 4.45092 0
M  V30 1422 C 144.541 1.15335 4.91961 0
M  V30 1423 C 146.739 1.50649 4.91741 0
M  V30 1424 N 144.721 2.3242 5.68202 0
M  V30 1425 C 146.092 2.52404 5.66297 0
M  V30 1426 C 148.147 1.52969 4.73819 0
M  V30 1427 C 146.85 3.56331 6.24836 0
M  V30 1428 C 148.876 2.55789 5.33222 0
M  V30 1429 C 148.238 3.56268 6.07662 0
M  V30 1430 H 144.337 -0.0435508 0.780786 0
M  V30 1431 H 146.921 0.506704 1.87991 0
M  V30 1432 H 145.092 -1.2649 3.67226 0
M  V30 1433 H 146.824 -1.13676 3.88407 0
M  V30 1434 H 143.579 0.718412 4.68119 0
M  V30 1435 H 144.003 2.91591 6.10986 0
M  V30 1436 H 148.645 0.766418 4.15795 0
M  V30 1437 H 146.363 4.33543 6.81958 0
M  V30 1438 H 149.949 2.58435 5.21251 0
M  V30 1439 H 148.829 4.34524 6.52808 0
M  V30 1440 N 146.332 -1.57332 0.0918853 0
M  V30 1441 C 147.56 -1.98574 -0.581048 0
M  V30 1442 C 147.975 -0.970903 -1.61923 0
M  V30 1443 O 147.332 0.0399054 -1.82456 0
M  V30 1444 C 147.383 -3.39872 -1.23164 0
M  V30 1445 O 147.104 -4.37469 -0.234989 0
M  V30 1446 C 148.605 -3.96099 -1.99049 0
M  V30 1447 H 145.825 -0.65261 -0.156018 0
M  V30 1448 H 148.369 -2.0379 0.170225 0
M  V30 1449 H 146.524 -3.35679 -1.93386 0
M  V30 1450 H 146.938 -5.19751 -0.70418 0
M  V30 1451 H 148.412 -4.97127 -2.39934 0
M  V30 1452 H 148.889 -3.3374 -2.85507 0
M  V30 1453 H 149.495 -4.03755 -1.3365 0
M  V30 1454 N 147.81 0.181792 -1.56548 0
M  V30 1455 C 148.743 1.25366 -1.90679 0
M  V30 1456 C 149.721 1.43299 -0.768376 0
M  V30 1457 O 150.905 1.58475 -1.02068 0
M  V30 1458 C 148.032 2.61826 -2.1486 0
M  V30 1459 C 147.078 2.60688 -3.37556 0
M  V30 1460 S 147.911 2.10804 -4.92262 0
M  V30 1461 C 149.067 3.49062 -5.19525 0
M  V30 1462 H 149.3 0.962277 -2.81296 0
M  V30 1463 H 146.833 0.385892 -1.495 0
M  V30 1464 H 148.791 3.40371 -2.29473 0
M  V30 1465 H 147.452 2.88169 -1.24969 0
M  V30 1466 H 146.645 3.61058 -3.51643 0
M  V30 1467 H 146.247 1.90232 -3.22006 0
M  V30 1468 H 148.539 4.45003 -5.10861 0
M  V30 1469 H 149.482 3.39859 -6.2121 0
M  V30 1470 H 149.89 3.4459 -4.47122 0
M  V30 1471 N 149.288 1.51039 0.449983 0
M  V30 1472 C 150.537 1.62317 1.19733 0
M  V30 1473 C 150.85 0.339101 1.92638 0
M  V30 1474 O 152.056 0.331069 2.69474 0
M  V30 1475 C 150.512 2.86608 2.17678 0
M  V30 1476 C 150.12 4.21972 1.50479 0
M  V30 1477 C 151.864 3.07239 2.92924 0
M  V30 1478 C 149.771 5.37426 2.46834 0
M  V30 1479 H 148.701 0.604532 0.450619 0
M  V30 1480 H 151.352 1.77494 0.465625 0
M  V30 1481 H 149.734 2.65037 2.94231 0
M  V30 1482 H 150.908 4.53878 0.795716 0
M  V30 1483 H 149.223 4.07117 0.874344 0
M  V30 1484 H 151.82 3.90668 3.65079 0
M  V30 1485 H 152.163 2.19807 3.5354 0
M  V30 1486 H 152.696 3.29091 2.23481 0
M  V30 1487 H 149.435 6.27079 1.90926 0
M  V30 1488 H 148.955 5.09912 3.15832 0
M  V30 1489 H 150.634 5.68862 3.08228 0
M  V30 1490 N 150.766 -0.704594 1.40972 0
M  V30 1491 C 152.014 -1.46169 1.39568 0
M  V30 1492 C 152.335 -1.95 0.00253745 0
M  V30 1493 O 151.605 -1.71095 -0.954114 0
M  V30 1494 H 150.185 -0.542326 0.513704 0
M  V30 1495 H 152.847 -0.834553 1.76128 0
M  V30 1496 H 151.943 -2.32922 2.07735 0
M  V30 1497 N 152.244 -1.26651 -0.937939 0
M  V30 1498 C 153.191 -1.0849 -2.03712 0
M  V30 1499 C 154.161 0.011033 -1.66096 0
M  V30 1500 O 155.346 -0.149353 -1.90215 0
M  V30 1501 C 152.486 -0.72735 -3.37348 0
M  V30 1502 C 151.599 -1.89986 -3.87981 0
M  V30 1503 C 150.734 -1.48513 -5.10017 0
M  V30 1504 C 149.773 -2.62575 -5.5292 0
M  V30 1505 N 148.91 -2.21762 -6.66158 0
M  V30 1506 H 153.75 -2.02551 -2.18579 0
M  V30 1507 H 151.287 -1.00844 -1.07093 0
M  V30 1508 H 153.245 -0.50092 -4.14182 0
M  V30 1509 H 151.875 0.176298 -3.22318 0
M  V30 1510 H 150.927 -2.23913 -3.07518 0
M  V30 1511 H 152.239 -2.75586 -4.15757 0
M  V30 1512 H 151.393 -1.21934 -5.94321 0
M  V30 1513 H 150.132 -0.60009 -4.83994 0
M  V30 1514 H 149.137 -2.8988 -4.67172 0
M  V30 1515 H 150.362 -3.51685 -5.80943 0
M  V30 1516 H 148.308 -1.35696 -6.41812 0
M  V30 1517 H 148.225 -3.00903 -6.93537 0
M  V30 1518 H 149.493 -1.98403 -7.53828 0
M  V30 1519 N 153.722 1.14298 -1.08507 0
M  V30 1520 C 154.685 2.17607 -0.719711 0
M  V30 1521 C 155.685 1.58907 0.245997 0
M  V30 1522 O 156.875 1.74181 0.0254081 0
M  V30 1523 C 154.007 3.40842 -0.0627695 0
M  V30 1524 H 155.2 2.51443 -1.63452 0
M  V30 1525 H 152.753 1.28963 -0.88307 0
M  V30 1526 H 153.488 3.12587 0.863716 0
M  V30 1527 H 153.273 3.84713 -0.757504 0
M  V30 1528 H 154.763 4.17221 0.177786 0
M  V30 1529 N 155.201 0.870884 1.31352 0
M  V30 1530 C 156.431 0.496049 2.00557 0
M  V30 1531 C 156.839 -0.916241 1.65534 0
M  V30 1532 O 156.182 -1.61188 0.881134 0
M  V30 1533 C 156.244 0.574418 3.54881 0
M  V30 1534 C 155.908 1.94849 4.1338 0
M  V30 1535 C 156.905 2.91611 4.30417 0
M  V30 1536 C 154.59 2.25005 4.49086 0
M  V30 1537 C 156.584 4.16672 4.82352 0
M  V30 1538 C 154.271 3.50315 5.00722 0
M  V30 1539 C 155.269 4.45964 5.17306 0
M  V30 1540 O 154.957 5.69052 5.67833 0
M  V30 1541 H 154.689 0.191664 0.64826 0
M  V30 1542 H 157.243 1.17409 1.68536 0
M  V30 1543 H 155.473 -0.160549 3.86367 0
M  V30 1544 H 157.162 0.212879 4.05341 0
M  V30 1545 H 157.928 2.69622 4.03149 0
M  V30 1546 H 153.807 1.51332 4.35453 0
M  V30 1547 H 157.351 4.91336 4.95211 0
M  V30 1548 H 153.248 3.72147 5.27424 0
M  V30 1549 H 154.016 5.71236 5.86201 0
M  V30 1550 N 156.679 -1.44442 0.630414 0
M  V30 1551 C 157.904 -2.06927 0.139944 0
M  V30 1552 C 158.329 -1.46795 -1.17613 0
M  V30 1553 O 157.687 -0.569144 -1.72135 0
M  V30 1554 C 157.735 -3.6058 0.0379581 0
M  V30 1555 O 156.839 -3.99937 -1.0062 0
M  V30 1556 H 156.18 -0.658608 0.0844483 0
M  V30 1557 H 158.71 -1.85327 0.866891 0
M  V30 1558 H 158.72 -4.07714 -0.152856 0
M  V30 1559 H 157.395 -4.03728 0.998809 0
M  V30 1560 H 155.972 -3.64436 -0.79001 0
M  V30 1561 N 158.157 -0.370918 -1.53173 0
M  V30 1562 C 159.385 0.217704 -2.05751 0
M  V30 1563 C 159.8 1.42018 -1.24404 0
M  V30 1564 O 159.157 1.80245 -0.286033 0
M  V30 1565 C 159.208 0.605954 -3.56385 0
M  V30 1566 O 158.929 -0.548734 -4.3465 0
M  V30 1567 C 160.43 1.2524 -4.25241 0
M  V30 1568 H 157.65 0.0371659 -0.66997 0
M  V30 1569 H 160.194 -0.530832 -1.9749 0
M  V30 1570 H 158.349 1.3044 -3.6478 0
M  V30 1571 H 158.763 -0.23376 -5.23979 0
M  V30 1572 H 160.237 1.47458 -5.3194 0
M  V30 1573 H 160.714 2.2143 -3.79296 0
M  V30 1574 H 161.32 0.595233 -4.21114 0
M  V30 1575 N 159.635 1.57281 -0.100228 0
M  V30 1576 C 160.545 2.17833 0.870965 0
M  V30 1577 C 161.561 1.14921 1.30649 0
M  V30 1578 O 162.737 1.47313 1.37335 0
M  V30 1579 C 159.802 2.75085 2.1102 0
M  V30 1580 C 158.863 3.9297 1.72838 0
M  V30 1581 C 158.096 4.47482 2.90854 0
M  V30 1582 O 158.319 4.00922 4.05731 0
M  V30 1583 O 157.253 5.38433 2.69023 0
M  V30 1584 H 161.079 3.0124 0.38575 0
M  V30 1585 H 158.664 1.48881 0.124397 0
M  V30 1586 H 160.546 3.11656 2.83634 0
M  V30 1587 H 159.221 1.94721 2.58584 0
M  V30 1588 H 158.128 3.61201 0.973883 0
M  V30 1589 H 159.461 4.74713 1.30033 0
M  V30 1590 N 161.113 -0.173488 1.56642 0
M  V30 1591 C 162.063 -1.21941 1.92651 0
M  V30 1592 C 163.047 -1.39912 0.794577 0
M  V30 1593 O 164.239 -1.41919 1.05773 0
M  V30 1594 C 161.368 -2.55935 2.28806 0
M  V30 1595 C 160.454 -2.41667 3.48508 0
M  V30 1596 N 160.845 -1.9711 4.65813 0
M  V30 1597 C 159.143 -2.72499 3.53072 0
M  V30 1598 C 159.844 -1.95253 5.47952 0
M  V30 1599 N 158.82 -2.37575 4.88937 0
M  V30 1600 H 162.622 -0.866581 2.80834 0
M  V30 1601 H 160.136 -0.381776 1.57849 0
M  V30 1602 H 162.133 -3.31511 2.52797 0
M  V30 1603 H 160.793 -2.92022 1.41961 0
M  V30 1604 H 161.804 -1.67481 4.90072 0
M  V30 1605 H 158.481 -3.12639 2.767 0
M  V30 1606 H 159.871 -1.6252 6.51948 0
M  V30 1607 N 162.591 -1.51276 -0.441967 0
M  V30 1608 C 163.538 -1.72256 -1.53612 0
M  V30 1609 C 164.508 -0.564164 -1.56225 0
M  V30 1610 O 165.693 -0.798074 -1.73307 0
M  V30 1611 C 162.833 -1.84932 -2.91366 0
M  V30 1612 C 161.946 -3.12459 -2.98317 0
M  V30 1613 C 161.081 -3.15758 -4.27166 0
M  V30 1614 C 160.12 -4.37619 -4.27967 0
M  V30 1615 N 159.257 -4.38493 -5.48333 0
M  V30 1616 H 164.097 -2.65654 -1.35026 0
M  V30 1617 H 161.634 -1.31662 -0.656009 0
M  V30 1618 H 163.592 -1.90263 -3.7129 0
M  V30 1619 H 162.222 -0.949461 -3.08521 0
M  V30 1620 H 161.274 -3.1646 -2.11086 0
M  V30 1621 H 162.586 -4.02382 -2.94771 0
M  V30 1622 H 161.74 -3.19979 -5.15459 0
M  V30 1623 H 160.479 -2.23715 -4.33362 0
M  V30 1624 H 159.484 -4.33579 -3.38067 0
M  V30 1625 H 160.709 -5.30921 -4.23438 0
M  V30 1626 H 158.655 -3.49318 -5.55259 0
M  V30 1627 H 158.572 -5.22219 -5.46647 0
M  V30 1628 H 159.84 -4.469 -6.38671 0
M  V30 1629 N 164.069 0.697108 -1.41344 0
M  V30 1630 C 165.001 1.8224 -1.39001 0
M  V30 1631 C 166.014 1.60152 -0.292428 0
M  V30 1632 O 167.203 1.69684 -0.554048 0
M  V30 1633 C 164.303 3.18976 -1.14489 0
M  V30 1634 C 163.476 3.68105 -2.36258 0
M  V30 1635 C 162.535 4.83506 -2.07625 0
M  V30 1636 O 161.561 4.95201 -2.8065 0
M  V30 1637 N 162.763 5.70637 -1.06555 0
M  V30 1638 H 165.528 1.84742 -2.35988 0
M  V30 1639 H 163.089 0.87937 -1.35936 0
M  V30 1640 H 165.081 3.93801 -0.932885 0
M  V30 1641 H 163.651 3.11508 -0.261043 0
M  V30 1642 H 162.871 2.84204 -2.7317 0
M  V30 1643 H 164.159 3.97667 -3.17393 0
M  V30 1644 H 163.557 5.63817 -0.461125 0
M  V30 1645 H 162.114 6.45368 -0.913444 0
M  V30 1646 N 165.547 1.27147 0.931209 0
M  V30 1647 C 166.479 1.05364 2.03546 0
M  V30 1648 C 167.492 0.0108438 1.62796 0
M  V30 1649 O 168.681 0.25202 1.76712 0
M  V30 1650 C 165.781 0.575566 3.33977 0
M  V30 1651 C 164.954 1.68985 4.03439 0
M  V30 1652 C 164.013 1.20813 5.12143 0
M  V30 1653 O 163.039 1.90712 5.363 0
M  V30 1654 N 164.241 0.0618851 5.80467 0
M  V30 1655 H 167.006 2.00454 2.22796 0
M  V30 1656 H 164.567 1.18666 1.10136 0
M  V30 1657 H 166.559 0.237264 4.04004 0
M  V30 1658 H 165.129 -0.282016 3.11325 0
M  V30 1659 H 164.349 2.19861 3.27192 0
M  V30 1660 H 165.637 2.4378 4.46597 0
M  V30 1661 H 165.035 -0.521621 5.6329 0
M  V30 1662 H 163.592 -0.217264 6.51438 0
M  V30 1663 N 167.025 -1.13721 1.09112 0
M  V30 1664 C 167.957 -2.1871 0.685467 0
M  V30 1665 C 168.97 -1.60527 -0.271068 0
M  V30 1666 O 170.159 -1.78407 -0.0576148 0
M  V30 1667 C 167.259 -3.38898 -0.0111255 0
M  V30 1668 C 166.432 -4.26597 0.966131 0
M  V30 1669 C 165.491 -5.25324 0.303539 0
M  V30 1670 O 164.517 -5.61213 0.950177 0
M  V30 1671 N 165.719 -5.72779 -0.943651 0
M  V30 1672 H 168.484 -2.54126 1.58871 0
M  V30 1673 H 166.045 -1.29012 0.978143 0
M  V30 1674 H 168.037 -4.02014 -0.465517 0
M  V30 1675 H 166.607 -3.01747 -0.816565 0
M  V30 1676 H 165.827 -3.60306 1.59917 0
M  V30 1677 H 167.115 -4.82048 1.6281 0
M  V30 1678 H 166.513 -5.45762 -1.48862 0
M  V30 1679 H 165.07 -6.37847 -1.34142 0
M  V30 1680 N 168.503 -0.877838 -1.30888 0
M  V30 1681 C 169.413 -0.343096 -2.32078 0
M  V30 1682 C 170.429 0.551022 -1.65045 0
M  V30 1683 O 171.605 0.445854 -1.96403 0
M  V30 1684 C 168.67 0.439905 -3.43898 0
M  V30 1685 C 167.731 -0.483111 -4.26573 0
M  V30 1686 C 166.964 0.262616 -5.33053 0
M  V30 1687 O 167.187 1.48967 -5.50604 0
M  V30 1688 O 166.121 -0.383593 -6.00676 0
M  V30 1689 H 169.947 -1.18203 -2.79753 0
M  V30 1690 H 167.532 -0.64145 -1.34929 0
M  V30 1691 H 169.414 0.883504 -4.12034 0
M  V30 1692 H 168.089 1.25526 -2.98371 0
M  V30 1693 H 166.996 -0.975374 -3.61161 0
M  V30 1694 H 168.329 -1.26427 -4.75686 0
M  V30 1695 N 169.982 1.44106 -0.638065 0
M  V30 1696 C 171.259 1.95453 -0.0759321 0
M  V30 1697 C 171.639 1.57984 1.40015 0
M  V30 1698 O 170.987 0.857361 2.11806 0
M  V30 1699 C 171.197 3.47655 -0.306132 0
M  V30 1700 C 172.545 4.24114 -0.203008 0
M  V30 1701 O 173.569 3.55405 -0.237871 0
M  V30 1702 O 172.428 5.46381 -0.113827 0
M  V30 1703 H 169.522 0.826797 0.0183332 0
M  V30 1704 H 172.068 1.54122 -0.710251 0
M  V30 1705 H 170.84 3.68 -1.3301 0
M  V30 1706 H 170.463 3.95949 0.361991 0
M  V30 1707 N 171.46 0.379036 1.52974 0
M  V30 1708 C 172.39 -0.452706 2.29069 0
M  V30 1709 C 173.371 -1.07237 1.32039 0
M  V30 1710 O 174.556 -1.08708 1.60923 0
M  V30 1711 C 171.686 -1.5856 3.08992 0
M  V30 1712 C 170.64 -1.0925 4.13822 0
M  V30 1713 C 169.966 -2.31668 4.81907 0
M  V30 1714 C 171.266 -0.167702 5.22031 0
M  V30 1715 H 172.96 0.182181 2.98845 0
M  V30 1716 H 170.506 0.0890592 1.43724 0
M  V30 1717 H 172.459 -2.1742 3.6098 0
M  V30 1718 H 171.183 -2.24792 2.36931 0
M  V30 1719 H 169.842 -0.526494 3.628 0
M  V30 1720 H 169.49 -2.96386 4.06404 0
M  V30 1721 H 169.19 -1.9934 5.52754 0
M  V30 1722 H 170.714 -2.91189 5.36695 0
M  V30 1723 H 172.128 -0.664186 5.6944 0
M  V30 1724 H 170.525 0.0653265 6.00064 0
M  V30 1725 H 171.595 0.786347 4.78482 0
M  V30 1726 N 172.938 -1.57226 0.108567 0
M  V30 1727 C 174.184 -1.95919 -0.546564 0
M  V30 1728 C 174.539 -0.990417 -1.6495 0
M  V30 1729 O 173.832 -0.0186593 -1.91591 0
M  V30 1730 C 174.026 -3.38911 -1.13463 0
M  V30 1731 C 173.855 -4.4961 -0.0901926 0
M  V30 1732 C 172.625 -5.04168 0.338008 0
M  V30 1733 C 174.823 -5.09693 0.686808 0
M  V30 1734 N 172.805 -5.98434 1.36931 0
M  V30 1735 C 174.176 -5.99804 1.56958 0
M  V30 1736 C 176.231 -4.92388 0.738846 0
M  V30 1737 C 174.934 -6.74463 2.49983 0
M  V30 1738 C 176.96 -5.67719 1.65676 0
M  V30 1739 C 176.322 -6.57507 2.52713 0
M  V30 1740 H 172.421 -0.763312 -0.169936 0
M  V30 1741 H 175.005 -1.93728 0.194264 0
M  V30 1742 H 173.176 -3.41769 -1.84522 0
M  V30 1743 H 174.908 -3.64752 -1.75322 0
M  V30 1744 H 171.663 -4.73571 -0.0523673 0
M  V30 1745 H 172.087 -6.5027 1.88356 0
M  V30 1746 H 176.729 -4.22724 0.080084 0
M  V30 1747 H 174.447 -7.4338 3.16878 0
M  V30 1748 H 178.033 -5.56338 1.70233 0
M  V30 1749 H 176.913 -7.14778 3.22586 0
M  V30 1750 N 174.416 0.165178 -1.56732 0
M  V30 1751 C 175.326 1.22423 -2.00125 0
M  V30 1752 C 176.342 1.48084 -0.913619 0
M  V30 1753 O 177.518 1.60112 -1.22172 0
M  V30 1754 C 174.583 2.54197 -2.35764 0
M  V30 1755 C 173.644 2.36343 -3.58386 0
M  V30 1756 C 172.877 3.61834 -3.92316 0
M  V30 1757 O 173.1 4.67267 -3.27135 0
M  V30 1758 O 172.034 3.55579 -4.85641 0
M  V30 1759 H 175.86 0.885886 -2.90492 0
M  V30 1760 H 173.445 0.372518 -1.44681 0
M  V30 1761 H 175.327 3.3192 -2.59629 0
M  V30 1762 H 174.002 2.87598 -1.48557 0
M  V30 1763 H 172.909 1.56632 -3.39731 0
M  V30 1764 H 174.242 2.07865 -4.46154 0
M  V30 1765 N 175.894 1.51508 0.433938 0
M  V30 1766 C 177.14 1.64588 1.18484 0
M  V30 1767 C 177.473 0.362666 1.90784 0
M  V30 1768 O 176.748 -0.637892 1.83742 0
M  V30 1769 C 177.031 2.85149 2.19913 0
M  V30 1770 C 176.884 4.23456 1.51674 0
M  V30 1771 C 178.203 3.01227 3.20858 0
M  V30 1772 H 175.322 0.598994 0.429389 0
M  V30 1773 H 177.964 1.84002 0.473647 0
M  V30 1774 H 176.114 2.68729 2.80566 0
M  V30 1775 H 177.786 4.51552 0.943322 0
M  V30 1776 H 176.029 4.25998 0.819035 0
M  V30 1777 H 176.7 5.03812 2.2556 0
M  V30 1778 H 179.176 3.16382 2.70263 0
M  V30 1779 H 178.052 3.87141 3.89118 0
M  V30 1780 H 178.313 2.13447 3.8716 0
M  V30 1781 N 177.372 -0.689602 1.41712 0
M  V30 1782 C 178.783 -1.26973 1.36875 0
M  V30 1783 C 179.134 -1.96124 0.054748 0
M  V30 1784 O 178.259 -1.99141 -0.84687 0
M  V30 1785 C 178.854 -2.30912 2.47922 0
M  V30 1786 C 177.413 -2.84486 2.46464 0
M  V30 1787 C 176.56 -1.58603 2.27465 0
M  V30 1788 H 179.511 -0.48396 1.51141 0
M  V30 1789 H 179.532 -3.12331 2.17323 0
M  V30 1790 H 179.044 -1.80554 3.43543 0
M  V30 1791 H 177.145 -3.39005 1.54617 0
M  V30 1792 H 177.258 -3.34511 3.42986 0
M  V30 1793 H 175.622 -1.84632 1.75451 0
M  V30 1794 H 176.405 -1.10233 3.25121 0
M  V30 1795 N 178.85 -1.27639 -0.924453 0
M  V30 1796 C 180.097 -1.14167 -1.67249 0
M  V30 1797 C 180.425 0.311863 -1.91984 0
M  V30 1798 O 179.68 1.24425 -1.51053 0
M  V30 1799 C 179.979 -1.87407 -3.04325 0
M  V30 1800 C 179.645 -3.37249 -2.99289 0
M  V30 1801 C 178.307 -3.7812 -2.97622 0
M  V30 1802 C 180.659 -4.32845 -2.90336 0
M  V30 1803 C 177.987 -5.12944 -2.8479 0
M  V30 1804 C 180.339 -5.6773 -2.79045 0
M  V30 1805 C 179.003 -6.07889 -2.7573 0
M  V30 1806 H 178.273 -0.417766 -0.612007 0
M  V30 1807 H 180.92 -1.58286 -1.07786 0
M  V30 1808 H 179.225 -1.35805 -3.67511 0
M  V30 1809 H 180.922 -1.74408 -3.61086 0
M  V30 1810 H 177.512 -3.04748 -3.01374 0
M  V30 1811 H 181.696 -4.02239 -2.90719 0
M  V30 1812 H 176.952 -5.432 -2.80612 0
M  V30 1813 H 181.126 -6.41472 -2.71083 0
M  V30 1814 H 178.753 -7.12314 -2.65544 0
M  V30 1815 N 180.328 1.1314 -1.09713 0
M  V30 1816 C 181.238 2.22242 -0.751367 0
M  V30 1817 C 182.254 1.72224 0.247938 0
M  V30 1818 O 183.43 2.01205 0.0885463 0
M  V30 1819 C 180.495 3.46231 -0.180274 0
M  V30 1820 C 179.556 4.11125 -1.2359 0
M  V30 1821 C 178.789 5.29195 -0.691966 0
M  V30 1822 O 179.012 5.68342 0.48414 0
M  V30 1823 O 177.946 5.84214 -1.44838 0
M  V30 1824 H 181.772 2.54197 -1.66186 0
M  V30 1825 H 179.357 1.21331 -0.871735 0
M  V30 1826 H 181.239 4.21185 0.134739 0
M  V30 1827 H 179.914 3.1597 0.703185 0
M  V30 1828 H 178.821 3.37985 -1.60366 0
M  V30 1829 H 180.154 4.45524 -2.09211 0
M  V30 1830 N 181.806 0.884767 1.30421 0
M  V30 1831 C 182.716 0.355398 2.31892 0
M  V30 1832 C 183.732 -0.542261 1.65335 0
M  V30 1833 O 184.908 -0.435432 1.96637 0
M  V30 1834 C 181.973 -0.421661 3.44126 0
M  V30 1835 C 181.034 0.505727 4.26311 0
M  V30 1836 C 180.267 -0.234343 5.33185 0
M  V30 1837 O 180.49 -1.46045 5.51386 0
M  V30 1838 O 179.424 0.415443 6.00465 0
M  V30 1839 H 183.25 1.19685 2.79122 0
M  V30 1840 H 180.835 0.648596 1.34587 0
M  V30 1841 H 182.717 -0.861641 4.12497 0
M  V30 1842 H 181.392 -1.23942 2.99032 0
M  V30 1843 H 180.299 0.994513 3.60639 0
M  V30 1844 H 181.632 1.28948 4.75009 0
M  V30 1845 N 183.284 -1.43765 0.645699 0
M  V30 1846 C 184.533 -2.01116 0.153412 0
M  V30 1847 C 184.846 -1.51493 -1.23731 0
M  V30 1848 O 186.052 -2.01067 -1.8244 0
M  V30 1849 C 184.508 -3.59206 0.223473 0
M  V30 1850 C 184.116 -4.17823 1.61642 0
M  V30 1851 C 185.86 -4.23972 -0.211597 0
M  V30 1852 C 183.767 -5.68183 1.64081 0
M  V30 1853 H 182.697 -0.752093 0.0535891 0
M  V30 1854 H 185.348 -1.6482 0.806633 0
M  V30 1855 H 183.73 -3.92867 -0.497118 0
M  V30 1856 H 184.904 -3.95674 2.36176 0
M  V30 1857 H 183.219 -3.65399 1.99681 0
M  V30 1858 H 185.816 -5.34275 -0.213112 0
M  V30 1859 H 186.159 -3.97352 -1.24165 0
M  V30 1860 H 186.692 -3.95166 0.456988 0
M  V30 1861 H 183.431 -5.99559 2.64971 0
M  V30 1862 H 182.951 -5.9241 0.938611 0
M  V30 1863 H 184.63 -6.32085 1.3812 0
M  V30 1864 N 184.763 -0.387143 -1.52771 0
M  V30 1865 C 185.693 0.440551 -2.29306 0
M  V30 1866 C 186.674 1.06535 -1.32606 0
M  V30 1867 O 187.859 1.07853 -1.61497 0
M  V30 1868 C 184.989 1.56919 -3.09829 0
M  V30 1869 C 183.943 1.07054 -4.14395 0
M  V30 1870 C 183.269 2.29109 -4.83129 0
M  V30 1871 C 184.569 0.140015 -5.22112 0
M  V30 1872 H 186.263 -0.198026 -2.98744 0
M  V30 1873 H 183.809 -0.09668 -1.43675 0
M  V30 1874 H 185.762 2.15503 -3.62128 0
M  V30 1875 H 184.486 2.23532 -2.3812 0
M  V30 1876 H 183.145 0.507247 -3.63074 0
M  V30 1877 H 182.793 2.94227 -4.0797 0
M  V30 1878 H 182.493 1.96406 -5.53804 0
M  V30 1879 H 184.017 2.88339 -5.38231 0
M  V30 1880 H 185.431 0.633978 -5.69784 0
M  V30 1881 H 183.828 -0.0971485 -6.00021 0
M  V30 1882 H 184.898 -0.811711 -4.78058 0
M  V30 1883 N 186.241 1.57166 -0.116904 0
M  V30 1884 C 187.518 1.86645 0.585049 0
M  V30 1885 C 187.898 1.0177 1.84949 0
M  V30 1886 O 187.246 0.0960379 2.28298 0
M  V30 1887 C 187.456 3.37736 0.879507 0
M  V30 1888 C 188.804 4.06289 1.23348 0
M  V30 1889 O 189.828 3.42743 0.969836 0
M  V30 1890 O 188.687 5.18455 1.7282 0
M  V30 1891 H 185.781 0.772593 0.295007 0
M  V30 1892 H 188.327 1.69025 -0.151249 0
M  V30 1893 H 187.099 3.91296 -0.0166136 0
M  V30 1894 H 186.722 3.6078 1.67103 0
M  V30 1895 N 187.719 -0.156864 1.56817 0
M  V30 1896 C 188.649 -1.19589 2.00551 0
M  V30 1897 C 189.63 -1.4536 0.883426 0
M  V30 1898 O 190.815 -1.56449 1.15054 0
M  V30 1899 C 187.945 -2.53143 2.37773 0
M  V30 1900 C 186.899 -2.41913 3.53075 0
M  V30 1901 C 186.225 -3.80088 3.76081 0
M  V30 1902 C 187.525 -1.91157 4.86062 0
M  V30 1903 H 189.219 -0.832293 2.87599 0
M  V30 1904 H 186.765 -0.398918 1.38364 0
M  V30 1905 H 188.718 -3.26047 2.66967 0
M  V30 1906 H 187.442 -2.91319 1.4765 0
M  V30 1907 H 186.101 -1.71462 3.24031 0
M  V30 1908 H 185.749 -4.15683 2.83225 0
M  V30 1909 H 185.449 -3.73439 4.53671 0
M  V30 1910 H 186.973 -4.54556 4.0769 0
M  V30 1911 H 188.387 -2.53846 5.14038 0
M  V30 1912 H 186.784 -1.95422 5.67389 0
M  V30 1913 H 187.854 -0.866673 4.77092 0
M  V30 1914 N 189.197 -1.51736 -0.425897 0
M  V30 1915 C 190.129 -1.70083 -1.53638 0
M  V30 1916 C 191.142 -0.581349 -1.52066 0
M  V30 1917 O 192.331 -0.856017 -1.56635 0
M  V30 1918 C 189.431 -1.71078 -2.9255 0
M  V30 1919 C 188.604 -2.99795 -3.185 0
M  V30 1920 C 187.663 -2.92825 -4.37196 0
M  V30 1921 O 186.689 -3.66756 -4.35291 0
M  V30 1922 N 187.891 -2.0946 -5.41393 0
M  V30 1923 H 190.656 -2.65882 -1.383 0
M  V30 1924 H 188.217 -1.49765 -0.614988 0
M  V30 1925 H 190.209 -1.63969 -3.69995 0
M  V30 1926 H 188.779 -0.828242 -3.01428 0
M  V30 1927 H 187.999 -3.20684 -2.2925 0
M  V30 1928 H 189.287 -3.84977 -3.32671 0
M  V30 1929 H 188.685 -1.48792 -5.45781 0
M  V30 1930 H 187.242 -2.08221 -6.17647 0
M  V30 1931 N 190.675 0.682077 -1.42076 0
M  V30 1932 C 191.921 1.44283 -1.43366 0
M  V30 1933 C 192.276 1.92344 -0.0465775 0
M  V30 1934 O 191.569 1.67517 0.929973 0
M  V30 1935 C 191.763 2.66036 -2.38662 0
M  V30 1936 C 191.592 2.29889 -3.86499 0
M  V30 1937 C 190.362 2.19599 -4.55087 0
M  V30 1938 C 192.56 1.91999 -4.77117 0
M  V30 1939 N 190.542 1.76478 -5.87987 0
M  V30 1940 C 191.913 1.59741 -5.99068 0
M  V30 1941 C 193.968 1.78927 -4.64639 0
M  V30 1942 C 192.671 1.15723 -7.0993 0
M  V30 1943 C 194.697 1.36314 -5.75476 0
M  V30 1944 C 194.059 1.04975 -6.96534 0
M  V30 1945 H 190.158 0.524739 -0.579805 0
M  V30 1946 H 192.742 0.787834 -1.78048 0
M  V30 1947 H 190.913 3.29237 -2.06053 0
M  V30 1948 H 192.645 3.32588 -2.30581 0
M  V30 1949 H 189.4 2.38433 -4.09202 0
M  V30 1950 H 189.824 1.57362 -6.58458 0
M  V30 1951 H 194.466 2.01805 -3.7153 0
M  V30 1952 H 192.184 0.91591 -8.02893 0
M  V30 1953 H 195.77 1.26731 -5.6783 0
M  V30 1954 H 194.65 0.725017 -7.80841 0
M  V30 1955 N 192.153 1.28127 0.917671 0
M  V30 1956 C 193.399 1.15223 1.66888 0
M  V30 1957 C 193.732 -0.299293 1.9188 0
M  V30 1958 O 193.007 -1.21805 1.51637 0
M  V30 1959 C 193.29 1.94706 3.02922 0
M  V30 1960 C 193.143 3.47898 2.85109 0
M  V30 1961 C 194.462 1.75939 4.03402 0
M  V30 1962 H 191.581 0.419946 0.605652 0
M  V30 1963 H 194.223 1.57398 1.06423 0
M  V30 1964 H 192.373 1.58864 3.54534 0
M  V30 1965 H 194.045 3.93624 2.40537 0
M  V30 1966 H 192.288 3.7373 2.20246 0
M  V30 1967 H 192.959 3.98765 3.81694 0
M  V30 1968 H 195.435 2.07209 3.60837 0
M  V30 1969 H 194.311 2.33931 4.96556 0
M  V30 1970 H 194.572 0.709877 4.36364 0
M  V30 1971 N 193.631 -1.12557 1.10312 0
M  V30 1972 C 194.879 -1.83675 0.843091 0
M  V30 1973 C 195.2 -1.84435 -0.633131 0
M  V30 1974 O 194.47 -1.30657 -1.45964 0
M  V30 1975 H 193.05 -0.680138 0.308904 0
M  V30 1976 H 195.712 -1.36301 1.39313 0
M  V30 1977 H 194.808 -2.87908 1.2048 0
M  V30 1978 N 195.109 -0.891671 -1.2995 0
M  V30 1979 C 196.334 -0.527932 -2.00568 0
M  V30 1980 C 196.759 0.877969 -1.66353 0
M  V30 1981 O 196.117 1.58301 -0.883762 0
M  V30 1982 C 196.165 -0.717745 -3.53385 0
M  V30 1983 O 195.269 0.233376 -4.11739 0
M  V30 1984 H 194.61 -0.20722 -0.630837 0
M  V30 1985 H 197.14 -1.20105 -1.65638 0
M  V30 1986 H 197.15 -0.619307 -4.03272 0
M  V30 1987 H 195.825 -1.74276 -3.77625 0
M  V30 1988 H 194.402 0.0880706 -3.72796 0
M  V30 1989 N 196.587 1.43421 -0.653314 0
M  V30 1990 C 197.835 2.01414 -0.166415 0
M  V30 1991 C 198.156 1.51803 1.22397 0
M  V30 1992 O 197.426 0.730693 1.81763 0
M  V30 1993 H 196.006 0.744703 -0.0585319 0
M  V30 1994 H 198.668 1.75629 -0.845003 0
M  V30 1995 H 197.764 3.11734 -0.151111 0
M  V30 1996 N 198.065 0.39524 1.52563 0
M  V30 1997 C 199.028 -0.425001 2.25225 0
M  V30 1998 C 200.028 -0.985266 1.27079 0
M  V30 1999 O 201.218 -0.866332 1.5113 0
M  V30 2000 C 198.35 -1.59686 3.01186 0
M  V30 2001 H 199.543 0.211233 2.99155 0
M  V30 2002 H 197.096 0.147472 1.55603 0
M  V30 2003 H 197.831 -2.27035 2.31572 0
M  V30 2004 H 197.616 -1.20176 3.73229 0
M  V30 2005 H 199.106 -2.17743 3.5634 0
M  V30 2006 N 199.544 -1.57102 0.125237 0
M  V30 2007 C 200.476 -2.12726 -0.853237 0
M  V30 2008 C 201.489 -1.07145 -1.22571 0
M  V30 2009 O 202.678 -1.34497 -1.17358 0
M  V30 2010 C 199.778 -2.61709 -2.15317 0
M  V30 2011 C 198.951 -3.91456 -1.95143 0
M  V30 2012 C 198.01 -4.25973 -3.08923 0
M  V30 2013 O 197.036 -4.94682 -2.81564 0
M  V30 2014 N 198.238 -3.83795 -4.35524 0
M  V30 2015 H 201.003 -2.97307 -0.377964 0
M  V30 2016 H 198.564 -1.61792 -0.0590011 0
M  V30 2017 H 200.556 -2.81826 -2.90441 0
M  V30 2018 H 199.126 -1.81974 -2.54174 0
M  V30 2019 H 198.346 -3.80185 -1.04177 0
M  V30 2020 H 199.634 -4.76283 -1.78976 0
M  V30 2021 H 199.032 -3.2839 -4.60626 0
M  V30 2022 H 197.589 -4.09008 -5.07499 0
M  V30 2023 N 201.022 0.148545 -1.56898 0
M  V30 2024 C 202.27 0.859717 -1.82902 0
M  V30 2025 C 202.591 1.81775 -0.70588 0
M  V30 2026 O 201.861 1.93994 0.272586 0
M  V30 2027 H 200.441 0.320469 -0.674766 0
M  V30 2028 H 203.103 0.142918 -1.94375 0
M  V30 2029 H 202.199 1.4229 -2.77777 0
M  V30 2030 N 202.5 1.5196 0.417844 0
M  V30 2031 C 203.463 1.74065 1.49111 0
M  V30 2032 C 204.463 0.610537 1.48758 0
M  V30 2033 O 205.653 0.87832 1.50437 0
M  V30 2034 C 202.785 1.81502 2.88565 0
M  V30 2035 H 203.978 2.69869 1.30807 0
M  V30 2036 H 201.531 1.42244 0.647785 0
M  V30 2037 H 202.266 0.875813 3.1225 0
M  V30 2038 H 202.051 2.63651 2.90225 0
M  V30 2039 H 203.541 2.00376 3.66387 0
M  V30 2040 N 203.978 -0.674533 1.42435 0
M  V30 2041 C 205.224 -1.43671 1.43131 0
M  V30 2042 C 205.557 -1.94142 0.0476021 0
M  V30 2043 O 204.832 -1.70924 -0.928188 0
M  V30 2044 C 205.115 -2.63355 2.45594 0
M  V30 2045 C 204.968 -2.18514 3.93156 0
M  V30 2046 C 206.287 -3.65571 2.45043 0
M  V30 2047 H 203.406 -0.521077 0.521198 0
M  V30 2048 H 206.048 -0.766551 1.7385 0
M  V30 2049 H 204.198 -3.2053 2.19528 0
M  V30 2050 H 205.87 -1.66504 4.30202 0
M  V30 2051 H 204.113 -1.50086 4.07009 0
M  V30 2052 H 204.784 -3.04484 4.60428 0
M  V30 2053 H 207.26 -3.18113 2.68223 0
M  V30 2054 H 206.136 -4.46893 3.18713 0
M  V30 2055 H 206.397 -4.16716 1.47649 0
M  V30 2056 N 205.456 -1.28612 -0.910864 0
M  V30 2057 C 206.703 -1.15934 -1.66029 0
M  V30 2058 C 207.031 0.291483 -1.92303 0
M  V30 2059 O 206.286 1.22816 -1.52364 0
M  V30 2060 C 206.585 -1.90624 -3.0232 0
M  V30 2061 C 206.251 -3.40405 -2.95695 0
M  V30 2062 C 204.913 -3.81255 -2.93595 0
M  V30 2063 C 207.265 -4.359 -2.85728 0
M  V30 2064 C 204.593 -5.15936 -2.79334 0
M  V30 2065 C 206.945 -5.70657 -2.73007 0
M  V30 2066 C 205.609 -6.10779 -2.69267 0
M  V30 2067 H 204.879 -0.424234 -0.607541 0
M  V30 2068 H 207.526 -1.5942 -1.06101 0
M  V30 2069 H 205.831 -1.39696 -3.6605 0
M  V30 2070 H 207.528 -1.78228 -3.59215 0
M  V30 2071 H 204.118 -3.07927 -2.98125 0
M  V30 2072 H 208.302 -4.053 -2.86436 0
M  V30 2073 H 203.558 -5.46146 -2.74835 0
M  V30 2074 H 207.732 -6.44311 -2.64264 0
M  V30 2075 H 205.359 -7.1509 -2.57974 0
M  V30 2076 N 206.934 1.1197 -1.10907 0
M  V30 2077 C 207.864 2.19928 -0.784473 0
M  V30 2078 C 208.845 1.6833 0.244726 0
M  V30 2079 O 210.03 1.93892 0.109418 0
M  V30 2080 C 207.16 3.46597 -0.220827 0
M  V30 2081 C 206.114 4.11376 -1.18127 0
M  V30 2082 C 205.44 5.32554 -0.478594 0
M  V30 2083 C 206.74 4.56945 -2.52979 0
M  V30 2084 H 208.434 2.47337 -1.68715 0
M  V30 2085 H 205.98 1.18879 -0.812642 0
M  V30 2086 H 207.933 4.21396 0.0184278 0
M  V30 2087 H 206.657 3.1863 0.717113 0
M  V30 2088 H 205.316 3.38564 -1.40606 0
M  V30 2089 H 204.964 5.00856 0.463976 0
M  V30 2090 H 204.664 5.76844 -1.11912 0
M  V30 2091 H 206.188 6.10096 -0.248 0
M  V30 2092 H 207.602 5.23093 -2.3462 0
M  V30 2093 H 205.999 5.1203 -3.12962 0
M  V30 2094 H 207.069 3.70676 -3.12614 0
M  V30 2095 N 208.412 0.89855 1.29475 0
M  V30 2096 C 209.66 0.522847 1.9522 0
M  V30 2097 C 209.981 -0.93371 1.71192 0
M  V30 2098 O 209.251 -1.65823 1.04305 0
M  V30 2099 H 207.831 0.190366 0.722336 0
M  V30 2100 H 210.493 1.14459 1.5775 0
M  V30 2101 H 209.589 0.704476 3.04045 0
M  V30 2102 N 209.89 -1.43072 0.660911 0
M  V30 2103 C 211.306 -1.56169 0.329173 0
M  V30 2104 C 211.506 -1.64317 -1.16629 0
M  V30 2105 O 210.562 -1.60245 -1.95135 0
M  V30 2106 C 211.875 -2.81873 1.04729 0
M  V30 2107 C 213.423 -2.95627 1.02828 0
M  V30 2108 C 213.898 -4.24174 1.72744 0
M  V30 2109 N 215.389 -4.31055 1.69545 0
M  V30 2110 C 216.124 -5.29304 2.20511 0
M  V30 2111 N 215.62 -6.33786 2.79799 0
M  V30 2112 N 217.413 -5.21008 2.10966 0
M  V30 2113 H 209.564 -1.36027 1.63127 0
M  V30 2114 H 211.827 -0.653823 0.686454 0
M  V30 2115 H 211.533 -2.81942 2.10242 0
M  V30 2116 H 211.407 -3.72338 0.603702 0
M  V30 2117 H 213.794 -2.95094 -0.0184742 0
M  V30 2118 H 213.875 -2.06431 1.51063 0
M  V30 2119 H 213.519 -4.25467 2.7738 0
M  V30 2120 H 213.449 -5.1228 1.2197 0
M  V30 2121 H 215.94 -3.56174 1.26288 0
M  V30 2122 H 216.253 -7.05086 3.16344 0
M  V30 2123 H 214.598 -6.34387 2.83863 0
M  V30 2124 H 217.789 -4.38301 1.64347 0
M  V30 2125 H 217.962 -5.97416 2.50993 0
M  V30 2126 N 211.368 -0.403325 -1.52352 0
M  V30 2127 C 212.615 0.174347 -2.01748 0
M  V30 2128 C 212.943 1.45636 -1.2892 0
M  V30 2129 O 212.198 1.9193 -0.382258 0
M  V30 2130 C 212.497 0.474665 -3.54234 0
M  V30 2131 C 212.163 -0.717458 -4.45155 0
M  V30 2132 C 210.825 -1.04447 -4.69728 0
M  V30 2133 C 213.177 -1.51432 -4.98716 0
M  V30 2134 C 210.505 -2.16963 -5.45109 0
M  V30 2135 C 212.857 -2.6302 -5.75329 0
M  V30 2136 C 211.521 -2.96213 -5.98175 0
M  V30 2137 H 210.791 0.0637981 -0.738248 0
M  V30 2138 H 213.438 -0.543553 -1.83624 0
M  V30 2139 H 211.743 1.27406 -3.70506 0
M  V30 2140 H 213.44 0.934496 -3.89959 0
M  V30 2141 H 210.03 -0.452596 -4.26204 0
M  V30 2142 H 214.214 -1.27491 -4.79645 0
M  V30 2143 H 209.47 -2.43034 -5.61021 0
M  V30 2144 H 213.644 -3.25158 -6.15829 0
M  V30 2145 H 211.271 -3.83516 -6.56368 0
M  V30 2146 N 212.846 1.57033 -0.133567 0
M  V30 2147 C 213.796 2.12641 0.822671 0
M  V30 2148 C 214.78 1.05081 1.21847 0
M  V30 2149 O 215.972 1.31287 1.18713 0
M  V30 2150 C 213.101 2.74094 2.06706 0
M  V30 2151 C 212.187 3.88757 1.69497 0
M  V30 2152 N 212.578 4.95194 1.03037 0
M  V30 2153 C 210.876 3.99213 1.98859 0
M  V30 2154 C 211.577 5.75414 0.852873 0
M  V30 2155 N 210.553 5.25726 1.3825 0
M  V30 2156 H 214.355 2.92308 0.305537 0
M  V30 2157 H 211.869 1.62256 0.0684276 0
M  V30 2158 H 213.866 3.12285 2.76195 0
M  V30 2159 H 212.526 1.95896 2.5895 0
M  V30 2160 H 213.537 5.13247 0.692669 0
M  V30 2161 H 210.214 3.32075 2.53047 0
M  V30 2162 H 211.604 6.71089 0.330091 0
M  V30 2163 N 214.325 -0.140222 1.56975 0
M  V30 2164 C 215.573 -0.850005 1.83356 0
M  V30 2165 C 215.894 -1.81399 0.71551 0
M  V30 2166 O 215.164 -1.94136 -0.262294 0
M  V30 2167 H 213.744 -0.316886 0.676456 0
M  V30 2168 H 216.406 -0.132608 1.94448 0
M  V30 2169 H 215.502 -1.40814 2.78528 0
M  V30 2170 N 215.803 -1.52179 -0.40978 0
M  V30 2171 C 216.713 -1.78364 -1.52392 0
M  V30 2172 C 217.729 -0.669183 -1.60617 0
M  V30 2173 O 218.905 -0.954518 -1.77344 0
M  V30 2174 C 215.97 -1.92822 -2.88133 0
M  V30 2175 C 215.031 -3.16725 -2.898 0
M  V30 2176 C 214.264 -3.30483 -4.19067 0
M  V30 2177 O 214.487 -2.49522 -5.12928 0
M  V30 2178 O 213.421 -4.2363 -4.27576 0
M  V30 2179 H 217.247 -2.72931 -1.33201 0
M  V30 2180 H 214.832 -1.37016 -0.59557 0
M  V30 2181 H 216.714 -2.04157 -3.68643 0
M  V30 2182 H 215.389 -1.01444 -3.07393 0
M  V30 2183 H 214.296 -3.10848 -2.08146 0
M  V30 2184 H 215.629 -4.07881 -2.75489 0
M  V30 2185 N 217.281 0.66697 -1.42791 0
M  V30 2186 C 218.191 1.80962 -1.49299 0
M  V30 2187 C 219.207 1.69775 -0.381108 0
M  V30 2188 O 220.383 1.91188 -0.633188 0
M  V30 2189 C 217.448 3.17156 -1.40045 0
M  V30 2190 C 216.509 3.40242 -2.6179 0
M  V30 2191 C 215.742 4.69939 -2.52969 0
M  V30 2192 O 215.965 5.48372 -1.56985 0
M  V30 2193 O 214.899 4.94441 -3.43237 0
M  V30 2194 H 218.725 1.78427 -2.45759 0
M  V30 2195 H 216.31 0.823713 -1.24641 0
M  V30 2196 H 218.192 3.98413 -1.37276 0
M  V30 2197 H 216.867 3.20312 -0.467138 0
M  V30 2198 H 215.774 2.58802 -2.70134 0
M  V30 2199 H 217.107 3.41923 -3.54047 0
M  V30 2200 N 218.759 1.29093 0.90403 0
M  V30 2201 C 220.005 1.16986 1.65656 0
M  V30 2202 C 220.338 -0.278925 1.92186 0
M  V30 2203 O 219.613 -1.2019 1.5292 0
M  V30 2204 C 219.896 1.97908 3.0084 0
M  V30 2205 C 219.749 3.50903 2.81403 0
M  V30 2206 C 221.068 1.80208 4.01513 0
M  V30 2207 H 218.187 0.426346 0.601164 0
M  V30 2208 H 220.829 1.58518 1.04747 0
M  V30 2209 H 218.979 1.62616 3.52829 0
M  V30 2210 H 220.651 3.96153 2.36348 0
M  V30 2211 H 218.894 3.76045 2.1627 0
M  V30 2212 H 219.565 4.02791 3.77443 0
M  V30 2213 H 222.041 2.11025 3.58619 0
M  V30 2214 H 220.917 2.39184 4.94047 0
M  V30 2215 H 221.178 0.756119 4.35586 0
M  V30 2216 N 220.237 -1.11381 1.11499 0
M  V30 2217 C 221.2 -2.15622 0.777153 0
M  V30 2218 C 222.2 -1.59504 -0.203779 0
M  V30 2219 O 223.39 -1.74188 0.020782 0
M  V30 2220 C 220.522 -3.40556 0.153116 0
M  V30 2221 H 221.715 -2.47021 1.70061 0
M  V30 2222 H 219.268 -1.26577 0.916952 0
M  V30 2223 H 220.003 -3.14767 -0.780536 0
M  V30 2224 H 219.788 -3.8257 0.859238 0
M  V30 2225 H 221.278 -4.17546 -0.0671044 0
M  V30 2226 N 221.715 -0.905404 -1.28997 0
M  V30 2227 C 222.961 -0.535039 -1.95615 0
M  V30 2228 C 223.294 0.917404 -1.71165 0
M  V30 2229 O 222.569 1.65123 -1.02785 0
M  V30 2230 C 222.852 -0.834918 -3.50287 0
M  V30 2231 C 222.705 -2.33948 -3.84172 0
M  V30 2232 C 224.024 -0.325318 -4.38896 0
M  V30 2233 H 221.143 -0.195861 -0.710498 0
M  V30 2234 H 223.785 -1.13313 -1.52513 0
M  V30 2235 H 221.935 -0.325904 -3.87131 0
M  V30 2236 H 223.607 -2.91847 -3.57243 0
M  V30 2237 H 221.85 -2.79789 -3.31513 0
M  V30 2238 H 222.521 -2.49987 -4.92149 0
M  V30 2239 H 224.997 -0.761256 -4.09077 0
M  V30 2240 H 223.873 -0.564295 -5.45992 0
M  V30 2241 H 224.134 0.774144 -4.35269 0
M  V30 2242 N 223.193 1.4272 -0.668489 0
M  V30 2243 C 224.14 2.30796 0.0137489 0
M  V30 2244 C 225.11 1.4561 0.799177 0
M  V30 2245 O 226.295 1.74453 0.772702 0
M  V30 2246 C 223.435 3.31377 0.963507 0
M  V30 2247 C 222.548 4.31655 0.172569 0
M  V30 2248 C 221.683 5.19312 1.1175 0
M  V30 2249 C 220.722 6.11274 0.317886 0
M  V30 2250 N 219.859 6.91504 1.2152 0
M  V30 2251 H 224.699 2.88585 -0.743161 0
M  V30 2252 H 222.236 1.42154 -0.378226 0
M  V30 2253 H 224.194 3.88214 1.52792 0
M  V30 2254 H 222.824 2.75202 1.68712 0
M  V30 2255 H 221.876 3.76988 -0.508374 0
M  V30 2256 H 223.188 4.96779 -0.448527 0
M  V30 2257 H 222.342 5.80851 1.75206 0
M  V30 2258 H 221.081 4.5435 1.77249 0
M  V30 2259 H 220.086 5.48809 -0.329918 0
M  V30 2260 H 221.311 6.78283 -0.332917 0
M  V30 2261 H 219.257 6.29176 1.85671 0
M  V30 2262 H 219.174 7.53209 0.649036 0
M  V30 2263 H 220.442 7.57535 1.83742 0
M  V30 2264 N 224.671 0.411399 1.52136 0
M  V30 2265 C 225.618 -0.412975 2.27075 0
M  V30 2266 C 226.588 -1.03912 1.29582 0
M  V30 2267 O 227.773 -1.06296 1.58448 0
M  V30 2268 C 224.913 -1.52247 3.09701 0
M  V30 2269 C 224.026 -0.917021 4.22155 0
M  V30 2270 C 223.161 -1.9994 4.92135 0
M  V30 2271 C 222.2 -1.37101 5.96548 0
M  V30 2272 N 221.337 -2.39364 6.60038 0
M  V30 2273 H 226.177 0.232499 2.97092 0
M  V30 2274 H 223.714 0.126496 1.46555 0
M  V30 2275 H 225.672 -2.17674 3.55913 0
M  V30 2276 H 224.302 -2.13794 2.41851 0
M  V30 2277 H 223.354 -0.151742 3.80097 0
M  V30 2278 H 224.666 -0.418006 4.97045 0
M  V30 2279 H 223.82 -2.73088 5.41763 0
M  V30 2280 H 222.559 -2.53208 4.16818 0
M  V30 2281 H 221.564 -0.624873 5.46237 0
M  V30 2282 H 222.789 -0.845998 6.7381 0
M  V30 2283 H 220.735 -2.91759 5.87548 0
M  V30 2284 H 220.652 -1.9428 7.3061 0
M  V30 2285 H 221.92 -3.12074 7.14304 0
M  V30 2286 N 226.149 -1.5696 0.141893 0
M  V30 2287 C 227.395 -1.9625 -0.511248 0
M  V30 2288 C 227.728 -1.02654 -1.64851 0
M  V30 2289 O 227.003 -0.0679676 -1.94381 0
M  V30 2290 C 227.286 -3.45285 -1.02227 0
M  V30 2291 C 227.139 -4.49658 0.113138 0
M  V30 2292 C 228.458 -3.96698 -1.90574 0
M  V30 2293 H 225.577 -0.713567 -0.184367 0
M  V30 2294 H 228.219 -1.88698 0.222087 0
M  V30 2295 H 226.369 -3.51852 -1.64719 0
M  V30 2296 H 228.041 -4.55174 0.749302 0
M  V30 2297 H 226.284 -4.26857 0.773026 0
M  V30 2298 H 226.955 -5.51258 -0.286053 0
M  V30 2299 H 229.431 -3.92578 -1.37918 0
M  V30 2300 H 228.307 -5.01453 -2.2324 0
M  V30 2301 H 228.568 -3.3875 -2.84079 0
M  V30 2302 N 227.627 0.131896 -1.57047 0
M  V30 2303 C 229.043 0.485031 -1.52051 0
M  V30 2304 C 229.243 1.82563 -0.85281 0
M  V30 2305 O 228.299 2.48817 -0.429694 0
M  V30 2306 C 229.612 0.481409 -2.96821 0
M  V30 2307 C 231.16 0.565868 -3.07842 0
M  V30 2308 C 231.635 0.592762 -4.54148 0
M  V30 2309 N 233.126 0.654564 -4.58552 0
M  V30 2310 C 233.861 0.696608 -5.69153 0
M  V30 2311 N 233.357 0.697078 -6.89284 0
M  V30 2312 N 235.15 0.738639 -5.57226 0
M  V30 2313 H 227.301 -0.746664 -1.98843 0
M  V30 2314 H 229.564 -0.273999 -0.90754 0
M  V30 2315 H 229.27 -0.435731 -3.4899 0
M  V30 2316 H 229.144 1.3139 -3.53577 0
M  V30 2317 H 231.531 1.47343 -2.55684 0
M  V30 2318 H 231.612 -0.29406 -2.54104 0
M  V30 2319 H 231.256 -0.310701 -5.06949 0
M  V30 2320 H 231.186 1.46939 -5.05684 0
M  V30 2321 H 233.677 0.660887 -3.72076 0
M  V30 2322 H 233.99 0.731426 -7.69331 0
M  V30 2323 H 232.335 0.66471 -6.91814 0
M  V30 2324 H 235.526 0.735545 -4.62285 0
M  V30 2325 H 235.699 0.767938 -6.43434 0
M  V30 2326 N 229.106 1.52395 0.401703 0
M  V30 2327 C 230.383 1.57387 1.16141 0
M  V30 2328 C 230.763 0.359359 2.08019 0
M  V30 2329 O 230.111 -0.65326 2.18963 0
M  V30 2330 C 230.321 2.90631 1.93221 0
M  V30 2331 C 231.669 3.43904 2.49028 0
M  V30 2332 O 232.693 2.92421 2.03393 0
M  V30 2333 O 231.552 4.33823 3.32356 0
M  V30 2334 H 228.646 0.634262 0.530698 0
M  V30 2335 H 231.192 1.64725 0.407883 0
M  V30 2336 H 229.964 3.70473 1.25958 0
M  V30 2337 H 229.587 2.8662 2.75563 0
M  V30 2338 N 230.584 -0.659388 1.43143 0
M  V30 2339 C 231.514 -1.78422 1.50625 0
M  V30 2340 C 232.495 -1.66216 0.361443 0
M  V30 2341 O 233.68 -1.85404 0.577834 0
M  V30 2342 C 230.81 -3.16815 1.42287 0
M  V30 2343 C 229.764 -3.43777 2.54954 0
M  V30 2344 C 229.09 -4.81905 2.31671 0
M  V30 2345 C 230.39 -3.39134 3.97222 0
M  V30 2346 H 232.084 -1.72417 2.44771 0
M  V30 2347 H 229.63 -0.828084 1.17808 0
M  V30 2348 H 231.583 -3.95253 1.46127 0
M  V30 2349 H 230.307 -3.23534 0.446435 0
M  V30 2350 H 228.966 -2.67707 2.50457 0
M  V30 2351 H 228.614 -4.85294 1.32284 0
M  V30 2352 H 228.314 -5.00906 3.07192 0
M  V30 2353 H 229.838 -5.62609 2.37284 0
M  V30 2354 H 231.252 -4.07518 4.03239 0
M  V30 2355 H 229.649 -3.69671 4.72719 0
M  V30 2356 H 230.719 -2.37426 4.22797 0
M  V30 2357 N 232.062 -1.29571 -0.897171 0
M  V30 2358 C 233.009 -1.14916 -2.00158 0
M  V30 2359 C 233.979 -0.0418149 -1.66047 0
M  V30 2360 O 235.164 -0.209793 -1.89643 0
M  V30 2361 C 232.304 -0.834307 -3.34863 0
M  V30 2362 C 231.417 -2.02234 -3.8174 0
M  V30 2363 C 230.552 -1.64664 -5.05034 0
M  V30 2364 C 229.591 -2.80033 -5.44286 0
M  V30 2365 N 228.728 -2.42843 -6.58765 0
M  V30 2366 H 233.568 -2.09403 -2.12025 0
M  V30 2367 H 231.105 -1.042 -1.0383 0
M  V30 2368 H 233.063 -0.632436 -4.12379 0
M  V30 2369 H 231.693 0.0736656 -3.22716 0
M  V30 2370 H 230.745 -2.33583 -3.00238 0
M  V30 2371 H 232.057 -2.88673 -4.06779 0
M  V30 2372 H 231.211 -1.4078 -5.9014 0
M  V30 2373 H 229.95 -0.753766 -4.8184 0
M  V30 2374 H 228.955 -3.04596 -4.57713 0
M  V30 2375 H 230.18 -3.69989 -5.6946 0
M  V30 2376 H 228.126 -1.56046 -6.3717 0
M  V30 2377 H 228.043 -3.22815 -6.83613 0
M  V30 2378 H 229.311 -2.22285 -7.47134 0
M  V30 2379 N 233.54 1.10788 -1.12088 0
M  V30 2380 C 234.45 2.20599 -0.798338 0
M  V30 2381 C 235.466 1.72712 0.21135 0
M  V30 2382 O 236.642 2.01348 0.0458477 0
M  V30 2383 C 233.707 3.45771 -0.253674 0
M  V30 2384 C 232.768 4.08411 -1.32283 0
M  V30 2385 C 232.001 5.27608 -0.80406 0
M  V30 2386 O 232.224 5.69241 0.363478 0
M  V30 2387 O 231.158 5.8101 -1.57198 0
M  V30 2388 H 234.984 2.50614 -1.7154 0
M  V30 2389 H 232.569 1.19454 -0.897275 0
M  V30 2390 H 234.451 4.21376 0.0453691 0
M  V30 2391 H 233.126 3.1739 0.636005 0
M  V30 2392 H 232.033 3.34507 -1.67499 0
M  V30 2393 H 233.366 4.40986 -2.18614 0
M  V30 2394 N 235.018 0.912232 1.28515 0
M  V30 2395 C 236.246 0.560416 1.99166 0
M  V30 2396 C 236.661 -0.857927 1.68182 0
M  V30 2397 O 236.018 -1.56805 0.933733 0
M  V30 2398 C 236.069 0.758142 3.53461 0
M  V30 2399 O 235.79 2.12067 3.83352 0
M  V30 2400 C 237.291 0.412954 4.41372 0
M  V30 2401 H 234.511 0.213805 0.636026 0
M  V30 2402 H 237.055 1.22502 1.63749 0
M  V30 2403 H 235.21 0.140556 3.87145 0
M  V30 2404 H 235.624 2.15923 4.77993 0
M  V30 2405 H 237.098 0.60208 5.48707 0
M  V30 2406 H 237.575 -0.65073 4.34353 0
M  V30 2407 H 238.181 1.00802 4.13182 0
M  V30 2408 N 236.496 -1.42363 0.676048 0
M  V30 2409 C 237.773 -1.95183 0.127726 0
M  V30 2410 C 238.153 -1.61641 -1.35777 0
M  V30 2411 O 237.501 -0.913216 -2.09458 0
M  V30 2412 C 237.711 -3.46721 0.398199 0
M  V30 2413 C 239.059 -4.23427 0.315383 0
M  V30 2414 O 240.083 -3.54649 0.332016 0
M  V30 2415 O 238.942 -5.45888 0.25865 0
M  V30 2416 H 236.036 -0.826992 0.00359427 0
M  V30 2417 H 238.582 -1.52184 0.750864 0
M  V30 2418 H 237.354 -3.64344 1.4272 0
M  V30 2419 H 236.977 -3.96769 -0.256885 0
M  V30 2420 N 237.974 -0.419461 -1.51915 0
M  V30 2421 C 239.223 0.154346 -2.01109 0
M  V30 2422 C 239.536 1.45338 -1.30905 0
M  V30 2423 O 240.742 2.10906 -1.7097 0
M  V30 2424 C 239.198 0.325615 -3.58424 0
M  V30 2425 C 238.806 -0.961934 -4.37551 0
M  V30 2426 C 240.55 0.854155 -4.15818 0
M  V30 2427 C 238.457 -0.757287 -5.86531 0
M  V30 2428 H 237.387 0.0614563 -0.751491 0
M  V30 2429 H 240.038 -0.54649 -1.75173 0
M  V30 2430 H 238.42 1.08903 -3.80731 0
M  V30 2431 H 239.594 -1.7323 -4.26999 0
M  V30 2432 H 237.909 -1.41766 -3.91524 0
M  V30 2433 H 240.506 1.02346 -5.24814 0
M  V30 2434 H 240.849 1.83172 -3.73837 0
M  V30 2435 H 241.382 0.149528 -3.97519 0
M  V30 2436 H 238.121 -1.70671 -6.32892 0
M  V30 2437 H 237.641 -0.0264061 -5.99794 0
M  V30 2438 H 239.32 -0.403482 -6.45741 0
M  V30 2439 N 239.452 1.56882 -0.150215 0
M  V30 2440 C 240.399 2.16922 0.788244 0
M  V30 2441 C 241.369 1.10303 1.24187 0
M  V30 2442 O 242.554 1.38359 1.31383 0
M  V30 2443 C 239.694 2.79754 2.02068 0
M  V30 2444 C 238.807 4.00775 1.61257 0
M  V30 2445 C 237.942 4.51595 2.79705 0
M  V30 2446 C 236.981 5.65074 2.35282 0
M  V30 2447 N 236.118 6.10499 3.4675 0
M  V30 2448 H 240.958 2.96779 0.269444 0
M  V30 2449 H 238.495 1.46599 0.12128 0
M  V30 2450 H 240.453 3.14329 2.74323 0
M  V30 2451 H 239.083 2.02536 2.51354 0
M  V30 2452 H 238.135 3.72158 0.787553 0
M  V30 2453 H 239.447 4.82978 1.24633 0
M  V30 2454 H 238.601 4.88242 3.60145 0
M  V30 2455 H 237.34 3.68406 3.19576 0
M  V30 2456 H 236.345 5.28 1.53283 0
M  V30 2457 H 237.57 6.50052 1.96493 0
M  V30 2458 H 235.516 5.30243 3.86236 0
M  V30 2459 H 235.433 6.87637 3.14152 0
M  V30 2460 H 236.701 6.51791 4.27537 0
M  V30 2461 N 240.93 -0.123565 1.57115 0
M  V30 2462 C 241.88 -1.1575 1.96433 0
M  V30 2463 C 242.864 -1.37313 0.838686 0
M  V30 2464 O 244.056 -1.38482 1.10235 0
M  V30 2465 C 241.185 -2.48526 2.36833 0
M  V30 2466 C 240.271 -2.30457 3.5602 0
M  V30 2467 N 240.662 -1.8219 4.71848 0
M  V30 2468 C 238.96 -2.61129 3.61563 0
M  V30 2469 C 239.661 -1.77721 5.53886 0
M  V30 2470 N 238.637 -2.21899 4.96248 0
M  V30 2471 H 242.439 -0.776797 2.83449 0
M  V30 2472 H 239.953 -0.331364 1.58983 0
M  V30 2473 H 241.95 -3.233 2.63216 0
M  V30 2474 H 240.61 -2.87358 1.5118 0
M  V30 2475 H 241.621 -1.51805 4.95152 0
M  V30 2476 H 238.298 -3.03678 2.86507 0
M  V30 2477 H 239.688 -1.41697 6.56789 0
M  V30 2478 N 242.408 -1.52605 -0.393616 0
M  V30 2479 C 243.338 -1.80022 -1.48709 0
M  V30 2480 C 244.319 -0.651995 -1.57108 0
M  V30 2481 O 245.504 -0.89913 -1.72132 0
M  V30 2482 C 242.634 -1.96492 -2.86371 0
M  V30 2483 C 241.588 -3.12161 -2.92813 0
M  V30 2484 C 240.914 -3.13877 -4.3288 0
M  V30 2485 C 242.214 -4.51322 -2.6288 0
M  V30 2486 H 243.908 -2.71589 -1.26015 0
M  V30 2487 H 241.454 -1.30684 -0.604778 0
M  V30 2488 H 243.407 -2.14255 -3.62867 0
M  V30 2489 H 242.131 -1.01611 -3.10391 0
M  V30 2490 H 240.79 -2.94173 -2.18764 0
M  V30 2491 H 240.438 -2.16687 -4.53933 0
M  V30 2492 H 240.138 -3.91576 -4.38112 0
M  V30 2493 H 241.662 -3.33789 -5.1129 0
M  V30 2494 H 243.076 -4.69435 -3.29096 0
M  V30 2495 H 241.473 -5.31053 -2.79468 0
M  V30 2496 H 242.543 -4.58353 -1.58242 0
M  V30 2497 N 243.887 0.651787 -1.4349 0
M  V30 2498 C 245.303 0.96762 -1.26922 0
M  V30 2499 C 245.503 2.00602 -0.189982 0
M  V30 2500 O 244.559 2.48793 0.431107 0
M  V30 2501 C 245.872 1.45052 -2.63401 0
M  V30 2502 C 247.42 1.5671 -2.70945 0
M  V30 2503 C 247.895 2.0839 -4.07845 0
M  V30 2504 N 249.386 2.1569 -4.09917 0
M  V30 2505 C 250.121 2.56804 -5.12679 0
M  V30 2506 N 249.617 2.97203 -6.25813 0
M  V30 2507 N 251.41 2.56756 -5.00033 0
M  V30 2508 H 243.561 -0.0353158 -2.12371 0
M  V30 2509 H 245.824 0.0467858 -0.946845 0
M  V30 2510 H 245.53 0.761926 -3.43348 0
M  V30 2511 H 245.404 2.42529 -2.88894 0
M  V30 2512 H 247.791 2.2467 -1.9133 0
M  V30 2513 H 247.872 0.57662 -2.49216 0
M  V30 2514 H 247.516 1.41031 -4.87927 0
M  V30 2515 H 247.446 3.08271 -4.26938 0
M  V30 2516 H 249.937 1.87237 -3.28254 0
M  V30 2517 H 250.25 3.27328 -7.00055 0
M  V30 2518 H 248.595 2.95004 -6.29283 0
M  V30 2519 H 251.786 2.24572 -4.10713 0
M  V30 2520 H 251.959 2.88475 -5.80247 0
M  V30 2521 N 245.365 1.30045 0.890287 0
M  V30 2522 C 246.312 1.15976 1.99545 0
M  V30 2523 C 247.282 0.0506202 1.66023 0
M  V30 2524 O 248.467 0.219847 1.89529 0
M  V30 2525 C 245.607 0.852054 3.34416 0
M  V30 2526 C 244.72 2.04255 3.80662 0
M  V30 2527 C 243.855 1.6734 5.04154 0
M  V30 2528 C 242.894 2.82916 5.42794 0
M  V30 2529 N 242.031 2.46333 6.57468 0
M  V30 2530 H 246.871 2.10524 2.10911 0
M  V30 2531 H 244.408 1.04749 1.03276 0
M  V30 2532 H 246.366 0.654296 4.12037 0
M  V30 2533 H 244.996 -0.0565502 3.2275 0
M  V30 2534 H 244.048 2.35172 2.98995 0
M  V30 2535 H 245.36 2.90826 4.05242 0
M  V30 2536 H 244.514 1.43908 5.89386 0
M  V30 2537 H 243.253 0.779308 4.81433 0
M  V30 2538 H 242.258 3.0702 4.56091 0
M  V30 2539 H 243.483 3.73004 5.6749 0
M  V30 2540 H 241.429 1.59423 6.36334 0
M  V30 2541 H 241.346 3.26436 6.81891 0
M  V30 2542 H 242.614 2.26244 7.45945 0
M  V30 2543 N 246.843 -1.10192 1.12674 0
M  V30 2544 C 247.773 -2.18652 0.819362 0
M  V30 2545 C 248.754 -1.68698 -0.217915 0
M  V30 2546 O 249.939 -1.94041 -0.0785581 0
M  V30 2547 C 247.069 -3.46202 0.27594 0
M  V30 2548 C 246.023 -4.09444 1.24656 0
M  V30 2549 C 245.349 -5.31725 0.563258 0
M  V30 2550 C 246.649 -4.52863 2.60217 0
M  V30 2551 H 248.343 -2.44622 1.72628 0
M  V30 2552 H 245.889 -1.17571 0.831451 0
M  V30 2553 H 247.842 -4.21372 0.0486149 0
M  V30 2554 H 246.566 -3.1973 -0.666331 0
M  V30 2555 H 245.225 -3.36284 1.45974 0
M  V30 2556 H 244.873 -5.0153 -0.384235 0
M  V30 2557 H 244.573 -5.74991 1.21075 0
M  V30 2558 H 246.097 -6.09624 0.34503 0
M  V30 2559 H 247.511 -5.19294 2.42913 0
M  V30 2560 H 245.908 -5.06986 3.21068 0
M  V30 2561 H 246.978 -3.65656 3.18471 0
M  V30 2562 N 248.321 -0.919034 -1.28029 0
M  V30 2563 C 249.268 -0.410005 -2.27129 0
M  V30 2564 C 250.238 0.518405 -1.57803 0
M  V30 2565 O 251.423 0.439451 -1.8567 0
M  V30 2566 C 248.563 0.339054 -3.4343 0
M  V30 2567 C 247.676 -0.622468 -4.27492 0
M  V30 2568 C 246.811 0.145567 -5.31001 0
M  V30 2569 C 245.85 -0.809226 -6.06727 0
M  V30 2570 N 244.987 -0.0743728 -7.02061 0
M  V30 2571 H 249.827 -1.26011 -2.70047 0
M  V30 2572 H 247.364 -0.632663 -1.328 0
M  V30 2573 H 249.322 0.789586 -4.0966 0
M  V30 2574 H 247.952 1.15346 -3.01488 0
M  V30 2575 H 247.004 -1.19153 -3.61257 0
M  V30 2576 H 248.316 -1.35252 -4.80113 0
M  V30 2577 H 247.47 0.656417 -6.03139 0
M  V30 2578 H 246.209 0.908643 -4.79161 0
M  V30 2579 H 245.214 -1.3314 -5.33436 0
M  V30 2580 H 246.439 -1.57194 -6.60656 0
M  V30 2581 H 244.385 0.670616 -6.52563 0
M  V30 2582 H 244.302 -0.744157 -7.52329 0
M  V30 2583 H 245.57 0.416109 -7.78389 0
M  V30 2584 N 249.799 1.42003 -0.683588 0
M  V30 2585 C 250.749 2.27997 0.0121992 0
M  V30 2586 C 251.733 1.4156 0.764822 0
M  V30 2587 O 252.925 1.64935 0.642287 0
M  V30 2588 C 250.054 3.29706 0.956482 0
M  V30 2589 C 249.14 4.23625 0.200739 0
M  V30 2590 N 249.531 4.99448 -0.799087 0
M  V30 2591 C 247.829 4.43845 0.437937 0
M  V30 2592 C 248.53 5.68102 -1.25041 0
M  V30 2593 N 247.506 5.40511 -0.578648 0
M  V30 2594 H 251.308 2.84048 -0.754564 0
M  V30 2595 H 248.822 1.54071 -0.513398 0
M  V30 2596 H 250.819 3.90124 1.47 0
M  V30 2597 H 249.479 2.75216 1.72297 0
M  V30 2598 H 250.49 5.04303 -1.17893 0
M  V30 2599 H 247.167 4.00382 1.18325 0
M  V30 2600 H 248.557 6.38913 -2.07942 0
M  V30 2601 N 251.277 0.427512 1.51691 0
M  V30 2602 C 252.688 -0.0378867 1.86662 0
M  V30 2603 C 253.039 -1.42819 1.34525 0
M  V30 2604 O 252.164 -2.05037 0.692014 0
M  V30 2605 C 252.759 -0.0755266 3.38716 0
M  V30 2606 C 251.318 -0.485309 3.73258 0
M  V30 2607 C 250.465 0.328399 2.75349 0
M  V30 2608 H 253.416 0.64379 1.45055 0
M  V30 2609 H 253.437 -0.887056 3.70016 0
M  V30 2610 H 252.949 0.936487 3.76632 0
M  V30 2611 H 251.05 -1.50329 3.40928 0
M  V30 2612 H 251.163 -0.21693 4.78609 0
M  V30 2613 H 249.527 -0.211905 2.53817 0
M  V30 2614 H 250.31 1.3391 3.16106 0
M  V30 2615 N 252.755 -1.56801 0.158532 0
M  V30 2616 C 253.703 -2.18638 -0.793729 0
M  V30 2617 C 254.697 -1.14669 -1.24689 0
M  V30 2618 O 255.903 -1.32895 -1.21403 0
M  V30 2619 H 252.278 -0.700226 -0.274204 0
M  V30 2620 H 254.249 -2.97367 -0.248095 0
M  V30 2621 C 252.998 -2.83139 -2.0181 0
M  V30 2622 H 252.321 -3.62863 -1.67841 0
M  V30 2623 H 253.761 -3.29894 -2.66357 0
M  V30 2624 C 252.22 -1.82244 -2.83353 0
M  V30 2625 O 252.75 -1.3 -3.80083 0
M  V30 2626 N 250.956 -1.51288 -2.48114 0
M  V30 2627 H 250.503 -1.93964 -1.69516 0
M  V30 2628 H 250.461 -0.840296 -3.02963 0
M  V30 2629 N 254.233 0.115231 -1.57178 0
M  V30 2630 C 255.482 0.820945 -1.84237 0
M  V30 2631 C 255.795 1.80866 -0.744761 0
M  V30 2632 O 257.001 2.56083 -0.901871 0
M  V30 2633 C 255.457 1.51072 -3.26658 0
M  V30 2634 C 255.065 0.563795 -4.44438 0
M  V30 2635 C 256.809 2.20134 -3.62962 0
M  V30 2636 C 254.716 1.25701 -5.77887 0
M  V30 2637 H 253.646 0.310328 -0.687177 0
M  V30 2638 H 256.297 0.0737134 -1.83352 0
M  V30 2639 H 254.679 2.30471 -3.22024 0
M  V30 2640 H 255.853 -0.197247 -4.60378 0
M  V30 2641 H 254.168 -0.0200638 -4.16395 0
M  V30 2642 H 256.765 2.72696 -4.59936 0
M  V30 2643 H 257.108 2.98107 -2.90582 0
M  V30 2644 H 257.641 1.47619 -3.69396 0
M  V30 2645 H 254.38 0.518493 -6.53446 0
M  V30 2646 H 253.9 1.98997 -5.65827 0
M  V30 2647 H 255.579 1.78915 -6.2177 0
M  V30 2648 N 255.711 1.52812 0.385517 0
M  V30 2649 C 256.96 1.67249 1.12741 0
M  V30 2650 C 257.273 0.4205 1.91027 0
M  V30 2651 O 258.479 0.445064 2.67827 0
M  V30 2652 C 256.935 2.95583 2.05326 0
M  V30 2653 C 256.543 4.27974 1.32447 0
M  V30 2654 C 258.287 3.19386 2.7963 0
M  V30 2655 C 256.194 5.47412 2.23818 0
M  V30 2656 H 255.124 0.6231 0.424573 0
M  V30 2657 H 257.775 1.79309 0.389924 0
M  V30 2658 H 256.157 2.77277 2.82725 0
M  V30 2659 H 257.331 4.56844 0.602495 0
M  V30 2660 H 255.646 4.10459 0.700885 0
M  V30 2661 H 258.243 4.05801 3.48181 0
M  V30 2662 H 258.586 2.34604 3.43899 0
M  V30 2663 H 259.119 3.38274 2.09322 0
M  V30 2664 H 255.858 6.34612 1.64157 0
M  V30 2665 H 255.378 5.22849 2.93921 0
M  V30 2666 H 257.057 5.81423 2.83824 0
M  V30 2667 N 257.189 -0.644168 1.43834 0
M  V30 2668 C 258.417 -1.43147 1.49387 0
M  V30 2669 C 258.832 -1.88452 0.114583 0
M  V30 2670 O 258.189 -1.60047 -0.876989 0
M  V30 2671 C 258.24 -2.66046 2.44748 0
M  V30 2672 O 257.961 -2.22633 3.77314 0
M  V30 2673 C 259.462 -3.59311 2.59635 0
M  V30 2674 H 256.682 -0.439447 0.507077 0
M  V30 2675 H 259.226 -0.78895 1.88669 0
M  V30 2676 H 257.381 -3.26418 2.08638 0
M  V30 2677 H 257.795 -3.02216 4.28679 0
M  V30 2678 H 259.269 -4.42187 3.30416 0
M  V30 2679 H 259.746 -4.07259 1.64427 0
M  V30 2680 H 260.352 -3.04816 2.96593 0
M  V30 2681 N 258.668 -1.30515 -0.883378 0
M  V30 2682 C 259.915 -1.1943 -1.63532 0
M  V30 2683 C 260.243 0.250627 -1.92878 0
M  V30 2684 O 259.498 1.19556 -1.54935 0
M  V30 2685 C 259.797 -1.96994 -2.98209 0
M  V30 2686 C 259.463 -3.466 -2.88408 0
M  V30 2687 C 258.125 -3.87397 -2.85442 0
M  V30 2688 C 260.477 -4.41863 -2.76418 0
M  V30 2689 C 257.805 -5.21745 -2.68327 0
M  V30 2690 C 260.157 -5.7632 -2.60841 0
M  V30 2691 C 258.821 -6.16354 -2.56251 0
M  V30 2692 H 258.091 -0.437025 -0.598406 0
M  V30 2693 H 260.738 -1.61635 -1.02696 0
M  V30 2694 H 259.043 -1.47429 -3.63004 0
M  V30 2695 H 260.74 -1.85808 -3.55354 0
M  V30 2696 H 257.33 -3.14182 -2.91527 0
M  V30 2697 H 261.514 -4.11285 -2.77775 0
M  V30 2698 H 256.77 -5.51853 -2.63189 0
M  V30 2699 H 260.944 -6.49772 -2.50538 0
M  V30 2700 H 258.571 -7.20401 -2.42748 0
M  V30 2701 N 260.146 1.09593 -1.13257 0
M  V30 2702 C 261.093 2.1618 -0.808381 0
M  V30 2703 C 262.063 1.64517 0.228754 0
M  V30 2704 O 263.248 1.9053 0.101381 0
M  V30 2705 C 260.388 3.43973 -0.278675 0
M  V30 2706 C 259.501 4.09545 -1.37466 0
M  V30 2707 C 258.636 5.25088 -0.803479 0
M  V30 2708 C 257.675 5.82579 -1.87799 0
M  V30 2709 N 256.812 6.89486 -1.32488 0
M  V30 2710 H 261.652 2.43254 -1.72138 0
M  V30 2711 H 259.189 1.19392 -0.859294 0
M  V30 2712 H 261.147 4.17174 0.0465583 0
M  V30 2713 H 259.777 3.17223 0.597459 0
M  V30 2714 H 258.829 3.34226 -1.81652 0
M  V30 2715 H 260.141 4.48307 -2.18684 0
M  V30 2716 H 259.295 6.05178 -0.429427 0
M  V30 2717 H 258.034 4.87684 0.0397956 0
M  V30 2718 H 257.039 5.01152 -2.26113 0
M  V30 2719 H 258.264 6.22045 -2.72463 0
M  V30 2720 H 256.21 6.54064 -0.503575 0
M  V30 2721 H 256.127 7.27007 -2.07355 0
M  V30 2722 H 257.395 7.73336 -0.978336 0
M  V30 2723 N 261.624 0.925811 1.2754 0
M  V30 2724 C 262.872 0.564138 1.94067 0
M  V30 2725 C 263.193 -0.897188 1.73134 0
M  V30 2726 O 262.463 -1.63573 1.07799 0
M  V30 2727 H 261.043 0.205645 0.718136 0
M  V30 2728 H 263.705 1.1778 1.55287 0
M  V30 2729 H 262.801 0.76881 3.02483 0
M  V30 2730 N 263.102 -1.41638 0.69111 0
M  V30 2731 C 264.348 -2.01598 0.220519 0
M  V30 2732 C 264.681 -1.54594 -1.17535 0
M  V30 2733 O 263.956 -0.755177 -1.79241 0
M  V30 2734 C 264.239 -3.59062 0.273243 0
M  V30 2735 C 264.092 -4.16203 1.70573 0
M  V30 2736 C 265.411 -4.38546 -0.369457 0
M  V30 2737 H 262.53 -0.732468 0.0816045 0
M  V30 2738 H 265.172 -1.68445 0.878986 0
M  V30 2739 H 263.322 -3.87435 -0.287411 0
M  V30 2740 H 264.994 -3.98722 2.31989 0
M  V30 2741 H 263.237 -3.71414 2.2413 0
M  V30 2742 H 263.908 -5.25358 1.69419 0
M  V30 2743 H 266.384 -4.1596 0.107977 0
M  V30 2744 H 265.26 -5.48069 -0.302002 0
M  V30 2745 H 265.521 -4.17662 -1.44951 0
M  V30 2746 N 264.58 -0.43555 -1.51462 0
M  V30 2747 C 265.82 0.130708 -2.03982 0
M  V30 2748 C 266.184 1.40117 -1.31268 0
M  V30 2749 O 267.385 2.04755 -1.74152 0
M  V30 2750 C 265.656 0.346102 -3.5572 0
M  V30 2751 S 267.215 0.876022 -4.29967 0
M  V30 2752 H 264.033 0.0326881 -0.710248 0
M  V30 2753 H 266.635 -0.594544 -1.8624 0
M  V30 2754 H 265.339 -0.584911 -4.0621 0
M  V30 2755 H 264.87 1.09849 -3.77752 0
M  V30 2756 H 266.885 2.15379 -4.47019 0
M  V30 2757 N 266.058 1.56714 -0.166846 0
M  V30 2758 C 267.286 2.0112 0.485644 0
M  V30 2759 C 267.701 1.04705 1.57106 0
M  V30 2760 O 267.058 0.0471923 1.82439 0
M  V30 2761 C 267.109 3.45361 1.06808 0
M  V30 2762 O 266.83 4.38092 0.0259995 0
M  V30 2763 C 268.331 4.05145 1.79924 0
M  V30 2764 H 265.551 0.65931 0.124704 0
M  V30 2765 H 268.095 2.02746 -0.267262 0
M  V30 2766 H 266.25 3.44524 1.7715 0
M  V30 2767 H 266.664 5.22519 0.455398 0
M  V30 2768 H 268.138 5.08009 2.15942 0
M  V30 2769 H 268.615 3.46982 2.69258 0
M  V30 2770 H 269.221 4.09672 1.14234 0
M  V30 2771 N 267.536 -0.106894 1.57237 0
M  V30 2772 C 268.468 -1.15646 1.97885 0
M  V30 2773 C 269.481 -1.36981 0.879779 0
M  V30 2774 O 270.67 -1.35841 1.15799 0
M  V30 2775 C 267.77 -2.51425 2.27241 0
M  V30 2776 C 266.943 -2.50529 3.58545 0
M  V30 2777 C 266.002 -3.68145 3.75973 0
M  V30 2778 O 265.028 -3.51176 4.47956 0
M  V30 2779 N 266.23 -4.87177 3.15656 0
M  V30 2780 H 268.995 -0.81059 2.8853 0
M  V30 2781 H 266.556 -0.296024 1.59171 0
M  V30 2782 H 268.548 -3.28689 2.36105 0
M  V30 2783 H 267.118 -2.78147 1.42663 0
M  V30 2784 H 266.338 -1.58894 3.60758 0
M  V30 2785 H 267.626 -2.46997 4.44826 0
M  V30 2786 H 267.024 -5.03868 2.57165 0
M  V30 2787 H 265.581 -5.62075 3.30023 0
M  V30 2788 N 269.014 -1.53014 -0.377408 0
M  V30 2789 C 269.977 -1.77957 -1.44444 0
M  V30 2790 C 270.977 -0.649763 -1.47087 0
M  V30 2791 O 272.167 -0.917897 -1.48055 0
M  V30 2792 C 269.299 -1.89089 -2.83651 0
M  V30 2793 H 270.492 -2.73243 -1.23606 0
M  V30 2794 H 268.045 -1.43912 -0.609844 0
M  V30 2795 H 268.78 -0.958293 -3.09818 0
M  V30 2796 H 268.565 -2.71254 -2.83132 0
M  V30 2797 H 270.055 -2.1002 -3.60945 0
M  V30 2798 N 270.492 0.636531 -1.44174 0
M  V30 2799 C 271.903 1.21806 -1.41493 0
M  V30 2800 C 272.254 1.95785 -0.1275 0
M  V30 2801 O 271.379 2.02147 0.772376 0
M  V30 2802 C 271.974 2.21551 -2.56321 0
M  V30 2803 C 270.533 2.75143 -2.56853 0
M  V30 2804 C 269.68 1.50052 -2.33195 0
M  V30 2805 H 272.631 0.427531 -1.52833 0
M  V30 2806 H 272.652 3.0405 -2.28765 0
M  V30 2807 H 272.164 1.67679 -3.50008 0
M  V30 2808 H 270.265 3.33033 -1.67093 0
M  V30 2809 H 270.378 3.2155 -3.55165 0
M  V30 2810 H 268.742 1.77993 -1.82183 0
M  V30 2811 H 269.525 0.980903 -3.28988 0
M  V30 2812 N 271.97 1.30982 0.876444 0
M  V30 2813 C 273.21 1.21589 1.64303 0
M  V30 2814 C 273.574 -0.223962 1.90689 0
M  V30 2815 O 274.775 -0.44128 2.65153 0
M  V30 2816 C 273.046 2.03007 2.94148 0
M  V30 2817 S 274.605 2.10405 3.85065 0
M  V30 2818 H 271.423 0.433161 0.563819 0
M  V30 2819 H 274.025 1.65565 1.03964 0
M  V30 2820 H 272.729 3.06719 2.72675 0
M  V30 2821 H 272.26 1.59725 3.59515 0
M  V30 2822 H 274.275 1.23765 4.80517 0
M  V30 2823 N 273.449 -1.08991 1.13837 0
M  V30 2824 C 274.679 -1.84743 0.924859 0
M  V30 2825 C 275.087 -1.81629 -0.529874 0
M  V30 2826 O 274.43 -1.21397 -1.37872 0
M  V30 2827 C 274.492 -3.33568 1.34061 0
M  V30 2828 C 274.156 -3.60425 2.80968 0
M  V30 2829 C 275.153 -3.55771 3.79108 0
M  V30 2830 C 272.838 -3.88627 3.18236 0
M  V30 2831 C 274.832 -3.78939 5.12527 0
M  V30 2832 C 272.519 -4.11449 4.51833 0
M  V30 2833 C 273.517 -4.06598 5.48787 0
M  V30 2834 O 273.205 -4.28826 6.79973 0
M  V30 2835 H 272.937 -0.590258 0.329502 0
M  V30 2836 H 275.491 -1.38598 1.51591 0
M  V30 2837 H 273.721 -3.80442 0.692853 0
M  V30 2838 H 275.41 -3.90743 1.09886 0
M  V30 2839 H 276.176 -3.34005 3.51661 0
M  V30 2840 H 272.055 -3.91526 2.43369 0
M  V30 2841 H 275.599 -3.75068 5.88192 0
M  V30 2842 H 271.496 -4.32698 4.79002 0
M  V30 2843 H 272.264 -4.46264 6.86142 0
M  V30 2844 N 274.927 -0.932562 -1.27047 0
M  V30 2845 C 276.167 -0.582919 -1.95912 0
M  V30 2846 C 276.531 0.860629 -1.71631 0
M  V30 2847 O 277.732 1.31878 -2.34225 0
M  V30 2848 C 276.003 -0.905673 -3.45734 0
M  V30 2849 S 277.562 -0.665277 -4.33727 0
M  V30 2850 H 274.38 -0.215 -0.677714 0
M  V30 2851 H 276.982 -1.20204 -1.54179 0
M  V30 2852 H 275.686 -1.95386 -3.60905 0
M  V30 2853 H 275.217 -0.275939 -3.92431 0
M  V30 2854 H 277.232 0.474635 -4.93925 0
M  V30 2855 N 276.405 1.4127 -0.698611 0
M  V30 2856 C 277.654 2.00408 -0.227949 0
M  V30 2857 C 277.967 1.55981 1.18023 0
M  V30 2858 O 279.173 2.07699 1.74852 0
M  V30 2859 C 277.629 3.58129 -0.356636 0
M  V30 2860 C 277.237 4.11536 -1.77037 0
M  V30 2861 C 278.981 4.24466 0.0540969 0
M  V30 2862 C 276.888 5.61701 -1.85055 0
M  V30 2863 H 275.818 0.749586 -0.0814657 0
M  V30 2864 H 278.469 1.61713 -0.867249 0
M  V30 2865 H 276.851 3.94442 0.350965 0
M  V30 2866 H 278.025 3.86636 -2.50698 0
M  V30 2867 H 276.34 3.57736 -2.13105 0
M  V30 2868 H 278.937 5.34698 0.0146723 0
M  V30 2869 H 279.28 4.01687 1.09332 0
M  V30 2870 H 279.813 3.93198 -0.603337 0
M  V30 2871 H 276.552 5.89312 -2.8704 0
M  V30 2872 H 276.072 5.88519 -1.15783 0
M  V30 2873 H 277.751 6.26524 -1.61484 0
M  V30 2874 N 277.883 0.443576 1.51229 0
M  V30 2875 C 278.813 -0.355142 2.30783 0
M  V30 2876 C 279.794 -1.0154 1.36468 0
M  V30 2877 O 280.979 -1.01785 1.65389 0
M  V30 2878 C 278.109 -1.45312 3.15439 0
M  V30 2879 C 277.063 -0.916002 4.18083 0
M  V30 2880 C 276.389 -2.1102 4.91299 0
M  V30 2881 C 277.689 0.0538602 5.22272 0
M  V30 2882 H 279.383 0.308767 2.97804 0
M  V30 2883 H 276.929 0.149937 1.43217 0
M  V30 2884 H 278.882 -2.01914 3.69876 0
M  V30 2885 H 277.606 -2.14541 2.46252 0
M  V30 2886 H 276.265 -0.372145 3.64706 0
M  V30 2887 H 275.913 -2.78882 4.18609 0
M  V30 2888 H 275.613 -1.75717 5.60712 0
M  V30 2889 H 277.137 -2.68164 5.48562 0
M  V30 2890 H 278.551 -0.422069 5.71744 0
M  V30 2891 H 276.948 0.319776 5.99247 0
M  V30 2892 H 278.018 0.98858 4.74716 0
M  V30 2893 N 279.361 -1.56624 0.175154 0
M  V30 2894 C 280.294 -2.14 -0.792412 0
M  V30 2895 C 281.272 -1.07114 -1.22333 0
M  V30 2896 O 282.456 -1.35112 -1.31442 0
M  V30 2897 C 279.583 -2.68268 -2.0676 0
M  V30 2898 C 278.629 -3.87562 -1.7804 0
M  V30 2899 S 279.462 -5.27074 -0.946222 0
M  V30 2900 C 280.618 -5.8475 -2.23199 0
M  V30 2901 H 280.851 -2.95736 -0.304588 0
M  V30 2902 H 278.384 -1.54349 -0.0395705 0
M  V30 2903 H 280.342 -3.00182 -2.80002 0
M  V30 2904 H 279.003 -1.86612 -2.52656 0
M  V30 2905 H 278.196 -4.23874 -2.72666 0
M  V30 2906 H 277.798 -3.56555 -1.12891 0
M  V30 2907 H 280.09 -5.97898 -3.18629 0
M  V30 2908 H 281.033 -6.81756 -1.91349 0
M  V30 2909 H 281.441 -5.13198 -2.35134 0
M  V30 2910 N 280.839 0.0985539 -1.57292 0
M  V30 2911 C 281.749 1.13824 -2.05137 0
M  V30 2912 C 282.765 1.44076 -0.975604 0
M  V30 2913 O 283.941 1.54786 -1.28853 0
M  V30 2914 C 281.006 2.43969 -2.46333 0
M  V30 2915 C 280.067 2.2093 -3.68087 0
M  V30 2916 C 279.3 3.44869 -4.0731 0
M  V30 2917 O 279.523 4.52972 -3.46659 0
M  V30 2918 O 278.457 3.34661 -5.00285 0
M  V30 2919 H 282.283 0.761881 -2.93988 0
M  V30 2920 H 279.868 0.310818 -1.46131 0
M  V30 2921 H 281.75 3.20609 -2.73473 0
M  V30 2922 H 280.425 2.81038 -1.60621 0
M  V30 2923 H 279.332 1.42081 -3.46069 0
M  V30 2924 H 280.665 1.88755 -4.54568 0
M  V30 2925 N 282.317 1.53212 0.369288 0
M  V30 2926 C 283.564 1.69215 1.11232 0
M  V30 2927 C 283.892 0.442048 1.8941 0
M  V30 2928 O 283.147 -0.575944 1.87033 0
M  V30 2929 C 283.446 2.89101 2.10132 0
M  V30 2930 C 283.112 4.25758 1.48463 0
M  V30 2931 C 281.774 4.6292 1.31372 0
M  V30 2932 C 284.126 5.10757 1.03811 0
M  V30 2933 C 281.454 5.82722 0.68207 0
M  V30 2934 C 283.806 6.31201 0.420487 0
M  V30 2935 C 282.47 6.67079 0.237038 0
M  V30 2936 H 281.74 0.619201 0.407027 0
M  V30 2937 H 284.387 1.87391 0.394552 0
M  V30 2938 H 282.692 2.65421 2.88199 0
M  V30 2939 H 284.389 2.98676 2.6757 0
M  V30 2940 H 280.979 3.96494 1.62758 0
M  V30 2941 H 285.163 4.82599 1.1581 0
M  V30 2942 H 280.419 6.09113 0.528316 0
M  V30 2943 H 284.593 6.96368 0.0662874 0
M  V30 2944 H 282.22 7.59774 -0.254477 0
M  V30 2945 N 283.795 -0.628877 1.44509 0
M  V30 2946 C 285.035 -1.39993 1.48934 0
M  V30 2947 C 285.399 -1.91627 0.119604 0
M  V30 2948 O 286.6 -2.68772 0.0385283 0
M  V30 2949 C 284.871 -2.53241 2.52198 0
M  V30 2950 S 286.43 -3.41383 2.75687 0
M  V30 2951 H 283.248 -0.477558 0.526744 0
M  V30 2952 H 285.85 -0.727804 1.81448 0
M  V30 2953 H 284.554 -2.13622 3.50419 0
M  V30 2954 H 284.085 -3.25278 2.21264 0
M  V30 2955 H 286.1 -4.50752 2.07453 0
M  V30 2956 N 285.273 -1.31445 -0.869486 0
M  V30 2957 C 286.236 -1.19094 -1.9583 0
M  V30 2958 C 287.236 -0.117906 -1.60367 0
M  V30 2959 O 288.426 -0.367208 -1.70286 0
M  V30 2960 C 285.558 -0.828165 -3.30688 0
M  V30 2961 H 286.751 -2.15842 -2.08212 0
M  V30 2962 H 284.304 -1.15063 -1.05784 0
M  V30 2963 H 285.039 0.138142 -3.24006 0
M  V30 2964 H 284.824 -1.6038 -3.578 0
M  V30 2965 H 286.314 -0.765658 -4.10521 0
M  V30 2966 N 286.751 1.08385 -1.14413 0
M  V30 2967 C 287.683 2.1519 -0.789036 0
M  V30 2968 C 288.696 1.61638 0.19417 0
M  V30 2969 O 289.885 1.78479 -0.0275711 0
M  V30 2970 C 286.985 3.38565 -0.15058 0
M  V30 2971 C 286.158 4.21501 -1.16857 0
M  V30 2972 C 285.217 5.23277 -0.553832 0
M  V30 2973 O 284.243 5.56041 -1.21686 0
M  V30 2974 N 285.445 5.76629 0.669296 0
M  V30 2975 H 288.21 2.46257 -1.70814 0
M  V30 2976 H 285.771 1.24198 -1.03858 0
M  V30 2977 H 287.763 4.03777 0.273181 0
M  V30 2978 H 286.333 3.05299 0.671667 0
M  V30 2979 H 285.553 3.52265 -1.76926 0
M  V30 2980 H 286.841 4.73731 -1.85624 0
M  V30 2981 H 286.239 5.52243 1.22654 0
M  V30 2982 H 284.796 6.43521 1.03556 0
M  V30 2983 N 288.23 0.939286 1.26551 0
M  V30 2984 C 289.478 0.58469 1.93457 0
M  V30 2985 C 289.799 -0.878774 1.74076 0
M  V30 2986 O 289.069 -1.62421 1.09528 0
M  V30 2987 H 287.649 0.21325 0.715914 0
M  V30 2988 H 290.311 1.1942 1.54029 0
M  V30 2989 H 289.407 0.800849 3.0165 0
M  V30 2990 N 289.708 -1.40897 0.706093 0
M  V30 2991 C 290.64 -2.29199 0.00815776 0
M  V30 2992 C 291.653 -1.45336 -0.733582 0
M  V30 2993 O 292.842 -1.68727 -0.582537 0
M  V30 2994 C 289.942 -3.23417 -1.01265 0
M  V30 2995 C 289.115 -4.36089 -0.338387 0
M  V30 2996 C 288.174 -5.10811 -1.26326 0
M  V30 2997 O 287.2 -5.64215 -0.751651 0
M  V30 2998 N 288.402 -5.19269 -2.595 0
M  V30 2999 H 291.167 -2.89738 0.766297 0
M  V30 3000 H 288.728 -1.52164 0.55296 0
M  V30 3001 H 290.72 -3.70276 -1.63334 0
M  V30 3002 H 289.29 -2.64112 -1.67223 0
M  V30 3003 H 288.51 -3.91479 0.462352 0
M  V30 3004 H 289.798 -5.08634 0.130031 0
M  V30 3005 H 289.196 -4.77347 -3.03573 0
M  V30 3006 H 287.753 -5.69667 -3.16737 0
M  V30 3007 N 291.186 -0.45159 -1.50991 0
M  V30 3008 C 292.116 0.342898 -2.30969 0
M  V30 3009 C 293.097 1.00815 -1.37005 0
M  V30 3010 O 294.282 1.00907 -1.65926 0
M  V30 3011 C 291.412 1.43637 -3.16205 0
M  V30 3012 C 290.366 0.893818 -4.18563 0
M  V30 3013 C 289.692 2.08411 -4.92411 0
M  V30 3014 C 290.992 -0.0815568 -5.22236 0
M  V30 3015 H 292.686 -0.324556 -2.97636 0
M  V30 3016 H 290.232 -0.157531 -1.43136 0
M  V30 3017 H 292.185 1.9995 -3.70942 0
M  V30 3018 H 290.909 2.13232 -2.47386 0
M  V30 3019 H 289.568 0.352798 -3.64898 0
M  V30 3020 H 289.216 2.76658 -4.20082 0
M  V30 3021 H 288.916 1.72741 -5.61636 0
M  V30 3022 H 290.44 2.65251 -5.49976 0
M  V30 3023 H 291.854 0.391742 -5.7196 0
M  V30 3024 H 290.251 -0.351551 -5.99069 0
M  V30 3025 H 291.321 -1.01374 -4.74185 0
M  V30 3026 N 292.664 1.56529 -0.183458 0
M  V30 3027 C 293.894 2.01331 0.463612 0
M  V30 3028 C 294.302 1.06278 1.5653 0
M  V30 3029 O 293.645 0.0577976 1.83609 0
M  V30 3030 C 293.707 3.42547 1.09096 0
M  V30 3031 C 293.371 4.56817 0.129442 0
M  V30 3032 C 294.368 5.15734 -0.656807 0
M  V30 3033 C 292.053 5.02295 0.02174 0
M  V30 3034 C 294.047 6.1857 -1.53784 0
M  V30 3035 C 291.734 6.04978 -0.862864 0
M  V30 3036 C 292.732 6.62988 -1.64123 0
M  V30 3037 O 292.42 7.63677 -2.51103 0
M  V30 3038 H 292.152 0.664917 0.121907 0
M  V30 3039 H 294.706 2.034 -0.285954 0
M  V30 3040 H 292.936 3.37428 1.88889 0
M  V30 3041 H 294.625 3.71228 1.64148 0
M  V30 3042 H 295.391 4.81473 -0.583839 0
M  V30 3043 H 291.27 4.56847 0.617392 0
M  V30 3044 H 294.814 6.63777 -2.14583 0
M  V30 3045 H 290.711 6.38663 -0.93699 0
M  V30 3046 H 291.479 7.81049 -2.44753 0
M  V30 3047 N 294.142 -0.090211 1.57342 0
M  V30 3048 C 295.052 -1.12735 2.05738 0
M  V30 3049 C 296.068 -1.43557 0.983231 0
M  V30 3050 O 297.244 -1.54101 1.29672 0
M  V30 3051 C 294.309 -2.42659 2.47624 0
M  V30 3052 C 293.37 -2.18975 3.69254 0
M  V30 3053 C 292.603 -3.42704 4.09133 0
M  V30 3054 O 292.826 -4.51127 3.49057 0
M  V30 3055 O 291.76 -3.32003 5.02053 0
M  V30 3056 H 295.586 -0.746279 2.94388 0
M  V30 3057 H 293.171 -0.303064 1.46294 0
M  V30 3058 H 295.053 -3.19155 2.7517 0
M  V30 3059 H 293.728 -2.80182 1.62109 0
M  V30 3060 H 292.635 -1.40244 3.46818 0
M  V30 3061 H 293.968 -1.86342 4.55563 0
M  V30 3062 N 295.62 -1.53406 -0.361157 0
M  V30 3063 C 296.866 -1.70054 -1.10496 0
M  V30 3064 C 297.199 -0.453278 -1.88836 0
M  V30 3065 O 296.474 0.5495 -1.86576 0
M  V30 3066 C 296.757 -2.95317 -2.06058 0
M  V30 3067 C 296.61 -4.3021 -1.31298 0
M  V30 3068 C 297.929 -3.16193 -3.06121 0
M  V30 3069 H 295.048 -0.618799 -0.400321 0
M  V30 3070 H 297.69 -1.86052 -0.385318 0
M  V30 3071 H 295.84 -2.81809 -2.67425 0
M  V30 3072 H 297.512 -4.55538 -0.726807 0
M  V30 3073 H 295.755 -4.29421 -0.614853 0
M  V30 3074 H 296.426 -5.14 -2.01265 0
M  V30 3075 H 298.902 -3.28916 -2.5486 0
M  V30 3076 H 297.778 -4.05266 -3.70204 0
M  V30 3077 H 298.039 -2.31676 -3.76535 0
M  V30 3078 N 297.098 0.621204 -1.44841 0
M  V30 3079 C 298.028 1.74366 -1.55303 0
M  V30 3080 C 299.009 1.65199 -0.405385 0
M  V30 3081 O 300.194 1.83807 -0.626787 0
M  V30 3082 C 297.324 3.12931 -1.50637 0
M  V30 3083 C 296.278 3.36896 -2.63979 0
M  V30 3084 C 295.604 4.75594 -2.44366 0
M  V30 3085 C 296.904 3.28483 -4.06074 0
M  V30 3086 H 298.598 1.65867 -2.49256 0
M  V30 3087 H 296.144 0.796558 -1.19962 0
M  V30 3088 H 298.097 3.9124 -1.56555 0
M  V30 3089 H 296.821 3.22237 -0.532057 0
M  V30 3090 H 295.48 2.60972 -2.57467 0
M  V30 3091 H 295.128 4.81616 -1.45105 0
M  V30 3092 H 294.828 4.92586 -3.20364 0
M  V30 3093 H 296.352 5.5612 -2.52117 0
M  V30 3094 H 297.766 3.96684 -4.13902 0
M  V30 3095 H 296.163 3.57008 -4.82354 0
M  V30 3096 H 297.233 2.26133 -4.28943 0
M  V30 3097 N 298.576 1.31904 0.862503 0
M  V30 3098 C 299.992 1.10724 1.14945 0
M  V30 3099 C 300.192 -0.117421 2.01158 0
M  V30 3100 O 299.248 -0.804595 2.39338 0
M  V30 3101 C 300.561 2.38267 1.83437 0
M  V30 3102 C 302.109 2.43949 1.96106 0
M  V30 3103 C 302.584 3.71394 2.68013 0
M  V30 3104 N 304.075 3.72331 2.75543 0
M  V30 3105 C 304.81 4.67641 3.31812 0
M  V30 3106 N 304.306 5.73313 3.88953 0
M  V30 3107 N 306.099 4.5515 3.29841 0
M  V30 3108 H 298.25 2.10436 0.288191 0
M  V30 3109 H 300.513 0.928705 0.190292 0
M  V30 3110 H 300.219 3.27759 1.27542 0
M  V30 3111 H 300.093 2.48633 2.83657 0
M  V30 3112 H 302.48 1.54922 2.51164 0
M  V30 3113 H 302.561 2.37543 0.949059 0
M  V30 3114 H 302.205 4.60791 2.13621 0
M  V30 3115 H 302.135 3.75069 3.69636 0
M  V30 3116 H 304.626 2.95947 2.34997 0
M  V30 3117 H 304.939 6.42107 4.30022 0
M  V30 3118 H 303.284 5.77077 3.87308 0
M  V30 3119 H 306.475 3.71766 2.84443 0
M  V30 3120 H 306.648 5.29604 3.73394 0
M  V30 3121 N 300.054 -1.07777 1.14986 0
M  V30 3122 C 301.017 -2.13041 0.845358 0
M  V30 3123 C 302.017 -1.60071 -0.152931 0
M  V30 3124 O 303.207 -1.74033 0.0761879 0
M  V30 3125 C 300.339 -3.39896 0.261383 0
M  V30 3126 H 301.532 -2.41485 1.77834 0
M  V30 3127 H 299.085 -1.23595 0.956757 0
M  V30 3128 H 299.82 -3.17091 -0.68 0
M  V30 3129 H 299.605 -3.79642 0.980514 0
M  V30 3130 H 301.095 -4.17548 0.0657687 0
M  V30 3131 N 301.532 -0.945985 -1.26051 0
M  V30 3132 C 302.78 -0.594941 -1.93145 0
M  V30 3133 C 303.101 0.86953 -1.7454 0
M  V30 3134 O 302.371 1.61838 -1.10387 0
M  V30 3135 H 300.951 -0.217044 -0.714773 0
M  V30 3136 H 303.613 -1.20235 -1.53393 0
M  V30 3137 H 302.709 -0.816835 -3.01221 0
M  V30 3138 N 303.011 1.40521 -0.713556 0
M  V30 3139 C 304.427 1.54839 -0.386907 0
M  V30 3140 C 304.627 1.68532 1.1045 0
M  V30 3141 O 303.683 1.67377 1.89053 0
M  V30 3142 C 304.996 2.77792 -1.15118 0
M  V30 3143 C 306.544 2.91607 -1.13729 0
M  V30 3144 C 307.019 4.1747 -1.88368 0
M  V30 3145 N 308.51 4.24466 -1.85427 0
M  V30 3146 C 309.245 5.20755 -2.40004 0
M  V30 3147 N 308.741 6.22965 -3.03129 0
M  V30 3148 N 310.534 5.1282 -2.30158 0
M  V30 3149 H 302.685 1.29879 -1.68063 0
M  V30 3150 H 304.948 0.627896 -0.710247 0
M  V30 3151 H 304.654 2.73944 -2.20561 0
M  V30 3152 H 304.528 3.6984 -0.741477 0
M  V30 3153 H 306.915 2.94959 -0.0910608 0
M  V30 3154 H 306.996 2.00682 -1.5862 0
M  V30 3155 H 306.64 4.1488 -2.9298 0
M  V30 3156 H 306.57 5.074 -1.40898 0
M  V30 3157 H 309.061 3.51241 -1.3942 0
M  V30 3158 H 309.374 6.92859 -3.42295 0
M  V30 3159 H 307.719 6.23415 -3.07212 0
M  V30 3160 H 310.91 4.31899 -1.80501 0
M  V30 3161 H 311.083 5.87689 -2.72993 0
M  V30 3162 N 304.489 0.459591 1.5075 0
M  V30 3163 C 305.9 0.00171547 1.867 0
M  V30 3164 C 306.251 -1.39934 1.37525 0
M  V30 3165 O 305.376 -2.03523 0.735349 0
M  V30 3166 C 305.971 -0.00366298 3.388 0
M  V30 3167 C 304.53 -0.406026 3.74204 0
M  V30 3168 C 303.677 0.38673 2.7459 0
M  V30 3169 H 306.628 0.674413 1.43657 0
M  V30 3170 H 306.649 -0.808371 3.71814 0
M  V30 3171 H 306.161 1.01617 3.74561 0
M  V30 3172 H 304.262 -1.43063 3.4404 0
M  V30 3173 H 304.375 -0.115362 4.78961 0
M  V30 3174 H 302.739 -0.158019 2.54209 0
M  V30 3175 H 303.522 1.40585 3.13194 0
M  V30 3176 N 305.967 -1.56429 0.191757 0
M  V30 3177 C 307.213 -1.97777 -0.448554 0
M  V30 3178 C 307.546 -1.07847 -1.61501 0
M  V30 3179 O 306.821 -0.129774 -1.94067 0
M  V30 3180 C 307.104 -3.48362 -0.911906 0
M  V30 3181 C 306.957 -4.4907 0.256136 0
M  V30 3182 C 308.276 -4.02561 -1.77857 0
M  V30 3183 H 305.395 -0.719071 -0.161572 0
M  V30 3184 H 308.037 -1.87896 0.282007 0
M  V30 3185 H 306.187 -3.56914 -1.53442 0
M  V30 3186 H 307.859 -4.5256 0.893733 0
M  V30 3187 H 306.102 -4.24181 0.908436 0
M  V30 3188 H 306.773 -5.51889 -0.11053 0
M  V30 3189 H 309.249 -3.96767 -1.25359 0
M  V30 3190 H 308.125 -5.08301 -2.07174 0
M  V30 3191 H 308.386 -3.47616 -2.73158 0
M  V30 3192 N 307.445 0.0818655 -1.57387 0
M  V30 3193 C 308.673 0.796108 -1.9097 0
M  V30 3194 C 309.088 1.71626 -0.786757 0
M  V30 3195 O 308.445 1.80908 0.240513 0
M  V30 3196 C 308.496 1.59829 -3.24248 0
M  V30 3197 O 308.217 0.715131 -4.32224 0
M  V30 3198 C 309.718 2.41442 -3.7178 0
M  V30 3199 H 306.938 0.22691 -0.631469 0
M  V30 3200 H 309.482 0.0551439 -2.04426 0
M  V30 3201 H 307.637 2.29163 -3.12351 0
M  V30 3202 H 308.051 1.27205 -5.08841 0
M  V30 3203 H 309.525 2.932 -4.67694 0
M  V30 3204 H 310.002 3.2051 -3.00283 0
M  V30 3205 H 310.608 1.77283 -3.86589 0
M  V30 3206 N 308.923 1.53595 0.353017 0
M  V30 3207 C 310.334 1.61937 0.929153 0
M  V30 3208 C 310.685 0.494686 1.89861 0
M  V30 3209 O 309.81 -0.377017 2.1309 0
M  V30 3210 C 310.405 2.93526 1.69199 0
M  V30 3211 C 308.964 3.04161 2.21727 0
M  V30 3212 C 308.111 2.57322 1.03348 0
M  V30 3213 H 311.062 1.58155 0.131431 0
M  V30 3214 H 311.083 2.82034 2.55416 0
M  V30 3215 H 310.595 3.75362 0.986144 0
M  V30 3216 H 308.696 2.26938 2.95516 0
M  V30 3217 H 308.809 4.09465 2.48748 0
M  V30 3218 H 307.173 2.12499 1.40414 0
M  V30 3219 H 307.956 3.41588 0.342428 0
M  V30 3220 N 310.401 -0.613514 1.45168 0
M  V30 3221 C 311.626 -1.40437 1.52618 0
M  V30 3222 C 312.051 -1.87438 0.157707 0
M  V30 3223 O 311.409 -1.59791 -0.856537 0
M  V30 3224 C 311.457 -2.58894 2.51011 0
M  V30 3225 O 310.561 -3.59326 2.02382 0
M  V30 3226 H 309.902 -0.419506 0.514695 0
M  V30 3227 H 312.432 -0.747215 1.90467 0
M  V30 3228 H 312.442 -3.06214 2.69624 0
M  V30 3229 H 311.117 -2.24032 3.50403 0
M  V30 3230 H 309.694 -3.18695 1.93618 0
M  V30 3231 N 311.879 -1.3236 -0.855495 0
M  V30 3232 C 312.809 -1.23833 -1.97958 0
M  V30 3233 C 313.79 -0.122361 -1.69659 0
M  V30 3234 O 314.975 -0.30939 -1.9172 0
M  V30 3235 C 312.105 -0.959772 -3.33775 0
M  V30 3236 C 311.059 -2.03689 -3.76424 0
M  V30 3237 C 310.385 -1.61075 -5.09862 0
M  V30 3238 C 311.685 -3.4518 -3.9198 0
M  V30 3239 H 313.379 -2.1788 -2.0535 0
M  V30 3240 H 310.925 -1.04891 -0.986605 0
M  V30 3241 H 312.878 -0.886678 -4.11966 0
M  V30 3242 H 311.602 0.0163404 -3.26596 0
M  V30 3243 H 310.261 -2.10012 -3.00484 0
M  V30 3244 H 309.909 -0.622107 -4.99138 0
M  V30 3245 H 309.609 -2.33143 -5.39368 0
M  V30 3246 H 311.133 -1.55201 -5.90546 0
M  V30 3247 H 312.547 -3.4145 -4.60526 0
M  V30 3248 H 310.944 -4.1559 -4.32903 0
M  V30 3249 H 312.014 -3.84903 -2.94919 0
M  V30 3250 N 313.357 1.07166 -1.15556 0
M  V30 3251 C 314.287 2.16403 -0.877046 0
M  V30 3252 C 315.268 1.69217 0.173111 0
M  V30 3253 O 316.453 1.94181 0.027084 0
M  V30 3254 C 313.583 3.45349 -0.367632 0
M  V30 3255 C 312.537 4.05995 -1.35468 0
M  V30 3256 C 311.863 5.30045 -0.704038 0
M  V30 3257 C 313.163 4.45804 -2.72132 0
M  V30 3258 H 314.857 2.39959 -1.79053 0
M  V30 3259 H 312.403 1.15325 -0.862331 0
M  V30 3260 H 314.356 4.21095 -0.160317 0
M  V30 3261 H 313.08 3.21385 0.581326 0
M  V30 3262 H 311.739 3.32296 -1.54839 0
M  V30 3263 H 311.387 5.02373 0.251128 0
M  V30 3264 H 311.087 5.71579 -1.36277 0
M  V30 3265 H 312.611 6.08495 -0.50654 0
M  V30 3266 H 314.025 5.12671 -2.56595 0
M  V30 3267 H 312.422 4.98296 -3.34397 0
M  V30 3268 H 313.492 3.57083 -3.28054 0
M  V30 3269 N 314.835 0.952656 1.25548 0
M  V30 3270 C 316.081 0.607272 1.93494 0
M  V30 3271 C 316.414 -0.853245 1.74452 0
M  V30 3272 O 315.689 -1.61194 1.08843 0
M  V30 3273 C 315.972 0.96435 3.46947 0
M  V30 3274 C 315.825 2.48045 3.75225 0
M  V30 3275 C 317.144 0.487987 4.37386 0
M  V30 3276 H 314.263 0.222096 0.702739 0
M  V30 3277 H 316.905 1.18895 1.48203 0
M  V30 3278 H 315.055 0.469361 3.85654 0
M  V30 3279 H 316.727 3.04905 3.46166 0
M  V30 3280 H 314.97 2.919 3.209 0
M  V30 3281 H 315.641 2.6808 4.82532 0
M  V30 3282 H 318.117 0.912558 4.0597 0
M  V30 3283 H 316.993 0.766547 5.43521 0
M  V30 3284 H 317.254 -0.612063 4.37843 0
M  V30 3285 N 316.313 -1.40141 0.720998 0
M  V30 3286 C 317.59 -1.94677 0.189757 0
M  V30 3287 C 317.97 -1.65879 -1.30566 0
M  V30 3288 O 317.318 -0.979391 -2.06447 0
M  V30 3289 C 317.528 -3.45279 0.508304 0
M  V30 3290 C 318.876 -4.22209 0.449934 0
M  V30 3291 O 319.9 -3.53413 0.444677 0
M  V30 3292 O 318.759 -5.44788 0.432189 0
M  V30 3293 H 315.853 -0.826459 0.0299026 0
M  V30 3294 H 318.399 -1.49719 0.7989 0
M  V30 3295 H 317.171 -3.59619 1.54239 0
M  V30 3296 H 316.794 -3.97386 -0.130525 0
M  V30 3297 N 317.792 -0.46758 -1.50504 0
M  V30 3298 C 319.038 0.0808869 -2.03239 0
M  V30 3299 C 319.393 1.37721 -1.34353 0
M  V30 3300 O 318.686 1.86016 -0.459194 0
M  V30 3301 C 318.88 0.323995 -3.55928 0
M  V30 3302 C 318.709 -0.947215 -4.39611 0
M  V30 3303 C 317.479 -1.48951 -4.82848 0
M  V30 3304 C 319.677 -1.84166 -4.80195 0
M  V30 3305 N 317.659 -2.71011 -5.50842 0
M  V30 3306 C 319.03 -2.90815 -5.47564 0
M  V30 3307 C 321.085 -1.85246 -4.62156 0
M  V30 3308 C 319.788 -3.98529 -5.98805 0
M  V30 3309 C 321.814 -2.91914 -5.14335 0
M  V30 3310 C 321.176 -3.97282 -5.81676 0
M  V30 3311 H 317.275 -0.0103394 -0.781932 0
M  V30 3312 H 319.859 -0.635003 -1.84054 0
M  V30 3313 H 318.03 1.00892 -3.75067 0
M  V30 3314 H 319.762 0.866492 -3.95315 0
M  V30 3315 H 316.517 -1.03918 -4.62058 0
M  V30 3316 H 316.941 -3.32988 -5.89447 0
M  V30 3317 H 321.583 -1.05103 -4.09528 0
M  V30 3318 H 319.301 -4.79491 -6.50472 0
M  V30 3319 H 322.887 -2.93729 -5.0221 0
M  V30 3320 H 321.767 -4.78462 -6.21324 0
M  V30 3321 N 319.27 1.56325 -0.20005 0
M  V30 3322 C 320.495 2.02548 0.44597 0
M  V30 3323 C 320.92 1.07922 1.5406 0
M  V30 3324 O 320.278 0.0635775 1.81188 0
M  V30 3325 C 320.326 3.47175 0.974761 0
M  V30 3326 O 319.43 3.55671 2.08739 0
M  V30 3327 H 318.771 0.655862 0.103638 0
M  V30 3328 H 321.301 2.02201 -0.312381 0
M  V30 3329 H 321.311 3.87067 1.2901 0
M  V30 3330 H 319.986 4.15538 0.17347 0
M  V30 3331 H 318.563 3.27657 1.78032 0
M  V30 3332 N 320.748 -0.0735177 1.57428 0
M  V30 3333 C 321.681 -1.11932 1.98863 0
M  V30 3334 C 322.659 -1.37666 0.865266 0
M  V30 3335 O 323.843 -1.51068 1.12742 0
M  V30 3336 C 320.97 -2.46403 2.32386 0
M  V30 3337 C 320.016 -2.36815 3.54713 0
M  V30 3338 S 320.849 -1.76392 5.05614 0
M  V30 3339 C 322.005 -3.12444 5.42337 0
M  V30 3340 H 322.238 -0.766212 2.87257 0
M  V30 3341 H 319.771 -0.281987 1.51803 0
M  V30 3342 H 321.729 -3.23755 2.52375 0
M  V30 3343 H 320.39 -2.78876 1.44524 0
M  V30 3344 H 319.583 -3.35977 3.7568 0
M  V30 3345 H 319.185 -1.67598 3.34345 0
M  V30 3346 H 321.477 -4.08753 5.40303 0
M  V30 3347 H 322.42 -2.96258 6.43146 0
M  V30 3348 H 322.828 -3.1297 4.69798 0
M  V30 3349 N 322.226 -1.5378 -0.344866 0
M  V30 3350 C 323.474 -1.70625 -1.08311 0
M  V30 3351 C 323.795 -0.471447 -1.89215 0
M  V30 3352 O 323.065 0.514616 -1.8902 0
M  V30 3353 H 321.645 -0.629058 -0.402859 0
M  V30 3354 H 324.307 -1.9103 -0.386459 0
M  V30 3355 H 323.403 -2.57656 -1.76124 0
M  V30 3356 N 323.704 0.605807 -1.45491 0
M  V30 3357 C 324.953 1.36086 -1.48874 0
M  V30 3358 C 325.266 1.95131 -0.135333 0
M  V30 3359 O 326.472 2.7146 -0.0468144 0
M  V30 3360 C 324.928 2.46518 -2.62215 0
M  V30 3361 C 324.536 1.93877 -4.03876 0
M  V30 3362 C 326.28 3.23512 -2.74846 0
M  V30 3363 C 324.187 3.01801 -5.08596 0
M  V30 3364 H 323.117 0.511497 -0.553974 0
M  V30 3365 H 325.768 0.649089 -1.71636 0
M  V30 3366 H 324.15 3.20388 -2.32739 0
M  V30 3367 H 325.324 1.26704 -4.43038 0
M  V30 3368 H 323.639 1.29622 -3.95711 0
M  V30 3369 H 326.236 4.04013 -3.50253 0
M  V30 3370 H 326.579 3.74631 -1.81542 0
M  V30 3371 H 327.112 2.56742 -3.03856 0
M  V30 3372 H 323.851 2.55597 -6.03614 0
M  V30 3373 H 323.371 3.67535 -4.74002 0
M  V30 3374 H 325.05 3.66152 -5.33424 0
M  V30 3375 N 325.182 1.32811 0.848464 0
M  V30 3376 C 326.145 1.22194 1.9391 0
M  V30 3377 C 327.145 0.143404 1.60159 0
M  V30 3378 O 328.335 0.394253 1.6968 0
M  V30 3379 C 325.467 0.88067 3.29328 0
M  V30 3380 H 326.66 2.19127 2.04752 0
M  V30 3381 H 324.213 1.16731 1.0394 0
M  V30 3382 H 324.948 -0.0865776 3.24184 0
M  V30 3383 H 324.733 1.66052 3.55203 0
M  V30 3384 H 326.223 0.830871 4.09251 0
M  V30 3385 N 326.66 -1.06551 1.16123 0
M  V30 3386 C 327.908 -1.78947 0.939267 0
M  V30 3387 C 328.229 -1.87532 -0.534476 0
M  V30 3388 O 327.499 -1.38211 -1.38833 0
M  V30 3389 H 326.079 -0.662807 0.344523 0
M  V30 3390 H 328.741 -1.28725 1.46342 0
M  V30 3391 H 327.837 -2.81117 1.35572 0
M  V30 3392 N 328.138 -0.959301 -1.25041 0
M  V30 3393 C 329.386 -0.615393 -1.92503 0
M  V30 3394 C 329.707 0.850969 -1.75452 0
M  V30 3395 O 328.977 1.60658 -1.12098 0
M  V30 3396 H 327.557 -0.224613 -0.712431 0
M  V30 3397 H 330.219 -1.21855 -1.5211 0
M  V30 3398 H 329.315 -0.848738 -3.00338 0
M  V30 3399 N 329.616 1.39756 -0.72842 0
M  V30 3400 C 330.549 2.28176 -0.0330172 0
M  V30 3401 C 331.527 1.44035 0.754501 0
M  V30 3402 O 332.711 1.73434 0.738445 0
M  V30 3403 C 329.838 3.24795 0.960504 0
M  V30 3404 C 328.884 4.25693 0.262264 0
M  V30 3405 S 329.717 5.25714 -1.01906 0
M  V30 3406 C 330.873 6.25894 -0.0279717 0
M  V30 3407 H 331.106 2.86807 -0.78287 0
M  V30 3408 H 328.639 1.45382 -0.519951 0
M  V30 3409 H 330.597 3.80983 1.52846 0
M  V30 3410 H 329.258 2.65196 1.68315 0
M  V30 3411 H 328.451 4.93699 1.01379 0
M  V30 3412 H 328.053 3.7327 -0.233482 0
M  V30 3413 H 330.345 6.72585 0.814621 0
M  V30 3414 H 331.288 7.04876 -0.67499 0
M  V30 3415 H 331.696 5.63466 0.341489 0
M  V30 3416 N 331.094 0.475555 1.50254 0
M  V30 3417 C 332.042 -0.330276 2.30243 0
M  V30 3418 C 333.036 -0.986306 1.37726 0
M  V30 3419 O 334.242 -0.9169 1.54897 0
M  V30 3420 H 330.617 -0.125353 0.741479 0
M  V30 3421 H 332.588 0.364702 2.96163 0
M  V30 3422 C 331.337 -1.39704 3.18399 0
M  V30 3423 H 330.66 -0.901621 3.89501 0
M  V30 3424 H 332.1 -1.93336 3.77355 0
M  V30 3425 C 330.559 -2.4014 2.36293 0
M  V30 3426 O 331.089 -3.45504 2.04914 0
M  V30 3427 N 329.295 -2.1197 1.98789 0
M  V30 3428 H 328.842 -1.2631 2.24507 0
M  V30 3429 H 328.8 -2.79403 1.44157 0
M  V30 3430 N 332.573 -1.56217 0.208337 0
M  V30 3431 C 333.803 -2.02043 -0.431523 0
M  V30 3432 C 334.211 -1.08755 -1.54819 0
M  V30 3433 O 333.554 -0.0870009 -1.83494 0
M  V30 3434 C 333.616 -3.44239 -1.03633 0
M  V30 3435 C 333.28 -4.56965 -0.0567502 0
M  V30 3436 C 334.277 -5.14624 0.738773 0
M  V30 3437 C 331.962 -5.02266 0.0581736 0
M  V30 3438 C 333.956 -6.16045 1.63605 0
M  V30 3439 C 331.643 -6.03528 0.959001 0
M  V30 3440 C 332.641 -6.60293 1.7465 0
M  V30 3441 O 332.329 -7.59586 2.6322 0
M  V30 3442 H 332.061 -0.666772 -0.111313 0
M  V30 3443 H 334.615 -2.02919 0.318277 0
M  V30 3444 H 332.845 -3.40391 -1.83497 0
M  V30 3445 H 334.534 -3.73793 -1.58221 0
M  V30 3446 H 335.3 -4.80483 0.660364 0
M  V30 3447 H 331.179 -4.57771 -0.544633 0
M  V30 3448 H 334.723 -6.60279 2.25116 0
M  V30 3449 H 330.62 -6.37092 1.03848 0
M  V30 3450 H 331.388 -7.77057 2.57148 0
M  V30 3451 N 334.051 0.0651679 -1.57465 0
M  V30 3452 C 334.981 1.07693 -2.07182 0
M  V30 3453 C 335.962 1.39962 -0.966673 0
M  V30 3454 O 337.147 1.49475 -1.2398 0
M  V30 3455 C 334.277 2.3885 -2.52127 0
M  V30 3456 C 333.231 2.20917 -3.66579 0
M  V30 3457 C 332.557 3.57515 -3.97601 0
M  V30 3458 C 333.857 1.62493 -4.9638 0
M  V30 3459 H 335.551 0.663199 -2.91962 0
M  V30 3460 H 333.097 0.317569 -1.40455 0
M  V30 3461 H 335.05 3.09928 -2.85522 0
M  V30 3462 H 333.774 2.82215 -1.64384 0
M  V30 3463 H 332.433 1.52279 -3.33477 0
M  V30 3464 H 332.081 3.98463 -3.06979 0
M  V30 3465 H 331.781 3.46353 -4.74672 0
M  V30 3466 H 333.305 4.30013 -4.33499 0
M  V30 3467 H 334.719 2.23445 -5.27963 0
M  V30 3468 H 333.116 1.62009 -5.77818 0
M  V30 3469 H 334.186 0.587041 -4.81333 0
M  V30 3470 N 335.529 1.53961 0.336706 0
M  V30 3471 C 336.479 1.7881 1.41461 0
M  V30 3472 C 337.463 0.643561 1.47469 0
M  V30 3473 O 338.655 0.903166 1.52223 0
M  V30 3474 C 335.784 2.00722 2.78506 0
M  V30 3475 C 334.87 3.2126 2.76862 0
M  V30 3476 N 335.261 4.42588 2.44845 0
M  V30 3477 C 333.559 3.22568 3.08004 0
M  V30 3478 C 334.26 5.2447 2.51607 0
M  V30 3479 N 333.236 4.61344 2.87511 0
M  V30 3480 H 337.038 2.70205 1.15615 0
M  V30 3481 H 334.552 1.52978 0.545112 0
M  V30 3482 H 336.549 2.1666 3.5618 0
M  V30 3483 H 335.209 1.10573 3.05293 0
M  V30 3484 H 336.22 4.69819 2.17922 0
M  V30 3485 H 332.897 2.42409 3.39918 0
M  V30 3486 H 334.287 6.31324 2.29955 0
M  V30 3487 N 337.007 -0.598083 1.45811 0
M  V30 3488 C 337.937 -1.71873 1.58057 0
M  V30 3489 C 338.918 -1.64533 0.431615 0
M  V30 3490 O 340.103 -1.82787 0.65595 0
M  V30 3491 C 337.233 -3.10495 1.55597 0
M  V30 3492 C 336.187 -3.32654 2.69305 0
M  V30 3493 C 335.513 -4.71646 2.51902 0
M  V30 3494 C 336.813 -3.21981 4.11248 0
M  V30 3495 H 338.507 -1.61881 2.51863 0
M  V30 3496 H 336.053 -0.777372 1.21214 0
M  V30 3497 H 338.006 -3.88699 1.6276 0
M  V30 3498 H 336.73 -3.2135 0.583255 0
M  V30 3499 H 335.389 -2.56843 2.61586 0
M  V30 3500 H 335.037 -4.79246 1.52748 0
M  V30 3501 H 334.737 -4.87426 3.2816 0
M  V30 3502 H 336.261 -5.52038 2.60933 0
M  V30 3503 H 337.675 -3.90049 4.20161 0
M  V30 3504 H 336.072 -3.49289 4.87972 0
M  V30 3505 H 337.142 -2.1928 4.32486 0
M  V30 3506 N 338.485 -1.33259 -0.841409 0
M  V30 3507 C 339.435 -1.19872 -1.93945 0
M  V30 3508 C 340.419 -0.102269 -1.60575 0
M  V30 3509 O 341.611 -0.330114 -1.73894 0
M  V30 3510 C 338.74 -0.937517 -3.30251 0
M  V30 3511 C 337.826 -2.07629 -3.69799 0
M  V30 3512 N 338.217 -3.32604 -3.81062 0
M  V30 3513 C 336.515 -1.98242 -3.9952 0
M  V30 3514 C 337.216 -4.07275 -4.15333 0
M  V30 3515 N 336.192 -3.35691 -4.27566 0
M  V30 3516 H 339.994 -2.14604 -2.00805 0
M  V30 3517 H 337.508 -1.2523 -1.03398 0
M  V30 3518 H 339.505 -0.822545 -4.08705 0
M  V30 3519 H 338.165 0.00128798 -3.247 0
M  V30 3520 H 339.176 -3.67382 -3.65035 0
M  V30 3521 H 335.853 -1.12005 -4.02195 0
M  V30 3522 H 337.243 -5.1511 -4.31406 0
M  V30 3523 N 339.963 1.05934 -1.16686 0
M  V30 3524 C 340.91 2.13499 -0.876748 0
M  V30 3525 C 341.88 1.65162 0.176299 0
M  V30 3526 O 343.065 1.90757 0.0407143 0
M  V30 3527 C 340.205 3.42912 -0.387967 0
M  V30 3528 C 339.318 4.04964 -1.50426 0
M  V30 3529 C 338.453 5.22266 -0.970125 0
M  V30 3530 C 337.492 5.76309 -2.06238 0
M  V30 3531 N 336.629 6.84922 -1.54356 0
M  V30 3532 H 341.469 2.37654 -1.7979 0
M  V30 3533 H 339.006 1.16598 -0.896843 0
M  V30 3534 H 340.964 4.17111 -0.086186 0
M  V30 3535 H 339.594 3.18963 0.496235 0
M  V30 3536 H 338.646 3.28277 -1.92193 0
M  V30 3537 H 339.958 4.41122 -2.32836 0
M  V30 3538 H 339.112 6.03506 -0.621743 0
M  V30 3539 H 337.851 4.87564 -0.115377 0
M  V30 3540 H 336.856 4.93704 -2.41942 0
M  V30 3541 H 338.081 6.13062 -2.92115 0
M  V30 3542 H 336.027 6.52131 -0.711406 0
M  V30 3543 H 335.944 7.20043 -2.30379 0
M  V30 3544 H 337.212 7.69832 -1.22387 0
M  V30 3545 N 341.441 0.965919 1.2453 0
M  V30 3546 C 342.69 0.622437 1.91856 0
M  V30 3547 C 343.003 -0.846006 1.76358 0
M  V30 3548 O 344.209 -1.29993 2.38357 0
M  V30 3549 C 342.665 1.0626 3.43856 0
M  V30 3550 C 342.273 2.55437 3.68043 0
M  V30 3551 C 344.017 0.792183 4.17043 0
M  V30 3552 C 341.924 2.93196 5.13605 0
M  V30 3553 H 340.854 0.229092 0.718354 0
M  V30 3554 H 343.505 1.17189 1.41206 0
M  V30 3555 H 341.887 0.441476 3.93531 0
M  V30 3556 H 343.061 3.22665 3.28974 0
M  V30 3557 H 341.376 2.8007 3.08139 0
M  V30 3558 H 343.973 1.05031 5.24283 0
M  V30 3559 H 344.316 -0.271584 4.15413 0
M  V30 3560 H 344.849 1.37419 3.73311 0
M  V30 3561 H 341.588 3.98636 5.20355 0
M  V30 3562 H 341.108 2.30651 5.53679 0
M  V30 3563 H 342.787 2.83004 5.81823 0
M  V30 3564 N 342.919 -1.39368 0.735821 0
M  V30 3565 C 344.168 -1.99733 0.281004 0
M  V30 3566 C 344.481 -1.59055 -1.13846 0
M  V30 3567 O 345.687 -2.12262 -1.69284 0
M  V30 3568 C 344.143 -3.57057 0.451462 0
M  V30 3569 C 343.751 -4.06697 1.87886 0
M  V30 3570 C 345.495 -4.2446 0.0584616 0
M  V30 3571 C 343.402 -5.56598 1.99883 0
M  V30 3572 H 342.332 -0.747163 0.101311 0
M  V30 3573 H 344.983 -1.59357 0.909819 0
M  V30 3574 H 343.365 -3.95234 -0.246263 0
M  V30 3575 H 344.539 -3.79853 2.60861 0
M  V30 3576 H 342.854 -3.5196 2.22515 0
M  V30 3577 H 345.451 -5.34549 0.127099 0
M  V30 3578 H 345.794 -4.04444 -0.986433 0
M  V30 3579 H 346.327 -3.9146 0.707374 0
M  V30 3580 H 343.066 -5.81494 3.02564 0
M  V30 3581 H 342.586 -5.85242 1.31346 0
M  V30 3582 H 344.265 -6.22022 1.78039 0
M  V30 3583 N 344.397 -0.483516 -1.5 0
M  V30 3584 C 345.347 0.32306 -2.257 0
M  V30 3585 C 346.331 0.950755 -1.29805 0
M  V30 3586 O 347.523 0.861247 -1.54634 0
M  V30 3587 C 344.652 1.39724 -3.13579 0
M  V30 3588 C 343.738 0.776663 -4.16928 0
M  V30 3589 N 344.129 -0.1104 -5.0568 0
M  V30 3590 C 342.427 1.03922 -4.33724 0
M  V30 3591 C 343.128 -0.46387 -5.79848 0
M  V30 3592 N 342.104 0.163987 -5.43353 0
M  V30 3593 H 345.906 -0.360086 -2.91686 0
M  V30 3594 H 343.42 -0.298456 -1.59634 0
M  V30 3595 H 345.417 1.98837 -3.66428 0
M  V30 3596 H 344.077 2.08225 -2.49143 0
M  V30 3597 H 345.088 -0.480069 -5.1567 0
M  V30 3598 H 341.765 1.71829 -3.80501 0
M  V30 3599 H 343.155 -1.18854 -6.61304 0
M  V30 3600 N 345.875 1.56104 -0.216619 0
M  V30 3601 C 347.291 1.58995 0.13886 0
M  V30 3602 C 347.491 1.23333 1.59346 0
M  V30 3603 O 346.547 0.966234 2.33281 0
M  V30 3604 C 347.86 3.00143 -0.182968 0
M  V30 3605 C 349.408 3.12751 -0.124807 0
M  V30 3606 C 349.883 4.56068 -0.420241 0
M  V30 3607 N 351.374 4.61723 -0.369634 0
M  V30 3608 C 352.109 5.70542 -0.571789 0
M  V30 3609 N 351.605 6.87744 -0.835453 0
M  V30 3610 N 353.398 5.59831 -0.504563 0
M  V30 3611 H 345.549 1.77562 -1.16557 0
M  V30 3612 H 347.812 0.825091 -0.466828 0
M  V30 3613 H 347.518 3.30871 -1.19237 0
M  V30 3614 H 347.392 3.73813 0.504367 0
M  V30 3615 H 349.779 2.81822 0.875223 0
M  V30 3616 H 349.86 2.41421 -0.845544 0
M  V30 3617 H 349.504 4.87713 -1.41769 0
M  V30 3618 H 349.434 5.25617 0.321631 0
M  V30 3619 H 351.925 3.77502 -0.173338 0
M  V30 3620 H 352.238 7.66587 -0.977938 0
M  V30 3621 H 350.583 6.895 -0.872592 0
M  V30 3622 H 353.774 4.67145 -0.298842 0
M  V30 3623 H 353.947 6.44573 -0.665519 0
M  V30 3624 N 347.353 -0.0568162 1.57498 0
M  V30 3625 C 348.63 -0.786954 1.79071 0
M  V30 3626 C 349.01 -1.95028 0.80792 0
M  V30 3627 O 348.358 -2.27968 -0.155858 0
M  V30 3628 C 348.568 -1.24594 3.26002 0
M  V30 3629 C 349.916 -1.67323 3.90241 0
M  V30 3630 O 350.94 -1.34124 3.29984 0
M  V30 3631 O 349.799 -2.28842 4.9628 0
M  V30 3632 H 346.893 -0.378262 0.735423 0
M  V30 3633 H 349.439 -0.035734 1.69662 0
M  V30 3634 H 348.211 -0.41423 3.89101 0
M  V30 3635 H 347.834 -2.05803 3.40192 0
M  V30 3636 N 348.832 -1.54138 -0.328536 0
M  V30 3637 C 349.762 -1.86167 -1.40939 0
M  V30 3638 C 350.743 -0.718044 -1.54202 0
M  V30 3639 O 351.928 -0.971328 -1.68163 0
M  V30 3640 C 349.058 -2.08461 -2.77779 0
M  V30 3641 C 348.012 -3.24299 -2.7931 0
M  V30 3642 C 347.338 -3.31955 -4.19178 0
M  V30 3643 C 348.638 -4.62065 -2.43502 0
M  V30 3644 H 350.332 -2.76689 -1.14383 0
M  V30 3645 H 347.878 -1.33132 -0.548806 0
M  V30 3646 H 349.831 -2.29453 -3.53454 0
M  V30 3647 H 348.555 -1.14684 -3.05802 0
M  V30 3648 H 347.214 -3.03187 -2.0609 0
M  V30 3649 H 346.862 -2.35745 -4.44335 0
M  V30 3650 H 346.562 -4.09805 -4.2111 0
M  V30 3651 H 348.086 -3.55175 -4.96672 0
M  V30 3652 H 349.5 -4.8297 -3.08889 0
M  V30 3653 H 347.897 -5.42429 -2.56693 0
M  V30 3654 H 348.967 -4.64652 -1.38659 0
M  V30 3655 N 350.31 0.590341 -1.46126 0
M  V30 3656 C 351.257 1.69994 -1.56111 0
M  V30 3657 C 352.227 1.61065 -0.405867 0
M  V30 3658 O 353.412 1.8039 -0.621613 0
M  V30 3659 C 350.552 3.08326 -1.55013 0
M  V30 3660 C 349.665 3.27936 -2.81215 0
M  V30 3661 C 348.8 4.56473 -2.71673 0
M  V30 3662 C 347.839 4.694 -3.92849 0
M  V30 3663 N 346.976 5.89254 -3.81738 0
M  V30 3664 H 351.816 1.60797 -2.50895 0
M  V30 3665 H 349.353 0.783799 -1.24479 0
M  V30 3666 H 351.311 3.88383 -1.52362 0
M  V30 3667 H 349.941 3.16439 -0.637667 0
M  V30 3668 H 348.993 2.41536 -2.93879 0
M  V30 3669 H 350.305 3.33357 -3.71045 0
M  V30 3670 H 349.459 5.44748 -2.67085 0
M  V30 3671 H 348.198 4.53477 -1.7947 0
M  V30 3672 H 347.203 3.79544 -3.97777 0
M  V30 3673 H 348.428 4.7418 -4.86138 0
M  V30 3674 H 346.374 5.87271 -2.92317 0
M  V30 3675 H 346.291 5.95911 -4.65217 0
M  V30 3676 H 347.559 6.79981 -3.81112 0
M  V30 3677 N 351.788 1.33704 0.83433 0
M  V30 3678 C 353.013 1.28615 1.62705 0
M  V30 3679 C 353.438 -0.139242 1.87584 0
M  V30 3680 O 352.796 -1.09734 1.4432 0
M  V30 3681 C 352.844 2.07139 2.95171 0
M  V30 3682 O 351.948 1.4331 3.86699 0
M  V30 3683 H 351.289 0.44226 0.49528 0
M  V30 3684 H 353.819 1.76335 1.03766 0
M  V30 3685 H 353.829 2.18073 3.44831 0
M  V30 3686 H 352.504 3.10779 2.76386 0
M  V30 3687 H 351.081 1.4105 3.45195 0
M  V30 3688 N 353.266 -1.05314 1.17247 0
M  V30 3689 C 354.677 -1.59753 0.96623 0
M  V30 3690 C 355.028 -1.9005 -0.487378 0
M  V30 3691 O 354.153 -1.68126 -1.36245 0
M  V30 3692 C 354.748 -2.90249 1.74759 0
M  V30 3693 C 353.307 -3.41352 1.58606 0
M  V30 3694 C 352.454 -2.15103 1.75002 0
M  V30 3695 H 355.405 -0.881406 1.31973 0
M  V30 3696 H 355.426 -3.60097 1.22925 0
M  V30 3697 H 354.938 -2.68166 2.8055 0
M  V30 3698 H 353.039 -3.68474 0.552985 0
M  V30 3699 H 353.152 -4.16019 2.37624 0
M  V30 3700 H 351.516 -2.25804 1.17833 0
M  V30 3701 H 352.299 -1.95491 2.82202 0
M  V30 3702 N 354.744 -0.972509 -1.24016 0
M  V30 3703 C 355.692 -0.498562 -2.27194 0
M  V30 3704 C 356.686 0.440372 -1.63576 0
M  V30 3705 O 357.892 0.315133 -1.7722 0
M  V30 3706 H 354.267 -0.142775 -0.738322 0
M  V30 3707 H 356.238 -1.38065 -2.64539 0
M  V30 3708 C 354.987 0.191072 -3.47175 0
M  V30 3709 H 354.31 -0.522318 -3.96373 0
M  V30 3710 H 355.75 0.486445 -4.212 0
M  V30 3711 C 354.209 1.41967 -3.05527 0
M  V30 3712 O 354.739 2.51642 -3.13112 0
M  V30 3713 N 352.945 1.28746 -2.60524 0
M  V30 3714 H 352.492 0.395089 -2.54552 0
M  V30 3715 H 352.45 2.11061 -2.33025 0
M  V30 3716 N 356.222 1.38976 -0.743202 0
M  V30 3717 C 357.155 2.28128 -0.0572165 0
M  V30 3718 C 358.133 1.44827 0.739182 0
M  V30 3719 O 359.317 1.74207 0.720009 0
M  V30 3720 C 356.444 3.25796 0.926001 0
M  V30 3721 C 355.49 4.25947 0.217099 0
M  V30 3722 S 356.323 5.24604 -1.07477 0
M  V30 3723 C 357.479 6.25829 -0.0943545 0
M  V30 3724 H 357.712 2.85961 -0.813246 0
M  V30 3725 H 355.245 1.44822 -0.535341 0
M  V30 3726 H 357.203 3.82583 1.48797 0
M  V30 3727 H 355.864 2.66966 1.65493 0
M  V30 3728 H 355.057 4.94746 0.961372 0
M  V30 3729 H 354.659 3.73002 -0.273059 0
M  V30 3730 H 356.951 6.73411 0.743239 0
M  V30 3731 H 357.894 7.0412 -0.749713 0
M  V30 3732 H 358.302 5.63797 0.281706 0
M  V30 3733 N 357.7 0.491464 1.49741 0
M  V30 3734 C 358.63 -0.28154 2.31796 0
M  V30 3735 C 359.611 -0.971473 1.3963 0
M  V30 3736 O 360.796 -0.964719 1.68543 0
M  V30 3737 C 357.926 -1.35203 3.19902 0
M  V30 3738 C 356.88 -0.782529 4.20786 0
M  V30 3739 C 356.206 -1.95283 4.97764 0
M  V30 3740 C 357.506 0.21999 5.21837 0
M  V30 3741 H 359.2 0.403355 2.96671 0
M  V30 3742 H 356.746 0.195425 1.42668 0
M  V30 3743 H 358.699 -1.90045 3.76113 0
M  V30 3744 H 357.423 -2.06598 2.52953 0
M  V30 3745 H 356.082 -0.255928 3.65706 0
M  V30 3746 H 355.73 -2.65423 4.2727 0
M  V30 3747 H 355.43 -1.57789 5.66018 0
M  V30 3748 H 356.954 -2.50577 5.56816 0
M  V30 3749 H 358.368 -0.23996 5.72798 0
M  V30 3750 H 356.765 0.51026 5.97927 0
M  V30 3751 H 357.835 1.13911 4.7133 0
M  V30 3752 N 359.178 -1.55987 0.224894 0
M  V30 3753 C 360.427 -1.97566 -0.406273 0
M  V30 3754 C 360.74 -1.11569 -1.6066 0
M  V30 3755 O 361.946 -1.43062 -2.3075 0
M  V30 3756 C 360.402 -3.51474 -0.774207 0
M  V30 3757 C 360.01 -4.46179 0.403496 0
M  V30 3758 C 361.754 -4.01758 -1.37079 0
M  V30 3759 C 359.661 -5.91399 0.0129412 0
M  V30 3760 H 358.591 -0.737777 -0.155565 0
M  V30 3761 H 361.242 -1.80659 0.321635 0
M  V30 3762 H 359.624 -3.63994 -1.55963 0
M  V30 3763 H 360.798 -4.45409 1.18101 0
M  V30 3764 H 359.113 -4.06255 0.913536 0
M  V30 3765 H 361.71 -5.07756 -1.67596 0
M  V30 3766 H 362.053 -3.47805 -2.28773 0
M  V30 3767 H 362.586 -3.92475 -0.648733 0
M  V30 3768 H 359.325 -6.49341 0.896451 0
M  V30 3769 H 358.845 -5.95356 -0.728821 0
M  V30 3770 H 360.524 -6.45683 -0.412582 0
M  V30 3771 N 360.656 0.0484629 -1.57525 0
M  V30 3772 C 361.884 0.755421 -1.92616 0
M  V30 3773 C 362.299 1.69919 -0.822984 0
M  V30 3774 O 361.656 1.81378 0.202085 0
M  V30 3775 C 361.707 1.52915 -3.27566 0
M  V30 3776 O 361.428 0.62329 -4.33644 0
M  V30 3777 C 362.929 2.33502 -3.76818 0
M  V30 3778 H 360.149 0.213465 -0.63614 0
M  V30 3779 H 362.693 0.0117698 -2.04497 0
M  V30 3780 H 360.848 2.22486 -3.17142 0
M  V30 3781 H 361.262 1.16383 -5.11425 0
M  V30 3782 H 362.736 2.83214 -4.73808 0
M  V30 3783 H 363.213 3.14068 -3.07014 0
M  V30 3784 H 363.819 1.69043 -3.90262 0
M  V30 3785 N 362.134 1.5431 0.320358 0
M  V30 3786 C 363.364 1.7638 1.07582 0
M  V30 3787 C 363.772 0.513944 1.82086 0
M  V30 3788 O 363.115 -0.525123 1.76035 0
M  V30 3789 C 363.177 2.9055 2.1171 0
M  V30 3790 C 362.841 4.2934 1.56575 0
M  V30 3791 C 363.838 5.10077 1.00586 0
M  V30 3792 C 361.523 4.75893 1.60722 0
M  V30 3793 C 363.517 6.35477 0.494756 0
M  V30 3794 C 361.204 6.0126 1.09224 0
M  V30 3795 C 362.202 6.80886 0.53696 0
M  V30 3796 O 361.89 8.03894 0.0297371 0
M  V30 3797 H 361.622 0.592369 0.325692 0
M  V30 3798 H 364.176 2.02019 0.37116 0
M  V30 3799 H 362.406 2.60489 2.85801 0
M  V30 3800 H 364.095 3.00373 2.73003 0
M  V30 3801 H 364.861 4.75265 0.966869 0
M  V30 3802 H 360.74 4.13957 2.02882 0
M  V30 3803 H 364.284 6.97574 0.0606842 0
M  V30 3804 H 360.181 6.35562 1.12831 0
M  V30 3805 H 360.949 8.18372 0.14486 0
M  V30 3806 N 363.613 -0.582584 1.46437 0
M  V30 3807 C 364.89 -1.34276 1.4223 0
M  V30 3808 C 365.27 -2.10835 0.10583 0
M  V30 3809 O 364.618 -2.09485 -0.912596 0
M  V30 3810 C 364.828 -2.26865 2.65204 0
M  V30 3811 C 366.176 -2.88691 3.11356 0
M  V30 3812 O 367.2 -2.37178 2.65753 0
M  V30 3813 O 366.059 -3.82255 3.90568 0
M  V30 3814 H 363.153 -0.603326 0.565621 0
M  V30 3815 H 365.699 -0.603591 1.58603 0
M  V30 3816 H 364.471 -1.69724 3.52576 0
M  V30 3817 H 364.094 -3.08122 2.5129 0
M  V30 3818 N 365.091 -1.34144 -0.827227 0
M  V30 3819 C 366.368 -1.16844 -1.56865 0
M  V30 3820 C 366.748 0.260654 -2.09485 0
M  V30 3821 O 366.096 1.26138 -1.9053 0
M  V30 3822 C 366.306 -2.21939 -2.6934 0
M  V30 3823 C 367.654 -2.56695 -3.3822 0
M  V30 3824 O 368.678 -2.20695 -2.79593 0
M  V30 3825 O 367.537 -3.18518 -4.44082 0
M  V30 3826 H 364.631 -0.452669 -0.692112 0
M  V30 3827 H 367.177 -1.45763 -0.868973 0
M  V30 3828 H 365.949 -3.17882 -2.28182 0
M  V30 3829 H 365.572 -1.94172 -3.46962 0
M  V30 3830 N 366.569 1.04691 -1.17803 0
M  V30 3831 C 367.815 1.78045 -0.970969 0
M  V30 3832 C 368.148 1.87686 0.498751 0
M  V30 3833 O 367.423 1.38035 1.37027 0
M  V30 3834 C 367.706 3.2166 -1.61884 0
M  V30 3835 C 367.559 3.20001 -3.161 0
M  V30 3836 C 368.878 4.1962 -1.3269 0
M  V30 3837 H 365.997 0.64633 -0.354155 0
M  V30 3838 H 368.639 1.22333 -1.45378 0
M  V30 3839 H 366.789 3.69232 -1.20831 0
M  V30 3840 H 368.461 2.80467 -3.66246 0
M  V30 3841 H 366.704 2.58203 -3.48588 0
M  V30 3842 H 367.375 4.21386 -3.56564 0
M  V30 3843 H 369.851 3.80567 -1.68249 0
M  V30 3844 H 368.727 5.18339 -1.80599 0
M  V30 3845 H 368.988 4.414 -0.248622 0
M  V30 3846 N 368.047 0.979072 1.23499 0
M  V30 3847 C 369.293 0.648178 1.92163 0
M  V30 3848 C 369.626 -0.816049 1.76222 0
M  V30 3849 O 368.901 -1.58849 1.12237 0
M  V30 3850 C 369.184 1.03773 3.44824 0
M  V30 3851 C 369.037 2.55948 3.69879 0
M  V30 3852 C 370.356 0.580653 4.36253 0
M  V30 3853 H 367.475 0.236952 0.69787 0
M  V30 3854 H 370.117 1.22012 1.45647 0
M  V30 3855 H 368.267 0.551058 3.84572 0
M  V30 3856 H 369.939 3.12179 3.3962 0
M  V30 3857 H 368.182 2.98641 3.14636 0
M  V30 3858 H 368.853 2.78255 4.76737 0
M  V30 3859 H 371.329 0.998465 4.03943 0
M  V30 3860 H 370.205 0.881663 5.41773 0
M  V30 3861 H 370.466 -0.519052 4.39042 0
M  V30 3862 N 369.525 -1.3858 0.750561 0
M  V30 3863 C 370.472 -2.30483 0.120835 0
M  V30 3864 C 371.442 -1.50022 -0.712923 0
M  V30 3865 O 372.627 -1.78662 -0.669676 0
M  V30 3866 C 369.767 -3.36431 -0.768666 0
M  V30 3867 C 368.88 -4.31927 0.0793922 0
M  V30 3868 C 368.015 -5.24944 -0.81283 0
M  V30 3869 C 367.054 -6.12088 0.0390447 0
M  V30 3870 N 366.191 -6.97412 -0.809969 0
M  V30 3871 H 371.031 -2.83761 0.91015 0
M  V30 3872 H 368.568 -1.39707 0.460463 0
M  V30 3873 H 370.526 -3.96462 -1.29898 0
M  V30 3874 H 369.156 -2.8457 -1.5238 0
M  V30 3875 H 368.208 -3.73382 0.727303 0
M  V30 3876 H 369.52 -4.93319 0.737401 0
M  V30 3877 H 368.674 -5.90078 -1.41042 0
M  V30 3878 H 367.413 -4.63911 -1.50458 0
M  V30 3879 H 366.418 -5.45952 0.649328 0
M  V30 3880 H 367.643 -6.75189 0.727809 0
M  V30 3881 H 365.589 -6.38931 -1.48672 0
M  V30 3882 H 365.506 -7.55712 -0.208789 0
M  V30 3883 H 366.774 -7.66959 -1.39263 0
M  V30 3884 N 371.003 -0.499398 -1.49478 0
M  V30 3885 C 372.252 0.0475259 -2.01644 0
M  V30 3886 C 372.565 1.38195 -1.38425 0
M  V30 3887 O 373.771 2.01547 -1.8191 0
M  V30 3888 C 372.227 0.135164 -3.59646 0
M  V30 3889 C 371.835 -1.19252 -4.31837 0
M  V30 3890 C 373.579 0.632538 -4.19761 0
M  V30 3891 C 371.486 -1.06713 -5.81693 0
M  V30 3892 H 370.416 0.0215349 -0.753692 0
M  V30 3893 H 373.067 -0.638577 -1.7203 0
M  V30 3894 H 371.449 0.885681 -3.85969 0
M  V30 3895 H 372.623 -1.9562 -4.17216 0
M  V30 3896 H 370.938 -1.62321 -3.83459 0
M  V30 3897 H 373.535 0.743833 -5.29501 0
M  V30 3898 H 373.878 1.63098 -3.83021 0
M  V30 3899 H 374.411 -0.0613987 -3.97753 0
M  V30 3900 H 371.15 -2.03979 -6.22955 0
M  V30 3901 H 370.67 -0.344307 -5.98811 0
M  V30 3902 H 372.349 -0.745208 -6.42694 0
M  V30 3903 N 372.481 1.55866 -0.233164 0
M  V30 3904 C 373.706 2.03449 0.402906 0
M  V30 3905 C 374.131 1.11166 1.51736 0
M  V30 3906 O 373.489 0.101996 1.81013 0
M  V30 3907 C 373.537 3.49165 0.9009 0
M  V30 3908 O 372.641 3.60019 2.01147 0
M  V30 3909 H 371.982 0.657913 0.0897025 0
M  V30 3910 H 374.512 2.01493 -0.355201 0
M  V30 3911 H 374.522 3.89716 1.2077 0
M  V30 3912 H 373.197 4.15813 0.0852889 0
M  V30 3913 H 371.774 3.3136 1.71042 0
M  V30 3914 N 373.959 -0.0401083 1.57549 0
M  V30 3915 C 375.236 -0.767917 1.79896 0
M  V30 3916 C 375.616 -1.9416 0.82856 0
M  V30 3917 O 374.964 -2.2812 -0.131671 0
M  V30 3918 C 375.174 -1.2113 3.27305 0
M  V30 3919 C 376.522 -1.63175 3.91994 0
M  V30 3920 O 377.546 -1.30616 3.31388 0
M  V30 3921 O 376.405 -2.23565 4.98679 0
M  V30 3922 H 373.499 -0.370441 0.739393 0
M  V30 3923 H 376.045 -0.017737 1.69691 0
M  V30 3924 H 374.817 -0.372937 3.89519 0
M  V30 3925 H 374.44 -2.02183 3.42356 0
M  V30 3926 N 375.437 -1.54477 -0.31217 0
M  V30 3927 C 376.684 -1.73227 -1.04875 0
M  V30 3928 C 377.012 -0.512042 -1.87639 0
M  V30 3929 O 376.267 0.506131 -1.89042 0
M  V30 3930 C 376.566 -2.967 -1.99258 0
M  V30 3931 C 376.232 -4.30974 -1.32559 0
M  V30 3932 C 374.894 -4.67477 -1.141 0
M  V30 3933 C 377.246 -5.14258 -0.847835 0
M  V30 3934 C 374.574 -5.84852 -0.465326 0
M  V30 3935 C 376.926 -6.32327 -0.185931 0
M  V30 3936 C 375.59 -6.67499 0.0107077 0
M  V30 3937 H 374.86 -0.633881 -0.383765 0
M  V30 3938 H 377.507 -1.88727 -0.324731 0
M  V30 3939 H 375.812 -2.75935 -2.7815 0
M  V30 3940 H 377.509 -3.08401 -2.563 0
M  V30 3941 H 374.099 -4.02262 -1.4793 0
M  V30 3942 H 378.283 -4.86565 -0.978192 0
M  V30 3943 H 373.539 -6.10654 -0.301883 0
M  V30 3944 H 377.713 -6.96135 0.192211 0
M  V30 3945 H 375.34 -7.58306 0.536287 0
M  V30 3946 N 376.915 0.57481 -1.46744 0
M  V30 3947 C 378.163 1.33009 -1.52161 0
M  V30 3948 C 378.484 1.94185 -0.178092 0
M  V30 3949 O 377.754 1.7899 0.796196 0
M  V30 3950 H 376.334 0.493873 -0.560445 0
M  V30 3951 H 378.996 0.672589 -1.82927 0
M  V30 3952 H 378.092 2.13273 -2.27862 0
M  V30 3953 N 378.394 1.34581 0.820102 0
M  V30 3954 C 379.622 1.3018 1.60813 0
M  V30 3955 C 380.037 -0.123551 1.88395 0
M  V30 3956 O 379.394 -1.07148 1.47735 0
M  V30 3957 C 379.445 2.09312 2.94739 0
M  V30 3958 O 379.166 3.46288 2.68358 0
M  V30 3959 C 380.667 2.1234 3.89136 0
M  V30 3960 H 377.887 0.447726 0.499782 0
M  V30 3961 H 380.431 1.77237 1.02017 0
M  V30 3962 H 378.586 1.65889 3.50085 0
M  V30 3963 H 379 3.87227 3.53774 0
M  V30 3964 H 380.474 2.72126 4.80262 0
M  V30 3965 H 380.951 1.11854 4.24718 0
M  V30 3966 H 381.557 2.55864 3.39726 0
M  V30 3967 N 379.872 -1.04064 1.18357 0
M  V30 3968 C 381.097 -1.81454 1.00445 0
M  V30 3969 C 381.522 -1.82823 -0.442423 0
M  V30 3970 O 380.88 -1.24555 -1.31741 0
M  V30 3971 C 380.928 -3.24925 1.56384 0
M  V30 3972 O 380.032 -4.04856 0.785209 0
M  V30 3973 H 379.373 -0.560604 0.355835 0
M  V30 3974 H 381.903 -1.31059 1.57114 0
M  V30 3975 H 381.913 -3.75702 1.59097 0
M  V30 3976 H 380.588 -3.23244 2.61699 0
M  V30 3977 H 379.165 -3.63537 0.830399 0
M  V30 3978 N 381.35 -0.985608 -1.22978 0
M  V30 3979 C 382.297 -0.529825 -2.24636 0
M  V30 3980 C 383.267 0.434028 -1.60329 0
M  V30 3981 O 384.452 0.340414 -1.87739 0
M  V30 3982 C 381.592 0.156533 -3.44745 0
M  V30 3983 C 380.705 -0.848197 -4.23591 0
M  V30 3984 C 379.84 -0.136109 -5.31026 0
M  V30 3985 C 378.879 -1.1297 -6.01585 0
M  V30 3986 N 378.016 -0.446415 -7.00679 0
M  V30 3987 H 382.856 -1.40148 -2.62988 0
M  V30 3988 H 380.393 -0.702168 -1.29259 0
M  V30 3989 H 382.351 0.571324 -4.1327 0
M  V30 3990 H 380.981 0.992025 -3.07179 0
M  V30 3991 H 380.033 -1.38135 -3.54433 0
M  V30 3992 H 381.345 -1.60512 -4.72268 0
M  V30 3993 H 380.499 0.335784 -6.0577 0
M  V30 3994 H 379.238 0.653373 -4.83304 0
M  V30 3995 H 378.243 -1.6123 -5.25628 0
M  V30 3996 H 379.468 -1.91993 -6.51395 0
M  V30 3997 H 377.414 0.323763 -6.55201 0
M  V30 3998 H 377.331 -1.1419 -7.47326 0
M  V30 3999 H 378.599 0.00291697 -7.795 0
M  V30 4000 N 382.828 1.3818 -0.7579 0
M  V30 4001 C 383.738 2.3421 -0.135247 0
M  V30 4002 C 384.754 1.59487 0.695683 0
M  V30 4003 O 385.93 1.91657 0.618832 0
M  V30 4004 C 382.995 3.3862 0.744139 0
M  V30 4005 C 382.056 4.2918 -0.101658 0
M  V30 4006 C 381.289 5.28603 0.735851 0
M  V30 4007 O 381.512 5.35166 1.97366 0
M  V30 4008 O 380.446 6.01707 0.152372 0
M  V30 4009 H 384.272 2.8916 -0.928436 0
M  V30 4010 H 381.857 1.40101 -0.518855 0
M  V30 4011 H 383.739 4.02539 1.2466 0
M  V30 4012 H 382.414 2.86019 1.51575 0
M  V30 4013 H 381.321 3.68407 -0.650167 0
M  V30 4014 H 382.654 4.85048 -0.836024 0
M  V30 4015 N 384.306 0.507319 1.49211 0
M  V30 4016 C 385.236 -0.256939 2.32082 0
M  V30 4017 C 386.217 -0.956609 1.40652 0
M  V30 4018 O 387.402 -0.946788 1.69557 0
M  V30 4019 C 384.532 -1.31802 3.21318 0
M  V30 4020 C 383.486 -0.737855 4.21592 0
M  V30 4021 C 382.812 -1.89992 4.99807 0
M  V30 4022 C 384.112 0.275325 5.21574 0
M  V30 4023 H 385.806 0.434798 2.96226 0
M  V30 4024 H 383.352 0.210546 1.42452 0
M  V30 4025 H 385.305 -1.86045 3.78107 0
M  V30 4026 H 384.029 -2.03903 2.5513 0
M  V30 4027 H 382.688 -0.217126 3.65956 0
M  V30 4028 H 382.336 -2.60877 4.30061 0
M  V30 4029 H 382.036 -1.51777 5.6766 0
M  V30 4030 H 383.56 -2.44657 5.59442 0
M  V30 4031 H 384.974 -0.179193 5.7302 0
M  V30 4032 H 383.371 0.573649 5.97352 0
M  V30 4033 H 384.441 1.18903 4.70096 0
M  V30 4034 N 385.784 -1.5574 0.241426 0
M  V30 4035 C 387.009 -2.0366 -0.392111 0
M  V30 4036 C 387.434 -1.11969 -1.51144 0
M  V30 4037 O 386.792 -0.111594 -1.80956 0
M  V30 4038 C 386.84 -3.49638 -0.882371 0
M  V30 4039 O 385.944 -3.6108 -1.99235 0
M  V30 4040 H 385.285 -0.658379 -0.0862122 0
M  V30 4041 H 387.815 -2.01302 0.365881 0
M  V30 4042 H 387.825 -3.90351 -1.18702 0
M  V30 4043 H 386.5 -4.15852 -0.0632361 0
M  V30 4044 H 385.077 -3.32262 -1.69282 0
M  V30 4045 N 387.262 0.0317525 -1.57568 0
M  V30 4046 C 388.539 0.758366 -1.803 0
M  V30 4047 C 388.919 1.93718 -0.838845 0
M  V30 4048 O 388.267 2.28187 0.119571 0
M  V30 4049 C 388.477 1.19392 -3.27943 0
M  V30 4050 C 389.825 1.61094 -3.92854 0
M  V30 4051 O 390.849 1.28857 -3.32076 0
M  V30 4052 O 389.708 2.20918 -4.99858 0
M  V30 4053 H 386.802 0.366514 -0.741348 0
M  V30 4054 H 389.348 0.00873765 -1.69698 0
M  V30 4055 H 388.12 0.352275 -3.89711 0
M  V30 4056 H 387.743 2.00365 -3.43424 0
M  V30 4057 N 388.74 1.54641 0.303973 0
M  V30 4058 C 389.687 1.85386 1.37479 0
M  V30 4059 C 390.657 0.702528 1.50512 0
M  V30 4060 O 391.842 0.950867 1.65418 0
M  V30 4061 C 388.982 2.10413 2.73533 0
M  V30 4062 C 388.095 3.38049 2.68974 0
M  V30 4063 C 387.23 3.52934 3.97002 0
M  V30 4064 C 386.269 4.74373 3.86829 0
M  V30 4065 N 385.406 4.8608 5.06627 0
M  V30 4066 H 390.246 2.76732 1.1056 0
M  V30 4067 H 387.783 1.37034 0.534805 0
M  V30 4068 H 389.741 2.22919 3.52652 0
M  V30 4069 H 388.371 1.22338 2.98719 0
M  V30 4070 H 387.423 3.3418 1.81736 0
M  V30 4071 H 388.735 4.27288 2.57346 0
M  V30 4072 H 387.889 3.65088 4.84557 0
M  V30 4073 H 386.628 2.61824 4.1146 0
M  V30 4074 H 385.633 4.62255 2.97658 0
M  V30 4075 H 386.858 5.66888 3.73918 0
M  V30 4076 H 384.804 3.97891 5.21554 0
M  V30 4077 H 384.721 5.69315 4.9741 0
M  V30 4078 H 385.989 5.02587 5.95841 0
M  V30 4079 N 390.218 -0.567019 1.47046 0
M  V30 4080 C 391.443 -1.3551 1.57009 0
M  V30 4081 C 391.868 -1.86841 0.217259 0
M  V30 4082 O 391.226 -1.62435 -0.805268 0
M  V30 4083 C 391.274 -2.50777 2.5912 0
M  V30 4084 O 390.378 -3.52706 2.13711 0
M  V30 4085 H 389.719 -0.402919 0.52778 0
M  V30 4086 H 392.249 -0.686241 1.92748 0
M  V30 4087 H 392.259 -2.97481 2.79229 0
M  V30 4088 H 390.934 -2.12771 3.57353 0
M  V30 4089 H 389.511 -3.12374 2.03659 0
M  V30 4090 N 391.696 -1.35014 -0.812953 0
M  V30 4091 C 392.924 -1.31031 -1.6012 0
M  V30 4092 C 393.339 0.113558 -1.88458 0
M  V30 4093 O 392.696 1.06363 -1.48301 0
M  V30 4094 C 392.747 -2.10872 -2.93624 0
M  V30 4095 O 392.468 -3.47706 -2.66518 0
M  V30 4096 C 393.969 -2.14401 -3.88004 0
M  V30 4097 H 391.189 -0.45037 -0.497401 0
M  V30 4098 H 393.733 -1.77775 -1.01076 0
M  V30 4099 H 391.888 -1.67744 -3.492 0
M  V30 4100 H 392.302 -3.89097 -3.51715 0
M  V30 4101 H 393.776 -2.74669 -4.78812 0
M  V30 4102 H 394.253 -1.14105 -4.24119 0
M  V30 4103 H 394.859 -2.57662 -3.38364 0
M  V30 4104 N 393.175 1.03435 -1.18907 0
M  V30 4105 C 394.122 2.11591 -0.921837 0
M  V30 4106 C 395.092 1.65499 0.141226 0
M  V30 4107 O 396.277 1.908 0.000242829 0
M  V30 4108 C 393.417 3.42012 -0.460616 0
M  V30 4109 C 392.53 4.01682 -1.58982 0
M  V30 4110 C 391.665 5.20091 -1.08069 0
M  V30 4111 C 390.704 5.71805 -2.18416 0
M  V30 4112 N 389.841 6.81494 -1.68849 0
M  V30 4113 H 394.681 2.33787 -1.8479 0
M  V30 4114 H 392.218 1.1467 -0.921373 0
M  V30 4115 H 394.176 4.16834 -0.174642 0
M  V30 4116 H 392.806 3.19944 0.428467 0
M  V30 4117 H 391.858 3.24127 -1.99113 0
M  V30 4118 H 393.17 4.36084 -2.4214 0
M  V30 4119 H 392.324 6.02051 -0.749615 0
M  V30 4120 H 391.063 4.87209 -0.218771 0
M  V30 4121 H 390.068 4.88461 -2.5236 0
M  V30 4122 H 391.293 6.06728 -3.05054 0
M  V30 4123 H 389.239 6.50475 -0.849572 0
M  V30 4124 H 389.156 7.14994 -2.45601 0
M  V30 4125 H 390.424 7.67063 -1.38689 0
M  V30 4126 N 394.653 0.992116 1.22453 0
M  V30 4127 C 395.586 0.486701 2.22949 0
M  V30 4128 C 396.564 -0.45259 1.56174 0
M  V30 4129 O 397.748 -0.378317 1.84665 0
M  V30 4130 C 394.875 -0.294537 3.37417 0
M  V30 4131 C 393.921 0.590628 4.22391 0
M  V30 4132 S 394.754 2.04546 4.94895 0
M  V30 4133 C 395.91 1.27369 6.12803 0
M  V30 4134 H 396.143 1.33828 2.65475 0
M  V30 4135 H 393.676 0.799023 1.32117 0
M  V30 4136 H 395.634 -0.739241 4.03789 0
M  V30 4137 H 394.295 -1.12139 2.934 0
M  V30 4138 H 393.488 -0.0104375 5.03999 0
M  V30 4139 H 393.09 0.972064 3.61147 0
M  V30 4140 H 395.382 0.540943 6.75337 0
M  V30 4141 H 396.325 2.06502 6.7732 0
M  V30 4142 H 396.733 0.787324 5.58983 0
M  V30 4143 N 396.131 -1.37776 0.765217 0
M  V30 4144 C 397.356 -2.04651 0.336537 0
M  V30 4145 C 397.781 -1.57337 -1.03086 0
M  V30 4146 O 397.139 -0.730621 -1.65927 0
M  V30 4147 C 397.187 -3.58577 0.381468 0
M  V30 4148 O 396.291 -4.07706 -0.62042 0
M  V30 4149 H 395.632 -0.64756 0.146838 0
M  V30 4150 H 398.162 -1.76221 1.03959 0
M  V30 4151 H 398.172 -4.07314 0.236448 0
M  V30 4152 H 396.847 -3.9237 1.37907 0
M  V30 4153 H 395.424 -3.70306 -0.439056 0
M  V30 4154 N 397.609 -0.515225 -1.4894 0
M  V30 4155 C 398.856 0.024215 -2.02486 0
M  V30 4156 C 399.184 1.35671 -1.39368 0
M  V30 4157 O 398.439 1.88566 -0.523574 0
M  V30 4158 C 398.738 0.210595 -3.56779 0
M  V30 4159 C 398.404 -1.04569 -4.38607 0
M  V30 4160 C 397.066 -1.39002 -4.60686 0
M  V30 4161 C 399.418 -1.88008 -4.86109 0
M  V30 4162 C 396.746 -2.568 -5.27514 0
M  V30 4163 C 399.098 -3.04972 -5.54234 0
M  V30 4164 C 397.762 -3.39768 -5.74555 0
M  V30 4165 H 397.032 0.00886088 -0.740947 0
M  V30 4166 H 399.679 -0.678263 -1.79086 0
M  V30 4167 H 397.984 0.99572 -3.78936 0
M  V30 4168 H 399.681 0.642659 -3.95817 0
M  V30 4169 H 396.271 -0.767497 -4.21672 0
M  V30 4170 H 400.455 -1.62719 -4.68867 0
M  V30 4171 H 395.711 -2.8398 -5.41447 0
M  V30 4172 H 399.885 -3.69943 -5.90013 0
M  V30 4173 H 397.512 -4.31148 -6.26112 0
M  V30 4174 N 399.087 1.5561 -0.249682 0
M  V30 4175 C 400.05 2.20217 0.635394 0
M  V30 4176 C 401.05 1.17227 1.10066 0
M  V30 4177 O 402.24 1.42292 1.00492 0
M  V30 4178 C 399.372 2.84794 1.87363 0
M  V30 4179 H 400.565 2.99814 0.0716752 0
M  V30 4180 H 398.118 1.563 -0.000153234 0
M  V30 4181 H 398.853 2.09142 2.47851 0
M  V30 4182 H 398.638 3.60241 1.5482 0
M  V30 4183 H 400.128 3.3423 2.5036 0
M  V30 4184 N 400.565 -0.0233959 1.57583 0
M  V30 4185 C 401.813 -0.711654 1.89156 0
M  V30 4186 C 402.134 -1.75591 0.848096 0
M  V30 4187 O 401.404 -1.95547 -0.117566 0
M  V30 4188 H 399.984 -0.265835 0.698098 0
M  V30 4189 H 402.646 0.0119948 1.94896 0
M  V30 4190 H 401.742 -1.19766 2.88206 0
M  V30 4191 N 402.043 -1.548 -0.295768 0
M  V30 4192 C 403.271 -1.78327 -1.04914 0
M  V30 4193 C 403.686 -0.545316 -1.80753 0
M  V30 4194 O 403.043 0.485013 -1.75937 0
M  V30 4195 C 403.094 -2.99418 -2.02561 0
M  V30 4196 O 402.815 -4.18431 -1.29798 0
M  V30 4197 C 404.316 -3.35375 -2.89895 0
M  V30 4198 H 401.536 -0.594618 -0.310918 0
M  V30 4199 H 404.08 -2.01763 -0.333454 0
M  V30 4200 H 402.235 -2.78175 -2.69624 0
M  V30 4201 H 402.649 -4.86736 -1.95419 0
M  V30 4202 H 404.123 -4.23332 -3.54251 0
M  V30 4203 H 404.6 -2.53761 -3.58472 0
M  V30 4204 H 405.206 -3.58796 -2.28355 0
M  V30 4205 N 403.521 0.559213 -1.47345 0
M  V30 4206 C 404.767 1.31843 -1.54095 0
M  V30 4207 C 405.1 1.93149 -0.201726 0
M  V30 4208 O 404.375 1.77759 0.789428 0
M  V30 4209 C 404.658 2.43006 -2.65744 0
M  V30 4210 C 404.511 1.86581 -4.09277 0
M  V30 4211 C 405.83 3.44943 -2.73318 0
M  V30 4212 H 402.949 0.478012 -0.560957 0
M  V30 4213 H 405.591 0.625977 -1.79392 0
M  V30 4214 H 403.741 3.02072 -2.44305 0
M  V30 4215 H 405.413 1.31792 -4.42073 0
M  V30 4216 H 403.656 1.17268 -4.17649 0
M  V30 4217 H 404.327 2.66933 -4.83168 0
M  V30 4218 H 406.803 2.95793 -2.92653 0
M  V30 4219 H 405.679 4.20153 -3.53218 0
M  V30 4220 H 405.94 4.03665 -1.80296 0
M  V30 4221 N 404.999 1.35443 0.805782 0
M  V30 4222 C 405.962 1.28301 1.89925 0
M  V30 4223 C 406.962 0.194285 1.59622 0
M  V30 4224 O 408.152 0.448036 1.6834 0
M  V30 4225 C 405.284 0.984997 3.2636 0
M  V30 4226 H 406.477 2.2553 1.97677 0
M  V30 4227 H 404.03 1.19979 1.00173 0
M  V30 4228 H 404.765 0.016603 3.24296 0
M  V30 4229 H 404.55 1.77269 3.4974 0
M  V30 4230 H 406.04 0.960651 4.064 0
M  V30 4231 N 406.477 -1.02803 1.19454 0
M  V30 4232 C 407.723 -1.76598 1.0092 0
M  V30 4233 C 408.078 -1.86939 -0.455142 0
M  V30 4234 O 407.371 -1.37575 -1.33355 0
M  V30 4235 C 407.565 -3.18941 1.6128 0
M  V30 4236 C 407.394 -3.22476 3.13431 0
M  V30 4237 C 406.164 -3.30375 3.82336 0
M  V30 4238 C 408.362 -3.09451 4.10785 0
M  V30 4239 N 406.344 -3.23292 5.21877 0
M  V30 4240 C 407.715 -3.10012 5.36929 0
M  V30 4241 C 409.77 -2.93585 4.02135 0
M  V30 4242 C 408.473 -2.96334 6.55423 0
M  V30 4243 C 410.499 -2.81256 5.20239 0
M  V30 4244 C 409.861 -2.82472 6.45282 0
M  V30 4245 H 405.96 -0.657447 0.423424 0
M  V30 4246 H 408.544 -1.22369 1.5144 0
M  V30 4247 H 406.715 -3.71489 1.1336 0
M  V30 4248 H 408.447 -3.81102 1.36173 0
M  V30 4249 H 405.202 -3.3663 3.33132 0
M  V30 4250 H 405.626 -3.23156 5.94894 0
M  V30 4251 H 410.268 -2.91466 3.0628 0
M  V30 4252 H 407.986 -2.97203 7.51463 0
M  V30 4253 H 411.572 -2.70014 5.15348 0
M  V30 4254 H 410.452 -2.73036 7.35133 0
M  V30 4255 N 407.956 -0.998596 -1.21925 0
M  V30 4256 C 408.889 -0.498517 -2.22688 0
M  V30 4257 C 409.867 0.444301 -1.56412 0
M  V30 4258 O 411.051 0.368518 -1.84863 0
M  V30 4259 C 408.178 0.276639 -3.37568 0
M  V30 4260 C 407.224 -0.61302 -4.22071 0
M  V30 4261 S 408.057 -2.07168 -4.93803 0
M  V30 4262 C 409.213 -1.30617 -6.12119 0
M  V30 4263 H 409.446 -1.35234 -2.64762 0
M  V30 4264 H 406.979 -0.806018 -1.31692 0
M  V30 4265 H 408.937 0.717817 -4.04175 0
M  V30 4266 H 407.598 1.10581 -2.93991 0
M  V30 4267 H 406.791 -0.0162909 -5.03997 0
M  V30 4268 H 406.393 -0.991202 -3.60626 0
M  V30 4269 H 408.685 -0.57675 -6.75041 0
M  V30 4270 H 409.628 -2.10091 -6.76215 0
M  V30 4271 H 410.036 -0.816957 -5.58557 0
M  V30 4272 N 409.434 1.37368 -0.772513 0
M  V30 4273 C 410.397 2.28601 -0.165541 0
M  V30 4274 C 411.397 1.48062 0.627238 0
M  V30 4275 O 412.587 1.68268 0.450715 0
M  V30 4276 C 409.719 3.32023 0.772897 0
M  V30 4277 H 410.912 2.83787 -0.969787 0
M  V30 4278 H 408.465 1.46647 -0.540775 0
M  V30 4279 H 409.2 2.81962 1.60212 0
M  V30 4280 H 408.985 3.91555 0.206585 0
M  V30 4281 H 410.475 4.00197 1.19298 0
M  V30 4282 N 410.912 0.523116 1.48665 0
M  V30 4283 C 412.323 0.0808997 1.86525 0
M  V30 4284 C 412.674 -1.33975 1.43336 0
M  V30 4285 O 411.799 -2.00221 0.821009 0
M  V30 4286 C 412.394 0.140037 3.3851 0
M  V30 4287 C 410.953 -0.246948 3.75589 0
M  V30 4288 C 410.1 0.502845 2.72703 0
M  V30 4289 H 413.051 0.734736 1.40667 0
M  V30 4290 H 413.072 -0.649945 3.74908 0
M  V30 4291 H 412.584 1.17412 3.69914 0
M  V30 4292 H 410.685 -1.28343 3.49798 0
M  V30 4293 H 410.798 0.0878859 4.79019 0
M  V30 4294 H 409.162 -0.0500581 2.54651 0
M  V30 4295 H 409.945 1.53743 3.0695 0
M  V30 4296 N 412.39 -1.55475 0.257931 0
M  V30 4297 C 413.3 -2.2549 -0.647425 0
M  V30 4298 C 414.316 -1.2748 -1.18427 0
M  V30 4299 O 415.492 -1.6038 -1.2182 0
M  V30 4300 C 412.557 -2.94916 -1.82278 0
M  V30 4301 C 411.618 -4.08363 -1.32432 0
M  V30 4302 C 410.851 -4.74469 -2.44366 0
M  V30 4303 O 411.074 -4.39701 -3.63344 0
M  V30 4304 O 410.008 -5.62763 -2.13497 0
M  V30 4305 H 413.834 -3.03593 -0.0807707 0
M  V30 4306 H 411.419 -1.49377 0.0259962 0
M  V30 4307 H 413.301 -3.38606 -2.50846 0
M  V30 4308 H 411.976 -2.19744 -2.37685 0
M  V30 4309 H 410.883 -3.69166 -0.605605 0
M  V30 4310 H 412.216 -4.85385 -0.816211 0
M  V30 4311 N 413.868 0.0150385 -1.57593 0
M  V30 4312 C 415.114 0.704043 -1.90187 0
M  V30 4313 C 415.447 1.74249 -0.857366 0
M  V30 4314 O 414.722 1.94092 0.125843 0
M  V30 4315 C 415.005 1.36087 -3.33395 0
M  V30 4316 C 414.858 0.334981 -4.48551 0
M  V30 4317 C 416.177 2.29112 -3.7576 0
M  V30 4318 H 413.296 0.254475 -0.691673 0
M  V30 4319 H 415.938 -0.0331678 -1.89971 0
M  V30 4320 H 414.088 1.98922 -3.3371 0
M  V30 4321 H 415.76 -0.292534 -4.60372 0
M  V30 4322 H 414.003 -0.344325 -4.32431 0
M  V30 4323 H 414.674 0.833316 -5.45674 0
M  V30 4324 H 417.15 1.76308 -3.76902 0
M  V30 4325 H 416.026 2.72043 -4.76743 0
M  V30 4326 H 416.287 3.16385 -3.08793 0
M  V30 4327 N 415.346 1.54954 0.287554 0
M  V30 4328 C 416.595 1.74081 1.01877 0
M  V30 4329 C 416.908 0.541135 1.87966 0
M  V30 4330 O 418.114 0.614491 2.64455 0
M  V30 4331 C 416.57 3.08042 1.86113 0
M  V30 4332 C 416.178 4.35531 1.04961 0
M  V30 4333 C 417.922 3.36523 2.58752 0
M  V30 4334 C 415.829 5.60538 1.88551 0
M  V30 4335 H 414.759 0.64884 0.384087 0
M  V30 4336 H 417.41 1.81426 0.275101 0
M  V30 4337 H 415.792 2.94696 2.64519 0
M  V30 4338 H 416.966 4.59751 0.31074 0
M  V30 4339 H 415.281 4.14085 0.43843 0
M  V30 4340 H 417.878 4.27122 3.21668 0
M  V30 4341 H 418.221 2.56 3.28283 0
M  V30 4342 H 418.754 3.50901 1.87386 0
M  V30 4343 H 415.493 6.43767 1.23466 0
M  V30 4344 H 415.013 5.40483 2.60074 0
M  V30 4345 H 416.692 5.98297 2.46273 0
M  V30 4346 N 416.824 -0.551391 1.4764 0
M  V30 4347 C 418.24 -0.877887 1.33287 0
M  V30 4348 C 418.44 -1.98817 0.327721 0
M  V30 4349 O 417.496 -2.51171 -0.258695 0
M  V30 4350 C 418.809 -1.26563 2.72768 0
M  V30 4351 C 420.357 -1.37673 2.81097 0
M  V30 4352 C 420.832 -1.79799 4.21232 0
M  V30 4353 N 422.323 -1.8694 4.23802 0
M  V30 4354 C 423.058 -2.20876 5.29151 0
M  V30 4355 N 422.554 -2.53386 6.448 0
M  V30 4356 N 424.347 -2.217 5.16532 0
M  V30 4357 H 416.498 0.18153 2.11623 0
M  V30 4358 H 418.761 0.0185514 0.947818 0
M  V30 4359 H 418.467 -0.523591 3.47781 0
M  V30 4360 H 418.341 -2.22052 3.04915 0
M  V30 4361 H 420.728 -2.10956 2.06353 0
M  V30 4362 H 420.809 -0.40357 2.52596 0
M  V30 4363 H 420.453 -1.07083 4.96483 0
M  V30 4364 H 420.383 -2.78128 4.4716 0
M  V30 4365 H 422.874 -1.64179 3.40373 0
M  V30 4366 H 423.187 -2.78325 7.20941 0
M  V30 4367 H 421.532 -2.50953 6.48111 0
M  V30 4368 H 424.723 -1.95745 4.25207 0
M  V30 4369 H 424.896 -2.47818 5.98741 0
M  V30 4370 N 418.302 -1.35869 -0.798587 0
M  V30 4371 C 419.25 -1.29491 -1.93222 0
M  V30 4372 C 420.244 -0.18836 -1.6835 0
M  V30 4373 O 421.45 -0.354822 -1.76468 0
M  V30 4374 H 417.825 -0.402901 -0.63496 0
M  V30 4375 H 419.796 -2.25247 -1.9572 0
M  V30 4376 C 418.545 -1.09184 -3.30112 0
M  V30 4377 H 417.868 -1.93574 -3.49813 0
M  V30 4378 H 419.308 -1.08766 -4.09812 0
M  V30 4379 C 417.767 0.203959 -3.36282 0
M  V30 4380 O 418.297 1.19699 -3.83451 0
M  V30 4381 N 416.503 0.245488 -2.89561 0
M  V30 4382 H 416.05 -0.563223 -2.51367 0
M  V30 4383 H 416.008 1.11219 -2.94071 0
M  V30 4384 N 419.78 1.02168 -1.19998 0
M  V30 4385 C 420.69 2.14069 -0.959774 0
M  V30 4386 C 421.706 1.73804 0.082655 0
M  V30 4387 O 422.882 2.01133 -0.103633 0
M  V30 4388 C 419.947 3.42936 -0.509459 0
M  V30 4389 C 419.008 3.97474 -1.62213 0
M  V30 4390 C 418.241 5.2019 -1.19321 0
M  V30 4391 O 418.464 5.70369 -0.0597726 0
M  V30 4392 O 417.398 5.67749 -1.99863 0
M  V30 4393 H 421.224 2.37199 -1.89658 0
M  V30 4394 H 418.809 1.12469 -0.983411 0
M  V30 4395 H 420.691 4.20551 -0.267322 0
M  V30 4396 H 419.366 3.21234 0.398821 0
M  V30 4397 H 418.273 3.21161 -1.9185 0
M  V30 4398 H 419.606 4.23555 -2.50723 0
M  V30 4399 N 421.258 1.00505 1.21394 0
M  V30 4400 C 422.669 0.721082 1.72213 0
M  V30 4401 C 423.02 -0.761263 1.80829 0
M  V30 4402 O 422.145 -1.59464 1.46288 0
M  V30 4403 C 422.74 1.30228 3.12772 0
M  V30 4404 C 421.299 1.06743 3.60947 0
M  V30 4405 C 420.446 1.41507 2.38477 0
M  V30 4406 H 423.397 1.17594 1.06571 0
M  V30 4407 H 423.418 0.686955 3.74247 0
M  V30 4408 H 422.93 2.38115 3.06468 0
M  V30 4409 H 421.031 0.00572162 3.726 0
M  V30 4410 H 421.144 1.73936 4.46411 0
M  V30 4411 H 419.508 0.833852 2.40664 0
M  V30 4412 H 420.291 2.50424 2.34824 0
M  V30 4413 N 422.737 -1.36956 0.779787 0
M  V30 4414 C 423.983 -1.99787 0.348281 0
M  V30 4415 C 424.316 -1.61756 -1.07465 0
M  V30 4416 O 423.591 -0.867639 -1.74075 0
M  V30 4417 C 423.874 -3.56597 0.50104 0
M  V30 4418 C 423.727 -4.04513 1.96697 0
M  V30 4419 C 425.046 -4.40008 -0.0898097 0
M  V30 4420 H 422.165 -0.725796 0.128022 0
M  V30 4421 H 424.807 -1.62514 0.984331 0
M  V30 4422 H 422.957 -3.88479 -0.0404347 0
M  V30 4423 H 424.629 -3.83161 2.56876 0
M  V30 4424 H 422.872 -3.56408 2.47297 0
M  V30 4425 H 423.543 -5.1352 2.02486 0
M  V30 4426 H 426.019 -4.14431 0.372293 0
M  V30 4427 H 424.895 -5.4888 0.0471605 0
M  V30 4428 H 425.156 -4.26035 -1.18096 0
M  V30 4429 N 424.215 -0.530993 -1.48385 0
M  V30 4430 C 425.44 0.000729535 -2.074 0
M  V30 4431 C 425.865 1.27298 -1.3848 0
M  V30 4432 O 425.223 1.75599 -0.451081 0
M  V30 4433 C 425.271 0.206697 -3.60007 0
M  V30 4434 O 424.375 1.27514 -3.92191 0
M  V30 4435 H 423.716 -0.039583 -0.662819 0
M  V30 4436 H 426.246 -0.739194 -1.9078 0
M  V30 4437 H 426.256 0.42904 -4.05738 0
M  V30 4438 H 424.931 -0.722675 -4.09573 0
M  V30 4439 H 423.508 1.03537 -3.58238 0
M  V30 4440 N 425.693 1.55336 -0.266172 0
M  V30 4441 C 426.603 2.2583 0.635458 0
M  V30 4442 C 427.619 1.28106 1.17749 0
M  V30 4443 O 428.795 1.61024 1.20968 0
M  V30 4444 C 425.86 2.95879 1.80712 0
M  V30 4445 C 424.921 4.09059 1.30265 0
M  V30 4446 C 424.154 4.75759 2.41846 0
M  V30 4447 O 424.377 4.41622 3.61007 0
M  V30 4448 O 423.311 5.63888 2.1051 0
M  V30 4449 H 427.137 3.03631 0.0646693 0
M  V30 4450 H 424.722 1.49361 -0.0339177 0
M  V30 4451 H 426.604 3.39932 2.49047 0
M  V30 4452 H 425.279 2.21002 2.36516 0
M  V30 4453 H 424.186 3.69482 0.586019 0
M  V30 4454 H 425.519 4.85811 0.790458 0
M  V30 4455 N 427.171 -0.0066808 1.57599 0
M  V30 4456 C 428.118 -1.00024 2.08 0
M  V30 4457 C 429.088 -1.34549 0.973943 0
M  V30 4458 O 430.273 -1.44502 1.24595 0
M  V30 4459 C 427.413 -2.2891 2.58252 0
M  V30 4460 C 426.526 -2.00346 3.82734 0
M  V30 4461 C 425.661 -3.23265 4.21513 0
M  V30 4462 C 424.7 -2.90357 5.3885 0
M  V30 4463 N 423.837 -4.05793 5.72954 0
M  V30 4464 H 428.677 -0.563499 2.92624 0
M  V30 4465 H 426.214 -0.266592 1.44664 0
M  V30 4466 H 428.172 -3.04247 2.85464 0
M  V30 4467 H 426.802 -2.70265 1.76512 0
M  V30 4468 H 425.854 -1.15406 3.62471 0
M  V30 4469 H 427.166 -1.72086 4.68175 0
M  V30 4470 H 426.32 -4.06953 4.49971 0
M  V30 4471 H 425.059 -3.54657 3.34768 0
M  V30 4472 H 424.064 -2.05075 5.10122 0
M  V30 4473 H 425.289 -2.60219 6.27266 0
M  V30 4474 H 423.235 -4.37094 4.89167 0
M  V30 4475 H 423.152 -3.81034 6.52954 0
M  V30 4476 H 424.42 -4.90289 6.06001 0
M  V30 4477 N 428.649 -1.55105 -0.279332 0
M  V30 4478 C 429.895 -1.75672 -1.01327 0
M  V30 4479 C 430.228 -0.552739 -1.86168 0
M  V30 4480 O 429.503 0.449827 -1.89227 0
M  V30 4481 C 429.786 -3.05825 -1.90114 0
M  V30 4482 C 429.639 -4.36565 -1.08309 0
M  V30 4483 C 430.958 -3.31975 -2.8893 0
M  V30 4484 H 428.077 -0.639149 -0.366957 0
M  V30 4485 H 430.719 -1.87833 -0.286154 0
M  V30 4486 H 428.869 -2.95588 -2.52111 0
M  V30 4487 H 430.541 -4.58751 -0.484314 0
M  V30 4488 H 428.784 -4.32076 -0.386362 0
M  V30 4489 H 429.455 -5.23946 -1.73737 0
M  V30 4490 H 431.931 -3.41963 -2.37067 0
M  V30 4491 H 430.807 -4.2432 -3.48201 0
M  V30 4492 H 431.068 -2.51309 -3.63725 0
M  V30 4493 N 430.127 0.543554 -1.4793 0
M  V30 4494 C 431.404 1.30458 -1.4574 0
M  V30 4495 C 431.784 2.1048 -0.161692 0
M  V30 4496 O 431.132 2.11831 0.856734 0
M  V30 4497 C 431.342 2.19754 -2.71126 0
M  V30 4498 C 432.69 2.80334 -3.18901 0
M  V30 4499 O 433.714 2.30049 -2.71948 0
M  V30 4500 O 432.573 3.71766 -4.00565 0
M  V30 4501 H 429.667 0.588117 -0.581418 0
M  V30 4502 H 432.213 0.561328 -1.60147 0
M  V30 4503 H 430.985 1.60316 -3.56952 0
M  V30 4504 H 430.608 3.01351 -2.59371 0
M  V30 4505 N 431.605 1.3629 0.791371 0
M  V30 4506 C 432.854 1.29742 1.54434 0
M  V30 4507 C 433.167 -0.121729 1.95221 0
M  V30 4508 O 434.373 -0.309579 2.69729 0
M  V30 4509 C 432.829 2.27623 2.78776 0
M  V30 4510 C 432.437 3.74963 2.45166 0
M  V30 4511 C 434.181 2.30047 3.56761 0
M  V30 4512 C 432.088 4.64626 3.65891 0
M  V30 4513 H 431.018 0.482113 0.579727 0
M  V30 4514 H 433.669 1.61642 0.868565 0
M  V30 4515 H 432.051 1.88714 3.48142 0
M  V30 4516 H 433.225 4.22596 1.83709 0
M  V30 4517 H 431.54 3.75295 1.80396 0
M  V30 4518 H 434.137 2.94247 4.46456 0
M  V30 4519 H 434.48 1.30846 3.95203 0
M  V30 4520 H 435.013 2.67563 2.94372 0
M  V30 4521 H 431.752 5.64883 3.32547 0
M  V30 4522 H 431.272 4.2171 4.26521 0
M  V30 4523 H 432.951 4.80801 4.32943 0
M  V30 4524 N 433.083 -1.0153 1.20538 0
M  V30 4525 C 434.329 -1.75517 1.02787 0
M  V30 4526 C 434.684 -1.87411 -0.435289 0
M  V30 4527 O 433.977 -1.38982 -1.31889 0
M  V30 4528 C 434.171 -3.17213 1.64654 0
M  V30 4529 C 434 -3.19134 3.16834 0
M  V30 4530 C 432.77 -3.26301 3.85818 0
M  V30 4531 C 434.968 -3.05077 4.14044 0
M  V30 4532 N 432.95 -3.17739 5.25276 0
M  V30 4533 C 434.321 -3.04299 5.40187 0
M  V30 4534 C 436.376 -2.89303 4.05226 0
M  V30 4535 C 435.079 -2.89365 6.58529 0
M  V30 4536 C 437.105 -2.75723 5.23193 0
M  V30 4537 C 436.467 -2.75612 6.48242 0
M  V30 4538 H 432.566 -0.652919 0.430373 0
M  V30 4539 H 435.15 -1.20755 1.52729 0
M  V30 4540 H 433.321 -3.70266 1.17294 0
M  V30 4541 H 435.053 -3.79637 1.40208 0
M  V30 4542 H 431.808 -3.33078 3.36684 0
M  V30 4543 H 432.232 -3.16829 5.98288 0
M  V30 4544 H 436.874 -2.88201 3.09354 0
M  V30 4545 H 434.592 -2.89216 7.54573 0
M  V30 4546 H 438.178 -2.64533 5.18183 0
M  V30 4547 H 437.058 -2.65224 7.37988 0
M  V30 4548 N 434.561 -1.01147 -1.20859 0
M  V30 4549 C 435.786 -0.716698 -1.94623 0
M  V30 4550 C 436.211 0.715415 -1.73964 0
M  V30 4551 O 435.569 1.49157 -1.03062 0
M  V30 4552 C 435.617 -1.0513 -3.44935 0
M  V30 4553 O 434.721 -0.160131 -4.12089 0
M  V30 4554 H 434.062 -0.266404 -0.608214 0
M  V30 4555 H 436.592 -1.35346 -1.53436 0
M  V30 4556 H 436.602 -1.00086 -3.95533 0
M  V30 4557 H 435.277 -2.09475 -3.59295 0
M  V30 4558 H 433.854 -0.267657 -3.71938 0
M  V30 4559 N 436.039 1.36541 -0.78704 0
M  V30 4560 C 437.286 1.99304 -0.358341 0
M  V30 4561 C 437.614 1.62467 1.06933 0
M  V30 4562 O 436.869 0.870019 1.75297 0
M  V30 4563 C 437.168 3.54343 -0.466485 0
M  V30 4564 C 436.834 4.10993 -1.85461 0
M  V30 4565 C 435.496 4.26177 -2.23443 0
M  V30 4566 C 437.848 4.41895 -2.76366 0
M  V30 4567 C 435.176 4.69573 -3.51736 0
M  V30 4568 C 437.528 4.86722 -4.04084 0
M  V30 4569 C 436.192 5.00112 -4.42091 0
M  V30 4570 H 435.462 0.729306 -0.131126 0
M  V30 4571 H 438.109 1.63068 -1.00404 0
M  V30 4572 H 436.414 3.90918 0.262719 0
M  V30 4573 H 438.111 4.00833 -0.115854 0
M  V30 4574 H 434.701 3.99612 -1.54946 0
M  V30 4575 H 438.885 4.29735 -2.48277 0
M  V30 4576 H 434.141 4.78127 -3.81057 0
M  V30 4577 H 438.315 5.09598 -4.7464 0
M  V30 4578 H 435.942 5.33498 -5.41557 0
M  V30 4579 N 437.518 0.538854 1.48102 0
M  V30 4580 C 438.766 0.00798599 2.02098 0
M  V30 4581 C 439.087 -1.33922 1.41739 0
M  V30 4582 O 438.357 -1.86932 0.585934 0
M  V30 4583 H 436.937 -3.62179e-05 0.747 0
M  V30 4584 H 439.599 0.7047 1.81714 0
M  V30 4585 H 438.695 -0.0937672 3.11959 0
M  V30 4586 N 438.996 -1.55193 0.274407 0
M  V30 4587 C 440.242 -1.99877 -0.343086 0
M  V30 4588 C 440.575 -1.16256 -1.55558 0
M  V30 4589 O 439.85 -0.232462 -1.93106 0
M  V30 4590 C 440.133 -3.52706 -0.725965 0
M  V30 4591 C 439.986 -4.47081 0.493818 0
M  V30 4592 C 441.305 -4.11422 -1.56268 0
M  V30 4593 H 438.424 -0.726625 -0.123229 0
M  V30 4594 H 441.066 -1.86136 0.38121 0
M  V30 4595 H 439.216 -3.64546 -1.34307 0
M  V30 4596 H 440.888 -4.47186 1.13237 0
M  V30 4597 H 439.131 -4.1877 1.13201 0
M  V30 4598 H 439.802 -5.51699 0.18217 0
M  V30 4599 H 442.278 -4.02855 -1.04151 0
M  V30 4600 H 441.154 -5.18568 -1.79939 0
M  V30 4601 H 441.415 -3.61607 -2.54348 0
M  V30 4602 N 440.474 -0.00167713 -1.576 0
M  V30 4603 C 441.72 0.683832 -1.90923 0
M  V30 4604 C 442.053 1.7333 -0.875799 0
M  V30 4605 O 441.328 1.94215 0.10525 0
M  V30 4606 C 441.611 1.32543 -3.3482 0
M  V30 4607 C 441.464 0.287387 -4.48881 0
M  V30 4608 C 442.783 2.25114 -3.78169 0
M  V30 4609 H 439.902 0.247125 -0.694333 0
M  V30 4610 H 442.544 -0.0533149 -1.89925 0
M  V30 4611 H 440.694 1.95372 -3.35801 0
M  V30 4612 H 442.366 -0.341346 -4.60035 0
M  V30 4613 H 440.609 -0.39017 -4.32042 0
M  V30 4614 H 441.28 0.775393 -5.46527 0
M  V30 4615 H 443.756 1.723 -3.7875 0
M  V30 4616 H 442.632 2.66971 -4.79602 0
M  V30 4617 H 442.893 3.13092 -3.12131 0
M  V30 4618 N 441.952 1.55251 0.271103 0
M  V30 4619 C 442.882 1.9127 1.33933 0
M  V30 4620 C 443.863 0.77478 1.5143 0
M  V30 4621 O 445.048 1.03307 1.64442 0
M  V30 4622 C 442.178 2.18627 2.69851 0
M  V30 4623 C 441.132 3.34442 2.67081 0
M  V30 4624 C 440.458 3.47284 4.06569 0
M  V30 4625 C 441.758 4.70784 2.26185 0
M  V30 4626 H 443.452 2.80744 1.04035 0
M  V30 4627 H 440.998 1.35077 0.499017 0
M  V30 4628 H 442.951 2.42413 3.44694 0
M  V30 4629 H 441.675 1.25955 3.01335 0
M  V30 4630 H 440.334 3.10627 1.94695 0
M  V30 4631 H 439.982 2.52074 4.35279 0
M  V30 4632 H 439.682 4.25152 4.0561 0
M  V30 4633 H 441.206 3.73363 4.83148 0
M  V30 4634 H 442.62 4.94102 2.90751 0
M  V30 4635 H 441.017 5.51582 2.36384 0
M  V30 4636 H 442.087 4.69478 1.21319 0
M  V30 4637 N 443.43 -0.535701 1.48216 0
M  V30 4638 C 444.676 -1.2913 1.57153 0
M  V30 4639 C 445.031 -1.90899 0.239823 0
M  V30 4640 O 444.324 -1.76022 -0.756748 0
M  V30 4641 C 444.518 -2.4068 2.64212 0
M  V30 4642 C 444.347 -1.89844 4.07663 0
M  V30 4643 C 443.117 -1.72708 4.74869 0
M  V30 4644 C 445.315 -1.43031 4.94011 0
M  V30 4645 N 443.297 -1.16437 6.02757 0
M  V30 4646 C 444.668 -0.986691 6.12098 0
M  V30 4647 C 446.723 -1.3128 4.80281 0
M  V30 4648 C 445.426 -0.437231 7.1797 0
M  V30 4649 C 447.452 -0.777346 5.86269 0
M  V30 4650 C 446.814 -0.343774 7.03561 0
M  V30 4651 H 442.913 -0.463753 0.629648 0
M  V30 4652 H 445.497 -0.604736 1.8507 0
M  V30 4653 H 443.668 -3.06839 2.38126 0
M  V30 4654 H 445.4 -3.07706 2.62867 0
M  V30 4655 H 442.155 -1.96061 4.31111 0
M  V30 4656 H 442.579 -0.903281 6.70947 0
M  V30 4657 H 447.221 -1.63408 3.89946 0
M  V30 4658 H 444.939 -0.103621 8.08034 0
M  V30 4659 H 448.525 -0.689688 5.77698 0
M  V30 4660 H 447.405 0.0641219 7.84174 0
M  V30 4661 N 444.908 -1.36708 -0.784132 0
M  V30 4662 C 445.818 -1.3363 -1.92822 0
M  V30 4663 C 446.834 -0.237686 -1.72369 0
M  V30 4664 O 448.01 -0.470962 -1.95816 0
M  V30 4665 C 445.075 -1.13011 -3.27764 0
M  V30 4666 C 444.136 -2.32397 -3.60957 0
M  V30 4667 C 443.369 -2.12752 -4.89461 0
M  V30 4668 O 443.592 -1.10541 -5.59586 0
M  V30 4669 O 442.526 -3.00653 -5.21432 0
M  V30 4670 H 446.352 -2.29964 -1.98369 0
M  V30 4671 H 443.937 -1.1731 -0.925136 0
M  V30 4672 H 445.819 -1.03451 -4.08504 0
M  V30 4673 H 444.494 -0.19743 -3.23097 0
M  V30 4674 H 443.401 -2.47527 -2.80502 0
M  V30 4675 H 444.734 -3.2419 -3.70354 0
M  V30 4676 N 446.386 1.0089 -1.21074 0
M  V30 4677 C 447.316 2.1145 -0.990523 0
M  V30 4678 C 448.297 1.69897 0.0831699 0
M  V30 4679 O 449.482 1.94052 -0.0758853 0
M  V30 4680 C 446.612 3.42914 -0.550177 0
M  V30 4681 C 445.566 3.98244 -1.56799 0
M  V30 4682 C 444.892 5.25568 -0.984013 0
M  V30 4683 C 446.192 4.30752 -2.95381 0
M  V30 4684 H 447.886 2.3013 -1.91521 0
M  V30 4685 H 445.432 1.10592 -0.92225 0
M  V30 4686 H 447.385 4.19653 -0.383305 0
M  V30 4687 H 446.109 3.24014 0.41015 0
M  V30 4688 H 444.768 3.23621 -1.72236 0
M  V30 4689 H 444.416 5.02998 -0.0155216 0
M  V30 4690 H 444.116 5.63551 -1.66384 0
M  V30 4691 H 445.64 6.04955 -0.828378 0
M  V30 4692 H 447.054 4.98349 -2.8341 0
M  V30 4693 H 445.451 4.79869 -3.60341 0
M  V30 4694 H 446.521 3.39192 -3.46521 0
M  V30 4695 N 447.864 1.01787 1.20321 0
M  V30 4696 C 448.794 0.609625 2.25401 0
M  V30 4697 C 449.775 -0.375951 1.65893 0
M  V30 4698 O 450.96 -0.261101 1.92437 0
M  V30 4699 C 448.09 -0.0515995 3.47262 0
M  V30 4700 C 447.044 0.855095 4.19371 0
M  V30 4701 C 446.37 0.0595757 5.34667 0
M  V30 4702 C 447.67 2.16374 4.75373 0
M  V30 4703 H 449.364 1.48803 2.59804 0
M  V30 4704 H 446.91 0.716934 1.24884 0
M  V30 4705 H 448.863 -0.348764 4.19954 0
M  V30 4706 H 447.587 -0.964726 3.12027 0
M  V30 4707 H 446.246 1.13628 3.48546 0
M  V30 4708 H 445.894 -0.85524 4.95676 0
M  V30 4709 H 445.594 0.663406 5.83843 0
M  V30 4710 H 447.118 -0.231105 6.10162 0
M  V30 4711 H 448.532 1.92885 5.39878 0
M  V30 4712 H 446.929 2.71853 5.34991 0
M  V30 4713 H 447.999 2.82589 3.94045 0
M  V30 4714 N 449.342 -1.36122 0.79427 0
M  V30 4715 C 450.57 -2.03362 0.380989 0
M  V30 4716 C 450.985 -1.59881 -1.00416 0
M  V30 4717 O 450.342 -0.790515 -1.6449 0
M  V30 4718 C 450.393 -3.58804 0.440649 0
M  V30 4719 O 450.114 -4.007 1.77118 0
M  V30 4720 C 451.615 -4.43296 0.0186117 0
M  V30 4721 H 448.835 -0.652526 0.156367 0
M  V30 4722 H 451.379 -1.73998 1.07447 0
M  V30 4723 H 449.534 -3.8686 -0.204458 0
M  V30 4724 H 449.948 -4.95309 1.72538 0
M  V30 4725 H 451.422 -5.51887 0.111488 0
M  V30 4726 H 451.899 -4.2684 -1.03461 0
M  V30 4727 H 452.505 -4.20512 0.636395 0
M  V30 4728 N 450.82 -0.546701 -1.47814 0
M  V30 4729 C 452.068 -0.0187037 -2.02091 0
M  V30 4730 C 452.389 1.33168 -1.42447 0
M  V30 4731 O 451.659 1.86619 -0.595839 0
M  V30 4732 H 450.239 -0.00392531 -0.74699 0
M  V30 4733 H 452.901 -0.714327 -1.81338 0
M  V30 4734 H 451.997 0.0772219 -3.12004 0
M  V30 4735 N 452.299 1.55045 -0.282633 0
M  V30 4736 C 453.209 2.26491 0.61147 0
M  V30 4737 C 454.225 1.29348 1.16384 0
M  V30 4738 O 455.401 1.62298 1.19253 0
M  V30 4739 C 452.466 2.97779 1.77563 0
M  V30 4740 C 451.527 4.10418 1.25919 0
M  V30 4741 C 450.76 4.78297 2.36786 0
M  V30 4742 O 450.983 4.45426 3.56303 0
M  V30 4743 O 449.917 5.66089 2.04517 0
M  V30 4744 H 453.743 3.03683 0.0324615 0
M  V30 4745 H 451.328 1.49317 -0.0497576 0
M  V30 4746 H 453.21 3.42554 2.45427 0
M  V30 4747 H 451.885 2.23498 2.34159 0
M  V30 4748 H 450.792 3.70082 0.546797 0
M  V30 4749 H 452.125 4.86622 0.738887 0
M  V30 4750 N 453.777 0.010035 1.57597 0
M  V30 4751 C 455.026 -0.671945 1.90178 0
M  V30 4752 C 455.339 -1.74376 0.886131 0
M  V30 4753 O 456.545 -2.48107 1.10252 0
M  V30 4754 C 455.001 -1.24636 3.3763 0
M  V30 4755 C 454.609 -0.208838 4.47513 0
M  V30 4756 C 456.353 -1.90595 3.79307 0
M  V30 4757 C 454.26 -0.793814 5.86048 0
M  V30 4758 H 453.19 -0.25474 0.709665 0
M  V30 4759 H 455.841 0.0722206 1.83358 0
M  V30 4760 H 454.223 -2.04152 3.3932 0
M  V30 4761 H 455.397 0.562463 4.57354 0
M  V30 4762 H 453.712 0.350889 4.14919 0
M  V30 4763 H 456.309 -2.35284 4.80151 0
M  V30 4764 H 456.652 -2.74074 3.13352 0
M  V30 4765 H 457.185 -1.17798 3.79958 0
M  V30 4766 H 453.924 0.00240855 6.555 0
M  V30 4767 H 453.444 -1.53404 5.79851 0
M  V30 4768 H 455.123 -1.2894 6.34022 0
M  V30 4769 N 455.255 -1.55392 -0.262866 0
M  V30 4770 C 456.666 -1.67079 -0.833158 0
M  V30 4771 C 457.017 -0.604539 -1.86654 0
M  V30 4772 O 456.142 0.252138 -2.14926 0
M  V30 4773 C 456.737 -3.02891 -1.51797 0
M  V30 4774 C 455.296 -3.16571 -2.03617 0
M  V30 4775 C 454.443 -2.62909 -0.881701 0
M  V30 4776 H 457.394 -1.58652 -0.0389986 0
M  V30 4777 H 457.415 -2.96445 -2.38538 0
M  V30 4778 H 456.927 -3.80473 -0.765619 0
M  V30 4779 H 455.028 -2.43782 -2.81782 0
M  V30 4780 H 455.141 -4.23271 -2.24452 0
M  V30 4781 H 453.505 -2.20324 -1.27786 0
M  V30 4782 H 454.288 -3.43003 -0.14269 0
M  V30 4783 N 456.733 0.527833 -1.48498 0
M  V30 4784 C 457.963 1.30633 -1.60058 0
M  V30 4785 C 458.371 1.87394 -0.260786 0
M  V30 4786 O 457.714 1.67227 0.760317 0
M  V30 4787 C 457.776 2.49361 -2.58958 0
M  V30 4788 C 457.44 2.13671 -4.03972 0
M  V30 4789 C 458.437 1.69217 -4.91591 0
M  V30 4790 C 456.122 2.24129 -4.49524 0
M  V30 4791 C 458.116 1.35689 -6.2279 0
M  V30 4792 C 455.803 1.90212 -5.80743 0
M  V30 4793 C 456.801 1.46063 -6.67199 0
M  V30 4794 O 456.489 1.12593 -7.95976 0
M  V30 4795 H 456.221 0.403444 -0.54241 0
M  V30 4796 H 458.775 0.643233 -1.95068 0
M  V30 4797 H 457.005 3.18659 -2.19073 0
M  V30 4798 H 458.694 3.11421 -2.6033 0
M  V30 4799 H 459.46 1.60607 -4.57636 0
M  V30 4800 H 455.339 2.57447 -3.82416 0
M  V30 4801 H 458.883 1.01157 -6.90227 0
M  V30 4802 H 454.78 1.98464 -6.14233 0
M  V30 4803 H 455.548 1.25972 -8.08748 0
M  V30 4804 N 458.211 1.37122 0.776871 0
M  V30 4805 C 459.158 1.3247 1.88998 0
M  V30 4806 C 460.128 0.191143 1.64997 0
M  V30 4807 O 461.313 0.379683 1.86984 0
M  V30 4808 C 458.453 1.13241 3.25992 0
M  V30 4809 C 457.566 2.35782 3.61982 0
M  V30 4810 C 456.701 2.09465 4.88158 0
M  V30 4811 C 455.74 3.279 5.16864 0
M  V30 4812 N 454.877 3.01167 6.34226 0
M  V30 4813 H 459.717 2.27642 1.9231 0
M  V30 4814 H 457.254 1.13125 0.94027 0
M  V30 4815 H 459.212 1.00115 4.0501 0
M  V30 4816 H 457.842 0.217186 3.22069 0
M  V30 4817 H 456.894 2.59666 2.77989 0
M  V30 4818 H 458.206 3.24125 3.79137 0
M  V30 4819 H 457.36 1.93341 5.75069 0
M  V30 4820 H 456.099 1.18452 4.73097 0
M  V30 4821 H 455.104 3.44569 4.2843 0
M  V30 4822 H 456.329 4.19757 5.33836 0
M  V30 4823 H 454.275 2.12779 6.20533 0
M  V30 4824 H 454.192 3.83052 6.51772 0
M  V30 4825 H 455.46 2.88649 7.24087 0
M  V30 4826 N 459.689 -1.00246 1.21608 0
M  V30 4827 C 460.966 -1.71336 0.943568 0
M  V30 4828 C 461.346 -2.03972 -0.543943 0
M  V30 4829 O 460.694 -1.71545 -1.50946 0
M  V30 4830 C 460.904 -2.97094 1.83128 0
M  V30 4831 C 462.252 -3.70071 2.08165 0
M  V30 4832 O 463.276 -3.07081 1.80498 0
M  V30 4833 O 462.135 -4.83376 2.54971 0
M  V30 4834 H 459.229 -0.747386 0.354039 0
M  V30 4835 H 461.775 -1.05967 1.32549 0
M  V30 4836 H 460.547 -2.69407 2.83788 0
M  V30 4837 H 460.17 -3.70204 1.45034 0
M  V30 4838 N 461.167 -1.02423 -1.1978 0
M  V30 4839 C 462.413 -0.719051 -1.89625 0
M  V30 4840 C 462.746 0.750083 -1.7913 0
M  V30 4841 O 462.021 1.54574 -1.18056 0
M  V30 4842 C 462.304 -1.16499 -3.40735 0
M  V30 4843 C 462.157 -2.695 -3.60125 0
M  V30 4844 C 463.476 -0.742166 -4.33797 0
M  V30 4845 H 460.595 -0.26269 -0.688595 0
M  V30 4846 H 463.237 -1.27333 -1.41018 0
M  V30 4847 H 461.387 -0.69341 -3.82262 0
M  V30 4848 H 463.059 -3.24569 -3.278 0
M  V30 4849 H 461.302 -3.10113 -3.03336 0
M  V30 4850 H 461.973 -2.95757 -4.66081 0
M  V30 4851 H 464.449 -1.1477 -3.99959 0
M  V30 4852 H 463.325 -1.08213 -5.38127 0
M  V30 4853 H 463.586 0.355747 -4.40666 0
M  V30 4854 N 462.645 1.35699 -0.801477 0
M  V30 4855 C 463.922 1.9324 -0.302937 0
M  V30 4856 C 464.302 1.73209 1.20672 0
M  V30 4857 O 463.65 1.09809 2.00385 0
M  V30 4858 C 463.86 3.41728 -0.708747 0
M  V30 4859 C 465.208 4.18868 -0.695328 0
M  V30 4860 O 466.232 3.5022 -0.649971 0
M  V30 4861 O 465.091 5.41342 -0.749081 0
M  V30 4862 H 462.185 0.82331 -0.0780367 0
M  V30 4863 H 464.731 1.44806 -0.884832 0
M  V30 4864 H 463.503 3.50015 -1.74944 0
M  V30 4865 H 463.126 3.97471 -0.101384 0
M  V30 4866 N 464.123 0.554532 1.47522 0
M  V30 4867 C 465.348 0.0322661 2.07375 0
M  V30 4868 C 465.773 -1.25079 1.40488 0
M  V30 4869 O 465.131 -1.74859 0.47896 0
M  V30 4870 C 465.179 -0.149397 3.6029 0
M  V30 4871 O 464.283 -1.21259 3.9417 0
M  V30 4872 H 463.624 0.0501228 0.662106 0
M  V30 4873 H 466.154 0.769452 1.8958 0
M  V30 4874 H 466.164 -0.364437 4.06369 0
M  V30 4875 H 464.839 0.787743 4.08372 0
M  V30 4876 H 463.416 -0.97825 3.5984 0
M  V30 4877 N 465.601 -1.54893 0.290851 0
M  V30 4878 C 466.826 -2.04804 -0.32712 0
M  V30 4879 C 467.251 -1.16721 -1.47506 0
M  V30 4880 O 466.609 -0.169107 -1.8051 0
M  V30 4881 C 466.657 -3.52268 -0.770689 0
M  V30 4882 O 465.761 -3.67236 -1.87647 0
M  V30 4883 H 465.102 -0.660789 -0.0652227 0
M  V30 4884 H 467.632 -2.00036 0.429739 0
M  V30 4885 H 467.642 -3.9393 -1.06223 0
M  V30 4886 H 466.317 -4.15843 0.069096 0
M  V30 4887 H 464.894 -3.37479 -1.58626 0
M  V30 4888 N 467.08 -0.0183926 -1.57589 0
M  V30 4889 C 468.043 0.951986 -2.08494 0
M  V30 4890 C 469.043 1.26092 -0.997874 0
M  V30 4891 O 470.233 1.20304 -1.25987 0
M  V30 4892 C 467.365 2.27165 -2.54182 0
M  V30 4893 H 468.558 0.511307 -2.95509 0
M  V30 4894 H 466.111 0.229444 -1.54607 0
M  V30 4895 H 466.846 2.75884 -1.70465 0
M  V30 4896 H 466.631 2.06057 -3.33591 0
M  V30 4897 H 468.121 2.9674 -2.93828 0
M  V30 4898 N 468.558 1.5553 0.254621 0
M  V30 4899 C 469.807 1.76202 0.981612 0
M  V30 4900 C 470.12 0.580883 1.86776 0
M  V30 4901 O 471.326 0.670448 2.63092 0
M  V30 4902 C 469.782 3.11921 1.79537 0
M  V30 4903 C 469.39 4.37659 0.956991 0
M  V30 4904 C 471.134 3.41936 2.51555 0
M  V30 4905 C 469.041 5.64411 1.76619 0
M  V30 4906 H 467.971 0.656841 0.370237 0
M  V30 4907 H 470.622 1.81969 0.236556 0
M  V30 4908 H 469.004 3.00241 2.58208 0
M  V30 4909 H 470.178 4.60307 0.21315 0
M  V30 4910 H 468.493 4.14922 0.350497 0
M  V30 4911 H 471.09 4.33849 3.12536 0
M  V30 4912 H 471.433 2.62905 3.22779 0
M  V30 4913 H 471.966 3.54797 1.799 0
M  V30 4914 H 468.705 6.46241 1.09783 0
M  V30 4915 H 468.225 5.45877 2.48551 0
M  V30 4916 H 469.904 6.03386 2.33527 0
M  V30 4917 N 470.036 -0.519951 1.48776 0
M  V30 4918 C 471.285 -1.27175 1.56555 0
M  V30 4919 C 471.598 -1.9401 0.248869 0
M  V30 4920 O 472.804 -2.70725 0.205004 0
M  V30 4921 C 471.26 -2.30811 2.76142 0
M  V30 4922 C 470.868 -1.7 4.14493 0
M  V30 4923 C 472.612 -3.06937 2.9324 0
M  V30 4924 C 470.519 -2.71635 5.25327 0
M  V30 4925 H 469.449 -0.478329 0.582853 0
M  V30 4926 H 472.1 -0.547916 1.75129 0
M  V30 4927 H 470.482 -3.06274 2.51023 0
M  V30 4928 H 471.656 -1.00658 4.49672 0
M  V30 4929 H 469.971 -1.06331 4.02595 0
M  V30 4930 H 472.568 -3.82905 3.73213 0
M  V30 4931 H 472.911 -3.63409 2.03075 0
M  V30 4932 H 473.444 -2.38589 3.18308 0
M  V30 4933 H 470.183 -2.1997 6.1749 0
M  V30 4934 H 469.703 -3.39275 4.94624 0
M  V30 4935 H 471.382 -3.34429 5.53865 0
M  V30 4936 N 471.514 -1.37532 -0.769588 0
M  V30 4937 C 472.76 -1.34063 -1.52966 0
M  V30 4938 C 473.115 0.0737942 -1.92258 0
M  V30 4939 O 472.408 1.03291 -1.61374 0
M  V30 4940 C 472.602 -2.21558 -2.8044 0
M  V30 4941 C 472.431 -3.71367 -2.53608 0
M  V30 4942 C 471.201 -4.40464 -2.47628 0
M  V30 4943 C 473.399 -4.64177 -2.21459 0
M  V30 4944 N 471.381 -5.758 -2.12902 0
M  V30 4945 C 472.752 -5.87907 -1.9689 0
M  V30 4946 C 474.807 -4.52541 -2.07633 0
M  V30 4947 C 473.51 -7.01304 -1.59892 0
M  V30 4948 C 475.536 -5.65825 -1.72034 0
M  V30 4949 C 474.898 -6.88606 -1.48327 0
M  V30 4950 H 470.997 -0.545856 -0.559969 0
M  V30 4951 H 473.581 -1.72773 -0.897634 0
M  V30 4952 H 471.752 -1.85061 -3.41478 0
M  V30 4953 H 473.484 -2.09332 -3.46356 0
M  V30 4954 H 470.239 -3.93491 -2.63556 0
M  V30 4955 H 470.663 -6.47328 -1.9823 0
M  V30 4956 H 475.305 -3.58183 -2.24643 0
M  V30 4957 H 473.023 -7.95594 -1.4162 0
M  V30 4958 H 476.609 -5.58793 -1.61991 0
M  V30 4959 H 475.489 -7.74779 -1.21189 0
M  V30 4960 N 472.992 0.995999 -1.22138 0
M  V30 4961 C 474.24 1.73167 -1.042 0
M  V30 4962 C 474.561 1.90329 0.42423 0
M  V30 4963 O 473.831 1.4607 1.30539 0
M  V30 4964 H 472.411 0.641593 -0.38258 0
M  V30 4965 H 475.073 1.19974 -1.53598 0
M  V30 4966 H 474.169 2.72734 -1.51731 0
M  V30 4967 N 474.47 1.03057 1.19235 0
M  V30 4968 C 475.716 0.729098 1.89241 0
M  V30 4969 C 476.049 -0.740573 1.79525 0
M  V30 4970 O 475.324 -1.53946 1.18874 0
M  V30 4971 C 475.607 1.18304 3.40112 0
M  V30 4972 C 475.46 2.71406 3.5869 0
M  V30 4973 C 476.779 0.765161 4.33397 0
M  V30 4974 H 473.898 0.266338 0.687192 0
M  V30 4975 H 476.54 1.28079 1.40341 0
M  V30 4976 H 474.69 0.713672 3.81889 0
M  V30 4977 H 476.362 3.26303 3.26074 0
M  V30 4978 H 474.605 3.11717 3.01687 0
M  V30 4979 H 475.276 2.98225 4.64506 0
M  V30 4980 H 477.752 1.16889 3.99345 0
M  V30 4981 H 476.628 1.11065 5.37546 0
M  V30 4982 H 476.889 -0.332372 4.40849 0
M  V30 4983 N 475.948 -1.35272 0.808662 0
M  V30 4984 C 477.196 -1.98316 0.389233 0
M  V30 4985 C 477.517 -1.64465 -1.04767 0
M  V30 4986 O 476.787 -0.928175 -1.72516 0
M  V30 4987 H 475.367 -0.733585 0.140935 0
M  V30 4988 H 478.029 -1.6515 1.03496 0
M  V30 4989 H 477.125 -3.08123 0.496631 0
M  V30 4990 N 477.426 -0.562348 -1.47226 0
M  V30 4991 C 478.651 -0.0432632 -2.07355 0
M  V30 4992 C 479.076 1.24332 -1.41149 0
M  V30 4993 O 478.434 1.74603 -0.488226 0
M  V30 4994 C 478.482 0.130288 -3.60365 0
M  V30 4995 O 477.586 1.19166 -3.94808 0
M  V30 4996 H 476.927 -0.0536334 -0.66183 0
M  V30 4997 H 479.457 -0.779495 -1.89169 0
M  V30 4998 H 479.467 0.342881 -4.06557 0
M  V30 4999 H 478.142 -0.809389 -4.07948 0
M  V30 5000 H 476.719 0.959153 -3.60354 0
M  V30 5001 N 478.904 1.54736 -0.299062 0
M  V30 5002 C 479.852 2.24897 0.593658 0
M  V30 5003 C 480.846 1.25429 1.13859 0
M  V30 5004 O 482.052 1.43286 1.08945 0
M  V30 5005 H 478.427 0.72207 0.210046 0
M  V30 5006 H 480.398 2.98393 -0.0206421 0
M  V30 5007 C 479.147 3.00159 1.75499 0
M  V30 5008 H 478.47 3.76501 1.34489 0
M  V30 5009 H 479.91 3.52535 2.35574 0
M  V30 5010 C 478.369 2.07015 2.65794 0
M  V30 5011 O 478.899 1.63692 3.66835 0
M  V30 5012 N 477.105 1.73012 2.33485 0
M  V30 5013 H 476.652 2.08439 1.51364 0
M  V30 5014 H 476.61 1.10965 2.94167 0
M  V30 5015 N 480.382 0.0267497 1.57577 0
M  V30 5016 C 481.607 -0.666227 1.96408 0
M  V30 5017 C 482.032 -1.65004 0.903071 0
M  V30 5018 O 481.39 -1.80787 -0.136263 0
M  V30 5019 C 481.438 -1.35101 3.34335 0
M  V30 5020 O 480.542 -2.46623 3.30531 0
M  V30 5021 H 479.883 -0.175206 0.640468 0
M  V30 5022 H 482.413 0.0878977 2.04411 0
M  V30 5023 H 482.423 -1.70834 3.70513 0
M  V30 5024 H 481.098 -0.629844 4.11103 0
M  V30 5025 H 479.675 -2.13019 3.06068 0
M  V30 5026 N 481.861 -1.55662 -0.24637 0
M  V30 5027 C 482.791 -1.93377 -1.30873 0
M  V30 5028 C 483.772 -0.798773 -1.50179 0
M  V30 5029 O 484.957 -1.0591 -1.62778 0
M  V30 5030 C 482.087 -2.22893 -2.66338 0
M  V30 5031 C 481.041 -3.38649 -2.61727 0
M  V30 5032 C 480.367 -3.53708 -4.00992 0
M  V30 5033 C 481.667 -4.74323 -2.18666 0
M  V30 5034 H 483.361 -2.82363 -0.995552 0
M  V30 5035 H 480.907 -1.35854 -0.477464 0
M  V30 5036 H 482.86 -2.47866 -3.40794 0
M  V30 5037 H 481.584 -1.30733 -2.99293 0
M  V30 5038 H 480.243 -3.13685 -1.89729 0
M  V30 5039 H 479.891 -2.58967 -4.31214 0
M  V30 5040 H 479.591 -4.31551 -3.98795 0
M  V30 5041 H 481.115 -3.81003 -4.77147 0
M  V30 5042 H 482.529 -4.98665 -2.82854 0
M  V30 5043 H 480.926 -5.55273 -2.27579 0
M  V30 5044 H 481.996 -4.71349 -1.13834 0
M  V30 5045 N 483.339 0.512053 -1.4905 0
M  V30 5046 C 484.289 1.61142 -1.61298 0
M  V30 5047 C 485.273 1.53908 -0.46916 0
M  V30 5048 O 486.465 1.61625 -0.721547 0
M  V30 5049 C 483.594 2.998 -1.67256 0
M  V30 5050 C 482.68 3.12072 -2.87179 0
M  V30 5051 N 483.071 2.94263 -4.11391 0
M  V30 5052 C 481.369 3.43156 -2.84886 0
M  V30 5053 C 482.07 3.10426 -4.91946 0
M  V30 5054 N 481.046 3.38808 -4.251 0
M  V30 5055 H 484.848 1.46011 -2.55065 0
M  V30 5056 H 482.362 0.717934 -1.45669 0
M  V30 5057 H 484.359 3.78794 -1.74128 0
M  V30 5058 H 483.019 3.1601 -0.746195 0
M  V30 5059 H 484.03 2.70661 -4.41546 0
M  V30 5060 H 480.707 3.65611 -2.01581 0
M  V30 5061 H 482.097 3.01243 -6.00585 0
M  V30 5062 N 484.817 1.37938 0.762283 0
M  V30 5063 C 485.747 1.37176 1.88958 0
M  V30 5064 C 486.728 0.238945 1.68413 0
M  V30 5065 O 487.913 0.440726 1.89133 0
M  V30 5066 C 485.043 1.18742 3.2637 0
M  V30 5067 C 483.997 2.29136 3.61498 0
M  V30 5068 C 483.323 1.95816 4.97554 0
M  V30 5069 C 484.623 3.71363 3.6727 0
M  V30 5070 H 486.317 2.31509 1.89853 0
M  V30 5071 H 483.863 1.11438 0.912005 0
M  V30 5072 H 485.816 1.16837 4.04879 0
M  V30 5073 H 484.54 0.208683 3.25933 0
M  V30 5074 H 483.199 2.30213 2.85303 0
M  V30 5075 H 482.847 0.964475 4.93667 0
M  V30 5076 H 482.547 2.69745 5.22026 0
M  V30 5077 H 484.071 1.95513 5.78452 0
M  V30 5078 H 485.485 3.72364 4.35911 0
M  V30 5079 H 483.882 4.44425 4.03245 0
M  V30 5080 H 484.952 4.04305 2.67704 0
M  V30 5081 N 486.295 -0.989507 1.22664 0
M  V30 5082 C 487.706 -1.54406 1.04955 0
M  V30 5083 C 488.057 -1.92366 -0.385951 0
M  V30 5084 O 487.182 -1.75111 -1.27142 0
M  V30 5085 C 487.777 -2.80578 1.89899 0
M  V30 5086 C 486.336 -3.32464 1.76478 0
M  V30 5087 C 485.483 -2.05524 1.86159 0
M  V30 5088 H 488.434 -0.810211 1.3646 0
M  V30 5089 H 488.455 -3.53075 1.4184 0
M  V30 5090 H 487.967 -2.52918 2.94371 0
M  V30 5091 H 486.068 -3.65024 0.747528 0
M  V30 5092 H 486.181 -4.02838 2.59342 0
M  V30 5093 H 484.545 -2.19241 1.29636 0
M  V30 5094 H 485.328 -1.80258 2.92168 0
M  V30 5095 N 487.773 -1.03688 -1.18687 0
M  V30 5096 C 489.019 -0.739123 -1.88851 0
M  V30 5097 C 489.352 0.731042 -1.79915 0
M  V30 5098 O 488.627 1.53313 -1.19688 0
M  V30 5099 C 488.91 -1.20106 -3.3948 0
M  V30 5100 C 488.763 -2.73304 -3.57246 0
M  V30 5101 C 490.082 -0.788134 -4.32986 0
M  V30 5102 H 487.201 -0.269978 -0.68577 0
M  V30 5103 H 489.843 -1.28822 -1.3966 0
M  V30 5104 H 487.993 -0.733915 -3.81505 0
M  V30 5105 H 489.665 -3.28027 -3.24339 0
M  V30 5106 H 487.908 -3.13313 -3.00029 0
M  V30 5107 H 488.579 -3.00684 -4.62918 0
M  V30 5108 H 491.055 -1.19005 -3.98719 0
M  V30 5109 H 489.931 -1.13915 -5.36949 0
M  V30 5110 H 490.192 0.308988 -4.41019 0
M  V30 5111 N 489.251 1.34841 -0.815825 0
M  V30 5112 C 490.662 1.80937 -0.46029 0
M  V30 5113 C 491.013 1.67685 1.01863 0
M  V30 5114 O 490.138 1.21277 1.79223 0
M  V30 5115 C 490.733 3.28509 -0.828708 0
M  V30 5116 C 489.292 3.72712 -0.525644 0
M  V30 5117 C 488.439 2.56676 -1.04941 0
M  V30 5118 H 491.39 1.22688 -1.00664 0
M  V30 5119 H 491.411 3.80279 -0.129757 0
M  V30 5120 H 490.923 3.38122 -1.90513 0
M  V30 5121 H 489.024 3.68642 0.541666 0
M  V30 5122 H 489.137 4.67119 -1.06474 0
M  V30 5123 H 487.501 2.50302 -0.471286 0
M  V30 5124 H 488.284 2.69063 -2.13214 0
M  V30 5125 N 490.729 0.570148 1.46925 0
M  V30 5126 C 491.954 0.0542592 2.07329 0
M  V30 5127 C 492.379 -1.23582 1.41806 0
M  V30 5128 O 491.737 -1.74341 0.497479 0
M  V30 5129 C 491.785 -0.111175 3.60429 0
M  V30 5130 O 490.889 -1.17071 3.95434 0
M  V30 5131 H 490.23 0.0571425 0.661537 0
M  V30 5132 H 492.76 0.789516 1.88753 0
M  V30 5133 H 492.77 -0.321315 4.06733 0
M  V30 5134 H 491.445 0.831012 4.07513 0
M  V30 5135 H 490.022 -0.940029 3.60857 0
M  V30 5136 N 492.207 -1.54576 0.307264 0
M  V30 5137 C 493.432 -2.05139 -0.305379 0
M  V30 5138 C 493.857 -1.18278 -1.46259 0
M  V30 5139 O 493.215 -0.188243 -1.8032 0
M  V30 5140 C 493.263 -3.53066 -0.733283 0
M  V30 5141 O 492.367 -3.69206 -1.83741 0
M  V30 5142 H 491.708 -0.661444 -0.0582105 0
M  V30 5143 H 494.238 -1.99569 0.450931 0
M  V30 5144 H 494.248 -3.95034 -1.02039 0
M  V30 5145 H 492.923 -4.15746 0.113198 0
M  V30 5146 H 491.5 -3.39143 -1.55037 0
M  V30 5147 N 493.685 -0.035106 -1.57561 0
M  V30 5148 C 494.925 0.646316 -1.93913 0
M  V30 5149 C 495.289 1.68947 -0.912185 0
M  V30 5150 O 496.49 2.42381 -1.1621 0
M  V30 5151 C 494.761 1.24136 -3.35149 0
M  V30 5152 S 496.32 1.94302 -3.93436 0
M  V30 5153 H 493.138 0.212642 -0.678457 0
M  V30 5154 H 495.74 -0.100203 -1.95243 0
M  V30 5155 H 494.444 0.46979 -4.07702 0
M  V30 5156 H 493.975 2.02505 -3.37276 0
M  V30 5157 H 495.99 3.22205 -3.77357 0
M  V30 5158 N 495.163 1.55791 0.238111 0
M  V30 5159 C 496.574 1.68383 0.806472 0
M  V30 5160 C 496.925 0.634157 1.85669 0
M  V30 5161 O 496.05 -0.217913 2.153 0
M  V30 5162 C 496.645 3.05268 1.46959 0
M  V30 5163 C 495.204 3.1977 1.98555 0
M  V30 5164 C 494.351 2.64279 0.839763 0
M  V30 5165 H 497.302 1.58694 0.0137535 0
M  V30 5166 H 497.323 3.00203 2.33792 0
M  V30 5167 H 496.835 3.81643 0.704993 0
M  V30 5168 H 494.936 2.48234 2.77868 0
M  V30 5169 H 495.049 4.26788 2.17689 0
M  V30 5170 H 493.413 2.22329 1.24265 0
M  V30 5171 H 494.196 3.43187 0.0881032 0
M  V30 5172 N 496.642 -0.504142 1.49319 0
M  V30 5173 C 497.919 -1.26548 1.49147 0
M  V30 5174 C 498.299 -2.09977 0.21744 0
M  V30 5175 O 497.647 -2.14028 -0.800269 0
M  V30 5176 C 497.857 -2.12489 2.76857 0
M  V30 5177 C 499.205 -2.7178 3.26222 0
M  V30 5178 O 500.229 -2.22758 2.77952 0
M  V30 5179 O 499.088 -3.61015 4.10281 0
M  V30 5180 H 496.182 -0.572495 0.596806 0
M  V30 5181 H 498.728 -0.51867 1.61579 0
M  V30 5182 H 497.5 -1.50796 3.61077 0
M  V30 5183 H 497.123 -2.94368 2.6727 0
M  V30 5184 N 498.12 -1.38341 -0.754957 0
M  V30 5185 C 499.368 -1.34208 -1.51105 0
M  V30 5186 C 499.689 0.0677634 -1.94882 0
M  V30 5187 O 498.959 1.01517 -1.67544 0
M  V30 5188 H 497.539 -0.493819 -0.560493 0
M  V30 5189 H 500.201 -1.73005 -0.897507 0
M  V30 5190 H 499.297 -1.99203 -2.4026 0
M  V30 5191 N 499.598 0.982988 -1.23187 0
M  V30 5192 C 500.845 1.72392 -1.06241 0
M  V30 5193 C 501.173 1.9032 0.40108 0
M  V30 5194 O 500.428 1.45084 1.31336 0
M  V30 5195 C 500.727 3.12736 -1.73006 0
M  V30 5196 C 500.393 3.14695 -3.22921 0
M  V30 5197 C 499.055 3.14937 -3.63824 0
M  V30 5198 C 501.407 3.10211 -4.1883 0
M  V30 5199 C 498.735 3.08408 -4.99101 0
M  V30 5200 C 501.087 3.05224 -5.54095 0
M  V30 5201 C 499.751 3.03787 -5.94365 0
M  V30 5202 H 499.021 0.630829 -0.388762 0
M  V30 5203 H 501.668 1.15053 -1.53085 0
M  V30 5204 H 499.973 3.73446 -1.18514 0
M  V30 5205 H 501.67 3.68828 -1.57374 0
M  V30 5206 H 498.26 3.15262 -2.90358 0
M  V30 5207 H 502.444 3.09166 -3.8824 0
M  V30 5208 H 497.7 3.05646 -5.29519 0
M  V30 5209 H 501.874 3.00712 -6.28128 0
M  V30 5210 H 499.501 2.98483 -6.99151 0
M  V30 5211 N 501.076 1.04316 1.18135 0
M  V30 5212 C 502.023 0.636398 2.21853 0
M  V30 5213 C 502.993 -0.357039 1.62217 0
M  V30 5214 O 504.178 -0.250453 1.89149 0
M  V30 5215 C 501.318 0.00812779 3.45099 0
M  V30 5216 C 500.431 1.04933 4.19062 0
M  V30 5217 C 499.566 0.389313 5.29771 0
M  V30 5218 C 498.605 1.41544 5.9551 0
M  V30 5219 N 497.742 0.78021 6.97751 0
M  V30 5220 H 502.582 1.52536 2.56002 0
M  V30 5221 H 500.119 0.76304 1.25762 0
M  V30 5222 H 502.077 -0.373497 4.15525 0
M  V30 5223 H 500.707 -0.844336 3.11562 0
M  V30 5224 H 499.759 1.54888 3.47439 0
M  V30 5225 H 501.071 1.82862 4.64072 0
M  V30 5226 H 500.225 -0.0463805 6.06682 0
M  V30 5227 H 498.964 -0.422038 4.8587 0
M  V30 5228 H 497.969 1.86124 5.17337 0
M  V30 5229 H 499.194 2.22854 6.41493 0
M  V30 5230 H 497.14 -0.0107899 6.55999 0
M  V30 5231 H 497.057 1.49716 7.41027 0
M  V30 5232 H 498.325 0.368996 7.78626 0
M  V30 5233 N 502.554 -1.34406 0.822964 0
M  V30 5234 C 503.803 -1.97542 0.407458 0
M  V30 5235 C 504.116 -1.65973 -1.035 0
M  V30 5236 O 505.322 -2.22598 -1.55442 0
M  V30 5237 C 503.778 -3.53463 0.677623 0
M  V30 5238 C 503.386 -3.93925 2.1337 0
M  V30 5239 C 505.13 -4.23229 0.328284 0
M  V30 5240 C 503.037 -5.42759 2.34876 0
M  V30 5241 H 501.967 -0.739207 0.148623 0
M  V30 5242 H 504.618 -1.53248 1.00932 0
M  V30 5243 H 503 -3.96 0.00558965 0
M  V30 5244 H 504.174 -3.62494 2.8449 0
M  V30 5245 H 502.489 -3.37097 2.44448 0
M  V30 5246 H 505.086 -5.32659 0.466794 0
M  V30 5247 H 505.429 -4.09899 -0.727224 0
M  V30 5248 H 505.962 -3.86169 0.954896 0
M  V30 5249 H 502.701 -5.61075 3.38932 0
M  V30 5250 H 502.221 -5.75704 1.68299 0
M  V30 5251 H 503.9 -6.0944 2.17236 0
M  V30 5252 N 504.032 -0.577932 -1.46621 0
M  V30 5253 C 504.962 0.145917 -2.33044 0
M  V30 5254 C 505.943 0.888412 -1.45056 0
M  V30 5255 O 507.128 0.864812 -1.73881 0
M  V30 5256 C 504.258 1.16322 -3.27241 0
M  V30 5257 C 503.212 0.535868 -4.24632 0
M  V30 5258 C 502.538 1.65929 -5.08303 0
M  V30 5259 C 503.838 -0.523861 -5.19666 0
M  V30 5260 H 505.532 -0.575636 -2.93814 0
M  V30 5261 H 503.078 -0.278272 -1.41286 0
M  V30 5262 H 505.031 1.67793 -3.86553 0
M  V30 5263 H 503.755 1.91498 -2.64567 0
M  V30 5264 H 502.414 0.0422759 -3.66576 0
M  V30 5265 H 502.062 2.40061 -4.42018 0
M  V30 5266 H 501.762 1.2452 -5.74255 0
M  V30 5267 H 503.286 2.17686 -5.70478 0
M  V30 5268 H 504.7 -0.0944059 -5.73222 0
M  V30 5269 H 503.097 -0.858 -5.93935 0
M  V30 5270 H 504.167 -1.41197 -4.63887 0
M  V30 5271 N 505.51 1.54411 -0.315457 0
M  V30 5272 C 506.44 2.27002 0.547039 0
M  V30 5273 C 507.421 1.27492 1.12605 0
M  V30 5274 O 508.606 1.5629 1.15269 0
M  V30 5275 C 505.736 3.02171 1.71201 0
M  V30 5276 C 504.69 4.0895 1.26268 0
M  V30 5277 C 504.016 4.71915 2.51396 0
M  V30 5278 C 505.316 5.20891 0.383419 0
M  V30 5279 H 507.01 2.99343 -0.0584517 0
M  V30 5280 H 504.556 1.4397 -0.0295527 0
M  V30 5281 H 506.509 3.51681 2.32161 0
M  V30 5282 H 505.233 2.27433 2.34397 0
M  V30 5283 H 503.892 3.60312 0.676062 0
M  V30 5284 H 503.54 3.93801 3.12937 0
M  V30 5285 H 503.24 5.44039 2.22026 0
M  V30 5286 H 504.764 5.24195 3.13133 0
M  V30 5287 H 506.178 5.66206 0.899082 0
M  V30 5288 H 504.575 5.99821 0.182857 0
M  V30 5289 H 505.645 4.81324 -0.587821 0
M  V30 5290 N 506.988 0.0434614 1.5754 0
M  V30 5291 C 508.404 -0.313039 1.565 0
M  V30 5292 C 508.604 -1.71954 1.05043 0
M  V30 5293 O 507.66 -2.425 0.703564 0
M  V30 5294 C 508.973 -0.148544 3.00333 0
M  V30 5295 C 510.521 -0.220231 3.12224 0
M  V30 5296 C 510.996 -0.0843565 4.57922 0
M  V30 5297 N 512.487 -0.140881 4.62986 0
M  V30 5298 C 513.222 -0.0597443 5.73369 0
M  V30 5299 N 512.718 0.0733004 6.92761 0
M  V30 5300 N 514.511 -0.11477 5.61983 0
M  V30 5301 H 506.662 0.96303 1.89313 0
M  V30 5302 H 508.925 0.373164 0.871466 0
M  V30 5303 H 508.631 0.820894 3.41986 0
M  V30 5304 H 508.505 -0.912798 3.65989 0
M  V30 5305 H 510.892 -1.18014 2.70475 0
M  V30 5306 H 510.973 0.574646 2.49262 0
M  V30 5307 H 510.617 0.872192 5.00355 0
M  V30 5308 H 510.547 -0.898281 5.18882 0
M  V30 5309 H 513.038 -0.243273 3.77116 0
M  V30 5310 H 513.351 0.128128 7.72694 0
M  V30 5311 H 511.696 0.10828 6.94916 0
M  V30 5312 H 514.887 -0.217212 4.67596 0
M  V30 5313 H 515.06 -0.0480779 6.47982 0
M  V30 5314 N 508.466 -1.55915 -0.229846 0
M  V30 5315 C 509.398 -1.88209 -1.30805 0
M  V30 5316 C 510.411 -0.769672 -1.43457 0
M  V30 5317 O 511.6 -1.04792 -1.44502 0
M  V30 5318 C 508.7 -2.06829 -2.68468 0
M  V30 5319 C 507.873 -3.37798 -2.77869 0
M  V30 5320 C 506.932 -3.45952 -3.96489 0
M  V30 5321 O 505.958 -4.19043 -3.85216 0
M  V30 5322 N 507.16 -2.76488 -5.10426 0
M  V30 5323 H 509.925 -2.81286 -1.03431 0
M  V30 5324 H 507.486 -1.5636 -0.41991 0
M  V30 5325 H 509.478 -2.09608 -3.46189 0
M  V30 5326 H 508.048 -1.20416 -2.88477 0
M  V30 5327 H 507.268 -3.4719 -1.86689 0
M  V30 5328 H 508.556 -4.24091 -2.81113 0
M  V30 5329 H 507.954 -2.16868 -5.2248 0
M  V30 5330 H 506.511 -2.84938 -5.8622 0
M  V30 5331 N 509.944 0.496216 -1.49584 0
M  V30 5332 C 511.184 1.26015 -1.60933 0
M  V30 5333 C 511.548 1.89772 -0.291646 0
M  V30 5334 O 512.749 2.67334 -0.280357 0
M  V30 5335 C 511.02 2.29506 -2.73974 0
M  V30 5336 S 512.579 3.15175 -3.05303 0
M  V30 5337 H 509.397 0.428194 -0.567601 0
M  V30 5338 H 511.999 0.561484 -1.87263 0
M  V30 5339 H 510.703 1.81205 -3.68229 0
M  V30 5340 H 510.234 3.04036 -2.49651 0
M  V30 5341 H 512.249 4.30244 -2.47193 0
M  V30 5342 N 511.423 1.38739 0.74761 0
M  V30 5343 C 512.669 1.3648 1.50814 0
M  V30 5344 C 513.024 -0.0431982 1.92351 0
M  V30 5345 O 512.317 -1.0071 1.62997 0
M  V30 5346 C 512.511 2.25992 2.7688 0
M  V30 5347 C 512.34 3.75354 2.47668 0
M  V30 5348 C 511.11 4.44348 2.40589 0
M  V30 5349 C 513.308 4.67642 2.14046 0
M  V30 5350 N 511.29 5.79114 2.03715 0
M  V30 5351 C 512.661 5.90965 1.87512 0
M  V30 5352 C 514.716 4.55787 2.00407 0
M  V30 5353 C 513.419 7.03759 1.48714 0
M  V30 5354 C 515.445 5.68491 1.63011 0
M  V30 5355 C 514.807 6.90879 1.37353 0
M  V30 5356 H 510.906 0.554695 0.551214 0
M  V30 5357 H 513.49 1.7418 0.870033 0
M  V30 5358 H 511.661 1.9047 3.3849 0
M  V30 5359 H 513.393 2.14815 3.42982 0
M  V30 5360 H 510.148 3.97634 2.57262 0
M  V30 5361 H 510.572 6.504 1.87906 0
M  V30 5362 H 515.214 3.61712 2.18916 0
M  V30 5363 H 512.932 7.97746 1.28945 0
M  V30 5364 H 516.518 5.613 1.53081 0
M  V30 5365 H 515.398 7.76609 1.08848 0
M  V30 5366 N 512.901 -0.976442 1.23707 0
M  V30 5367 C 513.849 -2.09078 1.01927 0
M  V30 5368 C 514.843 -1.69345 -0.0430193 0
M  V30 5369 O 516.049 -1.79659 0.110814 0
M  V30 5370 H 512.424 -0.68398 0.312531 0
M  V30 5371 H 514.395 -2.24614 1.96447 0
M  V30 5372 C 513.144 -3.41919 0.631385 0
M  V30 5373 H 512.467 -3.72946 1.44053 0
M  V30 5374 H 513.907 -4.20817 0.518532 0
M  V30 5375 C 512.366 -3.30357 -0.660723 0
M  V30 5376 O 512.896 -3.63542 -1.70881 0
M  V30 5377 N 511.102 -2.83507 -0.638139 0
M  V30 5378 H 510.649 -2.567 0.215108 0
M  V30 5379 H 510.607 -2.76153 -1.50289 0
M  V30 5380 N 514.379 -1.04941 -1.1758 0
M  V30 5381 C 515.604 -0.778253 -1.92245 0
M  V30 5382 C 516.029 0.659707 -1.76152 0
M  V30 5383 O 515.387 1.45803 -1.07755 0
M  V30 5384 C 515.435 -1.16051 -3.41416 0
M  V30 5385 O 514.539 -0.291153 -4.11371 0
M  V30 5386 H 513.88 -0.285619 -0.599431 0
M  V30 5387 H 516.41 -1.40159 -1.49052 0
M  V30 5388 H 516.42 -1.12619 -3.92149 0
M  V30 5389 H 515.095 -2.208 -3.52449 0
M  V30 5390 H 513.672 -0.385851 -3.70898 0
M  V30 5391 N 515.857 1.33968 -0.830081 0
M  V30 5392 C 516.804 2.29387 -0.255008 0
M  V30 5393 C 517.774 1.53923 0.624243 0
M  V30 5394 O 518.959 1.82262 0.564372 0
M  V30 5395 C 516.099 3.4034 0.571209 0
M  V30 5396 C 515.212 4.30729 -0.331083 0
M  V30 5397 C 514.347 5.2879 0.505389 0
M  V30 5398 C 513.386 6.10819 -0.395843 0
M  V30 5399 N 512.523 7.00948 0.401979 0
M  V30 5400 H 517.363 2.77972 -1.07404 0
M  V30 5401 H 514.9 1.36785 -0.541133 0
M  V30 5402 H 516.858 4.03361 1.06562 0
M  V30 5403 H 515.488 2.9297 1.35529 0
M  V30 5404 H 514.54 3.68507 -0.943759 0
M  V30 5405 H 515.852 4.88181 -1.02377 0
M  V30 5406 H 515.006 5.97297 1.06399 0
M  V30 5407 H 513.745 4.71894 1.23155 0
M  V30 5408 H 512.75 5.41238 -0.966529 0
M  V30 5409 H 513.975 6.69797 -1.12023 0
M  V30 5410 H 511.921 6.46512 1.11168 0
M  V30 5411 H 511.838 7.55643 -0.232167 0
M  V30 5412 H 513.106 7.73774 0.943102 0
M  V30 5413 N 517.335 0.585699 1.46312 0
M  V30 5414 C 518.746 0.159938 1.86014 0
M  V30 5415 C 519.097 -1.27775 1.48889 0
M  V30 5416 O 518.222 -1.96559 0.90519 0
M  V30 5417 C 518.817 0.283485 3.37612 0
M  V30 5418 C 517.376 -0.0874256 3.76298 0
M  V30 5419 C 516.523 0.618055 2.70325 0
M  V30 5420 H 519.474 0.793737 1.37425 0
M  V30 5421 H 519.495 -0.490348 3.77327 0
M  V30 5422 H 519.007 1.32995 3.64601 0
M  V30 5423 H 517.108 -1.13391 3.54927 0
M  V30 5424 H 517.221 0.290975 4.78216 0
M  V30 5425 H 515.585 0.057993 2.54634 0
M  V30 5426 H 516.368 1.66623 3.00153 0
M  V30 5427 N 518.813 -1.54241 0.323641 0
M  V30 5428 C 520.229 -1.59574 -0.0290018 0
M  V30 5429 C 520.429 -1.34017 -1.50472 0
M  V30 5430 O 519.485 -1.12464 -2.26071 0
M  V30 5431 C 520.798 -2.98169 0.389295 0
M  V30 5432 C 522.346 -3.11148 0.339958 0
M  V30 5433 C 522.821 -4.5209 0.733418 0
M  V30 5434 N 524.312 -4.5808 0.686827 0
M  V30 5435 C 525.047 -5.65248 0.963464 0
M  V30 5436 N 524.543 -6.80355 1.30724 0
M  V30 5437 N 526.336 -5.55025 0.88902 0
M  V30 5438 H 518.487 -1.6911 1.28512 0
M  V30 5439 H 520.75 -0.790972 0.522558 0
M  V30 5440 H 520.456 -3.21871 1.41746 0
M  V30 5441 H 520.33 -3.76399 -0.245657 0
M  V30 5442 H 522.717 -2.87182 -0.679002 0
M  V30 5443 H 522.798 -2.35023 1.00985 0
M  V30 5444 H 522.442 -4.76788 1.75029 0
M  V30 5445 H 522.372 -5.26584 0.0412189 0
M  V30 5446 H 524.863 -3.75411 0.43298 0
M  V30 5447 H 525.176 -7.58029 1.5037 0
M  V30 5448 H 523.521 -6.81851 1.3455 0
M  V30 5449 H 526.712 -4.63977 0.619939 0
M  V30 5450 H 526.885 -6.38458 1.10797 0
M  V30 5451 N 520.291 -0.0518155 -1.57515 0
M  V30 5452 C 521.239 0.940195 -2.12751 0
M  V30 5453 C 522.233 1.3218 -1.05948 0
M  V30 5454 O 523.439 1.30138 -1.24355 0
M  V30 5455 H 519.814 0.321066 -0.680015 0
M  V30 5456 H 521.785 0.449217 -2.94999 0
M  V30 5457 C 520.534 2.2055 -2.68799 0
M  V30 5458 H 519.857 1.92066 -3.50643 0
M  V30 5459 H 521.297 2.88119 -3.11068 0
M  V30 5460 C 519.756 2.95061 -1.62605 0
M  V30 5461 O 520.286 3.88025 -1.03921 0
M  V30 5462 N 518.492 2.57804 -1.34111 0
M  V30 5463 H 518.039 1.82281 -1.8202 0
M  V30 5464 H 517.997 3.07964 -0.632872 0
M  V30 5465 N 521.769 1.56035 0.221574 0
M  V30 5466 C 523.185 1.49026 0.571271 0
M  V30 5467 C 523.385 0.746912 1.87146 0
M  V30 5468 O 522.441 0.286566 2.50869 0
M  V30 5469 C 523.754 2.93579 0.650522 0
M  V30 5470 C 525.302 3.04099 0.741151 0
M  V30 5471 C 525.777 4.5001 0.851747 0
M  V30 5472 N 527.268 4.54053 0.915968 0
M  V30 5473 C 528.003 5.64232 1.02125 0
M  V30 5474 N 527.499 6.84164 1.09049 0
M  V30 5475 N 529.292 5.52084 1.05639 0
M  V30 5476 H 521.443 2.02791 -0.63162 0
M  V30 5477 H 523.706 0.921736 -0.221602 0
M  V30 5478 H 523.412 3.50912 -0.235253 0
M  V30 5479 H 523.286 3.45476 1.51413 0
M  V30 5480 H 525.673 2.4683 1.61737 0
M  V30 5481 H 525.754 2.55371 -0.148128 0
M  V30 5482 H 525.398 5.07896 -0.0200117 0
M  V30 5483 H 525.328 4.96444 1.75644 0
M  V30 5484 H 527.819 3.67683 0.872782 0
M  V30 5485 H 528.132 7.63883 1.1706 0
M  V30 5486 H 526.477 6.86875 1.05962 0
M  V30 5487 H 529.668 4.57317 0.998953 0
M  V30 5488 H 529.841 6.37983 1.13498 0
M  V30 5489 N 523.247 -0.488276 1.49845 0
M  V30 5490 C 524.658 -1.06955 1.53028 0
M  V30 5491 C 525.009 -1.9351 0.323797 0
M  V30 5492 O 524.134 -2.08891 -0.565116 0
M  V30 5493 C 524.729 -1.94643 2.77307 0
M  V30 5494 C 523.288 -2.4791 2.83227 0
M  V30 5495 C 522.435 -1.25833 2.47106 0
M  V30 5496 H 525.386 -0.271626 1.56358 0
M  V30 5497 H 525.407 -2.79496 2.5819 0
M  V30 5498 H 524.919 -1.31621 3.65099 0
M  V30 5499 H 523.02 -3.14535 1.99745 0
M  V30 5500 H 523.133 -2.84193 3.85709 0
M  V30 5501 H 521.497 -1.58764 1.99163 0
M  V30 5502 H 522.28 -0.644993 3.37186 0
M  V30 5503 N 524.725 -1.39134 -0.740242 0
M  V30 5504 C 525.95 -1.39518 -1.53459 0
M  V30 5505 C 526.375 0.00968883 -1.88098 0
M  V30 5506 O 525.733 0.995312 -1.51536 0
M  V30 5507 C 525.781 -2.26981 -2.802 0
M  V30 5508 O 524.885 -1.69609 -3.75908 0
M  V30 5509 H 524.226 -0.475328 -0.463637 0
M  V30 5510 H 526.756 -1.83064 -0.913717 0
M  V30 5511 H 526.766 -2.41309 -3.28989 0
M  V30 5512 H 525.441 -3.29081 -2.5432 0
M  V30 5513 H 524.018 -1.64495 -3.34658 0
M  V30 5514 N 526.204 0.969867 -1.24223 0
M  V30 5515 C 527.451 1.71256 -1.08063 0
M  V30 5516 C 527.779 1.90734 0.380872 0
M  V30 5517 O 527.034 1.46469 1.29789 0
M  V30 5518 C 527.333 3.10883 -1.76314 0
M  V30 5519 C 526.999 3.11252 -3.26241 0
M  V30 5520 C 525.661 3.1106 -3.67144 0
M  V30 5521 C 528.013 3.05751 -4.22097 0
M  V30 5522 C 525.341 3.03097 -5.02344 0
M  V30 5523 C 527.693 2.9933 -5.57301 0
M  V30 5524 C 526.357 2.97466 -5.97554 0
M  V30 5525 H 525.627 0.62667 -0.395431 0
M  V30 5526 H 528.274 1.13422 -1.54297 0
M  V30 5527 H 526.579 3.72168 -1.22468 0
M  V30 5528 H 528.276 3.67138 -1.61277 0
M  V30 5529 H 524.866 3.12165 -2.93685 0
M  V30 5530 H 529.05 3.05031 -3.91497 0
M  V30 5531 H 524.306 3.00013 -5.32731 0
M  V30 5532 H 528.48 2.94033 -6.31283 0
M  V30 5533 H 526.107 2.91051 -7.02277 0
M  V30 5534 N 527.682 1.05563 1.17022 0
M  V30 5535 C 529.098 0.777684 1.39371 0
M  V30 5536 C 529.298 -0.626269 1.91521 0
M  V30 5537 O 528.354 -1.38806 2.10924 0
M  V30 5538 C 529.667 1.83642 2.3811 0
M  V30 5539 C 531.215 1.85907 2.51809 0
M  V30 5540 C 531.69 2.90813 3.53824 0
M  V30 5541 N 533.181 2.898 3.61345 0
M  V30 5542 C 533.916 3.6762 4.40049 0
M  V30 5543 N 533.412 4.55237 5.22237 0
M  V30 5544 N 535.205 3.56044 4.34959 0
M  V30 5545 H 527.356 1.9614 0.815047 0
M  V30 5546 H 529.619 0.849527 0.420722 0
M  V30 5547 H 529.325 2.84425 2.06871 0
M  V30 5548 H 529.199 1.6812 3.37662 0
M  V30 5549 H 531.586 0.857865 2.82356 0
M  V30 5550 H 531.667 2.05506 1.52318 0
M  V30 5551 H 531.311 3.91122 3.24015 0
M  V30 5552 H 531.241 2.68465 4.53028 0
M  V30 5553 H 533.732 2.26274 3.02669 0
M  V30 5554 H 534.045 5.11291 5.79484 0
M  V30 5555 H 532.39 4.59296 5.21605 0
M  V30 5556 H 535.581 2.86986 3.69806 0
M  V30 5557 H 535.754 4.16938 4.96051 0
M  V30 5558 N 529.16 -1.33526 0.837174 0
M  V30 5559 C 530.092 -2.28077 0.226579 0
M  V30 5560 C 531.105 -1.51666 -0.591717 0
M  V30 5561 O 532.294 -1.73511 -0.419064 0
M  V30 5562 C 529.394 -3.31597 -0.69978 0
M  V30 5563 C 528.567 -4.37329 0.0788067 0
M  V30 5564 C 527.626 -5.20526 -0.770637 0
M  V30 5565 O 526.652 -5.68811 -0.210453 0
M  V30 5566 N 527.854 -5.41639 -2.08825 0
M  V30 5567 H 530.619 -2.81115 1.03897 0
M  V30 5568 H 528.18 -1.46201 0.695476 0
M  V30 5569 H 530.172 -3.84158 -1.27298 0
M  V30 5570 H 528.742 -2.78848 -1.41288 0
M  V30 5571 H 527.962 -3.8529 0.833381 0
M  V30 5572 H 529.25 -5.05079 0.614238 0
M  V30 5573 H 528.648 -5.04108 -2.56693 0
M  V30 5574 H 527.205 -5.97263 -2.60998 0
M  V30 5575 N 530.638 -0.59345 -1.46 0
M  V30 5576 C 531.887 -0.0808084 -2.01538 0
M  V30 5577 C 532.2 1.29112 -1.46934 0
M  V30 5578 O 533.406 1.8957 -1.94359 0
M  V30 5579 C 531.862 -0.0938311 -3.59778 0
M  V30 5580 C 531.47 -1.46474 -4.23379 0
M  V30 5581 C 533.214 0.364306 -4.22934 0
M  V30 5582 C 531.121 -1.4349 -5.73729 0
M  V30 5583 H 530.051 -0.0264407 -0.753536 0
M  V30 5584 H 532.702 -0.746689 -1.67621 0
M  V30 5585 H 531.084 0.638427 -3.9082 0
M  V30 5586 H 532.258 -2.21758 -4.03931 0
M  V30 5587 H 530.573 -1.86379 -3.7236 0
M  V30 5588 H 533.17 0.405584 -5.3316 0
M  V30 5589 H 533.513 1.38409 -3.92618 0
M  V30 5590 H 534.046 -0.31423 -3.96557 0
M  V30 5591 H 530.785 -2.43184 -6.08722 0
M  V30 5592 H 530.305 -0.724431 -5.95409 0
M  V30 5593 H 531.984 -1.15243 -6.36654 0
M  V30 5594 N 532.116 1.54067 -0.331816 0
M  V30 5595 C 533.046 2.27569 0.522932 0
M  V30 5596 C 534.027 1.28679 1.11247 0
M  V30 5597 O 535.212 1.57504 1.13605 0
M  V30 5598 C 532.342 3.0397 1.67987 0
M  V30 5599 C 531.296 4.10267 1.21924 0
M  V30 5600 C 530.622 4.74555 2.46377 0
M  V30 5601 C 531.922 5.21268 0.32815 0
M  V30 5602 H 533.616 2.99264 -0.0901977 0
M  V30 5603 H 531.162 1.4393 -0.044821 0
M  V30 5604 H 533.115 3.54123 2.28418 0
M  V30 5605 H 531.839 2.29906 2.31971 0
M  V30 5606 H 530.498 3.61009 0.637809 0
M  V30 5607 H 530.146 3.97098 3.08743 0
M  V30 5608 H 529.846 5.46363 2.16243 0
M  V30 5609 H 531.37 5.27487 3.07555 0
M  V30 5610 H 532.784 5.67128 0.838978 0
M  V30 5611 H 531.181 5.99982 0.119228 0
M  V30 5612 H 532.251 4.80673 -0.638839 0
M  V30 5613 N 533.594 0.0601682 1.57485 0
M  V30 5614 C 534.524 -0.90889 2.15085 0
M  V30 5615 C 535.505 -1.31838 1.07484 0
M  V30 5616 O 536.69 -1.3915 1.35466 0
M  V30 5617 C 533.82 -2.18059 2.7031 0
M  V30 5618 C 532.774 -1.91088 3.82974 0
M  V30 5619 C 532.1 -3.24789 4.24754 0
M  V30 5620 C 533.4 -1.22535 5.07723 0
M  V30 5621 H 535.094 -0.429093 2.96309 0
M  V30 5622 H 532.64 -0.204952 1.42534 0
M  V30 5623 H 534.593 -2.86258 3.09248 0
M  V30 5624 H 533.317 -2.6826 1.8629 0
M  V30 5625 H 531.976 -1.25297 3.44523 0
M  V30 5626 H 531.624 -3.72809 3.37672 0
M  V30 5627 H 531.324 -3.07538 5.00694 0
M  V30 5628 H 532.848 -3.94205 4.66299 0
M  V30 5629 H 534.262 -1.80783 5.4405 0
M  V30 5630 H 532.659 -1.1558 5.88864 0
M  V30 5631 H 533.729 -0.202692 4.84476 0
M  V30 5632 N 535.072 -1.5615 -0.213296 0
M  V30 5633 C 536.022 -1.89485 -1.26804 0
M  V30 5634 C 537.006 -0.758713 -1.41889 0
M  V30 5635 O 538.198 -1.02127 -1.44565 0
M  V30 5636 C 535.327 -2.22219 -2.61675 0
M  V30 5637 C 534.413 -3.42245 -2.50458 0
M  V30 5638 N 534.804 -4.60645 -2.089 0
M  V30 5639 C 533.102 -3.46023 -2.81397 0
M  V30 5640 C 533.803 -5.42805 -2.09135 0
M  V30 5641 N 532.779 -4.82732 -2.49941 0
M  V30 5642 H 536.581 -2.78537 -0.937771 0
M  V30 5643 H 534.095 -1.56826 -0.421824 0
M  V30 5644 H 536.092 -2.44278 -3.37837 0
M  V30 5645 H 534.752 -1.34484 -2.95541 0
M  V30 5646 H 535.763 -4.85651 -1.79899 0
M  V30 5647 H 532.44 -2.68654 -3.1958 0
M  V30 5648 H 533.83 -6.47601 -1.79059 0
M  V30 5649 N 536.55 0.480323 -1.50102 0
M  V30 5650 C 537.48 1.58769 -1.71215 0
M  V30 5651 C 538.461 1.60583 -0.560997 0
M  V30 5652 O 539.646 1.76996 -0.799127 0
M  V30 5653 C 536.776 2.97148 -1.79778 0
M  V30 5654 C 535.73 3.10201 -2.94888 0
M  V30 5655 C 535.056 4.50137 -2.88584 0
M  V30 5656 C 536.356 2.88283 -4.35534 0
M  V30 5657 H 538.05 1.41354 -2.6393 0
M  V30 5658 H 535.596 0.678591 -1.27008 0
M  V30 5659 H 537.549 3.74536 -1.93133 0
M  V30 5660 H 536.273 3.15699 -0.836772 0
M  V30 5661 H 534.932 2.35244 -2.81169 0
M  V30 5662 H 534.58 4.65593 -1.90349 0
M  V30 5663 H 534.28 4.59808 -3.65856 0
M  V30 5664 H 535.804 5.29558 -3.03976 0
M  V30 5665 H 537.218 3.55427 -4.49827 0
M  V30 5666 H 535.615 3.09408 -5.14186 0
M  V30 5667 H 536.685 1.84219 -4.48544 0
M  V30 5668 N 538.028 1.39524 0.732853 0
M  V30 5669 C 539.305 1.27373 1.48444 0
M  V30 5670 C 539.685 -0.115725 2.10783 0
M  V30 5671 O 539.033 -1.12713 1.98766 0
M  V30 5672 C 539.243 2.39966 2.53412 0
M  V30 5673 C 540.591 2.79384 3.19733 0
M  V30 5674 O 541.615 2.39431 2.63725 0
M  V30 5675 O 540.474 3.48353 4.21085 0
M  V30 5676 H 537.568 0.499272 0.659285 0
M  V30 5677 H 540.114 1.51403 0.766496 0
M  V30 5678 H 538.886 3.32845 2.05742 0
M  V30 5679 H 538.509 2.17612 3.32762 0
M  V30 5680 N 539.506 -0.963266 1.24736 0
M  V30 5681 C 540.755 -1.70115 1.08369 0
M  V30 5682 C 541.068 -1.91939 -0.376688 0
M  V30 5683 O 542.274 -2.6334 -0.660624 0
M  V30 5684 C 540.73 -3.06218 1.89099 0
M  V30 5685 C 540.338 -2.92221 3.39574 0
M  V30 5686 C 542.082 -3.83848 1.81275 0
M  V30 5687 C 539.989 -4.23662 4.12631 0
M  V30 5688 H 538.919 -0.637944 0.401924 0
M  V30 5689 H 541.57 -1.07304 1.48856 0
M  V30 5690 H 539.952 -3.69884 1.41429 0
M  V30 5691 H 541.126 -2.37541 3.94856 0
M  V30 5692 H 539.441 -2.28054 3.48397 0
M  V30 5693 H 542.038 -4.81188 2.33158 0
M  V30 5694 H 542.381 -4.08949 0.778895 0
M  V30 5695 H 542.914 -3.26918 2.26649 0
M  V30 5696 H 539.653 -4.03753 5.16395 0
M  V30 5697 H 539.173 -4.78141 3.62135 0
M  V30 5698 H 540.852 -4.92256 4.19873 0
M  V30 5699 N 540.985 -1.06182 -1.16461 0
M  V30 5700 C 541.948 -0.675723 -2.19013 0
M  V30 5701 C 542.948 0.277963 -1.58379 0
M  V30 5702 O 544.138 0.0604962 -1.74095 0
M  V30 5703 C 541.27 0.00591459 -3.40899 0
M  V30 5704 H 542.463 -1.58353 -2.54685 0
M  V30 5705 H 540.016 -0.856908 -1.30716 0
M  V30 5706 H 540.751 0.92652 -3.10783 0
M  V30 5707 H 540.536 -0.67984 -3.86161 0
M  V30 5708 H 542.026 0.26181 -4.16778 0
M  V30 5709 N 542.463 1.3308 -0.844243 0
M  V30 5710 C 543.688 2.02341 -0.455282 0
M  V30 5711 C 544.113 1.6308 0.93737 0
M  V30 5712 O 543.471 0.826118 1.61385 0
M  V30 5713 C 543.519 3.55743 -0.58988 0
M  V30 5714 O 542.623 4.1063 0.38166 0
M  V30 5715 H 541.964 0.637898 -0.184343 0
M  V30 5716 H 544.494 1.6986 -1.14056 0
M  V30 5717 H 544.504 4.05243 -0.473522 0
M  V30 5718 H 543.179 3.83662 -1.60549 0
M  V30 5719 H 541.756 3.72236 0.22241 0
M  V30 5720 N 543.941 0.601185 1.45683 0
M  V30 5721 C 544.904 -0.111398 2.28929 0
M  V30 5722 C 545.904 -0.801246 1.39416 0
M  V30 5723 O 547.094 -0.650383 1.61603 0
M  V30 5724 C 544.226 -1.16773 3.20276 0
M  V30 5725 H 545.419 0.620412 2.93413 0
M  V30 5726 H 542.972 0.359946 1.52099 0
M  V30 5727 H 543.707 -1.93051 2.60579 0
M  V30 5728 H 543.492 -0.677358 3.86205 0
M  V30 5729 H 544.982 -1.66698 3.82886 0
M  V30 5730 N 545.419 -1.53889 0.339982 0
M  V30 5731 C 546.696 -1.93084 -0.312719 0
M  V30 5732 C 547.076 -1.2712 -1.68534 0
M  V30 5733 O 546.424 -0.420835 -2.24591 0
M  V30 5734 C 546.634 -3.4683 -0.388558 0
M  V30 5735 C 547.982 -4.19732 -0.641088 0
M  V30 5736 O 549.006 -3.53075 -0.470818 0
M  V30 5737 O 547.865 -5.3781 -0.970685 0
M  V30 5738 H 544.959 -0.806784 -0.18174 0
M  V30 5739 H 547.505 -1.65137 0.390898 0
M  V30 5740 H 546.277 -3.87055 0.574821 0
M  V30 5741 H 545.9 -3.80933 -1.1391 0
M  V30 5742 N 546.897 -0.0685191 -1.57451 0
M  V30 5743 C 548.143 0.602239 -1.93652 0
M  V30 5744 C 548.476 1.6946 -0.948526 0
M  V30 5745 O 547.751 1.94487 0.022782 0
M  V30 5746 C 548.034 1.18223 -3.4014 0
M  V30 5747 C 547.887 0.0967431 -4.49696 0
M  V30 5748 C 549.206 2.08872 -3.87377 0
M  V30 5749 H 546.325 0.217453 -0.70419 0
M  V30 5750 H 548.967 -0.133821 -1.89528 0
M  V30 5751 H 547.117 1.80953 -3.43785 0
M  V30 5752 H 548.789 -0.536155 -4.58174 0
M  V30 5753 H 547.032 -0.573063 -4.29998 0
M  V30 5754 H 547.703 0.542894 -5.49324 0
M  V30 5755 H 550.179 1.56081 -3.85717 0
M  V30 5756 H 549.055 2.46389 -4.90493 0
M  V30 5757 H 549.316 2.99572 -3.25129 0
M  V30 5758 N 548.375 1.56261 0.205012 0
M  V30 5759 C 549.305 1.96779 1.257 0
M  V30 5760 C 550.286 0.838309 1.48008 0
M  V30 5761 O 551.471 1.10189 1.59913 0
M  V30 5762 C 548.601 2.29876 2.60335 0
M  V30 5763 C 547.555 3.45469 2.52656 0
M  V30 5764 C 546.881 3.64215 3.91473 0
M  V30 5765 C 548.181 4.79954 2.06014 0
M  V30 5766 H 549.875 2.84904 0.920338 0
M  V30 5767 H 547.421 1.37072 0.441277 0
M  V30 5768 H 549.374 2.56814 3.34102 0
M  V30 5769 H 548.098 1.38622 2.95722 0
M  V30 5770 H 546.757 3.18605 1.81345 0
M  V30 5771 H 546.405 2.70309 4.24196 0
M  V30 5772 H 546.105 4.41973 3.87213 0
M  V30 5773 H 547.629 3.93519 4.66878 0
M  V30 5774 H 549.043 5.05989 2.69533 0
M  V30 5775 H 547.44 5.61111 2.12777 0
M  V30 5776 H 548.51 4.74201 1.01297 0
M  V30 5777 N 549.853 -0.472356 1.50355 0
M  V30 5778 C 551.078 -1.25251 1.65309 0
M  V30 5779 C 551.503 -1.85081 0.335643 0
M  V30 5780 O 550.861 -1.67227 -0.700335 0
M  V30 5781 C 550.909 -2.3379 2.74544 0
M  V30 5782 O 550.013 -3.38401 2.35709 0
M  V30 5783 H 549.354 -0.368539 0.552336 0
M  V30 5784 H 551.884 -0.562271 1.96722 0
M  V30 5785 H 551.894 -2.79121 2.97583 0
M  V30 5786 H 550.569 -1.89614 3.70161 0
M  V30 5787 H 549.146 -2.9879 2.23112 0
M  V30 5788 N 551.331 -1.39911 -0.725443 0
M  V30 5789 C 552.559 -1.40949 -1.51463 0
M  V30 5790 C 552.974 -0.0065242 -1.88799 0
M  V30 5791 O 552.331 0.967163 -1.54765 0
M  V30 5792 C 552.382 -2.29119 -2.79619 0
M  V30 5793 O 552.103 -3.63952 -2.43866 0
M  V30 5794 C 553.604 -2.38642 -3.73584 0
M  V30 5795 H 550.824 -0.481091 -0.467752 0
M  V30 5796 H 553.368 -1.83843 -0.895651 0
M  V30 5797 H 551.523 -1.89612 -3.37826 0
M  V30 5798 H 551.937 -4.10677 -3.26258 0
M  V30 5799 H 553.411 -3.04563 -4.60375 0
M  V30 5800 H 553.888 -1.40846 -4.16004 0
M  V30 5801 H 554.494 -2.78659 -3.21293 0
M  V30 5802 N 552.809 0.956637 -1.25245 0
M  V30 5803 C 554.22 1.51569 -1.09012 0
M  V30 5804 C 554.571 1.93322 0.334813 0
M  V30 5805 O 553.696 1.78421 1.22454 0
M  V30 5806 C 554.291 2.75444 -1.97271 0
M  V30 5807 C 552.85 3.27669 -1.8523 0
M  V30 5808 C 551.997 2.00517 -1.91542 0
M  V30 5809 H 554.948 0.773746 -1.3856 0
M  V30 5810 H 554.969 3.4919 -1.51151 0
M  V30 5811 H 554.481 2.45024 -3.00973 0
M  V30 5812 H 552.582 3.62914 -0.844045 0
M  V30 5813 H 552.695 3.9582 -2.69932 0
M  V30 5814 H 551.059 2.15727 -1.35404 0
M  V30 5815 H 551.842 1.72448 -2.96844 0
M  V30 5816 N 554.287 1.06798 1.15896 0
M  V30 5817 C 555.219 0.641263 2.20046 0
M  V30 5818 C 556.232 -0.303355 1.59949 0
M  V30 5819 O 557.421 -0.0935478 1.78255 0
M  V30 5820 C 554.521 -0.0794029 3.38807 0
M  V30 5821 C 553.694 0.879986 4.28457 0
M  V30 5822 C 552.753 0.197638 5.25829 0
M  V30 5823 O 551.779 0.836913 5.63014 0
M  V30 5824 N 552.981 -1.05886 5.70761 0
M  V30 5825 H 555.746 1.53718 2.57276 0
M  V30 5826 H 553.307 0.951951 1.30956 0
M  V30 5827 H 555.299 -0.546418 4.00994 0
M  V30 5828 H 553.869 -0.877193 3.0004 0
M  V30 5829 H 553.089 1.52625 3.63454 0
M  V30 5830 H 554.377 1.53065 4.8523 0
M  V30 5831 H 553.775 -1.59828 5.42652 0
M  V30 5832 H 552.332 -1.46965 6.35015 0
M  V30 5833 N 555.766 -1.3263 0.851289 0
M  V30 5834 C 556.676 -2.32722 0.296268 0
M  V30 5835 C 557.692 -1.63901 -0.584162 0
M  V30 5836 O 558.868 -1.95465 -0.485334 0
M  V30 5837 C 555.933 -3.42942 -0.509103 0
M  V30 5838 C 554.994 -4.2746 0.397069 0
M  V30 5839 C 554.227 -5.32416 -0.36996 0
M  V30 5840 O 554.45 -5.47491 -1.6003 0
M  V30 5841 O 553.384 -6.01327 0.262493 0
M  V30 5842 H 557.21 -2.82078 1.12543 0
M  V30 5843 H 554.795 -1.36194 0.614135 0
M  V30 5844 H 556.677 -4.1017 -0.96634 0
M  V30 5845 H 555.352 -2.95781 -1.31512 0
M  V30 5846 H 554.259 -3.63053 0.902411 0
M  V30 5847 H 555.592 -4.78136 1.16818 0
M  V30 5848 N 557.244 -0.608902 -1.45362 0
M  V30 5849 C 558.472 -0.111013 -2.06602 0
M  V30 5850 C 558.887 1.20516 -1.45332 0
M  V30 5851 O 558.244 1.73437 -0.567978 0
M  V30 5852 C 558.295 0.033688 -3.61484 0
M  V30 5853 O 558.016 -1.23041 -4.20467 0
M  V30 5854 C 559.517 0.562882 -4.39712 0
M  V30 5855 H 556.737 -0.0694453 -0.667397 0
M  V30 5856 H 559.281 -0.837008 -1.86586 0
M  V30 5857 H 557.436 0.710016 -3.80838 0
M  V30 5858 H 557.85 -1.06094 -5.13658 0
M  V30 5859 H 559.324 0.613213 -5.48583 0
M  V30 5860 H 559.801 1.58543 -4.09586 0
M  V30 5861 H 560.407 -0.0794454 -4.25226 0
M  V30 5862 N 558.722 1.53707 -0.348139 0
M  V30 5863 C 559.952 2.05108 0.247864 0
M  V30 5864 C 560.36 1.22252 1.44399 0
M  V30 5865 O 559.703 0.251853 1.81965 0
M  V30 5866 C 559.765 3.52171 0.722187 0
M  V30 5867 C 559.429 4.5562 -0.354902 0
M  V30 5868 C 560.426 5.05883 -1.19911 0
M  V30 5869 C 558.111 4.99703 -0.510145 0
M  V30 5870 C 560.105 5.98814 -2.18406 0
M  V30 5871 C 557.792 5.92443 -1.49848 0
M  V30 5872 C 558.79 6.41887 -2.33389 0
M  V30 5873 O 558.478 7.32802 -3.3054 0
M  V30 5874 H 558.21 0.674086 0.0508296 0
M  V30 5875 H 560.764 1.99229 -0.49968 0
M  V30 5876 H 558.994 3.55529 1.52105 0
M  V30 5877 H 560.683 3.8652 1.23925 0
M  V30 5878 H 561.449 4.72586 -1.09028 0
M  V30 5879 H 557.328 4.60816 0.130274 0
M  V30 5880 H 560.872 6.3733 -2.83649 0
M  V30 5881 H 556.769 6.25155 -1.60786 0
M  V30 5882 H 557.537 7.50749 -3.26064 0
M  V30 5883 N 560.2 0.0768682 1.57412 0
M  V30 5884 C 561.447 -0.591085 1.93681 0
M  V30 5885 C 561.775 -1.69311 0.957286 0
M  V30 5886 O 561.03 -1.95682 -0.0262428 0
M  V30 5887 C 561.329 -1.20268 3.36557 0
M  V30 5888 C 560.995 -0.226286 4.50332 0
M  V30 5889 C 559.657 0.0423142 4.81181 0
M  V30 5890 C 562.009 0.441415 5.19327 0
M  V30 5891 C 559.337 0.985616 5.78362 0
M  V30 5892 C 561.689 1.37307 6.17519 0
M  V30 5893 C 560.353 1.65009 6.46783 0
M  V30 5894 H 559.623 -0.216293 0.70873 0
M  V30 5895 H 562.27 0.148824 1.90921 0
M  V30 5896 H 560.575 -2.01844 3.35807 0
M  V30 5897 H 562.272 -1.72688 3.61911 0
M  V30 5898 H 558.862 -0.445821 4.26275 0
M  V30 5899 H 563.046 0.247023 4.95685 0
M  V30 5900 H 558.302 1.20743 5.99359 0
M  V30 5901 H 562.476 1.89637 6.70083 0
M  V30 5902 H 560.103 2.38263 7.21897 0
M  V30 5903 N 561.678 -1.56367 -0.196722 0
M  V30 5904 C 562.625 -1.94417 -1.24382 0
M  V30 5905 C 563.595 -0.804543 -1.45315 0
M  V30 5906 O 564.78 -1.06256 -1.58475 0
M  V30 5907 C 561.92 -2.28757 -2.58388 0
M  V30 5908 C 561.033 -3.55775 -2.45047 0
M  V30 5909 C 560.168 -3.79445 -3.71746 0
M  V30 5910 C 559.207 -4.99894 -3.53231 0
M  V30 5911 N 558.344 -5.19826 -4.71938 0
M  V30 5912 H 563.184 -2.83691 -0.912338 0
M  V30 5913 H 560.721 -1.40392 -0.439135 0
M  V30 5914 H 562.679 -2.46682 -3.36457 0
M  V30 5915 H 561.309 -1.42625 -2.89582 0
M  V30 5916 H 560.361 -3.45905 -1.58284 0
M  V30 5917 H 561.673 -4.44 -2.27299 0
M  V30 5918 H 560.827 -3.97601 -4.58256 0
M  V30 5919 H 559.566 -2.89546 -3.92446 0
M  V30 5920 H 558.571 -4.81662 -2.65107 0
M  V30 5921 H 559.796 -5.913 -3.33978 0
M  V30 5922 H 557.742 -4.32875 -4.92905 0
M  V30 5923 H 557.659 -6.02228 -4.57009 0
M  V30 5924 H 558.927 -5.42439 -5.59803 0
M  V30 5925 N 563.156 0.464375 -1.50603 0
M  V30 5926 C 564.381 1.24372 -1.65971 0
M  V30 5927 C 564.806 1.84901 -0.345453 0
M  V30 5928 O 564.164 1.67596 0.691457 0
M  V30 5929 C 564.212 2.32331 -2.7578 0
M  V30 5930 O 563.316 3.37146 -2.375 0
M  V30 5931 H 562.657 0.365604 -0.554283 0
M  V30 5932 H 565.187 0.55183 -1.97018 0
M  V30 5933 H 565.197 2.77539 -2.99059 0
M  V30 5934 H 563.872 1.87648 -3.71162 0
M  V30 5935 H 562.449 2.97602 -2.24694 0
M  V30 5936 N 564.634 1.40294 0.718013 0
M  V30 5937 C 565.566 1.36281 1.84283 0
M  V30 5938 C 566.579 0.268621 1.60569 0
M  V30 5939 O 567.768 0.528798 1.70487 0
M  V30 5940 C 564.868 1.09741 3.2064 0
M  V30 5941 C 564.041 2.30767 3.71571 0
M  V30 5942 C 563.1 2.00424 4.86535 0
M  V30 5943 O 562.126 2.73268 4.99313 0
M  V30 5944 N 563.328 0.980724 5.72156 0
M  V30 5945 H 566.093 2.3322 1.88225 0
M  V30 5946 H 563.654 1.34616 0.899453 0
M  V30 5947 H 565.646 0.874322 3.95143 0
M  V30 5948 H 564.216 0.214771 3.11861 0
M  V30 5949 H 563.436 2.68921 2.88228 0
M  V30 5950 H 564.724 3.11455 4.02335 0
M  V30 5951 H 564.122 0.377375 5.6444 0
M  V30 5952 H 562.679 0.817538 6.46653 0
M  V30 5953 N 566.112 -0.949982 1.2575 0
M  V30 5954 C 567.075 -2.02894 1.06615 0
M  V30 5955 C 568.075 -1.60791 0.0173905 0
M  V30 5956 O 569.265 -1.72249 0.260003 0
M  V30 5957 C 566.397 -3.35219 0.619751 0
M  V30 5958 H 567.59 -2.21302 2.02399 0
M  V30 5959 H 565.143 -1.12772 1.08223 0
M  V30 5960 H 565.878 -3.22508 -0.340486 0
M  V30 5961 H 565.663 -3.67129 1.37692 0
M  V30 5962 H 567.153 -4.14505 0.507443 0
M  V30 5963 N 567.59 -1.07411 -1.15328 0
M  V30 5964 C 568.5 -0.706438 -2.23711 0
M  V30 5965 C 569.516 0.282586 -1.7169 0
M  V30 5966 O 570.692 0.129066 -2.00986 0
M  V30 5967 C 567.757 -0.11048 -3.46524 0
M  V30 5968 C 566.818 -1.15282 -4.13532 0
M  V30 5969 C 566.051 -0.585205 -5.30482 0
M  V30 5970 O 566.274 0.598549 -5.67251 0
M  V30 5971 O 565.208 -1.33039 -5.87013 0
M  V30 5972 H 569.034 -1.61031 -2.57493 0
M  V30 5973 H 566.619 -0.847113 -1.23062 0
M  V30 5974 H 568.501 0.21957 -4.20828 0
M  V30 5975 H 567.176 0.766703 -3.14489 0
M  V30 5976 H 566.083 -1.53523 -3.41147 0
M  V30 5977 H 567.416 -2.00192 -4.49649 0
M  V30 5978 N 569.068 1.32177 -0.85831 0
M  V30 5979 C 570.314 1.97813 -0.47346 0
M  V30 5980 C 570.669 1.66674 0.961122 0
M  V30 5981 O 569.962 0.94657 1.66585 0
M  V30 5982 C 570.156 3.51372 -0.653658 0
M  V30 5983 C 569.985 3.97433 -2.1042 0
M  V30 5984 C 568.755 4.24338 -2.74345 0
M  V30 5985 C 570.953 4.12233 -3.0752 0
M  V30 5986 N 568.935 4.56672 -4.10272 0
M  V30 5987 C 570.306 4.48146 -4.28445 0
M  V30 5988 C 572.361 3.94577 -3.03667 0
M  V30 5989 C 571.064 4.68246 -5.4602 0
M  V30 5990 C 573.09 4.15864 -4.20489 0
M  V30 5991 C 572.452 4.52098 -5.40173 0
M  V30 5992 H 568.551 0.749808 -0.222061 0
M  V30 5993 H 571.135 1.59927 -1.11047 0
M  V30 5994 H 569.306 3.88372 -0.0463267 0
M  V30 5995 H 571.038 4.03998 -0.238343 0
M  V30 5996 H 567.793 4.16544 -2.25362 0
M  V30 5997 H 568.217 4.77019 -4.80398 0
M  V30 5998 H 572.859 3.65662 -2.12252 0
M  V30 5999 H 570.577 4.96014 -6.37962 0
M  V30 6000 H 574.163 4.03702 -4.18947 0
M  V30 6001 H 573.043 4.68238 -6.29065 0
M  V30 6002 N 570.547 0.616602 1.45037 0
M  V30 6003 C 571.963 0.280994 1.57107 0
M  V30 6004 C 572.163 -1.21627 1.60653 0
M  V30 6005 O 571.219 -1.9997 1.54169 0
M  V30 6006 C 572.532 0.960116 2.8496 0
M  V30 6007 C 574.08 0.936884 2.98649 0
M  V30 6008 C 574.555 1.59619 4.29285 0
M  V30 6009 N 576.046 1.5621 4.36065 0
M  V30 6010 C 576.781 2.04131 5.35834 0
M  V30 6011 N 576.277 2.60177 6.4209 0
M  V30 6012 N 578.07 1.94845 5.27249 0
M  V30 6013 H 570.221 1.58867 1.40979 0
M  V30 6014 H 572.484 0.666024 0.674623 0
M  V30 6015 H 572.19 2.01473 2.88273 0
M  V30 6016 H 572.064 0.488921 3.74018 0
M  V30 6017 H 574.451 -0.109209 2.94898 0
M  V30 6018 H 574.532 1.44643 2.10979 0
M  V30 6019 H 574.176 2.64166 4.33796 0
M  V30 6020 H 574.106 1.06159 5.15789 0
M  V30 6021 H 576.597 1.15276 3.59889 0
M  V30 6022 H 576.91 2.94513 7.1448 0
M  V30 6023 H 575.255 2.64221 6.42816 0
M  V30 6024 H 578.446 1.50792 4.43147 0
M  V30 6025 H 578.619 2.32504 6.04852 0
M  V30 6026 N 572.025 -1.5352 0.356285 0
M  V30 6027 C 572.935 -2.29151 -0.502712 0
M  V30 6028 C 573.951 -1.34753 -1.1008 0
M  V30 6029 O 575.127 -1.67803 -1.11374 0
M  V30 6030 C 572.192 -3.05911 -1.63154 0
M  V30 6031 C 571.253 -4.15958 -1.06194 0
M  V30 6032 C 570.486 -4.8905 -2.13696 0
M  V30 6033 O 570.709 -4.61919 -3.34645 0
M  V30 6034 O 569.643 -5.75202 -1.77275 0
M  V30 6035 H 573.469 -3.03492 0.112466 0
M  V30 6036 H 571.054 -1.4891 0.120942 0
M  V30 6037 H 572.936 -3.53874 -2.28804 0
M  V30 6038 H 571.611 -2.34415 -2.23229 0
M  V30 6039 H 570.518 -3.7227 -0.369603 0
M  V30 6040 H 571.851 -4.89593 -0.505872 0
M  V30 6041 N 573.503 -0.0852151 -1.57369 0
M  V30 6042 C 574.413 0.891712 -2.16992 0
M  V30 6043 C 575.429 1.3174 -1.13669 0
M  V30 6044 O 576.605 1.38735 -1.45995 0
M  V30 6045 C 573.67 2.13635 -2.73059 0
M  V30 6046 C 572.731 1.7658 -3.91303 0
M  V30 6047 C 571.964 2.95111 -4.44686 0
M  V30 6048 O 572.187 4.09539 -3.97032 0
M  V30 6049 O 571.121 2.74149 -5.35841 0
M  V30 6050 H 574.947 0.414477 -3.00858 0
M  V30 6051 H 572.532 0.138598 -1.48756 0
M  V30 6052 H 574.414 2.86595 -3.08935 0
M  V30 6053 H 573.089 2.6043 -1.92244 0
M  V30 6054 H 571.996 1.00831 -3.60255 0
M  V30 6055 H 573.329 1.34557 -4.7345 0
M  V30 6056 N 574.981 1.5647 0.188427 0
M  V30 6057 C 576.227 1.81281 0.909124 0
M  V30 6058 C 576.56 0.66034 1.82628 0
M  V30 6059 O 575.835 -0.338737 1.91528 0
M  V30 6060 C 576.118 3.16388 1.7196 0
M  V30 6061 C 575.971 4.42137 0.826714 0
M  V30 6062 C 577.29 3.48256 2.69083 0
M  V30 6063 H 574.409 0.659457 0.329068 0
M  V30 6064 H 577.051 1.89182 0.176156 0
M  V30 6065 H 575.201 3.09784 2.34448 0
M  V30 6066 H 576.873 4.60794 0.216025 0
M  V30 6067 H 575.116 4.33594 0.133792 0
M  V30 6068 H 575.787 5.33184 1.42893 0
M  V30 6069 H 578.263 3.55203 2.16726 0
M  V30 6070 H 577.139 4.43899 3.2287 0
M  V30 6071 H 577.4 2.72088 3.48455 0
M  V30 6072 N 576.459 -0.456382 1.50847 0
M  V30 6073 C 577.406 -1.55249 1.70782 0
M  V30 6074 C 578.376 -1.56757 0.549231 0
M  V30 6075 O 579.561 -1.74061 0.7815 0
M  V30 6076 C 576.701 -2.93118 1.82143 0
M  V30 6077 C 575.814 -3.01285 3.09598 0
M  V30 6078 C 574.949 -4.30159 3.11667 0
M  V30 6079 C 573.988 -4.32124 4.33515 0
M  V30 6080 N 573.125 -5.52492 4.3324 0
M  V30 6081 H 577.965 -1.37555 2.64353 0
M  V30 6082 H 575.502 -0.668543 1.3103 0
M  V30 6083 H 577.46 -3.73088 1.86711 0
M  V30 6084 H 576.09 -3.09413 0.919978 0
M  V30 6085 H 575.142 -2.14096 3.14431 0
M  V30 6086 H 576.454 -2.98597 3.99551 0
M  V30 6087 H 575.608 -5.18489 3.15046 0
M  V30 6088 H 574.347 -4.35477 2.1957 0
M  V30 6089 H 573.352 -3.42189 4.30333 0
M  V30 6090 H 574.577 -4.28485 5.26856 0
M  V30 6091 H 572.523 -5.58567 3.44004 0
M  V30 6092 H 572.44 -5.51605 5.16979 0
M  V30 6093 H 573.708 -6.42906 4.40786 0
M  V30 6094 N 577.937 -1.40673 -0.710563 0
M  V30 6095 C 578.867 -1.44095 -1.83736 0
M  V30 6096 C 579.848 -0.301286 -1.67411 0
M  V30 6097 O 581.033 -0.510618 -1.87367 0
M  V30 6098 C 578.163 -1.30773 -3.21738 0
M  V30 6099 C 577.117 -2.42395 -3.52745 0
M  V30 6100 C 576.443 -2.14147 -4.89944 0
M  V30 6101 C 577.743 -3.84738 -3.53234 0
M  V30 6102 H 579.437 -2.38396 -1.81129 0
M  V30 6103 H 576.983 -1.14746 -0.870017 0
M  V30 6104 H 578.936 -1.31783 -4.00264 0
M  V30 6105 H 577.66 -0.329507 -3.24934 0
M  V30 6106 H 576.319 -2.40643 -2.76562 0
M  V30 6107 H 575.967 -1.14703 -4.89747 0
M  V30 6108 H 575.667 -2.88934 -5.11655 0
M  V30 6109 H 577.191 -2.16848 -5.70797 0
M  V30 6110 H 578.605 -3.88286 -4.2179 0
M  V30 6111 H 577.002 -4.59085 -3.86473 0
M  V30 6112 H 578.072 -4.13962 -2.52514 0
M  V30 6113 N 579.415 0.9433 -1.26252 0
M  V30 6114 C 580.365 2.02746 -1.04297 0
M  V30 6115 C 581.349 1.60882 0.0239435 0
M  V30 6116 O 582.541 1.75947 -0.192757 0
M  V30 6117 C 579.67 3.36585 -0.6757 0
M  V30 6118 C 578.756 3.84939 -1.77996 0
M  V30 6119 N 579.147 4.05966 -3.01704 0
M  V30 6120 C 577.445 4.13833 -1.66308 0
M  V30 6121 C 578.146 4.45987 -3.73458 0
M  V30 6122 N 577.122 4.52569 -3.01135 0
M  V30 6123 H 580.924 2.17012 -1.98199 0
M  V30 6124 H 578.438 1.12898 -1.16738 0
M  V30 6125 H 580.435 4.13896 -0.499571 0
M  V30 6126 H 579.095 3.2369 0.255863 0
M  V30 6127 H 580.106 3.92716 -3.37631 0
M  V30 6128 H 576.783 4.09739 -0.801267 0
M  V30 6129 H 578.173 4.70465 -4.79701 0
M  V30 6130 N 580.893 1.08022 1.14757 0
M  V30 6131 C 582.14 0.807509 1.85703 0
M  V30 6132 C 582.468 -0.666617 1.8272 0
M  V30 6133 O 581.723 -1.50562 1.25018 0
M  V30 6134 C 582.022 1.26964 3.34088 0
M  V30 6135 C 581.688 2.7509 3.57262 0
M  V30 6136 C 580.35 3.15547 3.63296 0
M  V30 6137 C 582.702 3.70667 3.66409 0
M  V30 6138 C 580.03 4.50384 3.75994 0
M  V30 6139 C 582.382 5.05274 3.80632 0
M  V30 6140 C 581.046 5.45342 3.84913 0
M  V30 6141 H 580.316 0.295488 0.679535 0
M  V30 6142 H 582.963 1.35245 1.35577 0
M  V30 6143 H 581.268 0.644216 3.86467 0
M  V30 6144 H 582.965 1.03544 3.87401 0
M  V30 6145 H 579.555 2.42775 3.53212 0
M  V30 6146 H 583.739 3.40533 3.61041 0
M  V30 6147 H 578.995 4.80886 3.77569 0
M  V30 6148 H 583.169 5.79201 3.86652 0
M  V30 6149 H 580.796 6.49823 3.94505 0
M  V30 6150 N 582.371 -1.3172 0.865308 0
M  V30 6151 C 583.281 -2.32394 0.320935 0
M  V30 6152 C 584.297 -1.64511 -0.566746 0
M  V30 6153 O 585.473 -1.95969 -0.464575 0
M  V30 6154 C 582.538 -3.43462 -0.472701 0
M  V30 6155 C 581.599 -4.27015 0.442385 0
M  V30 6156 C 580.832 -5.32779 -0.313469 0
M  V30 6157 O 581.055 -5.49158 -1.54214 0
M  V30 6158 O 579.989 -6.01015 0.326257 0
M  V30 6159 H 583.815 -2.80868 1.15528 0
M  V30 6160 H 581.4 -1.35535 0.628545 0
M  V30 6161 H 583.282 -4.11172 -0.922781 0
M  V30 6162 H 581.957 -2.97159 -1.28367 0
M  V30 6163 H 580.864 -3.62075 0.940866 0
M  V30 6164 H 582.197 -4.76871 1.21882 0
M  V30 6165 N 583.85 -0.624285 -1.44708 0
M  V30 6166 C 584.797 0.0847135 -2.30644 0
M  V30 6167 C 585.767 0.843575 -1.43084 0
M  V30 6168 O 586.952 0.825982 -1.71995 0
M  V30 6169 C 584.091 1.06495 -3.28257 0
M  V30 6170 C 583.205 0.305224 -4.3092 0
M  V30 6171 C 582.34 1.27667 -5.1563 0
M  V30 6172 C 581.379 0.505706 -6.10007 0
M  V30 6173 N 580.516 1.42727 -6.8744 0
M  V30 6174 H 585.356 -0.654068 -2.90733 0
M  V30 6175 H 582.893 -0.334334 -1.4325 0
M  V30 6176 H 584.851 1.64658 -3.83332 0
M  V30 6177 H 583.481 1.77094 -2.69884 0
M  V30 6178 H 582.533 -0.392207 -3.78373 0
M  V30 6179 H 583.845 -0.295553 -4.97924 0
M  V30 6180 H 582.999 1.92984 -5.75189 0
M  V30 6181 H 581.738 1.91137 -4.48685 0
M  V30 6182 H 580.743 -0.160999 -5.49564 0
M  V30 6183 H 581.968 -0.124183 -6.78986 0
M  V30 6184 H 579.913 2.04931 -6.23169 0
M  V30 6185 H 579.831 0.880345 -7.50857 0
M  V30 6186 H 581.099 2.0695 -7.51526 0
M  V30 6187 N 585.328 1.53329 -0.364422 0
M  V30 6188 C 586.577 2.00421 0.226747 0
M  V30 6189 C 586.89 1.25581 1.49963 0
M  V30 6190 O 588.096 1.63256 2.16933 0
M  V30 6191 C 586.552 3.57017 0.454618 0
M  V30 6192 C 586.16 4.40734 -0.803568 0
M  V30 6193 C 587.904 4.12468 1.00351 0
M  V30 6194 C 585.811 5.8888 -0.545345 0
M  V30 6195 H 584.741 0.748787 0.0885082 0
M  V30 6196 H 587.392 1.7703 -0.482983 0
M  V30 6197 H 585.774 3.76558 1.22558 0
M  V30 6198 H 586.948 4.32967 -1.57723 0
M  V30 6199 H 585.263 3.96381 -1.27559 0
M  V30 6200 H 587.86 5.20783 1.212 0
M  V30 6201 H 588.203 3.6699 1.9653 0
M  V30 6202 H 588.736 3.96721 0.29274 0
M  V30 6203 H 585.475 6.38633 -1.47743 0
M  V30 6204 H 584.995 5.99499 0.189842 0
M  V30 6205 H 586.674 6.46776 -0.170425 0
M  V30 6206 N 586.806 0.0935595 1.57322 0
M  V30 6207 C 587.753 -0.865935 2.1394 0
M  V30 6208 C 588.723 -1.28083 1.05754 0
M  V30 6209 O 589.908 -1.36285 1.33533 0
M  V30 6210 C 587.048 -2.12023 2.72287 0
M  V30 6211 C 586.161 -1.756 3.94701 0
M  V30 6212 C 585.296 -2.95804 4.41218 0
M  V30 6213 C 584.335 -2.555 5.56225 0
M  V30 6214 N 583.472 -3.68534 5.97601 0
M  V30 6215 H 588.312 -0.376261 2.95615 0
M  V30 6216 H 585.849 -0.174052 1.46067 0
M  V30 6217 H 587.807 -2.85477 3.04235 0
M  V30 6218 H 586.437 -2.58492 1.93343 0
M  V30 6219 H 585.489 -0.921208 3.69077 0
M  V30 6220 H 586.801 -1.41964 4.78171 0
M  V30 6221 H 585.955 -3.77513 4.74941 0
M  V30 6222 H 584.694 -3.32649 3.56645 0
M  V30 6223 H 583.699 -1.72218 5.22131 0
M  V30 6224 H 584.924 -2.19801 6.42545 0
M  V30 6225 H 582.87 -4.051 5.15974 0
M  V30 6226 H 582.787 -3.38737 6.75865 0
M  V30 6227 H 584.055 -4.50757 6.35955 0
M  V30 6228 N 588.284 -1.56567 -0.180126 0
M  V30 6229 C 589.509 -1.85975 -0.918041 0
M  V30 6230 C 589.934 -0.678888 -1.75422 0
M  V30 6231 O 589.292 0.372168 -1.77439 0
M  V30 6232 C 589.34 -3.13731 -1.77779 0
M  V30 6233 O 588.444 -2.95335 -2.87838 0
M  V30 6234 H 587.785 -0.61196 -0.257683 0
M  V30 6235 H 590.315 -2.03798 -0.180923 0
M  V30 6236 H 590.325 -3.4491 -2.17948 0
M  V30 6237 H 589 -3.99293 -1.16352 0
M  V30 6238 H 587.577 -2.7549 -2.51316 0
M  V30 6239 N 589.762 0.448376 -1.51087 0
M  V30 6240 C 590.672 1.56882 -1.74428 0
M  V30 6241 C 591.688 1.62268 -0.62809 0
M  V30 6242 O 592.864 1.79716 -0.909075 0
M  V30 6243 C 589.929 2.92947 -1.85426 0
M  V30 6244 C 588.99 2.97766 -3.09247 0
M  V30 6245 C 588.223 4.27341 -3.19711 0
M  V30 6246 O 588.446 5.19112 -2.36387 0
M  V30 6247 O 587.38 4.38219 -4.12611 0
M  V30 6248 H 591.206 1.40104 -2.69452 0
M  V30 6249 H 588.791 0.630247 -1.35456 0
M  V30 6250 H 590.673 3.73719 -1.94709 0
M  V30 6251 H 589.348 3.09876 -0.935887 0
M  V30 6252 H 588.255 2.15989 -3.0545 0
M  V30 6253 H 589.588 2.8578 -4.00738 0
M  V30 6254 N 591.24 1.41047 0.703093 0
M  V30 6255 C 592.488 1.39723 1.4602 0
M  V30 6256 C 592.809 0.00461257 1.94999 0
M  V30 6257 O 592.079 -0.952292 1.71196 0
M  V30 6258 H 590.659 0.514281 0.541779 0
M  V30 6259 H 593.321 1.76217 0.832678 0
M  V30 6260 H 592.417 2.07982 2.32701 0
M  V30 6261 N 592.718 -0.936591 1.26751 0
M  V30 6262 C 593.946 -1.71758 1.15355 0
M  V30 6263 C 594.361 -1.86549 -0.290683 0
M  V30 6264 O 593.718 -1.37616 -1.19868 0
M  V30 6265 C 593.769 -3.12193 1.82258 0
M  V30 6266 O 593.49 -2.98105 3.21038 0
M  V30 6267 C 594.991 -4.06485 1.76875 0
M  V30 6268 H 592.211 -0.537636 0.401483 0
M  V30 6269 H 594.755 -1.17382 1.67457 0
M  V30 6270 H 592.91 -3.63456 1.34083 0
M  V30 6271 H 593.324 -3.86824 3.54214 0
M  V30 6272 H 594.798 -5.02569 2.28316 0
M  V30 6273 H 595.275 -4.32986 0.736216 0
M  V30 6274 H 595.881 -3.61144 2.24623 0
M  V30 6275 N 594.196 -1.08629 -1.14182 0
M  V30 6276 C 595.436 -0.826884 -1.86928 0
M  V30 6277 C 595.8 0.635808 -1.81167 0
M  V30 6278 O 597.001 1.0108 -2.49071 0
M  V30 6279 C 595.272 -1.33721 -3.31442 0
M  V30 6280 S 596.831 -1.21045 -4.21774 0
M  V30 6281 H 593.649 -0.299286 -0.644941 0
M  V30 6282 H 596.251 -1.38802 -1.37674 0
M  V30 6283 H 594.955 -2.39617 -3.33184 0
M  V30 6284 H 594.486 -0.771839 -3.85754 0
M  V30 6285 H 596.501 -0.156168 -4.95954 0
M  V30 6286 N 595.674 1.31259 -0.872281 0
M  V30 6287 C 596.604 2.30929 -0.345554 0
M  V30 6288 C 597.585 1.60449 0.5648 0
M  V30 6289 O 598.77 1.8814 0.481335 0
M  V30 6290 C 595.9 3.44348 0.451823 0
M  V30 6291 C 594.854 4.26435 -0.365641 0
M  V30 6292 C 594.18 5.31785 0.557562 0
M  V30 6293 C 595.48 4.97159 -1.60095 0
M  V30 6294 H 597.174 2.75234 -1.17841 0
M  V30 6295 H 594.72 1.3232 -0.568094 0
M  V30 6296 H 596.673 4.13128 0.830854 0
M  V30 6297 H 595.397 2.98816 1.31821 0
M  V30 6298 H 594.056 3.59326 -0.726649 0
M  V30 6299 H 593.704 4.82502 1.4213 0
M  V30 6300 H 593.404 5.87598 0.0144878 0
M  V30 6301 H 594.928 6.03424 0.933387 0
M  V30 6302 H 596.342 5.58523 -1.29323 0
M  V30 6303 H 594.739 5.62779 -2.08327 0
M  V30 6304 H 595.809 4.24012 -2.35249 0
M  V30 6305 N 597.152 0.631951 1.44375 0
M  V30 6306 C 598.102 -0.0943862 2.27805 0
M  V30 6307 C 599.086 -0.815359 1.38711 0
M  V30 6308 O 600.278 -0.701331 1.62513 0
M  V30 6309 C 597.407 -1.07472 3.26044 0
M  V30 6310 C 596.493 -0.353329 4.22626 0
M  V30 6311 N 596.884 0.618512 5.02004 0
M  V30 6312 C 595.182 -0.597662 4.41977 0
M  V30 6313 C 595.883 1.0448 5.7224 0
M  V30 6314 N 594.859 0.383413 5.42246 0
M  V30 6315 H 598.661 0.651672 2.86584 0
M  V30 6316 H 596.175 0.45752 1.55822 0
M  V30 6317 H 598.172 -1.60969 3.84571 0
M  V30 6318 H 596.832 -1.82107 2.68825 0
M  V30 6319 H 597.843 0.996356 5.08226 0
M  V30 6320 H 594.52 -1.32682 3.95856 0
M  V30 6321 H 595.91 1.84773 6.45994 0
M  V30 6322 N 598.631 -1.53133 0.372548 0
M  V30 6323 C 600.047 -1.59585 0.02178 0
M  V30 6324 C 600.247 -1.38736 -1.46132 0
M  V30 6325 O 599.303 -1.19599 -2.22379 0
M  V30 6326 C 600.616 -2.9678 0.483959 0
M  V30 6327 C 602.164 -3.09909 0.438775 0
M  V30 6328 C 602.639 -4.49527 0.876876 0
M  V30 6329 N 604.13 -4.55663 0.832214 0
M  V30 6330 C 604.865 -5.61896 1.14281 0
M  V30 6331 N 604.361 -6.75852 1.52303 0
M  V30 6332 N 606.154 -5.51916 1.06515 0
M  V30 6333 H 598.305 -1.64936 1.33827 0
M  V30 6334 H 600.568 -0.773947 0.547458 0
M  V30 6335 H 600.274 -3.17198 1.51915 0
M  V30 6336 H 600.148 -3.7699 -0.125784 0
M  V30 6337 H 602.535 -2.89197 -0.587294 0
M  V30 6338 H 602.616 -2.31691 1.0841 0
M  V30 6339 H 602.26 -4.70979 1.90109 0
M  V30 6340 H 602.19 -5.26186 0.208727 0
M  V30 6341 H 604.681 -3.73844 0.552195 0
M  V30 6342 H 604.994 -7.52862 1.7441 0
M  V30 6343 H 603.339 -6.77226 1.56175 0
M  V30 6344 H 606.53 -4.6177 0.767235 0
M  V30 6345 H 606.703 -6.34609 1.31053 0
M  V30 6346 N 600.109 -0.101901 -1.5727 0
M  V30 6347 C 601.039 0.851544 -2.17419 0
M  V30 6348 C 602.02 1.28942 -1.10941 0
M  V30 6349 O 603.205 1.35509 -1.39107 0
M  V30 6350 C 600.335 2.10816 -2.75996 0
M  V30 6351 C 599.289 1.80867 -3.87906 0
M  V30 6352 C 598.615 3.13413 -4.33216 0
M  V30 6353 C 599.915 1.0903 -5.10793 0
M  V30 6354 H 601.609 0.350381 -2.97343 0
M  V30 6355 H 599.155 0.16709 -1.43027 0
M  V30 6356 H 601.108 2.77959 -3.16729 0
M  V30 6357 H 599.832 2.63227 -1.93337 0
M  V30 6358 H 598.491 1.16119 -3.47724 0
M  V30 6359 H 598.139 3.63725 -3.47438 0
M  V30 6360 H 597.839 2.94155 -5.08671 0
M  V30 6361 H 599.363 3.81704 -4.76586 0
M  V30 6362 H 600.777 1.66295 -5.48652 0
M  V30 6363 H 599.174 0.99927 -5.91722 0
M  V30 6364 H 600.244 0.0741704 -4.84843 0
M  V30 6365 N 601.587 1.56661 0.17182 0
M  V30 6366 C 602.497 1.99604 1.2327 0
M  V30 6367 C 603.513 0.907333 1.4847 0
M  V30 6368 O 604.689 1.21492 1.60629 0
M  V30 6369 C 601.754 2.34685 2.55194 0
M  V30 6370 C 600.815 3.57381 2.3786 0
M  V30 6371 C 600.048 3.90779 3.63494 0
M  V30 6372 O 600.271 3.25152 4.6865 0
M  V30 6373 O 599.205 4.84129 3.57634 0
M  V30 6374 H 603.031 2.90114 0.898192 0
M  V30 6375 H 600.616 1.44522 0.378647 0
M  V30 6376 H 602.498 2.5822 3.33017 0
M  V30 6377 H 601.173 1.47336 2.88225 0
M  V30 6378 H 600.08 3.39064 1.5807 0
M  V30 6379 H 601.413 4.45268 2.09754 0
M  V30 6380 N 603.065 -0.440357 1.51323 0
M  V30 6381 C 603.975 -1.55955 1.75258 0
M  V30 6382 C 604.991 -1.61933 0.636687 0
M  V30 6383 O 606.167 -1.79231 0.918593 0
M  V30 6384 C 603.232 -2.9196 1.86977 0
M  V30 6385 C 602.293 -2.96122 3.10822 0
M  V30 6386 C 601.526 -4.2564 3.21973 0
M  V30 6387 O 601.749 -5.17851 2.39137 0
M  V30 6388 O 600.683 -4.36025 4.14929 0
M  V30 6389 H 604.509 -1.38673 2.70191 0
M  V30 6390 H 602.094 -0.623055 1.35788 0
M  V30 6391 H 603.976 -3.72682 1.96688 0
M  V30 6392 H 602.651 -3.09375 0.952307 0
M  V30 6393 H 601.558 -2.14366 3.06591 0
M  V30 6394 H 602.891 -2.83651 4.02247 0
M  V30 6395 N 604.543 -1.41418 -0.695603 0
M  V30 6396 C 605.453 -1.45622 -1.83933 0
M  V30 6397 C 606.469 -0.346825 -1.70508 0
M  V30 6398 O 607.645 -0.59454 -1.92424 0
M  V30 6399 C 604.71 -1.33627 -3.19914 0
M  V30 6400 C 603.771 -2.54882 -3.45447 0
M  V30 6401 C 603.004 -2.43449 -4.7494 0
M  V30 6402 O 603.227 -1.45905 -5.51424 0
M  V30 6403 O 602.161 -3.33206 -5.01256 0
M  V30 6404 H 605.987 -2.42114 -1.83342 0
M  V30 6405 H 603.572 -1.22956 -0.848658 0
M  V30 6406 H 605.454 -1.29221 -4.01098 0
M  V30 6407 H 604.129 -0.402508 -3.21188 0
M  V30 6408 H 603.036 -2.64865 -2.64192 0
M  V30 6409 H 604.369 -3.47087 -3.48987 0
M  V30 6410 N 606.021 0.929856 -1.27246 0
M  V30 6411 C 606.951 2.04722 -1.12299 0
M  V30 6412 C 607.932 1.70082 -0.0250464 0
M  V30 6413 O 609.117 1.93176 -0.199141 0
M  V30 6414 C 606.247 3.38721 -0.767145 0
M  V30 6415 C 605.201 3.87466 -1.81808 0
M  V30 6416 C 604.527 5.18246 -1.31626 0
M  V30 6417 C 605.827 4.11095 -3.22177 0
M  V30 6418 H 607.521 2.17485 -2.05769 0
M  V30 6419 H 605.067 1.04503 -0.990715 0
M  V30 6420 H 607.02 4.16366 -0.649413 0
M  V30 6421 H 605.744 3.25967 0.203259 0
M  V30 6422 H 604.403 3.12012 -1.92468 0
M  V30 6423 H 604.051 5.01881 -0.335378 0
M  V30 6424 H 603.751 5.51829 -2.01887 0
M  V30 6425 H 605.275 5.98462 -1.21143 0
M  V30 6426 H 606.689 4.79316 -3.1453 0
M  V30 6427 H 605.086 4.55982 -3.90129 0
M  V30 6428 H 606.156 3.16468 -3.67391 0
M  V30 6429 N 607.499 1.09233 1.13605 0
M  V30 6430 C 608.745 0.828385 1.8511 0
M  V30 6431 C 609.078 -0.64437 1.83198 0
M  V30 6432 O 608.353 -1.47428 1.26867 0
M  V30 6433 C 608.636 1.36167 3.33363 0
M  V30 6434 C 608.489 2.90038 3.438 0
M  V30 6435 C 609.808 0.993819 4.28732 0
M  V30 6436 H 606.927 0.30239 0.672108 0
M  V30 6437 H 609.569 1.35339 1.33355 0
M  V30 6438 H 607.719 0.9151 3.77569 0
M  V30 6439 H 609.391 3.43128 3.08319 0
M  V30 6440 H 607.634 3.27271 2.84739 0
M  V30 6441 H 608.305 3.22428 4.48045 0
M  V30 6442 H 610.781 1.37893 3.92587 0
M  V30 6443 H 609.657 1.39403 5.30903 0
M  V30 6444 H 609.918 -0.0982206 4.41991 0
M  V30 6445 N 608.977 -1.30795 0.87923 0
M  V30 6446 C 609.91 -2.26396 0.286404 0
M  V30 6447 C 610.888 -1.51528 -0.589748 0
M  V30 6448 O 612.072 -1.80566 -0.541119 0
M  V30 6449 C 609.199 -3.33458 -0.593581 0
M  V30 6450 C 608.245 -4.2597 0.21247 0
M  V30 6451 S 609.078 -5.11132 1.59702 0
M  V30 6452 C 610.234 -6.21705 0.723408 0
M  V30 6453 H 610.467 -2.7633 1.09677 0
M  V30 6454 H 608 -1.38703 0.678305 0
M  V30 6455 H 609.958 -3.9561 -1.09557 0
M  V30 6456 H 608.619 -2.82259 -1.37799 0
M  V30 6457 H 607.812 -5.01907 -0.458822 0
M  V30 6458 H 607.414 -3.68363 0.646883 0
M  V30 6459 H 609.706 -6.77472 -0.0620739 0
M  V30 6460 H 610.649 -6.93007 1.4542 0
M  V30 6461 H 611.057 -5.63771 0.286855 0
M  V30 6462 N 610.455 -0.639598 -1.44038 0
M  V30 6463 C 611.871 -0.305953 -1.5664 0
M  V30 6464 C 612.071 1.19055 -1.62567 0
M  V30 6465 O 611.127 1.97492 -1.57331 0
M  V30 6466 C 612.44 -1.00533 -2.83397 0
M  V30 6467 C 613.988 -0.984278 -2.97121 0
M  V30 6468 C 614.463 -1.66428 -4.26691 0
M  V30 6469 N 615.954 -1.63127 -4.33525 0
M  V30 6470 C 616.689 -2.12629 -5.32519 0
M  V30 6471 N 616.185 -2.70359 -6.3787 0
M  V30 6472 N 617.978 -2.03208 -5.24083 0
M  V30 6473 H 610.129 -1.6109 -1.38434 0
M  V30 6474 H 612.392 -0.676672 -0.663942 0
M  V30 6475 H 612.098 -2.06034 -2.85032 0
M  V30 6476 H 611.972 -0.548362 -3.73193 0
M  V30 6477 H 614.359 0.0622792 -2.95034 0
M  V30 6478 H 614.44 -1.47981 -2.08651 0
M  V30 6479 H 614.084 -2.71034 -4.29538 0
M  V30 6480 H 614.014 -1.14351 -5.14034 0
M  V30 6481 H 616.505 -1.20987 -3.58009 0
M  V30 6482 H 616.818 -3.05842 -7.09704 0
M  V30 6483 H 615.163 -2.74414 -6.38531 0
M  V30 6484 H 618.354 -1.57823 -4.40692 0
M  V30 6485 H 618.527 -2.42097 -6.01077 0
M  V30 6486 N 611.933 1.52934 -0.380664 0
M  V30 6487 C 613.349 1.59571 -0.0302429 0
M  V30 6488 C 613.549 1.39509 1.45394 0
M  V30 6489 O 612.605 1.20777 2.21741 0
M  V30 6490 C 613.918 2.96519 -0.499691 0
M  V30 6491 C 615.466 3.09672 -0.455204 0
M  V30 6492 C 615.941 4.49056 -0.900703 0
M  V30 6493 N 617.432 4.55215 -0.856367 0
M  V30 6494 C 618.167 5.61282 -1.17259 0
M  V30 6495 N 617.663 6.75035 -1.55885 0
M  V30 6496 N 619.456 5.51343 -1.0944 0
M  V30 6497 H 611.607 1.64224 -1.347 0
M  V30 6498 H 613.87 0.771033 -0.551554 0
M  V30 6499 H 613.576 3.16388 -1.53595 0
M  V30 6500 H 613.45 3.77052 0.105789 0
M  V30 6501 H 615.837 2.89504 0.571949 0
M  V30 6502 H 615.918 2.31113 -1.09638 0
M  V30 6503 H 615.562 4.69964 -1.92604 0
M  V30 6504 H 615.492 5.26068 -0.236629 0
M  V30 6505 H 617.983 3.73546 -0.572013 0
M  V30 6506 H 618.296 7.51926 -1.784 0
M  V30 6507 H 616.641 6.76388 -1.59764 0
M  V30 6508 H 619.832 4.61356 -0.791713 0
M  V30 6509 H 620.005 6.33905 -1.34417 0
M  V30 6510 N 613.412 0.11024 1.57214 0
M  V30 6511 C 614.828 -0.24638 1.57687 0
M  V30 6512 C 615.028 -1.67344 1.12241 0
M  V30 6513 O 614.084 -2.39298 0.805783 0
M  V30 6514 C 615.397 -0.0210288 3.00693 0
M  V30 6515 C 616.945 -0.0876077 3.12877 0
M  V30 6516 C 617.42 0.10994 4.57868 0
M  V30 6517 N 618.911 0.0556135 4.63167 0
M  V30 6518 C 619.646 0.183495 5.73106 0
M  V30 6519 N 619.142 0.367058 6.91827 0
M  V30 6520 N 620.935 0.123689 5.61964 0
M  V30 6521 H 613.086 1.04246 1.85058 0
M  V30 6522 H 615.349 0.40979 0.854854 0
M  V30 6523 H 615.055 0.965203 3.38196 0
M  V30 6524 H 614.929 -0.756748 3.69531 0
M  V30 6525 H 617.316 -1.06436 2.75237 0
M  V30 6526 H 617.397 0.67985 2.466 0
M  V30 6527 H 617.041 1.08362 4.96206 0
M  V30 6528 H 616.971 -0.677397 5.22225 0
M  V30 6529 H 619.462 -0.0831062 3.77809 0
M  V30 6530 H 619.775 0.455739 7.71455 0
M  V30 6531 H 618.12 0.40292 6.93831 0
M  V30 6532 H 621.311 -0.0186928 4.68096 0
M  V30 6533 H 621.484 0.226797 6.47603 0
M  V30 6534 N 614.89 -1.56749 -0.16351 0
M  V30 6535 C 615.8 -2.00255 -1.2221 0
M  V30 6536 C 616.816 -0.915194 -1.47987 0
M  V30 6537 O 617.992 -1.22342 -1.59982 0
M  V30 6538 C 615.057 -2.36035 -2.53946 0
M  V30 6539 C 614.118 -3.58637 -2.35962 0
M  V30 6540 C 613.351 -3.92701 -3.61416 0
M  V30 6541 O 613.574 -3.27632 -4.66919 0
M  V30 6542 O 612.508 -4.86019 -3.55062 0
M  V30 6543 H 616.334 -2.90586 -0.882794 0
M  V30 6544 H 613.919 -1.44721 -0.370978 0
M  V30 6545 H 615.801 -2.59982 -3.31643 0
M  V30 6546 H 614.476 -1.48863 -2.8744 0
M  V30 6547 H 613.383 -3.39898 -1.5627 0
M  V30 6548 H 614.716 -4.46374 -2.0739 0
M  V30 6549 N 616.368 0.432326 -1.51554 0
M  V30 6550 C 617.278 1.55023 -1.76082 0
M  V30 6551 C 618.294 1.61593 -0.645265 0
M  V30 6552 O 619.47 1.78742 -0.928086 0
M  V30 6553 C 616.535 2.90964 -1.88523 0
M  V30 6554 C 615.596 2.9447 -3.12388 0
M  V30 6555 C 614.829 4.23926 -3.24225 0
M  V30 6556 O 615.052 5.16576 -2.4188 0
M  V30 6557 O 613.986 4.33818 -4.17235 0
M  V30 6558 H 617.812 1.37238 -2.70923 0
M  V30 6559 H 615.397 0.615845 -1.36117 0
M  V30 6560 H 617.279 3.71633 -1.98662 0
M  V30 6561 H 615.954 3.08865 -0.9687 0
M  V30 6562 H 614.861 2.12737 -3.07723 0
M  V30 6563 H 616.194 2.81514 -4.03746 0
M  V30 6564 N 617.846 1.41785 0.688094 0
M  V30 6565 C 618.776 1.47 1.8142 0
M  V30 6566 C 619.757 0.327881 1.6691 0
M  V30 6567 O 620.942 0.540362 1.86531 0
M  V30 6568 C 618.072 1.35876 3.19617 0
M  V30 6569 C 617.026 2.47976 3.48844 0
M  V30 6570 C 616.352 2.21915 4.86475 0
M  V30 6571 C 617.652 3.90309 3.47068 0
M  V30 6572 H 619.346 2.41247 1.77314 0
M  V30 6573 H 616.892 1.16116 0.851651 0
M  V30 6574 H 618.845 1.38134 3.98117 0
M  V30 6575 H 617.569 0.38116 3.24368 0
M  V30 6576 H 616.228 2.45013 2.72698 0
M  V30 6577 H 615.876 1.2248 4.8786 0
M  V30 6578 H 615.576 2.97037 5.06994 0
M  V30 6579 H 617.1 2.25901 5.67275 0
M  V30 6580 H 618.514 3.94947 4.1556 0
M  V30 6581 H 616.911 4.65175 3.7912 0
M  V30 6582 H 617.981 4.17927 2.45896 0
M  V30 6583 N 619.324 -0.923095 1.27737 0
M  V30 6584 C 620.74 -1.19985 1.05241 0
M  V30 6585 C 620.94 -2.00391 -0.21113 0
M  V30 6586 O 619.996 -2.35324 -0.915366 0
M  V30 6587 C 621.309 -1.94352 2.29451 0
M  V30 6588 C 622.857 -2.07273 2.34536 0
M  V30 6589 C 623.332 -2.85046 3.58487 0
M  V30 6590 N 624.823 -2.92612 3.59072 0
M  V30 6591 C 625.558 -3.53266 4.51654 0
M  V30 6592 N 625.054 -4.15274 5.54545 0
M  V30 6593 N 626.847 -3.50714 4.39268 0
M  V30 6594 H 618.998 -0.386042 2.08862 0
M  V30 6595 H 621.261 -0.233407 0.918817 0
M  V30 6596 H 620.967 -1.42692 3.21453 0
M  V30 6597 H 620.841 -2.94947 2.3513 0
M  V30 6598 H 623.228 -2.58117 1.43037 0
M  V30 6599 H 623.309 -1.05884 2.32857 0
M  V30 6600 H 622.953 -2.34884 4.50324 0
M  V30 6601 H 622.883 -3.8673 3.57418 0
M  V30 6602 H 625.374 -2.48547 2.84663 0
M  V30 6603 H 625.687 -4.59507 6.21348 0
M  V30 6604 H 624.032 -4.13806 5.58382 0
M  V30 6605 H 627.223 -3.01475 3.58093 0
M  V30 6606 H 627.396 -3.97693 5.1161 0
M  V30 6607 N 620.802 -1.09834 -1.13024 0
M  V30 6608 C 621.752 -0.710899 -2.16634 0
M  V30 6609 C 622.736 0.276836 -1.58501 0
M  V30 6610 O 623.928 0.0865457 -1.76788 0
M  V30 6611 C 621.057 -0.137574 -3.43024 0
M  V30 6612 C 620.143 -1.15198 -4.08155 0
M  V30 6613 N 620.534 -2.34054 -4.48388 0
M  V30 6614 C 618.832 -0.991074 -4.34849 0
M  V30 6615 C 619.533 -2.98616 -4.99203 0
M  V30 6616 N 618.509 -2.26159 -4.94321 0
M  V30 6617 H 622.311 -1.61576 -2.455 0
M  V30 6618 H 619.825 -0.975158 -1.29863 0
M  V30 6619 H 621.822 0.158031 -4.166 0
M  V30 6620 H 620.482 0.762088 -3.1563 0
M  V30 6621 H 621.493 -2.7162 -4.40957 0
M  V30 6622 H 618.17 -0.146448 -4.17243 0
M  V30 6623 H 619.56 -3.99683 -5.40096 0
M  V30 6624 N 622.28 1.30327 -0.886154 0
M  V30 6625 C 623.243 2.26376 -0.358687 0
M  V30 6626 C 624.243 1.52845 0.499498 0
M  V30 6627 O 625.433 1.71483 0.306485 0
M  V30 6628 C 622.565 3.37379 0.488726 0
M  V30 6629 H 623.758 2.74547 -1.20681 0
M  V30 6630 H 621.311 1.41536 -0.663113 0
M  V30 6631 H 622.046 2.94526 1.35739 0
M  V30 6632 H 621.831 3.91897 -0.126003 0
M  V30 6633 H 623.321 4.08868 0.84952 0
M  V30 6634 N 623.758 0.647228 1.43697 0
M  V30 6635 C 624.688 -0.0345631 2.33474 0
M  V30 6636 C 625.669 -0.818193 1.4913 0
M  V30 6637 O 626.854 -0.780867 1.77809 0
M  V30 6638 C 623.984 -1.00576 3.32418 0
M  V30 6639 C 622.938 -0.33266 4.26705 0
M  V30 6640 C 622.264 -1.41489 5.1564 0
M  V30 6641 C 623.564 0.771204 5.16575 0
M  V30 6642 H 625.258 0.715163 2.90733 0
M  V30 6643 H 622.804 0.345364 1.39797 0
M  V30 6644 H 624.757 -1.49159 3.94119 0
M  V30 6645 H 623.481 -1.78657 2.73403 0
M  V30 6646 H 622.14 0.13267 3.6636 0
M  V30 6647 H 621.788 -2.18698 4.52968 0
M  V30 6648 H 621.488 -0.969799 5.79542 0
M  V30 6649 H 623.012 -1.9022 5.80214 0
M  V30 6650 H 624.426 0.36779 5.72119 0
M  V30 6651 H 622.823 1.1404 5.89165 0
M  V30 6652 H 623.893 1.63169 4.56622 0
M  V30 6653 N 625.236 -1.5273 0.388769 0
M  V30 6654 C 626.513 -1.93981 -0.251133 0
M  V30 6655 C 626.893 -1.32418 -1.64404 0
M  V30 6656 O 626.241 -0.492074 -2.23139 0
M  V30 6657 C 626.451 -3.47891 -0.27802 0
M  V30 6658 C 627.799 -4.21559 -0.507229 0
M  V30 6659 O 628.823 -3.54394 -0.358252 0
M  V30 6660 O 627.682 -5.40626 -0.799094 0
M  V30 6661 H 624.776 -0.812157 -0.15598 0
M  V30 6662 H 627.322 -1.63809 0.443237 0
M  V30 6663 H 626.094 -3.8503 0.697669 0
M  V30 6664 H 625.717 -3.84364 -1.01733 0
M  V30 6665 N 626.714 -0.118576 -1.57153 0
M  V30 6666 C 627.963 0.539339 -1.94355 0
M  V30 6667 C 628.276 1.67858 -1.00415 0
M  V30 6668 O 629.482 2.39922 -1.27081 0
M  V30 6669 C 627.938 1.01082 -3.45414 0
M  V30 6670 C 627.546 -0.0999402 -4.47889 0
M  V30 6671 C 629.29 1.64013 -3.91535 0
M  V30 6672 C 627.197 0.388212 -5.90124 0
M  V30 6673 H 626.127 0.205247 -0.725527 0
M  V30 6674 H 628.778 -0.19836 -1.82425 0
M  V30 6675 H 627.16 1.80292 -3.52577 0
M  V30 6676 H 628.334 -0.876189 -4.52393 0
M  V30 6677 H 626.649 -0.635885 -4.11516 0
M  V30 6678 H 629.246 2.01649 -4.95219 0
M  V30 6679 H 629.589 2.51836 -3.31488 0
M  V30 6680 H 630.122 0.913439 -3.87171 0
M  V30 6681 H 626.861 -0.453963 -6.53926 0
M  V30 6682 H 626.381 1.13095 -5.89041 0
M  V30 6683 H 628.06 0.849574 -6.41398 0
M  V30 6684 N 628.193 1.56834 0.155195 0
M  V30 6685 C 629.609 1.51315 0.50755 0
M  V30 6686 C 629.809 0.825614 1.83809 0
M  V30 6687 O 628.865 0.39271 2.49427 0
M  V30 6688 C 630.178 2.96074 0.52542 0
M  V30 6689 C 631.726 3.06968 0.611505 0
M  V30 6690 C 632.201 4.53218 0.660115 0
M  V30 6691 N 633.692 4.5753 0.722564 0
M  V30 6692 C 634.427 5.68056 0.781023 0
M  V30 6693 N 633.923 6.88173 0.799327 0
M  V30 6694 N 635.716 5.56068 0.821278 0
M  V30 6695 H 627.867 1.9993 -0.717063 0
M  V30 6696 H 630.13 0.911507 -0.260496 0
M  V30 6697 H 629.836 3.49599 -0.383875 0
M  V30 6698 H 629.71 3.51587 1.36624 0
M  V30 6699 H 632.097 2.53468 1.51122 0
M  V30 6700 H 632.178 2.54513 -0.256306 0
M  V30 6701 H 631.822 5.07354 -0.23541 0
M  V30 6702 H 631.752 5.03447 1.5443 0
M  V30 6703 H 634.243 3.71054 0.716049 0
M  V30 6704 H 634.556 7.6816 0.845553 0
M  V30 6705 H 632.901 6.90751 0.767337 0
M  V30 6706 H 636.092 4.61142 0.804091 0
M  V30 6707 H 636.265 6.42223 0.863372 0
M  V30 6708 N 629.671 -0.424282 1.51781 0
M  V30 6709 C 630.581 -1.54087 1.76902 0
M  V30 6710 C 631.597 -1.61249 0.653826 0
M  V30 6711 O 632.773 -1.78247 0.937552 0
M  V30 6712 C 629.838 -2.8996 1.90063 0
M  V30 6713 C 628.899 -2.92809 3.13945 0
M  V30 6714 C 628.132 -4.22201 3.26469 0
M  V30 6715 O 628.355 -5.15286 2.44616 0
M  V30 6716 O 627.289 -4.31599 4.1953 0
M  V30 6717 H 631.115 -1.358 2.71647 0
M  V30 6718 H 628.7 -0.608618 1.36441 0
M  V30 6719 H 630.582 -3.70575 2.0063 0
M  V30 6720 H 629.257 -3.08347 0.985067 0
M  V30 6721 H 628.164 -2.11102 3.08847 0
M  V30 6722 H 629.497 -2.79369 4.05233 0
M  V30 6723 N 631.149 -1.42148 -0.680565 0
M  V30 6724 C 632.099 -1.41634 -1.78672 0
M  V30 6725 C 633.083 -0.288494 -1.58293 0
M  V30 6726 O 634.275 -0.530295 -1.68869 0
M  V30 6727 C 631.404 -1.31558 -3.17092 0
M  V30 6728 C 630.49 -2.49265 -3.43115 0
M  V30 6729 N 630.881 -3.74702 -3.39753 0
M  V30 6730 C 629.179 -2.43401 -3.73727 0
M  V30 6731 C 629.88 -4.52854 -3.651 0
M  V30 6732 N 628.856 -3.83181 -3.85582 0
M  V30 6733 H 632.658 -2.3652 -1.74458 0
M  V30 6734 H 630.172 -1.36415 -0.881171 0
M  V30 6735 H 632.169 -1.29272 -3.96351 0
M  V30 6736 H 630.829 -0.376696 -3.22508 0
M  V30 6737 H 631.84 -4.07378 -3.19787 0
M  V30 6738 H 628.517 -1.58062 -3.86423 0
M  V30 6739 H 629.907 -5.61827 -3.6851 0
M  V30 6740 N 632.627 0.916307 -1.28225 0
M  V30 6741 C 633.857 1.69654 -1.17902 0
M  V30 6742 C 634.265 1.87331 0.265268 0
M  V30 6743 O 633.608 1.39828 1.19137 0
M  V30 6744 C 633.67 3.11024 -1.80289 0
M  V30 6745 C 633.334 3.16643 -3.29525 0
M  V30 6746 C 634.331 2.98032 -4.25997 0
M  V30 6747 C 632.016 3.39238 -3.70436 0
M  V30 6748 C 634.01 3.01924 -5.61356 0
M  V30 6749 C 631.697 3.42762 -5.05922 0
M  V30 6750 C 632.695 3.24125 -6.01192 0
M  V30 6751 O 632.383 3.27406 -7.34208 0
M  V30 6752 H 632.115 0.537197 -0.41036 0
M  V30 6753 H 634.669 1.15547 -1.69817 0
M  V30 6754 H 632.899 3.66662 -1.22865 0
M  V30 6755 H 634.588 3.71063 -1.6452 0
M  V30 6756 H 635.354 2.80405 -3.95725 0
M  V30 6757 H 631.233 3.52791 -2.96749 0
M  V30 6758 H 634.777 2.87295 -6.35694 0
M  V30 6759 H 630.674 3.59916 -5.35846 0
M  V30 6760 H 631.442 3.43784 -7.42802 0
M  V30 6761 N 634.105 1.10431 1.1244 0
M  V30 6762 C 635.015 0.765502 2.21759 0
M  V30 6763 C 636.031 -0.236966 1.72379 0
M  V30 6764 O 637.207 -0.0757329 2.01258 0
M  V30 6765 C 634.272 0.202316 3.46109 0
M  V30 6766 C 633.333 1.26205 4.1033 0
M  V30 6767 C 632.566 0.725648 5.28744 0
M  V30 6768 O 632.789 -0.447942 5.68638 0
M  V30 6769 O 631.723 1.48555 5.83279 0
M  V30 6770 H 635.549 1.67801 2.53133 0
M  V30 6771 H 633.134 0.879443 1.20773 0
M  V30 6772 H 635.016 -0.107918 4.21262 0
M  V30 6773 H 633.691 -0.683052 3.16411 0
M  V30 6774 H 632.598 1.62514 3.36957 0
M  V30 6775 H 633.931 2.12044 4.44183 0
M  V30 6776 N 635.583 -1.29855 0.893053 0
M  V30 6777 C 636.999 -1.48366 0.588199 0
M  V30 6778 C 637.199 -1.81654 -0.872018 0
M  V30 6779 O 636.255 -1.909 -1.65268 0
M  V30 6780 C 637.568 -2.60136 1.5083 0
M  V30 6781 C 639.116 -2.74014 1.51279 0
M  V30 6782 C 639.591 -3.88905 2.41902 0
M  V30 6783 N 641.082 -3.96228 2.39911 0
M  V30 6784 C 641.817 -4.84458 3.06738 0
M  V30 6785 N 641.313 -5.77426 3.8282 0
M  V30 6786 N 643.106 -4.77894 2.95929 0
M  V30 6787 H 635.257 -1.06522 1.83757 0
M  V30 6788 H 637.52 -0.528495 0.787018 0
M  V30 6789 H 637.226 -2.42383 2.54839 0
M  V30 6790 H 637.1 -3.56793 1.22388 0
M  V30 6791 H 639.487 -2.91167 0.480179 0
M  V30 6792 H 639.568 -1.77952 1.83757 0
M  V30 6793 H 639.212 -3.72508 3.45253 0
M  V30 6794 H 639.142 -4.84322 2.06737 0
M  V30 6795 H 641.633 -3.29728 1.84629 0
M  V30 6796 H 641.946 -6.41529 4.30883 0
M  V30 6797 H 640.291 -5.77332 3.86927 0
M  V30 6798 H 643.482 -4.04248 2.36012 0
M  V30 6799 H 643.655 -5.46444 3.48286 0
M  V30 6800 N 637.061 -0.65484 -1.43351 0
M  V30 6801 C 638.008 0.0357713 -2.30772 0
M  V30 6802 C 638.978 0.813035 -1.44841 0
M  V30 6803 O 640.163 0.789314 -1.73708 0
M  V30 6804 C 637.303 0.995084 -3.30442 0
M  V30 6805 C 636.416 0.21375 -4.31471 0
M  V30 6806 C 635.551 1.16701 -5.18222 0
M  V30 6807 C 634.59 0.376201 -6.10943 0
M  V30 6808 N 633.727 1.28113 -6.90313 0
M  V30 6809 H 638.567 -0.71559 -2.89281 0
M  V30 6810 H 636.104 -0.364645 -1.42509 0
M  V30 6811 H 638.062 1.5649 -3.86739 0
M  V30 6812 H 636.692 1.7133 -2.7358 0
M  V30 6813 H 635.744 -0.472377 -3.77456 0
M  V30 6814 H 637.056 -0.401103 -4.97185 0
M  V30 6815 H 636.21 1.8074 -5.79153 0
M  V30 6816 H 634.949 1.81577 -4.52638 0
M  V30 6817 H 633.954 -0.277534 -5.49099 0
M  V30 6818 H 635.179 -0.268178 -6.7857 0
M  V30 6819 H 633.125 1.91666 -6.27376 0
M  V30 6820 H 633.042 0.720879 -7.52555 0
M  V30 6821 H 634.31 1.90962 -7.55747 0
M  V30 6822 N 638.539 1.52521 -0.396863 0
M  V30 6823 C 639.469 2.29582 0.425941 0
M  V30 6824 C 640.45 1.33281 1.05689 0
M  V30 6825 O 641.635 1.62181 1.06823 0
M  V30 6826 C 638.765 3.10821 1.54943 0
M  V30 6827 C 637.719 4.15069 1.04413 0
M  V30 6828 C 637.045 4.84578 2.26028 0
M  V30 6829 C 638.345 5.22191 0.106767 0
M  V30 6830 H 640.039 2.98612 -0.217045 0
M  V30 6831 H 637.585 1.43611 -0.105826 0
M  V30 6832 H 639.538 3.63492 2.13193 0
M  V30 6833 H 638.262 2.39538 2.22011 0
M  V30 6834 H 636.921 3.63389 0.484118 0
M  V30 6835 H 636.569 4.09835 2.91623 0
M  V30 6836 H 636.269 5.55043 1.92876 0
M  V30 6837 H 637.793 5.40056 2.84906 0
M  V30 6838 H 639.207 5.70176 0.597685 0
M  V30 6839 H 637.604 5.99947 -0.135352 0
M  V30 6840 H 638.674 4.77531 -0.842134 0
M  V30 6841 N 640.017 0.126909 1.57088 0
M  V30 6842 C 640.927 -0.833867 2.1928 0
M  V30 6843 C 641.943 -1.2868 1.17122 0
M  V30 6844 O 643.119 -1.34815 1.49622 0
M  V30 6845 C 640.184 -2.0632 2.78627 0
M  V30 6846 C 639.245 -1.66143 3.95847 0
M  V30 6847 C 638.478 -2.83217 4.52354 0
M  V30 6848 O 638.701 -3.98868 4.0775 0
M  V30 6849 O 637.635 -2.59846 5.42922 0
M  V30 6850 H 641.461 -0.334564 3.01852 0
M  V30 6851 H 639.046 -0.0991091 1.49071 0
M  V30 6852 H 640.928 -2.78304 3.16425 0
M  V30 6853 H 639.603 -2.55242 1.99082 0
M  V30 6854 H 638.51 -0.912435 3.62802 0
M  V30 6855 H 639.843 -1.21957 4.76852 0
M  V30 6856 N 641.495 -1.56914 -0.146875 0
M  V30 6857 C 642.911 -1.51582 -0.499518 0
M  V30 6858 C 643.111 -0.83535 -1.83369 0
M  V30 6859 O 642.167 -0.405932 -2.49216 0
M  V30 6860 C 643.48 -2.96349 -0.509711 0
M  V30 6861 C 645.028 -3.07288 -0.595217 0
M  V30 6862 C 645.503 -4.53562 -0.636071 0
M  V30 6863 N 646.994 -4.57906 -0.69829 0
M  V30 6864 C 647.729 -5.68462 -0.750886 0
M  V30 6865 N 647.225 -6.88588 -0.76282 0
M  V30 6866 N 649.018 -5.56496 -0.791777 0
M  V30 6867 H 641.169 -1.99547 0.727656 0
M  V30 6868 H 643.432 -0.910113 0.265327 0
M  V30 6869 H 643.138 -3.4939 0.402409 0
M  V30 6870 H 643.012 -3.52307 -1.34758 0
M  V30 6871 H 645.399 -2.54266 -1.49776 0
M  V30 6872 H 645.48 -2.54373 0.2698 0
M  V30 6873 H 645.124 -5.07222 0.262313 0
M  V30 6874 H 645.054 -5.04259 -1.51758 0
M  V30 6875 H 647.545 -3.71429 -0.696362 0
M  V30 6876 H 647.858 -7.68598 -0.804804 0
M  V30 6877 H 646.203 -6.91148 -0.730694 0
M  V30 6878 H 649.394 -4.61562 -0.779624 0
M  V30 6879 H 649.567 -6.42671 -0.829301 0
M  V30 6880 N 642.974 0.416227 -1.52004 0
M  V30 6881 C 643.937 1.48926 -1.74223 0
M  V30 6882 C 644.937 1.48693 -0.612119 0
M  V30 6883 O 646.127 1.50343 -0.879921 0
M  V30 6884 C 643.259 2.88372 -1.81809 0
M  V30 6885 H 644.452 1.3052 -2.70008 0
M  V30 6886 H 642.005 0.646271 -1.42313 0
M  V30 6887 H 642.74 3.12157 -0.879135 0
M  V30 6888 H 642.525 2.89944 -2.6396 0
M  V30 6889 H 644.015 3.66173 -2.00766 0
M  V30 6890 N 644.452 1.42507 0.673017 0
M  V30 6891 C 645.4 1.46362 1.80779 0
M  V30 6892 C 646.394 0.339166 1.6597 0
M  V30 6893 O 647.6 0.512262 1.72557 0
M  V30 6894 H 643.975 0.458433 0.596107 0
M  V30 6895 H 645.946 2.41953 1.74646 0
M  V30 6896 C 644.695 1.38462 3.18941 0
M  V30 6897 H 644.018 2.24283 3.30964 0
M  V30 6898 H 645.458 1.45221 3.98355 0
M  V30 6899 C 643.917 0.0996354 3.36753 0
M  V30 6900 O 644.447 -0.846894 3.92671 0
M  V30 6901 N 642.653 0.016211 2.90595 0
M  V30 6902 H 642.2 0.78725 2.45276 0
M  V30 6903 H 642.158 -0.84291 3.0289 0
M  V30 6904 N 645.93 -0.909495 1.28709 0
M  V30 6905 C 646.878 -2.03381 1.12866 0
M  V30 6906 C 647.872 -1.69335 0.0468074 0
M  V30 6907 O 649.078 -1.78819 0.205891 0
M  V30 6908 H 645.453 -0.666452 0.348348 0
M  V30 6909 H 647.424 -2.13885 2.08077 0
M  V30 6910 C 646.173 -3.38092 0.811742 0
M  V30 6911 H 645.496 -3.64786 1.63619 0
M  V30 6912 H 646.936 -4.17477 0.740869 0
M  V30 6913 C 645.395 -3.33395 -0.484679 0
M  V30 6914 O 645.925 -3.72089 -1.5137 0
M  V30 6915 N 644.131 -2.86491 -0.486961 0
M  V30 6916 H 643.678 -2.55199 0.350877 0
M  V30 6917 H 643.636 -2.83731 -1.3544 0
M  V30 6918 N 647.408 -1.11026 -1.11852 0
M  V30 6919 C 648.338 -0.786812 -2.19844 0
M  V30 6920 C 649.319 0.242935 -1.68356 0
M  V30 6921 O 650.504 0.107355 -1.93903 0
M  V30 6922 C 647.634 -0.224516 -3.46574 0
M  V30 6923 C 646.588 -1.18564 -4.1125 0
M  V30 6924 C 645.914 -0.484261 -5.32503 0
M  V30 6925 C 647.214 -2.53465 -4.56676 0
M  V30 6926 H 648.908 -1.68978 -2.47158 0
M  V30 6927 H 646.454 -0.813906 -1.18792 0
M  V30 6928 H 648.407 0.0139435 -4.21398 0
M  V30 6929 H 647.131 0.713722 -3.18706 0
M  V30 6930 H 645.79 -1.40966 -3.38414 0
M  V30 6931 H 645.438 0.458646 -5.00905 0
M  V30 6932 H 645.138 -1.12526 -5.76725 0
M  V30 6933 H 646.662 -0.254492 -6.10069 0
M  V30 6934 H 648.076 -2.35177 -5.22843 0
M  V30 6935 H 646.473 -3.13507 -5.11697 0
M  V30 6936 H 647.543 -3.13008 -3.70343 0
M  V30 6937 N 648.886 1.2938 -0.899927 0
M  V30 6938 C 650.116 1.99402 -0.540601 0
M  V30 6939 C 650.524 1.67534 0.87914 0
M  V30 6940 O 649.867 0.916821 1.59186 0
M  V30 6941 C 649.929 3.53514 -0.653326 0
M  V30 6942 C 649.593 4.08937 -2.04009 0
M  V30 6943 C 650.59 4.23815 -3.01126 0
M  V30 6944 C 648.275 4.43962 -2.34953 0
M  V30 6945 C 650.269 4.72951 -4.27313 0
M  V30 6946 C 647.956 4.92795 -3.61382 0
M  V30 6947 C 648.954 5.07244 -4.57376 0
M  V30 6948 O 648.642 5.55017 -5.8156 0
M  V30 6949 H 648.374 0.64383 -0.206057 0
M  V30 6950 H 650.928 1.65878 -1.21134 0
M  V30 6951 H 649.158 3.86628 0.0744449 0
M  V30 6952 H 650.847 4.04767 -0.303118 0
M  V30 6953 H 651.613 3.97043 -2.78535 0
M  V30 6954 H 647.492 4.31974 -1.60994 0
M  V30 6955 H 651.036 4.84144 -5.02245 0
M  V30 6956 H 646.933 5.19004 -3.83804 0
M  V30 6957 H 647.701 5.73331 -5.84153 0
M  V30 6958 N 650.364 0.662433 1.43002 0
M  V30 6959 C 651.297 -0.073459 2.28082 0
M  V30 6960 C 652.275 -0.820869 1.40358 0
M  V30 6961 O 653.459 -0.818545 1.698 0
M  V30 6962 C 650.586 -1.11097 3.19961 0
M  V30 6963 C 649.632 -0.460557 4.24006 0
M  V30 6964 S 650.465 0.772717 5.29896 0
M  V30 6965 C 651.621 -0.264028 6.25343 0
M  V30 6966 H 651.854 0.648227 2.90147 0
M  V30 6967 H 649.387 0.451566 1.47649 0
M  V30 6968 H 651.345 -1.70452 3.73439 0
M  V30 6969 H 650.006 -1.80503 2.57056 0
M  V30 6970 H 649.199 -1.24299 4.88432 0
M  V30 6971 H 648.801 0.0591038 3.73953 0
M  V30 6972 H 651.093 -1.12748 6.68052 0
M  V30 6973 H 652.036 0.345443 7.07257 0
M  V30 6974 H 652.444 -0.603964 5.6126 0
M  V30 6975 N 651.842 -1.52309 0.404946 0
M  V30 6976 C 652.752 -2.30634 -0.429555 0
M  V30 6977 C 653.768 -1.38187 -1.05737 0
M  V30 6978 O 654.944 -1.71261 -1.05979 0
M  V30 6979 C 652.009 -3.10947 -1.53339 0
M  V30 6980 C 651.07 -4.19126 -0.929065 0
M  V30 6981 C 650.303 -4.95601 -1.9803 0
M  V30 6982 O 650.526 -4.72331 -3.1978 0
M  V30 6983 O 649.46 -5.80551 -1.58886 0
M  V30 6984 H 653.286 -3.0298 0.208963 0
M  V30 6985 H 650.871 -1.4845 0.168255 0
M  V30 6986 H 652.753 -3.60974 -2.1743 0
M  V30 6987 H 651.428 -2.41399 -2.15658 0
M  V30 6988 H 650.335 -3.73257 -0.250982 0
M  V30 6989 H 651.668 -4.90955 -0.349855 0
M  V30 6990 N 653.32 -0.135238 -1.57019 0
M  V30 6991 C 654.25 0.805235 -2.19176 0
M  V30 6992 C 655.231 1.2656 -1.13651 0
M  V30 6993 O 656.416 1.32528 -1.4195 0
M  V30 6994 C 653.546 2.04914 -2.80406 0
M  V30 6995 C 652.5 1.72598 -3.91655 0
M  V30 6996 C 651.826 3.04154 -4.39766 0
M  V30 6997 C 653.126 0.981709 -5.12991 0
M  V30 6998 H 654.82 0.287232 -2.98019 0
M  V30 6999 H 652.366 0.136714 -1.4335 0
M  V30 7000 H 654.319 2.71178 -3.22553 0
M  V30 7001 H 653.043 2.59067 -1.98877 0
M  V30 7002 H 651.702 1.08717 -3.50109 0
M  V30 7003 H 651.35 3.56274 -3.55075 0
M  V30 7004 H 651.05 2.83299 -5.14796 0
M  V30 7005 H 652.574 3.71509 -4.84576 0
M  V30 7006 H 653.988 1.5462 -5.52056 0
M  V30 7007 H 652.385 0.873533 -5.93708 0
M  V30 7008 H 653.455 -0.0286887 -4.84892 0
M  V30 7009 N 654.798 1.5699 0.138552 0
M  V30 7010 C 655.746 1.99858 1.18994 0
M  V30 7011 C 656.74 0.89231 1.43994 0
M  V30 7012 O 657.946 1.0775 1.44187 0
M  V30 7013 H 654.321 0.636325 0.400743 0
M  V30 7014 H 656.292 2.87427 0.801755 0
M  V30 7015 C 655.041 2.40235 2.51361 0
M  V30 7016 H 654.364 3.24917 2.32957 0
M  V30 7017 H 655.804 2.74045 3.23535 0
M  V30 7018 C 654.263 1.25829 3.1252 0
M  V30 7019 O 654.793 0.563604 3.97727 0
M  V30 7020 N 652.999 1.02036 2.72097 0
M  V30 7021 H 652.546 1.58705 2.02905 0
M  V30 7022 H 652.504 0.256796 3.1335 0
M  V30 7023 N 656.276 -0.40816 1.52223 0
M  V30 7024 C 657.239 -1.48 1.7501 0
M  V30 7025 C 658.239 -1.48367 0.619996 0
M  V30 7026 O 659.429 -1.49874 0.887881 0
M  V30 7027 C 656.561 -2.87403 1.83336 0
M  V30 7028 H 657.754 -1.29086 2.70697 0
M  V30 7029 H 655.307 -0.638715 1.42654 0
M  V30 7030 H 656.042 -3.11686 0.895677 0
M  V30 7031 H 655.827 -2.8854 2.65494 0
M  V30 7032 H 657.317 -3.65103 2.02705 0
M  V30 7033 N 657.755 -1.42862 -0.66545 0
M  V30 7034 C 658.685 -1.49867 -1.79059 0
M  V30 7035 C 659.666 -0.354394 -1.66367 0
M  V30 7036 O 660.851 -0.569969 -1.85647 0
M  V30 7037 C 657.981 -1.40943 -3.17415 0
M  V30 7038 C 656.935 -2.53495 -3.44854 0
M  V30 7039 C 656.261 -2.29626 -4.82883 0
M  V30 7040 C 657.561 -3.95781 -3.40815 0
M  V30 7041 H 659.255 -2.44037 -1.73453 0
M  V30 7042 H 656.801 -1.17456 -0.833071 0
M  V30 7043 H 658.754 -1.4445 -3.95869 0
M  V30 7044 H 657.478 -0.432716 -3.23721 0
M  V30 7045 H 656.137 -2.4932 -2.68766 0
M  V30 7046 H 655.785 -1.30226 -4.8585 0
M  V30 7047 H 655.485 -3.05065 -5.02204 0
M  V30 7048 H 657.009 -2.34897 -5.63609 0
M  V30 7049 H 658.423 -4.01508 -4.09224 0
M  V30 7050 H 656.82 -4.71148 -3.71672 0
M  V30 7051 H 657.89 -4.21786 -2.39216 0
M  V30 7052 N 659.233 0.902656 -1.29189 0
M  V30 7053 C 660.166 2.00816 -1.0839 0
M  V30 7054 C 661.144 1.626 0.00335266 0
M  V30 7055 O 662.328 1.87928 -0.146765 0
M  V30 7056 C 659.455 3.32415 -0.649435 0
M  V30 7057 C 658.501 3.89617 -1.73496 0
M  V30 7058 S 659.334 4.19091 -3.33351 0
M  V30 7059 C 660.49 5.53736 -2.91766 0
M  V30 7060 H 660.723 2.18151 -2.01984 0
M  V30 7061 H 658.256 1.0489 -1.13303 0
M  V30 7062 H 660.214 4.08492 -0.405479 0
M  V30 7063 H 658.875 3.12964 0.266857 0
M  V30 7064 H 658.068 4.84658 -1.38284 0
M  V30 7065 H 657.67 3.20217 -1.93229 0
M  V30 7066 H 659.962 6.34085 -2.38627 0
M  V30 7067 H 660.905 5.93871 -3.85647 0
M  V30 7068 H 661.313 5.15453 -2.30149 0
M  V30 7069 N 660.711 1.11618 1.11262 0
M  V30 7070 C 661.641 0.79846 2.19424 0
M  V30 7071 C 662.622 -0.234003 1.68483 0
M  V30 7072 O 663.807 -0.0970704 1.93957 0
M  V30 7073 C 660.937 0.242892 3.4645 0
M  V30 7074 C 659.891 1.20744 4.10615 0
M  V30 7075 C 659.217 0.512494 5.32238 0
M  V30 7076 C 660.517 2.55884 4.55325 0
M  V30 7077 H 662.211 1.70286 2.46258 0
M  V30 7078 H 659.757 0.820195 1.18359 0
M  V30 7079 H 661.71 0.00840447 4.21399 0
M  V30 7080 H 660.434 -0.696811 3.1908 0
M  V30 7081 H 659.093 1.42759 3.37662 0
M  V30 7082 H 658.741 -0.432075 5.01141 0
M  V30 7083 H 658.441 1.15583 5.7612 0
M  V30 7084 H 659.965 0.286842 6.09926 0
M  V30 7085 H 661.379 2.37946 5.21588 0
M  V30 7086 H 659.776 3.16216 5.10027 0
M  V30 7087 H 660.846 3.14968 3.68678 0
M  V30 7088 N 662.189 -1.289 0.906776 0
M  V30 7089 C 663.121 -2.26556 0.347159 0
M  V30 7090 C 664.134 -1.54589 -0.51049 0
M  V30 7091 O 665.323 -1.75489 -0.326501 0
M  V30 7092 C 662.423 -3.3484 -0.523024 0
M  V30 7093 C 661.596 -4.36296 0.310515 0
M  V30 7094 C 660.655 -5.23879 -0.493634 0
M  V30 7095 O 659.681 -5.69127 0.0913569 0
M  V30 7096 N 660.883 -5.51946 -1.7982 0
M  V30 7097 H 663.648 -2.75212 1.18652 0
M  V30 7098 H 661.209 -1.42309 0.771996 0
M  V30 7099 H 663.201 -3.90366 -1.06756 0
M  V30 7100 H 661.771 -2.85946 -1.26309 0
M  V30 7101 H 660.991 -3.80331 1.03644 0
M  V30 7102 H 662.279 -5.01113 0.881106 0
M  V30 7103 H 661.677 -5.17006 -2.2961 0
M  V30 7104 H 660.234 -6.10258 -2.28971 0
M  V30 7105 N 663.667 -0.670007 -1.42649 0
M  V30 7106 C 664.597 -0.00258501 -2.335 0
M  V30 7107 C 665.578 0.794364 -1.50412 0
M  V30 7108 O 666.763 0.75248 -1.79029 0
M  V30 7109 C 663.893 0.952748 -3.33976 0
M  V30 7110 C 662.847 0.264733 -4.2718 0
M  V30 7111 C 662.173 1.33267 -5.17826 0
M  V30 7112 C 663.473 -0.853289 -5.15283 0
M  V30 7113 H 665.167 -0.761326 -2.89559 0
M  V30 7114 H 662.713 -0.367561 -1.3923 0
M  V30 7115 H 664.666 1.4287 -3.96442 0
M  V30 7116 H 663.39 1.74285 -2.7621 0
M  V30 7117 H 662.049 -0.190938 -3.66102 0
M  V30 7118 H 661.697 2.11464 -4.5639 0
M  V30 7119 H 661.397 0.877476 -5.81011 0
M  V30 7120 H 662.921 1.80965 -5.83167 0
M  V30 7121 H 664.335 -0.458763 -5.71462 0
M  V30 7122 H 662.732 -1.23398 -5.87276 0
M  V30 7123 H 663.802 -1.70412 -4.53969 0
M  V30 7124 N 665.145 1.52092 -0.413018 0
M  V30 7125 C 666.055 2.30858 0.417318 0
M  V30 7126 C 667.071 1.38746 1.05003 0
M  V30 7127 O 668.247 1.71821 1.05069 0
M  V30 7128 C 665.312 3.11756 1.51687 0
M  V30 7129 C 664.373 4.19613 0.906825 0
M  V30 7130 C 663.606 4.96644 1.95399 0
M  V30 7131 O 663.829 4.7402 3.17271 0
M  V30 7132 O 662.763 5.81385 1.55805 0
M  V30 7133 H 666.589 3.02865 -0.225028 0
M  V30 7134 H 664.174 1.48358 -0.176126 0
M  V30 7135 H 666.056 3.62122 2.15512 0
M  V30 7136 H 664.731 2.42539 2.14375 0
M  V30 7137 H 663.638 3.73385 0.231183 0
M  V30 7138 H 664.971 4.91134 0.323814 0
M  V30 7139 N 666.623 0.143563 1.56945 0
M  V30 7140 C 667.553 -0.7936 2.196 0
M  V30 7141 C 668.534 -1.25955 1.14321 0
M  V30 7142 O 669.719 -1.31773 1.42651 0
M  V30 7143 C 666.849 -2.03424 2.81489 0
M  V30 7144 C 665.803 -1.70519 3.92565 0
M  V30 7145 C 665.129 -3.01817 4.41373 0
M  V30 7146 C 666.429 -0.95449 5.13504 0
M  V30 7147 H 668.123 -0.271423 2.98167 0
M  V30 7148 H 665.669 -0.12911 1.4342 0
M  V30 7149 H 667.622 -2.69463 3.23987 0
M  V30 7150 H 666.346 -2.58008 2.00248 0
M  V30 7151 H 665.005 -1.06859 3.5068 0
M  V30 7152 H 664.653 -3.54386 3.56959 0
M  V30 7153 H 664.353 -2.80565 5.16292 0
M  V30 7154 H 665.877 -3.68934 4.86539 0
M  V30 7155 H 667.291 -1.5169 5.52868 0
M  V30 7156 H 665.688 -0.842035 5.94163 0
M  V30 7157 H 666.758 0.0544033 4.84869 0
M  V30 7158 N 668.101 -1.57061 -0.130224 0
M  V30 7159 C 669.048 -1.99517 -1.16024 0
M  V30 7160 C 670.018 -0.865452 -1.41771 0
M  V30 7161 O 671.203 -1.12882 -1.53826 0
M  V30 7162 C 668.343 -2.3951 -2.48453 0
M  V30 7163 C 667.456 -3.65848 -2.29737 0
M  V30 7164 C 666.591 -3.9487 -3.55318 0
M  V30 7165 C 665.63 -5.14426 -3.31711 0
M  V30 7166 N 664.767 -5.39375 -4.49466 0
M  V30 7167 H 669.607 -2.87305 -0.791194 0
M  V30 7168 H 667.144 -1.42129 -0.379195 0
M  V30 7169 H 669.102 -2.60731 -3.25692 0
M  V30 7170 H 667.732 -1.54779 -2.83272 0
M  V30 7171 H 666.784 -3.52307 -1.4347 0
M  V30 7172 H 668.096 -4.53241 -2.08263 0
M  V30 7173 H 667.25 -4.16679 -4.4098 0
M  V30 7174 H 665.989 -3.05931 -3.79813 0
M  V30 7175 H 664.994 -4.92473 -2.44439 0
M  V30 7176 H 666.219 -6.04933 -3.08598 0
M  V30 7177 H 664.165 -4.53391 -4.74102 0
M  V30 7178 H 664.082 -6.21069 -4.31055 0
M  V30 7179 H 665.35 -5.65694 -5.36293 0
M  V30 7180 N 669.579 0.400081 -1.52437 0
M  V30 7181 C 670.489 1.51253 -1.79331 0
M  V30 7182 C 671.505 1.60188 -0.679396 0
M  V30 7183 O 672.681 1.76733 -0.965791 0
M  V30 7184 C 669.746 2.869 -1.94652 0
M  V30 7185 C 668.807 2.87777 -3.18564 0
M  V30 7186 C 668.04 4.16954 -3.33145 0
M  V30 7187 O 668.263 5.11329 -2.52783 0
M  V30 7188 O 667.197 4.2487 -4.26343 0
M  V30 7189 H 671.023 1.31461 -2.73773 0
M  V30 7190 H 668.608 0.586834 -1.37392 0
M  V30 7191 H 670.49 3.67336 -2.065 0
M  V30 7192 H 669.165 3.06741 -1.034 0
M  V30 7193 H 668.072 2.06162 -3.12167 0
M  V30 7194 H 669.405 2.72886 -4.09627 0
M  V30 7195 N 671.057 1.43213 0.657864 0
M  V30 7196 C 672.473 1.26511 0.972992 0
M  V30 7197 C 672.673 0.181477 2.00681 0
M  V30 7198 O 671.729 -0.441649 2.48608 0
M  V30 7199 C 673.042 2.62784 1.46168 0
M  V30 7200 C 674.59 2.70278 1.57857 0
M  V30 7201 C 675.065 4.06958 2.10117 0
M  V30 7202 N 676.556 4.08999 2.17426 0
M  V30 7203 C 677.291 5.11585 2.58975 0
M  V30 7204 N 676.787 6.24548 2.99853 0
M  V30 7205 N 678.58 4.9894 2.58873 0
M  V30 7206 H 670.731 2.12384 -0.0263129 0
M  V30 7207 H 672.994 0.946638 0.0507992 0
M  V30 7208 H 672.7 3.43022 0.776474 0
M  V30 7209 H 672.574 2.87863 2.43751 0
M  V30 7210 H 674.961 1.90376 2.25479 0
M  V30 7211 H 675.042 2.4897 0.587179 0
M  V30 7212 H 674.686 4.87325 1.43098 0
M  V30 7213 H 674.616 4.25628 3.10078 0
M  V30 7214 H 677.107 3.27457 1.88627 0
M  V30 7215 H 677.42 6.98661 3.30292 0
M  V30 7216 H 675.765 6.28027 2.97669 0
M  V30 7217 H 678.956 4.09757 2.26311 0
M  V30 7218 H 679.129 5.79019 2.90932 0
M  V30 7219 N 672.536 -0.895792 1.29666 0
M  V30 7220 C 673.446 -2.03329 1.17024 0
M  V30 7221 C 674.462 -1.73753 0.0925962 0
M  V30 7222 O 675.638 -1.99071 0.305431 0
M  V30 7223 C 672.703 -3.36072 0.851841 0
M  V30 7224 C 671.764 -3.7914 2.01373 0
M  V30 7225 C 670.997 -5.05549 1.71043 0
M  V30 7226 O 671.22 -5.66874 0.633213 0
M  V30 7227 O 670.154 -5.44764 2.5596 0
M  V30 7228 H 673.98 -2.16918 2.12556 0
M  V30 7229 H 671.565 -1.02007 1.09156 0
M  V30 7230 H 673.447 -4.15729 0.689006 0
M  V30 7231 H 672.122 -3.23616 -0.0736634 0
M  V30 7232 H 671.029 -3.00233 2.23183 0
M  V30 7233 H 672.362 -3.96186 2.92058 0
M  V30 7234 N 674.014 -1.12206 -1.10668 0
M  V30 7235 C 674.944 -0.810086 -2.18997 0
M  V30 7236 C 675.925 0.225065 -1.68604 0
M  V30 7237 O 677.11 0.086783 -1.94006 0
M  V30 7238 C 674.24 -0.261262 -3.46316 0
M  V30 7239 C 673.194 -1.2292 -4.09969 0
M  V30 7240 C 672.52 -0.540713 -5.31959 0
M  V30 7241 C 673.82 -2.58295 -4.53962 0
M  V30 7242 H 675.514 -1.7159 -2.45352 0
M  V30 7243 H 673.06 -0.82646 -1.17922 0
M  V30 7244 H 675.013 -0.0307522 -4.21389 0
M  V30 7245 H 673.737 0.679879 -3.19445 0
M  V30 7246 H 672.396 -1.44548 -3.369 0
M  V30 7247 H 672.044 0.405492 -5.01363 0
M  V30 7248 H 671.744 -1.18637 -5.75499 0
M  V30 7249 H 673.268 -0.319184 -6.09765 0
M  V30 7250 H 674.682 -2.40709 -5.20319 0
M  V30 7251 H 673.079 -3.18916 -5.08343 0
M  V30 7252 H 674.149 -3.16918 -3.67002 0
M  V30 7253 N 675.492 1.28418 -0.913599 0
M  V30 7254 C 676.422 2.29713 -0.418847 0
M  V30 7255 C 677.403 1.62165 0.513469 0
M  V30 7256 O 678.588 1.89576 0.421235 0
M  V30 7257 C 675.718 3.45612 0.342042 0
M  V30 7258 C 674.672 4.25056 -0.501123 0
M  V30 7259 C 673.998 5.3329 0.388097 0
M  V30 7260 C 675.298 4.91814 -1.75831 0
M  V30 7261 H 676.992 2.71346 -1.26538 0
M  V30 7262 H 674.538 1.30446 -0.609903 0
M  V30 7263 H 676.491 4.15562 0.699 0
M  V30 7264 H 675.215 3.02858 1.22248 0
M  V30 7265 H 673.874 3.56833 -0.840598 0
M  V30 7266 H 673.522 4.8678 1.26707 0
M  V30 7267 H 673.222 5.87347 -0.172459 0
M  V30 7268 H 674.746 6.06088 0.74094 0
M  V30 7269 H 676.16 5.54126 -1.47026 0
M  V30 7270 H 674.557 5.55866 -2.26126 0
M  V30 7271 H 675.627 4.16313 -2.4862 0
M  V30 7272 N 676.97 0.677563 1.42291 0
M  V30 7273 C 678.386 0.347376 1.55774 0
M  V30 7274 C 678.586 -1.14703 1.65667 0
M  V30 7275 O 677.642 -1.93252 1.62512 0
M  V30 7276 C 678.955 1.08011 2.80631 0
M  V30 7277 C 680.503 1.06271 2.94407 0
M  V30 7278 C 680.978 1.77683 4.22129 0
M  V30 7279 N 682.469 1.74564 4.29047 0
M  V30 7280 C 683.204 2.26673 5.26694 0
M  V30 7281 N 682.7 2.87176 6.30477 0
M  V30 7282 N 684.493 2.17032 5.18511 0
M  V30 7283 H 676.644 1.64703 1.34114 0
M  V30 7284 H 678.907 0.694038 0.645768 0
M  V30 7285 H 678.613 2.13518 2.79469 0
M  V30 7286 H 678.487 0.647115 3.71608 0
M  V30 7287 H 680.874 0.0159658 2.95096 0
M  V30 7288 H 680.955 1.53461 2.04654 0
M  V30 7289 H 680.599 2.82327 4.22201 0
M  V30 7290 H 680.529 1.2794 5.10822 0
M  V30 7291 H 683.02 1.30436 3.54676 0
M  V30 7292 H 683.333 3.24551 7.01346 0
M  V30 7293 H 681.678 2.91247 6.31031 0
M  V30 7294 H 684.869 1.69451 4.36353 0
M  V30 7295 H 685.042 2.57948 5.94446 0
M  V30 7296 N 678.448 -1.51871 0.421078 0
M  V30 7297 C 679.864 -1.59435 0.0725398 0
M  V30 7298 C 680.064 -1.43315 -1.41644 0
M  V30 7299 O 679.12 -1.26614 -2.18461 0
M  V30 7300 C 680.433 -2.9509 0.578132 0
M  V30 7301 C 681.981 -3.08356 0.537149 0
M  V30 7302 C 682.456 -4.4651 1.01945 0
M  V30 7303 N 683.947 -4.52784 0.976758 0
M  V30 7304 C 684.682 -5.57976 1.32099 0
M  V30 7305 N 684.178 -6.70664 1.73727 0
M  V30 7306 N 685.971 -5.48248 1.2402 0
M  V30 7307 H 678.122 -1.60595 1.39007 0
M  V30 7308 H 680.385 -0.756138 0.571803 0
M  V30 7309 H 680.091 -3.12205 1.61929 0
M  V30 7310 H 679.965 -3.772 -0.00578374 0
M  V30 7311 H 682.352 -2.90919 -0.494991 0
M  V30 7312 H 682.433 -2.28125 1.15727 0
M  V30 7313 H 682.077 -4.64692 2.04997 0
M  V30 7314 H 682.007 -5.25256 0.376023 0
M  V30 7315 H 684.498 -3.71898 0.670851 0
M  V30 7316 H 684.811 -7.46932 1.98274 0
M  V30 7317 H 683.156 -6.71914 1.77641 0
M  V30 7318 H 686.347 -4.59095 0.913756 0
M  V30 7319 H 686.52 -6.30119 1.51176 0
M  V30 7320 N 679.926 -0.151884 -1.56866 0
M  V30 7321 C 680.836 0.798876 -2.20579 0
M  V30 7322 C 681.852 1.268 -1.19154 0
M  V30 7323 O 683.028 1.32418 -1.51748 0
M  V30 7324 C 680.093 2.01861 -2.81874 0
M  V30 7325 C 679.154 1.59825 -3.9844 0
M  V30 7326 C 678.387 2.75984 -4.56802 0
M  V30 7327 O 678.61 3.92331 -4.14044 0
M  V30 7328 O 677.544 2.51175 -5.46987 0
M  V30 7329 H 681.37 0.2865 -3.02346 0
M  V30 7330 H 678.955 0.0753806 -1.4921 0
M  V30 7331 H 680.837 2.73235 -3.20813 0
M  V30 7332 H 679.512 2.52042 -2.03117 0
M  V30 7333 H 678.419 0.854601 -3.64208 0
M  V30 7334 H 679.752 1.14355 -4.78731 0
M  V30 7335 N 681.404 1.57128 0.121893 0
M  V30 7336 C 682.336 1.96773 1.17529 0
M  V30 7337 C 683.349 0.866668 1.37814 0
M  V30 7338 O 684.538 1.14497 1.3694 0
M  V30 7339 C 681.638 2.24832 2.53582 0
M  V30 7340 C 680.811 3.56138 2.53939 0
M  V30 7341 C 679.87 3.72443 3.71716 0
M  V30 7342 O 678.896 4.44584 3.55434 0
M  V30 7343 N 680.098 3.10993 4.90167 0
M  V30 7344 H 682.863 2.87743 0.838086 0
M  V30 7345 H 680.424 1.58881 0.311199 0
M  V30 7346 H 682.416 2.32958 3.30927 0
M  V30 7347 H 680.986 1.40002 2.79496 0
M  V30 7348 H 680.206 3.59226 1.62329 0
M  V30 7349 H 681.494 4.42448 2.51231 0
M  V30 7350 H 680.892 2.52345 5.06299 0
M  V30 7351 H 679.449 3.24644 5.65198 0
M  V30 7352 N 682.882 -0.391992 1.52647 0
M  V30 7353 C 683.845 -1.46135 1.7657 0
M  V30 7354 C 684.845 -1.47701 0.635698 0
M  V30 7355 O 686.035 -1.48924 0.903728 0
M  V30 7356 C 683.167 -2.85443 1.86374 0
M  V30 7357 H 684.36 -1.26208 2.72051 0
M  V30 7358 H 681.913 -0.623549 1.43323 0
M  V30 7359 H 682.648 -3.10718 0.928685 0
M  V30 7360 H 682.433 -2.85708 2.68539 0
M  V30 7361 H 683.923 -3.62933 2.06566 0
M  V30 7362 N 684.36 -1.4356 -0.65026 0
M  V30 7363 C 685.29 -1.51758 -1.77459 0
M  V30 7364 C 686.271 -0.372019 -1.65982 0
M  V30 7365 O 687.456 -0.589627 -1.85033 0
M  V30 7366 C 684.586 -1.44302 -3.15902 0
M  V30 7367 C 683.54 -2.57138 -3.42146 0
M  V30 7368 C 682.866 -2.34735 -4.8042 0
M  V30 7369 C 684.166 -3.99373 -3.36598 0
M  V30 7370 H 685.86 -2.45863 -1.70855 0
M  V30 7371 H 683.406 -1.18333 -0.820566 0
M  V30 7372 H 685.359 -1.48641 -3.94314 0
M  V30 7373 H 684.083 -0.467026 -3.23244 0
M  V30 7374 H 682.742 -2.52157 -2.66106 0
M  V30 7375 H 682.39 -1.35372 -4.84441 0
M  V30 7376 H 682.09 -3.10375 -4.9894 0
M  V30 7377 H 683.614 -2.40862 -5.61086 0
M  V30 7378 H 685.028 -4.05826 -4.04942 0
M  V30 7379 H 683.425 -4.75063 -3.66654 0
M  V30 7380 H 684.495 -4.243 -2.34729 0
M  V30 7381 N 685.838 0.888903 -1.30139 0
M  V30 7382 C 686.748 2.02705 -1.18101 0
M  V30 7383 C 687.764 1.73702 -0.101809 0
M  V30 7384 O 688.94 1.98906 -0.315984 0
M  V30 7385 C 686.005 3.35616 -0.869651 0
M  V30 7386 C 685.066 3.78067 -2.03381 0
M  V30 7387 C 684.299 5.04635 -1.73721 0
M  V30 7388 O 684.522 5.66531 -0.663267 0
M  V30 7389 O 683.456 5.43399 -2.58845 0
M  V30 7390 H 687.282 2.15788 -2.13704 0
M  V30 7391 H 684.867 1.01426 -1.09695 0
M  V30 7392 H 686.749 4.15358 -0.711043 0
M  V30 7393 H 685.424 3.23651 0.0565002 0
M  V30 7394 H 684.331 2.99046 -2.24772 0
M  V30 7395 H 685.664 3.94631 -2.94155 0
M  V30 7396 N 687.317 1.12792 1.10072 0
M  V30 7397 C 688.733 0.864745 1.34143 0
M  V30 7398 C 688.933 -0.503201 1.95116 0
M  V30 7399 O 687.989 -1.25111 2.19325 0
M  V30 7400 C 689.302 1.98413 2.25949 0
M  V30 7401 C 690.85 2.01545 2.39476 0
M  V30 7402 C 691.325 3.12727 3.34613 0
M  V30 7403 N 692.816 3.12194 3.42183 0
M  V30 7404 C 693.551 3.94862 4.15779 0
M  V30 7405 N 693.047 4.87528 4.92228 0
M  V30 7406 N 694.84 3.82985 4.11435 0
M  V30 7407 H 686.991 2.00926 0.68866 0
M  V30 7408 H 689.254 0.874564 0.365844 0
M  V30 7409 H 688.96 2.97005 1.88364 0
M  V30 7410 H 688.834 1.89254 3.26287 0
M  V30 7411 H 691.221 1.0357 2.76328 0
M  V30 7412 H 691.302 2.14777 1.3894 0
M  V30 7413 H 690.946 4.10936 2.98486 0
M  V30 7414 H 690.876 2.96732 4.35037 0
M  V30 7415 H 693.367 2.45065 2.87666 0
M  V30 7416 H 693.68 5.47109 5.45794 0
M  V30 7417 H 692.025 4.91539 4.9134 0
M  V30 7418 H 695.216 3.09923 3.50807 0
M  V30 7419 H 695.389 4.47641 4.68531 0
M  V30 7420 N 688.795 -1.27931 0.920396 0
M  V30 7421 C 690.211 -1.47085 0.619537 0
M  V30 7422 C 690.411 -1.83463 -0.833291 0
M  V30 7423 O 689.467 -1.94363 -1.61181 0
M  V30 7424 C 690.78 -2.56878 1.56314 0
M  V30 7425 C 692.328 -2.70743 1.57058 0
M  V30 7426 C 692.803 -3.83687 2.50097 0
M  V30 7427 N 694.294 -3.9105 2.48262 0
M  V30 7428 C 695.029 -4.77842 3.16945 0
M  V30 7429 N 694.525 -5.69176 3.94982 0
M  V30 7430 N 696.318 -4.71509 3.06 0
M  V30 7431 H 688.469 -1.02601 1.85975 0
M  V30 7432 H 690.732 -0.511682 0.798051 0
M  V30 7433 H 690.438 -2.36923 2.59923 0
M  V30 7434 H 690.312 -3.54117 1.29928 0
M  V30 7435 H 692.699 -2.90083 0.541832 0
M  V30 7436 H 692.78 -1.74015 1.8749 0
M  V30 7437 H 692.424 -3.65101 3.53077 0
M  V30 7438 H 692.354 -4.79827 2.16964 0
M  V30 7439 H 694.845 -3.25738 1.91581 0
M  V30 7440 H 695.158 -6.32245 4.44394 0
M  V30 7441 H 693.503 -5.68995 3.99086 0
M  V30 7442 H 696.694 -3.99151 2.44533 0
M  V30 7443 H 696.867 -5.38933 3.59799 0
M  V30 7444 N 690.273 -0.685099 -1.4193 0
M  V30 7445 C 691.513 -0.215676 -2.03259 0
M  V30 7446 C 691.877 1.15934 -1.53047 0
M  V30 7447 O 693.078 1.72401 -2.06231 0
M  V30 7448 C 691.349 -0.259649 -3.56456 0
M  V30 7449 S 692.908 0.137262 -4.38585 0
M  V30 7450 H 689.726 -0.0877362 -0.705566 0
M  V30 7451 H 692.328 -0.900547 -1.73523 0
M  V30 7452 H 691.032 -1.26256 -3.90497 0
M  V30 7453 H 690.563 0.444716 -3.90878 0
M  V30 7454 H 692.578 1.36787 -4.76973 0
M  V30 7455 N 691.751 1.51645 -0.429126 0
M  V30 7456 C 693.162 1.86665 0.0359003 0
M  V30 7457 C 693.513 1.34677 1.42676 0
M  V30 7458 O 692.638 0.694195 2.04963 0
M  V30 7459 C 693.233 3.38724 0.0719221 0
M  V30 7460 C 691.792 3.7331 0.481336 0
M  V30 7461 C 690.939 2.75313 -0.331329 0
M  V30 7462 H 693.89 1.44987 -0.645333 0
M  V30 7463 H 693.911 3.7011 0.883118 0
M  V30 7464 H 693.423 3.76532 -0.940495 0
M  V30 7465 H 691.524 3.41088 1.49966 0
M  V30 7466 H 691.637 4.78631 0.211837 0
M  V30 7467 H 690.001 2.53839 0.209204 0
M  V30 7468 H 690.784 3.15963 -1.34247 0
M  V30 7469 N 693.229 0.160201 1.56784 0
M  V30 7470 C 694.477 -0.486625 1.96154 0
M  V30 7471 C 694.798 -1.64525 1.04673 0
M  V30 7472 O 694.068 -1.95586 0.110864 0
M  V30 7473 H 692.648 -0.182764 0.724297 0
M  V30 7474 H 695.31 0.238787 1.93432 0
M  V30 7475 H 694.406 -0.854025 3.00188 0
M  V30 7476 N 694.707 -1.5719 -0.113559 0
M  V30 7477 C 695.637 -2.03772 -1.14013 0
M  V30 7478 C 696.618 -0.923176 -1.42869 0
M  V30 7479 O 697.803 -1.19325 -1.53216 0
M  V30 7480 C 694.933 -2.44663 -2.4649 0
M  V30 7481 C 693.887 -3.59612 -2.32085 0
M  V30 7482 C 693.213 -3.8642 -3.69573 0
M  V30 7483 C 694.513 -4.91149 -1.7768 0
M  V30 7484 H 696.207 -2.89785 -0.752665 0
M  V30 7485 H 693.753 -1.39412 -0.360609 0
M  V30 7486 H 695.706 -2.75857 -3.18561 0
M  V30 7487 H 694.43 -1.55628 -2.87137 0
M  V30 7488 H 693.089 -3.28636 -1.62461 0
M  V30 7489 H 692.737 -2.94581 -4.07715 0
M  V30 7490 H 692.437 -4.63797 -3.60786 0
M  V30 7491 H 693.961 -4.2007 -4.4314 0
M  V30 7492 H 695.375 -5.20843 -2.39574 0
M  V30 7493 H 693.772 -5.72562 -1.79701 0
M  V30 7494 H 694.842 -4.79301 -0.734776 0
M  V30 7495 N 696.185 0.383891 -1.52853 0
M  V30 7496 C 697.115 1.47559 -1.80965 0
M  V30 7497 C 698.096 1.5669 -0.661986 0
M  V30 7498 O 699.281 1.71556 -0.910072 0
M  V30 7499 C 696.411 2.85114 -1.98312 0
M  V30 7500 C 695.365 2.9082 -3.14019 0
M  V30 7501 C 694.691 4.30873 -3.16627 0
M  V30 7502 C 695.991 2.60001 -4.52986 0
M  V30 7503 H 697.685 1.24283 -2.72386 0
M  V30 7504 H 695.231 0.596445 -1.31067 0
M  V30 7505 H 697.184 3.61496 -2.16561 0
M  V30 7506 H 695.908 3.09738 -1.03585 0
M  V30 7507 H 694.567 2.16886 -2.9556 0
M  V30 7508 H 694.215 4.52545 -2.19573 0
M  V30 7509 H 693.915 4.3561 -3.94357 0
M  V30 7510 H 695.439 5.09154 -3.37038 0
M  V30 7511 H 696.853 3.261 -4.71521 0
M  V30 7512 H 695.25 2.76081 -5.32822 0
M  V30 7513 H 696.32 1.5532 -4.59351 0
M  V30 7514 N 697.663 1.43903 0.642637 0
M  V30 7515 C 698.61 1.49881 1.75512 0
M  V30 7516 C 699.58 0.347538 1.62423 0
M  V30 7517 O 700.765 0.556177 1.82514 0
M  V30 7518 C 697.905 1.43797 3.13714 0
M  V30 7519 C 697.018 2.6921 3.37861 0
M  V30 7520 C 696.153 2.5504 4.6597 0
M  V30 7521 C 695.192 3.75671 4.83257 0
M  V30 7522 N 694.329 3.60247 6.02633 0
M  V30 7523 H 699.169 2.44935 1.69737 0
M  V30 7524 H 696.706 1.21572 0.828165 0
M  V30 7525 H 698.664 1.38262 3.93624 0
M  V30 7526 H 697.294 0.523173 3.18532 0
M  V30 7527 H 696.346 2.8498 2.51973 0
M  V30 7528 H 697.658 3.58786 3.46517 0
M  V30 7529 H 696.812 2.47273 5.54023 0
M  V30 7530 H 695.551 1.63006 4.59653 0
M  V30 7531 H 694.556 3.83836 3.93637 0
M  V30 7532 H 695.781 4.68728 4.91397 0
M  V30 7533 H 693.727 2.70955 5.97427 0
M  V30 7534 H 693.644 4.43431 6.12295 0
M  V30 7535 H 694.912 3.56351 6.93278 0
M  V30 7536 N 699.141 -0.881989 1.30609 0
M  V30 7537 C 700.552 -1.44956 1.17664 0
M  V30 7538 C 700.903 -1.94945 -0.221531 0
M  V30 7539 O 700.028 -1.85257 -1.11844 0
M  V30 7540 C 700.623 -2.63474 2.12995 0
M  V30 7541 C 699.182 -3.16312 2.04019 0
M  V30 7542 C 698.329 -1.89008 2.02907 0
M  V30 7543 H 701.28 -0.691645 1.42835 0
M  V30 7544 H 701.301 -3.39783 1.71253 0
M  V30 7545 H 700.813 -2.2706 3.14746 0
M  V30 7546 H 698.914 -3.57376 1.0542 0
M  V30 7547 H 699.027 -3.79409 2.9255 0
M  V30 7548 H 697.391 -2.07465 1.47751 0
M  V30 7549 H 698.174 -1.54848 3.06394 0
M  V30 7550 N 700.619 -1.13374 -1.09472 0
M  V30 7551 C 701.569 -0.77946 -2.14263 0
M  V30 7552 C 702.553 0.226271 -1.59301 0
M  V30 7553 O 703.745 0.0302581 -1.76974 0
M  V30 7554 C 700.874 -0.246635 -3.42413 0
M  V30 7555 C 699.96 -1.28124 -4.04283 0
M  V30 7556 N 700.351 -2.48201 -4.40715 0
M  V30 7557 C 698.649 -1.12892 -4.31476 0
M  V30 7558 C 699.35 -3.14347 -4.8945 0
M  V30 7559 N 698.326 -2.41771 -4.86876 0
M  V30 7560 H 702.128 -1.69305 -2.40235 0
M  V30 7561 H 699.642 -1.01598 -1.26695 0
M  V30 7562 H 701.639 0.0254131 -4.16892 0
M  V30 7563 H 700.299 0.661287 -3.17895 0
M  V30 7564 H 701.31 -2.85511 -4.32093 0
M  V30 7565 H 697.987 -0.279117 -4.16566 0
M  V30 7566 H 699.377 -4.16663 -5.27107 0
M  V30 7567 N 702.098 1.27442 -0.927168 0
M  V30 7568 C 703.509 1.76385 -0.611979 0
M  V30 7569 C 703.86 1.75715 0.872853 0
M  V30 7570 O 702.985 1.3603 1.683 0
M  V30 7571 C 703.58 3.20303 -1.10414 0
M  V30 7572 C 702.139 3.66916 -0.839628 0
M  V30 7573 C 701.286 2.46859 -1.26317 0
M  V30 7574 H 704.237 1.13716 -1.107 0
M  V30 7575 H 704.258 3.77811 -0.451578 0
M  V30 7576 H 703.77 3.20759 -2.18484 0
M  V30 7577 H 701.871 3.71906 0.227292 0
M  V30 7578 H 701.984 4.56415 -1.45679 0
M  V30 7579 H 700.348 2.45407 -0.681723 0
M  V30 7580 H 701.131 2.50025 -2.3525 0
M  V30 7581 N 703.576 0.692616 1.41565 0
M  V30 7582 C 704.801 0.229776 2.06123 0
M  V30 7583 C 705.226 -1.11119 1.5177 0
M  V30 7584 O 704.584 -1.69498 0.643444 0
M  V30 7585 C 704.632 0.19469 3.60074 0
M  V30 7586 O 703.736 -0.831366 4.03933 0
M  V30 7587 H 703.077 0.113002 0.654314 0
M  V30 7588 H 705.607 0.946645 1.81383 0
M  V30 7589 H 705.617 0.0245487 4.07993 0
M  V30 7590 H 704.292 1.17339 3.99004 0
M  V30 7591 H 702.869 -0.630819 3.67526 0
M  V30 7592 N 705.054 -1.51416 0.437162 0
M  V30 7593 C 706.47 -1.59349 0.0894459 0
M  V30 7594 C 706.67 -1.44809 -1.40116 0
M  V30 7595 O 705.726 -1.28924 -2.17106 0
M  V30 7596 C 707.039 -2.9446 0.609398 0
M  V30 7597 C 708.587 -3.07769 0.569824 0
M  V30 7598 C 709.062 -4.45404 1.06675 0
M  V30 7599 N 710.553 -4.51723 1.02473 0
M  V30 7600 C 711.288 -5.56544 1.3801 0
M  V30 7601 N 710.784 -6.68784 1.80831 0
M  V30 7602 N 712.577 -5.46901 1.29828 0
M  V30 7603 H 704.728 -1.59112 1.40703 0
M  V30 7604 H 706.991 -0.750031 0.579791 0
M  V30 7605 H 706.697 -3.1047 1.65231 0
M  V30 7606 H 706.571 -3.77184 0.0342236 0
M  V30 7607 H 708.958 -2.91428 -0.464107 0
M  V30 7608 H 709.039 -2.26885 1.1814 0
M  V30 7609 H 708.683 -4.62492 2.09914 0
M  V30 7610 H 708.613 -5.24827 0.431712 0
M  V30 7611 H 711.104 -3.71165 0.710258 0
M  V30 7612 H 711.417 -7.44787 2.06185 0
M  V30 7613 H 709.762 -6.69992 1.84757 0
M  V30 7614 H 712.953 -4.581 0.962397 0
M  V30 7615 H 713.126 -6.2848 1.57851 0
M  V30 7616 N 706.532 -0.168513 -1.56696 0
M  V30 7617 C 707.78 0.476216 -1.96409 0
M  V30 7618 C 708.101 1.63968 -1.05544 0
M  V30 7619 O 707.371 1.95525 -0.121235 0
M  V30 7620 H 705.951 0.178921 -0.725256 0
M  V30 7621 H 708.613 -0.249042 -1.93302 0
M  V30 7622 H 707.709 0.838094 -3.00637 0
M  V30 7623 N 708.01 1.57248 0.105221 0
M  V30 7624 C 708.94 2.04374 1.12931 0
M  V30 7625 C 709.921 0.93074 1.42377 0
M  V30 7626 O 711.106 1.20136 1.52581 0
M  V30 7627 C 708.236 2.45967 2.45189 0
M  V30 7628 C 707.19 3.60838 2.30174 0
M  V30 7629 C 706.516 3.88374 3.67518 0
M  V30 7630 C 707.816 4.92084 1.75073 0
M  V30 7631 H 709.51 2.9018 0.737287 0
M  V30 7632 H 707.056 1.39601 0.353211 0
M  V30 7633 H 709.009 2.77542 3.17094 0
M  V30 7634 H 707.733 1.57148 2.86308 0
M  V30 7635 H 706.392 3.29493 1.60716 0
M  V30 7636 H 706.04 2.96739 4.06147 0
M  V30 7637 H 705.74 4.65703 3.58321 0
M  V30 7638 H 707.264 4.22415 4.40906 0
M  V30 7639 H 708.678 5.22106 2.36809 0
M  V30 7640 H 707.075 5.73507 1.76662 0
M  V30 7641 H 708.145 4.79684 0.709347 0
M  V30 7642 N 709.488 -0.375779 1.53054 0
M  V30 7643 C 710.418 -1.46598 1.81745 0
M  V30 7644 C 711.399 -1.56337 0.670286 0
M  V30 7645 O 712.584 -1.71071 0.919158 0
M  V30 7646 C 709.714 -2.84058 1.99821 0
M  V30 7647 C 708.668 -2.8915 3.15557 0
M  V30 7648 C 707.994 -4.29187 3.18908 0
M  V30 7649 C 709.294 -2.57595 4.54359 0
M  V30 7650 H 710.988 -1.22837 2.73041 0
M  V30 7651 H 708.534 -0.589485 1.31381 0
M  V30 7652 H 710.487 -3.60342 2.18475 0
M  V30 7653 H 709.211 -3.09184 1.05226 0
M  V30 7654 H 707.87 -2.15316 2.96706 0
M  V30 7655 H 707.518 -4.51374 2.2197 0
M  V30 7656 H 707.218 -4.33512 3.96662 0
M  V30 7657 H 708.742 -5.07359 3.39734 0
M  V30 7658 H 710.156 -3.23595 4.73243 0
M  V30 7659 H 708.553 -2.73252 5.34279 0
M  V30 7660 H 709.623 -1.52882 4.60169 0
M  V30 7661 N 710.966 -1.44241 -0.634997 0
M  V30 7662 C 711.916 -1.47247 -1.74076 0
M  V30 7663 C 712.9 -0.338708 -1.57295 0
M  V30 7664 O 714.092 -0.583751 -1.67097 0
M  V30 7665 C 711.221 -1.41579 -3.12746 0
M  V30 7666 C 710.307 -2.60055 -3.35011 0
M  V30 7667 N 710.698 -3.85321 -3.27661 0
M  V30 7668 C 708.996 -2.55168 -3.65794 0
M  V30 7669 C 709.697 -4.64241 -3.50508 0
M  V30 7670 N 708.673 -3.95254 -3.73196 0
M  V30 7671 H 712.475 -2.4195 -1.66845 0
M  V30 7672 H 709.989 -1.3915 -0.837326 0
M  V30 7673 H 711.986 -1.41816 -3.92038 0
M  V30 7674 H 710.646 -0.479108 -3.21146 0
M  V30 7675 H 711.657 -4.17345 -3.06665 0
M  V30 7676 H 708.334 -1.70276 -3.81198 0
M  V30 7677 H 709.724 -5.73267 -3.50449 0
M  V30 7678 N 712.444 0.87505 -1.31075 0
M  V30 7679 C 713.692 1.62447 -1.20231 0
M  V30 7680 C 714.013 1.93506 0.240888 0
M  V30 7681 O 713.283 1.57847 1.16022 0
M  V30 7682 H 711.863 0.602207 -0.441991 0
M  V30 7683 H 714.525 1.04788 -1.64334 0
M  V30 7684 H 713.621 2.57031 -1.77036 0
M  V30 7685 N 713.922 1.13953 1.08869 0
M  V30 7686 C 714.87 0.817664 2.17754 0
M  V30 7687 C 715.864 -0.202444 1.68186 0
M  V30 7688 O 717.07 -0.0590159 1.79903 0
M  V30 7689 H 713.445 0.246671 0.710392 0
M  V30 7690 H 715.416 1.74401 2.4213 0
M  V30 7691 C 714.165 0.3063 3.46348 0
M  V30 7692 H 713.488 1.08259 3.84864 0
M  V30 7693 H 714.928 0.119584 4.23831 0
M  V30 7694 C 713.387 -0.969158 3.22659 0
M  V30 7695 O 713.917 -2.04386 3.45817 0
M  V30 7696 N 712.123 -0.902516 2.7623 0
M  V30 7697 H 711.67 -0.027801 2.57585 0
M  V30 7698 H 711.628 -1.75649 2.60758 0
M  V30 7699 N 715.4 -1.26948 0.933913 0
M  V30 7700 C 716.628 -1.98186 0.59414 0
M  V30 7701 C 717.043 -1.69614 -0.829257 0
M  V30 7702 O 716.4 -0.960213 -1.55197 0
M  V30 7703 C 716.451 -3.52123 0.818026 0
M  V30 7704 O 716.172 -3.79698 2.18543 0
M  V30 7705 C 717.673 -4.40608 0.48781 0
M  V30 7706 H 714.893 -0.632305 0.224569 0
M  V30 7707 H 717.437 -1.61646 1.25263 0
M  V30 7708 H 715.592 -3.86851 0.206246 0
M  V30 7709 H 716.006 -4.7426 2.24005 0
M  V30 7710 H 717.48 -5.47606 0.695126 0
M  V30 7711 H 717.957 -4.35394 -0.576913 0
M  V30 7712 H 718.563 -4.11411 1.078 0
M  V30 7713 N 716.879 -0.700114 -1.41195 0
M  V30 7714 C 717.812 0.0129614 -2.28196 0
M  V30 7715 C 718.79 0.783367 -1.42486 0
M  V30 7716 O 719.974 0.773238 -1.71911 0
M  V30 7717 C 717.101 1.02575 -3.22794 0
M  V30 7718 C 716.147 0.347977 -4.25078 0
M  V30 7719 S 716.98 -0.912938 -5.27661 0
M  V30 7720 C 718.136 0.0981362 -6.25823 0
M  V30 7721 H 718.369 -0.724927 -2.88326 0
M  V30 7722 H 715.902 -0.490554 -1.464 0
M  V30 7723 H 717.86 1.60491 -3.77826 0
M  V30 7724 H 716.521 1.73624 -2.61751 0
M  V30 7725 H 715.714 1.11305 -4.91556 0
M  V30 7726 H 715.316 -0.15823 -3.73665 0
M  V30 7727 H 717.608 0.949965 -6.70807 0
M  V30 7728 H 718.551 -0.532838 -7.06092 0
M  V30 7729 H 718.959 0.454944 -5.62664 0
M  V30 7730 N 718.357 1.51182 -0.445186 0
M  V30 7731 C 719.267 2.31692 0.368255 0
M  V30 7732 C 720.283 1.40942 1.02036 0
M  V30 7733 O 721.459 1.74011 1.01401 0
M  V30 7734 C 718.524 3.14903 1.45041 0
M  V30 7735 C 717.585 4.21442 0.817615 0
M  V30 7736 C 716.818 5.00677 1.8482 0
M  V30 7737 O 717.041 4.80644 3.07145 0
M  V30 7738 O 715.975 5.84559 1.43438 0
M  V30 7739 H 719.801 3.0232 -0.289219 0
M  V30 7740 H 717.386 1.47951 -0.207555 0
M  V30 7741 H 719.268 3.66612 2.07783 0
M  V30 7742 H 717.943 2.47031 2.09182 0
M  V30 7743 H 716.85 3.73791 0.151931 0
M  V30 7744 H 718.183 4.9171 0.219564 0
M  V30 7745 N 719.835 0.176821 1.56605 0
M  V30 7746 C 720.782 -0.751312 2.18229 0
M  V30 7747 C 721.752 -1.22297 1.12395 0
M  V30 7748 O 722.937 -1.29015 1.40569 0
M  V30 7749 C 720.077 -1.97291 2.83143 0
M  V30 7750 C 719.19 -1.54431 4.03454 0
M  V30 7751 C 718.325 -2.72 4.56278 0
M  V30 7752 C 717.364 -2.25657 5.68986 0
M  V30 7753 N 716.501 -3.36338 6.16296 0
M  V30 7754 H 721.341 -0.219033 2.97194 0
M  V30 7755 H 718.878 -0.0963803 1.46784 0
M  V30 7756 H 720.836 -2.68949 3.1894 0
M  V30 7757 H 719.466 -2.4788 2.06773 0
M  V30 7758 H 718.518 -0.724273 3.73441 0
M  V30 7759 H 719.83 -1.16417 4.85024 0
M  V30 7760 H 718.984 -3.51806 4.94285 0
M  V30 7761 H 717.723 -3.13277 3.73777 0
M  V30 7762 H 716.728 -1.44299 5.30526 0
M  V30 7763 H 717.953 -1.85432 6.53293 0
M  V30 7764 H 715.899 -3.7718 5.36723 0
M  V30 7765 H 715.816 -3.02435 6.9287 0
M  V30 7766 H 717.084 -4.16413 6.58954 0
M  V30 7767 N 721.313 -1.57302 -0.09688 0
M  V30 7768 C 722.243 -2.0497 -1.11846 0
M  V30 7769 C 723.224 -0.938278 -1.41882 0
M  V30 7770 O 724.409 -1.20943 -1.51942 0
M  V30 7771 C 721.539 -2.47264 -2.43881 0
M  V30 7772 C 720.493 -3.62053 -2.28257 0
M  V30 7773 C 719.819 -3.90318 -3.65453 0
M  V30 7774 C 721.119 -4.93005 -1.72461 0
M  V30 7775 H 722.813 -2.90567 -0.721888 0
M  V30 7776 H 720.359 -1.39786 -0.345803 0
M  V30 7777 H 722.312 -2.7922 -3.15617 0
M  V30 7778 H 721.036 -1.58664 -2.8547 0
M  V30 7779 H 719.695 -3.30341 -1.58967 0
M  V30 7780 H 719.343 -2.98889 -4.04567 0
M  V30 7781 H 719.043 -4.67597 -3.55846 0
M  V30 7782 H 720.567 -4.24747 -4.3866 0
M  V30 7783 H 721.981 -5.23354 -2.34036 0
M  V30 7784 H 720.378 -5.74436 -1.73618 0
M  V30 7785 H 721.448 -4.80053 -0.683898 0
M  V30 7786 N 722.791 0.367657 -1.53252 0
M  V30 7787 C 724.04 1.10782 -1.68554 0
M  V30 7788 C 724.353 1.90523 -0.442765 0
M  V30 7789 O 725.559 2.6729 -0.47629 0
M  V30 7790 C 724.015 2.01863 -2.97959 0
M  V30 7791 C 723.623 1.27443 -4.29491 0
M  V30 7792 C 725.367 2.75883 -3.22628 0
M  V30 7793 C 723.274 2.17414 -5.49987 0
M  V30 7794 H 722.204 0.417272 -0.628013 0
M  V30 7795 H 724.855 0.368971 -1.79752 0
M  V30 7796 H 723.237 2.7947 -2.80558 0
M  V30 7797 H 724.411 0.549138 -4.57516 0
M  V30 7798 H 722.726 0.652935 -4.11249 0
M  V30 7799 H 725.323 3.43421 -4.09837 0
M  V30 7800 H 725.666 3.41138 -2.38601 0
M  V30 7801 H 726.199 2.0536 -3.40693 0
M  V30 7802 H 722.938 1.5674 -6.36485 0
M  V30 7803 H 722.458 2.87799 -5.26243 0
M  V30 7804 H 724.137 2.77019 -5.84696 0
M  V30 7805 N 724.269 1.44576 0.627338 0
M  V30 7806 C 725.216 1.51734 1.73912 0
M  V30 7807 C 726.186 0.364745 1.62046 0
M  V30 7808 O 727.371 0.575503 1.81914 0
M  V30 7809 C 724.511 1.47116 3.12171 0
M  V30 7810 C 723.624 2.72778 3.34986 0
M  V30 7811 C 722.759 2.59968 4.63239 0
M  V30 7812 C 721.798 3.80776 4.79245 0
M  V30 7813 N 720.935 3.66618 5.98778 0
M  V30 7814 H 725.775 2.46722 1.6713 0
M  V30 7815 H 723.312 1.22444 0.815224 0
M  V30 7816 H 725.27 1.42429 3.92135 0
M  V30 7817 H 723.9 0.556928 3.17959 0
M  V30 7818 H 722.952 2.87637 2.48936 0
M  V30 7819 H 724.264 3.62441 3.42692 0
M  V30 7820 H 723.418 2.53135 5.51369 0
M  V30 7821 H 722.157 1.67872 4.57898 0
M  V30 7822 H 721.162 3.87989 3.89544 0
M  V30 7823 H 722.387 4.73913 4.86398 0
M  V30 7824 H 720.333 2.77277 5.9452 0
M  V30 7825 H 720.25 4.499 6.07557 0
M  V30 7826 H 721.518 3.63684 6.89459 0
M  V30 7827 N 725.747 -0.868086 1.31537 0
M  V30 7828 C 726.694 -1.97548 1.19346 0
M  V30 7829 C 727.664 -1.65913 0.0787922 0
M  V30 7830 O 728.849 -1.89129 0.251985 0
M  V30 7831 C 725.989 -3.32922 0.908692 0
M  V30 7832 C 725.102 -3.77141 2.10687 0
M  V30 7833 C 724.237 -5.01241 1.75873 0
M  V30 7834 C 723.276 -5.37914 2.92088 0
M  V30 7835 N 722.413 -6.53192 2.57457 0
M  V30 7836 H 727.253 -2.07307 2.14074 0
M  V30 7837 H 724.79 -1.01483 1.06487 0
M  V30 7838 H 726.748 -4.10867 0.724138 0
M  V30 7839 H 725.378 -3.228 -0.0017611 0
M  V30 7840 H 724.43 -2.94961 2.40213 0
M  V30 7841 H 725.742 -4.00248 2.97663 0
M  V30 7842 H 724.896 -5.86858 1.53891 0
M  V30 7843 H 723.635 -4.80041 0.86091 0
M  V30 7844 H 722.64 -4.50814 3.14717 0
M  V30 7845 H 723.865 -5.61077 3.82582 0
M  V30 7846 H 721.811 -6.33536 1.702 0
M  V30 7847 H 721.728 -6.76252 3.37963 0
M  V30 7848 H 722.996 -7.41997 2.38873 0
M  V30 7849 N 727.225 -1.14528 -1.08264 0
M  V30 7850 C 728.641 -0.885976 -1.3275 0
M  V30 7851 C 728.841 0.472096 -1.95892 0
M  V30 7852 O 727.897 1.21606 -2.21288 0
M  V30 7853 C 729.21 -2.01982 -2.22764 0
M  V30 7854 C 730.758 -2.05329 -2.36239 0
M  V30 7855 C 731.233 -3.1801 -3.29596 0
M  V30 7856 N 732.724 -3.17598 -3.37173 0
M  V30 7857 C 733.459 -4.01426 -4.09444 0
M  V30 7858 N 732.955 -4.95297 -4.8441 0
M  V30 7859 N 734.748 -3.89482 -4.0529 0
M  V30 7860 H 726.899 -2.01996 -0.656607 0
M  V30 7861 H 729.162 -0.880274 -0.351884 0
M  V30 7862 H 728.868 -2.99964 -1.83615 0
M  V30 7863 H 728.742 -1.94421 -3.23234 0
M  V30 7864 H 731.129 -1.07953 -2.74646 0
M  V30 7865 H 731.21 -2.1696 -1.35506 0
M  V30 7866 H 730.854 -4.15633 -2.9191 0
M  V30 7867 H 730.784 -3.03616 -4.30261 0
M  V30 7868 H 733.275 -2.4961 -2.83731 0
M  V30 7869 H 733.588 -5.55723 -5.37021 0
M  V30 7870 H 731.933 -4.99293 -4.83457 0
M  V30 7871 H 735.124 -3.15465 -3.45832 0
M  V30 7872 H 735.297 -4.55039 -4.6135 0
M  V30 7873 N 728.703 1.26451 -0.940633 0
M  V30 7874 C 729.651 2.28389 -0.440581 0
M  V30 7875 C 730.645 1.62402 0.481859 0
M  V30 7876 O 731.851 1.76361 0.360132 0
M  V30 7877 H 728.226 0.741716 -0.123938 0
M  V30 7878 H 730.197 2.67967 -1.31288 0
M  V30 7879 C 728.946 3.46576 0.279364 0
M  V30 7880 H 728.269 3.97574 -0.421274 0
M  V30 7881 H 729.709 4.19826 0.59348 0
M  V30 7882 C 728.168 3.01815 1.49697 0
M  V30 7883 O 728.698 3.06607 2.59529 0
M  V30 7884 N 726.904 2.57163 1.35334 0
M  V30 7885 H 726.451 2.53464 0.459743 0
M  V30 7886 H 726.409 2.27578 2.16923 0
M  V30 7887 N 730.181 0.707592 1.40822 0
M  V30 7888 C 731.427 0.244031 2.01326 0
M  V30 7889 C 731.76 -1.15722 1.55955 0
M  V30 7890 O 731.035 -1.78347 0.776044 0
M  V30 7891 C 731.318 0.315128 3.58718 0
M  V30 7892 C 731.171 1.75419 4.14184 0
M  V30 7893 C 732.49 -0.318251 4.38948 0
M  V30 7894 H 729.609 0.0901471 0.731466 0
M  V30 7895 H 732.251 0.898584 1.67408 0
M  V30 7896 H 730.401 -0.242176 3.87744 0
M  V30 7897 H 732.073 2.36626 3.95987 0
M  V30 7898 H 730.316 2.28449 3.68773 0
M  V30 7899 H 730.987 1.75538 5.23345 0
M  V30 7900 H 733.463 0.156514 4.15806 0
M  V30 7901 H 732.339 -0.238019 5.48384 0
M  V30 7902 H 732.6 -1.40067 4.19325 0
M  V30 7903 N 731.66 -1.50943 0.453197 0
M  V30 7904 C 733.071 -1.86699 -0.00619892 0
M  V30 7905 C 733.422 -1.3693 -1.40515 0
M  V30 7906 O 732.547 -0.726715 -2.03833 0
M  V30 7907 C 733.142 -3.38795 -0.018025 0
M  V30 7908 C 731.701 -3.74028 -0.421885 0
M  V30 7909 C 730.848 -2.74752 0.375087 0
M  V30 7910 H 733.799 -1.43942 0.668317 0
M  V30 7911 H 733.82 -3.71468 -0.824125 0
M  V30 7912 H 733.332 -3.74988 1.00028 0
M  V30 7913 H 731.433 -3.43431 -1.44521 0
M  V30 7914 H 731.546 -4.78908 -0.135664 0
M  V30 7915 H 729.91 -2.5414 -0.168794 0
M  V30 7916 H 730.693 -3.13787 1.39256 0
M  V30 7917 N 733.138 -0.185124 -1.56509 0
M  V30 7918 C 734.07 0.771401 -2.15829 0
M  V30 7919 C 735.083 1.18392 -1.11747 0
M  V30 7920 O 736.272 1.12137 -1.38879 0
M  V30 7921 C 733.372 2.05169 -2.69739 0
M  V30 7922 C 732.545 1.80056 -3.98621 0
M  V30 7923 C 731.604 2.92435 -4.37456 0
M  V30 7924 O 730.63 2.62473 -5.05071 0
M  V30 7925 N 731.832 4.20554 -4.00143 0
M  V30 7926 H 734.597 0.264184 -2.98533 0
M  V30 7927 H 732.158 -0.00281069 -1.619 0
M  V30 7928 H 734.15 2.7947 -2.92709 0
M  V30 7929 H 732.72 2.47041 -1.91545 0
M  V30 7930 H 731.94 0.895862 -3.83885 0
M  V30 7931 H 733.228 1.60662 -4.82768 0
M  V30 7932 H 732.626 4.47753 -3.45736 0
M  V30 7933 H 731.183 4.91514 -4.28085 0
M  V30 7934 N 734.616 1.57351 0.0885366 0
M  V30 7935 C 735.563 2.02523 1.10693 0
M  V30 7936 C 736.533 0.902736 1.39427 0
M  V30 7937 O 737.718 1.16921 1.50779 0
M  V30 7938 C 734.858 2.46013 2.42016 0
M  V30 7939 C 733.971 3.7181 2.19957 0
M  V30 7940 C 733.106 4.04152 3.44724 0
M  V30 7941 C 732.145 5.2304 3.17956 0
M  V30 7942 N 731.282 5.51102 4.35007 0
M  V30 7943 H 736.122 2.89302 0.714742 0
M  V30 7944 H 733.659 1.43084 0.341378 0
M  V30 7945 H 735.617 2.69274 3.18665 0
M  V30 7946 H 734.247 1.62235 2.79069 0
M  V30 7947 H 733.299 3.55987 1.34079 0
M  V30 7948 H 734.611 4.58604 1.96173 0
M  V30 7949 H 733.765 4.28225 4.29777 0
M  V30 7950 H 732.504 3.15893 3.71568 0
M  V30 7951 H 731.509 4.98781 2.31296 0
M  V30 7952 H 732.734 6.12902 2.92451 0
M  V30 7953 H 730.68 4.65802 4.61914 0
M  V30 7954 H 730.597 6.3228 4.14437 0
M  V30 7955 H 731.865 5.79714 5.21106 0
M  V30 7956 N 736.094 -0.359525 1.53444 0
M  V30 7957 C 737.024 -1.44662 1.8329 0
M  V30 7958 C 738.005 -1.55617 0.68683 0
M  V30 7959 O 739.19 -1.70086 0.93725 0
M  V30 7960 C 736.32 -2.81923 2.02822 0
M  V30 7961 C 735.274 -2.85787 3.18606 0
M  V30 7962 C 734.6 -4.25781 3.23442 0
M  V30 7963 C 735.9 -2.52762 4.57065 0
M  V30 7964 H 737.594 -1.19934 2.74329 0
M  V30 7965 H 735.14 -0.575517 1.31999 0
M  V30 7966 H 737.093 -3.58005 2.22285 0
M  V30 7967 H 735.817 -3.08051 1.085 0
M  V30 7968 H 734.476 -2.12157 2.98973 0
M  V30 7969 H 734.124 -4.48994 2.26745 0
M  V30 7970 H 733.824 -4.29281 4.01238 0
M  V30 7971 H 735.348 -5.03727 3.45096 0
M  V30 7972 H 736.762 -3.18557 4.76649 0
M  V30 7973 H 735.159 -2.67569 5.37147 0
M  V30 7974 H 736.229 -1.47993 4.61764 0
M  V30 7975 N 737.572 -1.44907 -0.619662 0
M  V30 7976 C 738.797 -1.52021 -1.41083 0
M  V30 7977 C 739.222 -0.14976 -1.87503 0
M  V30 7978 O 738.58 0.863303 -1.59426 0
M  V30 7979 C 738.628 -2.49911 -2.59955 0
M  V30 7980 O 737.732 -2.00857 -3.60181 0
M  V30 7981 H 737.073 -0.512912 -0.421684 0
M  V30 7982 H 739.603 -1.90149 -0.755282 0
M  V30 7983 H 739.613 -2.68323 -3.07354 0
M  V30 7984 H 738.288 -3.4945 -2.25516 0
M  V30 7985 H 736.865 -1.92265 -3.19513 0
M  V30 7986 N 739.05 0.861098 -1.31996 0
M  V30 7987 C 740.461 1.43065 -1.19955 0
M  V30 7988 C 740.812 1.95273 0.190489 0
M  V30 7989 O 739.937 1.87012 1.08882 0
M  V30 7990 C 740.532 2.60052 -2.1716 0
M  V30 7991 C 739.091 3.13026 -2.09026 0
M  V30 7992 C 738.238 1.85756 -2.05888 0
M  V30 7993 H 741.189 0.668834 -1.43918 0
M  V30 7994 H 741.21 3.37016 -1.76637 0
M  V30 7995 H 740.722 2.22024 -3.18319 0
M  V30 7996 H 738.823 3.55653 -1.11092 0
M  V30 7997 H 738.936 3.74707 -2.98549 0
M  V30 7998 H 737.3 2.05088 -1.51033 0
M  V30 7999 H 738.083 1.49954 -3.08818 0
M  V30 8000 N 740.528 1.15101 1.07655 0
M  V30 8001 C 741.478 0.813448 2.12995 0
M  V30 8002 C 742.462 -0.200899 1.59641 0
M  V30 8003 O 743.654 -0.00209918 1.77 0
M  V30 8004 C 740.783 0.301078 3.41977 0
M  V30 8005 C 739.869 1.3454 4.02194 0
M  V30 8006 N 740.26 2.55181 4.36711 0
M  V30 8007 C 738.558 1.19742 4.29625 0
M  V30 8008 C 739.259 3.22094 4.84387 0
M  V30 8009 N 738.235 2.49486 4.82968 0
M  V30 8010 H 742.037 1.73105 2.37511 0
M  V30 8011 H 739.551 1.03601 1.25063 0
M  V30 8012 H 741.548 0.040914 4.1688 0
M  V30 8013 H 740.208 -0.610629 3.18907 0
M  V30 8014 H 741.219 2.92349 4.27496 0
M  V30 8015 H 737.896 0.345353 4.16069 0
M  V30 8016 H 739.286 4.24996 5.20411 0
M  V30 8017 N 742.006 -1.2595 0.947325 0
M  V30 8018 C 743.231 -1.98083 0.614633 0
M  V30 8019 C 743.656 -1.70013 -0.804815 0
M  V30 8020 O 743.014 -0.95175 -1.54309 0
M  V30 8021 C 743.062 -3.4993 0.870706 0
M  V30 8022 O 742.166 -4.12364 -0.0541451 0
M  V30 8023 H 741.507 -0.621232 0.234451 0
M  V30 8024 H 744.037 -1.60259 1.27193 0
M  V30 8025 H 744.047 -4.00198 0.794051 0
M  V30 8026 H 742.722 -3.69691 1.90529 0
M  V30 8027 H 741.299 -3.72826 0.0740917 0
M  V30 8028 N 743.484 -0.715051 -1.40445 0
M  V30 8029 C 744.431 -0.0621393 -2.30716 0
M  V30 8030 C 745.401 0.750871 -1.48159 0
M  V30 8031 O 746.586 0.714928 -1.76899 0
M  V30 8032 C 743.726 0.854036 -3.34365 0
M  V30 8033 C 742.839 0.0305565 -4.31989 0
M  V30 8034 C 741.974 0.946162 -5.22706 0
M  V30 8035 C 741.013 0.116741 -6.11989 0
M  V30 8036 N 740.15 0.987194 -6.95125 0
M  V30 8037 H 744.99 -0.83764 -2.85985 0
M  V30 8038 H 742.527 -0.424759 -1.40834 0
M  V30 8039 H 744.485 1.39946 -3.93028 0
M  V30 8040 H 743.115 1.59572 -2.806 0
M  V30 8041 H 742.167 -0.632044 -3.75112 0
M  V30 8042 H 743.479 -0.611615 -4.95036 0
M  V30 8043 H 742.633 1.56014 -5.86297 0
M  V30 8044 H 741.372 1.62216 -4.59932 0
M  V30 8045 H 740.377 -0.510176 -5.47428 0
M  V30 8046 H 741.602 -0.555742 -6.76822 0
M  V30 8047 H 739.548 1.64885 -6.3494 0
M  V30 8048 H 739.465 0.401046 -7.54936 0
M  V30 8049 H 740.733 1.58737 -7.63166 0
M  V30 8050 N 744.962 1.50701 -0.461195 0
M  V30 8051 C 746.378 1.59187 -0.114786 0
M  V30 8052 C 746.578 1.4702 1.37794 0
M  V30 8053 O 745.634 1.32361 2.15027 0
M  V30 8054 C 746.947 2.93453 -0.656167 0
M  V30 8055 C 748.495 3.06824 -0.618715 0
M  V30 8056 C 748.97 4.4365 -1.13747 0
M  V30 8057 N 750.461 4.50035 -1.09646 0
M  V30 8058 C 751.196 5.54278 -1.46846 0
M  V30 8059 N 750.692 6.65822 -1.91448 0
M  V30 8060 N 752.485 5.44767 -1.38512 0
M  V30 8061 H 744.636 1.56853 -1.43216 0
M  V30 8062 H 746.899 0.740712 -0.59165 0
M  V30 8063 H 746.605 3.07802 -1.7015 0
M  V30 8064 H 746.479 3.77082 -0.0942261 0
M  V30 8065 H 748.866 2.92129 0.417685 0
M  V30 8066 H 748.947 2.24976 -1.21734 0
M  V30 8067 H 748.591 4.59093 -2.17245 0
M  V30 8068 H 748.521 5.24074 -0.515153 0
M  V30 8069 H 751.012 3.69988 -0.769217 0
M  V30 8070 H 751.325 7.41413 -2.18007 0
M  V30 8071 H 749.67 6.66968 -1.95393 0
M  V30 8072 H 752.861 4.56511 -1.03516 0
M  V30 8073 H 753.034 6.25889 -1.6783 0
M  V30 8074 N 746.441 0.193421 1.56409 0
M  V30 8075 C 747.852 -0.319471 1.83946 0
M  V30 8076 C 748.203 -1.61505 1.11403 0
M  V30 8077 O 747.328 -2.13139 0.374289 0
M  V30 8078 C 747.923 -0.586411 3.33686 0
M  V30 8079 C 746.482 -1.04368 3.61641 0
M  V30 8080 C 745.629 -0.0913834 2.77149 0
M  V30 8081 H 748.58 0.417242 1.53117 0
M  V30 8082 H 748.601 -1.43591 3.52366 0
M  V30 8083 H 748.113 0.356701 3.86457 0
M  V30 8084 H 746.214 -2.00113 3.14302 0
M  V30 8085 H 746.327 -0.937549 4.69837 0
M  V30 8086 H 744.691 -0.592954 2.47702 0
M  V30 8087 H 745.474 0.846142 3.32709 0
M  V30 8088 N 747.919 -1.57396 -0.0801906 0
M  V30 8089 C 749.196 -1.77883 -0.813451 0
M  V30 8090 C 749.576 -0.778879 -1.96206 0
M  V30 8091 O 748.924 0.189683 -2.27711 0
M  V30 8092 C 749.134 -3.24116 -1.2942 0
M  V30 8093 C 750.482 -3.87714 -1.73098 0
M  V30 8094 O 751.506 -3.27956 -1.39007 0
M  V30 8095 O 750.365 -4.92828 -2.36184 0
M  V30 8096 H 747.459 -0.729727 -0.389138 0
M  V30 8097 H 750.005 -1.69591 -0.0609166 0
M  V30 8098 H 748.777 -3.88443 -0.471947 0
M  V30 8099 H 748.4 -3.371 -2.1083 0
M  V30 8100 N 749.397 0.351382 -1.53633 0
M  V30 8101 C 750.646 1.08988 -1.69719 0
M  V30 8102 C 750.959 1.90043 -0.462948 0
M  V30 8103 O 752.165 2.66769 -0.504613 0
M  V30 8104 C 750.621 1.98691 -3.00083 0
M  V30 8105 C 750.229 1.22881 -4.30818 0
M  V30 8106 C 751.973 2.72446 -3.25536 0
M  V30 8107 C 749.88 2.11568 -5.52262 0
M  V30 8108 H 748.81 0.410588 -0.632403 0
M  V30 8109 H 751.461 0.349886 -1.80133 0
M  V30 8110 H 749.843 2.76478 -2.83506 0
M  V30 8111 H 751.017 0.500582 -4.58073 0
M  V30 8112 H 749.332 0.60928 -4.11918 0
M  V30 8113 H 751.929 3.39055 -4.13456 0
M  V30 8114 H 752.272 3.38588 -2.42206 0
M  V30 8115 H 752.805 2.01735 -3.42852 0
M  V30 8116 H 749.544 1.4998 -6.38111 0
M  V30 8117 H 749.064 2.82201 -5.29266 0
M  V30 8118 H 750.743 2.70802 -5.87601 0
M  V30 8119 N 750.875 1.45233 0.611969 0
M  V30 8120 C 751.805 1.5641 1.73373 0
M  V30 8121 C 752.786 0.415896 1.64937 0
M  V30 8122 O 753.971 0.638478 1.83404 0
M  V30 8123 C 751.101 1.52627 3.11965 0
M  V30 8124 C 750.055 2.66119 3.35208 0
M  V30 8125 C 749.381 2.4739 4.74028 0
M  V30 8126 C 750.681 4.08157 3.25891 0
M  V30 8127 H 752.375 2.50307 1.64277 0
M  V30 8128 H 749.921 1.20467 0.788904 0
M  V30 8129 H 751.874 1.59043 3.90235 0
M  V30 8130 H 750.598 0.552564 3.21892 0
M  V30 8131 H 749.257 2.59123 2.59327 0
M  V30 8132 H 748.905 1.48168 4.80682 0
M  V30 8133 H 748.605 3.23494 4.90536 0
M  V30 8134 H 750.129 2.55653 5.54503 0
M  V30 8135 H 751.543 4.1642 3.9404 0
M  V30 8136 H 749.94 4.84617 3.5393 0
M  V30 8137 H 751.01 4.30374 2.23397 0
M  V30 8138 N 752.353 -0.854086 1.3245 0
M  V30 8139 C 753.3 -1.96271 1.21434 0
M  V30 8140 C 754.27 -1.6582 0.0963851 0
M  V30 8141 O 755.455 -1.88851 0.27203 0
M  V30 8142 C 752.595 -3.31939 0.943952 0
M  V30 8143 C 751.708 -3.74885 2.14675 0
M  V30 8144 C 750.843 -4.99347 1.81179 0
M  V30 8145 C 749.882 -5.34785 2.97777 0
M  V30 8146 N 749.019 -6.50425 2.6437 0
M  V30 8147 H 753.859 -2.05025 2.16261 0
M  V30 8148 H 751.396 -1.00348 1.07558 0
M  V30 8149 H 753.354 -4.10076 0.767675 0
M  V30 8150 H 751.984 -3.22784 0.0324763 0
M  V30 8151 H 751.036 -2.92396 2.43328 0
M  V30 8152 H 752.348 -3.97068 3.01891 0
M  V30 8153 H 751.502 -5.85193 1.60107 0
M  V30 8154 H 750.241 -4.79101 0.911777 0
M  V30 8155 H 749.246 -4.47451 3.1948 0
M  V30 8156 H 750.471 -5.56988 3.88511 0
M  V30 8157 H 748.417 -6.31695 1.7691 0
M  V30 8158 H 748.334 -6.7263 3.45116 0
M  V30 8159 H 749.602 -7.39422 2.46729 0
M  V30 8160 N 753.831 -1.1567 -1.07043 0
M  V30 8161 C 755.059 -0.957471 -1.83412 0
M  V30 8162 C 755.474 0.494271 -1.82215 0
M  V30 8163 O 754.831 1.34288 -1.23584 0
M  V30 8164 C 754.882 -1.46784 -3.30359 0
M  V30 8165 O 754.603 -2.86271 -3.31633 0
M  V30 8166 C 756.104 -1.31054 -4.23485 0
M  V30 8167 H 753.324 -0.33986 -0.578564 0
M  V30 8168 H 755.868 -1.53518 -1.35102 0
M  V30 8169 H 754.023 -0.932586 -3.76007 0
M  V30 8170 H 754.437 -3.0948 -4.23465 0
M  V30 8171 H 755.911 -1.71605 -5.24648 0
M  V30 8172 H 756.388 -0.255107 -4.38458 0
M  V30 8173 H 756.994 -1.83503 -3.83676 0
M  V30 8174 N 755.309 1.25446 -0.953992 0
M  V30 8175 C 756.219 2.29632 -0.480264 0
M  V30 8176 C 757.235 1.68025 0.452071 0
M  V30 8177 O 758.411 1.98703 0.328472 0
M  V30 8178 C 755.476 3.45903 0.234974 0
M  V30 8179 C 754.537 4.22953 -0.735495 0
M  V30 8180 C 753.77 5.33672 -0.0542957 0
M  V30 8181 O 753.993 5.58477 1.16018 0
M  V30 8182 O 752.927 5.9734 -0.739509 0
M  V30 8183 H 756.753 2.72242 -1.34602 0
M  V30 8184 H 754.338 1.30883 -0.720419 0
M  V30 8185 H 756.22 4.16552 0.637341 0
M  V30 8186 H 754.895 3.05296 1.07592 0
M  V30 8187 H 753.802 3.54734 -1.18806 0
M  V30 8188 H 755.135 4.67341 -1.54444 0
M  V30 8189 N 756.787 0.722489 1.40064 0
M  V30 8190 C 758.012 0.273446 2.05589 0
M  V30 8191 C 758.437 -1.07875 1.54093 0
M  V30 8192 O 757.795 -1.68095 0.679252 0
M  V30 8193 C 757.843 0.271023 3.5958 0
M  V30 8194 O 756.947 -0.745499 4.05606 0
M  V30 8195 H 756.288 0.126856 0.65177 0
M  V30 8196 H 758.818 0.984906 1.79334 0
M  V30 8197 H 758.828 0.111084 4.07849 0
M  V30 8198 H 757.503 1.25776 3.96425 0
M  V30 8199 H 756.08 -0.552719 3.68781 0
M  V30 8200 N 758.265 -1.50454 0.469181 0
M  V30 8201 C 759.195 -2.31353 -0.31592 0
M  V30 8202 C 760.176 -1.38172 -0.992094 0
M  V30 8203 O 761.361 -1.67093 -0.989633 0
M  V30 8204 C 758.491 -3.1786 -1.39937 0
M  V30 8205 C 757.445 -4.19578 -0.844909 0
M  V30 8206 C 756.771 -4.9481 -2.0265 0
M  V30 8207 C 758.071 -5.22106 0.142499 0
M  V30 8208 H 759.765 -2.97237 0.359269 0
M  V30 8209 H 757.311 -1.42942 0.174224 0
M  V30 8210 H 759.264 -3.7325 -1.95607 0
M  V30 8211 H 757.988 -2.49858 -2.1033 0
M  V30 8212 H 756.647 -3.65285 -0.310189 0
M  V30 8213 H 756.295 -4.23282 -2.71737 0
M  V30 8214 H 755.995 -5.63613 -1.66174 0
M  V30 8215 H 757.519 -5.53035 -2.58815 0
M  V30 8216 H 758.933 -5.72378 -0.324966 0
M  V30 8217 H 757.33 -5.98618 0.421441 0
M  V30 8218 H 758.4 -4.7297 1.06901 0
M  V30 8219 N 759.743 -0.201713 -1.56304 0
M  V30 8220 C 760.673 0.71155 -2.22394 0
M  V30 8221 C 761.654 1.21625 -1.18917 0
M  V30 8222 O 762.839 1.26388 -1.47444 0
M  V30 8223 C 759.969 1.92837 -2.88845 0
M  V30 8224 C 758.923 1.55831 -3.98623 0
M  V30 8225 C 758.249 2.85228 -4.52271 0
M  V30 8226 C 759.549 0.763249 -5.16693 0
M  V30 8227 H 761.243 0.160573 -2.98969 0
M  V30 8228 H 758.789 0.0757916 -1.438 0
M  V30 8229 H 760.742 2.57253 -3.33764 0
M  V30 8230 H 759.466 2.50398 -2.09686 0
M  V30 8231 H 758.125 0.9377 -3.54405 0
M  V30 8232 H 757.773 3.40893 -3.69866 0
M  V30 8233 H 757.473 2.6121 -5.26349 0
M  V30 8234 H 758.997 3.50622 -4.99897 0
M  V30 8235 H 760.411 1.31066 -5.58117 0
M  V30 8236 H 758.808 0.620935 -5.96879 0
M  V30 8237 H 759.878 -0.234322 -4.84334 0
M  V30 8238 N 761.222 1.57436 0.0718424 0
M  V30 8239 C 762.633 1.75975 0.623678 0
M  V30 8240 C 762.984 0.827155 1.77912 0
M  V30 8241 O 762.109 0.0112425 2.16397 0
M  V30 8242 C 762.704 3.1911 1.13816 0
M  V30 8243 C 761.263 3.38994 1.63586 0
M  V30 8244 C 760.41 2.71684 0.555261 0
M  V30 8245 H 763.361 1.57948 -0.154328 0
M  V30 8246 H 763.382 3.23267 2.00696 0
M  V30 8247 H 762.894 3.86962 0.296998 0
M  V30 8248 H 760.995 2.76256 2.50027 0
M  V30 8249 H 761.108 4.47436 1.71283 0
M  V30 8250 H 759.472 2.34236 1.00029 0
M  V30 8251 H 760.255 3.42191 -0.275712 0
M  V30 8252 N 762.7 -0.34323 1.53817 0
M  V30 8253 C 763.647 -1.42153 1.81827 0
M  V30 8254 C 764.617 -1.52251 0.663996 0
M  V30 8255 O 765.802 -1.67784 0.908461 0
M  V30 8256 C 762.942 -2.78799 2.03384 0
M  V30 8257 C 762.055 -2.7749 3.31094 0
M  V30 8258 C 761.19 -4.05856 3.42717 0
M  V30 8259 C 760.229 -3.98776 4.64375 0
M  V30 8260 N 759.366 -5.18833 4.73029 0
M  V30 8261 H 764.206 -1.17567 2.73829 0
M  V30 8262 H 761.743 -0.569506 1.35628 0
M  V30 8263 H 763.701 -3.58211 2.13872 0
M  V30 8264 H 762.331 -3.01736 1.14696 0
M  V30 8265 H 761.383 -1.90182 3.29446 0
M  V30 8266 H 762.695 -2.68137 4.206 0
M  V30 8267 H 761.849 -4.93691 3.52638 0
M  V30 8268 H 760.588 -4.1799 2.51267 0
M  V30 8269 H 759.593 -3.09325 4.5453 0
M  V30 8270 H 760.818 -3.88224 5.57189 0
M  V30 8271 H 758.764 -5.31511 3.84489 0
M  V30 8272 H 758.681 -5.11737 5.56472 0
M  V30 8273 H 759.949 -6.08439 4.87261 0
M  V30 8274 N 764.178 -1.45556 -0.604258 0
M  V30 8275 C 765.108 -1.57327 -1.72541 0
M  V30 8276 C 766.089 -0.424637 -1.64714 0
M  V30 8277 O 767.274 -0.648196 -1.83063 0
M  V30 8278 C 764.404 -1.54279 -3.11152 0
M  V30 8279 C 763.358 -2.67893 -3.33792 0
M  V30 8280 C 762.684 -2.499 -4.72709 0
M  V30 8281 C 763.984 -4.0988 -3.23722 0
M  V30 8282 H 765.678 -2.51175 -1.62947 0
M  V30 8283 H 763.224 -1.20884 -0.782504 0
M  V30 8284 H 765.177 -1.6111 -3.89386 0
M  V30 8285 H 763.901 -0.569627 -3.21594 0
M  V30 8286 H 762.56 -2.60495 -2.57949 0
M  V30 8287 H 762.208 -1.50715 -4.79889 0
M  V30 8288 H 761.908 -3.26091 -4.88813 0
M  V30 8289 H 763.432 -2.5859 -5.5314 0
M  V30 8290 H 764.846 -4.18503 -3.91826 0
M  V30 8291 H 763.243 -4.86487 -3.51355 0
M  V30 8292 H 764.313 -4.31553 -2.21111 0
M  V30 8293 N 765.656 0.84705 -1.32902 0
M  V30 8294 C 766.933 1.58583 -1.14503 0
M  V30 8295 C 767.313 2.09075 0.291724 0
M  V30 8296 O 766.661 1.88636 1.28952 0
M  V30 8297 C 766.871 2.72605 -2.17916 0
M  V30 8298 C 768.219 3.41993 -2.51646 0
M  V30 8299 O 769.243 2.82838 -2.1652 0
M  V30 8300 O 768.102 4.48761 -3.1189 0
M  V30 8301 H 765.196 0.698756 -0.442345 0
M  V30 8302 H 767.742 0.890516 -1.44457 0
M  V30 8303 H 766.514 2.32876 -3.14459 0
M  V30 8304 H 766.137 3.49807 -1.89 0
M  V30 8305 N 767.134 1.16236 1.06428 0
M  V30 8306 C 768.097 0.870163 2.1204 0
M  V30 8307 C 769.097 -0.134239 1.60239 0
M  V30 8308 O 770.287 0.0964932 1.73933 0
M  V30 8309 C 767.419 0.301033 3.39568 0
M  V30 8310 H 768.612 1.8064 2.39394 0
M  V30 8311 H 766.165 0.971116 1.2247 0
M  V30 8312 H 766.9 -0.642948 3.17863 0
M  V30 8313 H 766.685 1.02475 3.78472 0
M  V30 8314 H 768.175 0.114494 4.17443 0
M  V30 8315 N 768.612 -1.24939 0.960631 0
M  V30 8316 C 769.575 -2.239 0.49006 0
M  V30 8317 C 770.575 -1.55497 -0.409535 0
M  V30 8318 O 771.765 -1.72978 -0.205984 0
M  V30 8319 C 768.897 -3.39654 -0.291193 0
M  V30 8320 H 770.09 -2.67044 1.36482 0
M  V30 8321 H 767.643 -1.37429 0.744505 0
M  V30 8322 H 768.378 -3.01939 -1.18336 0
M  V30 8323 H 768.163 -3.90496 0.354276 0
M  V30 8324 H 769.653 -4.13125 -0.609693 0
M  V30 8325 N 770.09 -0.729906 -1.39679 0
M  V30 8326 C 771.02 -0.101618 -2.33279 0
M  V30 8327 C 772.001 0.729854 -1.53646 0
M  V30 8328 O 773.186 0.67587 -1.82059 0
M  V30 8329 C 770.316 0.81024 -3.37716 0
M  V30 8330 C 769.27 0.0833126 -4.27919 0
M  V30 8331 C 768.596 1.11185 -5.23012 0
M  V30 8332 C 769.896 -1.07107 -5.112 0
M  V30 8333 H 771.59 -0.883452 -2.86069 0
M  V30 8334 H 769.136 -0.426283 -1.37546 0
M  V30 8335 H 771.089 1.25927 -4.02145 0
M  V30 8336 H 769.813 1.62413 -2.83354 0
M  V30 8337 H 768.472 -0.346043 -3.64963 0
M  V30 8338 H 768.12 1.91917 -4.64948 0
M  V30 8339 H 767.82 0.63026 -5.8421 0
M  V30 8340 H 769.344 1.56068 -5.90318 0
M  V30 8341 H 770.758 -0.700726 -5.69002 0
M  V30 8342 H 769.155 -1.48196 -5.81514 0
M  V30 8343 H 770.225 -1.89513 -4.46332 0
M  V30 8344 N 771.568 1.50203 -0.477153 0
M  V30 8345 C 772.793 2.07263 0.0754986 0
M  V30 8346 C 773.218 1.33801 1.32208 0
M  V30 8347 O 772.576 0.387482 1.77111 0
M  V30 8348 C 772.624 3.59028 0.336348 0
M  V30 8349 O 771.728 3.87339 1.4157 0
M  V30 8350 H 771.069 0.663815 -0.015662 0
M  V30 8351 H 773.599 1.93321 -0.669936 0
M  V30 8352 H 773.609 4.03927 0.575034 0
M  V30 8353 H 772.284 4.11912 -0.574551 0
M  V30 8354 H 770.861 3.54272 1.16385 0
M  V30 8355 N 773.046 0.209999 1.56195 0
M  V30 8356 C 774.294 -0.423974 1.97603 0
M  V30 8357 C 774.615 -1.61112 1.09854 0
M  V30 8358 O 773.885 -1.95134 0.173032 0
M  V30 8359 H 772.465 -0.159629 0.729745 0
M  V30 8360 H 775.127 0.300205 1.92574 0
M  V30 8361 H 774.223 -0.75809 3.02753 0
M  V30 8362 N 774.524 -1.57472 -0.0634922 0
M  V30 8363 C 775.77 -1.87932 -0.762194 0
M  V30 8364 C 776.103 -0.803377 -1.76804 0
M  V30 8365 O 775.378 0.185468 -1.93614 0
M  V30 8366 C 775.661 -3.29053 -1.46275 0
M  V30 8367 C 775.514 -4.47309 -0.472755 0
M  V30 8368 C 776.833 -3.68537 -2.40558 0
M  V30 8369 H 773.952 -0.683521 -0.275624 0
M  V30 8370 H 776.594 -1.89983 -0.0252651 0
M  V30 8371 H 774.744 -3.27435 -2.0909 0
M  V30 8372 H 776.416 -4.61053 0.150828 0
M  V30 8373 H 774.659 -4.33286 0.211187 0
M  V30 8374 H 775.33 -5.42853 -1.00072 0
M  V30 8375 H 777.806 -3.71302 -1.87814 0
M  V30 8376 H 776.682 -4.68152 -2.86574 0
M  V30 8377 H 776.943 -2.98917 -3.25731 0
M  V30 8378 N 776.003 0.335068 -1.53997 0
M  V30 8379 C 777.251 1.07223 -1.71312 0
M  V30 8380 C 777.572 1.88911 -0.483486 0
M  V30 8381 O 776.842 1.89344 0.50257 0
M  V30 8382 H 775.422 0.398846 -0.63161 0
M  V30 8383 H 778.084 0.374288 -1.91272 0
M  V30 8384 H 777.18 1.7448 -2.58772 0
M  V30 8385 N 777.481 1.45874 0.596531 0
M  V30 8386 C 778.411 1.5824 1.71705 0
M  V30 8387 C 779.392 0.433366 1.64487 0
M  V30 8388 O 780.577 0.657895 1.82717 0
M  V30 8389 C 777.707 1.55927 3.10329 0
M  V30 8390 C 776.661 2.69659 3.32367 0
M  V30 8391 C 775.987 2.52403 4.71377 0
M  V30 8392 C 777.287 4.11591 3.21544 0
M  V30 8393 H 778.981 2.52035 1.61613 0
M  V30 8394 H 776.527 1.21297 0.776082 0
M  V30 8395 H 778.48 1.63173 3.88526 0
M  V30 8396 H 777.204 0.586674 3.21288 0
M  V30 8397 H 775.863 2.61859 2.56564 0
M  V30 8398 H 775.511 1.53258 4.79083 0
M  V30 8399 H 775.211 3.28679 4.87077 0
M  V30 8400 H 776.735 2.6152 5.5176 0
M  V30 8401 H 778.149 4.20576 3.89601 0
M  V30 8402 H 776.546 4.88344 3.4877 0
M  V30 8403 H 777.616 4.32719 2.1882 0
M  V30 8404 N 778.959 -0.83999 1.33349 0
M  V30 8405 C 780.37 -1.41139 1.22216 0
M  V30 8406 C 780.721 -1.95551 -0.159398 0
M  V30 8407 O 779.846 -1.88721 -1.05893 0
M  V30 8408 C 780.441 -2.56564 2.21269 0
M  V30 8409 C 779 -3.09661 2.13979 0
M  V30 8410 C 778.147 -1.82457 2.08818 0
M  V30 8411 H 781.098 -0.645853 1.44964 0
M  V30 8412 H 781.119 -3.34163 1.81976 0
M  V30 8413 H 780.631 -2.16932 3.21811 0
M  V30 8414 H 778.732 -3.53841 1.16736 0
M  V30 8415 H 778.845 -3.6991 3.04472 0
M  V30 8416 H 777.209 -2.0266 1.54276 0
M  V30 8417 H 777.992 -1.45022 3.11165 0
M  V30 8418 N 780.437 -1.16799 -1.0581 0
M  V30 8419 C 781.685 -0.950642 -1.78346 0
M  V30 8420 C 782.006 0.522524 -1.87869 0
M  V30 8421 O 781.276 1.3795 -1.39092 0
M  V30 8422 H 779.856 -0.348736 -0.6606 0
M  V30 8423 H 782.518 -1.47158 -1.27791 0
M  V30 8424 H 781.614 -1.37359 -2.80248 0
M  V30 8425 N 781.915 1.24427 -0.967243 0
M  V30 8426 C 783.155 1.9423 -0.636723 0
M  V30 8427 C 783.519 1.73939 0.812971 0
M  V30 8428 O 784.72 2.37773 1.25369 0
M  V30 8429 C 782.991 3.43105 -1.00067 0
M  V30 8430 S 784.55 4.31728 -0.784633 0
M  V30 8431 H 781.368 0.671527 -0.233607 0
M  V30 8432 H 783.97 1.50806 -1.2441 0
M  V30 8433 H 782.674 3.5538 -2.05264 0
M  V30 8434 H 782.205 3.91521 -0.384054 0
M  V30 8435 H 784.22 4.95046 0.338244 0
M  V30 8436 N 783.393 0.737304 1.3929 0
M  V30 8437 C 784.804 0.355966 1.83275 0
M  V30 8438 C 785.155 -1.11295 1.6158 0
M  V30 8439 O 784.28 -1.85871 1.10819 0
M  V30 8440 C 784.875 0.63931 3.32713 0
M  V30 8441 C 783.434 0.31144 3.75109 0
M  V30 8442 C 782.581 0.900765 2.62262 0
M  V30 8443 H 785.532 0.934763 1.28249 0
M  V30 8444 H 785.553 -0.0881293 3.80398 0
M  V30 8445 H 785.065 1.70847 3.48472 0
M  V30 8446 H 783.166 -0.751791 3.64937 0
M  V30 8447 H 783.279 0.795611 4.72448 0
M  V30 8448 H 781.643 0.327239 2.52589 0
M  V30 8449 H 782.426 1.97463 2.80826 0
M  V30 8450 N 784.871 -1.49948 0.485112 0
M  V30 8451 C 785.818 -2.28819 -0.301729 0
M  V30 8452 C 786.788 -1.34496 -0.974683 0
M  V30 8453 O 787.973 -1.63444 -0.984418 0
M  V30 8454 C 785.113 -3.16758 -1.36961 0
M  V30 8455 C 784.226 -4.26125 -0.710027 0
M  V30 8456 C 783.361 -5.01302 -1.75699 0
M  V30 8457 C 782.4 -6.02525 -1.07841 0
M  V30 8458 N 781.537 -6.70927 -2.06886 0
M  V30 8459 H 786.377 -2.95604 0.377127 0
M  V30 8460 H 783.914 -1.45764 0.197826 0
M  V30 8461 H 785.872 -3.66106 -2.00056 0
M  V30 8462 H 784.502 -2.51991 -2.01744 0
M  V30 8463 H 783.554 -3.80385 0.0338278 0
M  V30 8464 H 784.866 -4.98493 -0.175079 0
M  V30 8465 H 784.02 -5.54438 -2.46339 0
M  V30 8466 H 782.759 -4.28672 -2.32577 0
M  V30 8467 H 781.764 -5.48635 -0.357706 0
M  V30 8468 H 782.989 -6.77134 -0.516345 0
M  V30 8469 H 780.935 -6.01079 -2.62755 0
M  V30 8470 H 780.852 -7.39216 -1.58414 0
M  V30 8471 H 782.12 -7.28675 -2.76863 0
M  V30 8472 N 786.349 -0.21828 -1.56081 0
M  V30 8473 C 787.597 0.413488 -1.97825 0
M  V30 8474 C 787.918 1.60527 -1.10707 0
M  V30 8475 O 787.188 1.9504 -0.183378 0
M  V30 8476 H 785.768 0.155757 -0.730581 0
M  V30 8477 H 788.43 -0.310413 -1.92412 0
M  V30 8478 H 787.526 0.742024 -3.03151 0
M  V30 8479 N 787.827 1.57504 0.0551401 0
M  V30 8480 C 789.238 1.76626 0.604979 0
M  V30 8481 C 789.589 0.845978 1.77024 0
M  V30 8482 O 788.714 0.0341936 2.16373 0
M  V30 8483 C 789.309 3.203 1.10425 0
M  V30 8484 C 787.868 3.4071 1.59981 0
M  V30 8485 C 787.015 2.72258 0.526414 0
M  V30 8486 H 789.966 1.57775 -0.171072 0
M  V30 8487 H 789.987 3.25377 1.97256 0
M  V30 8488 H 789.499 3.87255 0.255939 0
M  V30 8489 H 787.6 2.78892 2.47083 0
M  V30 8490 H 787.713 4.49227 1.66528 0
M  V30 8491 H 786.077 2.35283 0.97539 0
M  V30 8492 H 786.86 3.41879 -0.311991 0
M  V30 8493 N 789.305 -0.326896 1.54172 0
M  V30 8494 C 790.716 -0.901533 1.63491 0
M  V30 8495 C 791.067 -1.88994 0.52684 0
M  V30 8496 O 790.192 -2.137 -0.340794 0
M  V30 8497 C 790.787 -1.64192 2.96355 0
M  V30 8498 C 789.346 -2.16533 3.07881 0
M  V30 8499 C 788.493 -0.98966 2.59039 0
M  V30 8500 H 791.444 -0.104568 1.58355 0
M  V30 8501 H 791.465 -2.50592 2.86328 0
M  V30 8502 H 790.977 -0.922291 3.76982 0
M  V30 8503 H 789.078 -2.91622 2.31922 0
M  V30 8504 H 789.191 -2.41762 4.13628 0
M  V30 8505 H 787.555 -1.36787 2.14852 0
M  V30 8506 H 788.338 -0.284401 3.4212 0
M  V30 8507 N 790.784 -1.46188 -0.588786 0
M  V30 8508 C 792.009 -1.5498 -1.37826 0
M  V30 8509 C 792.434 -0.189498 -1.87143 0
M  V30 8510 O 791.792 0.829293 -1.61222 0
M  V30 8511 C 791.84 -2.55369 -2.54596 0
M  V30 8512 O 790.944 -2.08452 -3.55839 0
M  V30 8513 H 790.285 -0.521741 -0.41071 0
M  V30 8514 H 792.815 -1.91708 -0.714779 0
M  V30 8515 H 792.825 -2.74782 -3.01594 0
M  V30 8516 H 791.5 -3.54155 -2.18052 0
M  V30 8517 H 790.077 -1.98999 -3.15363 0
M  V30 8518 N 792.262 0.832906 -1.33792 0
M  V30 8519 C 793.673 1.40489 -1.22963 0
M  V30 8520 C 794.024 1.95633 0.149026 0
M  V30 8521 O 793.149 1.8928 1.04891 0
M  V30 8522 C 793.744 2.55387 -2.22627 0
M  V30 8523 C 792.303 3.08522 -2.15618 0
M  V30 8524 C 791.45 1.81347 -2.09782 0
M  V30 8525 H 794.401 0.638156 -1.45304 0
M  V30 8526 H 794.422 3.33193 -1.83746 0
M  V30 8527 H 793.934 2.15222 -3.22957 0
M  V30 8528 H 792.035 3.53217 -1.18611 0
M  V30 8529 H 792.148 3.6829 -3.0643 0
M  V30 8530 H 790.512 2.01839 -1.55349 0
M  V30 8531 H 791.295 1.43369 -3.1193 0
M  V30 8532 N 793.74 1.17359 1.05189 0
M  V30 8533 C 794.988 0.960087 1.77839 0
M  V30 8534 C 795.309 -0.512554 1.88143 0
M  V30 8535 O 794.579 -1.3721 1.39822 0
M  V30 8536 H 793.159 0.352234 0.658741 0
M  V30 8537 H 795.821 1.47834 1.27008 0
M  V30 8538 H 794.917 1.38843 2.79516 0
M  V30 8539 N 795.218 -1.23913 0.973828 0
M  V30 8540 C 796.634 -1.44325 0.681363 0
M  V30 8541 C 796.834 -1.86832 -0.754728 0
M  V30 8542 O 795.89 -2.01024 -1.52793 0
M  V30 8543 C 797.203 -2.50017 1.67069 0
M  V30 8544 C 798.751 -2.63838 1.68399 0
M  V30 8545 C 799.226 -3.72734 2.66145 0
M  V30 8546 N 800.717 -3.80169 2.64624 0
M  V30 8547 C 801.452 -4.6397 3.36927 0
M  V30 8548 N 800.948 -5.51911 4.18767 0
M  V30 8549 N 802.741 -4.58106 3.25722 0
M  V30 8550 H 794.892 -0.946204 1.9016 0
M  V30 8551 H 797.155 -0.477374 0.819035 0
M  V30 8552 H 796.861 -2.25686 2.69738 0
M  V30 8553 H 796.735 -3.48287 1.4483 0
M  V30 8554 H 799.122 -2.87524 0.664379 0
M  V30 8555 H 799.203 -1.65906 1.94702 0
M  V30 8556 H 798.847 -3.49797 3.68245 0
M  V30 8557 H 798.777 -4.70193 2.3712 0
M  V30 8558 H 801.268 -3.17319 2.05224 0
M  V30 8559 H 801.581 -6.12828 4.70809 0
M  V30 8560 H 799.926 -5.51556 4.2286 0
M  V30 8561 H 803.117 -3.8842 2.61242 0
M  V30 8562 H 803.29 -5.23188 3.82333 0
M  V30 8563 N 796.696 -0.74468 -1.38897 0
M  V30 8564 C 797.921 -0.306119 -2.05128 0
M  V30 8565 C 798.346 1.0541 -1.55789 0
M  V30 8566 O 797.704 1.66993 -0.705909 0
M  V30 8567 C 797.752 -0.328195 -3.59103 0
M  V30 8568 O 796.856 0.680876 -4.06741 0
M  V30 8569 H 796.197 -0.137209 -0.649669 0
M  V30 8570 H 798.727 -1.01331 -1.77745 0
M  V30 8571 H 798.737 -0.175956 -4.0762 0
M  V30 8572 H 797.412 -1.32067 -3.94374 0
M  V30 8573 H 795.989 0.49398 -3.69614 0
M  V30 8574 N 798.174 1.49689 -0.493057 0
M  V30 8575 C 799.59 1.58907 -0.148526 0
M  V30 8576 C 799.79 1.4991 1.34645 0
M  V30 8577 O 798.846 1.36893 2.12171 0
M  V30 8578 C 800.159 2.91996 -0.718265 0
M  V30 8579 C 801.707 3.05443 -0.683658 0
M  V30 8580 C 802.182 4.41138 -1.23132 0
M  V30 8581 N 803.673 4.47608 -1.19167 0
M  V30 8582 C 804.408 5.51038 -1.5857 0
M  V30 8583 N 803.904 6.61612 -2.05528 0
M  V30 8584 N 805.697 5.41706 -1.50036 0
M  V30 8585 H 797.848 1.5378 -1.46511 0
M  V30 8586 H 800.111 0.727996 -0.607228 0
M  V30 8587 H 799.817 3.04123 -1.7664 0
M  V30 8588 H 799.691 3.76798 -0.17419 0
M  V30 8589 H 802.078 2.92949 0.355626 0
M  V30 8590 H 802.159 2.22344 -1.26479 0
M  V30 8591 H 801.803 4.54382 -2.26935 0
M  V30 8592 H 801.733 5.22864 -0.626201 0
M  V30 8593 H 804.224 3.68274 -0.847524 0
M  V30 8594 H 804.537 7.36622 -2.33685 0
M  V30 8595 H 802.882 6.62674 -2.09497 0
M  V30 8596 H 806.073 4.54212 -1.13176 0
M  V30 8597 H 806.246 6.22188 -1.81068 0
M  V30 8598 N 799.652 0.226554 1.55963 0
M  V30 8599 C 801.068 -0.128733 1.5908 0
M  V30 8600 C 801.268 -1.58558 1.24345 0
M  V30 8601 O 800.324 -2.32661 0.981069 0
M  V30 8602 C 801.637 0.202076 3.0002 0
M  V30 8603 C 803.185 0.144718 3.12665 0
M  V30 8604 C 803.66 0.449272 4.55791 0
M  V30 8605 N 805.151 0.399026 4.61478 0
M  V30 8606 C 805.886 0.608106 5.70166 0
M  V30 8607 N 805.382 0.879227 6.87198 0
M  V30 8608 N 807.175 0.5402 5.59498 0
M  V30 8609 H 799.326 1.17686 1.76816 0
M  V30 8610 H 801.589 0.472072 0.822102 0
M  V30 8611 H 801.295 1.21341 3.30105 0
M  V30 8612 H 801.169 -0.480554 3.74126 0
M  V30 8613 H 803.556 -0.857261 2.82374 0
M  V30 8614 H 803.637 0.860899 2.40878 0
M  V30 8615 H 803.281 1.44871 4.86801 0
M  V30 8616 H 803.211 -0.288157 5.25811 0
M  V30 8617 H 805.702 0.197372 3.77384 0
M  V30 8618 H 806.015 1.02673 7.65949 0
M  V30 8619 H 804.36 0.916477 6.88931 0
M  V30 8620 H 807.551 0.328581 4.66945 0
M  V30 8621 H 807.724 0.706548 6.44137 0
M  V30 8622 N 801.13 -1.57531 -0.0467866 0
M  V30 8623 C 802.378 -1.88078 -0.739656 0
M  V30 8624 C 802.699 -0.821936 -1.76831 0
M  V30 8625 O 801.969 0.146582 -1.95351 0
M  V30 8626 H 800.549 -0.694075 -0.276169 0
M  V30 8627 H 803.211 -1.94893 -0.0169391 0
M  V30 8628 H 802.307 -2.86396 -1.24031 0
M  V30 8629 N 802.608 0.318715 -1.54344 0
M  V30 8630 C 803.555 1.39242 -1.84066 0
M  V30 8631 C 804.525 1.51175 -0.688134 0
M  V30 8632 O 805.71 1.66318 -0.935039 0
M  V30 8633 C 802.85 2.75528 -2.07794 0
M  V30 8634 C 801.963 2.72187 -3.35467 0
M  V30 8635 C 801.098 4.00352 -3.4913 0
M  V30 8636 C 800.137 3.91338 -4.7066 0
M  V30 8637 N 799.274 5.11242 -4.81224 0
M  V30 8638 H 804.114 1.13196 -2.75664 0
M  V30 8639 H 801.651 0.547857 -1.36517 0
M  V30 8640 H 803.609 3.54763 -2.19543 0
M  V30 8641 H 802.239 2.99873 -1.19482 0
M  V30 8642 H 801.291 1.84917 -3.3243 0
M  V30 8643 H 802.603 2.61411 -4.24812 0
M  V30 8644 H 801.757 4.88019 -3.60448 0
M  V30 8645 H 800.496 4.1394 -2.57886 0
M  V30 8646 H 799.501 3.02055 -4.59394 0
M  V30 8647 H 800.726 3.7931 -5.63294 0
M  V30 8648 H 798.672 5.25327 -3.92897 0
M  V30 8649 H 798.589 5.0282 -5.64543 0
M  V30 8650 H 799.857 6.0061 -4.96879 0
M  V30 8651 N 804.086 1.46499 0.581025 0
M  V30 8652 C 805.314 1.5547 1.36517 0
M  V30 8653 C 805.729 0.196407 1.87776 0
M  V30 8654 O 805.086 -0.806577 1.63709 0
M  V30 8655 C 805.137 2.56084 2.55154 0
M  V30 8656 O 804.858 3.86637 2.06018 0
M  V30 8657 C 806.359 2.75011 3.47683 0
M  V30 8658 H 803.579 0.525703 0.416986 0
M  V30 8659 H 806.123 1.9192 0.706177 0
M  V30 8660 H 804.278 2.22633 3.17039 0
M  V30 8661 H 804.692 4.41413 2.83292 0
M  V30 8662 H 806.166 3.49329 4.27403 0
M  V30 8663 H 806.643 1.81978 3.99726 0
M  V30 8664 H 807.249 3.09565 2.91632 0
M  V30 8665 N 805.565 -0.825799 1.34232 0
M  V30 8666 C 806.981 -1.11848 1.13851 0
M  V30 8667 C 807.181 -2.01405 -0.0619031 0
M  V30 8668 O 806.237 -2.41465 -0.738287 0
M  V30 8669 C 807.55 -1.76797 2.43235 0
M  V30 8670 C 809.098 -1.89304 2.49265 0
M  V30 8671 C 809.573 -2.57669 3.78643 0
M  V30 8672 N 811.064 -2.65171 3.79788 0
M  V30 8673 C 811.799 -3.1879 4.76614 0
M  V30 8674 N 811.295 -3.72995 5.83821 0
M  V30 8675 N 813.088 -3.17164 4.64073 0
M  V30 8676 H 805.239 -0.230049 2.11151 0
M  V30 8677 H 807.502 -0.164609 0.9336 0
M  V30 8678 H 807.208 -1.18455 3.31152 0
M  V30 8679 H 807.082 -2.76693 2.56361 0
M  V30 8680 H 809.469 -2.46796 1.6179 0
M  V30 8681 H 809.55 -0.883191 2.4007 0
M  V30 8682 H 809.194 -2.00833 4.66507 0
M  V30 8683 H 809.124 -3.59152 3.8512 0
M  V30 8684 H 811.615 -2.26746 3.02315 0
M  V30 8685 H 811.928 -4.12151 6.53721 0
M  V30 8686 H 810.273 -3.71246 5.87538 0
M  V30 8687 H 813.464 -2.74082 3.79469 0
M  V30 8688 H 813.637 -3.58647 5.397 0
M  V30 8689 N 807.043 -1.17915 -1.04565 0
M  V30 8690 C 807.993 -0.869634 -2.10764 0
M  V30 8691 C 808.977 0.158502 -1.60117 0
M  V30 8692 O 810.169 -0.04483 -1.76943 0
M  V30 8693 C 807.298 -0.391642 -3.41059 0
M  V30 8694 C 806.384 -1.45156 -3.98485 0
M  V30 8695 N 806.775 -2.6667 -4.29792 0
M  V30 8696 C 805.073 -1.3109 -4.263 0
M  V30 8697 C 805.774 -3.34823 -4.75677 0
M  V30 8698 N 804.75 -2.62203 -4.76183 0
M  V30 8699 H 808.552 -1.79342 -2.32838 0
M  V30 8700 H 806.066 -1.0688 -1.22272 0
M  V30 8701 H 808.063 -0.151428 -4.16625 0
M  V30 8702 H 806.723 0.525862 -3.20413 0
M  V30 8703 H 807.734 -3.0358 -4.19594 0
M  V30 8704 H 804.411 -0.455545 -4.15007 0
M  V30 8705 H 805.801 -4.38645 -5.0896 0
M  V30 8706 N 808.521 1.23394 -0.980386 0
M  V30 8707 C 809.937 1.43961 -0.689008 0
M  V30 8708 C 810.137 1.87229 0.744809 0
M  V30 8709 O 809.193 2.01831 1.51725 0
M  V30 8710 C 810.506 2.49128 -1.68392 0
M  V30 8711 C 812.054 2.62941 -1.69796 0
M  V30 8712 C 812.529 3.71317 -2.68118 0
M  V30 8713 N 814.02 3.7876 -2.66636 0
M  V30 8714 C 814.755 4.62176 -3.39383 0
M  V30 8715 N 814.251 5.49682 -4.21688 0
M  V30 8716 N 816.044 4.56372 -3.28147 0
M  V30 8717 H 808.195 0.936106 -1.90659 0
M  V30 8718 H 810.458 0.473023 -0.821555 0
M  V30 8719 H 810.164 2.24252 -2.70931 0
M  V30 8720 H 810.038 3.47514 -1.46675 0
M  V30 8721 H 812.425 2.87168 -0.679617 0
M  V30 8722 H 812.506 1.64871 -1.95579 0
M  V30 8723 H 812.15 3.4784 -3.70095 0
M  V30 8724 H 812.08 4.68929 -2.3961 0
M  V30 8725 H 814.571 3.16226 -2.06904 0
M  V30 8726 H 814.884 6.10323 -4.74053 0
M  V30 8727 H 813.229 5.49306 -4.25779 0
M  V30 8728 H 816.42 3.87029 -2.63299 0
M  V30 8729 H 816.593 5.21153 -3.85102 0
M  V30 8730 N 809.999 0.752036 1.385 0
M  V30 8731 C 810.946 0.123288 2.3047 0
M  V30 8732 C 811.916 -0.711326 1.50098 0
M  V30 8733 O 813.101 -0.667775 1.78733 0
M  V30 8734 C 810.241 -0.765085 3.36512 0
M  V30 8735 C 809.354 0.0839885 4.31918 0
M  V30 8736 C 808.489 -0.807243 5.25031 0
M  V30 8737 C 807.528 0.0455583 6.12083 0
M  V30 8738 N 806.665 -0.802547 6.97498 0
M  V30 8739 H 811.505 0.913169 2.83664 0
M  V30 8740 H 809.042 0.46195 1.39658 0
M  V30 8741 H 811 -1.29476 3.966 0
M  V30 8742 H 809.63 -1.52077 2.84732 0
M  V30 8743 H 808.682 0.731276 3.73305 0
M  V30 8744 H 809.994 0.74265 4.9324 0
M  V30 8745 H 809.148 -1.40414 5.90228 0
M  V30 8746 H 807.887 -1.49964 4.64071 0
M  V30 8747 H 806.892 0.655137 5.45883 0
M  V30 8748 H 808.117 0.734994 6.75111 0
M  V30 8749 H 806.063 -1.47992 6.39089 0
M  V30 8750 H 805.98 -0.200747 7.55733 0
M  V30 8751 H 807.248 -1.38447 7.67107 0
M  V30 8752 N 811.477 -1.49425 0.500989 0
M  V30 8753 C 812.44 -2.27646 -0.266416 0
M  V30 8754 C 813.44 -1.3366 -0.893961 0
M  V30 8755 O 814.63 -1.5682 -0.758495 0
M  V30 8756 C 811.762 -3.11618 -1.38227 0
M  V30 8757 H 812.955 -2.96945 0.419973 0
M  V30 8758 H 810.508 -1.5419 0.255954 0
M  V30 8759 H 811.243 -2.46885 -2.10281 0
M  V30 8760 H 811.028 -3.80721 -0.937746 0
M  V30 8761 H 812.518 -3.70698 -1.92283 0
M  V30 8762 N 812.955 -0.234822 -1.55841 0
M  V30 8763 C 814.18 0.400741 -2.03492 0
M  V30 8764 C 814.605 1.51618 -1.11327 0
M  V30 8765 O 813.963 1.81002 -0.103922 0
M  V30 8766 C 814.011 0.897184 -3.49261 0
M  V30 8767 O 813.115 2.00764 -3.60233 0
M  V30 8768 H 812.456 0.0890023 -0.658008 0
M  V30 8769 H 814.986 -0.357345 -2.01455 0
M  V30 8770 H 814.996 1.20356 -3.89844 0
M  V30 8771 H 813.671 0.0808639 -4.15821 0
M  V30 8772 H 812.248 1.70689 -3.31541 0
M  V30 8773 N 814.433 1.57553 0.0384317 0
M  V30 8774 C 815.396 2.04927 1.02653 0
M  V30 8775 C 816.396 0.951768 1.29607 0
M  V30 8776 O 817.586 1.21568 1.24768 0
M  V30 8777 C 814.718 2.45828 2.36181 0
M  V30 8778 H 815.911 2.93474 0.617508 0
M  V30 8779 H 813.464 1.53679 0.285031 0
M  V30 8780 H 814.199 1.60408 2.8185 0
M  V30 8781 H 813.984 3.25945 2.1795 0
M  V30 8782 H 815.474 2.82939 3.0714 0
M  V30 8783 N 815.911 -0.310526 1.54511 0
M  V30 8784 C 816.858 -1.38264 1.84802 0
M  V30 8785 C 817.828 -1.50808 0.696141 0
M  V30 8786 O 819.013 -1.6582 0.943846 0
M  V30 8787 C 816.153 -2.74422 2.09252 0
M  V30 8788 C 815.266 -2.70405 3.36906 0
M  V30 8789 C 814.401 -3.98495 3.51248 0
M  V30 8790 C 813.44 -3.88836 4.72729 0
M  V30 8791 N 812.577 -5.08683 4.83928 0
M  V30 8792 H 817.417 -1.11732 2.76261 0
M  V30 8793 H 814.954 -0.540609 1.36806 0
M  V30 8794 H 816.912 -3.53593 2.21422 0
M  V30 8795 H 815.542 -2.99235 1.2107 0
M  V30 8796 H 814.594 -1.83151 3.33406 0
M  V30 8797 H 815.906 -2.59155 4.26193 0
M  V30 8798 H 815.06 -4.861 3.63031 0
M  V30 8799 H 813.799 -4.12567 2.60077 0
M  V30 8800 H 812.804 -2.99615 4.60989 0
M  V30 8801 H 814.029 -3.76318 5.65298 0
M  V30 8802 H 811.975 -5.23236 3.95677 0
M  V30 8803 H 811.892 -4.99819 5.67201 0
M  V30 8804 H 813.16 -5.97966 5.00057 0
M  V30 8805 N 817.389 -1.46805 -0.573248 0
M  V30 8806 C 818.637 -1.52302 -1.32847 0
M  V30 8807 C 818.958 -0.180159 -1.94166 0
M  V30 8808 O 818.228 0.794291 -1.79075 0
M  V30 8809 H 816.808 -0.56097 -0.493276 0
M  V30 8810 H 819.47 -1.82998 -0.670642 0
M  V30 8811 H 818.566 -2.28089 -2.13031 0
M  V30 8812 N 818.867 0.818669 -1.34668 0
M  V30 8813 C 820.092 1.61193 -1.30505 0
M  V30 8814 C 820.517 1.87734 0.117341 0
M  V30 8815 O 819.875 1.45591 1.08042 0
M  V30 8816 C 819.923 2.92733 -2.1057 0
M  V30 8817 O 819.027 3.85 -1.47813 0
M  V30 8818 H 818.368 0.490085 -0.44801 0
M  V30 8819 H 820.898 1.01701 -1.77534 0
M  V30 8820 H 820.908 3.42262 -2.22082 0
M  V30 8821 H 819.583 2.7274 -3.13984 0
M  V30 8822 H 818.16 3.43525 -1.45069 0
M  V30 8823 N 820.346 1.18468 1.03938 0
M  V30 8824 C 821.586 0.991823 1.78724 0
M  V30 8825 C 821.95 -0.470115 1.86156 0
M  V30 8826 O 823.151 -0.782451 2.5716 0
M  V30 8827 C 821.422 1.63018 3.18056 0
M  V30 8828 S 822.981 1.58527 4.09163 0
M  V30 8829 H 819.799 0.356137 0.615376 0
M  V30 8830 H 822.401 1.50634 1.24618 0
M  V30 8831 H 821.105 2.68642 3.10258 0
M  V30 8832 H 820.636 1.11601 3.77238 0
M  V30 8833 H 822.651 0.602059 4.92534 0
M  V30 8834 N 821.824 -1.22873 0.986916 0
M  V30 8835 C 823.072 -1.91084 0.658121 0
M  V30 8836 C 823.393 -1.77304 -0.811675 0
M  V30 8837 O 822.663 -1.15649 -1.58121 0
M  V30 8838 H 821.243 -0.707251 0.240427 0
M  V30 8839 H 823.905 -1.49357 1.25213 0
M  V30 8840 H 823.001 -2.98373 0.915428 0
M  V30 8841 N 823.302 -0.75937 -1.38099 0
M  V30 8842 C 824.579 -0.243371 -1.9408 0
M  V30 8843 C 824.959 1.25942 -1.69416 0
M  V30 8844 O 824.307 2.03667 -1.03595 0
M  V30 8845 C 824.517 -0.603328 -3.43745 0
M  V30 8846 C 825.865 -0.566195 -4.20808 0
M  V30 8847 O 826.889 -0.541969 -3.52053 0
M  V30 8848 O 825.748 -0.582261 -5.43389 0
M  V30 8849 H 822.842 -0.0526825 -0.82532 0
M  V30 8850 H 825.388 -0.839884 -1.47459 0
M  V30 8851 H 824.16 -1.64098 -3.55229 0
M  V30 8852 H 823.783 0.0208887 -3.97595 0
M  V30 8853 N 824.78 1.49157 -0.508906 0
M  V30 8854 C 825.71 2.32109 0.254469 0
M  V30 8855 C 826.691 1.40754 0.955111 0
M  V30 8856 O 827.876 1.69658 0.944983 0
M  V30 8857 C 825.006 3.21458 1.3146 0
M  V30 8858 C 823.96 4.2167 0.733368 0
M  V30 8859 C 823.286 5.00009 1.8946 0
M  V30 8860 C 824.586 5.21544 -0.280875 0
M  V30 8861 H 826.28 2.9618 -0.43795 0
M  V30 8862 H 823.826 1.4243 -0.212062 0
M  V30 8863 H 825.779 3.78305 1.85643 0
M  V30 8864 H 824.503 2.55346 2.03632 0
M  V30 8865 H 823.162 3.65979 0.213231 0
M  V30 8866 H 822.81 4.30338 2.60419 0
M  V30 8867 H 822.51 5.67821 1.51173 0
M  V30 8868 H 824.034 5.59702 2.44061 0
M  V30 8869 H 825.448 5.73039 0.173095 0
M  V30 8870 H 823.845 5.97291 -0.580006 0
M  V30 8871 H 824.915 4.69969 -1.19404 0
M  V30 8872 N 826.258 0.243083 1.55714 0
M  V30 8873 C 827.669 -0.260788 1.8487 0
M  V30 8874 C 828.02 -1.57879 1.16485 0
M  V30 8875 O 827.145 -2.1184 0.441908 0
M  V30 8876 C 827.74 -0.479954 3.35383 0
M  V30 8877 C 826.299 -0.928096 3.64778 0
M  V30 8878 C 825.446 -0.00316416 2.773 0
M  V30 8879 H 828.397 0.465743 1.51712 0
M  V30 8880 H 828.418 -1.32308 3.56756 0
M  V30 8881 H 827.93 0.479468 3.85127 0
M  V30 8882 H 826.031 -1.90012 3.20509 0
M  V30 8883 H 826.144 -0.7876 4.72582 0
M  V30 8884 H 824.508 -0.513849 2.49463 0
M  V30 8885 H 825.291 0.951562 3.29849 0
M  V30 8886 N 827.736 -1.57571 -0.0300757 0
M  V30 8887 C 828.984 -1.88852 -0.719666 0
M  V30 8888 C 829.305 -0.840645 -1.75949 0
M  V30 8889 O 828.575 0.125854 -1.95495 0
M  V30 8890 H 827.155 -0.696965 -0.268792 0
M  V30 8891 H 829.817 -1.949 0.00373285 0
M  V30 8892 H 828.913 -2.87695 -1.20987 0
M  V30 8893 N 829.214 0.302327 -1.54673 0
M  V30 8894 C 830.144 1.37759 -1.88533 0
M  V30 8895 C 831.125 1.52961 -0.744113 0
M  V30 8896 O 832.31 1.6649 -0.999731 0
M  V30 8897 C 829.44 2.74201 -2.13146 0
M  V30 8898 C 828.394 2.73765 -3.28993 0
M  V30 8899 C 827.72 4.13483 -3.39022 0
M  V30 8900 C 829.02 2.35624 -4.66132 0
M  V30 8901 H 830.714 1.0967 -2.78591 0
M  V30 8902 H 828.26 0.52613 -1.34044 0
M  V30 8903 H 830.213 3.49508 -2.35419 0
M  V30 8904 H 828.937 3.03812 -1.19858 0
M  V30 8905 H 827.596 2.00914 -3.06642 0
M  V30 8906 H 827.244 4.40269 -2.43253 0
M  V30 8907 H 826.944 4.14093 -4.16894 0
M  V30 8908 H 828.468 4.90572 -3.63553 0
M  V30 8909 H 829.882 3.00647 -4.88143 0
M  V30 8910 H 828.279 2.47449 -5.46707 0
M  V30 8911 H 829.349 1.30753 -4.66939 0
M  V30 8912 N 830.692 1.47107 0.565454 0
M  V30 8913 C 832.108 1.32443 0.890566 0
M  V30 8914 C 832.308 0.308735 1.99121 0
M  V30 8915 O 831.364 -0.28265 2.50913 0
M  V30 8916 C 832.677 2.71548 1.2916 0
M  V30 8917 C 834.225 2.7977 1.40349 0
M  V30 8918 C 834.7 4.19497 1.83811 0
M  V30 8919 N 836.191 4.21998 1.90975 0
M  V30 8920 C 836.926 5.2702 2.25916 0
M  V30 8921 N 836.422 6.42353 2.59527 0
M  V30 8922 N 838.215 5.14393 2.26619 0
M  V30 8923 H 830.366 2.11786 -0.161328 0
M  V30 8924 H 832.629 0.947952 -0.00950631 0
M  V30 8925 H 832.335 3.47265 0.556753 0
M  V30 8926 H 832.209 3.02782 2.24951 0
M  V30 8927 H 834.596 2.0433 2.12916 0
M  V30 8928 H 834.677 2.522 0.427655 0
M  V30 8929 H 834.321 4.95439 1.11816 0
M  V30 8930 H 834.251 4.44486 2.82382 0
M  V30 8931 H 836.742 3.38791 1.6742 0
M  V30 8932 H 837.055 7.18252 2.85191 0
M  V30 8933 H 835.4 6.45687 2.57126 0
M  V30 8934 H 838.591 4.2332 1.99794 0
M  V30 8935 H 838.764 5.96349 2.5352 0
M  V30 8936 N 832.17 -0.811516 1.35101 0
M  V30 8937 C 833.398 -1.59981 1.31201 0
M  V30 8938 C 833.813 -1.8847 -0.111552 0
M  V30 8939 O 833.17 -1.48414 -1.06205 0
M  V30 8940 C 833.221 -2.934 2.11184 0
M  V30 8941 O 832.942 -2.66148 3.4799 0
M  V30 8942 C 834.443 -3.87776 2.14813 0
M  V30 8943 H 831.663 -0.496921 0.450899 0
M  V30 8944 H 834.207 -1.00886 1.77883 0
M  V30 8945 H 832.362 -3.49022 1.68115 0
M  V30 8946 H 832.776 -3.51301 3.89471 0
M  V30 8947 H 834.25 -4.7852 2.75178 0
M  V30 8948 H 834.727 -4.23997 1.14556 0
M  V30 8949 H 835.333 -3.3809 2.58022 0
M  V30 8950 N 833.648 -1.19017 -1.03309 0
M  V30 8951 C 834.611 -0.926076 -2.09658 0
M  V30 8952 C 835.611 0.0917077 -1.60538 0
M  V30 8953 O 836.801 -0.142574 -1.73616 0
M  V30 8954 C 833.933 -0.390958 -3.38651 0
M  V30 8955 H 835.126 -1.86923 -2.3452 0
M  V30 8956 H 832.679 -1.00325 -1.19853 0
M  V30 8957 H 833.414 0.558446 -3.19456 0
M  V30 8958 H 833.199 -1.12474 -3.75622 0
M  V30 8959 H 834.689 -0.225131 -4.16993 0
M  V30 8960 N 835.127 1.22348 -0.993418 0
M  V30 8961 C 836.373 1.91393 -0.67056 0
M  V30 8962 C 836.706 1.77163 0.795428 0
M  V30 8963 O 835.981 1.14084 1.57528 0
M  V30 8964 C 836.264 3.43589 -1.0779 0
M  V30 8965 C 836.117 3.66867 -2.60248 0
M  V30 8966 C 837.436 4.35545 -0.631527 0
M  V30 8967 H 834.555 0.695057 -0.24508 0
M  V30 8968 H 837.197 1.44213 -1.23703 0
M  V30 8969 H 835.347 3.83903 -0.595902 0
M  V30 8970 H 837.019 3.35954 -3.16121 0
M  V30 8971 H 835.262 3.1113 -3.02293 0
M  V30 8972 H 835.933 4.73457 -2.838 0
M  V30 8973 H 838.409 4.0275 -1.04554 0
M  V30 8974 H 837.285 5.40707 -0.944831 0
M  V30 8975 H 837.546 4.39618 0.467779 0
M  V30 8976 N 836.605 0.766683 1.37694 0
M  V30 8977 C 838.016 0.394761 1.82479 0
M  V30 8978 C 838.367 -1.07842 1.63904 0
M  V30 8979 O 837.492 -1.83479 1.14737 0
M  V30 8980 C 838.087 0.70974 3.31283 0
M  V30 8981 C 836.646 0.390936 3.74364 0
M  V30 8982 C 835.793 0.956192 2.60293 0
M  V30 8983 H 838.744 0.961756 1.26238 0
M  V30 8984 H 838.765 -0.00742144 3.80499 0
M  V30 8985 H 838.277 1.782 3.4477 0
M  V30 8986 H 836.378 -0.674213 3.66449 0
M  V30 8987 H 836.491 0.895645 4.70654 0
M  V30 8988 H 834.855 0.380744 2.51838 0
M  V30 8989 H 835.638 2.03375 2.76575 0
M  V30 8990 N 838.083 -1.48885 0.516809 0
M  V30 8991 C 839.494 -1.86557 0.0729921 0
M  V30 8992 C 839.845 -1.42767 -1.34581 0
M  V30 8993 O 838.97 -0.812514 -2.00567 0
M  V30 8994 C 839.565 -3.38567 0.125686 0
M  V30 8995 C 838.124 -3.75481 -0.262867 0
M  V30 8996 C 837.271 -2.72913 0.491281 0
M  V30 8997 H 840.222 -1.40978 0.728767 0
M  V30 8998 H 840.243 -3.74629 -0.665831 0
M  V30 8999 H 839.755 -3.70408 1.15842 0
M  V30 9000 H 837.856 -3.49251 -1.29824 0
M  V30 9001 H 837.969 -4.79052 0.067579 0
M  V30 9002 H 836.333 -2.54627 -0.0608525 0
M  V30 9003 H 837.116 -3.07599 1.5244 0
M  V30 9004 N 839.561 -0.251338 -1.55583 0
M  V30 9005 C 840.511 0.660351 -2.18228 0
M  V30 9006 C 841.495 1.13596 -1.13951 0
M  V30 9007 O 842.687 1.08499 -1.39846 0
M  V30 9008 C 839.816 1.85498 -2.88869 0
M  V30 9009 C 838.902 1.39767 -4.00407 0
M  V30 9010 N 839.293 0.654876 -5.01543 0
M  V30 9011 C 837.591 1.68259 -4.13044 0
M  V30 9012 C 838.292 0.417521 -5.802 0
M  V30 9013 N 837.268 0.983032 -5.34638 0
M  V30 9014 H 841.07 0.0847425 -2.93778 0
M  V30 9015 H 838.584 -0.0538456 -1.62311 0
M  V30 9016 H 840.581 2.51916 -3.3218 0
M  V30 9017 H 839.241 2.43477 -2.14823 0
M  V30 9018 H 840.252 0.304545 -5.17004 0
M  V30 9019 H 836.929 2.27344 -3.50172 0
M  V30 9020 H 838.319 -0.175764 -6.7167 0
M  V30 9021 N 841.039 1.57585 0.0217189 0
M  V30 9022 C 841.949 2.10444 1.03684 0
M  V30 9023 C 842.965 1.04472 1.39146 0
M  V30 9024 O 844.141 1.36249 1.48317 0
M  V30 9025 C 841.206 2.5794 2.31664 0
M  V30 9026 C 840.267 3.78425 2.02714 0
M  V30 9027 C 839.5 4.23646 3.24592 0
M  V30 9028 O 839.723 3.6834 4.35525 0
M  V30 9029 O 838.657 5.16013 3.09862 0
M  V30 9030 H 842.483 2.97354 0.617584 0
M  V30 9031 H 840.068 1.47473 0.239174 0
M  V30 9032 H 841.95 2.88785 3.06889 0
M  V30 9033 H 840.625 1.74138 2.7287 0
M  V30 9034 H 839.532 3.52587 1.25033 0
M  V30 9035 H 840.865 4.63234 1.66359 0
M  V30 9036 N 842.517 -0.29412 1.54831 0
M  V30 9037 C 843.928 -0.866651 1.65366 0
M  V30 9038 C 844.279 -1.87834 0.56681 0
M  V30 9039 O 843.404 -2.14374 -0.295389 0
M  V30 9040 C 843.999 -1.57869 2.99771 0
M  V30 9041 C 842.558 -2.09954 3.12404 0
M  V30 9042 C 841.705 -0.934492 2.6108 0
M  V30 9043 H 844.656 -0.0709551 1.58541 0
M  V30 9044 H 844.677 -2.44462 2.91579 0
M  V30 9045 H 844.189 -0.84212 3.78853 0
M  V30 9046 H 842.29 -2.86637 2.38055 0
M  V30 9047 H 842.403 -2.32934 4.18663 0
M  V30 9048 H 840.767 -1.32199 2.17705 0
M  V30 9049 H 841.55 -0.211768 3.42646 0
M  V30 9050 N 843.995 -1.47404 -0.557645 0
M  V30 9051 C 845.243 -1.53703 -1.31224 0
M  V30 9052 C 845.564 -0.200742 -1.93964 0
M  V30 9053 O 844.834 0.775253 -1.79907 0
M  V30 9054 H 843.414 -0.566171 -0.487299 0
M  V30 9055 H 846.076 -1.83699 -0.651195 0
M  V30 9056 H 845.172 -2.30335 -2.10599 0
M  V30 9057 N 845.473 0.80434 -1.35529 0
M  V30 9058 C 846.721 1.55845 -1.28673 0
M  V30 9059 C 847.042 1.94511 0.137976 0
M  V30 9060 O 846.312 1.63775 1.07492 0
M  V30 9061 H 844.892 0.577931 -0.473291 0
M  V30 9062 H 847.554 0.959293 -1.69657 0
M  V30 9063 H 846.65 2.47285 -1.90411 0
M  V30 9064 N 846.951 1.19563 1.02676 0
M  V30 9065 C 848.362 1.00158 1.57561 0
M  V30 9066 C 848.713 -0.444922 1.91089 0
M  V30 9067 O 847.838 -1.32466 1.71119 0
M  V30 9068 C 848.433 1.81181 2.86284 0
M  V30 9069 C 846.992 1.66171 3.37734 0
M  V30 9070 C 846.139 1.7975 2.11152 0
M  V30 9071 H 849.09 1.33904 0.85179 0
M  V30 9072 H 849.111 1.30916 3.57269 0
M  V30 9073 H 848.623 2.86454 2.6185 0
M  V30 9074 H 846.724 0.634927 3.6715 0
M  V30 9075 H 846.837 2.46832 4.10622 0
M  V30 9076 H 845.201 1.22833 2.23123 0
M  V30 9077 H 845.984 2.86487 1.89157 0
M  V30 9078 N 848.429 -1.21819 0.999893 0
M  V30 9079 C 849.677 -1.90375 0.678351 0
M  V30 9080 C 849.998 -1.78155 -0.792824 0
M  V30 9081 O 849.268 -1.17319 -1.56885 0
M  V30 9082 H 847.848 -0.704661 0.247915 0
M  V30 9083 H 850.51 -1.48021 1.2679 0
M  V30 9084 H 849.606 -2.97385 0.947023 0
M  V30 9085 N 849.908 -0.773975 -1.37286 0
M  V30 9086 C 851.133 -0.349561 -2.04433 0
M  V30 9087 C 851.558 1.02082 -1.5799 0
M  V30 9088 O 850.916 1.65458 -0.741172 0
M  V30 9089 C 850.964 -0.404292 -3.58326 0
M  V30 9090 O 850.068 0.594447 -4.08093 0
M  V30 9091 H 849.409 -0.150959 -0.646612 0
M  V30 9092 H 851.939 -1.05079 -1.75555 0
M  V30 9093 H 851.949 -0.262378 -4.07155 0
M  V30 9094 H 850.624 -1.40403 -3.91484 0
M  V30 9095 H 849.201 0.415468 -3.70578 0
M  V30 9096 N 851.386 1.48609 -0.524698 0
M  V30 9097 C 852.797 1.86516 -0.0828846 0
M  V30 9098 C 853.148 1.43478 1.33822 0
M  V30 9099 O 852.273 0.823139 2.00133 0
M  V30 9100 C 852.868 3.38495 -0.143639 0
M  V30 9101 C 851.427 3.75615 0.242951 0
M  V30 9102 C 850.574 2.72649 -0.505747 0
M  V30 9103 H 853.525 1.40589 -0.736233 0
M  V30 9104 H 853.546 3.74977 0.645955 0
M  V30 9105 H 853.058 3.69789 -1.17805 0
M  V30 9106 H 851.159 3.49935 1.27971 0
M  V30 9107 H 851.272 4.7901 -0.0929834 0
M  V30 9108 H 849.636 2.54656 0.0473482 0
M  V30 9109 H 850.419 3.06786 -1.54069 0
M  V30 9110 N 852.864 0.259585 1.55447 0
M  V30 9111 C 854.112 -0.360893 1.98852 0
M  V30 9112 C 854.433 -1.57535 1.14924 0
M  V30 9113 O 853.703 -1.94485 0.235025 0
M  V30 9114 H 852.283 -0.136332 0.734454 0
M  V30 9115 H 854.945 0.361319 1.91522 0
M  V30 9116 H 854.041 -0.661388 3.05012 0
M  V30 9117 N 854.342 -1.57594 -0.0133615 0
M  V30 9118 C 855.59 -1.89605 -0.699596 0
M  V30 9119 C 855.911 -0.85926 -1.75048 0
M  V30 9120 O 855.181 0.105112 -1.95618 0
M  V30 9121 H 853.761 -0.699776 -0.261385 0
M  V30 9122 H 856.423 -1.94885 0.0244044 0
M  V30 9123 H 855.519 -2.88962 -1.17928 0
M  V30 9124 N 855.82 0.285905 -1.54985 0
M  V30 9125 C 856.75 1.35752 -1.89983 0
M  V30 9126 C 857.731 1.52163 -0.760295 0
M  V30 9127 O 858.916 1.65421 -1.01733 0
M  V30 9128 C 856.046 2.71925 -2.16042 0
M  V30 9129 C 855 2.70261 -3.31878 0
M  V30 9130 C 854.326 4.09864 -3.43388 0
M  V30 9131 C 855.626 2.30667 -4.68604 0
M  V30 9132 H 857.32 1.06709 -2.79738 0
M  V30 9133 H 854.866 0.511884 -1.34595 0
M  V30 9134 H 856.819 3.46992 -2.39113 0
M  V30 9135 H 855.543 3.02523 -1.23074 0
M  V30 9136 H 854.202 1.97651 -3.08755 0
M  V30 9137 H 853.85 4.37664 -2.47909 0
M  V30 9138 H 853.55 4.09648 -4.21262 0
M  V30 9139 H 855.074 4.86689 -3.68736 0
M  V30 9140 H 856.488 2.95453 -4.91305 0
M  V30 9141 H 854.885 2.41637 -5.49301 0
M  V30 9142 H 855.955 1.25793 -4.68299 0
M  V30 9143 N 857.298 1.47698 0.54982 0
M  V30 9144 C 858.546 1.54397 1.30407 0
M  V30 9145 C 858.867 0.211026 1.93855 0
M  V30 9146 O 858.137 -0.765701 1.80316 0
M  V30 9147 H 856.717 0.568747 0.484289 0
M  V30 9148 H 859.379 1.84042 0.641444 0
M  V30 9149 H 858.475 2.31449 2.09375 0
M  V30 9150 N 858.776 -0.797141 1.35954 0
M  V30 9151 C 860.024 -1.55161 1.29497 0
M  V30 9152 C 860.345 -1.94582 -0.127659 0
M  V30 9153 O 859.615 -1.64343 -1.06622 0
M  V30 9154 H 858.195 -0.575413 0.47635 0
M  V30 9155 H 860.857 -0.950282 1.70164 0
M  V30 9156 H 859.953 -2.46272 1.9172 0
M  V30 9157 N 860.254 -1.20106 -1.0204 0
M  V30 9158 C 861.502 -1.0069 -1.75231 0
M  V30 9159 C 861.823 0.462491 -1.89436 0
M  V30 9160 O 861.093 1.33455 -1.4341 0
M  V30 9161 H 859.673 -0.369576 -0.649171 0
M  V30 9162 H 862.335 -1.51149 -1.23044 0
M  V30 9163 H 861.431 -1.46205 -2.75736 0
M  V30 9164 N 861.732 1.21287 -1.00634 0
M  V30 9165 C 863.143 1.72136 -0.722914 0
M  V30 9166 C 863.494 1.8091 0.759338 0
M  V30 9167 O 862.619 1.46458 1.59308 0
M  V30 9168 C 863.214 3.12633 -1.30561 0
M  V30 9169 C 861.773 3.60833 -1.07127 0
M  V30 9170 C 860.92 2.38326 -1.4176 0
M  V30 9171 H 863.871 1.06445 -1.17708 0
M  V30 9172 H 863.892 3.74174 -0.690937 0
M  V30 9173 H 863.404 3.06215 -2.38441 0
M  V30 9174 H 861.505 3.72599 -0.00968671 0
M  V30 9175 H 861.618 4.46226 -1.74411 0
M  V30 9176 H 859.982 2.40575 -0.836412 0
M  V30 9177 H 860.765 2.34558 -2.50674 0
M  V30 9178 N 863.21 0.781244 1.36873 0
M  V30 9179 C 864.435 0.360398 2.04245 0
M  V30 9180 C 864.86 -1.01242 1.58529 0
M  V30 9181 O 864.218 -1.65063 0.749936 0
M  V30 9182 C 864.266 0.42329 3.58107 0
M  V30 9183 O 863.37 -0.572796 4.08403 0
M  V30 9184 H 862.711 0.154386 0.645803 0
M  V30 9185 H 865.241 1.06008 1.74996 0
M  V30 9186 H 865.251 0.283967 4.07011 0
M  V30 9187 H 863.926 1.42477 3.90734 0
M  V30 9188 H 862.503 -0.395809 3.70793 0
M  V30 9189 N 864.689 -1.48329 0.532571 0
M  V30 9190 C 865.652 -2.2816 -0.218069 0
M  V30 9191 C 866.652 -1.35526 -0.865409 0
M  V30 9192 O 867.842 -1.58394 -0.725061 0
M  V30 9193 C 864.974 -3.1448 -1.31586 0
M  V30 9194 H 866.167 -2.95987 0.482865 0
M  V30 9195 H 863.72 -1.53612 0.288603 0
M  V30 9196 H 864.455 -2.5129 -2.04997 0
M  V30 9197 H 864.24 -3.82625 -0.856779 0
M  V30 9198 H 865.73 -3.74693 -1.84377 0
M  V30 9199 N 866.167 -0.267825 -1.55308 0
M  V30 9200 C 867.413 0.34458 -2.0046 0
M  V30 9201 C 867.768 1.54028 -1.15296 0
M  V30 9202 O 867.061 1.90409 -0.213316 0
M  V30 9203 C 867.255 0.784247 -3.48689 0
M  V30 9204 C 867.084 -0.367304 -4.48197 0
M  V30 9205 C 865.854 -0.848746 -4.98121 0
M  V30 9206 C 868.052 -1.20136 -5.00072 0
M  V30 9207 N 866.034 -1.97052 -5.81415 0
M  V30 9208 C 867.405 -2.17115 -5.80742 0
M  V30 9209 C 869.46 -1.23553 -4.82327 0
M  V30 9210 C 868.163 -3.17248 -6.45559 0
M  V30 9211 C 870.189 -2.22527 -5.47938 0
M  V30 9212 C 869.551 -3.1824 -6.28413 0
M  V30 9213 H 865.65 0.091465 -0.776633 0
M  V30 9214 H 868.234 -0.390184 -1.9075 0
M  V30 9215 H 866.405 1.48825 -3.58756 0
M  V30 9216 H 868.137 1.37337 -3.80684 0
M  V30 9217 H 864.892 -0.429291 -4.7165 0
M  V30 9218 H 865.316 -2.53481 -6.27755 0
M  V30 9219 H 869.958 -0.50937 -4.1972 0
M  V30 9220 H 867.676 -3.90801 -7.07319 0
M  V30 9221 H 871.262 -2.25904 -5.36152 0
M  V30 9222 H 870.142 -3.93573 -6.78285 0
M  V30 9223 N 867.645 1.57599 0.00500368 0
M  V30 9224 C 868.555 2.11532 1.01446 0
M  V30 9225 C 869.571 1.05941 1.3803 0
M  V30 9226 O 870.747 1.37815 1.46864 0
M  V30 9227 C 867.812 2.60382 2.28915 0
M  V30 9228 C 866.873 3.80554 1.98689 0
M  V30 9229 C 866.106 4.27064 3.20081 0
M  V30 9230 O 866.329 3.72939 4.31593 0
M  V30 9231 O 865.263 5.1927 3.04371 0
M  V30 9232 H 869.089 2.97993 0.586011 0
M  V30 9233 H 866.674 1.47718 0.223519 0
M  V30 9234 H 868.556 2.92024 3.03809 0
M  V30 9235 H 867.231 1.77022 2.71007 0
M  V30 9236 H 866.138 3.53893 1.21286 0
M  V30 9237 H 867.471 4.64972 1.61437 0
M  V30 9238 N 869.123 -0.277682 1.55134 0
M  V30 9239 C 870.086 -1.32635 1.86924 0
M  V30 9240 C 871.086 -1.42578 0.743507 0
M  V30 9241 O 872.276 -1.4181 1.01171 0
M  V30 9242 C 869.408 -2.70832 2.07034 0
M  V30 9243 H 870.601 -1.0568 2.80663 0
M  V30 9244 H 868.154 -0.515517 1.47554 0
M  V30 9245 H 868.889 -3.02974 1.15661 0
M  V30 9246 H 868.674 -2.65001 2.88993 0
M  V30 9247 H 870.164 -3.46611 2.32918 0
M  V30 9248 N 870.601 -1.47988 -0.541979 0
M  V30 9249 C 871.841 -1.56982 -1.30905 0
M  V30 9250 C 872.205 -0.233153 -1.90579 0
M  V30 9251 O 873.406 -0.198018 -2.6807 0
M  V30 9252 C 871.677 -2.66787 -2.37823 0
M  V30 9253 S 873.236 -2.95467 -3.24414 0
M  V30 9254 H 870.054 -0.554165 -0.445446 0
M  V30 9255 H 872.656 -1.85448 -0.618803 0
M  V30 9256 H 871.36 -3.62483 -1.92443 0
M  V30 9257 H 870.891 -2.40184 -3.11569 0
M  V30 9258 H 872.906 -2.33846 -4.37642 0
M  V30 9259 N 872.079 0.78992 -1.36375 0
M  V30 9260 C 873.49 1.36506 -1.2737 0
M  V30 9261 C 873.841 1.96008 0.086711 0
M  V30 9262 O 872.966 1.92521 0.988159 0
M  V30 9263 C 873.561 2.48175 -2.30639 0
M  V30 9264 C 872.12 3.01506 -2.25325 0
M  V30 9265 C 871.267 1.74581 -2.15445 0
M  V30 9266 H 874.218 0.591606 -1.47261 0
M  V30 9267 H 874.239 3.27179 -1.94253 0
M  V30 9268 H 873.751 2.04838 -3.2964 0
M  V30 9269 H 871.852 3.49265 -1.29788 0
M  V30 9270 H 871.965 3.58355 -3.17992 0
M  V30 9271 H 870.329 1.96794 -1.61692 0
M  V30 9272 H 871.112 1.33373 -3.16333 0
M  V30 9273 N 873.557 1.20646 1.01402 0
M  V30 9274 C 874.968 1.01823 1.56489 0
M  V30 9275 C 875.319 -0.42463 1.9155 0
M  V30 9276 O 874.444 -1.30644 1.72514 0
M  V30 9277 C 875.039 1.84208 2.84347 0
M  V30 9278 C 873.598 1.69743 3.35953 0
M  V30 9279 C 872.745 1.8198 2.09233 0
M  V30 9280 H 875.696 1.348 0.837539 0
M  V30 9281 H 875.717 1.34698 3.55861 0
M  V30 9282 H 875.229 2.89215 2.58798 0
M  V30 9283 H 873.33 0.673833 3.66456 0
M  V30 9284 H 873.443 2.51173 4.07981 0
M  V30 9285 H 871.807 1.25193 2.21808 0
M  V30 9286 H 872.59 2.88477 1.86107 0
M  V30 9287 N 875.035 -1.20752 1.01276 0
M  V30 9288 C 875.998 -2.2162 0.584583 0
M  V30 9289 C 876.998 -1.57094 -0.343215 0
M  V30 9290 O 878.188 -1.73696 -0.132433 0
M  V30 9291 C 875.32 -3.40583 -0.146872 0
M  V30 9292 H 876.513 -2.61015 1.47686 0
M  V30 9293 H 874.066 -1.34148 0.802123 0
M  V30 9294 H 874.801 -3.06686 -1.05424 0
M  V30 9295 H 874.586 -3.88642 0.51958 0
M  V30 9296 H 876.076 -4.15339 -0.433924 0
M  V30 9297 N 876.513 -0.788492 -1.36457 0
M  V30 9298 C 877.443 -0.200468 -2.32638 0
M  V30 9299 C 878.424 0.664031 -1.56603 0
M  V30 9300 O 879.609 0.598045 -1.84762 0
M  V30 9301 C 876.739 0.666274 -3.40849 0
M  V30 9302 C 875.693 -0.0982574 -4.27887 0
M  V30 9303 C 875.019 0.889018 -5.27258 0
M  V30 9304 C 876.319 -1.28692 -5.06197 0
M  V30 9305 H 878.013 -1.00399 -2.82065 0
M  V30 9306 H 875.559 -0.484237 -1.35614 0
M  V30 9307 H 877.512 1.08757 -4.07124 0
M  V30 9308 H 876.236 1.50249 -2.89987 0
M  V30 9309 H 874.895 -0.500525 -3.63167 0
M  V30 9310 H 874.543 1.72024 -4.7267 0
M  V30 9311 H 874.243 0.381909 -5.86358 0
M  V30 9312 H 875.767 1.30891 -5.96406 0
M  V30 9313 H 877.181 -0.941429 -5.65517 0
M  V30 9314 H 875.578 -1.72726 -5.74705 0
M  V30 9315 H 876.648 -2.08273 -4.37893 0
M  V30 9316 N 877.991 1.48044 -0.54043 0
M  V30 9317 C 879.407 1.58354 -0.199006 0
M  V30 9318 C 879.607 1.54118 1.29807 0
M  V30 9319 O 878.663 1.43573 2.07709 0
M  V30 9320 C 879.976 2.89563 -0.810797 0
M  V30 9321 C 881.524 3.03113 -0.780486 0
M  V30 9322 C 881.999 4.36997 -1.37104 0
M  V30 9323 N 883.49 4.43591 -1.33347 0
M  V30 9324 C 884.225 5.45714 -1.76021 0
M  V30 9325 N 883.721 6.54738 -2.26473 0
M  V30 9326 N 885.514 5.36659 -1.67194 0
M  V30 9327 H 877.665 1.49041 -1.51329 0
M  V30 9328 H 879.928 0.708309 -0.630081 0
M  V30 9329 H 879.634 2.9835 -1.86227 0
M  V30 9330 H 879.508 3.76053 -0.293977 0
M  V30 9331 H 881.895 2.93932 0.262246 0
M  V30 9332 H 881.976 2.18207 -1.33489 0
M  V30 9333 H 881.62 4.46932 -2.41276 0
M  V30 9334 H 881.55 5.20607 -0.792229 0
M  V30 9335 H 884.041 3.65391 -0.964259 0
M  V30 9336 H 884.354 7.28814 -2.57002 0
M  V30 9337 H 882.699 6.55673 -2.30473 0
M  V30 9338 H 885.89 4.50382 -1.27569 0
M  V30 9339 H 886.063 6.16113 -2.00771 0
M  V30 9340 N 879.47 0.276058 1.55163 0
M  V30 9341 C 880.718 -0.339782 1.99223 0
M  V30 9342 C 881.039 -1.56307 1.16589 0
M  V30 9343 O 880.309 -1.94225 0.25564 0
M  V30 9344 H 878.889 -0.128534 0.735859 0
M  V30 9345 H 881.551 0.381612 1.91128 0
M  V30 9346 H 880.647 -0.629 3.05696 0
M  V30 9347 N 880.948 -1.576 0.00335426 0
M  V30 9348 C 881.878 -2.11668 -0.985839 0
M  V30 9349 C 882.859 -1.02661 -1.35627 0
M  V30 9350 O 884.044 -1.30361 -1.43943 0
M  V30 9351 C 881.174 -2.62273 -2.27662 0
M  V30 9352 C 880.128 -3.75837 -2.0477 0
M  V30 9353 C 879.454 -4.12769 -3.39891 0
M  V30 9354 C 880.754 -5.02975 -1.40759 0
M  V30 9355 H 882.448 -2.9457 -0.535637 0
M  V30 9356 H 879.994 -1.41702 -0.256204 0
M  V30 9357 H 881.947 -2.98727 -2.97221 0
M  V30 9358 H 880.671 -1.76498 -2.74802 0
M  V30 9359 H 879.33 -3.39782 -1.37636 0
M  V30 9360 H 878.978 -3.24013 -3.8474 0
M  V30 9361 H 878.678 -4.89281 -3.25389 0
M  V30 9362 H 880.202 -4.51784 -4.1076 0
M  V30 9363 H 881.616 -5.37179 -2.00279 0
M  V30 9364 H 880.013 -5.84315 -1.36734 0
M  V30 9365 H 881.083 -4.83431 -0.377218 0
M  V30 9366 N 882.426 0.269451 -1.5528 0
M  V30 9367 C 883.376 1.33553 -1.84791 0
M  V30 9368 C 884.36 1.44532 -0.707067 0
M  V30 9369 O 885.552 1.48153 -0.968493 0
M  V30 9370 C 882.681 2.69516 -2.12641 0
M  V30 9371 C 881.767 2.62633 -3.32993 0
M  V30 9372 N 882.158 2.25371 -4.52815 0
M  V30 9373 C 880.456 2.93688 -3.35654 0
M  V30 9374 C 881.157 2.28567 -5.34913 0
M  V30 9375 N 880.133 2.67181 -4.73408 0
M  V30 9376 H 883.935 1.03758 -2.74976 0
M  V30 9377 H 881.449 0.478087 -1.55203 0
M  V30 9378 H 883.446 3.46424 -2.3194 0
M  V30 9379 H 882.106 3.00197 -1.23742 0
M  V30 9380 H 883.117 1.9729 -4.7885 0
M  V30 9381 H 879.794 3.29057 -2.56958 0
M  V30 9382 H 881.184 2.02289 -6.40725 0
M  V30 9383 N 883.904 1.48273 0.534124 0
M  V30 9384 C 884.854 1.58889 1.63519 0
M  V30 9385 C 885.838 0.44626 1.54588 0
M  V30 9386 O 887.03 0.697474 1.62679 0
M  V30 9387 C 884.159 1.62787 3.0225 0
M  V30 9388 C 883.245 2.82515 3.16301 0
M  V30 9389 N 883.636 4.06977 3.00338 0
M  V30 9390 C 881.934 2.7976 3.47347 0
M  V30 9391 C 882.635 4.87283 3.17694 0
M  V30 9392 N 881.611 4.20024 3.45081 0
M  V30 9393 H 885.413 2.52869 1.49781 0
M  V30 9394 H 882.927 1.44587 0.739479 0
M  V30 9395 H 884.924 1.68486 3.81337 0
M  V30 9396 H 883.584 0.699201 3.17082 0
M  V30 9397 H 884.595 4.37479 2.77186 0
M  V30 9398 H 881.272 1.96132 3.68563 0
M  V30 9399 H 882.662 5.96047 3.10126 0
M  V30 9400 N 885.382 -0.782676 1.36792 0
M  V30 9401 C 886.659 -1.52939 1.21939 0
M  V30 9402 C 887.039 -2.10228 -0.191639 0
M  V30 9403 O 886.387 -1.94574 -1.19805 0
M  V30 9404 C 886.597 -2.61898 2.30674 0
M  V30 9405 C 887.945 -3.29598 2.67676 0
M  V30 9406 O 888.969 -2.72186 2.29768 0
M  V30 9407 O 887.828 -4.3337 3.32946 0
M  V30 9408 H 884.922 -0.676856 0.47518 0
M  V30 9409 H 887.468 -0.82058 1.48542 0
M  V30 9410 H 886.24 -2.17607 3.25212 0
M  V30 9411 H 885.863 -3.40391 2.05475 0
M  V30 9412 N 886.86 -1.21182 -1.00761 0
M  V30 9413 C 887.79 -0.992773 -2.11344 0
M  V30 9414 C 888.771 0.0813618 -1.69905 0
M  V30 9415 O 889.956 -0.0779503 -1.94043 0
M  V30 9416 C 887.086 -0.553826 -3.42856 0
M  V30 9417 C 886.04 -1.57223 -3.98077 0
M  V30 9418 C 885.366 -0.989605 -5.25463 0
M  V30 9419 C 886.666 -2.95839 -4.30438 0
M  V30 9420 H 888.36 -1.91766 -2.29927 0
M  V30 9421 H 885.906 -0.923426 -1.10494 0
M  V30 9422 H 887.859 -0.387771 -4.19612 0
M  V30 9423 H 886.583 0.406702 -3.24058 0
M  V30 9424 H 885.242 -1.7258 -3.23437 0
M  V30 9425 H 884.89 -0.0208743 -5.02996 0
M  V30 9426 H 884.59 -1.66984 -5.63374 0
M  V30 9427 H 886.114 -0.834815 -6.04866 0
M  V30 9428 H 887.528 -2.8394 -4.98047 0
M  V30 9429 H 885.925 -3.60851 -4.79486 0
M  V30 9430 H 886.995 -3.46882 -3.38823 0
M  V30 9431 N 888.338 1.20213 -1.01915 0
M  V30 9432 C 889.268 2.25336 -0.612023 0
M  V30 9433 C 890.249 1.65933 0.374186 0
M  V30 9434 O 891.434 1.92464 0.259053 0
M  V30 9435 C 888.564 3.47267 0.047904 0
M  V30 9436 C 887.518 4.1928 -0.859557 0
M  V30 9437 C 886.844 5.3466 -0.0652655 0
M  V30 9438 C 888.144 4.75143 -2.1688 0
M  V30 9439 H 889.838 2.59645 -1.49079 0
M  V30 9440 H 887.384 1.24808 -0.718263 0
M  V30 9441 H 889.337 4.19991 0.344294 0
M  V30 9442 H 888.061 3.12129 0.961404 0
M  V30 9443 H 886.72 3.48425 -1.13999 0
M  V30 9444 H 886.368 4.95767 0.849964 0
M  V30 9445 H 886.068 5.83772 -0.669618 0
M  V30 9446 H 887.592 6.10187 0.224612 0
M  V30 9447 H 889.006 5.39672 -1.9346 0
M  V30 9448 H 887.403 5.34702 -2.72422 0
M  V30 9449 H 888.473 3.93744 -2.83008 0
M  V30 9450 N 889.816 0.795718 1.36037 0
M  V30 9451 C 890.746 0.212803 2.32528 0
M  V30 9452 C 891.727 -0.655716 1.56953 0
M  V30 9453 O 892.912 -0.588238 1.85077 0
M  V30 9454 C 890.042 -0.648189 3.41198 0
M  V30 9455 C 888.996 0.120948 4.27829 0
M  V30 9456 C 888.322 -0.861044 5.27722 0
M  V30 9457 C 889.622 1.31375 5.05508 0
M  V30 9458 H 891.316 1.01893 2.81528 0
M  V30 9459 H 888.862 0.491422 1.35355 0
M  V30 9460 H 890.815 -1.06597 4.07695 0
M  V30 9461 H 889.539 -1.48709 2.9078 0
M  V30 9462 H 888.198 0.519777 3.62897 0
M  V30 9463 H 887.846 -1.69515 4.73575 0
M  V30 9464 H 887.546 -0.350808 5.86552 0
M  V30 9465 H 889.07 -1.27726 5.97092 0
M  V30 9466 H 890.484 0.971406 5.6501 0
M  V30 9467 H 888.881 1.75772 5.73781 0
M  V30 9468 H 889.951 2.10593 4.36782 0
M  V30 9469 N 891.294 -1.47756 0.548274 0
M  V30 9470 C 892.71 -1.58247 0.207401 0
M  V30 9471 C 892.91 -1.54804 -1.28988 0
M  V30 9472 O 891.966 -1.44673 -2.06944 0
M  V30 9473 C 893.279 -2.89129 0.826142 0
M  V30 9474 C 894.827 -3.02695 0.79655 0
M  V30 9475 C 895.302 -4.36264 1.3942 0
M  V30 9476 N 896.793 -4.42877 1.35698 0
M  V30 9477 C 897.528 -5.44773 1.78913 0
M  V30 9478 N 897.024 -6.53528 2.29942 0
M  V30 9479 N 898.817 -5.35765 1.70038 0
M  V30 9480 H 890.968 -1.48236 1.52117 0
M  V30 9481 H 893.231 -0.704957 0.633829 0
M  V30 9482 H 892.937 -2.97358 1.87806 0
M  V30 9483 H 892.811 -3.75891 0.313916 0
M  V30 9484 H 895.198 -2.94067 -0.246655 0
M  V30 9485 H 895.279 -2.17496 1.34644 0
M  V30 9486 H 894.923 -4.45646 2.43642 0
M  V30 9487 H 894.853 -5.20179 0.819827 0
M  V30 9488 H 897.344 -3.64874 0.983623 0
M  V30 9489 H 897.657 -7.27441 2.60863 0
M  V30 9490 H 896.002 -6.54442 2.33947 0
M  V30 9491 H 899.193 -4.49699 1.29955 0
M  V30 9492 H 899.366 -6.1504 2.04035 0
M  V30 9493 N 892.772 -0.284283 -1.55015 0
M  V30 9494 C 893.719 0.599194 -2.22886 0
M  V30 9495 C 894.689 1.14264 -1.20553 0
M  V30 9496 O 895.874 1.19025 -1.49123 0
M  V30 9497 C 893.014 1.77317 -2.96062 0
M  V30 9498 C 892.127 1.26271 -4.13134 0
M  V30 9499 C 891.262 2.39922 -4.73931 0
M  V30 9500 C 890.301 1.85925 -5.8318 0
M  V30 9501 N 889.438 2.93084 -6.38002 0
M  V30 9502 H 894.278 0.0137816 -2.97997 0
M  V30 9503 H 891.815 -0.00496503 -1.47099 0
M  V30 9504 H 893.773 2.46339 -3.36709 0
M  V30 9505 H 892.403 2.33047 -2.23358 0
M  V30 9506 H 891.455 0.465296 -3.77544 0
M  V30 9507 H 892.767 0.827284 -4.91892 0
M  V30 9508 H 891.921 3.1692 -5.17346 0
M  V30 9509 H 890.66 2.86784 -3.9447 0
M  V30 9510 H 889.665 1.07409 -5.39206 0
M  V30 9511 H 890.89 1.39987 -6.64515 0
M  V30 9512 H 888.836 3.3931 -5.61431 0
M  V30 9513 H 888.753 2.53986 -7.12058 0
M  V30 9514 H 890.021 3.7003 -6.86075 0
M  V30 9515 N 894.251 1.57596 -0.0117121 0
M  V30 9516 C 895.184 2.04624 1.01016 0
M  V30 9517 C 896.162 0.938437 1.32786 0
M  V30 9518 O 897.346 1.20746 1.44751 0
M  V30 9519 C 894.473 2.45369 2.33477 0
M  V30 9520 C 893.519 3.66998 2.17289 0
M  V30 9521 S 894.352 5.14412 1.48795 0
M  V30 9522 C 895.508 5.58438 2.82662 0
M  V30 9523 H 895.741 2.9098 0.60977 0
M  V30 9524 H 893.274 1.53106 0.199494 0
M  V30 9525 H 895.232 2.69511 3.09635 0
M  V30 9526 H 893.893 1.59391 2.70653 0
M  V30 9527 H 893.086 3.93297 3.15172 0
M  V30 9528 H 892.688 3.42918 1.49275 0
M  V30 9529 H 894.98 5.61614 3.78941 0
M  V30 9530 H 895.923 6.58224 2.61049 0
M  V30 9531 H 896.331 4.86033 2.8711 0
M  V30 9532 N 895.729 -0.261212 1.5542 0
M  V30 9533 C 896.954 -1.01341 1.80955 0
M  V30 9534 C 897.379 -1.78711 0.586849 0
M  V30 9535 O 896.737 -1.75266 -0.463837 0
M  V30 9536 C 896.785 -1.93835 3.04073 0
M  V30 9537 O 895.889 -3.02791 2.79985 0
M  V30 9538 H 895.23 -0.289123 0.597749 0
M  V30 9539 H 897.76 -0.286543 2.02584 0
M  V30 9540 H 897.77 -2.3557 3.33123 0
M  V30 9541 H 896.445 -1.36936 3.9271 0
M  V30 9542 H 895.022 -2.65287 2.62063 0
M  V30 9543 N 897.207 -1.48554 -0.526253 0
M  V30 9544 C 898.432 -1.60686 -1.31129 0
M  V30 9545 C 898.857 -0.268701 -1.86171 0
M  V30 9546 O 898.215 0.760167 -1.64594 0
M  V30 9547 C 898.263 -2.65938 -2.43536 0
M  V30 9548 O 897.367 -2.23356 -3.46678 0
M  V30 9549 H 896.708 -0.538691 -0.388211 0
M  V30 9550 H 899.238 -1.94567 -0.632826 0
M  V30 9551 H 899.248 -2.87327 -2.89668 0
M  V30 9552 H 897.923 -3.63085 -2.02835 0
M  V30 9553 H 896.5 -2.12196 -3.06639 0
M  V30 9554 N 898.685 0.775411 -1.37205 0
M  V30 9555 C 899.91 1.5696 -1.35567 0
M  V30 9556 C 900.335 1.88012 0.0575554 0
M  V30 9557 O 899.693 1.48954 1.03355 0
M  V30 9558 C 899.741 2.85886 -2.19776 0
M  V30 9559 O 898.845 3.80103 -1.59987 0
M  V30 9560 H 898.186 0.475583 -0.463375 0
M  V30 9561 H 900.716 0.96001 -1.80679 0
M  V30 9562 H 900.726 3.35024 -2.32859 0
M  V30 9563 H 899.401 2.62613 -3.22502 0
M  V30 9564 H 897.978 3.38736 -1.55924 0
M  V30 9565 N 900.163 1.21714 1.00117 0
M  V30 9566 C 901.388 1.06357 1.78054 0
M  V30 9567 C 901.813 -0.382075 1.84179 0
M  V30 9568 O 901.171 -1.27575 1.28819 0
M  V30 9569 C 901.219 1.66982 3.19608 0
M  V30 9570 O 900.323 0.917892 4.02055 0
M  V30 9571 H 899.664 0.374074 0.548602 0
M  V30 9572 H 902.194 1.61338 1.25822 0
M  V30 9573 H 902.204 1.71363 3.70268 0
M  V30 9574 H 900.879 2.72185 3.14465 0
M  V30 9575 H 899.456 0.949473 3.6061 0
M  V30 9576 N 901.641 -1.19671 1.02551 0
M  V30 9577 C 903.052 -1.70964 0.750208 0
M  V30 9578 C 903.403 -1.82095 -0.730461 0
M  V30 9579 O 902.528 -1.48974 -1.56958 0
M  V30 9580 C 903.123 -3.10516 1.35518 0
M  V30 9581 C 901.682 -3.59083 1.12854 0
M  V30 9582 C 900.829 -2.36041 1.45534 0
M  V30 9583 H 903.78 -1.04559 1.19386 0
M  V30 9584 H 903.801 -3.73028 0.750378 0
M  V30 9585 H 903.313 -3.02383 2.43282 0
M  V30 9586 H 901.414 -3.72536 0.0689627 0
M  V30 9587 H 901.527 -4.43395 1.81488 0
M  V30 9588 H 899.891 -2.39214 0.87458 0
M  V30 9589 H 900.674 -2.3054 2.54374 0
M  V30 9590 N 903.119 -0.802921 -1.35613 0
M  V30 9591 C 904.396 -0.304993 -1.93208 0
M  V30 9592 C 904.776 1.20488 -1.73337 0
M  V30 9593 O 904.124 2.00268 -1.10022 0
M  V30 9594 C 904.334 -0.712383 -3.41652 0
M  V30 9595 C 905.682 -0.699785 -4.18794 0
M  V30 9596 O 906.706 -0.653698 -3.5015 0
M  V30 9597 O 905.565 -0.754842 -5.41262 0
M  V30 9598 H 902.659 -0.0789127 -0.823226 0
M  V30 9599 H 905.205 -0.886372 -1.44712 0
M  V30 9600 H 903.977 -1.75316 -3.49829 0
M  V30 9601 H 903.6 -0.105614 -3.9746 0
M  V30 9602 N 904.597 1.47463 -0.556102 0
M  V30 9603 C 905.527 2.32801 0.180497 0
M  V30 9604 C 906.508 1.43721 0.909848 0
M  V30 9605 O 907.693 1.72578 0.89053 0
M  V30 9606 C 904.823 3.25478 1.21167 0
M  V30 9607 C 903.777 4.2379 0.598846 0
M  V30 9608 C 903.103 5.05783 1.73457 0
M  V30 9609 C 904.403 5.20387 -0.446659 0
M  V30 9610 H 906.097 2.94636 -0.531956 0
M  V30 9611 H 903.643 1.41683 -0.257267 0
M  V30 9612 H 905.596 3.8402 1.73513 0
M  V30 9613 H 904.32 2.61695 1.95405 0
M  V30 9614 H 902.979 3.66472 0.0966897 0
M  V30 9615 H 902.627 4.38405 2.46596 0
M  V30 9616 H 902.327 5.72343 1.33031 0
M  V30 9617 H 903.851 5.67183 2.26131 0
M  V30 9618 H 905.265 5.73299 -0.00930019 0
M  V30 9619 H 903.662 5.95143 -0.769735 0
M  V30 9620 H 904.732 4.65932 -1.34295 0
M  V30 9621 N 906.075 0.2925 1.54862 0
M  V30 9622 C 907.005 -0.580677 2.26165 0
M  V30 9623 C 907.986 -1.14485 1.25806 0
M  V30 9624 O 909.171 -1.17577 1.54562 0
M  V30 9625 C 906.301 -1.75668 2.99596 0
M  V30 9626 C 905.255 -1.32325 4.07031 0
M  V30 9627 C 904.581 -2.58374 4.68131 0
M  V30 9628 C 905.881 -0.460703 5.20264 0
M  V30 9629 H 907.575 0.0140075 2.99397 0
M  V30 9630 H 905.121 0.00817706 1.43998 0
M  V30 9631 H 907.074 -2.37356 3.48195 0
M  V30 9632 H 905.798 -2.37747 2.23928 0
M  V30 9633 H 904.457 -0.729477 3.59269 0
M  V30 9634 H 904.105 -3.18749 3.89112 0
M  V30 9635 H 903.805 -2.30078 5.40683 0
M  V30 9636 H 905.329 -3.2088 5.19489 0
M  V30 9637 H 906.743 -0.983037 5.64809 0
M  V30 9638 H 905.14 -0.271881 5.99484 0
M  V30 9639 H 906.21 0.516304 4.82143 0
M  V30 9640 N 907.553 -1.57587 0.0200696 0
M  V30 9641 C 908.778 -1.96124 -0.674547 0
M  V30 9642 C 909.203 -0.896068 -1.65385 0
M  V30 9643 O 908.561 0.143925 -1.80728 0
M  V30 9644 C 908.609 -3.3376 -1.36517 0
M  V30 9645 O 907.713 -3.29483 -2.48022 0
M  V30 9646 H 907.054 -0.639719 -0.177919 0
M  V30 9647 H 909.584 -2.04447 0.0792317 0
M  V30 9648 H 909.594 -3.69785 -1.72403 0
M  V30 9649 H 908.269 -4.10832 -0.647265 0
M  V30 9650 H 906.846 -3.05162 -2.14314 0
M  V30 9651 N 909.032 0.252966 -1.55557 0
M  V30 9652 C 909.995 1.29645 -1.8901 0
M  V30 9653 C 910.995 1.41378 -0.766096 0
M  V30 9654 O 912.185 1.40183 -1.03414 0
M  V30 9655 C 909.317 2.67504 -2.11316 0
M  V30 9656 H 910.51 1.01202 -2.82309 0
M  V30 9657 H 908.063 0.491977 -1.48355 0
M  V30 9658 H 908.798 3.01095 -1.20466 0
M  V30 9659 H 908.583 2.6037 -2.93172 0
M  V30 9660 H 910.073 3.42861 -2.38403 0
M  V30 9661 N 910.51 1.48831 0.518367 0
M  V30 9662 C 911.473 1.63721 1.604 0
M  V30 9663 C 912.473 0.509857 1.52503 0
M  V30 9664 O 913.663 0.775922 1.55965 0
M  V30 9665 C 910.795 1.61831 3.00039 0
M  V30 9666 H 911.988 2.60534 1.48533 0
M  V30 9667 H 909.541 1.37602 0.741309 0
M  V30 9668 H 910.276 0.665387 3.17401 0
M  V30 9669 H 910.061 2.43686 3.0718 0
M  V30 9670 H 911.551 1.75467 3.78947 0
M  V30 9671 N 911.988 -0.768124 1.37614 0
M  V30 9672 C 912.918 -1.89537 1.36374 0
M  V30 9673 C 913.899 -1.68513 0.231803 0
M  V30 9674 O 915.084 -1.89318 0.432705 0
M  V30 9675 C 912.214 -3.26871 1.17358 0
M  V30 9676 C 911.168 -3.62466 2.27602 0
M  V30 9677 C 910.494 -4.9838 1.93705 0
M  V30 9678 C 911.794 -3.68841 3.69802 0
M  V30 9679 H 913.488 -1.90832 2.30702 0
M  V30 9680 H 911.034 -0.91672 1.11051 0
M  V30 9681 H 912.987 -4.05371 1.15119 0
M  V30 9682 H 911.711 -3.26018 0.194865 0
M  V30 9683 H 910.37 -2.86276 2.29002 0
M  V30 9684 H 910.018 -4.94071 0.943539 0
M  V30 9685 H 909.718 -5.23165 2.6753 0
M  V30 9686 H 911.242 -5.79276 1.93059 0
M  V30 9687 H 912.656 -4.37485 3.70513 0
M  V30 9688 H 911.053 -4.05126 4.42711 0
M  V30 9689 H 912.123 -2.69415 4.03167 0
M  V30 9690 N 913.466 -1.22244 -0.994698 0
M  V30 9691 C 914.714 -1.04384 -1.73056 0
M  V30 9692 C 915.035 0.422204 -1.90374 0
M  V30 9693 O 914.305 1.30383 -1.46209 0
M  V30 9694 H 912.885 -0.383263 -0.641185 0
M  V30 9695 H 915.547 -1.53725 -1.1981 0
M  V30 9696 H 914.643 -1.52021 -2.72573 0
M  V30 9697 N 914.944 1.19125 -1.03184 0
M  V30 9698 C 916.169 1.93379 -0.749628 0
M  V30 9699 C 916.594 1.75153 0.685785 0
M  V30 9700 O 915.952 1.05579 1.47386 0
M  V30 9701 C 916 3.43101 -1.1097 0
M  V30 9702 O 915.104 4.11758 -0.230053 0
M  V30 9703 H 914.445 0.603605 -0.276689 0
M  V30 9704 H 916.975 1.51116 -1.37931 0
M  V30 9705 H 916.985 3.93778 -1.06785 0
M  V30 9706 H 915.66 3.55688 -2.15544 0
M  V30 9707 H 914.237 3.7143 -0.330748 0
M  V30 9708 N 916.422 0.810101 1.35185 0
M  V30 9709 C 917.838 0.494269 1.51754 0
M  V30 9710 C 918.038 -0.983907 1.75845 0
M  V30 9711 O 917.094 -1.76882 1.80191 0
M  V30 9712 C 918.407 1.34268 2.69059 0
M  V30 9713 C 919.955 1.33848 2.82938 0
M  V30 9714 C 920.43 2.17109 4.03271 0
M  V30 9715 N 921.921 2.14664 4.10456 0
M  V30 9716 C 922.656 2.75843 5.02691 0
M  V30 9717 N 922.152 3.45962 6.00235 0
M  V30 9718 N 923.945 2.65465 4.95464 0
M  V30 9719 H 916.096 1.76736 1.17805 0
M  V30 9720 H 918.359 0.752429 0.576676 0
M  V30 9721 H 918.065 2.39183 2.57845 0
M  V30 9722 H 917.939 0.998362 3.63748 0
M  V30 9723 H 920.326 0.29716 2.936 0
M  V30 9724 H 920.407 1.72269 1.89095 0
M  V30 9725 H 920.051 3.21283 3.93369 0
M  V30 9726 H 919.981 1.76046 4.96302 0
M  V30 9727 H 922.472 1.63648 3.40628 0
M  V30 9728 H 922.785 3.89922 6.67219 0
M  V30 9729 H 921.13 3.50067 6.00398 0
M  V30 9730 H 924.321 2.1027 4.18215 0
M  V30 9731 H 924.494 3.13433 5.67154 0
M  V30 9732 N 917.9 -1.47166 0.563914 0
M  V30 9733 C 919.148 -2.02056 0.0422873 0
M  V30 9734 C 919.469 -1.43992 -1.31497 0
M  V30 9735 O 918.739 -0.617578 -1.85911 0
M  V30 9736 H 917.319 -0.746893 0.0126427 0
M  V30 9737 H 919.981 -1.80492 0.735441 0
M  V30 9738 H 919.077 -3.12073 -0.0408044 0
M  V30 9739 N 919.378 -0.300708 -1.54705 0
M  V30 9740 C 920.794 0.0526874 -1.59513 0
M  V30 9741 C 920.994 1.52444 -1.31769 0
M  V30 9742 O 920.05 2.27716 -1.09096 0
M  V30 9743 C 921.363 -0.344989 -2.98714 0
M  V30 9744 C 922.911 -0.29373 -3.11619 0
M  V30 9745 C 923.386 -0.666225 -4.53129 0
M  V30 9746 N 924.877 -0.618749 -4.59049 0
M  V30 9747 C 925.612 -0.879447 -5.66616 0
M  V30 9748 N 925.108 -1.2061 -6.82221 0
M  V30 9749 N 926.901 -0.806528 -5.56284 0
M  V30 9750 H 919.052 -1.25988 -1.71 0
M  V30 9751 H 921.315 -0.510758 -0.798643 0
M  V30 9752 H 921.021 -1.36953 -3.2394 0
M  V30 9753 H 920.895 0.301507 -3.75993 0
M  V30 9754 H 923.282 0.72156 -2.86142 0
M  V30 9755 H 923.363 -0.974844 -2.36496 0
M  V30 9756 H 923.007 -1.67932 -4.79334 0
M  V30 9757 H 922.937 0.0369575 -5.26587 0
M  V30 9758 H 925.428 -0.377202 -3.76013 0
M  V30 9759 H 925.741 -1.391 -7.60178 0
M  V30 9760 H 924.086 -1.24413 -6.83774 0
M  V30 9761 H 927.277 -0.550993 -4.64846 0
M  V30 9762 H 927.45 -1.01307 -6.40032 0
M  V30 9763 N 920.856 1.57574 -0.0284266 0
M  V30 9764 C 922.104 1.91393 0.649079 0
M  V30 9765 C 922.425 0.905368 1.72708 0
M  V30 9766 O 921.695 -0.0532107 1.95828 0
M  V30 9767 H 920.275 0.70646 0.24274 0
M  V30 9768 H 922.937 1.94752 -0.076066 0
M  V30 9769 H 922.033 2.91988 1.10226 0
M  V30 9770 N 922.334 -0.244713 1.55689 0
M  V30 9771 C 923.297 -1.2864 1.89695 0
M  V30 9772 C 924.297 -1.40969 0.773583 0
M  V30 9773 O 925.487 -1.39632 1.04156 0
M  V30 9774 C 922.619 -2.66379 2.12732 0
M  V30 9775 H 923.812 -0.997033 2.82841 0
M  V30 9776 H 921.365 -0.484103 1.48614 0
M  V30 9777 H 922.1 -3.00452 1.22062 0
M  V30 9778 H 921.885 -2.58812 2.94549 0
M  V30 9779 H 923.375 -3.41592 2.40218 0
M  V30 9780 N 923.813 -1.49104 -0.510467 0
M  V30 9781 C 925.041 -1.61806 -1.28944 0
M  V30 9782 C 925.456 -0.285774 -1.86625 0
M  V30 9783 O 924.813 0.727551 -1.67371 0
M  V30 9784 C 924.864 -2.67966 -2.42645 0
M  V30 9785 O 924.585 -3.96026 -1.87337 0
M  V30 9786 C 926.086 -2.91286 -3.34166 0
M  V30 9787 H 923.306 -0.544999 -0.391429 0
M  V30 9788 H 925.85 -1.95071 -0.613805 0
M  V30 9789 H 924.005 -2.37505 -3.06056 0
M  V30 9790 H 924.419 -4.54427 -2.61909 0
M  V30 9791 H 925.893 -3.69323 -4.1025 0
M  V30 9792 H 926.37 -2.00842 -3.90588 0
M  V30 9793 H 926.976 -3.23127 -2.76531 0
M  V30 9794 N 925.291 0.760815 -1.38019 0
M  V30 9795 C 926.539 1.51673 -1.33566 0
M  V30 9796 C 926.86 1.94852 0.076024 0
M  V30 9797 O 926.13 1.67112 1.02227 0
M  V30 9798 H 924.71 0.562581 -0.491438 0
M  V30 9799 H 927.372 0.904832 -1.72623 0
M  V30 9800 H 926.468 2.41102 -1.98182 0
M  V30 9801 N 926.769 1.22769 0.988202 0
M  V30 9802 C 928.017 1.05301 1.725 0
M  V30 9803 C 928.338 -0.412103 1.90596 0
M  V30 9804 O 927.608 -1.29606 1.46898 0
M  V30 9805 H 926.188 0.386658 0.639144 0
M  V30 9806 H 928.85 1.54359 1.18993 0
M  V30 9807 H 927.946 1.53465 2.71763 0
M  V30 9808 N 928.247 -1.18576 1.03814 0
M  V30 9809 C 929.21 -2.2033 0.63146 0
M  V30 9810 C 930.21 -1.57787 -0.309816 0
M  V30 9811 O 931.4 -1.73938 -0.0955598 0
M  V30 9812 C 928.532 -3.40818 -0.0745963 0
M  V30 9813 H 929.725 -2.57824 1.53189 0
M  V30 9814 H 927.278 -1.32416 0.830398 0
M  V30 9815 H 928.013 -3.08853 -0.988947 0
M  V30 9816 H 927.798 -3.87453 0.6019 0
M  V30 9817 H 929.288 -4.16166 -0.345727 0
M  V30 9818 N 929.725 -0.817259 -1.34754 0
M  V30 9819 C 930.973 -0.401852 -1.98065 0
M  V30 9820 C 931.294 1.03718 -1.65129 0
M  V30 9821 O 930.564 1.71921 -0.939141 0
M  V30 9822 H 929.144 -0.145603 -0.732672 0
M  V30 9823 H 931.806 -1.04545 -1.64488 0
M  V30 9824 H 930.902 -0.516241 -3.07801 0
M  V30 9825 N 931.203 1.46865 -0.571711 0
M  V30 9826 C 932.48 1.95596 0.0132445 0
M  V30 9827 C 932.86 1.51438 1.47071 0
M  V30 9828 O 932.208 0.759917 2.15494 0
M  V30 9829 C 932.418 3.48689 -0.147335 0
M  V30 9830 C 933.766 4.24599 -0.00946329 0
M  V30 9831 O 934.79 3.5612 -0.0756112 0
M  V30 9832 O 933.649 5.46332 0.135361 0
M  V30 9833 H 930.743 0.825102 0.0560039 0
M  V30 9834 H 933.289 1.57199 -0.639256 0
M  V30 9835 H 932.061 3.73681 -1.16096 0
M  V30 9836 H 931.684 3.93887 0.542109 0
M  V30 9837 N 932.681 0.308908 1.54543 0
M  V30 9838 C 934.092 -0.182144 1.85809 0
M  V30 9839 C 934.443 -1.52796 1.23076 0
M  V30 9840 O 933.568 -2.09775 0.531358 0
M  V30 9841 C 934.163 -0.337275 3.37117 0
M  V30 9842 C 932.722 -0.772545 3.68387 0
M  V30 9843 C 931.869 0.114451 2.77064 0
M  V30 9844 H 934.82 0.529671 1.496 0
M  V30 9845 H 934.841 -1.17058 3.62046 0
M  V30 9846 H 934.353 0.642382 3.82747 0
M  V30 9847 H 932.454 -1.76247 3.2828 0
M  V30 9848 H 932.567 -0.586453 4.75497 0
M  V30 9849 H 930.931 -0.407581 2.51418 0
M  V30 9850 H 931.714 1.09061 3.25516 0
M  V30 9851 N 934.159 -1.57557 0.0367827 0
M  V30 9852 C 935.407 -1.91735 -0.63892 0
M  V30 9853 C 935.728 -0.914515 -1.72226 0
M  V30 9854 O 934.998 0.0428248 -1.95853 0
M  V30 9855 H 933.578 -0.707738 -0.23899 0
M  V30 9856 H 936.24 -1.94708 0.0863931 0
M  V30 9857 H 935.336 -2.92568 -1.08676 0
M  V30 9858 N 935.637 0.236453 -1.55816 0
M  V30 9859 C 936.862 0.98449 -1.82545 0
M  V30 9860 C 937.287 1.77755 -0.615206 0
M  V30 9861 O 936.645 1.75982 0.435895 0
M  V30 9862 C 936.693 1.88973 -3.07118 0
M  V30 9863 O 935.797 2.98298 -2.84766 0
M  V30 9864 H 935.138 0.279577 -0.602273 0
M  V30 9865 H 937.668 0.254277 -2.03014 0
M  V30 9866 H 937.678 2.3024 -3.36829 0
M  V30 9867 H 936.353 1.30671 -3.94839 0
M  V30 9868 H 934.93 2.61085 -2.6625 0
M  V30 9869 N 937.115 1.49373 0.502552 0
M  V30 9870 C 938.526 1.52 1.0841 0
M  V30 9871 C 938.877 0.305317 1.9381 0
M  V30 9872 O 938.002 -0.585023 2.08342 0
M  V30 9873 C 938.597 2.75437 1.97281 0
M  V30 9874 C 937.156 2.80848 2.50602 0
M  V30 9875 C 936.303 2.45894 1.28186 0
M  V30 9876 H 939.254 1.56092 0.286533 0
M  V30 9877 H 939.275 2.55511 2.81947 0
M  V30 9878 H 938.787 3.63827 1.35098 0
M  V30 9879 H 936.888 1.96735 3.16427 0
M  V30 9880 H 937.001 3.82979 2.8786 0
M  V30 9881 H 935.365 1.97639 1.60657 0
M  V30 9882 H 936.148 3.36556 0.677139 0
M  V30 9883 N 938.594 -0.753485 1.38421 0
M  V30 9884 C 940.005 -1.33081 1.30944 0
M  V30 9885 C 940.356 -1.96169 -0.0347124 0
M  V30 9886 O 939.481 -1.95073 -0.936768 0
M  V30 9887 C 940.076 -2.41973 2.37138 0
M  V30 9888 C 938.635 -2.95426 2.33239 0
M  V30 9889 C 937.782 -1.68808 2.19998 0
M  V30 9890 H 940.733 -0.552354 1.48777 0
M  V30 9891 H 940.754 -3.21913 2.02859 0
M  V30 9892 H 940.266 -1.96027 3.34956 0
M  V30 9893 H 938.367 -3.45701 1.39003 0
M  V30 9894 H 938.48 -3.49798 3.27381 0
M  V30 9895 H 936.844 -1.92438 1.66852 0
M  V30 9896 H 937.627 -1.24939 3.19758 0
M  V30 9897 N 940.072 -1.23292 -0.981677 0
M  V30 9898 C 941.483 -1.05936 -1.53735 0
M  V30 9899 C 941.834 0.373695 -1.92608 0
M  V30 9900 O 940.959 1.26024 -1.75917 0
M  V30 9901 C 941.554 -1.91682 -2.79363 0
M  V30 9902 C 940.113 -1.78591 -3.31334 0
M  V30 9903 C 939.26 -1.87463 -2.04335 0
M  V30 9904 H 942.211 -1.36973 -0.801505 0
M  V30 9905 H 942.232 -1.44085 -3.52164 0
M  V30 9906 H 941.744 -2.95975 -2.51039 0
M  V30 9907 H 939.845 -0.770755 -3.64541 0
M  V30 9908 H 939.958 -2.61902 -4.01179 0
M  V30 9909 H 938.322 -1.3103 -2.18411 0
M  V30 9910 H 939.105 -2.9331 -1.78394 0
M  V30 9911 N 941.55 1.18024 -1.04442 0
M  V30 9912 C 942.513 2.19992 -0.643136 0
M  V30 9913 C 943.513 1.57949 0.301444 0
M  V30 9914 O 944.703 1.73986 0.0863341 0
M  V30 9915 C 941.835 3.40853 0.0565208 0
M  V30 9916 H 943.028 2.57008 -1.54554 0
M  V30 9917 H 940.581 1.31974 -0.837408 0
M  V30 9918 H 941.316 3.09373 0.972553 0
M  V30 9919 H 941.101 3.87128 -0.622439 0
M  V30 9920 H 942.591 4.16344 0.323652 0
M  V30 9921 N 943.028 0.824394 1.34319 0
M  V30 9922 C 944.444 0.510336 1.51221 0
M  V30 9923 C 944.644 -0.965201 1.76879 0
M  V30 9924 O 943.7 -1.74961 1.82057 0
M  V30 9925 C 945.013 1.37114 2.6762 0
M  V30 9926 C 946.561 1.36842 2.81502 0
M  V30 9927 C 947.036 2.21374 4.00946 0
M  V30 9928 N 948.527 2.19005 4.08156 0
M  V30 9929 C 949.262 2.81159 4.99737 0
M  V30 9930 N 948.758 3.52309 5.96532 0
M  V30 9931 N 950.551 2.70706 4.9262 0
M  V30 9932 H 942.702 1.77976 1.15924 0
M  V30 9933 H 944.965 0.758503 0.568663 0
M  V30 9934 H 944.671 2.41905 2.55294 0
M  V30 9935 H 944.545 1.03689 3.62669 0
M  V30 9936 H 946.932 0.328284 2.93268 0
M  V30 9937 H 947.013 1.74265 1.87257 0
M  V30 9938 H 946.657 3.25437 3.8994 0
M  V30 9939 H 946.587 1.813 4.94407 0
M  V30 9940 H 949.078 1.67252 3.38874 0
M  V30 9941 H 949.391 3.96977 6.63045 0
M  V30 9942 H 947.736 3.56415 5.96652 0
M  V30 9943 H 950.927 2.14694 4.15962 0
M  V30 9944 H 951.1 3.19431 5.63798 0
M  V30 9945 N 944.506 -1.46559 0.579492 0
M  V30 9946 C 945.754 -2.02 0.0637157 0
M  V30 9947 C 946.075 -1.45378 -1.29962 0
M  V30 9948 O 945.345 -0.637262 -1.85245 0
M  V30 9949 H 943.925 -0.746717 0.0205638 0
M  V30 9950 H 946.587 -1.79702 0.754544 0
M  V30 9951 H 945.683 -3.12099 -0.00770254 0
M  V30 9952 N 945.984 -0.3171 -1.54377 0
M  V30 9953 C 947.261 0.341348 -1.92598 0
M  V30 9954 C 947.641 1.70402 -1.24605 0
M  V30 9955 O 946.989 2.25191 -0.387448 0
M  V30 9956 C 947.199 0.440003 -3.46215 0
M  V30 9957 C 948.547 0.703327 -4.18734 0
M  V30 9958 O 949.571 0.523181 -3.52337 0
M  V30 9959 O 948.43 1.05042 -5.3631 0
M  V30 9960 H 945.524 0.193696 -0.803997 0
M  V30 9961 H 948.07 -0.366341 -1.65699 0
M  V30 9962 H 946.842 -0.517299 -3.87866 0
M  V30 9963 H 946.465 1.19553 -3.792 0
M  V30 9964 N 947.462 1.57535 -0.0451378 0
M  V30 9965 C 948.69 1.96761 0.639742 0
M  V30 9966 C 949.105 0.922405 1.64734 0
M  V30 9967 O 948.462 -0.0940535 1.82257 0
M  V30 9968 C 948.513 3.36066 1.33199 0
M  V30 9969 O 948.234 4.36579 0.364757 0
M  V30 9970 C 949.735 3.90015 2.1072 0
M  V30 9971 H 946.955 0.64769 0.175324 0
M  V30 9972 H 949.499 2.04206 -0.109651 0
M  V30 9973 H 947.654 3.2979 2.03266 0
M  V30 9974 H 948.068 5.17432 0.858168 0
M  V30 9975 H 949.542 4.89785 2.54586 0
M  V30 9976 H 950.019 3.25117 2.95288 0
M  V30 9977 H 950.625 3.99609 1.45577 0
M  V30 9978 N 948.94 -0.228186 1.55939 0
M  V30 9979 C 950.351 -0.795734 1.68893 0
M  V30 9980 C 950.702 -1.85261 0.645967 0
M  V30 9981 O 949.827 -2.15434 -0.2042 0
M  V30 9982 C 950.422 -1.45013 3.06197 0
M  V30 9983 C 948.981 -1.96514 3.21028 0
M  V30 9984 C 948.128 -0.822918 2.64808 0
M  V30 9985 H 951.079 -0.0036485 1.587 0
M  V30 9986 H 951.1 -2.31875 3.01685 0
M  V30 9987 H 950.612 -0.680678 3.82084 0
M  V30 9988 H 948.713 -2.76282 2.49998 0
M  V30 9989 H 948.826 -2.14967 4.28166 0
M  V30 9990 H 947.19 -1.22846 2.23116 0
M  V30 9991 H 947.973 -0.0662493 3.43236 0
M  V30 9992 N 950.418 -1.49637 -0.494624 0
M  V30 9993 C 951.829 -1.52573 -1.07603 0
M  V30 9994 C 952.18 -0.315591 -1.93645 0
M  V30 9995 O 951.305 0.573966 -2.08649 0
M  V30 9996 C 951.9 -2.7648 -1.95817 0
M  V30 9997 C 950.459 -2.82173 -2.49109 0
M  V30 9998 C 949.606 -2.4657 -1.2688 0
M  V30 9999 H 952.557 -1.56242 -0.278251 0
M  V30 10000 H 952.578 -2.57003 -2.80588 0
M  V30 10001 H 952.09 -3.64538 -1.33167 0
M  V30 10002 H 950.191 -1.9841 -3.15379 0
M  V30 10003 H 950.304 -3.84501 -2.85825 0
M  V30 10004 H 948.668 -1.98489 -1.59607 0
M  V30 10005 H 949.451 -3.3691 -0.659281 0
M  V30 10006 N 951.896 0.746133 -1.38819 0
M  V30 10007 C 953.121 1.54049 -1.38866 0
M  V30 10008 C 953.546 1.88092 0.0176624 0
M  V30 10009 O 952.904 1.51113 1.00173 0
M  V30 10010 C 952.952 2.8116 -2.25791 0
M  V30 10011 O 952.056 3.76623 -1.68014 0
M  V30 10012 H 951.397 0.465648 -0.473359 0
M  V30 10013 H 953.927 0.921469 -1.82675 0
M  V30 10014 H 953.937 3.30009 -2.39913 0
M  V30 10015 H 952.612 2.55713 -3.27999 0
M  V30 10016 H 951.189 3.35352 -1.63074 0
M  V30 10017 N 953.375 1.23811 0.975125 0
M  V30 10018 C 954.285 1.0408 2.10249 0
M  V30 10019 C 955.301 -0.0162404 1.73992 0
M  V30 10020 O 956.477 0.180346 2.00591 0
M  V30 10021 C 953.542 0.640013 3.40741 0
M  V30 10022 C 952.603 1.7727 3.90991 0
M  V30 10023 C 951.836 1.39094 5.15256 0
M  V30 10024 O 952.059 0.277483 5.69725 0
M  V30 10025 O 950.993 2.21392 5.59704 0
M  V30 10026 H 954.819 1.98575 2.29786 0
M  V30 10027 H 952.404 1.02563 1.08633 0
M  V30 10028 H 954.286 0.427684 4.19224 0
M  V30 10029 H 952.961 -0.27589 3.22522 0
M  V30 10030 H 951.868 2.03971 3.13602 0
M  V30 10031 H 953.201 2.66711 4.13674 0
M  V30 10032 N 954.853 -1.17469 1.05066 0
M  V30 10033 C 956.101 -1.87327 0.758485 0
M  V30 10034 C 956.422 -1.81358 -0.716549 0
M  V30 10035 O 955.692 -1.23868 -1.51768 0
M  V30 10036 H 954.272 -0.693512 0.277579 0
M  V30 10037 H 956.934 -1.4251 1.32954 0
M  V30 10038 H 956.03 -2.93101 1.0723 0
M  V30 10039 N 956.331 -0.831506 -1.3388 0
M  V30 10040 C 957.556 -0.435954 -2.02766 0
M  V30 10041 C 957.981 0.952889 -1.62178 0
M  V30 10042 O 957.339 1.62166 -0.810681 0
M  V30 10043 C 957.387 -0.555907 -3.56289 0
M  V30 10044 O 956.491 0.420826 -4.10247 0
M  V30 10045 H 955.832 -0.178248 -0.639628 0
M  V30 10046 H 958.362 -1.1243 -1.70941 0
M  V30 10047 H 958.372 -0.434831 -4.05676 0
M  V30 10048 H 957.047 -1.56881 -3.85177 0
M  V30 10049 H 955.624 0.257919 -3.72007 0
M  V30 10050 N 957.809 1.4625 -0.587256 0
M  V30 10051 C 958.772 2.28812 0.133238 0
M  V30 10052 C 959.772 1.38645 0.814513 0
M  V30 10053 O 960.962 1.60975 0.665774 0
M  V30 10054 C 958.094 3.19147 1.19824 0
M  V30 10055 H 959.287 2.93991 -0.592386 0
M  V30 10056 H 956.84 1.52435 -0.345416 0
M  V30 10057 H 957.575 2.58725 1.95529 0
M  V30 10058 H 957.36 3.85541 0.71418 0
M  V30 10059 H 958.85 3.81278 1.70344 0
M  V30 10060 N 959.287 0.325282 1.54207 0
M  V30 10061 C 960.698 -0.162426 1.85992 0
M  V30 10062 C 961.049 -1.51482 1.2469 0
M  V30 10063 O 960.174 -2.092 0.553578 0
M  V30 10064 C 960.769 -0.3015 3.37456 0
M  V30 10065 C 959.328 -0.73343 3.69185 0
M  V30 10066 C 958.475 0.143831 2.76927 0
M  V30 10067 H 961.426 0.545508 1.4903 0
M  V30 10068 H 961.447 -1.13212 3.63268 0
M  V30 10069 H 960.959 0.682942 3.82044 0
M  V30 10070 H 959.06 -1.72755 3.30131 0
M  V30 10071 H 959.173 -0.535987 4.76092 0
M  V30 10072 H 957.537 -0.380892 2.51836 0
M  V30 10073 H 958.32 1.12507 3.24341 0
M  V30 10074 N 960.765 -1.57509 0.0534917 0
M  V30 10075 C 962.013 -1.92402 -0.618548 0
M  V30 10076 C 962.334 -0.93273 -1.71246 0
M  V30 10077 O 961.604 0.0220495 -1.95888 0
M  V30 10078 H 960.184 -0.710233 -0.23147 0
M  V30 10079 H 962.846 -1.94606 0.10704 0
M  V30 10080 H 961.942 -2.93704 -1.05566 0
M  V30 10081 N 962.243 0.219913 -1.56058 0
M  V30 10082 C 963.468 0.965073 -1.83579 0
M  V30 10083 C 963.893 1.77092 -0.634024 0
M  V30 10084 O 963.251 1.76434 0.417205 0
M  V30 10085 C 963.299 1.85705 -3.09105 0
M  V30 10086 O 962.403 2.95261 -2.87914 0
M  V30 10087 H 961.744 0.273173 -0.605204 0
M  V30 10088 H 964.274 0.23273 -2.03272 0
M  V30 10089 H 964.284 2.26655 -3.39252 0
M  V30 10090 H 962.959 1.26476 -3.96203 0
M  V30 10091 H 961.536 2.58246 -2.69005 0
M  V30 10092 N 963.721 1.49897 0.486681 0
M  V30 10093 C 964.949 1.63837 1.26353 0
M  V30 10094 C 965.364 0.315428 1.86146 0
M  V30 10095 O 964.721 -0.700831 1.68507 0
M  V30 10096 C 964.772 2.71792 2.38351 0
M  V30 10097 O 964.493 3.98956 1.81013 0
M  V30 10098 C 965.994 2.96566 3.2949 0
M  V30 10099 H 963.214 0.551158 0.382709 0
M  V30 10100 H 965.758 1.96023 0.582694 0
M  V30 10101 H 963.913 2.42344 3.02238 0
M  V30 10102 H 964.327 4.58536 2.54647 0
M  V30 10103 H 965.801 3.75803 4.04322 0
M  V30 10104 H 966.278 2.07031 3.87343 0
M  V30 10105 H 966.884 3.27485 2.71355 0
M  V30 10106 N 965.199 -0.738761 1.39212 0
M  V30 10107 C 966.424 -1.5331 1.39681 0
M  V30 10108 C 966.849 -1.88098 -0.00768715 0
M  V30 10109 O 966.207 -1.51642 -0.993699 0
M  V30 10110 C 966.255 -2.79958 2.27279 0
M  V30 10111 O 965.359 -3.75727 1.70008 0
M  V30 10112 H 964.7 -0.463131 0.475821 0
M  V30 10113 H 967.23 -0.911768 1.83161 0
M  V30 10114 H 967.24 -3.28732 2.41659 0
M  V30 10115 H 965.915 -2.5397 3.29351 0
M  V30 10116 H 964.492 -3.34483 1.64851 0
M  V30 10117 N 966.677 -1.24326 -0.968545 0
M  V30 10118 C 968.088 -1.07561 -1.52603 0
M  V30 10119 C 968.439 0.353245 -1.92994 0
M  V30 10120 O 967.564 1.24151 -1.77244 0
M  V30 10121 C 968.159 -1.94634 -2.77314 0
M  V30 10122 C 966.718 -1.82095 -3.29421 0
M  V30 10123 C 965.865 -1.8962 -2.02335 0
M  V30 10124 H 968.816 -1.37815 -0.786932 0
M  V30 10125 H 968.837 -1.47812 -3.50616 0
M  V30 10126 H 968.349 -2.98621 -2.47885 0
M  V30 10127 H 966.45 -0.809376 -3.63703 0
M  V30 10128 H 966.563 -2.66142 -3.98378 0
M  V30 10129 H 964.927 -1.33339 -2.17009 0
M  V30 10130 H 965.71 -2.95185 -1.75273 0
M  V30 10131 N 968.156 1.1691 -1.05688 0
M  V30 10132 C 969.433 1.83266 -0.683601 0
M  V30 10133 C 969.813 1.93858 0.835602 0
M  V30 10134 O 969.161 1.47696 1.7435 0
M  V30 10135 C 969.371 3.20625 -1.37842 0
M  V30 10136 C 970.719 3.96473 -1.51967 0
M  V30 10137 O 971.743 3.30122 -1.33783 0
M  V30 10138 O 970.602 5.15393 -1.81749 0
M  V30 10139 H 967.696 0.791028 -0.241254 0
M  V30 10140 H 970.242 1.24165 -1.15677 0
M  V30 10141 H 969.014 3.07914 -2.41463 0
M  V30 10142 H 968.637 3.87398 -0.894921 0
M  V30 10143 N 969.634 0.838594 1.33437 0
M  V30 10144 C 970.859 0.446701 2.02532 0
M  V30 10145 C 971.284 -0.944275 1.62681 0
M  V30 10146 O 970.642 -1.61733 0.81927 0
M  V30 10147 C 970.69 0.574794 3.55989 0
M  V30 10148 O 969.794 -0.399063 4.10465 0
M  V30 10149 H 969.135 0.181637 0.638674 0
M  V30 10150 H 971.665 1.13335 1.70342 0
M  V30 10151 H 971.675 0.456339 4.0544 0
M  V30 10152 H 970.35 1.58921 3.8434 0
M  V30 10153 H 968.927 -0.238187 3.72139 0
M  V30 10154 N 971.112 -1.45937 0.595003 0
M  V30 10155 C 972.523 -1.85908 0.171779 0
M  V30 10156 C 972.874 -1.497 -1.26824 0
M  V30 10157 O 971.999 -0.917688 -1.95978 0
M  V30 10158 C 972.594 -3.37425 0.304976 0
M  V30 10159 C 971.153 -3.76346 -0.0634635 0
M  V30 10160 C 970.3 -2.69926 0.635255 0
M  V30 10161 H 973.251 -1.36916 0.802471 0
M  V30 10162 H 973.272 -3.77632 -0.466313 0
M  V30 10163 H 972.784 -3.63747 1.35314 0
M  V30 10164 H 970.885 -3.55642 -1.11129 0
M  V30 10165 H 970.998 -4.78021 0.321419 0
M  V30 10166 H 969.362 -2.54592 0.0742054 0
M  V30 10167 H 970.145 -2.99086 1.68531 0
M  V30 10168 N 972.59 -0.333456 -1.54032 0
M  V30 10169 C 973.838 0.265608 -2.00347 0
M  V30 10170 C 974.159 1.51873 -1.2231 0
M  V30 10171 O 973.429 1.93142 -0.327549 0
M  V30 10172 H 972.009 0.101135 -0.740122 0
M  V30 10173 H 974.671 -0.452285 -1.8958 0
M  V30 10174 H 973.767 0.51511 -3.0782 0
M  V30 10175 N 974.068 1.57479 -0.061844 0
M  V30 10176 C 975.316 1.92727 0.608336 0
M  V30 10177 C 975.637 0.941799 1.70749 0
M  V30 10178 O 974.907 -0.0116608 1.95897 0
M  V30 10179 H 973.487 0.71145 0.2277 0
M  V30 10180 H 976.149 1.94546 -0.117359 0
M  V30 10181 H 975.245 2.9426 1.04007 0
M  V30 10182 N 975.546 -0.211634 1.56173 0
M  V30 10183 C 976.509 -1.24588 1.92381 0
M  V30 10184 C 977.509 -1.39297 0.803311 0
M  V30 10185 O 978.699 -1.37392 1.07094 0
M  V30 10186 C 975.831 -2.61807 2.18335 0
M  V30 10187 H 977.024 -0.936814 2.84893 0
M  V30 10188 H 974.577 -0.452471 1.49607 0
M  V30 10189 H 975.312 -2.97795 1.28407 0
M  V30 10190 H 975.097 -2.52506 2.99972 0
M  V30 10191 H 976.587 -3.3642 2.4741 0
M  V30 10192 N 977.024 -1.50153 -0.478725 0
M  V30 10193 C 977.971 -1.68458 -1.57767 0
M  V30 10194 C 978.941 -0.5259 -1.57555 0
M  V30 10195 O 980.126 -0.755574 -1.75202 0
M  V30 10196 C 977.266 -1.77772 -2.95789 0
M  V30 10197 C 976.379 -3.05092 -3.05848 0
M  V30 10198 C 975.514 -3.05247 -4.34739 0
M  V30 10199 C 974.553 -4.27053 -4.38512 0
M  V30 10200 N 973.69 -4.24991 -5.58862 0
M  V30 10201 H 978.53 -2.62282 -1.41464 0
M  V30 10202 H 976.067 -1.30023 -0.687921 0
M  V30 10203 H 978.025 -1.81152 -3.75819 0
M  V30 10204 H 976.655 -0.873944 -3.10744 0
M  V30 10205 H 975.707 -3.11219 -2.1874 0
M  V30 10206 H 977.019 -3.95075 -3.04495 0
M  V30 10207 H 976.173 -3.07314 -5.23109 0
M  V30 10208 H 974.912 -2.13081 -4.38689 0
M  V30 10209 H 973.917 -4.25206 -3.4854 0
M  V30 10210 H 975.142 -5.20437 -4.36259 0
M  V30 10211 H 973.088 -3.35674 -5.63612 0
M  V30 10212 H 973.005 -5.08734 -5.59219 0
M  V30 10213 H 974.273 -4.31193 -6.49379 0
M  V30 10214 N 978.502 0.731368 -1.39602 0
M  V30 10215 C 979.75 1.48805 -1.36753 0
M  V30 10216 C 980.071 1.94969 0.034676 0
M  V30 10217 O 979.341 1.69243 0.986591 0
M  V30 10218 H 977.921 0.55203 -0.503261 0
M  V30 10219 H 980.583 0.868013 -1.74504 0
M  V30 10220 H 979.679 2.36844 -2.03252 0
M  V30 10221 N 979.98 1.24838 0.961938 0
M  V30 10222 C 980.89 1.06304 2.09133 0
M  V30 10223 C 981.906 0.00221475 1.74 0
M  V30 10224 O 983.082 0.201611 2.00388 0
M  V30 10225 C 980.147 0.676117 3.40043 0
M  V30 10226 C 979.208 1.81407 3.89089 0
M  V30 10227 C 978.441 1.44551 5.13752 0
M  V30 10228 O 978.664 0.337894 5.69398 0
M  V30 10229 O 977.598 2.27316 5.57325 0
M  V30 10230 H 981.424 2.01001 2.27667 0
M  V30 10231 H 979.009 1.0371 1.07539 0
M  V30 10232 H 980.891 0.472124 4.18747 0
M  V30 10233 H 979.566 -0.241667 3.22797 0
M  V30 10234 H 978.473 2.07286 3.11421 0
M  V30 10235 H 979.806 2.71083 4.10822 0
M  V30 10236 N 981.458 -1.16348 1.06306 0
M  V30 10237 C 982.869 -1.68491 0.80422 0
M  V30 10238 C 983.22 -1.84327 -0.672159 0
M  V30 10239 O 982.345 -1.53892 -1.52139 0
M  V30 10240 C 982.94 -3.06048 1.45328 0
M  V30 10241 C 981.499 -3.55311 1.24221 0
M  V30 10242 C 980.646 -2.31291 1.5297 0
M  V30 10243 H 983.597 -1.00708 1.22652 0
M  V30 10244 H 983.618 -3.70451 0.868674 0
M  V30 10245 H 983.13 -2.9449 2.52779 0
M  V30 10246 H 981.231 -3.72128 0.187447 0
M  V30 10247 H 981.344 -4.37397 1.95502 0
M  V30 10248 H 979.708 -2.3631 0.950241 0
M  V30 10249 H 980.491 -2.22331 2.6158 0
M  V30 10250 N 982.937 -0.845659 -1.3299 0
M  V30 10251 C 984.348 -0.50048 -1.79867 0
M  V30 10252 C 984.699 0.981027 -1.69913 0
M  V30 10253 O 983.824 1.76477 -1.25239 0
M  V30 10254 C 984.419 -0.901679 -3.26581 0
M  V30 10255 C 982.978 -0.608536 -3.71448 0
M  V30 10256 C 982.125 -1.10632 -2.54275 0
M  V30 10257 H 985.076 -1.03372 -1.20416 0
M  V30 10258 H 985.097 -0.214433 -3.79895 0
M  V30 10259 H 984.609 -1.97998 -3.33794 0
M  V30 10260 H 982.71 0.459416 -3.69757 0
M  V30 10261 H 982.823 -1.16853 -4.64631 0
M  V30 10262 H 981.187 -0.526925 -2.4919 0
M  V30 10263 H 981.97 -2.19154 -2.64247 0
M  V30 10264 N 984.415 1.45619 -0.602734 0
M  V30 10265 C 985.826 1.85814 -0.181636 0
M  V30 10266 C 986.177 1.5037 1.26029 0
M  V30 10267 O 985.302 0.928068 1.95489 0
M  V30 10268 C 985.897 3.37258 -0.322866 0
M  V30 10269 C 984.456 3.76375 0.043504 0
M  V30 10270 C 983.603 2.69585 -0.649561 0
M  V30 10271 H 986.554 1.36489 -0.809721 0
M  V30 10272 H 986.575 3.77874 0.446279 0
M  V30 10273 H 986.087 3.63024 -1.37241 0
M  V30 10274 H 984.188 3.56226 1.09241 0
M  V30 10275 H 984.301 4.77843 -0.346765 0
M  V30 10276 H 982.665 2.54549 -0.087706 0
M  V30 10277 H 983.448 2.98188 -1.70115 0
M  V30 10278 N 985.893 0.34162 1.53853 0
M  V30 10279 C 987.304 -0.14269 1.86154 0
M  V30 10280 C 987.655 -1.50151 1.2629 0
M  V30 10281 O 986.78 -2.08601 0.575735 0
M  V30 10282 C 987.375 -0.265691 3.37757 0
M  V30 10283 C 985.934 -0.694231 3.69942 0
M  V30 10284 C 985.081 0.173195 2.76759 0
M  V30 10285 H 988.032 0.561284 1.48443 0
M  V30 10286 H 988.053 -1.09352 3.64448 0
M  V30 10287 H 987.565 0.723424 3.81298 0
M  V30 10288 H 985.666 -1.69244 3.31945 0
M  V30 10289 H 985.779 -0.485461 4.76634 0
M  V30 10290 H 984.143 -0.35416 2.52226 0
M  V30 10291 H 984.926 1.15941 3.23129 0
M  V30 10292 N 987.371 -1.57444 0.0701946 0
M  V30 10293 C 988.617 -1.93716 -0.600178 0
M  V30 10294 C 988.95 -0.950329 -1.69359 0
M  V30 10295 O 988.225 0.0207123 -1.94489 0
M  V30 10296 C 988.508 -3.40266 -1.17861 0
M  V30 10297 C 988.361 -4.49706 -0.0919575 0
M  V30 10298 C 989.68 -3.87599 -2.08459 0
M  V30 10299 H 986.799 -0.704421 -0.216704 0
M  V30 10300 H 989.441 -1.89514 0.135838 0
M  V30 10301 H 987.591 -3.43977 -1.80587 0
M  V30 10302 H 989.263 -4.58116 0.541031 0
M  V30 10303 H 987.506 -4.29937 0.577639 0
M  V30 10304 H 988.177 -5.49381 -0.537048 0
M  V30 10305 H 990.653 -3.85883 -1.5567 0
M  V30 10306 H 989.529 -4.90755 -2.45867 0
M  V30 10307 H 989.79 -3.25448 -2.99226 0
M  V30 10308 N 988.849 0.203349 -1.56283 0
M  V30 10309 C 990.097 0.923183 -1.79782 0
M  V30 10310 C 990.418 1.84134 -0.64185 0
M  V30 10311 O 989.688 1.92922 0.340292 0
M  V30 10312 H 988.268 0.343881 -0.66314 0
M  V30 10313 H 990.93 0.210837 -1.93756 0
M  V30 10314 H 990.026 1.51921 -2.72629 0
M  V30 10315 N 990.327 1.50405 0.470755 0
M  V30 10316 C 991.738 1.54266 1.05162 0
M  V30 10317 C 992.089 0.346359 1.93119 0
M  V30 10318 O 991.214 -0.540699 2.09536 0
M  V30 10319 C 991.809 2.7956 1.91394 0
M  V30 10320 C 990.368 2.86101 2.44588 0
M  V30 10321 C 989.515 2.48557 1.22941 0
M  V30 10322 H 992.466 1.56665 0.253359 0
M  V30 10323 H 992.487 2.61434 2.76464 0
M  V30 10324 H 991.999 3.66611 1.27351 0
M  V30 10325 H 990.1 2.03403 3.12183 0
M  V30 10326 H 990.213 3.88999 2.79672 0
M  V30 10327 H 988.577 2.01003 1.56429 0
M  V30 10328 H 989.36 3.37916 0.605598 0
M  V30 10329 N 991.805 -0.723954 1.39988 0
M  V30 10330 C 993.053 -1.48078 1.3754 0
M  V30 10331 C 993.374 -1.94985 -0.0243358 0
M  V30 10332 O 992.644 -1.69764 -0.977602 0
M  V30 10333 H 991.224 -0.549354 0.506181 0
M  V30 10334 H 993.886 -0.858746 1.74962 0
M  V30 10335 H 992.982 -2.35763 2.04505 0
M  V30 10336 N 993.283 -1.25346 -0.955304 0
M  V30 10337 C 994.193 -1.07412 -2.08566 0
M  V30 10338 C 995.209 -0.0114424 -1.73996 0
M  V30 10339 O 996.385 -0.212236 -2.00279 0
M  V30 10340 C 993.45 -0.694141 -3.3968 0
M  V30 10341 C 992.511 -1.83468 -3.88121 0
M  V30 10342 C 991.744 -1.47274 -5.12978 0
M  V30 10343 O 991.967 -0.368086 -5.69211 0
M  V30 10344 O 990.901 -2.30269 -5.56111 0
M  V30 10345 H 994.727 -2.02206 -2.26598 0
M  V30 10346 H 992.312 -1.04279 -1.06988 0
M  V30 10347 H 994.194 -0.494325 -4.18491 0
M  V30 10348 H 992.869 0.224545 -3.2292 0
M  V30 10349 H 991.776 -2.08935 -3.10318 0
M  V30 10350 H 993.109 -2.73258 -4.09379 0
M  V30 10351 N 994.761 1.15782 -1.06922 0
M  V30 10352 C 996.009 1.86097 -0.788192 0
M  V30 10353 C 996.33 1.82475 0.687606 0
M  V30 10354 O 995.6 1.26266 1.49778 0
M  V30 10355 H 994.18 0.689008 -0.288577 0
M  V30 10356 H 996.842 1.40377 -1.35205 0
M  V30 10357 H 995.938 2.91358 -1.1188 0
M  V30 10358 N 996.239 0.8527 1.3254 0
M  V30 10359 C 997.485 0.455798 1.97612 0
M  V30 10360 C 997.818 -0.985616 1.6733 0
M  V30 10361 O 997.093 -1.69129 0.960493 0
M  V30 10362 C 997.376 0.69312 3.53366 0
M  V30 10363 C 997.229 2.18281 3.93285 0
M  V30 10364 C 998.548 0.148236 4.3985 0
M  V30 10365 H 995.667 0.167078 0.717812 0
M  V30 10366 H 998.309 1.07076 1.56954 0
M  V30 10367 H 996.459 0.169677 3.88129 0
M  V30 10368 H 998.131 2.77218 3.68711 0
M  V30 10369 H 996.374 2.66206 3.42515 0
M  V30 10370 H 997.045 2.29957 5.01821 0
M  V30 10371 H 999.521 0.595834 4.11812 0
M  V30 10372 H 998.397 0.343873 5.47822 0
M  V30 10373 H 998.658 -0.948872 4.31797 0
M  V30 10374 N 997.718 -1.45297 0.610449 0
M  V30 10375 C 998.966 -2.01819 0.106548 0
M  V30 10376 C 999.287 -1.48102 -1.26849 0
M  V30 10377 O 998.557 -0.676411 -1.83852 0
M  V30 10378 H 997.137 -0.746113 0.0363982 0
M  V30 10379 H 999.799 -1.78061 0.792491 0
M  V30 10380 H 998.895 -3.12045 0.0585 0
M  V30 10381 N 999.196 -0.349774 -1.5367 0
M  V30 10382 C 1000.13 0.496338 -2.28164 0
M  V30 10383 C 1001.11 1.09737 -1.29968 0
M  V30 10384 O 1002.29 1.11759 -1.58819 0
M  V30 10385 C 999.422 1.64428 -3.0591 0
M  V30 10386 C 998.376 1.17127 -4.11661 0
M  V30 10387 C 997.702 2.40822 -4.77398 0
M  V30 10388 C 999.002 0.267293 -5.21616 0
M  V30 10389 H 1000.7 -0.125117 -2.99138 0
M  V30 10390 H 998.242 -0.0616152 -1.43868 0
M  V30 10391 H 1000.19 2.2427 -3.56765 0
M  V30 10392 H 998.919 2.29272 -2.32598 0
M  V30 10393 H 997.578 0.595634 -3.61729 0
M  V30 10394 H 997.226 3.04088 -4.00674 0
M  V30 10395 H 996.926 2.09852 -5.48849 0
M  V30 10396 H 998.45 3.01378 -5.3104 0
M  V30 10397 H 999.864 0.772734 -5.68068 0
M  V30 10398 H 998.261 0.0491991 -6.0008 0
M  V30 10399 H 999.331 -0.694892 -4.79895 0
M  V30 10400 N 1000.67 1.57404 -0.0785433 0
M  V30 10401 C 1001.6 2.16131 0.883726 0
M  V30 10402 C 1002.58 1.09015 1.30575 0
M  V30 10403 O 1003.77 1.3708 1.37559 0
M  V30 10404 C 1000.9 2.72836 2.1489 0
M  V30 10405 C 999.854 3.85178 1.86605 0
M  V30 10406 C 999.18 4.28516 3.1981 0
M  V30 10407 C 1000.48 5.09118 1.16601 0
M  V30 10408 H 1002.17 2.9679 0.394484 0
M  V30 10409 H 999.72 1.42763 0.188304 0
M  V30 10410 H 1001.67 3.12567 2.8263 0
M  V30 10411 H 1000.4 1.89408 2.66068 0
M  V30 10412 H 999.056 3.45962 1.21268 0
M  V30 10413 H 998.704 3.42 3.68843 0
M  V30 10414 H 998.404 5.04249 3.01674 0
M  V30 10415 H 999.928 4.70868 3.88737 0
M  V30 10416 H 1001.34 5.46123 1.74422 0
M  V30 10417 H 999.739 5.90173 1.087 0
M  V30 10418 H 1000.81 4.8468 0.146138 0
M  V30 10419 N 1002.15 -0.195058 1.56388 0
M  V30 10420 C 1003.4 -0.913636 1.8027 0
M  V30 10421 C 1003.72 -1.83791 0.651606 0
M  V30 10422 O 1002.99 -1.931 -0.330057 0
M  V30 10423 H 1001.57 -0.34036 0.664954 0
M  V30 10424 H 1004.23 -0.200559 1.93865 0
M  V30 10425 H 1003.33 -1.50473 2.7343 0
M  V30 10426 N 1003.63 -1.50653 -0.462772 0
M  V30 10427 C 1004.86 -1.65826 -1.23731 0
M  V30 10428 C 1005.27 -0.345002 -1.85621 0
M  V30 10429 O 1004.63 0.673935 -1.69601 0
M  V30 10430 C 1004.68 -2.7555 -2.33997 0
M  V30 10431 O 1004.4 -4.01785 -1.74643 0
M  V30 10432 C 1005.9 -3.0177 -3.2473 0
M  V30 10433 H 1003.12 -0.557177 -0.373892 0
M  V30 10434 H 1005.67 -1.96925 -0.551434 0
M  V30 10435 H 1003.82 -2.47122 -2.98345 0
M  V30 10436 H 1004.24 -4.62529 -2.4732 0
M  V30 10437 H 1005.71 -3.82188 -3.98292 0
M  V30 10438 H 1006.19 -2.13167 -3.84001 0
M  V30 10439 H 1006.79 -3.31761 -2.66111 0
M  V30 10440 N 1005.11 0.71652 -1.4037 0
M  V30 10441 C 1006.36 1.47347 -1.38324 0
M  V30 10442 C 1006.68 1.94995 0.0139949 0
M  V30 10443 O 1005.95 1.7028 0.968585 0
M  V30 10444 H 1004.53 0.546662 -0.509087 0
M  V30 10445 H 1007.19 0.849455 -1.75415 0
M  V30 10446 H 1006.29 2.34675 -2.05752 0
M  V30 10447 N 1006.59 1.25851 0.948643 0
M  V30 10448 C 1008 1.02802 1.22081 0
M  V30 10449 C 1008.2 -0.251461 1.99925 0
M  V30 10450 O 1007.26 -0.962592 2.33432 0
M  V30 10451 C 1008.57 2.25489 1.98936 0
M  V30 10452 C 1010.12 2.30312 2.11956 0
M  V30 10453 C 1010.59 3.52671 2.92211 0
M  V30 10454 N 1012.09 3.53103 2.99787 0
M  V30 10455 C 1012.82 4.44445 3.62294 0
M  V30 10456 N 1012.32 5.46065 4.26362 0
M  V30 10457 N 1014.11 4.32113 3.59493 0
M  V30 10458 H 1006.26 2.08042 0.428044 0
M  V30 10459 H 1008.52 0.913928 0.251872 0
M  V30 10460 H 1008.23 3.18513 1.4914 0
M  V30 10461 H 1008.1 2.2914 2.99624 0
M  V30 10462 H 1010.49 1.37808 2.60946 0
M  V30 10463 H 1010.57 2.30676 1.10554 0
M  V30 10464 H 1010.22 4.45501 2.43909 0
M  V30 10465 H 1010.15 3.49554 3.93853 0
M  V30 10466 H 1012.64 2.79597 2.54232 0
M  V30 10467 H 1012.95 6.11964 4.71932 0
M  V30 10468 H 1011.29 5.49931 4.24972 0
M  V30 10469 H 1014.49 3.51946 3.08629 0
M  V30 10470 H 1014.66 5.03493 4.0792 0
M  V30 10471 N 1008.06 -1.15214 1.07534 0
M  V30 10472 C 1008.97 -2.23636 0.708818 0
M  V30 10473 C 1009.99 -1.7172 -0.280759 0
M  V30 10474 O 1011.17 -2.01 -0.126927 0
M  V30 10475 C 1008.23 -3.46512 0.114167 0
M  V30 10476 C 1007.29 -4.13409 1.15722 0
M  V30 10477 C 1006.53 -5.30419 0.59085 0
M  V30 10478 O 1006.75 -5.67314 -0.592512 0
M  V30 10479 O 1005.68 -5.86871 1.33663 0
M  V30 10480 H 1009.51 -2.57322 1.61305 0
M  V30 10481 H 1007.09 -1.22972 0.848422 0
M  V30 10482 H 1008.98 -4.20851 -0.215091 0
M  V30 10483 H 1007.65 -3.1457 -0.763356 0
M  V30 10484 H 1006.56 -3.40984 1.53886 0
M  V30 10485 H 1007.89 -4.49435 2.00671 0
M  V30 10486 N 1009.54 -0.859717 -1.32086 0
M  V30 10487 C 1010.79 -0.464662 -1.96686 0
M  V30 10488 C 1011.11 0.98412 -1.68345 0
M  V30 10489 O 1010.38 1.68847 -0.993361 0
M  V30 10490 H 1008.96 -0.168838 -0.727669 0
M  V30 10491 H 1011.62 -1.09726 -1.61079 0
M  V30 10492 H 1010.72 -0.613904 -3.06003 0
M  V30 10493 N 1011.02 1.44971 -0.618145 0
M  V30 10494 C 1012.25 2.06527 -0.124165 0
M  V30 10495 C 1012.66 1.46097 1.19588 0
M  V30 10496 O 1012.02 0.57901 1.73071 0
M  V30 10497 C 1012.07 3.61498 0.0106701 0
M  V30 10498 O 1011.79 4.19675 -1.25716 0
M  V30 10499 C 1013.29 4.40061 0.534872 0
M  V30 10500 H 1010.51 0.666941 -0.0736935 0
M  V30 10501 H 1013.06 1.8605 -0.848871 0
M  V30 10502 H 1011.21 3.81282 0.685752 0
M  V30 10503 H 1011.63 5.12972 -1.09362 0
M  V30 10504 H 1013.1 5.48963 0.57827 0
M  V30 10505 H 1013.58 4.10587 1.55931 0
M  V30 10506 H 1014.18 4.25167 -0.10652 0
M  V30 10507 N 1012.5 0.357919 1.53482 0
M  V30 10508 C 1013.72 -0.237769 2.06033 0
M  V30 10509 C 1014.15 -1.42292 1.23023 0
M  V30 10510 O 1013.51 -1.79604 0.247427 0
M  V30 10511 C 1013.55 -0.616806 3.55286 0
M  V30 10512 O 1012.66 -1.71503 3.75047 0
M  V30 10513 H 1012 -0.0364322 0.663 0
M  V30 10514 H 1014.53 0.516301 1.97979 0
M  V30 10515 H 1014.54 -0.88996 3.98175 0
M  V30 10516 H 1013.21 0.249825 4.15149 0
M  V30 10517 H 1011.79 -1.43803 3.44057 0
M  V30 10518 N 1013.98 -1.5736 0.0868897 0
M  V30 10519 C 1015.22 -1.9367 -0.577598 0
M  V30 10520 C 1015.55 -0.968844 -1.69229 0
M  V30 10521 O 1014.82 -0.0195061 -1.9589 0
M  V30 10522 H 1013.4 -0.714983 -0.216353 0
M  V30 10523 H 1016.06 -1.94335 0.148294 0
M  V30 10524 H 1015.15 -2.95877 -0.993128 0
M  V30 10525 N 1015.45 0.186762 -1.56489 0
M  V30 10526 C 1016.87 0.537933 -1.50261 0
M  V30 10527 C 1017.07 1.85435 -0.788414 0
M  V30 10528 O 1016.13 2.50168 -0.342377 0
M  V30 10529 C 1017.44 0.584965 -2.94955 0
M  V30 10530 C 1018.99 0.673228 -3.05674 0
M  V30 10531 C 1019.46 0.751294 -4.51796 0
M  V30 10532 N 1020.95 0.814599 -4.55981 0
M  V30 10533 C 1021.69 0.895313 -5.66367 0
M  V30 10534 N 1021.18 0.937814 -6.86423 0
M  V30 10535 N 1022.98 0.933145 -5.543 0
M  V30 10536 H 1015.13 -0.676636 -2.01334 0
M  V30 10537 H 1017.39 -0.242079 -0.916571 0
M  V30 10538 H 1017.1 -0.313361 -3.50301 0
M  V30 10539 H 1016.97 1.4368 -3.48763 0
M  V30 10540 H 1019.36 1.56198 -2.50372 0
M  V30 10541 H 1019.44 -0.204976 -2.54977 0
M  V30 10542 H 1019.08 -0.133143 -5.07725 0
M  V30 10543 H 1019.01 1.64542 -5.00233 0
M  V30 10544 H 1021.5 0.790662 -3.69536 0
M  V30 10545 H 1021.82 1.00015 -7.66301 0
M  V30 10546 H 1020.16 0.906351 -6.89065 0
M  V30 10547 H 1023.35 0.896836 -4.59428 0
M  V30 10548 H 1023.53 0.992588 -6.40353 0
M  V30 10549 N 1016.93 1.50896 0.454776 0
M  V30 10550 C 1018.18 1.62378 1.20324 0
M  V30 10551 C 1018.5 0.333883 1.9212 0
M  V30 10552 O 1017.77 -0.649477 1.8482 0
M  V30 10553 H 1016.35 0.598395 0.447139 0
M  V30 10554 H 1019.01 1.87749 0.523102 0
M  V30 10555 H 1018.11 2.44296 1.94232 0
M  V30 10556 N 1018.41 -0.709066 1.40748 0
M  V30 10557 C 1019.66 -1.46611 1.39103 0
M  V30 10558 C 1019.98 -1.95 -0.00365366 0
M  V30 10559 O 1019.25 -1.70791 -0.959541 0
M  V30 10560 H 1017.83 -0.543954 0.511979 0
M  V30 10561 H 1020.49 -0.840141 1.75863 0
M  V30 10562 H 1019.59 -2.33581 2.06994 0
M  V30 10563 N 1019.89 -1.26353 -0.941956 0
M  V30 10564 C 1021.11 -1.14731 -1.72776 0
M  V30 10565 C 1021.54 0.293766 -1.85792 0
M  V30 10566 O 1020.9 1.21284 -1.34759 0
M  V30 10567 C 1020.95 -1.82041 -3.11277 0
M  V30 10568 O 1020.05 -1.10867 -3.97218 0
M  V30 10569 H 1019.39 -0.399823 -0.53013 0
M  V30 10570 H 1021.92 -1.67157 -1.17981 0
M  V30 10571 H 1021.93 -1.88834 -3.61671 0
M  V30 10572 H 1020.61 -2.86879 -3.0112 0
M  V30 10573 H 1019.18 -1.12044 -3.55669 0
M  V30 10574 N 1021.37 1.14642 -1.08144 0
M  V30 10575 C 1022.78 1.37604 -0.808537 0
M  V30 10576 C 1022.98 1.92868 0.583452 0
M  V30 10577 O 1022.04 2.13964 1.34073 0
M  V30 10578 C 1023.35 2.3396 -1.889 0
M  V30 10579 C 1024.9 2.47605 -1.9147 0
M  V30 10580 C 1025.38 3.47258 -2.98623 0
M  V30 10581 N 1026.87 3.548 -2.97777 0
M  V30 10582 C 1027.6 4.31751 -3.77331 0
M  V30 10583 N 1027.1 5.11966 -4.66757 0
M  V30 10584 N 1028.89 4.2692 -3.65645 0
M  V30 10585 H 1021.04 0.771154 -1.97906 0
M  V30 10586 H 1023.3 0.401694 -0.858688 0
M  V30 10587 H 1023.01 2.00484 -2.88962 0
M  V30 10588 H 1022.88 3.33833 -1.756 0
M  V30 10589 H 1025.27 2.80375 -0.920548 0
M  V30 10590 H 1025.35 1.47702 -2.08848 0
M  V30 10591 H 1025 3.15223 -3.98243 0
M  V30 10592 H 1024.93 4.46935 -2.7849 0
M  V30 10593 H 1027.42 2.97553 -2.3296 0
M  V30 10594 H 1027.73 5.67951 -5.24072 0
M  V30 10595 H 1026.08 5.11245 -4.70801 0
M  V30 10596 H 1029.27 3.63322 -2.95152 0
M  V30 10597 H 1029.44 4.8664 -4.27885 0
M  V30 10598 N 1022.85 0.866709 1.31628 0
M  V30 10599 C 1023.81 0.325041 2.26883 0
M  V30 10600 C 1024.81 -0.522133 1.52087 0
M  V30 10601 O 1026 -0.331908 1.71009 0
M  V30 10602 C 1023.13 -0.538756 3.36616 0
M  V30 10603 H 1024.32 1.16592 2.76308 0
M  V30 10604 H 1021.88 0.642029 1.42505 0
M  V30 10605 H 1022.61 -1.40096 2.92478 0
M  V30 10606 H 1022.4 0.0678115 3.92041 0
M  V30 10607 H 1023.89 -0.910123 4.07562 0
M  V30 10608 N 1024.32 -1.44642 0.625825 0
M  V30 10609 C 1025.57 -2.01695 0.127948 0
M  V30 10610 C 1025.89 -1.49439 -1.25271 0
M  V30 10611 O 1025.16 -0.695873 -1.83124 0
M  V30 10612 H 1023.74 -0.745685 0.0443096 0
M  V30 10613 H 1026.4 -1.7721 0.811332 0
M  V30 10614 H 1025.5 -3.11966 0.0915933 0
M  V30 10615 N 1025.8 -0.366053 -1.5329 0
M  V30 10616 C 1027.03 0.226839 -2.06156 0
M  V30 10617 C 1027.45 1.41637 -1.23776 0
M  V30 10618 O 1026.81 1.7947 -0.256948 0
M  V30 10619 C 1026.86 0.597956 -3.55608 0
M  V30 10620 O 1025.96 1.69512 -3.75951 0
M  V30 10621 H 1025.3 0.0329156 -0.663184 0
M  V30 10622 H 1027.83 -0.526793 -1.97702 0
M  V30 10623 H 1027.84 0.868831 -3.98642 0
M  V30 10624 H 1026.52 -0.271838 -4.15011 0
M  V30 10625 H 1025.09 1.41976 -3.44815 0
M  V30 10626 N 1027.28 1.57312 -0.0952337 0
M  V30 10627 C 1028.21 2.11059 0.893678 0
M  V30 10628 C 1029.22 1.04787 1.24594 0
M  V30 10629 O 1030.41 1.32233 1.19903 0
M  V30 10630 C 1027.51 2.57552 2.20272 0
M  V30 10631 C 1026.69 3.87661 2.02578 0
M  V30 10632 C 1025.75 4.2 3.16996 0
M  V30 10633 O 1024.77 4.89219 2.90953 0
M  V30 10634 N 1025.97 3.75414 4.42769 0
M  V30 10635 H 1028.74 2.96532 0.434632 0
M  V30 10636 H 1026.3 1.6165 0.0898661 0
M  V30 10637 H 1028.29 2.76232 2.95766 0
M  V30 10638 H 1026.86 1.7709 2.576 0
M  V30 10639 H 1026.08 3.78128 1.11413 0
M  V30 10640 H 1027.37 4.7278 1.88032 0
M  V30 10641 H 1026.77 3.1954 4.66809 0
M  V30 10642 H 1025.32 3.99249 5.15212 0
M  V30 10643 N 1028.76 -0.17846 1.56586 0
M  V30 10644 C 1029.71 -1.22552 1.92263 0
M  V30 10645 C 1030.69 -1.40163 0.790131 0
M  V30 10646 O 1031.88 -1.42254 1.05322 0
M  V30 10647 C 1029.01 -2.5666 2.27993 0
M  V30 10648 C 1028.1 -2.42772 3.47739 0
M  V30 10649 N 1028.49 -1.98588 4.65185 0
M  V30 10650 C 1026.79 -2.73619 3.52205 0
M  V30 10651 C 1027.49 -1.96991 5.47329 0
M  V30 10652 N 1026.46 -2.39126 4.8818 0
M  V30 10653 H 1030.27 -0.875493 2.80557 0
M  V30 10654 H 1027.78 -0.386785 1.57727 0
M  V30 10655 H 1029.78 -3.32312 2.51743 0
M  V30 10656 H 1028.44 -2.92472 1.41034 0
M  V30 10657 H 1029.45 -1.69036 4.89538 0
M  V30 10658 H 1026.13 -3.13516 2.75706 0
M  V30 10659 H 1027.52 -1.64589 6.51429 0
M  V30 10660 N 1030.24 -1.51135 -0.446768 0
M  V30 10661 C 1031.17 -1.74709 -1.54916 0
M  V30 10662 C 1032.15 -0.596628 -1.59293 0
M  V30 10663 O 1033.33 -0.838356 -1.75172 0
M  V30 10664 C 1030.46 -1.86353 -2.9307 0
M  V30 10665 C 1029.42 -3.01725 -3.03556 0
M  V30 10666 C 1028.74 -2.9854 -4.43597 0
M  V30 10667 C 1030.04 -4.41848 -2.7851 0
M  V30 10668 H 1031.74 -2.67014 -1.3544 0
M  V30 10669 H 1029.28 -1.28489 -0.650131 0
M  V30 10670 H 1031.23 -2.01428 -3.70141 0
M  V30 10671 H 1029.96 -0.906887 -3.13756 0
M  V30 10672 H 1028.62 -2.86339 -2.28922 0
M  V30 10673 H 1028.27 -2.00673 -4.61237 0
M  V30 10674 H 1027.97 -3.76008 -4.51544 0
M  V30 10675 H 1029.49 -3.15696 -5.22655 0
M  V30 10676 H 1030.9 -4.57633 -3.45319 0
M  V30 10677 H 1029.3 -5.2095 -2.97877 0
M  V30 10678 H 1030.37 -4.52536 -1.74182 0
M  V30 10679 N 1031.71 0.701592 -1.41122 0
M  V30 10680 C 1032.94 1.49049 -1.43499 0
M  V30 10681 C 1033.36 1.88761 -0.0385684 0
M  V30 10682 O 1032.71 1.56384 0.940755 0
M  V30 10683 C 1032.76 2.7569 -2.33832 0
M  V30 10684 O 1032.49 2.37653 -3.68039 0
M  V30 10685 C 1033.99 3.69479 -2.44949 0
M  V30 10686 H 1031.21 0.459519 -0.488961 0
M  V30 10687 H 1033.75 0.864318 -1.85337 0
M  V30 10688 H 1031.91 3.34559 -1.95318 0
M  V30 10689 H 1032.32 3.19241 -4.16156 0
M  V30 10690 H 1033.79 4.55139 -3.12334 0
M  V30 10691 H 1034.27 4.13553 -1.47887 0
M  V30 10692 H 1034.88 3.16517 -2.84072 0
M  V30 10693 N 1033.19 1.2685 0.935242 0
M  V30 10694 C 1034.6 1.11569 1.49697 0
M  V30 10695 C 1034.95 -0.301952 1.93863 0
M  V30 10696 O 1034.08 -1.19408 1.80473 0
M  V30 10697 C 1034.67 2.01918 2.72056 0
M  V30 10698 C 1033.23 1.90765 3.24477 0
M  V30 10699 C 1032.38 1.94918 1.97237 0
M  V30 10700 H 1035.33 1.39853 0.750116 0
M  V30 10701 H 1035.35 1.57056 3.46574 0
M  V30 10702 H 1034.86 3.05088 2.39881 0
M  V30 10703 H 1032.96 0.905521 3.61429 0
M  V30 10704 H 1033.08 2.76611 3.91182 0
M  V30 10705 H 1031.44 1.39046 2.13397 0
M  V30 10706 H 1032.22 2.99729 1.67385 0
M  V30 10707 N 1034.67 -1.14067 1.0875 0
M  V30 10708 C 1035.63 -2.17453 0.724341 0
M  V30 10709 C 1036.63 -1.58959 -0.242614 0
M  V30 10710 O 1037.82 -1.74186 -0.0217008 0
M  V30 10711 C 1034.96 -3.40828 0.0700236 0
M  V30 10712 H 1036.15 -2.51094 1.63987 0
M  V30 10713 H 1033.7 -1.28775 0.885813 0
M  V30 10714 H 1034.44 -3.1277 -0.857061 0
M  V30 10715 H 1034.22 -3.84551 0.76569 0
M  V30 10716 H 1035.71 -4.17258 -0.168905 0
M  V30 10717 N 1036.15 -0.873678 -1.31166 0
M  V30 10718 C 1037.11 -0.337069 -2.26708 0
M  V30 10719 C 1038.11 0.51406 -1.52362 0
M  V30 10720 O 1039.3 0.322834 -1.71182 0
M  V30 10721 C 1036.43 0.520897 -3.36897 0
M  V30 10722 H 1037.63 -1.18056 -2.75686 0
M  V30 10723 H 1035.18 -0.649577 -1.42163 0
M  V30 10724 H 1035.91 1.38543 -2.93217 0
M  V30 10725 H 1035.7 -0.0886015 -3.92 0
M  V30 10726 H 1037.19 0.888497 -4.08039 0
M  V30 10727 N 1037.63 1.44308 -0.633487 0
M  V30 10728 C 1038.56 2.33431 0.0568402 0
M  V30 10729 C 1039.54 1.48342 0.832386 0
M  V30 10730 O 1040.72 1.77056 0.797798 0
M  V30 10731 C 1037.85 3.31443 1.03743 0
M  V30 10732 C 1036.81 4.26368 0.373362 0
M  V30 10733 C 1036.13 5.14267 1.46403 0
M  V30 10734 C 1037.43 5.17287 -0.721876 0
M  V30 10735 H 1039.13 2.91402 -0.687388 0
M  V30 10736 H 1036.67 1.4012 -0.332009 0
M  V30 10737 H 1038.63 3.92677 1.52913 0
M  V30 10738 H 1037.35 2.71686 1.81258 0
M  V30 10739 H 1036.01 3.6647 -0.0977053 0
M  V30 10740 H 1035.66 4.50861 2.23011 0
M  V30 10741 H 1035.36 5.7859 1.02506 0
M  V30 10742 H 1036.88 5.78373 1.95748 0
M  V30 10743 H 1038.29 5.72444 -0.313181 0
M  V30 10744 H 1036.69 5.90226 -1.08413 0
M  V30 10745 H 1037.76 4.58159 -1.58804 0
M  V30 10746 N 1039.1 0.374177 1.53094 0
M  V30 10747 C 1040.03 -0.459976 2.28925 0
M  V30 10748 C 1041.02 -1.07656 1.31698 0
M  V30 10749 O 1042.2 -1.09219 1.60577 0
M  V30 10750 C 1039.33 -1.5954 3.08487 0
M  V30 10751 C 1038.28 -1.10563 4.13473 0
M  V30 10752 C 1037.61 -2.33196 4.81169 0
M  V30 10753 C 1038.91 -0.184275 5.21975 0
M  V30 10754 H 1040.6 0.172692 2.98902 0
M  V30 10755 H 1038.15 0.0844956 1.43752 0
M  V30 10756 H 1040.1 -2.18565 3.60288 0
M  V30 10757 H 1038.83 -2.25543 2.36216 0
M  V30 10758 H 1037.49 -0.53801 3.62631 0
M  V30 10759 H 1037.13 -2.97675 4.05461 0
M  V30 10760 H 1036.83 -2.01094 5.52119 0
M  V30 10761 H 1038.36 -2.92892 5.35767 0
M  V30 10762 H 1039.77 -0.682262 5.69226 0
M  V30 10763 H 1038.17 0.0462746 6.00082 0
M  V30 10764 H 1039.24 0.771152 4.78729 0
M  V30 10765 N 1040.58 -1.57259 0.103575 0
M  V30 10766 C 1041.81 -1.98711 -0.565454 0
M  V30 10767 C 1042.22 -0.981759 -1.61735 0
M  V30 10768 O 1041.56 0.0357019 -1.83665 0
M  V30 10769 C 1041.63 -3.36552 -1.26384 0
M  V30 10770 C 1041.29 -4.55566 -0.361714 0
M  V30 10771 C 1042.29 -5.18408 0.393539 0
M  V30 10772 C 1039.97 -5.01534 -0.277292 0
M  V30 10773 C 1041.97 -6.25594 1.2211 0
M  V30 10774 C 1039.65 -6.08584 0.553919 0
M  V30 10775 C 1040.65 -6.7048 1.30176 0
M  V30 10776 O 1040.34 -7.75464 2.1192 0
M  V30 10777 H 1040.07 -0.657853 -0.155582 0
M  V30 10778 H 1042.62 -2.04591 0.182089 0
M  V30 10779 H 1040.85 -3.2738 -2.05813 0
M  V30 10780 H 1042.54 -3.62395 -1.82824 0
M  V30 10781 H 1043.31 -4.8382 0.338098 0
M  V30 10782 H 1039.19 -4.53114 -0.849047 0
M  V30 10783 H 1042.73 -6.73836 1.80531 0
M  V30 10784 H 1038.63 -6.42604 0.610809 0
M  V30 10785 H 1039.4 -7.92491 2.04694 0
M  V30 10786 N 1042.06 0.170153 -1.56679 0
M  V30 10787 C 1043.48 0.521966 -1.50823 0
M  V30 10788 C 1043.68 1.84589 -0.808037 0
M  V30 10789 O 1042.73 2.49791 -0.368891 0
M  V30 10790 C 1044.05 0.553648 -2.95559 0
M  V30 10791 C 1045.59 0.640769 -3.06371 0
M  V30 10792 C 1046.07 0.703332 -4.52567 0
M  V30 10793 N 1047.56 0.76619 -4.56819 0
M  V30 10794 C 1048.29 0.835192 -5.67285 0
M  V30 10795 N 1047.79 0.864957 -6.87379 0
M  V30 10796 N 1049.58 0.874302 -5.55259 0
M  V30 10797 H 1041.73 -0.697952 -2.00605 0
M  V30 10798 H 1044 -0.251787 -0.913952 0
M  V30 10799 H 1043.7 -0.350498 -3.49949 0
M  V30 10800 H 1043.58 1.39973 -3.50268 0
M  V30 10801 H 1045.96 1.53534 -2.52015 0
M  V30 10802 H 1046.05 -0.232008 -2.54746 0
M  V30 10803 H 1045.69 -0.186986 -5.07556 0
M  V30 10804 H 1045.62 1.59227 -5.0195 0
M  V30 10805 H 1048.11 0.751424 -3.70354 0
M  V30 10806 H 1048.42 0.918814 -7.67318 0
M  V30 10807 H 1046.77 0.833215 -6.89987 0
M  V30 10808 H 1049.96 0.848057 -4.60354 0
M  V30 10809 H 1050.13 0.924615 -6.4137 0
M  V30 10810 N 1043.54 1.5137 0.438746 0
M  V30 10811 C 1044.5 1.71993 1.51496 0
M  V30 10812 C 1045.5 0.589978 1.49586 0
M  V30 10813 O 1046.69 0.857505 1.51633 0
M  V30 10814 C 1043.82 1.77508 2.91039 0
M  V30 10815 H 1045.02 2.68041 1.34514 0
M  V30 10816 H 1042.57 1.41338 0.667326 0
M  V30 10817 H 1043.3 0.832698 3.13427 0
M  V30 10818 H 1043.09 2.59627 2.9383 0
M  V30 10819 H 1044.58 1.95308 3.69113 0
M  V30 10820 N 1045.02 -0.694098 1.41492 0
M  V30 10821 C 1045.98 -1.78976 1.43179 0
M  V30 10822 C 1046.98 -1.57539 0.322191 0
M  V30 10823 O 1048.17 -1.64185 0.582138 0
M  V30 10824 C 1045.3 -3.17368 1.2446 0
M  V30 10825 H 1046.49 -1.78874 2.40716 0
M  V30 10826 H 1044.05 -0.901867 1.27656 0
M  V30 10827 H 1044.78 -3.23109 0.277691 0
M  V30 10828 H 1044.57 -3.3433 2.04856 0
M  V30 10829 H 1046.06 -3.97345 1.28479 0
M  V30 10830 N 1046.49 -1.27344 -0.928501 0
M  V30 10831 C 1047.74 -1.13804 -1.67859 0
M  V30 10832 C 1048.07 0.31555 -1.91619 0
M  V30 10833 O 1047.35 1.23087 -1.50599 0
M  V30 10834 C 1047.63 -1.9213 -3.04562 0
M  V30 10835 C 1047.48 -3.45468 -2.88048 0
M  V30 10836 C 1048.8 -1.72513 -4.04879 0
M  V30 10837 H 1045.92 -0.414796 -0.609191 0
M  V30 10838 H 1048.56 -1.5649 -1.07753 0
M  V30 10839 H 1046.71 -1.55853 -3.55868 0
M  V30 10840 H 1048.39 -3.9157 -2.43865 0
M  V30 10841 H 1046.63 -3.71849 -2.23407 0
M  V30 10842 H 1047.3 -3.95515 -3.85061 0
M  V30 10843 H 1049.78 -2.04143 -3.62581 0
M  V30 10844 H 1048.65 -2.29713 -4.98521 0
M  V30 10845 H 1048.91 -0.672856 -4.3695 0
M  V30 10846 N 1047.97 1.13488 -1.09353 0
M  V30 10847 C 1049.2 1.88592 -0.850915 0
M  V30 10848 C 1049.62 1.79087 0.597761 0
M  V30 10849 O 1048.97 1.15695 1.41142 0
M  V30 10850 C 1049.02 3.38219 -1.27633 0
M  V30 10851 O 1048.74 3.47476 -2.66819 0
M  V30 10852 C 1050.25 4.30293 -1.06598 0
M  V30 10853 H 1047.47 0.597069 -0.306185 0
M  V30 10854 H 1050.01 1.43668 -1.45533 0
M  V30 10855 H 1048.16 3.80729 -0.715828 0
M  V30 10856 H 1048.58 4.40485 -2.84733 0
M  V30 10857 H 1050.05 5.33611 -1.41293 0
M  V30 10858 H 1050.53 4.392 -0.0037135 0
M  V30 10859 H 1051.14 3.9355 -1.6124 0
M  V30 10860 N 1049.45 0.880621 1.30701 0
M  V30 10861 C 1050.87 0.574015 1.4892 0
M  V30 10862 C 1051.07 -0.889312 1.80813 0
M  V30 10863 O 1050.12 -1.67082 1.89314 0
M  V30 10864 C 1051.44 1.48341 2.61563 0
M  V30 10865 C 1052.98 1.48658 2.75445 0
M  V30 10866 C 1053.46 2.3818 3.91196 0
M  V30 10867 N 1054.95 2.36119 3.985 0
M  V30 10868 C 1055.69 3.02101 4.87363 0
M  V30 10869 N 1055.18 3.77293 5.81052 0
M  V30 10870 N 1056.97 2.91356 4.80696 0
M  V30 10871 H 1049.13 1.82732 1.08271 0
M  V30 10872 H 1051.39 0.781939 0.535981 0
M  V30 10873 H 1051.09 2.52515 2.44804 0
M  V30 10874 H 1050.97 1.18977 3.57944 0
M  V30 10875 H 1053.36 0.452374 2.91612 0
M  V30 10876 H 1053.44 1.8205 1.79698 0
M  V30 10877 H 1053.08 3.41683 3.75786 0
M  V30 10878 H 1053.01 2.02106 4.86272 0
M  V30 10879 H 1055.5 1.81474 3.31475 0
M  V30 10880 H 1055.81 4.24742 6.45612 0
M  V30 10881 H 1054.16 3.81401 5.80998 0
M  V30 10882 H 1057.35 2.32143 4.06481 0
M  V30 10883 H 1057.52 3.43056 5.49742 0
M  V30 10884 N 1050.93 -1.4397 0.641131 0
M  V30 10885 C 1052.15 -2.06818 0.155318 0
M  V30 10886 C 1052.58 -1.47665 -1.16519 0
M  V30 10887 O 1051.94 -0.58192 -1.71707 0
M  V30 10888 C 1051.99 -3.60542 0.0647537 0
M  V30 10889 O 1051.09 -4.00674 -0.976447 0
M  V30 10890 H 1050.43 -0.657962 0.0893404 0
M  V30 10891 H 1052.96 -1.84678 0.88064 0
M  V30 10892 H 1052.97 -4.07816 -0.122552 0
M  V30 10893 H 1051.65 -4.02975 1.02878 0
M  V30 10894 H 1050.22 -3.65013 -0.762905 0
M  V30 10895 N 1052.41 -0.382291 -1.52893 0
M  V30 10896 C 1053.34 0.491199 -2.23875 0
M  V30 10897 C 1054.35 1.03249 -1.25871 0
M  V30 10898 O 1055.54 0.936016 -1.5199 0
M  V30 10899 C 1052.64 1.6927 -2.936 0
M  V30 10900 C 1051.81 1.28 -4.18252 0
M  V30 10901 C 1050.87 2.34541 -4.71038 0
M  V30 10902 O 1049.9 1.96239 -5.34302 0
M  V30 10903 N 1051.1 3.6636 -4.50289 0
M  V30 10904 H 1053.87 -0.116897 -2.99472 0
M  V30 10905 H 1051.43 -0.208296 -1.60554 0
M  V30 10906 H 1053.42 2.40054 -3.25816 0
M  V30 10907 H 1051.99 2.20729 -2.21354 0
M  V30 10908 H 1051.21 0.40133 -3.92152 0
M  V30 10909 H 1052.5 0.98082 -4.99257 0
M  V30 10910 H 1051.9 4.00245 -3.99775 0
M  V30 10911 H 1050.45 4.332 -4.87013 0
M  V30 10912 N 1053.89 1.57202 -0.111913 0
M  V30 10913 C 1054.83 2.14936 0.840908 0
M  V30 10914 C 1055.8 1.07242 1.2684 0
M  V30 10915 O 1056.99 1.35114 1.34718 0
M  V30 10916 C 1054.13 2.74743 2.0883 0
M  V30 10917 C 1053.24 3.96723 1.70982 0
M  V30 10918 C 1052.38 4.4464 2.90634 0
M  V30 10919 C 1051.41 5.59169 2.48992 0
M  V30 10920 N 1050.55 6.01862 3.61534 0
M  V30 10921 H 1055.39 2.96034 0.341735 0
M  V30 10922 H 1052.93 1.4626 0.156993 0
M  V30 10923 H 1054.89 3.07546 2.81907 0
M  V30 10924 H 1053.52 1.96346 2.56218 0
M  V30 10925 H 1052.57 3.70127 0.878072 0
M  V30 10926 H 1053.88 4.79795 1.36373 0
M  V30 10927 H 1053.03 4.79315 3.71944 0
M  V30 10928 H 1051.77 3.60503 3.28464 0
M  V30 10929 H 1050.78 5.24106 1.66113 0
M  V30 10930 H 1052 6.45067 2.12287 0
M  V30 10931 H 1049.95 5.20667 3.99051 0
M  V30 10932 H 1049.87 6.79772 3.30827 0
M  V30 10933 H 1051.13 6.41172 4.43305 0
M  V30 10934 N 1055.36 -0.161842 1.56767 0
M  V30 10935 C 1056.78 -0.51396 1.51098 0
M  V30 10936 C 1056.98 -1.84158 0.817815 0
M  V30 10937 O 1056.04 -2.49592 0.382133 0
M  V30 10938 C 1057.35 -0.537966 2.95849 0
M  V30 10939 C 1058.9 -0.624512 3.06706 0
M  V30 10940 C 1059.37 -0.679322 4.52934 0
M  V30 10941 N 1060.86 -0.741953 4.57219 0
M  V30 10942 C 1061.6 -0.805096 5.6772 0
M  V30 10943 N 1061.09 -0.828492 6.87828 0
M  V30 10944 N 1062.89 -0.844843 5.55715 0
M  V30 10945 H 1055.04 0.708581 2.00232 0
M  V30 10946 H 1057.3 0.25663 0.912603 0
M  V30 10947 H 1057.01 0.369052 3.49758 0
M  V30 10948 H 1056.88 -1.38113 3.51005 0
M  V30 10949 H 1059.27 -1.52195 2.52825 0
M  V30 10950 H 1059.35 0.245515 2.54619 0
M  V30 10951 H 1058.99 0.213901 5.07449 0
M  V30 10952 H 1058.92 -1.56563 5.02788 0
M  V30 10953 H 1061.41 -0.731772 3.70747 0
M  V30 10954 H 1061.73 -0.878109 7.67795 0
M  V30 10955 H 1060.07 -0.796612 6.9042 0
M  V30 10956 H 1063.26 -0.823632 4.60797 0
M  V30 10957 H 1063.44 -0.890588 6.41851 0
M  V30 10958 N 1056.84 -1.516 -0.430713 0
M  V30 10959 C 1058.09 -1.64271 -1.17726 0
M  V30 10960 C 1058.41 -0.364406 -1.91565 0
M  V30 10961 O 1057.68 0.619991 -1.8583 0
M  V30 10962 H 1056.26 -0.605432 -0.437562 0
M  V30 10963 H 1058.92 -1.88557 -0.493166 0
M  V30 10964 H 1058.02 -2.47355 -1.90321 0
M  V30 10965 N 1058.32 0.686584 -1.41858 0
M  V30 10966 C 1059.57 1.44235 -1.40994 0
M  V30 10967 C 1059.88 1.95583 -0.0254979 0
M  V30 10968 O 1061.09 2.71294 0.10576 0
M  V30 10969 C 1059.54 2.6086 -2.47952 0
M  V30 10970 C 1059.15 2.16259 -3.92347 0
M  V30 10971 C 1060.9 3.38441 -2.56237 0
M  V30 10972 C 1058.8 3.29896 -4.90838 0
M  V30 10973 H 1057.73 0.54181 -0.524364 0
M  V30 10974 H 1060.38 0.744486 -1.67719 0
M  V30 10975 H 1058.77 3.32957 -2.14373 0
M  V30 10976 H 1059.94 1.51392 -4.35221 0
M  V30 10977 H 1058.25 1.51648 -3.87804 0
M  V30 10978 H 1060.85 4.23052 -3.27003 0
M  V30 10979 H 1061.19 3.84238 -1.6021 0
M  V30 10980 H 1061.73 2.73406 -2.88953 0
M  V30 10981 H 1058.47 2.89104 -5.88302 0
M  V30 10982 H 1057.99 3.93584 -4.52606 0
M  V30 10983 H 1059.67 3.95541 -5.12012 0
M  V30 10984 N 1059.8 1.27835 0.921735 0
M  V30 10985 C 1061.02 1.17465 1.70929 0
M  V30 10986 C 1061.45 -0.264171 1.86236 0
M  V30 10987 O 1060.81 -1.19124 1.36671 0
M  V30 10988 C 1060.85 1.8697 3.08342 0
M  V30 10989 O 1059.96 1.17173 3.95404 0
M  V30 10990 H 1059.3 0.408206 0.523702 0
M  V30 10991 H 1061.83 1.69013 1.15307 0
M  V30 10992 H 1061.84 1.94564 3.58621 0
M  V30 10993 H 1060.51 2.91633 2.96518 0
M  V30 10994 H 1059.09 1.17688 3.53842 0
M  V30 10995 N 1061.28 -1.12907 1.09954 0
M  V30 10996 C 1062.5 -1.88679 0.861099 0
M  V30 10997 C 1062.93 -1.78853 -0.582499 0
M  V30 10998 O 1062.28 -1.13992 -1.4098 0
M  V30 10999 C 1062.33 -3.36047 1.30785 0
M  V30 11000 O 1061.44 -4.09716 0.469728 0
M  V30 11001 H 1060.78 -0.586447 0.31141 0
M  V30 11002 H 1063.31 -1.42818 1.46507 0
M  V30 11003 H 1063.32 -3.86882 1.29562 0
M  V30 11004 H 1061.99 -3.42516 2.35914 0
M  V30 11005 H 1060.57 -3.6887 0.54674 0
M  V30 11006 N 1062.75 -0.88754 -1.30232 0
M  V30 11007 C 1063.66 -0.360333 -2.31816 0
M  V30 11008 C 1064.68 0.538741 -1.6545 0
M  V30 11009 O 1065.86 0.431246 -1.96729 0
M  V30 11010 C 1062.92 0.414336 -3.44215 0
M  V30 11011 C 1061.98 -0.514799 -4.26202 0
M  V30 11012 C 1061.21 0.222994 -5.33234 0
M  V30 11013 O 1061.44 1.44871 -5.51696 0
M  V30 11014 O 1060.37 -0.428221 -6.00375 0
M  V30 11015 H 1064.2 -1.20279 -2.78867 0
M  V30 11016 H 1061.78 -0.651459 -1.34448 0
M  V30 11017 H 1063.66 0.852859 -4.12679 0
M  V30 11018 H 1062.34 1.23305 -2.99295 0
M  V30 11019 H 1061.25 -1.00219 -3.60426 0
M  V30 11020 H 1062.58 -1.29959 -4.74733 0
M  V30 11021 N 1064.23 1.43628 -0.648757 0
M  V30 11022 C 1065.14 2.34554 0.0463037 0
M  V30 11023 C 1066.16 1.53629 0.816952 0
M  V30 11024 O 1067.33 1.86297 0.765212 0
M  V30 11025 C 1064.4 3.3185 1.00381 0
M  V30 11026 C 1063.46 4.2868 0.230589 0
M  V30 11027 C 1062.69 5.21328 1.14249 0
M  V30 11028 O 1062.92 5.18298 2.38166 0
M  V30 11029 O 1061.85 5.98726 0.617296 0
M  V30 11030 H 1065.68 2.95475 -0.702008 0
M  V30 11031 H 1063.26 1.43694 -0.408942 0
M  V30 11032 H 1065.14 3.91692 1.5542 0
M  V30 11033 H 1063.82 2.73439 1.73243 0
M  V30 11034 H 1062.73 3.72332 -0.363282 0
M  V30 11035 H 1064.06 4.90061 -0.458368 0
M  V30 11036 N 1065.71 0.390394 1.52688 0
M  V30 11037 C 1066.62 -0.451543 2.30213 0
M  V30 11038 C 1067.64 -1.07051 1.37172 0
M  V30 11039 O 1068.81 -1.07609 1.70242 0
M  V30 11040 C 1065.88 -1.56299 3.0947 0
M  V30 11041 C 1064.94 -0.969017 4.18221 0
M  V30 11042 C 1064.17 -2.0275 4.93688 0
M  V30 11043 O 1064.39 -3.24273 4.69258 0
M  V30 11044 O 1063.33 -1.64418 5.79008 0
M  V30 11045 H 1067.15 0.180042 3.03166 0
M  V30 11046 H 1064.74 0.154082 1.48603 0
M  V30 11047 H 1066.62 -2.20864 3.58883 0
M  V30 11048 H 1065.3 -2.17952 2.3933 0
M  V30 11049 H 1064.2 -0.286587 3.73001 0
M  V30 11050 H 1065.54 -0.396687 4.90599 0
M  V30 11051 N 1067.19 -1.57141 0.120249 0
M  V30 11052 C 1068.1 -2.18925 -0.843155 0
M  V30 11053 C 1069.11 -1.16575 -1.29175 0
M  V30 11054 O 1070.29 -1.4905 -1.35448 0
M  V30 11055 C 1067.36 -2.7775 -2.075 0
M  V30 11056 C 1066.42 -3.95139 -1.6782 0
M  V30 11057 C 1065.65 -4.51149 -2.85132 0
M  V30 11058 O 1065.87 -4.06056 -4.00593 0
M  V30 11059 O 1064.81 -5.41815 -2.62145 0
M  V30 11060 H 1068.63 -3.01707 -0.347357 0
M  V30 11061 H 1066.22 -1.49028 -0.105427 0
M  V30 11062 H 1068.1 -3.15243 -2.79643 0
M  V30 11063 H 1066.77 -1.97998 -2.56083 0
M  V30 11064 H 1065.68 -3.62412 -0.927807 0
M  V30 11065 H 1067.01 -4.7633 -1.23977 0
M  V30 11066 N 1068.67 0.153526 -1.5685 0
M  V30 11067 C 1069.91 0.865519 -1.82629 0
M  V30 11068 C 1070.24 1.81999 -0.700105 0
M  V30 11069 O 1069.51 1.93907 0.278744 0
M  V30 11070 H 1068.09 0.32261 -0.673745 0
M  V30 11071 H 1070.75 0.149088 -1.94329 0
M  V30 11072 H 1069.84 1.43171 -2.77324 0
M  V30 11073 N 1070.14 1.51827 0.422667 0
M  V30 11074 C 1071.05 1.77066 1.53899 0
M  V30 11075 C 1072.07 0.655541 1.61179 0
M  V30 11076 O 1073.25 0.939448 1.78147 0
M  V30 11077 C 1070.31 1.90372 2.89758 0
M  V30 11078 C 1069.37 3.14256 2.92475 0
M  V30 11079 C 1068.61 3.26918 4.21853 0
M  V30 11080 O 1068.83 2.45164 5.15025 0
M  V30 11081 O 1067.76 4.19989 4.31153 0
M  V30 11082 H 1071.59 2.71791 1.35511 0
M  V30 11083 H 1069.17 1.36506 0.607165 0
M  V30 11084 H 1071.06 2.01024 3.70361 0
M  V30 11085 H 1069.73 0.988347 3.08242 0
M  V30 11086 H 1068.64 3.09072 2.10773 0
M  V30 11087 H 1069.97 4.0553 2.78937 0
M  V30 11088 N 1071.62 -0.679052 1.4222 0
M  V30 11089 C 1072.87 -1.44125 1.42674 0
M  V30 11090 C 1073.2 -1.94156 0.041438 0
M  V30 11091 O 1072.48 -1.70628 -0.93361 0
M  V30 11092 C 1072.76 -2.64133 2.44756 0
M  V30 11093 C 1072.61 -2.19761 3.9246 0
M  V30 11094 C 1073.93 -3.66347 2.43881 0
M  V30 11095 H 1071.05 -0.522729 0.519541 0
M  V30 11096 H 1073.69 -0.772067 1.73606 0
M  V30 11097 H 1071.84 -3.21225 2.1851 0
M  V30 11098 H 1073.51 -1.67869 4.29671 0
M  V30 11099 H 1071.76 -1.51377 4.06531 0
M  V30 11100 H 1072.43 -3.05944 4.59459 0
M  V30 11101 H 1074.9 -3.18963 2.67211 0
M  V30 11102 H 1073.78 -4.47902 3.17293 0
M  V30 11103 H 1074.04 -4.17183 1.46325 0
M  V30 11104 N 1073.1 -1.28322 -0.914942 0
M  V30 11105 C 1074.38 -1.06111 -1.64316 0
M  V30 11106 C 1074.76 0.399934 -2.07277 0
M  V30 11107 O 1074.11 1.38577 -1.81683 0
M  V30 11108 C 1074.32 -2.03461 -2.83557 0
M  V30 11109 C 1075.66 -2.33541 -3.54604 0
M  V30 11110 O 1076.69 -2.01536 -2.93704 0
M  V30 11111 O 1075.55 -2.88158 -4.64357 0
M  V30 11112 H 1072.64 -0.405451 -0.72079 0
M  V30 11113 H 1075.19 -1.39636 -0.964352 0
M  V30 11114 H 1073.96 -3.01938 -2.48896 0
M  V30 11115 H 1073.58 -1.70574 -3.59152 0
M  V30 11116 N 1074.58 1.12322 -1.10551 0
M  V30 11117 C 1075.8 1.8822 -0.871093 0
M  V30 11118 C 1076.23 1.7916 0.573005 0
M  V30 11119 O 1075.59 1.14738 1.40374 0
M  V30 11120 C 1075.63 3.35349 -1.32565 0
M  V30 11121 O 1074.74 4.09461 -0.49145 0
M  V30 11122 H 1074.08 0.584787 -0.314516 0
M  V30 11123 H 1076.61 1.42039 -1.47262 0
M  V30 11124 H 1076.62 3.86189 -1.31612 0
M  V30 11125 H 1075.29 3.4126 -2.37728 0
M  V30 11126 H 1073.87 3.68575 -0.566294 0
M  V30 11127 N 1076.06 0.894434 1.2976 0
M  V30 11128 C 1076.97 0.372622 2.31622 0
M  V30 11129 C 1077.98 -0.52996 1.65733 0
M  V30 11130 O 1079.16 -0.420807 1.96955 0
M  V30 11131 C 1076.22 -0.396076 3.4443 0
M  V30 11132 C 1075.28 0.537394 4.25923 0
M  V30 11133 C 1074.52 -0.194713 5.33345 0
M  V30 11134 O 1074.74 -1.41943 5.52457 0
M  V30 11135 O 1073.67 0.460055 6.00139 0
M  V30 11136 H 1077.5 1.21756 2.78225 0
M  V30 11137 H 1075.09 0.65858 1.34101 0
M  V30 11138 H 1076.97 -0.830962 4.13126 0
M  V30 11139 H 1075.64 -1.21716 2.99945 0
M  V30 11140 H 1074.55 1.02129 3.5989 0
M  V30 11141 H 1075.88 1.32475 4.74037 0
M  V30 11142 N 1077.53 -1.43282 0.656365 0
M  V30 11143 C 1078.78 -2.02075 0.171293 0
M  V30 11144 C 1079.11 -1.51682 -1.21269 0
M  V30 11145 O 1078.39 -0.711243 -1.81029 0
M  V30 11146 C 1078.67 -3.59621 0.185602 0
M  V30 11147 C 1078.52 -4.20239 1.60373 0
M  V30 11148 C 1079.84 -4.37515 -0.476289 0
M  V30 11149 H 1076.96 -0.73424 0.0637185 0
M  V30 11150 H 1079.6 -1.70539 0.837648 0
M  V30 11151 H 1077.75 -3.86619 -0.381804 0
M  V30 11152 H 1079.43 -4.0426 2.22197 0
M  V30 11153 H 1077.67 -3.76769 2.15006 0
M  V30 11154 H 1078.34 -5.29333 1.56557 0
M  V30 11155 H 1080.82 -4.16099 0.00651073 0
M  V30 11156 H 1079.69 -5.47169 -0.435562 0
M  V30 11157 H 1079.95 -4.14003 -1.55093 0
M  V30 11158 N 1079.01 -0.398486 -1.52479 0
M  V30 11159 C 1079.92 0.439328 -2.3045 0
M  V30 11160 C 1080.94 1.06322 -1.37738 0
M  V30 11161 O 1082.12 1.06704 -1.7081 0
M  V30 11162 C 1079.18 1.54655 -3.10294 0
M  V30 11163 C 1078.24 0.946824 -4.18729 0
M  V30 11164 C 1077.47 2.00129 -4.94757 0
M  V30 11165 O 1077.7 3.2178 -4.70971 0
M  V30 11166 O 1076.63 1.61345 -5.79872 0
M  V30 11167 H 1080.46 -0.196118 -3.03066 0
M  V30 11168 H 1078.04 -0.161961 -1.4852 0
M  V30 11169 H 1079.92 2.18958 -3.60049 0
M  V30 11170 H 1078.6 2.1668 -2.40482 0
M  V30 11171 H 1077.51 0.266802 -3.73147 0
M  V30 11172 H 1078.84 0.370664 -4.90802 0
M  V30 11173 N 1080.49 1.57075 -0.12858 0
M  V30 11174 C 1081.42 2.18833 0.814519 0
M  V30 11175 C 1082.4 1.13114 1.2704 0
M  V30 11176 O 1083.59 1.41387 1.33129 0
M  V30 11177 C 1080.72 2.79535 2.06101 0
M  V30 11178 C 1079.67 3.9092 1.74257 0
M  V30 11179 C 1079 4.38473 3.06015 0
M  V30 11180 C 1080.3 5.1257 1.00345 0
M  V30 11181 H 1081.99 2.97895 0.299862 0
M  V30 11182 H 1079.54 1.4329 0.14279 0
M  V30 11183 H 1081.49 3.21401 2.72543 0
M  V30 11184 H 1080.21 1.97777 2.59907 0
M  V30 11185 H 1078.87 3.49645 1.102 0
M  V30 11186 H 1078.52 3.53561 3.57776 0
M  V30 11187 H 1078.22 5.13591 2.85479 0
M  V30 11188 H 1079.75 4.82997 3.7356 0
M  V30 11189 H 1081.16 5.51395 1.56959 0
M  V30 11190 H 1079.56 5.93333 0.898693 0
M  V30 11191 H 1080.63 4.84899 -0.0081335 0
M  V30 11192 N 1081.97 -0.145205 1.5693 0
M  V30 11193 C 1083.2 -0.872398 1.87608 0
M  V30 11194 C 1083.61 -1.74657 0.716975 0
M  V30 11195 O 1082.97 -1.79792 -0.3132 0
M  V30 11196 C 1083.02 -1.72762 3.17546 0
M  V30 11197 O 1082.74 -0.888681 4.28992 0
M  V30 11198 C 1084.24 -2.56224 3.61751 0
M  V30 11199 H 1081.46 -0.252166 0.621815 0
M  V30 11200 H 1084.01 -0.137456 2.04038 0
M  V30 11201 H 1082.16 -2.41561 3.02865 0
M  V30 11202 H 1082.58 -1.47601 5.03303 0
M  V30 11203 H 1084.05 -3.11804 4.55502 0
M  V30 11204 H 1084.53 -3.32347 2.87127 0
M  V30 11205 H 1085.13 -1.92714 3.79133 0
M  V30 11206 N 1083.45 -1.52049 -0.414609 0
M  V30 11207 C 1084.67 -1.6997 -1.18848 0
M  V30 11208 C 1085.1 -0.406058 -1.83665 0
M  V30 11209 O 1084.46 0.635981 -1.69779 0
M  V30 11210 C 1084.5 -2.8327 -2.23138 0
M  V30 11211 O 1083.61 -2.48457 -3.29155 0
M  V30 11212 H 1082.95 -0.566003 -0.347183 0
M  V30 11213 H 1085.48 -1.98726 -0.486757 0
M  V30 11214 H 1085.49 -3.08022 -2.67557 0
M  V30 11215 H 1084.16 -3.7713 -1.75344 0
M  V30 11216 H 1082.74 -2.34357 -2.90054 0
M  V30 11217 N 1084.93 0.6715 -1.42579 0
M  V30 11218 C 1086.15 1.46471 -1.46836 0
M  V30 11219 C 1086.58 1.87921 -0.0820658 0
M  V30 11220 O 1085.93 1.5621 0.920217 0
M  V30 11221 C 1085.98 2.68796 -2.40377 0
M  V30 11222 O 1085.09 3.67188 -1.87741 0
M  V30 11223 H 1084.43 0.439901 -0.497376 0
M  V30 11224 H 1086.96 0.823342 -1.87303 0
M  V30 11225 H 1086.97 3.16828 -2.57068 0
M  V30 11226 H 1085.64 2.37967 -3.41093 0
M  V30 11227 H 1084.22 3.26237 -1.80621 0
M  V30 11228 N 1086.4 1.28806 0.908124 0
M  V30 11229 C 1087.34 1.09018 2.01613 0
M  V30 11230 C 1088.35 0.0402059 1.6275 0
M  V30 11231 O 1089.54 0.283853 1.76229 0
M  V30 11232 C 1086.64 0.635712 3.32884 0
M  V30 11233 C 1085.81 1.76235 4.00325 0
M  V30 11234 C 1084.87 1.3003 5.09881 0
M  V30 11235 O 1083.9 2.00354 5.32773 0
M  V30 11236 N 1085.1 0.166575 5.80261 0
M  V30 11237 H 1087.86 2.0444 2.19144 0
M  V30 11238 H 1085.42 1.20633 1.07978 0
M  V30 11239 H 1087.42 0.310097 4.0351 0
M  V30 11240 H 1085.99 -0.225816 3.11783 0
M  V30 11241 H 1085.21 2.25727 3.23173 0
M  V30 11242 H 1086.49 2.51796 4.42127 0
M  V30 11243 H 1085.89 -0.419934 5.64139 0
M  V30 11244 H 1084.45 -0.0997281 6.51724 0
M  V30 11245 N 1087.88 -1.11734 1.11145 0
M  V30 11246 C 1089.3 -1.35412 0.844736 0
M  V30 11247 C 1089.5 -1.94347 -0.532111 0
M  V30 11248 O 1088.55 -2.17443 -1.28353 0
M  V30 11249 C 1089.87 -2.28869 1.95037 0
M  V30 11250 C 1091.41 -2.42442 1.97967 0
M  V30 11251 C 1091.89 -3.39219 3.07725 0
M  V30 11252 N 1093.38 -3.4678 3.07079 0
M  V30 11253 C 1094.12 -4.21595 3.88646 0
M  V30 11254 N 1093.61 -4.99411 4.80167 0
M  V30 11255 N 1095.4 -4.17075 3.76835 0
M  V30 11256 H 1087.56 -0.718412 1.99881 0
M  V30 11257 H 1089.82 -0.378787 0.869037 0
M  V30 11258 H 1089.52 -1.92752 2.94176 0
M  V30 11259 H 1089.4 -3.2906 1.84389 0
M  V30 11260 H 1091.79 -2.77835 0.994561 0
M  V30 11261 H 1091.87 -1.42113 2.12691 0
M  V30 11262 H 1091.51 -3.04553 4.0646 0
M  V30 11263 H 1091.44 -4.39394 2.90242 0
M  V30 11264 H 1093.93 -2.91272 2.40767 0
M  V30 11265 H 1094.24 -5.53856 5.38946 0
M  V30 11266 H 1092.59 -4.98582 4.84191 0
M  V30 11267 H 1095.78 -3.55369 3.04681 0
M  V30 11268 H 1095.95 -4.75125 4.40637 0
M  V30 11269 N 1089.36 -0.901303 -1.29284 0
M  V30 11270 C 1090.61 -0.538241 -1.96149 0
M  V30 11271 C 1090.96 0.905804 -1.69744 0
M  V30 11272 O 1090.25 1.63383 -1.00083 0
M  V30 11273 C 1090.45 -0.768828 -3.49033 0
M  V30 11274 C 1090.28 -2.23373 -3.903 0
M  V30 11275 C 1089.05 -2.88148 -4.15089 0
M  V30 11276 C 1091.24 -3.20907 -4.01899 0
M  V30 11277 N 1089.23 -4.25065 -4.42937 0
M  V30 11278 C 1090.6 -4.42948 -4.33817 0
M  V30 11279 C 1092.65 -3.16475 -3.8438 0
M  V30 11280 C 1091.36 -5.6112 -4.50041 0
M  V30 11281 C 1093.38 -4.33934 -4.01815 0
M  V30 11282 C 1092.74 -5.54745 -4.34093 0
M  V30 11283 H 1088.84 -0.246593 -0.742102 0
M  V30 11284 H 1091.43 -1.16245 -1.5619 0
M  V30 11285 H 1089.6 -0.17399 -3.8801 0
M  V30 11286 H 1091.33 -0.37104 -4.02996 0
M  V30 11287 H 1088.08 -2.38935 -4.0891 0
M  V30 11288 H 1088.51 -4.95822 -4.60966 0
M  V30 11289 H 1093.15 -2.2416 -3.58486 0
M  V30 11290 H 1090.87 -6.53925 -4.74771 0
M  V30 11291 H 1094.45 -4.31993 -3.89709 0
M  V30 11292 H 1093.33 -6.4412 -4.47302 0
M  V30 11293 N 1090.84 1.42931 -0.663954 0
M  V30 11294 C 1092.25 1.84877 -0.260283 0
M  V30 11295 C 1092.6 1.5558 1.19538 0
M  V30 11296 O 1091.72 1.01015 1.91377 0
M  V30 11297 C 1092.32 3.35585 -0.465618 0
M  V30 11298 C 1090.88 3.76221 -0.116169 0
M  V30 11299 C 1090.03 2.66587 -0.763317 0
M  V30 11300 H 1092.98 1.32932 -0.866882 0
M  V30 11301 H 1093 3.79427 0.285608 0
M  V30 11302 H 1092.51 3.56877 -1.52515 0
M  V30 11303 H 1090.61 3.60539 0.940342 0
M  V30 11304 H 1090.72 4.75943 -0.549123 0
M  V30 11305 H 1089.09 2.53948 -0.19559 0
M  V30 11306 H 1089.87 2.90704 -1.82609 0
M  V30 11307 N 1092.32 0.406567 1.52266 0
M  V30 11308 C 1093.25 -0.45552 2.24628 0
M  V30 11309 C 1094.26 -1.01234 1.27497 0
M  V30 11310 O 1095.45 -0.911718 1.5346 0
M  V30 11311 C 1092.55 -1.64578 2.96256 0
M  V30 11312 C 1091.72 -1.2133 4.20235 0
M  V30 11313 C 1090.78 -2.27018 4.7471 0
M  V30 11314 O 1089.81 -1.87714 5.37357 0
M  V30 11315 N 1091.01 -3.5915 4.56061 0
M  V30 11316 H 1093.77 0.164525 2.99248 0
M  V30 11317 H 1091.34 0.233812 1.60203 0
M  V30 11318 H 1093.33 -2.3484 3.29594 0
M  V30 11319 H 1091.9 -2.1718 2.24837 0
M  V30 11320 H 1091.12 -0.338892 3.92741 0
M  V30 11321 H 1092.41 -0.901268 5.00754 0
M  V30 11322 H 1091.8 -3.93834 4.06092 0
M  V30 11323 H 1090.36 -4.25397 4.93843 0
M  V30 11324 N 1093.79 -1.57004 0.136909 0
M  V30 11325 C 1095.02 -2.00587 -0.527209 0
M  V30 11326 C 1095.44 -1.01628 -1.58283 0
M  V30 11327 O 1094.8 0.00946934 -1.81298 0
M  V30 11328 C 1094.85 -3.42967 -1.11384 0
M  V30 11329 O 1093.95 -3.46973 -2.22898 0
M  V30 11330 H 1093.3 -0.651155 -0.129976 0
M  V30 11331 H 1095.83 -2.03296 0.230667 0
M  V30 11332 H 1095.84 -3.81555 -1.44499 0
M  V30 11333 H 1094.51 -4.14502 -0.340736 0
M  V30 11334 H 1093.09 -3.20219 -1.91087 0
M  V30 11335 N 1095.27 0.136881 -1.57004 0
M  V30 11336 C 1096.2 1.17026 -2.02057 0
M  V30 11337 C 1097.18 1.44223 -0.901866 0
M  V30 11338 O 1098.37 1.54971 -1.17037 0
M  V30 11339 C 1095.5 2.50095 -2.40977 0
M  V30 11340 C 1094.45 2.37398 -3.56127 0
M  V30 11341 C 1093.78 3.75268 -3.80891 0
M  V30 11342 C 1095.08 1.84952 -4.88457 0
M  V30 11343 H 1096.77 0.795601 -2.88636 0
M  V30 11344 H 1094.32 0.381266 -1.38861 0
M  V30 11345 H 1096.27 3.22621 -2.71097 0
M  V30 11346 H 1095 2.89416 -1.51348 0
M  V30 11347 H 1093.65 1.67322 -3.26188 0
M  V30 11348 H 1093.3 4.12043 -2.88496 0
M  V30 11349 H 1093 3.67631 -4.5839 0
M  V30 11350 H 1094.53 4.49327 -4.13446 0
M  V30 11351 H 1095.94 2.4728 -5.17229 0
M  V30 11352 H 1094.34 1.88181 -5.69832 0
M  V30 11353 H 1095.41 0.805848 -4.78157 0
M  V30 11354 N 1096.75 1.52266 0.40654 0
M  V30 11355 C 1097.7 1.76409 1.516 0
M  V30 11356 C 1098.69 0.631311 1.57197 0
M  V30 11357 O 1099.9 0.813413 1.60573 0
M  V30 11358 H 1096.27 0.557904 0.50423 0
M  V30 11359 H 1098.24 2.69351 1.28424 0
M  V30 11360 C 1096.99 1.93415 2.88939 0
M  V30 11361 H 1096.32 2.8 2.85377 0
M  V30 11362 H 1097.76 2.14306 3.65854 0
M  V30 11363 C 1096.22 0.701938 3.29506 0
M  V30 11364 O 1096.75 -0.128965 4.01493 0
M  V30 11365 N 1094.95 0.537089 2.85594 0
M  V30 11366 H 1094.5 1.21435 2.27181 0
M  V30 11367 H 1094.46 -0.286055 3.13096 0
M  V30 11368 N 1098.23 -0.663929 1.42933 0
M  V30 11369 C 1099.16 -1.78876 1.41699 0
M  V30 11370 C 1100.14 -1.60174 0.27981 0
M  V30 11371 O 1101.32 -1.82502 0.471735 0
M  V30 11372 C 1098.45 -3.1603 1.2183 0
M  V30 11373 C 1097.5 -3.53457 2.38685 0
M  V30 11374 S 1098.33 -3.54648 4.01229 0
M  V30 11375 C 1099.49 -4.94477 3.83723 0
M  V30 11376 H 1099.72 -1.7965 2.36882 0
M  V30 11377 H 1097.25 -0.835596 1.29835 0
M  V30 11378 H 1099.21 -3.95193 1.11054 0
M  V30 11379 H 1097.87 -3.1283 0.282139 0
M  V30 11380 H 1097.06 -4.53178 2.20559 0
M  V30 11381 H 1096.67 -2.81681 2.46032 0
M  V30 11382 H 1098.96 -5.82851 3.45386 0
M  V30 11383 H 1099.9 -5.17652 4.83158 0
M  V30 11384 H 1100.31 -4.67507 3.16382 0
M  V30 11385 N 1099.71 -1.29285 -0.901281 0
M  V30 11386 C 1101.12 -1.07263 -1.18182 0
M  V30 11387 C 1101.32 0.177087 -2.0072 0
M  V30 11388 O 1100.38 0.875292 -2.36844 0
M  V30 11389 C 1101.69 -2.32717 -1.9043 0
M  V30 11390 C 1103.24 -2.3802 -2.03262 0
M  V30 11391 C 1103.71 -3.63273 -2.7892 0
M  V30 11392 N 1105.21 -3.63986 -2.86475 0
M  V30 11393 C 1105.94 -4.57585 -3.45549 0
M  V30 11394 N 1105.44 -5.61513 -4.05801 0
M  V30 11395 N 1107.23 -4.45157 -3.43208 0
M  V30 11396 H 1099.38 -2.09487 -0.350536 0
M  V30 11397 H 1101.64 -0.922647 -0.217778 0
M  V30 11398 H 1101.35 -3.23828 -1.37216 0
M  V30 11399 H 1101.22 -2.40102 -2.90913 0
M  V30 11400 H 1103.61 -1.47398 -2.55652 0
M  V30 11401 H 1103.69 -2.3462 -1.01916 0
M  V30 11402 H 1103.34 -4.54246 -2.27206 0
M  V30 11403 H 1103.27 -3.6393 -3.80608 0
M  V30 11404 H 1105.76 -2.8884 -2.43679 0
M  V30 11405 H 1106.07 -6.29058 -4.48894 0
M  V30 11406 H 1104.41 -5.65325 -4.04268 0
M  V30 11407 H 1107.61 -3.63158 -2.95354 0
M  V30 11408 H 1107.78 -5.18286 -3.88952 0
M  V30 11409 N 1101.18 1.11143 -1.11736 0
M  V30 11410 C 1102.12 2.1705 -0.736325 0
M  V30 11411 C 1103.13 1.61116 0.233528 0
M  V30 11412 O 1104.32 1.78493 0.0159602 0
M  V30 11413 C 1101.42 3.38832 -0.067974 0
M  V30 11414 C 1100.59 4.24226 -1.06543 0
M  V30 11415 C 1099.65 5.24472 -0.426063 0
M  V30 11416 O 1098.68 5.58843 -1.0809 0
M  V30 11417 N 1099.88 5.74825 0.809711 0
M  V30 11418 H 1102.64 2.50349 -1.64758 0
M  V30 11419 H 1100.2 1.26693 -1.00799 0
M  V30 11420 H 1102.2 4.02991 0.371563 0
M  V30 11421 H 1100.77 3.0357 0.745917 0
M  V30 11422 H 1099.99 3.56475 -1.68283 0
M  V30 11423 H 1101.27 4.78117 -1.74016 0
M  V30 11424 H 1100.67 5.49088 1.36084 0
M  V30 11425 H 1099.23 6.40804 1.19218 0
M  V30 11426 N 1102.66 0.908147 1.28804 0
M  V30 11427 C 1103.89 0.553431 1.9988 0
M  V30 11428 C 1104.31 -0.856714 1.67458 0
M  V30 11429 O 1103.67 -1.57163 0.903849 0
M  V30 11430 C 1103.72 0.762688 3.52442 0
M  V30 11431 O 1102.82 -0.180924 4.12003 0
M  V30 11432 H 1102.16 0.215237 0.628147 0
M  V30 11433 H 1104.69 1.22205 1.64095 0
M  V30 11434 H 1104.7 0.670612 4.02451 0
M  V30 11435 H 1103.38 1.79071 3.75375 0
M  V30 11436 H 1101.96 -0.0405897 3.72878 0
M  V30 11437 N 1104.14 -1.42577 0.671525 0
M  V30 11438 C 1105.07 -2.33499 0.00506984 0
M  V30 11439 C 1106.05 -1.50497 -0.792763 0
M  V30 11440 O 1107.24 -1.79109 -0.750574 0
M  V30 11441 C 1104.37 -3.34077 -0.949194 0
M  V30 11442 C 1103.32 -4.27208 -0.260187 0
M  V30 11443 C 1102.65 -5.17968 -1.32716 0
M  V30 11444 C 1103.95 -5.15192 0.858772 0
M  V30 11445 H 1105.64 -2.89477 0.764407 0
M  V30 11446 H 1103.19 -1.39191 0.369043 0
M  V30 11447 H 1105.14 -3.96594 -1.42448 0
M  V30 11448 H 1103.86 -2.76396 -1.73991 0
M  V30 11449 H 1102.52 -3.66082 0.194834 0
M  V30 11450 H 1102.17 -4.56615 -2.10979 0
M  V30 11451 H 1101.87 -5.81104 -0.871293 0
M  V30 11452 H 1103.39 -5.83359 -1.80345 0
M  V30 11453 H 1104.81 -5.71412 0.464844 0
M  V30 11454 H 1103.21 -5.87144 1.24023 0
M  V30 11455 H 1104.28 -4.53787 1.70895 0
M  V30 11456 N 1105.62 -0.414636 -1.52048 0
M  V30 11457 C 1106.84 0.161137 -2.06773 0
M  V30 11458 C 1107.27 1.37628 -1.2822 0
M  V30 11459 O 1106.63 1.78562 -0.313915 0
M  V30 11460 C 1106.67 0.48452 -3.5733 0
M  V30 11461 O 1105.78 1.57466 -3.81154 0
M  V30 11462 H 1105.12 0.0118003 -0.663895 0
M  V30 11463 H 1107.65 -0.589424 -1.95926 0
M  V30 11464 H 1107.66 0.741567 -4.01204 0
M  V30 11465 H 1106.33 -0.403733 -4.13936 0
M  V30 11466 H 1104.91 1.30935 -3.49157 0
M  V30 11467 N 1107.1 1.56929 -0.145233 0
M  V30 11468 C 1108.32 2.00431 0.513314 0
M  V30 11469 C 1108.74 1.0253 1.58534 0
M  V30 11470 O 1108.1 0.0220459 1.82487 0
M  V30 11471 C 1108.15 3.43856 1.11557 0
M  V30 11472 O 1107.87 4.38015 0.0863707 0
M  V30 11473 C 1109.37 4.02627 1.8549 0
M  V30 11474 H 1106.59 0.657529 0.133778 0
M  V30 11475 H 1109.13 2.03095 -0.239296 0
M  V30 11476 H 1107.29 3.4205 1.81881 0
M  V30 11477 H 1107.7 5.21842 0.527363 0
M  V30 11478 H 1109.18 5.04985 2.22923 0
M  V30 11479 H 1109.65 3.43239 2.74014 0
M  V30 11480 H 1110.26 4.08058 1.19869 0
M  V30 11481 N 1108.58 -0.128553 1.57075 0
M  V30 11482 C 1109.82 -0.83801 1.84347 0
M  V30 11483 C 1110.15 -1.80325 0.728906 0
M  V30 11484 O 1109.41 -1.93678 -0.280571 0
M  V30 11485 C 1109.7 -1.63027 3.18052 0
M  V30 11486 C 1109.37 -0.810171 4.43562 0
M  V30 11487 C 1108.03 -0.583984 4.77643 0
M  V30 11488 C 1110.38 -0.237896 5.20657 0
M  V30 11489 C 1107.71 0.224887 5.86269 0
M  V30 11490 C 1110.06 0.558114 6.30133 0
M  V30 11491 C 1108.73 0.794706 6.62752 0
M  V30 11492 H 1108 -0.30665 0.674572 0
M  V30 11493 H 1110.65 -0.100797 1.91235 0
M  V30 11494 H 1108.95 -2.43812 3.06697 0
M  V30 11495 H 1110.65 -2.183 3.36372 0
M  V30 11496 H 1107.24 -0.996547 4.16854 0
M  V30 11497 H 1111.42 -0.399881 4.94686 0
M  V30 11498 H 1106.68 0.417507 6.09973 0
M  V30 11499 H 1110.85 1.00859 6.89058 0
M  V30 11500 H 1108.48 1.42331 7.46757 0
M  V30 11501 N 1110.05 -1.5248 -0.398459 0
M  V30 11502 C 1111.28 -1.71221 -1.17039 0
M  V30 11503 C 1111.7 -0.425515 -1.83224 0
M  V30 11504 O 1111.06 0.617938 -1.70444 0
M  V30 11505 C 1111.11 -2.8562 -2.20121 0
M  V30 11506 O 1110.21 -2.51934 -3.26501 0
M  V30 11507 H 1109.55 -0.569654 -0.34116 0
M  V30 11508 H 1112.08 -1.99231 -0.465652 0
M  V30 11509 H 1112.09 -3.10842 -2.64275 0
M  V30 11510 H 1110.77 -3.78969 -1.71334 0
M  V30 11511 H 1109.35 -2.3742 -2.87552 0
M  V30 11512 N 1111.53 0.65634 -1.43283 0
M  V30 11513 C 1112.76 1.44906 -1.48382 0
M  V30 11514 C 1113.18 1.87823 -0.101993 0
M  V30 11515 O 1112.54 1.57178 0.903597 0
M  V30 11516 C 1112.59 2.66231 -2.43215 0
M  V30 11517 O 1111.69 3.65176 -1.91625 0
M  V30 11518 H 1111.03 0.434601 -0.502014 0
M  V30 11519 H 1113.56 0.803429 -1.88165 0
M  V30 11520 H 1113.57 3.14083 -2.60414 0
M  V30 11521 H 1112.25 2.34336 -3.43598 0
M  V30 11522 H 1110.82 3.24302 -1.84072 0
M  V30 11523 N 1113.01 1.29761 0.894412 0
M  V30 11524 C 1113.92 1.1724 2.03204 0
M  V30 11525 C 1114.94 0.0944452 1.73743 0
M  V30 11526 O 1116.11 0.307549 1.99038 0
M  V30 11527 C 1113.18 0.855416 3.35981 0
M  V30 11528 C 1112.24 2.01777 3.78926 0
M  V30 11529 C 1111.47 1.71581 5.05367 0
M  V30 11530 O 1111.69 0.639245 5.66807 0
M  V30 11531 O 1110.63 2.56539 5.44492 0
M  V30 11532 H 1114.45 2.12787 2.16692 0
M  V30 11533 H 1112.04 1.09264 1.0189 0
M  V30 11534 H 1113.92 0.693429 4.15656 0
M  V30 11535 H 1112.6 -0.0702195 3.23624 0
M  V30 11536 H 1111.5 2.23502 2.99996 0
M  V30 11537 H 1112.84 2.92479 3.95875 0
M  V30 11538 N 1114.49 -1.10549 1.12324 0
M  V30 11539 C 1115.44 -2.18944 0.785248 0
M  V30 11540 C 1116.43 -1.67867 -0.227389 0
M  V30 11541 O 1117.64 -1.79796 -0.0857162 0
M  V30 11542 H 1114.01 -0.713976 0.236098 0
M  V30 11543 H 1115.98 -2.44692 1.70788 0
M  V30 11544 C 1114.73 -3.46765 0.25485 0
M  V30 11545 H 1114.05 -3.86428 1.02534 0
M  V30 11546 H 1115.49 -4.23962 0.0566526 0
M  V30 11547 C 1113.95 -3.21185 -1.01695 0
M  V30 11548 O 1114.48 -3.42745 -2.09497 0
M  V30 11549 N 1112.69 -2.7486 -0.943423 0
M  V30 11550 H 1112.24 -2.57515 -0.0660366 0
M  V30 11551 H 1112.19 -2.58122 -1.795 0
M  V30 11552 N 1115.97 -0.914965 -1.28321 0
M  V30 11553 C 1117.38 -0.59512 -1.76961 0
M  V30 11554 C 1117.73 0.88958 -1.74874 0
M  V30 11555 O 1116.85 1.6959 -1.34418 0
M  V30 11556 C 1117.45 -1.07353 -3.21342 0
M  V30 11557 C 1116.01 -0.804577 -3.677 0
M  V30 11558 C 1115.15 -1.23955 -2.48053 0
M  V30 11559 H 1118.1 -1.0961 -1.14767 0
M  V30 11560 H 1118.13 -0.415506 -3.78225 0
M  V30 11561 H 1117.64 -2.15413 -3.22829 0
M  V30 11562 H 1115.74 0.26277 -3.71672 0
M  V30 11563 H 1115.85 -1.41317 -4.57784 0
M  V30 11564 H 1114.22 -0.658274 -2.46046 0
M  V30 11565 H 1115 -2.32853 -2.52258 0
M  V30 11566 N 1117.44 1.42219 -0.679077 0
M  V30 11567 C 1118.67 2.06333 -0.210097 0
M  V30 11568 C 1119.09 1.50703 1.12562 0
M  V30 11569 O 1118.45 0.627241 1.70104 0
M  V30 11570 C 1118.5 3.60243 -0.160322 0
M  V30 11571 O 1117.6 4.03122 0.869872 0
M  V30 11572 H 1116.94 0.655362 -0.106754 0
M  V30 11573 H 1119.47 1.82278 -0.929294 0
M  V30 11574 H 1119.48 4.07997 0.014384 0
M  V30 11575 H 1118.16 4.00106 -1.13526 0
M  V30 11576 H 1116.74 3.66907 0.66586 0
M  V30 11577 N 1118.92 0.422693 1.51826 0
M  V30 11578 C 1120.2 -0.20786 1.94492 0
M  V30 11579 C 1120.58 -1.61414 1.36047 0
M  V30 11580 O 1119.93 -2.21987 0.541657 0
M  V30 11581 C 1120.14 -0.200457 3.48424 0
M  V30 11582 C 1121.48 -0.413199 4.22585 0
M  V30 11583 O 1122.51 -0.27922 3.55104 0
M  V30 11584 O 1121.37 -0.678469 5.42272 0
M  V30 11585 H 1118.46 -0.137851 0.81543 0
M  V30 11586 H 1121.01 0.479617 1.62781 0
M  V30 11587 H 1119.78 0.783263 3.83381 0
M  V30 11588 H 1119.4 -0.931464 3.86535 0
M  V30 11589 N 1120.4 -1.5685 0.153553 0
M  V30 11590 C 1121.65 -1.95946 -0.494936 0
M  V30 11591 C 1121.97 -1.03975 -1.64967 0
M  V30 11592 O 1121.24 -0.102572 -1.95631 0
M  V30 11593 H 1119.82 -0.723516 -0.185833 0
M  V30 11594 H 1122.48 -1.93531 0.230585 0
M  V30 11595 H 1121.58 -2.99823 -0.866743 0
M  V30 11596 N 1121.88 0.120221 -1.57141 0
M  V30 11597 C 1122.79 1.16641 -2.03549 0
M  V30 11598 C 1123.8 1.45407 -0.955656 0
M  V30 11599 O 1124.98 1.56547 -1.26708 0
M  V30 11600 C 1122.04 2.4734 -2.42948 0
M  V30 11601 C 1121.11 2.25982 -3.65008 0
M  V30 11602 C 1120.34 3.50449 -4.02518 0
M  V30 11603 O 1120.56 4.57706 -3.40384 0
M  V30 11604 O 1119.5 3.41524 -4.95626 0
M  V30 11605 H 1123.32 0.802323 -2.9291 0
M  V30 11606 H 1120.91 0.330927 -1.45689 0
M  V30 11607 H 1122.79 3.24348 -2.69029 0
M  V30 11608 H 1121.46 2.83225 -1.56733 0
M  V30 11609 H 1120.37 1.46837 -3.44078 0
M  V30 11610 H 1121.7 1.95002 -4.51924 0
M  V30 11611 N 1123.36 1.52689 0.390367 0
M  V30 11612 C 1124.27 1.8029 1.50108 0
M  V30 11613 C 1125.28 0.689582 1.59752 0
M  V30 11614 O 1126.46 0.977024 1.76114 0
M  V30 11615 C 1123.52 1.96475 2.85654 0
M  V30 11616 C 1122.58 3.2039 2.85743 0
M  V30 11617 C 1121.82 3.35793 4.14824 0
M  V30 11618 O 1122.04 2.56033 5.09709 0
M  V30 11619 O 1120.97 4.2904 4.22147 0
M  V30 11620 H 1124.8 2.74605 1.29715 0
M  V30 11621 H 1122.39 1.37763 0.578074 0
M  V30 11622 H 1124.27 2.08835 3.66013 0
M  V30 11623 H 1122.94 1.05351 3.06077 0
M  V30 11624 H 1121.85 3.13473 2.0417 0
M  V30 11625 H 1123.18 4.11356 2.70272 0
M  V30 11626 N 1124.83 -0.648732 1.43629 0
M  V30 11627 C 1126.08 -1.40579 1.45196 0
M  V30 11628 C 1126.4 -1.9484 0.0790556 0
M  V30 11629 O 1125.67 -1.74707 -0.886239 0
M  V30 11630 H 1124.25 -0.52175 0.53459 0
M  V30 11631 H 1126.92 -0.764796 1.79268 0
M  V30 11632 H 1126.01 -2.24591 2.16715 0
M  V30 11633 N 1126.31 -1.30234 -0.887518 0
M  V30 11634 C 1127.54 -1.21829 -1.67229 0
M  V30 11635 C 1127.96 0.219251 -1.87523 0
M  V30 11636 O 1127.31 1.14526 -1.42091 0
M  V30 11637 C 1127.36 -1.94044 -3.05007 0
M  V30 11638 O 1127.08 -3.32185 -2.85631 0
M  V30 11639 C 1128.59 -1.92265 -3.99436 0
M  V30 11640 H 1125.81 -0.421716 -0.521916 0
M  V30 11641 H 1128.35 -1.71816 -1.10903 0
M  V30 11642 H 1126.5 -1.47861 -3.58072 0
M  V30 11643 H 1126.92 -3.68724 -3.73018 0
M  V30 11644 H 1128.39 -2.47336 -4.93486 0
M  V30 11645 H 1128.87 -0.900984 -4.29859 0
M  V30 11646 H 1129.48 -2.38247 -3.52305 0
M  V30 11647 N 1127.79 1.09952 -1.12909 0
M  V30 11648 C 1128.75 2.14615 -0.804548 0
M  V30 11649 C 1129.75 1.5975 0.18345 0
M  V30 11650 O 1130.94 1.74147 -0.0429623 0
M  V30 11651 C 1128.08 3.40333 -0.196471 0
M  V30 11652 H 1129.27 2.44835 -1.73193 0
M  V30 11653 H 1126.82 1.25399 -0.932997 0
M  V30 11654 H 1127.56 3.15735 0.740388 0
M  V30 11655 H 1127.34 3.81444 -0.907886 0
M  V30 11656 H 1128.83 4.17598 0.0139264 0
M  V30 11657 N 1129.27 0.921757 1.27833 0
M  V30 11658 C 1130.49 0.574599 1.99281 0
M  V30 11659 C 1130.92 -0.838905 1.68357 0
M  V30 11660 O 1130.28 -1.56196 0.920468 0
M  V30 11661 C 1130.32 0.800027 3.51613 0
M  V30 11662 O 1129.43 -0.137215 4.12172 0
M  V30 11663 H 1128.77 0.221887 0.625829 0
M  V30 11664 H 1131.3 1.23939 1.62789 0
M  V30 11665 H 1131.31 0.71326 4.01717 0
M  V30 11666 H 1129.98 1.83042 3.73455 0
M  V30 11667 H 1128.56 -0.00103872 3.729 0
M  V30 11668 N 1130.75 -1.41857 0.686609 0
M  V30 11669 C 1131.66 -2.34595 0.0159005 0
M  V30 11670 C 1132.67 -1.55741 -0.775933 0
M  V30 11671 O 1133.85 -1.8826 -0.71555 0
M  V30 11672 C 1130.91 -3.34395 -0.915473 0
M  V30 11673 C 1129.97 -4.29141 -0.116851 0
M  V30 11674 C 1129.21 -5.24174 -1.00386 0
M  V30 11675 O 1129.43 -5.24431 -2.2434 0
M  V30 11676 O 1128.36 -6.00152 -0.458337 0
M  V30 11677 H 1132.19 -2.9351 0.780101 0
M  V30 11678 H 1129.78 -1.42559 0.446896 0
M  V30 11679 H 1131.66 -3.95675 -1.44981 0
M  V30 11680 H 1130.33 -2.77936 -1.65932 0
M  V30 11681 H 1129.24 -3.71238 0.461871 0
M  V30 11682 H 1130.57 -4.88673 0.588138 0
M  V30 11683 N 1132.22 -0.430739 -1.51599 0
M  V30 11684 C 1133.64 0.0339139 -1.86669 0
M  V30 11685 C 1133.99 1.42533 -1.34829 0
M  V30 11686 O 1133.11 2.04889 -0.696376 0
M  V30 11687 C 1133.71 0.0683174 -3.38731 0
M  V30 11688 C 1132.27 0.477363 -3.73361 0
M  V30 11689 C 1131.41 -0.334258 -2.75278 0
M  V30 11690 H 1134.36 -0.646875 -1.44918 0
M  V30 11691 H 1134.38 0.879179 -3.70204 0
M  V30 11692 H 1133.9 -0.944501 -3.76432 0
M  V30 11693 H 1132 1.49603 -3.41247 0
M  V30 11694 H 1132.11 0.206744 -4.78654 0
M  V30 11695 H 1130.47 0.206503 -2.53861 0
M  V30 11696 H 1131.26 -1.34583 -3.1582 0
M  V30 11697 N 1133.7 1.56767 -0.161869 0
M  V30 11698 C 1134.93 2.01401 0.49523 0
M  V30 11699 C 1135.35 1.04133 1.56646 0
M  V30 11700 O 1134.71 0.0193747 1.8129 0
M  V30 11701 C 1134.76 3.44695 1.05913 0
M  V30 11702 O 1133.86 3.50475 2.1735 0
M  V30 11703 H 1133.2 0.65314 0.1196 0
M  V30 11704 H 1135.73 2.02903 -0.26298 0
M  V30 11705 H 1135.74 3.83805 1.3841 0
M  V30 11706 H 1134.42 4.14991 0.274749 0
M  V30 11707 H 1133 3.23218 1.85969 0
M  V30 11708 N 1135.18 -0.111886 1.57202 0
M  V30 11709 C 1136.59 -0.668261 1.74331 0
M  V30 11710 C 1136.94 -1.79959 0.781609 0
M  V30 11711 O 1136.07 -2.16356 -0.043833 0
M  V30 11712 C 1136.66 -1.219 3.1611 0
M  V30 11713 C 1135.22 -1.7216 3.34721 0
M  V30 11714 C 1134.37 -0.624223 2.70183 0
M  V30 11715 H 1137.32 0.114081 1.58289 0
M  V30 11716 H 1137.34 -2.08858 3.18054 0
M  V30 11717 H 1136.85 -0.395381 3.86081 0
M  V30 11718 H 1134.95 -2.56976 2.69803 0
M  V30 11719 H 1135.07 -1.82615 4.42932 0
M  V30 11720 H 1133.43 -1.05958 2.31614 0
M  V30 11721 H 1134.21 0.188537 3.42782 0
M  V30 11722 N 1136.66 -1.52894 -0.382264 0
M  V30 11723 C 1137.88 -1.72453 -1.15216 0
M  V30 11724 C 1138.31 -0.444925 -1.82762 0
M  V30 11725 O 1137.67 0.599825 -1.7109 0
M  V30 11726 C 1137.71 -2.87939 -2.17079 0
M  V30 11727 O 1136.82 -2.55383 -3.23811 0
M  V30 11728 H 1136.16 -0.57324 -0.335099 0
M  V30 11729 H 1138.69 -1.99713 -0.444495 0
M  V30 11730 H 1138.7 -3.13628 -2.60963 0
M  V30 11731 H 1137.37 -3.80765 -1.67305 0
M  V30 11732 H 1135.95 -2.40457 -2.85018 0
M  V30 11733 N 1138.14 0.641106 -1.43971 0
M  V30 11734 C 1139.39 1.39807 -1.4594 0
M  V30 11735 C 1139.71 1.94795 -0.0893874 0
M  V30 11736 O 1138.98 1.75175 0.876962 0
M  V30 11737 H 1137.56 0.518908 -0.537349 0
M  V30 11738 H 1140.22 0.755278 -1.79671 0
M  V30 11739 H 1139.31 2.23439 -2.17903 0
M  V30 11740 N 1139.62 1.30703 0.880598 0
M  V30 11741 C 1140.84 1.22714 1.6658 0
M  V30 11742 C 1141.26 -0.209303 1.87636 0
M  V30 11743 O 1140.62 -1.13771 1.42697 0
M  V30 11744 C 1140.67 1.95659 3.03974 0
M  V30 11745 O 1140.39 3.33695 2.83865 0
M  V30 11746 C 1141.89 1.9438 3.98411 0
M  V30 11747 H 1139.11 0.424478 0.519673 0
M  V30 11748 H 1141.65 1.72402 1.0999 0
M  V30 11749 H 1139.81 1.49758 3.57283 0
M  V30 11750 H 1140.22 3.70697 3.71058 0
M  V30 11751 H 1141.7 2.4995 4.92168 0
M  V30 11752 H 1142.17 0.923767 4.29375 0
M  V30 11753 H 1142.78 2.40112 3.51036 0
M  V30 11754 N 1141.09 -1.09351 1.1349 0
M  V30 11755 C 1142.5 -1.63035 0.909746 0
M  V30 11756 C 1142.86 -1.88229 -0.553573 0
M  V30 11757 O 1141.98 -1.63256 -1.42044 0
M  V30 11758 C 1142.58 -2.96186 1.64497 0
M  V30 11759 C 1141.13 -3.46692 1.46566 0
M  V30 11760 C 1140.28 -2.21095 1.67369 0
M  V30 11761 H 1143.23 -0.92704 1.28809 0
M  V30 11762 H 1143.25 -3.64177 1.10251 0
M  V30 11763 H 1142.77 -2.77818 2.70996 0
M  V30 11764 H 1140.87 -3.70183 0.423728 0
M  V30 11765 H 1140.98 -4.24078 2.22923 0
M  V30 11766 H 1139.34 -2.29789 1.0986 0
M  V30 11767 H 1140.13 -2.05245 2.7519 0
M  V30 11768 N 1142.57 -0.928524 -1.27343 0
M  V30 11769 C 1143.48 -0.433901 -2.30553 0
M  V30 11770 C 1144.5 0.485832 -1.6708 0
M  V30 11771 O 1145.67 0.36844 -1.98001 0
M  V30 11772 C 1142.74 0.304617 -3.45359 0
M  V30 11773 C 1141.8 -0.650131 -4.24349 0
M  V30 11774 C 1141.03 0.0532372 -5.33673 0
M  V30 11775 O 1141.26 1.27246 -5.56026 0
M  V30 11776 O 1140.19 -0.619009 -5.98709 0
M  V30 11777 H 1144.02 -1.2909 -2.74899 0
M  V30 11778 H 1141.6 -0.693903 -1.32308 0
M  V30 11779 H 1143.48 0.721137 -4.15184 0
M  V30 11780 H 1142.16 1.13721 -3.03066 0
M  V30 11781 H 1141.06 -1.11635 -3.57055 0
M  V30 11782 H 1142.4 -1.44996 -4.70358 0
M  V30 11783 N 1144.05 1.41491 -0.694123 0
M  V30 11784 C 1145.3 2.0155 -0.224809 0
M  V30 11785 C 1145.63 1.54844 1.17205 0
M  V30 11786 O 1144.9 0.75899 1.7908 0
M  V30 11787 C 1145.19 3.59003 -0.280884 0
M  V30 11788 C 1145.04 4.15839 -1.71458 0
M  V30 11789 C 1146.36 4.38624 0.360122 0
M  V30 11790 H 1143.48 0.732293 -0.0831632 0
M  V30 11791 H 1146.12 1.68258 -0.882569 0
M  V30 11792 H 1144.27 3.87496 0.279164 0
M  V30 11793 H 1145.94 3.98227 -2.32837 0
M  V30 11794 H 1144.18 3.70936 -2.2492 0
M  V30 11795 H 1144.86 5.24997 -1.70536 0
M  V30 11796 H 1147.33 4.15936 -0.11683 0
M  V30 11797 H 1146.21 5.48132 0.290337 0
M  V30 11798 H 1146.47 4.1797 1.44062 0
M  V30 11799 N 1145.53 0.438773 1.51369 0
M  V30 11800 C 1146.78 -0.126962 2.01701 0
M  V30 11801 C 1147.1 -1.43086 1.32481 0
M  V30 11802 O 1146.37 -1.90427 0.459823 0
M  V30 11803 H 1144.95 -0.0499092 0.745331 0
M  V30 11804 H 1147.61 0.581808 1.86013 0
M  V30 11805 H 1146.7 -0.301836 3.10637 0
M  V30 11806 N 1147.01 -1.56678 0.170181 0
M  V30 11807 C 1148.23 -2.0166 -0.484543 0
M  V30 11808 C 1148.66 -1.04962 -1.56091 0
M  V30 11809 O 1148.01 -0.0289887 -1.81277 0
M  V30 11810 C 1148.06 -3.45252 -1.04084 0
M  V30 11811 O 1147.17 -3.51623 -2.15488 0
M  V30 11812 H 1146.51 -0.653765 -0.116135 0
M  V30 11813 H 1149.04 -2.02761 0.273737 0
M  V30 11814 H 1149.05 -3.84534 -1.36373 0
M  V30 11815 H 1147.72 -4.15131 -0.252738 0
M  V30 11816 H 1146.3 -3.242 -1.84252 0
M  V30 11817 N 1148.48 0.103547 -1.57259 0
M  V30 11818 C 1149.71 0.82235 -1.89855 0
M  V30 11819 C 1150.13 1.72694 -0.76303 0
M  V30 11820 O 1149.48 1.8056 0.265421 0
M  V30 11821 C 1149.53 1.64282 -3.22015 0
M  V30 11822 O 1149.26 0.774628 -4.31197 0
M  V30 11823 C 1150.76 2.46543 -3.68418 0
M  V30 11824 H 1147.98 0.235591 -0.628282 0
M  V30 11825 H 1150.52 0.0833106 -2.0433 0
M  V30 11826 H 1148.68 2.33446 -3.09163 0
M  V30 11827 H 1149.09 1.34205 -5.0704 0
M  V30 11828 H 1150.56 2.99618 -4.63609 0
M  V30 11829 H 1151.04 3.24618 -2.95838 0
M  V30 11830 H 1151.65 1.82594 -3.84109 0
M  V30 11831 N 1149.96 1.53094 0.37415 0
M  V30 11832 C 1150.91 1.79585 1.47824 0
M  V30 11833 C 1151.9 0.664513 1.55822 0
M  V30 11834 O 1153.11 0.84729 1.58811 0
M  V30 11835 H 1149.48 0.568474 0.492282 0
M  V30 11836 H 1151.46 2.72014 1.22681 0
M  V30 11837 C 1150.2 1.995 2.84772 0
M  V30 11838 H 1149.53 2.85991 2.79373 0
M  V30 11839 H 1150.97 2.22018 3.61226 0
M  V30 11840 C 1149.43 0.771673 3.27943 0
M  V30 11841 O 1149.96 -0.0437737 4.01676 0
M  V30 11842 N 1148.16 0.597547 2.8439 0
M  V30 11843 H 1147.71 1.26227 2.24554 0
M  V30 11844 H 1147.67 -0.219578 3.13632 0
M  V30 11845 N 1151.44 -0.633461 1.44309 0
M  V30 11846 C 1152.67 -1.42033 1.50447 0
M  V30 11847 C 1153.08 -1.88362 0.128585 0
M  V30 11848 O 1152.44 -1.60695 -0.865071 0
M  V30 11849 C 1152.49 -2.6422 2.46719 0
M  V30 11850 O 1152.21 -2.19823 3.78958 0
M  V30 11851 C 1153.71 -3.57372 2.62298 0
M  V30 11852 H 1150.93 -0.435667 0.510329 0
M  V30 11853 H 1153.48 -0.774907 1.8925 0
M  V30 11854 H 1151.63 -3.24859 2.11058 0
M  V30 11855 H 1152.05 -2.99022 4.30913 0
M  V30 11856 H 1153.52 -4.39719 3.33693 0
M  V30 11857 H 1154 -4.06026 1.67449 0
M  V30 11858 H 1154.6 -3.02603 2.9885 0
M  V30 11859 N 1152.92 -1.31168 -0.873655 0
M  V30 11860 C 1154.2 -1.11285 -1.60857 0
M  V30 11861 C 1154.58 0.333788 -2.08444 0
M  V30 11862 O 1153.92 1.32726 -1.86 0
M  V30 11863 C 1154.13 -2.12379 -2.7694 0
M  V30 11864 C 1155.48 -2.44704 -3.46994 0
M  V30 11865 O 1156.51 -2.10778 -2.87143 0
M  V30 11866 O 1155.36 -3.02786 -4.54954 0
M  V30 11867 H 1152.46 -0.428177 -0.707526 0
M  V30 11868 H 1155 -1.42634 -0.91944 0
M  V30 11869 H 1153.78 -3.09703 -2.39164 0
M  V30 11870 H 1153.4 -1.81914 -3.53544 0
M  V30 11871 N 1154.4 1.08748 -1.14068 0
M  V30 11872 C 1155.31 2.19123 -0.837998 0
M  V30 11873 C 1156.32 1.73065 0.180164 0
M  V30 11874 O 1157.5 2.01398 0.00952285 0
M  V30 11875 C 1154.56 3.45257 -0.316 0
M  V30 11876 C 1153.62 4.05959 -1.39628 0
M  V30 11877 C 1152.86 5.26072 -0.899095 0
M  V30 11878 O 1153.08 5.69804 0.260744 0
M  V30 11879 O 1152.01 5.7808 -1.67652 0
M  V30 11880 H 1155.84 2.4748 -1.76033 0
M  V30 11881 H 1153.43 1.17816 -0.918675 0
M  V30 11882 H 1155.31 4.21389 -0.0306425 0
M  V30 11883 H 1153.98 3.18486 0.578654 0
M  V30 11884 H 1152.89 3.31432 -1.73505 0
M  V30 11885 H 1154.22 4.36971 -2.26533 0
M  V30 11886 N 1155.87 0.935264 1.26849 0
M  V30 11887 C 1157.29 0.636661 1.46352 0
M  V30 11888 C 1157.49 -0.811823 1.84423 0
M  V30 11889 O 1156.55 -1.58902 1.9623 0
M  V30 11890 C 1157.86 1.59301 2.55036 0
M  V30 11891 C 1159.41 1.60207 2.68892 0
M  V30 11892 C 1159.88 2.54558 3.80742 0
M  V30 11893 N 1161.37 2.52809 3.88126 0
M  V30 11894 C 1162.11 3.225 4.74111 0
M  V30 11895 N 1161.6 4.01598 5.64527 0
M  V30 11896 N 1163.4 3.11481 4.67906 0
M  V30 11897 H 1155.55 1.8716 1.00423 0
M  V30 11898 H 1157.81 0.803968 0.502334 0
M  V30 11899 H 1157.52 2.62671 2.33874 0
M  V30 11900 H 1157.39 1.34052 3.52576 0
M  V30 11901 H 1159.78 0.575649 2.89431 0
M  V30 11902 H 1159.86 1.89508 1.71815 0
M  V30 11903 H 1159.5 3.57314 3.60956 0
M  V30 11904 H 1159.43 2.22549 4.77263 0
M  V30 11905 H 1161.92 1.9537 3.2348 0
M  V30 11906 H 1162.24 4.51742 6.27016 0
M  V30 11907 H 1160.58 4.057 5.64298 0
M  V30 11908 H 1163.77 2.49175 3.9627 0
M  V30 11909 H 1163.95 3.66064 5.34697 0
M  V30 11910 N 1157.35 -1.41121 0.701616 0
M  V30 11911 C 1158.76 -1.84122 0.309208 0
M  V30 11912 C 1159.11 -1.58695 -1.15371 0
M  V30 11913 O 1158.24 -1.06053 -1.88631 0
M  V30 11914 C 1158.83 -3.34233 0.554429 0
M  V30 11915 C 1157.39 -3.7578 0.215876 0
M  V30 11916 C 1156.54 -2.6447 0.833729 0
M  V30 11917 H 1159.49 -1.30587 0.901822 0
M  V30 11918 H 1159.51 -3.8005 -0.18491 0
M  V30 11919 H 1159.02 -3.52707 1.61923 0
M  V30 11920 H 1157.13 -3.62905 -0.844421 0
M  V30 11921 H 1157.24 -4.74319 0.675118 0
M  V30 11922 H 1155.6 -2.5334 0.262851 0
M  V30 11923 H 1156.39 -2.85761 1.90252 0
M  V30 11924 N 1158.83 -0.446794 -1.51134 0
M  V30 11925 C 1160.11 0.176892 -1.94798 0
M  V30 11926 C 1160.49 1.59229 -1.38598 0
M  V30 11927 O 1159.84 2.21097 -0.576905 0
M  V30 11928 C 1160.05 0.145 -3.48699 0
M  V30 11929 C 1161.39 0.345917 -4.23189 0
M  V30 11930 O 1162.42 0.222691 -3.55503 0
M  V30 11931 O 1161.28 0.592112 -5.43283 0
M  V30 11932 H 1158.37 0.12486 -0.81752 0
M  V30 11933 H 1160.92 -0.505453 -1.61998 0
M  V30 11934 H 1159.69 -0.844156 -3.82086 0
M  V30 11935 H 1159.31 0.869851 -3.87968 0
M  V30 11936 N 1160.31 1.56586 -0.178487 0
M  V30 11937 C 1161.22 2.21903 0.761321 0
M  V30 11938 C 1162.23 1.21289 1.2476 0
M  V30 11939 O 1163.41 1.53974 1.29823 0
M  V30 11940 C 1160.48 2.85259 1.97048 0
M  V30 11941 C 1159.54 4.01095 1.53039 0
M  V30 11942 C 1158.77 4.61421 2.68191 0
M  V30 11943 O 1158.99 4.20644 3.85247 0
M  V30 11944 O 1157.93 5.51171 2.41855 0
M  V30 11945 H 1161.75 3.02788 0.235141 0
M  V30 11946 H 1159.34 1.49316 0.0500442 0
M  V30 11947 H 1161.22 3.25404 2.6775 0
M  V30 11948 H 1159.89 2.07366 2.48558 0
M  V30 11949 H 1158.8 3.65606 0.792661 0
M  V30 11950 H 1160.13 4.80603 1.06213 0
M  V30 11951 N 1161.79 -0.095206 1.57312 0
M  V30 11952 C 1163.2 -0.449411 1.53142 0
M  V30 11953 C 1163.4 -1.80523 0.895187 0
M  V30 11954 O 1162.46 -2.47746 0.487649 0
M  V30 11955 C 1163.77 -0.412002 2.97864 0
M  V30 11956 C 1165.32 -0.493866 3.09079 0
M  V30 11957 C 1165.79 -0.486606 4.55408 0
M  V30 11958 N 1167.29 -0.547363 4.59955 0
M  V30 11959 C 1168.02 -0.563582 5.70624 0
M  V30 11960 N 1167.52 -0.536015 6.90723 0
M  V30 11961 N 1169.31 -0.608385 5.58798 0
M  V30 11962 H 1161.46 0.792869 1.97047 0
M  V30 11963 H 1163.72 0.295106 0.900898 0
M  V30 11964 H 1163.43 0.517064 3.47878 0
M  V30 11965 H 1163.3 -1.23102 3.56547 0
M  V30 11966 H 1165.69 -1.41335 2.59053 0
M  V30 11967 H 1165.77 0.353286 2.53349 0
M  V30 11968 H 1165.42 0.428935 5.06086 0
M  V30 11969 H 1165.35 -1.35097 5.08976 0
M  V30 11970 H 1167.84 -0.573867 3.73517 0
M  V30 11971 H 1168.15 -0.551671 7.70828 0
M  V30 11972 H 1166.49 -0.503064 6.93177 0
M  V30 11973 H 1169.69 -0.627451 4.63876 0
M  V30 11974 H 1169.86 -0.617556 6.45051 0
M  V30 11975 N 1163.26 -1.53291 -0.366026 0
M  V30 11976 C 1164.49 -1.73665 -1.13381 0
M  V30 11977 C 1164.91 -0.464284 -1.8228 0
M  V30 11978 O 1164.27 0.581645 -1.71717 0
M  V30 11979 C 1164.32 -2.90225 -2.14013 0
M  V30 11980 O 1163.42 -2.58803 -3.21084 0
M  V30 11981 H 1162.77 -0.576762 -0.329 0
M  V30 11982 H 1165.3 -2.00174 -0.423287 0
M  V30 11983 H 1165.31 -3.16378 -2.57622 0
M  V30 11984 H 1163.98 -3.82518 -1.63257 0
M  V30 11985 H 1162.56 -2.43466 -2.82451 0
M  V30 11986 N 1164.74 0.6258 -1.44643 0
M  V30 11987 C 1166.02 1.38439 -1.38181 0
M  V30 11988 C 1166.4 2.11056 -0.0431928 0
M  V30 11989 O 1165.75 2.06683 0.974383 0
M  V30 11990 C 1165.96 2.34639 -2.58352 0
M  V30 11991 C 1167.31 2.97807 -3.02649 0
M  V30 11992 O 1168.33 2.44963 -2.58595 0
M  V30 11993 O 1167.19 3.93682 -3.79048 0
M  V30 11994 H 1164.28 0.619852 -0.54746 0
M  V30 11995 H 1166.83 0.650409 -1.56741 0
M  V30 11996 H 1165.6 1.80116 -3.47382 0
M  V30 11997 H 1165.22 3.15446 -2.42032 0
M  V30 11998 N 1166.22 1.31629 0.866686 0
M  V30 11999 C 1167.5 1.12136 1.60265 0
M  V30 12000 C 1167.88 -0.322729 2.08618 0
M  V30 12001 O 1167.23 -1.31738 1.86701 0
M  V30 12002 C 1167.44 2.13845 2.7581 0
M  V30 12003 C 1168.78 2.46541 3.45692 0
M  V30 12004 O 1169.81 2.12298 2.86021 0
M  V30 12005 O 1168.67 3.05194 4.53342 0
M  V30 12006 H 1165.76 0.431923 0.705246 0
M  V30 12007 H 1168.31 1.43119 0.911863 0
M  V30 12008 H 1167.08 3.10967 2.37518 0
M  V30 12009 H 1166.7 1.83786 3.52574 0
M  V30 12010 N 1167.7 -1.08142 1.14644 0
M  V30 12011 C 1168.63 -2.14476 0.779437 0
M  V30 12012 C 1169.61 -1.60812 -0.240454 0
M  V30 12013 O 1170.79 -1.88059 -0.128881 0
M  V30 12014 C 1167.92 -3.38333 0.157692 0
M  V30 12015 C 1166.97 -4.10754 1.14819 0
M  V30 12016 S 1167.8 -4.63227 2.68666 0
M  V30 12017 C 1168.96 -5.90367 2.07888 0
M  V30 12018 H 1169.19 -2.45276 1.68009 0
M  V30 12019 H 1166.72 -1.20292 0.967942 0
M  V30 12020 H 1168.68 -4.10038 -0.194607 0
M  V30 12021 H 1167.34 -3.05726 -0.720435 0
M  V30 12022 H 1166.53 -4.99644 0.661226 0
M  V30 12023 H 1166.14 -3.44974 1.44462 0
M  V30 12024 H 1168.43 -6.62107 1.43599 0
M  V30 12025 H 1169.37 -6.43764 2.94913 0
M  V30 12026 H 1169.78 -5.43507 1.52514 0
M  V30 12027 N 1169.18 -0.941978 -1.26351 0
M  V30 12028 C 1170.42 -0.597462 -1.95473 0
M  V30 12029 C 1170.78 0.847851 -1.72266 0
M  V30 12030 O 1171.98 1.30134 -2.35199 0
M  V30 12031 C 1170.25 -0.931342 -3.45052 0
M  V30 12032 S 1171.81 -0.697491 -4.33221 0
M  V30 12033 H 1168.63 -0.22003 -0.676097 0
M  V30 12034 H 1171.23 -1.21346 -1.53282 0
M  V30 12035 H 1169.94 -1.98063 -3.59443 0
M  V30 12036 H 1169.47 -0.305095 -3.92215 0
M  V30 12037 H 1171.48 0.437915 -4.94264 0
M  V30 12038 N 1170.66 1.40747 -0.709091 0
M  V30 12039 C 1171.88 2.05841 -0.253816 0
M  V30 12040 C 1172.31 1.53056 1.09341 0
M  V30 12041 O 1171.66 0.663181 1.68735 0
M  V30 12042 C 1171.71 3.59822 -0.236699 0
M  V30 12043 O 1170.82 4.04876 0.784168 0
M  V30 12044 H 1170.16 0.65295 -0.120631 0
M  V30 12045 H 1172.69 1.80266 -0.967749 0
M  V30 12046 H 1172.7 4.07936 -0.0721616 0
M  V30 12047 H 1171.37 3.97608 -1.21988 0
M  V30 12048 H 1169.95 3.68237 0.587884 0
M  V30 12049 N 1172.13 0.454803 1.50895 0
M  V30 12050 C 1173.07 -0.383826 2.25963 0
M  V30 12051 C 1174.08 -0.971263 1.30653 0
M  V30 12052 O 1175.27 -0.862434 1.56283 0
M  V30 12053 C 1172.37 -1.55069 3.01342 0
M  V30 12054 C 1171.54 -1.07899 4.23883 0
M  V30 12055 C 1170.6 -2.118 4.81692 0
M  V30 12056 O 1169.63 -1.70523 5.43057 0
M  V30 12057 N 1170.83 -3.44459 4.67256 0
M  V30 12058 H 1173.59 0.259646 2.98573 0
M  V30 12059 H 1171.15 0.284661 1.59378 0
M  V30 12060 H 1173.15 -2.24236 3.36898 0
M  V30 12061 H 1171.72 -2.09917 2.31633 0
M  V30 12062 H 1170.94 -0.213773 3.9362 0
M  V30 12063 H 1172.22 -0.741501 5.03368 0
M  V30 12064 H 1171.62 -3.80716 4.18416 0
M  V30 12065 H 1170.18 -4.0947 5.07127 0
M  V30 12066 N 1173.61 -1.56489 0.186789 0
M  V30 12067 C 1174.86 -1.96952 -0.453261 0
M  V30 12068 C 1175.18 -1.07451 -1.62725 0
M  V30 12069 O 1174.45 -0.144046 -1.9537 0
M  V30 12070 H 1173.03 -0.727295 -0.170445 0
M  V30 12071 H 1175.69 -1.92999 0.271584 0
M  V30 12072 H 1174.79 -3.01594 -0.802951 0
M  V30 12073 N 1175.09 0.086862 -1.5736 0
M  V30 12074 C 1176.31 0.806017 -1.91097 0
M  V30 12075 C 1176.74 1.71082 -0.78183 0
M  V30 12076 O 1176.1 1.79335 0.266175 0
M  V30 12077 C 1176.15 1.5884 -3.23732 0
M  V30 12078 O 1175.25 2.69798 -3.11902 0
M  V30 12079 H 1174.59 0.220899 -0.626179 0
M  V30 12080 H 1177.12 0.059619 -2.04513 0
M  V30 12081 H 1177.13 1.97088 -3.5724 0
M  V30 12082 H 1175.81 0.924426 -4.05496 0
M  V30 12083 H 1174.38 2.34519 -2.89923 0
M  V30 12084 N 1176.57 1.53483 0.357892 0
M  V30 12085 C 1177.48 1.83434 1.4625 0
M  V30 12086 C 1178.49 0.723313 1.58254 0
M  V30 12087 O 1179.67 1.01416 1.74002 0
M  V30 12088 C 1176.73 2.0249 2.81423 0
M  V30 12089 C 1175.8 3.26378 2.78883 0
M  V30 12090 C 1175.03 3.44516 4.07608 0
M  V30 12091 O 1175.25 2.66787 5.04163 0
M  V30 12092 O 1174.19 4.37898 4.12952 0
M  V30 12093 H 1178.01 2.77294 1.23861 0
M  V30 12094 H 1175.6 1.38958 0.548722 0
M  V30 12095 H 1177.48 2.16552 3.61501 0
M  V30 12096 H 1176.15 1.11819 3.03773 0
M  V30 12097 H 1175.06 3.17733 1.97475 0
M  V30 12098 H 1176.39 4.16996 2.61486 0
M  V30 12099 N 1178.05 -0.61812 1.44973 0
M  V30 12100 C 1179.29 -1.37343 1.47715 0
M  V30 12101 C 1179.61 -1.95239 0.118784 0
M  V30 12102 O 1180.81 -2.7149 0.0237981 0
M  V30 12103 C 1179.27 -2.48732 2.60116 0
M  V30 12104 C 1178.88 -1.97294 4.02218 0
M  V30 12105 C 1180.62 -3.25831 2.72093 0
M  V30 12106 C 1178.53 -3.06102 5.06019 0
M  V30 12107 H 1177.46 -0.516175 0.549617 0
M  V30 12108 H 1180.11 -0.663617 1.7108 0
M  V30 12109 H 1178.49 -3.2235 2.30014 0
M  V30 12110 H 1179.67 -1.30455 4.41948 0
M  V30 12111 H 1177.98 -1.32972 3.94598 0
M  V30 12112 H 1180.58 -4.06968 3.46815 0
M  V30 12113 H 1180.92 -3.76156 1.7836 0
M  V30 12114 H 1181.45 -2.59309 3.01668 0
M  V30 12115 H 1178.19 -2.60706 6.01426 0
M  V30 12116 H 1177.71 -3.71541 4.70869 0
M  V30 12117 H 1179.39 -3.70662 5.30301 0
M  V30 12118 N 1179.52 -1.32087 -0.859693 0
M  V30 12119 C 1180.93 -1.20107 -1.42938 0
M  V30 12120 C 1181.29 0.188411 -1.95293 0
M  V30 12121 O 1180.41 1.08683 -1.87128 0
M  V30 12122 C 1181.01 -2.17436 -2.59821 0
M  V30 12123 C 1179.56 -2.09359 -3.12803 0
M  V30 12124 C 1178.71 -2.06086 -1.85537 0
M  V30 12125 H 1181.66 -1.43989 -0.667302 0
M  V30 12126 H 1181.68 -1.76996 -3.36828 0
M  V30 12127 H 1181.2 -3.18555 -2.21685 0
M  V30 12128 H 1179.3 -1.1147 -3.55535 0
M  V30 12129 H 1179.41 -2.98947 -3.74389 0
M  V30 12130 H 1177.77 -1.51251 -2.04928 0
M  V30 12131 H 1178.56 -3.08978 -1.49625 0
M  V30 12132 N 1181 1.07532 -1.15215 0
M  V30 12133 C 1181.93 2.1668 -0.870171 0
M  V30 12134 C 1182.91 1.69161 0.178483 0
M  V30 12135 O 1184.1 1.94172 0.0332489 0
M  V30 12136 C 1181.23 3.45464 -0.356666 0
M  V30 12137 C 1180.18 4.06424 -1.34179 0
M  V30 12138 C 1179.51 5.30266 -0.687206 0
M  V30 12139 C 1180.81 4.46666 -2.70715 0
M  V30 12140 H 1182.5 2.40526 -1.7829 0
M  V30 12141 H 1180.05 1.15598 -0.858665 0
M  V30 12142 H 1182 4.21144 -0.146947 0
M  V30 12143 H 1180.72 3.21199 0.591527 0
M  V30 12144 H 1179.38 3.32786 -1.53783 0
M  V30 12145 H 1179.03 5.0229 0.267077 0
M  V30 12146 H 1178.73 5.72009 -1.34462 0
M  V30 12147 H 1180.26 6.08653 -0.487218 0
M  V30 12148 H 1181.67 5.13483 -2.54966 0
M  V30 12149 H 1180.07 4.99355 -3.32813 0
M  V30 12150 H 1181.14 3.58123 -3.26919 0
M  V30 12151 N 1182.48 0.948665 1.2585 0
M  V30 12152 C 1183.76 0.517832 1.88621 0
M  V30 12153 C 1184.14 -1.00477 1.85654 0
M  V30 12154 O 1183.49 -1.868 1.31598 0
M  V30 12155 C 1183.7 1.08768 3.31618 0
M  V30 12156 C 1185.04 1.16089 4.08422 0
M  V30 12157 O 1186.07 1.0388 3.40716 0
M  V30 12158 O 1184.93 1.35172 5.29519 0
M  V30 12159 H 1182.02 0.169916 0.809356 0
M  V30 12160 H 1184.57 1.04171 1.33964 0
M  V30 12161 H 1183.34 2.13109 3.28177 0
M  V30 12162 H 1182.96 0.54669 3.93824 0
M  V30 12163 N 1183.96 -1.40369 0.716545 0
M  V30 12164 C 1185.37 -1.83783 0.328719 0
M  V30 12165 C 1185.72 -1.5991 -1.13681 0
M  V30 12166 O 1184.85 -1.08048 -1.87496 0
M  V30 12167 C 1185.44 -3.33626 0.589848 0
M  V30 12168 C 1184 -3.7553 0.25572 0
M  V30 12169 C 1183.15 -2.63571 0.861733 0
M  V30 12170 H 1186.1 -1.29623 0.915621 0
M  V30 12171 H 1186.12 -3.80225 -0.14459 0
M  V30 12172 H 1185.63 -3.5097 1.65655 0
M  V30 12173 H 1183.73 -3.63781 -0.805883 0
M  V30 12174 H 1183.84 -4.73577 0.725388 0
M  V30 12175 H 1182.21 -2.53047 0.289706 0
M  V30 12176 H 1182.99 -2.83727 1.93272 0
M  V30 12177 N 1185.44 -0.462799 -1.50652 0
M  V30 12178 C 1186.85 -0.00568907 -1.86699 0
M  V30 12179 C 1187.2 1.39641 -1.37822 0
M  V30 12180 O 1186.32 2.03366 -0.739679 0
M  V30 12181 C 1186.92 -0.00354783 -3.388 0
M  V30 12182 C 1185.48 0.398061 -3.74289 0
M  V30 12183 C 1184.62 -0.392574 -2.74507 0
M  V30 12184 H 1187.58 -0.677469 -1.43513 0
M  V30 12185 H 1187.6 0.800456 -3.71985 0
M  V30 12186 H 1187.11 -1.02414 -3.74344 0
M  V30 12187 H 1185.21 1.42331 -3.44344 0
M  V30 12188 H 1185.32 0.105168 -4.78985 0
M  V30 12189 H 1183.69 0.152608 -2.54242 0
M  V30 12190 H 1184.47 -1.41252 -3.12894 0
M  V30 12191 N 1186.91 1.56388 -0.195085 0
M  V30 12192 C 1188.33 1.8398 0.317513 0
M  V30 12193 C 1188.68 1.11575 1.61386 0
M  V30 12194 O 1187.8 0.376557 2.13099 0
M  V30 12195 C 1188.4 3.33749 0.582859 0
M  V30 12196 C 1186.96 3.61752 1.03983 0
M  V30 12197 C 1186.1 2.77159 0.088434 0
M  V30 12198 H 1189.05 1.53072 -0.418871 0
M  V30 12199 H 1189.07 3.52519 1.43216 0
M  V30 12200 H 1188.59 3.86419 -0.360813 0
M  V30 12201 H 1186.69 3.14515 1.99778 0
M  V30 12202 H 1186.8 4.69937 0.932549 0
M  V30 12203 H 1185.16 2.47765 0.590317 0
M  V30 12204 H 1185.95 3.32619 -0.849682 0
M  V30 12205 N 1188.39 -0.0785156 1.57404 0
M  V30 12206 C 1189.62 -0.795871 1.91522 0
M  V30 12207 C 1190.04 -1.70665 0.790892 0
M  V30 12208 O 1189.4 -1.79474 -0.25666 0
M  V30 12209 C 1189.45 -1.57121 3.24569 0
M  V30 12210 O 1188.55 -2.6814 3.13328 0
M  V30 12211 H 1187.89 -0.217575 0.627341 0
M  V30 12212 H 1190.42 -0.0487724 2.04542 0
M  V30 12213 H 1190.43 -1.9519 3.5828 0
M  V30 12214 H 1189.11 -0.902909 4.05981 0
M  V30 12215 H 1187.69 -2.32978 2.91163 0
M  V30 12216 N 1189.87 -1.5367 -0.349747 0
M  V30 12217 C 1190.78 -1.84207 -1.45275 0
M  V30 12218 C 1191.8 -0.731695 -1.57868 0
M  V30 12219 O 1192.97 -1.02337 -1.73462 0
M  V30 12220 C 1190.04 -2.0398 -2.80345 0
M  V30 12221 C 1189.1 -3.27853 -2.77148 0
M  V30 12222 C 1188.33 -3.46673 -4.05775 0
M  V30 12223 O 1188.55 -2.69457 -5.02741 0
M  V30 12224 O 1187.49 -4.40082 -4.10623 0
M  V30 12225 H 1191.31 -2.77947 -1.22389 0
M  V30 12226 H 1188.9 -1.39247 -0.541345 0
M  V30 12227 H 1190.78 -2.18466 -3.60348 0
M  V30 12228 H 1189.46 -1.13429 -3.03176 0
M  V30 12229 H 1188.36 -3.18776 -1.95787 0
M  V30 12230 H 1189.7 -4.18377 -2.59271 0
M  V30 12231 N 1191.35 0.610423 -1.45298 0
M  V30 12232 C 1192.59 1.37154 -1.49388 0
M  V30 12233 C 1192.93 1.93737 -0.134025 0
M  V30 12234 O 1192.2 1.74888 0.851138 0
M  V30 12235 C 1192.49 2.52155 -2.5708 0
M  V30 12236 C 1192.34 2.00786 -4.02498 0
M  V30 12237 C 1193.66 3.54294 -2.61082 0
M  V30 12238 H 1190.78 0.497346 -0.54389 0
M  V30 12239 H 1193.42 0.688358 -1.77092 0
M  V30 12240 H 1191.57 3.10434 -2.33587 0
M  V30 12241 H 1193.24 1.47178 -4.37191 0
M  V30 12242 H 1191.48 1.31809 -4.1329 0
M  V30 12243 H 1192.15 2.83674 -4.73533 0
M  V30 12244 H 1194.63 3.05851 -2.82125 0
M  V30 12245 H 1193.51 4.32254 -3.38301 0
M  V30 12246 H 1193.77 4.09726 -1.66063 0
M  V30 12247 N 1192.83 1.32541 0.852676 0
M  V30 12248 C 1194.08 1.22567 1.60188 0
M  V30 12249 C 1194.39 -0.210594 1.94463 0
M  V30 12250 O 1195.59 -0.432214 2.68038 0
M  V30 12251 C 1194.05 2.14678 2.88862 0
M  V30 12252 C 1193.66 3.63398 2.62004 0
M  V30 12253 C 1195.4 2.13545 3.66877 0
M  V30 12254 C 1193.31 4.47464 3.86691 0
M  V30 12255 H 1192.24 0.455184 0.601102 0
M  V30 12256 H 1194.89 1.57515 0.941347 0
M  V30 12257 H 1193.27 1.72647 3.56383 0
M  V30 12258 H 1194.45 4.13783 2.02782 0
M  V30 12259 H 1192.76 3.66681 1.97316 0
M  V30 12260 H 1195.36 2.73589 4.59405 0
M  V30 12261 H 1195.7 1.12694 4.00756 0
M  V30 12262 H 1196.23 2.53866 3.06263 0
M  V30 12263 H 1192.97 5.49136 3.57952 0
M  V30 12264 H 1192.49 4.01829 4.45302 0
M  V30 12265 H 1194.17 4.60565 4.5441 0
M  V30 12266 N 1194.3 -1.0692 1.15784 0
M  V30 12267 C 1195.72 -1.61069 0.944123 0
M  V30 12268 C 1196.07 -1.8936 -0.513522 0
M  V30 12269 O 1195.19 -1.66232 -1.38549 0
M  V30 12270 C 1195.79 -2.9263 1.70743 0
M  V30 12271 C 1194.35 -3.43505 1.53887 0
M  V30 12272 C 1193.49 -2.17495 1.72021 0
M  V30 12273 H 1196.44 -0.89951 1.30746 0
M  V30 12274 H 1196.46 -3.61757 1.17951 0
M  V30 12275 H 1195.98 -2.72007 2.76828 0
M  V30 12276 H 1194.08 -3.69201 0.502153 0
M  V30 12277 H 1194.19 -4.19254 2.31868 0
M  V30 12278 H 1192.55 -2.27407 1.1471 0
M  V30 12279 H 1193.34 -1.99362 2.79481 0
M  V30 12280 N 1195.78 -0.955326 -1.25345 0
M  V30 12281 C 1197.03 -0.609278 -1.92697 0
M  V30 12282 C 1197.35 0.856535 -1.75181 0
M  V30 12283 O 1196.62 1.61013 -1.11587 0
M  V30 12284 H 1195.2 -0.22235 -0.713141 0
M  V30 12285 H 1197.86 -1.21372 -1.52496 0
M  V30 12286 H 1196.96 -0.839198 -3.00606 0
M  V30 12287 N 1197.26 1.39987 -0.723979 0
M  V30 12288 C 1198.67 1.83606 -0.338461 0
M  V30 12289 C 1199.02 1.6051 1.12831 0
M  V30 12290 O 1198.15 1.09041 1.8692 0
M  V30 12291 C 1198.74 3.33308 -0.607533 0
M  V30 12292 C 1197.3 3.75389 -0.275632 0
M  V30 12293 C 1196.45 2.6311 -0.875699 0
M  V30 12294 H 1199.4 1.29135 -0.922483 0
M  V30 12295 H 1199.42 3.80297 0.124424 0
M  V30 12296 H 1198.93 3.50087 -1.67514 0
M  V30 12297 H 1197.03 3.64203 0.786579 0
M  V30 12298 H 1197.15 4.73185 -0.750492 0
M  V30 12299 H 1195.51 2.5289 -0.303122 0
M  V30 12300 H 1196.29 2.82698 -1.94774 0
M  V30 12301 N 1198.74 0.470782 1.50404 0
M  V30 12302 C 1199.65 -0.328877 2.32283 0
M  V30 12303 C 1200.67 -0.99629 1.42654 0
M  V30 12304 O 1201.84 -0.984331 1.75707 0
M  V30 12305 C 1198.91 -1.39675 3.1732 0
M  V30 12306 C 1197.97 -0.745965 4.22769 0
M  V30 12307 C 1197.2 -1.76295 5.03742 0
M  V30 12308 O 1197.42 -2.98943 4.85788 0
M  V30 12309 O 1196.36 -1.33495 5.86909 0
M  V30 12310 H 1200.18 0.340491 3.01785 0
M  V30 12311 H 1197.77 0.232637 1.47578 0
M  V30 12312 H 1199.65 -2.0153 3.70086 0
M  V30 12313 H 1198.33 -2.04959 2.50546 0
M  V30 12314 H 1197.23 -0.0884647 3.73995 0
M  V30 12315 H 1198.57 -0.136074 4.92012 0
M  V30 12316 N 1200.22 -1.56282 0.203376 0
M  V30 12317 C 1201.63 -1.84146 -0.307752 0
M  V30 12318 C 1201.98 -1.12429 -1.60792 0
M  V30 12319 O 1201.1 -0.387852 -2.12896 0
M  V30 12320 C 1201.7 -3.34053 -0.565152 0
M  V30 12321 C 1200.26 -3.62298 -1.02063 0
M  V30 12322 C 1199.41 -2.77202 -0.0737343 0
M  V30 12323 H 1202.36 -1.52848 0.426983 0
M  V30 12324 H 1202.38 -3.53273 -1.41345 0
M  V30 12325 H 1201.89 -3.86222 0.381301 0
M  V30 12326 H 1199.99 -3.1557 -1.98107 0
M  V30 12327 H 1200.1 -4.70424 -0.907614 0
M  V30 12328 H 1198.47 -2.48074 -0.577169 0
M  V30 12329 H 1199.25 -3.32164 0.86731 0
M  V30 12330 N 1201.7 0.070167 -1.57444 0
M  V30 12331 C 1202.92 0.785703 -1.91941 0
M  V30 12332 C 1203.35 1.70243 -0.799932 0
M  V30 12333 O 1202.7 1.79608 0.247139 0
M  V30 12334 C 1202.75 1.55398 -3.25398 0
M  V30 12335 O 1201.86 2.66475 -3.14746 0
M  V30 12336 H 1201.2 0.214245 -0.628486 0
M  V30 12337 H 1203.73 0.0379243 -2.04565 0
M  V30 12338 H 1203.74 1.93287 -3.5931 0
M  V30 12339 H 1202.41 0.881366 -4.06454 0
M  V30 12340 H 1200.99 2.3143 -2.92394 0
M  V30 12341 N 1203.17 1.53854 0.341593 0
M  V30 12342 C 1204.4 1.75447 1.10604 0
M  V30 12343 C 1204.82 0.493225 1.81518 0
M  V30 12344 O 1204.18 -0.554253 1.7262 0
M  V30 12345 C 1204.23 2.93593 2.09369 0
M  V30 12346 O 1203.33 2.63878 3.16926 0
M  V30 12347 H 1202.67 0.581923 0.319783 0
M  V30 12348 H 1205.2 2.00822 0.391388 0
M  V30 12349 H 1205.21 3.20437 2.52556 0
M  V30 12350 H 1203.89 3.85067 1.57151 0
M  V30 12351 H 1202.47 2.47929 2.78542 0
M  V30 12352 N 1204.65 -0.602709 1.4562 0
M  V30 12353 C 1205.58 -1.72374 1.5751 0
M  V30 12354 C 1206.56 -1.64669 0.426389 0
M  V30 12355 O 1207.75 -1.82994 0.650143 0
M  V30 12356 C 1204.88 -3.10987 1.5461 0
M  V30 12357 C 1203.83 -3.33507 2.68248 0
M  V30 12358 C 1203.16 -4.72443 2.50403 0
M  V30 12359 C 1204.46 -3.23285 4.10224 0
M  V30 12360 H 1206.15 -1.62679 2.51348 0
M  V30 12361 H 1203.7 -0.781217 1.20967 0
M  V30 12362 H 1205.65 -3.89214 1.61525 0
M  V30 12363 H 1204.37 -3.21533 0.573049 0
M  V30 12364 H 1203.03 -2.57672 2.60769 0
M  V30 12365 H 1202.68 -4.79729 1.51226 0
M  V30 12366 H 1202.38 -4.88466 3.26611 0
M  V30 12367 H 1203.91 -5.52864 2.59179 0
M  V30 12368 H 1205.32 -3.91381 4.1892 0
M  V30 12369 H 1203.72 -3.50837 4.86861 0
M  V30 12370 H 1204.79 -2.20652 4.31788 0
M  V30 12371 N 1206.13 -1.32992 -0.845635 0
M  V30 12372 C 1207.54 -1.21616 -1.41656 0
M  V30 12373 C 1207.89 0.167687 -1.95482 0
M  V30 12374 O 1207.02 1.06692 -1.8827 0
M  V30 12375 C 1207.61 -2.2018 -2.575 0
M  V30 12376 C 1206.17 -2.12664 -3.10565 0
M  V30 12377 C 1205.32 -2.08042 -1.83341 0
M  V30 12378 H 1208.27 -1.44688 -0.651993 0
M  V30 12379 H 1208.29 -1.80558 -3.34931 0
M  V30 12380 H 1207.8 -3.20888 -2.18294 0
M  V30 12381 H 1205.9 -1.15235 -3.54333 0
M  V30 12382 H 1206.02 -3.02902 -3.71197 0
M  V30 12383 H 1204.38 -1.53416 -2.03312 0
M  V30 12384 H 1205.16 -3.10547 -1.46339 0
M  V30 12385 N 1207.61 1.06304 -1.1635 0
M  V30 12386 C 1208.86 1.78487 -0.939423 0
M  V30 12387 C 1209.17 1.8817 0.533998 0
M  V30 12388 O 1210.38 2.56981 0.875962 0
M  V30 12389 C 1208.83 3.20796 -1.63149 0
M  V30 12390 C 1208.44 3.19281 -3.14267 0
M  V30 12391 C 1210.18 3.97514 -1.48938 0
M  V30 12392 C 1208.09 4.56309 -3.76213 0
M  V30 12393 H 1207.02 0.668973 -0.347837 0
M  V30 12394 H 1209.67 1.19237 -1.3948 0
M  V30 12395 H 1208.05 3.80305 -1.10382 0
M  V30 12396 H 1209.23 2.69356 -3.73877 0
M  V30 12397 H 1207.54 2.56062 -3.28362 0
M  V30 12398 H 1210.14 4.98808 -1.926 0
M  V30 12399 H 1210.48 4.13986 -0.438319 0
M  V30 12400 H 1211.02 3.44528 -1.98861 0
M  V30 12401 H 1207.75 4.45042 -4.81267 0
M  V30 12402 H 1207.27 5.06429 -3.21388 0
M  V30 12403 H 1208.95 5.25266 -3.77762 0
M  V30 12404 N 1209.09 0.96196 1.24836 0
M  V30 12405 C 1210.5 0.660388 1.7463 0
M  V30 12406 C 1210.85 -0.824064 1.78055 0
M  V30 12407 O 1209.97 -1.64485 1.40619 0
M  V30 12408 C 1210.57 1.19205 3.17137 0
M  V30 12409 C 1209.13 0.940493 3.64461 0
M  V30 12410 C 1208.27 1.33076 2.43282 0
M  V30 12411 H 1211.22 1.13794 1.1062 0
M  V30 12412 H 1211.25 0.555595 3.76422 0
M  V30 12413 H 1210.76 2.27247 3.14612 0
M  V30 12414 H 1208.86 -0.124645 3.72391 0
M  V30 12415 H 1208.97 1.5821 4.52224 0
M  V30 12416 H 1207.34 0.749139 2.43434 0
M  V30 12417 H 1208.12 2.42055 2.43442 0
M  V30 12418 N 1210.56 -1.39601 0.731392 0
M  V30 12419 C 1211.51 -2.27907 0.0651931 0
M  V30 12420 C 1212.5 -1.44075 -0.716334 0
M  V30 12421 O 1213.69 -1.6702 -0.585936 0
M  V30 12422 C 1210.82 -3.32763 -0.844023 0
M  V30 12423 C 1209.9 -4.24062 -0.0568388 0
M  V30 12424 N 1210.3 -4.96448 0.968146 0
M  V30 12425 C 1208.59 -4.45075 -0.287037 0
M  V30 12426 C 1209.29 -5.6353 1.44252 0
M  V30 12427 N 1208.27 -5.38236 0.761772 0
M  V30 12428 H 1212.07 -2.81324 0.850539 0
M  V30 12429 H 1209.59 -1.5224 0.565396 0
M  V30 12430 H 1211.58 -3.94888 -1.33674 0
M  V30 12431 H 1210.24 -2.80905 -1.62857 0
M  V30 12432 H 1211.25 -5.00011 1.34942 0
M  V30 12433 H 1207.93 -4.04167 -1.04667 0
M  V30 12434 H 1209.32 -6.31487 2.29508 0
M  V30 12435 N 1212.04 -0.478751 -1.50152 0
M  V30 12436 C 1212.97 0.347829 -2.26545 0
M  V30 12437 C 1213.99 0.950354 -1.32182 0
M  V30 12438 O 1215.18 0.837462 -1.57635 0
M  V30 12439 C 1212.28 1.50255 -3.0377 0
M  V30 12440 C 1211.45 1.01142 -4.25546 0
M  V30 12441 C 1210.51 2.0411 -4.85 0
M  V30 12442 O 1209.53 1.61862 -5.45701 0
M  V30 12443 N 1210.74 3.36982 -4.72677 0
M  V30 12444 H 1213.5 -0.307113 -2.98122 0
M  V30 12445 H 1211.06 -0.309981 -1.58905 0
M  V30 12446 H 1213.05 2.18848 -3.40423 0
M  V30 12447 H 1211.62 2.06205 -2.34943 0
M  V30 12448 H 1210.84 0.151124 -3.9391 0
M  V30 12449 H 1212.13 0.661326 -5.04484 0
M  V30 12450 H 1211.53 3.74011 -4.2442 0
M  V30 12451 H 1210.09 4.0135 -5.13577 0
M  V30 12452 N 1213.52 1.56172 -0.211661 0
M  V30 12453 C 1214.43 2.23468 0.714081 0
M  V30 12454 C 1215.45 1.23908 1.22159 0
M  V30 12455 O 1216.62 1.56693 1.26528 0
M  V30 12456 C 1213.69 2.89375 1.90953 0
M  V30 12457 C 1212.75 4.04251 1.44497 0
M  V30 12458 C 1211.98 4.67006 2.58343 0
M  V30 12459 O 1212.2 4.28721 3.76237 0
M  V30 12460 O 1211.14 5.56177 2.3011 0
M  V30 12461 H 1214.96 3.03219 0.170862 0
M  V30 12462 H 1212.55 1.49389 0.0183607 0
M  V30 12463 H 1214.43 3.3101 2.60787 0
M  V30 12464 H 1213.11 2.12591 2.44104 0
M  V30 12465 H 1212.01 3.67205 0.714932 0
M  V30 12466 H 1213.35 4.82748 0.959947 0
M  V30 12467 N 1215 -0.0618163 1.57479 0
M  V30 12468 C 1215.93 -1.07252 2.07411 0
M  V30 12469 C 1216.91 -1.39756 0.969649 0
M  V30 12470 O 1218.09 -1.4921 1.24298 0
M  V30 12471 C 1215.22 -2.38313 2.52635 0
M  V30 12472 C 1214.18 -2.20136 3.67048 0
M  V30 12473 C 1213.5 -3.56668 3.98361 0
M  V30 12474 C 1214.8 -1.61437 4.96725 0
M  V30 12475 H 1216.5 -0.656983 2.92103 0
M  V30 12476 H 1214.04 -0.314579 1.40522 0
M  V30 12477 H 1216 -3.09319 2.86181 0
M  V30 12478 H 1214.72 -2.81865 1.64984 0
M  V30 12479 H 1213.38 -1.51569 3.338 0
M  V30 12480 H 1213.03 -3.97809 3.07826 0
M  V30 12481 H 1212.73 -3.45342 4.75408 0
M  V30 12482 H 1214.25 -4.2909 4.34413 0
M  V30 12483 H 1215.67 -2.2232 5.28438 0
M  V30 12484 H 1214.06 -1.60779 5.78161 0
M  V30 12485 H 1215.13 -0.576795 4.81457 0
M  V30 12486 N 1216.48 -1.54033 -0.333429 0
M  V30 12487 C 1217.41 -1.85719 -1.4153 0
M  V30 12488 C 1218.39 -0.713144 -1.54429 0
M  V30 12489 O 1219.57 -0.965984 -1.68471 0
M  V30 12490 C 1216.7 -2.07578 -2.78439 0
M  V30 12491 C 1215.66 -3.23411 -2.80338 0
M  V30 12492 C 1214.98 -3.30622 -4.2023 0
M  V30 12493 C 1216.28 -4.6129 -2.44968 0
M  V30 12494 H 1217.98 -2.76325 -1.15261 0
M  V30 12495 H 1215.52 -1.32957 -0.55303 0
M  V30 12496 H 1217.48 -2.28329 -3.5418 0
M  V30 12497 H 1216.2 -1.13713 -3.06165 0
M  V30 12498 H 1214.86 -3.02531 -2.07052 0
M  V30 12499 H 1214.51 -2.34333 -4.45081 0
M  V30 12500 H 1214.21 -4.08466 -4.22409 0
M  V30 12501 H 1215.73 -3.53596 -4.97798 0
M  V30 12502 H 1217.14 -4.81987 -3.10421 0
M  V30 12503 H 1215.54 -5.41611 -2.58414 0
M  V30 12504 H 1216.61 -4.6421 -1.40134 0
M  V30 12505 N 1217.95 0.594978 -1.45938 0
M  V30 12506 C 1219.37 0.917069 -1.30622 0
M  V30 12507 C 1219.57 1.99702 -0.268554 0
M  V30 12508 O 1218.63 2.50293 0.333146 0
M  V30 12509 C 1219.94 1.34604 -2.68891 0
M  V30 12510 C 1221.49 1.45957 -2.76886 0
M  V30 12511 C 1221.96 1.92225 -4.15708 0
M  V30 12512 N 1223.45 1.99439 -4.18065 0
M  V30 12513 C 1224.19 2.36488 -5.22361 0
M  V30 12514 N 1223.68 2.72416 -6.36994 0
M  V30 12515 N 1225.48 2.36936 -5.09723 0
M  V30 12516 H 1217.63 -0.118625 -2.12068 0
M  V30 12517 H 1219.89 0.00959453 -0.947951 0
M  V30 12518 H 1219.6 0.626605 -3.46073 0
M  V30 12519 H 1219.47 2.31006 -2.98188 0
M  V30 12520 H 1221.86 2.16989 -1.99999 0
M  V30 12521 H 1221.94 0.47838 -2.51287 0
M  V30 12522 H 1221.58 1.21775 -4.93085 0
M  V30 12523 H 1221.51 2.9128 -4.38707 0
M  V30 12524 H 1224 1.74212 -3.35349 0
M  V30 12525 H 1224.32 2.99604 -7.1236 0
M  V30 12526 H 1222.66 2.70083 -6.40375 0
M  V30 12527 H 1225.85 2.08282 -4.19209 0
M  V30 12528 H 1226.03 2.65483 -5.9112 0
M  V30 12529 N 1219.43 1.33438 0.838571 0
M  V30 12530 C 1220.34 1.25753 1.98049 0
M  V30 12531 C 1221.36 0.168051 1.73187 0
M  V30 12532 O 1222.53 0.391691 1.97554 0
M  V30 12533 C 1219.6 0.997148 3.32051 0
M  V30 12534 C 1218.66 2.17667 3.70027 0
M  V30 12535 C 1217.89 1.92861 4.97635 0
M  V30 12536 O 1218.12 0.879072 5.63585 0
M  V30 12537 O 1217.05 2.79402 5.33121 0
M  V30 12538 H 1220.88 2.21786 2.07472 0
M  V30 12539 H 1218.46 1.13488 0.971645 0
M  V30 12540 H 1220.34 0.869099 4.1234 0
M  V30 12541 H 1219.02 0.0671036 3.2363 0
M  V30 12542 H 1217.93 2.36025 2.90246 0
M  V30 12543 H 1219.26 3.09006 3.83114 0
M  V30 12544 N 1220.91 -1.05686 1.16912 0
M  V30 12545 C 1222.33 -1.30744 0.915327 0
M  V30 12546 C 1222.53 -1.96895 -0.428344 0
M  V30 12547 O 1221.58 -2.23941 -1.16647 0
M  V30 12548 C 1222.9 -2.18209 2.06894 0
M  V30 12549 C 1224.44 -2.31607 2.1054 0
M  V30 12550 C 1224.92 -3.2243 3.25273 0
M  V30 12551 N 1226.41 -3.30015 3.2503 0
M  V30 12552 C 1227.14 -4.00401 4.10447 0
M  V30 12553 N 1226.64 -4.73256 5.05965 0
M  V30 12554 N 1228.43 -3.96514 3.98413 0
M  V30 12555 H 1220.58 -0.611449 2.03409 0
M  V30 12556 H 1222.85 -0.332188 0.887894 0
M  V30 12557 H 1222.55 -1.76887 3.0398 0
M  V30 12558 H 1222.43 -3.18823 2.01573 0
M  V30 12559 H 1224.81 -2.72173 1.14044 0
M  V30 12560 H 1224.9 -1.30639 2.19925 0
M  V30 12561 H 1224.54 -2.82579 4.22032 0
M  V30 12562 H 1224.47 -4.23392 3.13125 0
M  V30 12563 H 1226.96 -2.781 2.55869 0
M  V30 12564 H 1227.27 -5.24509 5.67547 0
M  V30 12565 H 1225.62 -4.72215 5.09939 0
M  V30 12566 H 1228.81 -3.38719 3.2309 0
M  V30 12567 H 1228.98 -4.511 4.65202 0
M  V30 12568 N 1222.39 -0.968567 -1.24324 0
M  V30 12569 C 1223.64 -0.629682 -1.9204 0
M  V30 12570 C 1223.96 0.837906 -1.7608 0
M  V30 12571 O 1223.23 1.5982 -1.13289 0
M  V30 12572 H 1221.81 -0.229901 -0.710742 0
M  V30 12573 H 1224.47 -1.22982 -1.512 0
M  V30 12574 H 1223.57 -0.871034 -2.99699 0
M  V30 12575 N 1223.87 1.39211 -0.738786 0
M  V30 12576 C 1225.28 1.83237 -0.357916 0
M  V30 12577 C 1225.63 1.61698 1.11123 0
M  V30 12578 O 1224.75 1.11017 1.85753 0
M  V30 12579 C 1225.35 3.32645 -0.64285 0
M  V30 12580 C 1223.91 3.75076 -0.315432 0
M  V30 12581 C 1223.05 2.62166 -0.903556 0
M  V30 12582 H 1226.01 1.2815 -0.936127 0
M  V30 12583 H 1226.03 3.80407 0.0840812 0
M  V30 12584 H 1225.54 3.4829 -1.71218 0
M  V30 12585 H 1223.64 3.65017 0.747907 0
M  V30 12586 H 1223.75 4.72363 -0.800638 0
M  V30 12587 H 1222.12 2.52554 -0.329927 0
M  V30 12588 H 1222.9 2.80616 -1.97761 0
M  V30 12589 N 1225.34 0.486708 1.49896 0
M  V30 12590 C 1226.76 0.0353906 1.86666 0
M  V30 12591 C 1227.11 -1.3743 1.40026 0
M  V30 12592 O 1226.23 -2.02163 0.77194 0
M  V30 12593 C 1226.83 0.0574475 3.38751 0
M  V30 12594 C 1225.39 -0.338464 3.74875 0
M  V30 12595 C 1224.53 0.436196 2.73848 0
M  V30 12596 H 1227.48 0.700215 1.42417 0
M  V30 12597 H 1227.5 -0.741175 3.73212 0
M  V30 12598 H 1227.02 1.08356 3.72667 0
M  V30 12599 H 1225.12 -1.36835 3.46565 0
M  V30 12600 H 1225.23 -0.0289519 4.79091 0
M  V30 12601 H 1223.59 -0.112141 2.54453 0
M  V30 12602 H 1224.38 1.46212 3.10608 0
M  V30 12603 N 1226.82 -1.56058 0.219941 0
M  V30 12604 C 1227.77 -2.21585 -0.707321 0
M  V30 12605 C 1228.77 -1.19473 -1.20094 0
M  V30 12606 O 1229.97 -1.37557 -1.16095 0
M  V30 12607 H 1226.35 -0.710447 -0.246515 0
M  V30 12608 H 1228.32 -2.98111 -0.131214 0
M  V30 12609 C 1227.07 -2.90841 -1.90544 0
M  V30 12610 H 1226.39 -3.6917 -1.53472 0
M  V30 12611 H 1227.83 -3.40092 -2.53206 0
M  V30 12612 C 1226.29 -1.93223 -2.75983 0
M  V30 12613 O 1226.82 -1.44815 -3.74689 0
M  V30 12614 N 1225.02 -1.60907 -2.41986 0
M  V30 12615 H 1224.57 -2.00467 -1.61774 0
M  V30 12616 H 1224.53 -0.958534 -2.99432 0
M  V30 12617 N 1228.3 0.053464 -1.57509 0
M  V30 12618 C 1229.53 0.765301 -1.92764 0
M  V30 12619 C 1229.95 1.69385 -0.817943 0
M  V30 12620 O 1229.31 1.7986 0.228075 0
M  V30 12621 C 1229.36 1.51938 -3.27028 0
M  V30 12622 O 1228.46 2.63121 -3.17555 0
M  V30 12623 H 1227.8 0.207567 -0.630723 0
M  V30 12624 H 1230.33 0.0162254 -2.04594 0
M  V30 12625 H 1230.34 1.89466 -3.6134 0
M  V30 12626 H 1229.02 0.838207 -4.07366 0
M  V30 12627 H 1227.59 2.28316 -2.94832 0
M  V30 12628 N 1229.78 1.54207 0.325255 0
M  V30 12629 C 1230.69 1.86495 1.42326 0
M  V30 12630 C 1231.71 0.756718 1.56684 0
M  V30 12631 O 1232.88 1.05084 1.71812 0
M  V30 12632 C 1229.95 2.08414 2.77064 0
M  V30 12633 C 1229.01 3.32221 2.71897 0
M  V30 12634 C 1228.24 3.53085 4.00209 0
M  V30 12635 O 1228.46 2.77421 4.98391 0
M  V30 12636 O 1227.4 4.46559 4.0357 0
M  V30 12637 H 1231.22 2.79859 1.17951 0
M  V30 12638 H 1228.81 1.40091 0.519124 0
M  V30 12639 H 1230.69 2.24171 3.56827 0
M  V30 12640 H 1229.37 1.18238 3.01333 0
M  V30 12641 H 1228.27 3.21851 1.90691 0
M  V30 12642 H 1229.61 4.22449 2.52582 0
M  V30 12643 N 1231.26 -0.58723 1.46251 0
M  V30 12644 C 1232.53 -1.34727 1.41802 0
M  V30 12645 C 1232.91 -2.10867 0.0991354 0
M  V30 12646 O 1232.26 -2.09194 -0.919242 0
M  V30 12647 C 1232.47 -2.27706 2.64482 0
M  V30 12648 C 1233.82 -2.89678 3.10438 0
M  V30 12649 O 1234.84 -2.38021 2.64999 0
M  V30 12650 O 1233.7 -3.83493 3.89352 0
M  V30 12651 H 1230.8 -0.605119 0.563702 0
M  V30 12652 H 1233.34 -0.608623 1.5841 0
M  V30 12653 H 1232.12 -1.70842 3.52035 0
M  V30 12654 H 1231.74 -3.08918 2.50311 0
M  V30 12655 N 1232.74 -1.33881 -0.831482 0
M  V30 12656 C 1233.96 -1.28961 -1.62431 0
M  V30 12657 C 1234.39 0.135249 -1.87613 0
M  V30 12658 O 1233.74 1.09426 -1.44553 0
M  V30 12659 C 1233.79 -2.07767 -2.94729 0
M  V30 12660 O 1232.9 -1.44133 -3.86393 0
M  V30 12661 H 1232.24 -0.443313 -0.494337 0
M  V30 12662 H 1234.77 -1.76555 -1.0339 0
M  V30 12663 H 1234.78 -2.18806 -3.44366 0
M  V30 12664 H 1233.45 -3.11367 -2.75724 0
M  V30 12665 H 1232.03 -1.41784 -3.44894 0
M  V30 12666 N 1234.21 1.05064 -1.1747 0
M  V30 12667 C 1235.49 1.74999 -0.873776 0
M  V30 12668 C 1235.87 2.01615 0.625676 0
M  V30 12669 O 1235.22 1.65324 1.57734 0
M  V30 12670 C 1235.43 3.04231 -1.7101 0
M  V30 12671 C 1236.78 3.78157 -1.93087 0
M  V30 12672 O 1237.8 3.14104 -1.6798 0
M  V30 12673 O 1236.66 4.93255 -2.3529 0
M  V30 12674 H 1233.75 0.761042 -0.323641 0
M  V30 12675 H 1236.3 1.1122 -1.28172 0
M  V30 12676 H 1235.07 2.80621 -2.72704 0
M  V30 12677 H 1234.69 3.75746 -1.30002 0
M  V30 12678 N 1235.69 0.975146 1.23809 0
M  V30 12679 C 1236.93 0.649078 1.9382 0
M  V30 12680 C 1237.3 -0.801879 1.74453 0
M  V30 12681 O 1238.5 -1.23853 2.38567 0
M  V30 12682 C 1236.77 1.0225 3.42461 0
M  V30 12683 S 1238.33 0.812107 4.3122 0
M  V30 12684 H 1235.14 0.237878 0.670026 0
M  V30 12685 H 1237.75 1.25368 1.50011 0
M  V30 12686 H 1236.45 2.07523 3.54065 0
M  V30 12687 H 1235.98 0.408976 3.91268 0
M  V30 12688 H 1238 -0.306716 4.95251 0
M  V30 12689 N 1237.17 -1.38817 0.746158 0
M  V30 12690 C 1238.45 -1.94303 0.224841 0
M  V30 12691 C 1238.83 -1.68207 -1.27552 0
M  V30 12692 O 1238.17 -1.01647 -2.04646 0
M  V30 12693 C 1238.38 -3.44306 0.5705 0
M  V30 12694 C 1239.73 -4.21329 0.526015 0
M  V30 12695 O 1240.76 -3.52554 0.508351 0
M  V30 12696 O 1239.62 -5.4392 0.530383 0
M  V30 12697 H 1236.71 -0.825785 0.0448047 0
M  V30 12698 H 1239.26 -1.48253 0.825775 0
M  V30 12699 H 1238.03 -3.56779 1.60701 0
M  V30 12700 H 1237.65 -3.97556 -0.0588271 0
M  V30 12701 N 1238.65 -0.49465 -1.49636 0
M  V30 12702 C 1239.87 0.051305 -2.07337 0
M  V30 12703 C 1240.3 1.30637 -1.35335 0
M  V30 12704 O 1239.66 1.76647 -0.408126 0
M  V30 12705 C 1239.7 0.294425 -3.59396 0
M  V30 12706 O 1238.81 1.3704 -3.88965 0
M  V30 12707 H 1238.15 -0.023408 -0.663587 0
M  V30 12708 H 1240.68 -0.692451 -1.92526 0
M  V30 12709 H 1240.69 0.527854 -4.04571 0
M  V30 12710 H 1239.36 -0.622583 -4.11214 0
M  V30 12711 H 1237.94 1.12242 -3.55607 0
M  V30 12712 N 1240.13 1.55939 -0.228214 0
M  V30 12713 C 1241.35 2.0287 0.406348 0
M  V30 12714 C 1241.77 1.1079 1.52876 0
M  V30 12715 O 1241.13 0.118747 1.82113 0
M  V30 12716 C 1241.18 3.49286 0.931734 0
M  V30 12717 O 1240.9 4.37857 -0.145933 0
M  V30 12718 C 1242.4 4.11893 1.63887 0
M  V30 12719 H 1239.62 0.663696 0.0987358 0
M  V30 12720 H 1242.16 2.01541 -0.346616 0
M  V30 12721 H 1240.32 3.5121 1.63494 0
M  V30 12722 H 1240.73 5.23904 0.250005 0
M  V30 12723 H 1242.21 5.16091 1.95841 0
M  V30 12724 H 1242.68 3.57281 2.55435 0
M  V30 12725 H 1243.29 4.13839 0.980697 0
M  V30 12726 N 1241.6 -0.0451101 1.57535 0
M  V30 12727 C 1242.51 -1.06796 2.08882 0
M  V30 12728 C 1243.53 -1.40682 1.02394 0
M  V30 12729 O 1244.71 -1.50324 1.34033 0
M  V30 12730 C 1241.77 -2.35467 2.54472 0
M  V30 12731 C 1240.83 -2.0831 3.75374 0
M  V30 12732 C 1240.07 -3.30846 4.1878 0
M  V30 12733 O 1240.29 -4.40945 3.61834 0
M  V30 12734 O 1239.22 -3.17488 5.11356 0
M  V30 12735 H 1243.05 -0.661658 2.96405 0
M  V30 12736 H 1240.63 -0.26104 1.47102 0
M  V30 12737 H 1242.52 -3.11143 2.84198 0
M  V30 12738 H 1241.19 -2.75425 1.70068 0
M  V30 12739 H 1240.1 -1.30254 3.50692 0
M  V30 12740 H 1241.43 -1.73218 4.60713 0
M  V30 12741 N 1243.08 -1.54377 -0.317073 0
M  V30 12742 C 1244.01 -1.8721 -1.39552 0
M  V30 12743 C 1244.99 -0.729483 -1.53664 0
M  V30 12744 O 1246.18 -0.983799 -1.67437 0
M  V30 12745 C 1243.31 -2.1052 -2.76222 0
M  V30 12746 C 1242.26 -3.26366 -2.76892 0
M  V30 12747 C 1241.59 -3.35061 -4.16699 0
M  V30 12748 C 1242.89 -4.63862 -2.40061 0
M  V30 12749 H 1244.58 -2.77532 -1.12323 0
M  V30 12750 H 1242.13 -1.33536 -0.538897 0
M  V30 12751 H 1244.08 -2.32073 -3.51739 0
M  V30 12752 H 1242.81 -1.16953 -3.04942 0
M  V30 12753 H 1241.46 -3.0471 -2.03831 0
M  V30 12754 H 1241.11 -2.39041 -4.4257 0
M  V30 12755 H 1240.81 -4.12923 -4.18053 0
M  V30 12756 H 1242.34 -3.58856 -4.94019 0
M  V30 12757 H 1243.75 -4.85252 -3.05292 0
M  V30 12758 H 1242.15 -5.44321 -2.52655 0
M  V30 12759 H 1243.22 -4.6567 -1.35202 0
M  V30 12760 N 1244.56 0.579466 -1.4656 0
M  V30 12761 C 1245.84 1.33973 -1.42515 0
M  V30 12762 C 1246.22 2.10812 -0.110317 0
M  V30 12763 O 1245.57 2.09679 0.908135 0
M  V30 12764 C 1245.78 2.26301 -2.65686 0
M  V30 12765 C 1247.12 2.88027 -3.1197 0
M  V30 12766 O 1248.15 2.36612 -2.66257 0
M  V30 12767 O 1247.01 3.81423 -3.9138 0
M  V30 12768 H 1244.1 0.602121 -0.566903 0
M  V30 12769 H 1246.65 0.600214 -1.58731 0
M  V30 12770 H 1245.42 1.68973 -3.52936 0
M  V30 12771 H 1245.04 3.07586 -2.51945 0
M  V30 12772 N 1246.04 1.3432 0.824371 0
M  V30 12773 C 1246.99 1.2578 1.95658 0
M  V30 12774 C 1247.98 0.156199 1.68678 0
M  V30 12775 O 1249.19 0.321081 1.77113 0
M  V30 12776 H 1245.56 0.390711 0.642533 0
M  V30 12777 H 1247.53 2.21471 1.99983 0
M  V30 12778 C 1246.28 1.02865 3.32136 0
M  V30 12779 H 1245.6 1.86863 3.53443 0
M  V30 12780 H 1247.04 1.00925 4.11813 0
M  V30 12781 C 1245.5 -0.268097 3.35832 0
M  V30 12782 O 1246.03 -1.26995 3.81097 0
M  V30 12783 N 1244.24 -0.300702 2.8904 0
M  V30 12784 H 1243.79 0.51515 2.52396 0
M  V30 12785 H 1243.74 -1.16811 2.91895 0
M  V30 12786 N 1247.52 -1.0444 1.18026 0
M  V30 12787 C 1248.74 -1.81772 0.998684 0
M  V30 12788 C 1249.17 -1.82682 -0.448225 0
M  V30 12789 O 1248.52 -1.24136 -1.32136 0
M  V30 12790 C 1248.57 -3.2542 1.55352 0
M  V30 12791 O 1247.68 -4.05103 0.772351 0
M  V30 12792 H 1247.02 -0.561731 0.354054 0
M  V30 12793 H 1249.55 -1.31557 1.56697 0
M  V30 12794 H 1249.56 -3.76206 1.57903 0
M  V30 12795 H 1248.23 -3.24073 2.60672 0
M  V30 12796 H 1246.81 -3.63798 0.818852 0
M  V30 12797 N 1248.99 -0.981699 -1.2329 0
M  V30 12798 C 1249.94 -0.515432 -2.26817 0
M  V30 12799 C 1250.94 0.428204 -1.63899 0
M  V30 12800 O 1252.14 0.301954 -1.77449 0
M  V30 12801 H 1248.52 -0.148257 -0.737241 0
M  V30 12802 H 1250.49 -1.40027 -2.63505 0
M  V30 12803 C 1249.24 0.165266 -3.47307 0
M  V30 12804 H 1248.56 -0.55176 -3.95974 0
M  V30 12805 H 1250 0.45513 -4.2155 0
M  V30 12806 C 1248.46 1.39693 -3.06574 0
M  V30 12807 O 1248.99 2.49308 -3.14974 0
M  V30 12808 N 1247.2 1.26806 -2.61474 0
M  V30 12809 H 1246.74 0.376161 -2.54839 0
M  V30 12810 H 1246.7 2.09324 -2.34587 0
M  V30 12811 N 1250.47 1.3842 -0.753509 0
M  V30 12812 C 1251.7 2.04929 -0.319174 0
M  V30 12813 C 1252.12 1.56457 1.04416 0
M  V30 12814 O 1251.48 0.716527 1.6654 0
M  V30 12815 C 1251.53 3.58887 -0.351054 0
M  V30 12816 O 1250.63 4.07166 0.654963 0
M  V30 12817 H 1249.97 0.648782 -0.141343 0
M  V30 12818 H 1252.5 1.77096 -1.02461 0
M  V30 12819 H 1252.51 4.075 -0.201907 0
M  V30 12820 H 1251.19 3.93525 -1.34576 0
M  V30 12821 H 1249.77 3.69921 0.470435 0
M  V30 12822 N 1251.95 0.502579 1.49372 0
M  V30 12823 C 1253.2 -0.0414423 2.02758 0
M  V30 12824 C 1253.53 -1.36499 1.38136 0
M  V30 12825 O 1252.8 -1.87487 0.517593 0
M  V30 12826 C 1253.09 -0.192333 3.59586 0
M  V30 12827 C 1252.94 1.15445 4.34733 0
M  V30 12828 C 1254.26 -0.932218 4.30114 0
M  V30 12829 H 1251.38 -0.0135869 0.736875 0
M  V30 12830 H 1254.02 0.654296 1.78379 0
M  V30 12831 H 1252.17 -0.78491 3.80488 0
M  V30 12832 H 1253.84 1.78603 4.25322 0
M  V30 12833 H 1252.09 1.74333 3.97228 0
M  V30 12834 H 1252.76 1.00216 5.42827 0
M  V30 12835 H 1255.23 -0.429632 4.13876 0
M  V30 12836 H 1254.11 -1.00664 5.39591 0
M  V30 12837 H 1254.37 -1.9763 3.95468 0
M  V30 12838 N 1253.43 -1.55816 0.23648 0
M  V30 12839 C 1254.71 -1.90565 -0.440933 0
M  V30 12840 C 1255.09 -1.15585 -1.76645 0
M  V30 12841 O 1254.43 -0.269949 -2.269 0
M  V30 12842 C 1254.64 -3.43462 -0.61925 0
M  V30 12843 C 1255.99 -4.14516 -0.91989 0
M  V30 12844 O 1257.02 -3.49144 -0.705496 0
M  V30 12845 O 1255.87 -5.3013 -1.32759 0
M  V30 12846 H 1252.97 -0.79285 -0.235199 0
M  V30 12847 H 1255.51 -1.67378 0.279774 0
M  V30 12848 H 1254.29 -3.90029 0.315124 0
M  V30 12849 H 1253.91 -3.72478 -1.39089 0
M  V30 12850 N 1254.91 0.036755 -1.57557 0
M  V30 12851 C 1255.87 1.02435 -2.05036 0
M  V30 12852 C 1256.87 1.29506 -0.953146 0
M  V30 12853 O 1258.06 1.24638 -1.217 0
M  V30 12854 C 1255.19 2.3592 -2.46079 0
M  V30 12855 H 1256.38 0.614384 -2.93539 0
M  V30 12856 H 1253.94 0.283396 -1.53709 0
M  V30 12857 H 1254.67 2.8168 -1.60708 0
M  V30 12858 H 1254.46 2.17603 -3.26177 0
M  V30 12859 H 1255.95 3.06839 -2.83266 0
M  V30 12860 N 1256.39 1.54543 0.308881 0
M  V30 12861 C 1257.32 1.87947 1.38557 0
M  V30 12862 C 1258.3 0.737622 1.53275 0
M  V30 12863 O 1259.48 0.992664 1.66913 0
M  V30 12864 C 1256.61 2.11982 2.75102 0
M  V30 12865 C 1255.57 3.2783 2.75158 0
M  V30 12866 C 1254.89 3.37266 4.14917 0
M  V30 12867 C 1256.19 4.65129 2.37598 0
M  V30 12868 H 1257.89 2.78123 1.1085 0
M  V30 12869 H 1255.43 1.3382 0.531808 0
M  V30 12870 H 1257.38 2.33935 3.50503 0
M  V30 12871 H 1256.11 1.18569 3.04317 0
M  V30 12872 H 1254.77 3.05787 2.02212 0
M  V30 12873 H 1254.42 2.41384 4.41296 0
M  V30 12874 H 1254.12 4.15135 4.15857 0
M  V30 12875 H 1255.64 3.61471 4.92109 0
M  V30 12876 H 1257.05 4.86865 3.02714 0
M  V30 12877 H 1255.45 5.45653 2.49765 0
M  V30 12878 H 1256.52 4.6638 1.32731 0
M  V30 12879 N 1257.86 -0.571685 1.46866 0
M  V30 12880 C 1259.28 -0.896172 1.32064 0
M  V30 12881 C 1259.48 -1.9925 0.300291 0
M  V30 12882 O 1258.54 -2.50791 -0.293284 0
M  V30 12883 C 1259.85 -1.3031 2.70998 0
M  V30 12884 C 1261.4 -1.41533 2.79173 0
M  V30 12885 C 1261.87 -1.85587 4.18714 0
M  V30 12886 N 1263.36 -1.92762 4.21185 0
M  V30 12887 C 1264.1 -2.28148 5.26057 0
M  V30 12888 N 1263.59 -2.62248 6.41247 0
M  V30 12889 N 1265.39 -2.28797 5.13428 0
M  V30 12890 H 1257.54 0.152349 2.11853 0
M  V30 12891 H 1259.8 0.00548777 0.947984 0
M  V30 12892 H 1259.51 -0.571469 3.47026 0
M  V30 12893 H 1259.38 -2.26233 3.01826 0
M  V30 12894 H 1261.77 -2.1378 2.03426 0
M  V30 12895 H 1261.85 -0.438342 2.52016 0
M  V30 12896 H 1261.49 -1.13915 4.9496 0
M  V30 12897 H 1261.42 -2.84264 4.43285 0
M  V30 12898 H 1263.91 -1.68854 3.38078 0
M  V30 12899 H 1264.23 -2.88234 7.17036 0
M  V30 12900 H 1262.57 -2.59861 6.44591 0
M  V30 12901 H 1265.76 -2.01587 4.22469 0
M  V30 12902 H 1265.94 -2.56045 5.95269 0
M  V30 12903 N 1259.34 -1.34755 -0.817236 0
M  V30 12904 C 1260.75 -1.24594 -1.39044 0
M  V30 12905 C 1261.1 0.126184 -1.95794 0
M  V30 12906 O 1260.23 1.02675 -1.90491 0
M  V30 12907 C 1260.82 -2.25592 -2.52772 0
M  V30 12908 C 1259.38 -2.19204 -3.05984 0
M  V30 12909 C 1258.53 -2.11884 -1.78886 0
M  V30 12910 H 1261.48 -1.46039 -0.621155 0
M  V30 12911 H 1261.5 -1.87622 -3.31026 0
M  V30 12912 H 1261.01 -3.25447 -2.11438 0
M  V30 12913 H 1259.11 -1.22725 -3.51809 0
M  V30 12914 H 1259.23 -3.10707 -3.64689 0
M  V30 12915 H 1257.59 -1.57694 -2.00012 0
M  V30 12916 H 1258.37 -3.13582 -1.39719 0
M  V30 12917 N 1260.82 1.03812 -1.18578 0
M  V30 12918 C 1262.23 1.58509 -0.986496 0
M  V30 12919 C 1262.58 1.90655 0.463136 0
M  V30 12920 O 1261.71 1.69847 1.34093 0
M  V30 12921 C 1262.3 2.88 -1.78441 0
M  V30 12922 C 1260.86 3.39304 -1.6294 0
M  V30 12923 C 1260.01 2.12857 -1.77727 0
M  V30 12924 H 1262.96 0.864528 -1.33085 0
M  V30 12925 H 1262.98 3.58502 -1.27501 0
M  V30 12926 H 1262.49 2.64572 -2.83942 0
M  V30 12927 H 1260.59 3.6774 -0.599864 0
M  V30 12928 H 1260.71 4.12959 -2.42902 0
M  V30 12929 H 1259.07 2.24285 -1.20699 0
M  V30 12930 H 1259.85 1.91882 -2.84669 0
M  V30 12931 N 1262.3 0.988223 1.22768 0
M  V30 12932 C 1263.26 0.539813 2.22752 0
M  V30 12933 C 1264.26 -0.374796 1.56371 0
M  V30 12934 O 1265.45 -0.167402 1.73394 0
M  V30 12935 C 1262.58 -0.215461 3.40218 0
M  V30 12936 H 1263.78 1.42397 2.63938 0
M  V30 12937 H 1261.33 0.774933 1.35737 0
M  V30 12938 H 1262.06 -1.11581 3.045 0
M  V30 12939 H 1261.85 0.441173 3.8961 0
M  V30 12940 H 1263.34 -0.517517 4.14381 0
M  V30 12941 N 1263.78 -1.38018 0.760839 0
M  V30 12942 C 1265 -2.04757 0.330038 0
M  V30 12943 C 1265.43 -1.57009 -1.03585 0
M  V30 12944 O 1264.78 -0.725349 -1.66158 0
M  V30 12945 C 1264.83 -3.58696 0.370082 0
M  V30 12946 O 1263.94 -4.07507 -0.633361 0
M  V30 12947 H 1263.28 -0.648023 0.144782 0
M  V30 12948 H 1265.81 -1.7655 1.03399 0
M  V30 12949 H 1265.82 -4.07387 0.223515 0
M  V30 12950 H 1264.49 -3.92806 1.36661 0
M  V30 12951 H 1263.07 -3.70165 -0.45081 0
M  V30 12952 N 1265.25 -0.510493 -1.49103 0
M  V30 12953 C 1266.18 0.251999 -2.32136 0
M  V30 12954 C 1267.16 0.953613 -1.40855 0
M  V30 12955 O 1268.35 0.943178 -1.69758 0
M  V30 12956 C 1265.48 1.31118 -3.21598 0
M  V30 12957 C 1264.43 0.72888 -4.21748 0
M  V30 12958 C 1263.76 1.88928 -5.0021 0
M  V30 12959 C 1265.06 -0.286425 -5.21514 0
M  V30 12960 H 1266.75 -0.441102 -2.96133 0
M  V30 12961 H 1264.3 -0.213577 -1.42407 0
M  V30 12962 H 1266.25 1.8524 -3.78503 0
M  V30 12963 H 1264.98 2.0336 -2.55563 0
M  V30 12964 H 1263.64 0.209336 -3.66002 0
M  V30 12965 H 1263.28 2.59961 -4.30615 0
M  V30 12966 H 1262.98 1.50568 -5.67981 0
M  V30 12967 H 1264.51 2.43465 -5.59962 0
M  V30 12968 H 1265.92 0.166997 -5.73057 0
M  V30 12969 H 1264.32 -0.586361 -5.97228 0
M  V30 12970 H 1265.39 -1.19904 -4.69842 0
M  V30 12971 N 1266.73 1.55688 -0.24474 0
M  V30 12972 C 1268.14 1.84897 0.25882 0
M  V30 12973 C 1268.49 1.16653 1.57755 0
M  V30 12974 O 1267.62 0.444162 2.11793 0
M  V30 12975 C 1268.21 3.35434 0.476385 0
M  V30 12976 C 1266.77 3.64877 0.924213 0
M  V30 12977 C 1265.92 2.773 0.00021322 0
M  V30 12978 H 1268.87 1.51662 -0.467358 0
M  V30 12979 H 1268.89 3.56896 1.31929 0
M  V30 12980 H 1268.4 3.85076 -0.483567 0
M  V30 12981 H 1266.5 3.20711 1.89671 0
M  V30 12982 H 1266.62 4.72665 0.78257 0
M  V30 12983 H 1264.98 2.49517 0.511194 0
M  V30 12984 H 1265.76 3.29747 -0.955072 0
M  V30 12985 N 1268.21 -0.0283989 1.57574 0
M  V30 12986 C 1269.62 -0.574912 1.77628 0
M  V30 12987 C 1269.97 -1.75563 0.875903 0
M  V30 12988 O 1269.1 -2.16284 0.0709141 0
M  V30 12989 C 1269.69 -1.04972 3.22128 0
M  V30 12990 C 1268.25 -1.54175 3.43376 0
M  V30 12991 C 1267.4 -0.480127 2.73112 0
M  V30 12992 H 1270.35 0.197826 1.57462 0
M  V30 12993 H 1270.37 -1.91705 3.28678 0
M  V30 12994 H 1269.88 -0.190173 3.87634 0
M  V30 12995 H 1267.98 -2.42313 2.83046 0
M  V30 12996 H 1268.1 -1.58879 4.51989 0
M  V30 12997 H 1266.46 -0.935314 2.36905 0
M  V30 12998 H 1267.24 0.369973 3.41301 0
M  V30 12999 O 1269.73 -1.6059 -0.17123 0
M  V30 13000 H 1270.42 -1.76049 -0.807874 0
M  V30 END ATOM
M  V30 BEGIN BOND
M  V30 END BOND
M  V30 END CTAB
M  END
$$$$
