drugbank_target|P27828 UDP-N-acetylglucosamine 2-epimerase (DB02196; DB03435)
 OpenBabel12092119543D

  0  0  0     0  0            999 V3000
M  V30 BEGIN CTAB
M  V30 COUNTS 5968 6031 0 0 0
M  V30 BEGIN ATOM
M  V30 1 H -0.908 1.98254 -0.117106 0
M  V30 2 N 0 1.576 0 0
M  V30 3 C 0.933 2.03868 1.02534 0
M  V30 4 C 1.911 0.928543 1.3348 0
M  V30 5 O 3.095 1.19667 1.45644 0
M  V30 6 C 0.222 2.43627 2.35294 0
M  V30 7 C -0.732 3.65373 2.2001 0
M  V30 8 S 0.101 5.13292 1.52614 0
M  V30 9 C 1.257 5.56322 2.86805 0
M  V30 10 H 1.49 2.90518 0.631377 0
M  V30 11 H -0.977 1.52953 0.210867 0
M  V30 12 H 0.981 2.67203 3.11629 0
M  V30 13 H -0.358 1.57376 2.7183 0
M  V30 14 H -1.165 3.90944 3.18086 0
M  V30 15 H -1.563 3.418 1.51819 0
M  V30 16 H 0.729 5.58782 3.83104 0
M  V30 17 H 1.672 6.56266 2.65933 0
M  V30 18 H 2.08 4.83886 2.90714 0
M  V30 19 N 1.4781 -0.272755 1.55222 0
M  V30 20 C 2.4251 -1.33716 1.88119 0
M  V30 21 C 3.3951 -1.49066 0.73271 0
M  V30 22 O 4.5801 -1.63469 0.984002 0
M  V30 23 C 1.7201 -2.69238 2.15882 0
M  V30 24 C 0.8331 -2.62108 3.43399 0
M  V30 25 C -0.0319 -3.89811 3.60861 0
M  V30 26 C -0.9929 -3.77193 4.8207 0
M  V30 27 N -1.8559 -4.9673 4.96189 0
M  V30 28 H 2.9841 -1.04962 2.78903 0
M  V30 29 H 0.5211 -0.507088 1.38083 0
M  V30 30 H 2.4791 -3.48089 2.29978 0
M  V30 31 H 1.1091 -2.96194 1.28331 0
M  V30 32 H 0.1611 -1.74967 3.37773 0
M  V30 33 H 1.4731 -2.48685 4.32386 0
M  V30 34 H 0.6271 -4.77103 3.74777 0
M  V30 35 H -0.6339 -4.06102 2.7006 0
M  V30 36 H -1.6289 -2.88284 4.68159 0
M  V30 37 H -0.4039 -3.62421 5.74307 0
M  V30 38 H -2.4579 -5.13431 4.08319 0
M  V30 39 H -2.5409 -4.85839 5.79221 0
M  V30 40 H -1.2729 -5.85594 5.1449 0
M  V30 41 N 2.9562 -1.48159 -0.537278 0
M  V30 42 C 4.2022 -1.56035 -1.29541 0
M  V30 43 C 4.5352 -0.230377 -1.92829 0
M  V30 44 O 3.8102 0.762952 -1.78911 0
M  V30 45 C 4.0932 -2.69323 -2.39034 0
M  V30 46 C 3.9462 -4.12002 -1.80485 0
M  V30 47 C 5.2652 -2.78408 -3.40847 0
M  V30 48 H 2.3842 -0.567992 -0.469632 0
M  V30 49 H 5.0262 -1.80302 -0.599277 0
M  V30 50 H 3.1762 -2.48763 -2.98412 0
M  V30 51 H 4.8482 -4.43981 -1.25215 0
M  V30 52 H 3.0912 -4.19344 -1.11055 0
M  V30 53 H 3.7622 -4.87077 -2.59731 0
M  V30 54 H 6.2382 -2.97012 -2.91416 0
M  V30 55 H 5.1142 -3.59416 -4.14863 0
M  V30 56 H 5.3752 -1.86269 -4.00944 0
M  V30 57 N 4.4343 0.785586 -1.36625 0
M  V30 58 C 5.3643 1.91259 -1.33949 0
M  V30 59 C 6.3453 1.68795 -0.210325 0
M  V30 60 O 7.5303 1.89854 -0.408561 0
M  V30 61 C 4.6603 3.28339 -1.13186 0
M  V30 62 C 3.6143 3.65335 -2.22967 0
M  V30 63 C 2.9403 5.00806 -1.87342 0
M  V30 64 C 4.2403 3.7352 -3.65075 0
M  V30 65 H 5.9343 1.93755 -2.28253 0
M  V30 66 H 3.4803 0.930788 -1.09874 0
M  V30 67 H 5.4333 4.06804 -1.09948 0
M  V30 68 H 4.1573 3.2624 -0.153332 0
M  V30 69 H 2.8163 2.89169 -2.25337 0
M  V30 70 H 2.4643 4.95233 -0.880545 0
M  V30 71 H 2.1643 5.26529 -2.60846 0
M  V30 72 H 3.6883 5.81687 -1.85667 0
M  V30 73 H 5.1023 4.42168 -3.64911 0
M  V30 74 H 3.4993 4.10731 -4.37516 0
M  V30 75 H 4.5693 2.74527 -3.99703 0
M  V30 76 N 5.9124 1.20967 1.01018 0
M  V30 77 C 7.1404 1.04956 1.78303 0
M  V30 78 C 7.5554 -0.400915 1.84494 0
M  V30 79 O 6.9124 -1.27826 1.30257 0
M  V30 80 C 6.9634 1.63403 3.22462 0
M  V30 81 O 6.6844 3.02775 3.16637 0
M  V30 82 C 8.1854 1.52432 4.16268 0
M  V30 83 H 5.4054 0.368858 0.560522 0
M  V30 84 H 7.9494 1.60193 1.27116 0
M  V30 85 H 6.1044 1.1227 3.70775 0
M  V30 86 H 6.5184 3.30626 4.07169 0
M  V30 87 H 7.9924 1.98078 5.15237 0
M  V30 88 H 8.4694 0.477875 4.36592 0
M  V30 89 H 9.0754 2.02787 3.73841 0
M  V30 90 N 7.3905 -1.2043 1.01659 0
M  V30 91 C 8.6365 -1.90079 0.706963 0
M  V30 92 C 8.9695 -1.78648 -0.761474 0
M  V30 93 O 8.2445 -1.17069 -1.55323 0
M  V30 94 C 8.5275 -3.41469 1.14327 0
M  V30 95 C 8.3805 -3.61833 2.67201 0
M  V30 96 C 9.6995 -4.34261 0.714529 0
M  V30 97 H 6.8185 -0.690254 0.2583 0
M  V30 98 H 9.4605 -1.41826 1.26433 0
M  V30 99 H 7.6105 -3.82696 0.669056 0
M  V30 100 H 9.2825 -3.2986 3.22475 0
M  V30 101 H 7.5255 -3.05304 3.08175 0
M  V30 102 H 8.1965 -4.67955 2.92783 0
M  V30 103 H 10.6725 -4.00682 1.12221 0
M  V30 104 H 9.5485 -5.38806 1.04784 0
M  V30 105 H 9.8095 -4.40431 -0.383799 0
M  V30 106 N 8.8686 -0.792821 -1.36206 0
M  V30 107 C 10.1156 -0.366786 -1.99151 0
M  V30 108 C 10.4436 1.06243 -1.62919 0
M  V30 109 O 9.6986 1.74927 -0.877442 0
M  V30 110 C 9.9976 -0.481501 -3.54142 0
M  V30 111 C 9.6636 -1.87202 -4.10203 0
M  V30 112 C 8.3256 -2.25248 -4.25226 0
M  V30 113 C 10.6776 -2.78237 -4.40719 0
M  V30 114 C 8.0056 -3.53723 -4.68078 0
M  V30 115 C 10.3576 -4.06144 -4.85005 0
M  V30 116 C 9.0216 -4.44207 -4.98234 0
M  V30 117 H 8.2916 -0.134217 -0.728743 0
M  V30 118 H 10.9386 -1.01094 -1.62641 0
M  V30 119 H 9.2436 0.246146 -3.91026 0
M  V30 120 H 10.9406 -0.132844 -4.0078 0
M  V30 121 H 7.5306 -1.56639 -3.98951 0
M  V30 122 H 11.7146 -2.50097 -4.28679 0
M  V30 123 H 6.9706 -3.8308 -4.76508 0
M  V30 124 H 11.1446 -4.76796 -5.07581 0
M  V30 125 H 8.7716 -5.43814 -5.31197 0
M  V30 126 N 10.3467 1.47872 -0.545128 0
M  V30 127 C 11.5947 2.02093 -0.016553 0
M  V30 128 C 11.9157 1.42305 1.3332 0
M  V30 129 O 11.1857 0.593853 1.86682 0
M  V30 130 H 9.7657 0.746993 -0.00313038 0
M  V30 131 H 12.4277 1.81414 -0.712397 0
M  V30 132 H 11.5237 3.11996 0.0805422 0
M  V30 133 N 11.8248 0.280983 1.55075 0
M  V30 134 C 13.0528 -0.337293 2.04132 0
M  V30 135 C 13.4678 -1.4903 1.15912 0
M  V30 136 O 12.8248 -1.81606 0.180459 0
M  V30 137 C 12.8758 -0.812706 3.52246 0
M  V30 138 O 12.5968 0.294387 4.3711 0
M  V30 139 C 14.0978 -1.4982 4.17216 0
M  V30 140 H 11.3178 -0.0761638 0.666663 0
M  V30 141 H 13.8618 0.414787 2.00249 0
M  V30 142 H 12.0168 -1.51486 3.56554 0
M  V30 143 H 12.4308 -0.0721325 5.2445 0
M  V30 144 H 13.9048 -1.7822 5.22438 0
M  V30 145 H 14.3818 -2.43168 3.65741 0
M  V30 146 H 14.9878 -0.839742 4.16927 0
M  V30 147 N 13.3029 -1.57598 0.00835791 0
M  V30 148 C 14.7189 -1.55764 -0.347822 0
M  V30 149 C 14.9189 -1.01186 -1.74252 0
M  V30 150 O 13.9749 -0.649371 -2.44007 0
M  V30 151 C 15.2879 -2.99927 -0.215407 0
M  V30 152 C 16.8359 -3.11656 -0.289725 0
M  V30 153 C 17.3109 -4.57621 -0.18634 0
M  V30 154 N 18.8019 -4.62557 -0.243978 0
M  V30 155 C 19.5369 -5.73094 -0.18745 0
M  V30 156 N 19.0329 -6.92753 -0.0810331 0
M  V30 157 N 20.8259 -5.61588 -0.239925 0
M  V30 158 H 12.9769 -1.91411 0.92062 0
M  V30 159 H 15.2399 -0.879562 0.353659 0
M  V30 160 H 14.9459 -3.43729 0.744512 0
M  V30 161 H 14.8199 -3.63865 -0.994097 0
M  V30 162 H 17.2069 -2.67779 -1.24009 0
M  V30 163 H 17.2879 -2.5048 0.51898 0
M  V30 164 H 16.9319 -5.02174 0.760519 0
M  V30 165 H 16.8619 -5.16752 -1.01364 0
M  V30 166 H 19.3529 -3.76481 -0.327217 0
M  V30 167 H 19.6659 -7.72787 -0.0440241 0
M  V30 168 H 18.0109 -6.94984 -0.0465419 0
M  V30 169 H 21.2019 -4.66996 -0.321317 0
M  V30 170 H 21.3749 -6.47714 -0.192407 0
M  V30 171 N 14.781 0.264519 -1.55364 0
M  V30 172 C 16.192 0.834936 -1.6699 0
M  V30 173 C 16.543 1.86718 -0.602552 0
M  V30 174 O 15.668 2.14899 0.254425 0
M  V30 175 C 16.263 1.5212 -3.02729 0
M  V30 176 C 14.822 2.03954 -3.16354 0
M  V30 177 C 13.969 0.884498 -2.62815 0
M  V30 178 H 16.92 0.0406869 -1.58648 0
M  V30 179 H 16.941 2.38853 -2.96191 0
M  V30 180 H 16.453 0.769668 -3.80392 0
M  V30 181 H 14.554 2.82041 -2.43482 0
M  V30 182 H 14.667 2.24902 -4.23032 0
M  V30 183 H 13.031 1.2802 -2.20188 0
M  V30 184 H 13.814 0.14634 -3.42988 0
M  V30 185 N 16.2591 1.48442 0.529413 0
M  V30 186 C 17.1691 1.6569 1.66084 0
M  V30 187 C 18.1851 0.539432 1.65427 0
M  V30 188 O 19.3611 0.810572 1.84368 0
M  V30 189 C 16.4261 1.69315 3.02545 0
M  V30 190 C 15.4871 2.92694 3.14052 0
M  V30 191 C 14.7201 2.96137 4.44003 0
M  V30 192 O 14.9431 2.07973 5.31134 0
M  V30 193 O 13.8771 3.88312 4.59888 0
M  V30 194 H 17.7031 2.61483 1.54469 0
M  V30 195 H 15.2881 1.3185 0.702567 0
M  V30 196 H 17.1701 1.74217 3.83701 0
M  V30 197 H 15.8451 0.766966 3.14483 0
M  V30 198 H 14.7521 2.93324 2.32189 0
M  V30 199 H 16.0851 3.84699 3.0703 0
M  V30 200 N 17.7372 -0.778329 1.37039 0
M  V30 201 C 18.7002 -1.87301 1.32102 0
M  V30 202 C 19.7002 -1.59198 0.226405 0
M  V30 203 O 20.8902 -1.67403 0.481861 0
M  V30 204 C 18.0222 -3.24309 1.05055 0
M  V30 205 H 19.2152 -1.93093 2.29467 0
M  V30 206 H 16.7682 -0.977358 1.21973 0
M  V30 207 H 17.5032 -3.24196 0.0819373 0
M  V30 208 H 17.2882 -3.46098 1.84279 0
M  V30 209 H 18.7782 -4.04382 1.04234 0
M  V30 210 N 19.2153 -1.21501 -1.00376 0
M  V30 211 C 20.4643 -1.02718 -1.73586 0
M  V30 212 C 20.7773 0.439589 -1.90596 0
M  V30 213 O 21.9833 0.746848 -2.61026 0
M  V30 214 C 20.4393 -1.78929 -3.1227 0
M  V30 215 C 20.0473 -3.29783 -3.03228 0
M  V30 216 C 21.7913 -1.68557 -3.89601 0
M  V30 217 C 19.6983 -3.98479 -4.36999 0
M  V30 218 H 18.6283 -0.380733 -0.650814 0
M  V30 219 H 21.2793 -1.45248 -1.1214 0
M  V30 220 H 19.6613 -1.29192 -3.74333 0
M  V30 221 H 20.8353 -3.86832 -2.50395 0
M  V30 222 H 19.1503 -3.40711 -2.39385 0
M  V30 223 H 21.7473 -2.17211 -4.88593 0
M  V30 224 H 22.0903 -0.644021 -4.11288 0
M  V30 225 H 22.6233 -2.15778 -3.34193 0
M  V30 226 H 19.3623 -5.02841 -4.20513 0
M  V30 227 H 18.8823 -3.46219 -4.89788 0
M  V30 228 H 20.5613 -4.03462 -5.05794 0
M  V30 229 N 20.6934 1.19889 -1.02296 0
M  V30 230 C 21.6404 2.22901 -0.598651 0
M  V30 231 C 22.6104 1.61588 0.384521 0
M  V30 232 O 23.7954 1.88697 0.282522 0
M  V30 233 C 20.9354 3.45063 0.0504476 0
M  V30 234 C 20.0484 4.20783 -0.978053 0
M  V30 235 C 19.1834 5.30356 -0.299338 0
M  V30 236 C 18.2224 5.97826 -1.31416 0
M  V30 237 N 17.3594 6.98975 -0.661667 0
M  V30 238 H 22.1994 2.58554 -1.48169 0
M  V30 239 H 19.7364 1.27039 -0.741584 0
M  V30 240 H 21.6944 4.14831 0.443971 0
M  V30 241 H 20.3244 3.10084 0.897097 0
M  V30 242 H 19.3764 3.50018 -1.48969 0
M  V30 243 H 20.6884 4.67109 -1.74958 0
M  V30 244 H 19.8424 6.06516 0.149347 0
M  V30 245 H 18.5814 4.85084 0.504445 0
M  V30 246 H 17.5864 5.20422 -1.77317 0
M  V30 247 H 18.8114 6.45183 -2.11933 0
M  V30 248 H 16.7574 6.55886 0.122132 0
M  V30 249 H 16.6744 7.43461 -1.37117 0
M  V30 250 H 17.9424 7.7914 -0.236785 0
M  V30 251 N 22.1715 0.800033 1.35784 0
M  V30 252 C 23.1045 0.151499 2.27697 0
M  V30 253 C 24.0825 -0.678663 1.4776 0
M  V30 254 O 25.2665 -0.647358 1.77035 0
M  V30 255 C 22.3935 -0.790492 3.29346 0
M  V30 256 C 21.4395 -0.0407832 4.26481 0
M  V30 257 S 22.2725 1.29077 5.19711 0
M  V30 258 C 23.4285 0.353055 6.24903 0
M  V30 259 H 23.6615 0.930796 2.82353 0
M  V30 260 H 21.1945 0.594767 1.42485 0
M  V30 261 H 23.1525 -1.3285 3.88409 0
M  V30 262 H 21.8135 -1.54312 2.73581 0
M  V30 263 H 21.0065 -0.755971 4.98298 0
M  V30 264 H 20.6085 0.427063 3.71554 0
M  V30 265 H 22.9005 -0.464147 6.75908 0
M  V30 266 H 23.8435 1.04023 7.00418 0
M  V30 267 H 24.2515 -0.0483344 5.64479 0
M  V30 268 N 23.6496 -1.47581 0.552962 0
M  V30 269 C 24.6126 -2.28439 -0.186605 0
M  V30 270 C 25.6126 -1.36706 -0.84665 0
M  V30 271 O 26.8026 -1.59378 -0.703164 0
M  V30 272 C 23.9346 -3.16264 -1.2724 0
M  V30 273 H 25.1276 -2.95294 0.523609 0
M  V30 274 H 22.6806 -1.532 0.309745 0
M  V30 275 H 23.4156 -2.54091 -2.01514 0
M  V30 276 H 23.2006 -3.83769 -0.803968 0
M  V30 277 H 24.6906 -3.77198 -1.79196 0
M  V30 278 N 25.1277 -0.289203 -1.54924 0
M  V30 279 C 26.5387 0.205791 -1.85562 0
M  V30 280 C 26.8897 1.54351 -1.2112 0
M  V30 281 O 26.0147 2.10435 -0.504601 0
M  V30 282 C 26.6097 0.380177 -3.3666 0
M  V30 283 C 25.1687 0.819395 -3.67373 0
M  V30 284 C 24.3157 -0.079159 -2.77187 0
M  V30 285 H 27.2667 -0.510577 -1.50262 0
M  V30 286 H 27.2877 1.21659 -3.60526 0
M  V30 287 H 26.7997 -0.593589 -3.83534 0
M  V30 288 H 24.9007 1.80413 -3.26009 0
M  V30 289 H 25.0137 0.646957 -4.74712 0
M  V30 290 H 23.3777 0.439565 -2.50878 0
M  V30 291 H 24.1607 -1.04906 -3.26878 0
M  V30 292 N 26.6058 1.57591 -0.0167156 0
M  V30 293 C 27.5358 2.12496 0.967858 0
M  V30 294 C 28.5168 1.03807 1.34752 0
M  V30 295 O 29.7018 1.31577 1.42833 0
M  V30 296 C 26.8318 2.64194 2.25431 0
M  V30 297 C 25.7858 3.77559 2.01576 0
M  V30 298 C 25.1118 4.15636 3.36379 0
M  V30 299 C 26.4118 5.04151 1.36489 0
M  V30 300 H 28.1058 2.95013 0.510643 0
M  V30 301 H 25.6518 1.41915 0.244181 0
M  V30 302 H 27.6048 3.01236 2.94678 0
M  V30 303 H 26.3288 1.78821 2.73296 0
M  V30 304 H 24.9878 3.40937 1.34751 0
M  V30 305 H 24.6358 3.27263 3.81979 0
M  V30 306 H 24.3358 4.92022 3.21229 0
M  V30 307 H 25.8598 4.5525 4.06915 0
M  V30 308 H 27.2738 5.38857 1.95718 0
M  V30 309 H 25.6708 5.85453 1.31776 0
M  V30 310 H 26.7408 4.83733 0.336219 0
M  V30 311 N 28.0839 -0.256276 1.55502 0
M  V30 312 C 29.3299 -0.987079 1.77157 0
M  V30 313 C 29.6629 -1.85327 0.580315 0
M  V30 314 O 28.9379 -1.89874 -0.421686 0
M  V30 315 C 29.2209 -1.85553 3.08613 0
M  V30 316 C 29.0739 -1.01816 4.38125 0
M  V30 317 C 30.3929 -2.8397 3.36228 0
M  V30 318 H 27.5119 -0.357428 0.644526 0
M  V30 319 H 30.1539 -0.258239 1.88237 0
M  V30 320 H 28.3039 -2.47695 2.99298 0
M  V30 321 H 29.9759 -0.416159 4.59419 0
M  V30 322 H 28.2189 -0.322178 4.32602 0
M  V30 323 H 28.8899 -1.65939 5.26468 0
M  V30 324 H 31.3659 -2.31964 3.45445 0
M  V30 325 H 30.2419 -3.41864 4.29442 0
M  V30 326 H 30.5029 -3.59955 2.56681 0
M  V30 327 N 29.562 -1.4872 -0.521534 0
M  V30 328 C 30.512 -1.60269 -1.62166 0
M  V30 329 C 31.496 -0.45935 -1.54204 0
M  V30 330 O 32.688 -0.711241 -1.62081 0
M  V30 331 C 29.817 -1.65344 -3.00859 0
M  V30 332 C 28.903 -2.85187 -3.13894 0
M  V30 333 N 29.294 -4.09509 -2.96877 0
M  V30 334 C 27.592 -2.82695 -3.44963 0
M  V30 335 C 28.293 -4.89959 -3.13552 0
M  V30 336 N 27.269 -4.22934 -3.41508 0
M  V30 337 H 31.071 -2.5413 -1.47632 0
M  V30 338 H 28.585 -1.45209 -0.727194 0
M  V30 339 H 30.582 -1.71713 -3.79895 0
M  V30 340 H 29.242 -0.726058 -3.16478 0
M  V30 341 H 30.253 -4.39814 -2.73467 0
M  V30 342 H 26.93 -1.99249 -3.66887 0
M  V30 343 H 28.32 -5.98654 -3.05061 0
M  V30 344 N 31.0401 0.771051 -1.3745 0
M  V30 345 C 32.0031 1.86598 -1.33093 0
M  V30 346 C 33.0031 1.59076 -0.234845 0
M  V30 347 O 34.1931 1.67145 -0.490732 0
M  V30 348 C 31.3251 3.23747 -1.06773 0
M  V30 349 H 32.5181 1.91873 -2.30488 0
M  V30 350 H 30.0711 0.970876 -1.2249 0
M  V30 351 H 30.8061 3.24148 -0.099129 0
M  V30 352 H 30.5911 3.45115 -1.86112 0
M  V30 353 H 32.0811 4.03824 -1.06377 0
M  V30 354 N 32.5182 1.22032 0.997298 0
M  V30 355 C 33.4482 1.01065 2.10495 0
M  V30 356 C 34.4292 -0.0669542 1.69968 0
M  V30 357 O 35.6142 0.0943987 1.9397 0
M  V30 358 C 32.7442 0.582874 3.42374 0
M  V30 359 C 31.6982 1.60592 3.96729 0
M  V30 360 C 31.0242 1.03412 5.24605 0
M  V30 361 C 32.3242 2.99478 4.27914 0
M  V30 362 H 34.0182 1.93708 2.28292 0
M  V30 363 H 31.5642 0.932761 1.09707 0
M  V30 364 H 33.5172 0.423332 4.19268 0
M  V30 365 H 32.2412 -0.379213 3.24391 0
M  V30 366 H 30.9002 1.75316 3.21963 0
M  V30 367 H 30.5482 0.063518 5.0296 0
M  V30 368 H 30.2482 1.71754 5.61938 0
M  V30 369 H 31.7722 0.886066 6.04137 0
M  V30 370 H 33.1862 2.88153 4.95622 0
M  V30 371 H 31.5832 3.64903 4.76409 0
M  V30 372 H 32.6532 3.49742 3.3587 0
M  V30 373 N 33.9963 -1.19345 1.0293 0
M  V30 374 C 34.9593 -2.20793 0.615069 0
M  V30 375 C 35.9593 -1.57553 -0.321533 0
M  V30 376 O 37.1493 -1.73862 -0.108483 0
M  V30 377 C 34.2813 -3.40754 -0.0999222 0
M  V30 378 H 35.4743 -2.58955 1.51269 0
M  V30 379 H 33.0273 -1.3303 0.820534 0
M  V30 380 H 33.7623 -3.0811 -1.01187 0
M  V30 381 H 33.5473 -3.87889 0.57309 0
M  V30 382 H 35.0373 -4.15898 -0.376645 0
M  V30 383 N 35.4744 -0.807222 -1.35358 0
M  V30 384 C 36.4214 -0.216037 -2.29787 0
M  V30 385 C 37.3914 0.650278 -1.52842 0
M  V30 386 O 38.5764 0.595227 -1.81278 0
M  V30 387 C 35.7164 0.628893 -3.39321 0
M  V30 388 C 34.8294 -0.257927 -4.31229 0
M  V30 389 C 33.9644 0.595069 -5.27856 0
M  V30 390 C 33.0034 -0.292111 -6.11403 0
M  V30 391 N 32.1404 0.520895 -7.00165 0
M  V30 392 H 36.9804 -1.02671 -2.79755 0
M  V30 393 H 34.5174 -0.517839 -1.37684 0
M  V30 394 H 36.4754 1.13393 -4.01494 0
M  V30 395 H 35.1054 1.40482 -2.90628 0
M  V30 396 H 34.1574 -0.881076 -3.70056 0
M  V30 397 H 35.4694 -0.940759 -4.89848 0
M  V30 398 H 34.6234 1.16522 -5.95405 0
M  V30 399 H 33.3624 1.31146 -4.69736 0
M  V30 400 H 32.3674 -0.874525 -5.428 0
M  V30 401 H 33.5924 -1.00638 -6.71602 0
M  V30 402 H 31.5384 1.22125 -6.44532 0
M  V30 403 H 31.4554 -0.103877 -7.55929 0
M  V30 404 H 32.7234 1.0743 -7.72062 0
M  V30 405 N 36.9525 1.47285 -0.560781 0
M  V30 406 C 38.2295 1.9558 0.0277798 0
M  V30 407 C 38.6095 1.5034 1.48192 0
M  V30 408 O 37.9575 0.743882 2.16052 0
M  V30 409 C 38.1675 3.48789 -0.121418 0
M  V30 410 C 39.5155 4.24594 0.0220912 0
M  V30 411 O 40.5395 3.56166 -0.0491439 0
M  V30 412 O 39.3985 5.46217 0.175958 0
M  V30 413 H 36.4925 0.824663 0.0621342 0
M  V30 414 H 39.0385 1.5767 -0.627556 0
M  V30 415 H 37.8105 3.74533 -1.13316 0
M  V30 416 H 37.4335 3.93473 0.571366 0
M  V30 417 N 38.4306 0.297415 1.54768 0
M  V30 418 C 39.8416 -0.195947 1.85669 0
M  V30 419 C 40.1926 -1.53707 1.21937 0
M  V30 420 O 39.3176 -2.10164 0.515754 0
M  V30 421 C 39.9126 -0.362318 3.36857 0
M  V30 422 C 38.4716 -0.799901 3.67802 0
M  V30 423 C 37.6186 0.0938578 2.77141 0
M  V30 424 H 40.5696 0.518538 1.4999 0
M  V30 425 H 40.5906 -1.19745 3.61167 0
M  V30 426 H 40.1026 0.613921 3.83214 0
M  V30 427 H 38.2036 -1.78682 3.26961 0
M  V30 428 H 38.3166 -0.621773 4.75048 0
M  V30 429 H 36.6806 -0.426254 2.51108 0
M  V30 430 H 37.4636 1.06639 3.26318 0
M  V30 431 N 39.9087 -1.5758 0.0250728 0
M  V30 432 C 41.1557 -1.91633 -0.654444 0
M  V30 433 C 41.4837 -0.901103 -1.72367 0
M  V30 434 O 40.7387 0.0905647 -1.9549 0
M  V30 435 C 41.0377 -3.32421 -1.31268 0
M  V30 436 C 40.7037 -4.49344 -0.374223 0
M  V30 437 C 39.3657 -4.8106 -0.115911 0
M  V30 438 C 41.7177 -5.20498 0.270432 0
M  V30 439 C 39.0457 -5.8129 0.79493 0
M  V30 440 C 41.3977 -6.21699 1.1693 0
M  V30 441 C 40.0617 -6.51859 1.43655 0
M  V30 442 H 39.3317 -0.701236 -0.239478 0
M  V30 443 H 41.9787 -1.91307 0.0859734 0
M  V30 444 H 40.2837 -3.28989 -2.12775 0
M  V30 445 H 41.9807 -3.56038 -1.84494 0
M  V30 446 H 38.5707 -4.24579 -0.58573 0
M  V30 447 H 42.7547 -4.96229 0.0839194 0
M  V30 448 H 38.0107 -6.03005 1.00973 0
M  V30 449 H 42.1847 -6.75955 1.67504 0
M  V30 450 H 39.8117 -7.2934 2.144 0
M  V30 451 N 41.3868 0.248026 -1.55636 0
M  V30 452 C 42.6338 0.976224 -1.77415 0
M  V30 453 C 42.9618 1.85361 -0.589193 0
M  V30 454 O 42.2168 1.90973 0.427529 0
M  V30 455 C 42.5158 1.86819 -3.04686 0
M  V30 456 C 42.1818 1.14625 -4.36087 0
M  V30 457 C 40.8438 0.946723 -4.71795 0
M  V30 458 C 43.1958 0.634463 -5.17324 0
M  V30 459 C 40.5238 0.223091 -5.86276 0
M  V30 460 C 42.8758 -0.0756959 -6.32555 0
M  V30 461 C 41.5398 -0.286711 -6.66884 0
M  V30 462 H 40.8098 0.357226 -0.649208 0
M  V30 463 H 43.4568 0.246415 -1.89908 0
M  V30 464 H 41.7618 2.66502 -2.872 0
M  V30 465 H 43.4588 2.43329 -3.18735 0
M  V30 466 H 40.0488 1.3117 -4.08035 0
M  V30 467 H 44.2328 0.77616 -4.90193 0
M  V30 468 H 39.4888 0.0491185 -6.1138 0
M  V30 469 H 43.6628 -0.479899 -6.94745 0
M  V30 470 H 41.2898 -0.849389 -7.5544 0
M  V30 471 N 42.8649 1.48995 0.513639 0
M  V30 472 C 43.7749 1.67443 1.64317 0
M  V30 473 C 44.7909 0.556947 1.64846 0
M  V30 474 O 45.9669 0.830082 1.83498 0
M  V30 475 C 43.0319 1.72515 3.00732 0
M  V30 476 C 42.0929 2.96009 3.1093 0
M  V30 477 C 41.3259 3.00829 4.40837 0
M  V30 478 O 41.5489 2.13594 5.28898 0
M  V30 479 O 40.4829 3.93168 4.55744 0
M  V30 480 H 44.3089 2.63106 1.51687 0
M  V30 481 H 41.8939 1.32588 0.688543 0
M  V30 482 H 43.7759 1.78277 3.81831 0
M  V30 483 H 42.4509 0.800278 3.13651 0
M  V30 484 H 41.3579 2.9577 2.29065 0
M  V30 485 H 42.6909 3.87934 3.02933 0
M  V30 486 N 44.343 -0.763751 1.37857 0
M  V30 487 C 45.306 -1.85889 1.34081 0
M  V30 488 C 46.306 -1.58949 0.243277 0
M  V30 489 O 47.496 -1.66882 0.499589 0
M  V30 490 C 44.628 -3.23176 1.08489 0
M  V30 491 H 45.821 -1.90648 2.31502 0
M  V30 492 H 43.374 -0.964367 1.23003 0
M  V30 493 H 44.109 -3.24091 0.116318 0
M  V30 494 H 43.894 -3.44124 1.8794 0
M  V30 495 H 45.384 -4.03254 1.08517 0
M  V30 496 N 45.8211 -1.22559 -0.990812 0
M  V30 497 C 46.7681 -0.997519 -2.0813 0
M  V30 498 C 47.7381 0.0814702 -1.659 0
M  V30 499 O 48.9231 -0.0685424 -1.90677 0
M  V30 500 C 46.0631 -0.583615 -3.40129 0
M  V30 501 C 45.1761 -1.7336 -3.9569 0
M  V30 502 C 44.3111 -1.26748 -5.15857 0
M  V30 503 C 43.3501 -2.38888 -5.63559 0
M  V30 504 N 42.4871 -1.93308 -6.74964 0
M  V30 505 H 47.3271 -1.93099 -2.26973 0
M  V30 506 H 44.8641 -0.962114 -1.11273 0
M  V30 507 H 46.8221 -0.324801 -4.15934 0
M  V30 508 H 45.4521 0.312845 -3.2128 0
M  V30 509 H 44.5041 -2.10669 -3.16738 0
M  V30 510 H 45.8161 -2.57704 -4.27071 0
M  V30 511 H 44.9701 -0.966173 -5.98957 0
M  V30 512 H 43.7091 -0.394272 -4.86104 0
M  V30 513 H 42.7141 -2.69805 -4.79046 0
M  V30 514 H 43.9391 -3.26728 -5.95336 0
M  V30 515 H 41.8851 -1.08352 -6.4699 0
M  V30 516 H 41.8021 -2.71217 -7.05675 0
M  V30 517 H 43.0701 -1.66252 -7.61564 0
M  V30 518 N 47.2992 1.18797 -1.03562 0
M  V30 519 C 48.5452 1.8893 -0.737113 0
M  V30 520 C 48.8782 1.79837 0.732956 0
M  V30 521 O 48.1532 1.19525 1.5344 0
M  V30 522 C 48.4362 3.39607 -1.19745 0
M  V30 523 C 48.2892 3.57537 -2.72924 0
M  V30 524 C 49.6082 4.33069 -0.783526 0
M  V30 525 H 46.7272 0.686057 -0.269249 0
M  V30 526 H 49.3692 1.39797 -1.28673 0
M  V30 527 H 47.5192 3.81583 -0.729855 0
M  V30 528 H 49.1912 3.24688 -3.27682 0
M  V30 529 H 47.4342 3.00363 -3.12993 0
M  V30 530 H 48.1052 4.63238 -3.00191 0
M  V30 531 H 50.5812 3.98846 -1.18581 0
M  V30 532 H 49.4572 5.3707 -1.13343 0
M  V30 533 H 49.7182 4.40986 0.313681 0
M  V30 534 N 48.7773 0.814389 1.34928 0
M  V30 535 C 50.0173 0.404165 2.00364 0
M  V30 536 C 50.3813 -1.01166 1.63185 0
M  V30 537 O 51.5823 -1.52431 2.21401 0
M  V30 538 C 49.8533 0.590718 3.52484 0
M  V30 539 S 51.4123 0.272075 4.37956 0
M  V30 540 H 48.2303 0.15311 0.694319 0
M  V30 541 H 50.8323 1.05834 1.64376 0
M  V30 542 H 49.5363 1.62099 3.77031 0
M  V30 543 H 49.0673 -0.0785013 3.93322 0
M  V30 544 H 51.0823 -0.917405 4.87645 0
M  V30 545 N 50.2554 -1.46986 0.568584 0
M  V30 546 C 51.5014 -2.02741 0.0488709 0
M  V30 547 C 51.8344 -1.44077 -1.30214 0
M  V30 548 O 51.1094 -0.600552 -1.84996 0
M  V30 549 C 51.3924 -3.60086 -0.032047 0
M  V30 550 C 51.2454 -4.29162 1.34686 0
M  V30 551 C 52.5644 -4.33838 -0.739798 0
M  V30 552 H 49.6834 -0.736749 0.0192338 0
M  V30 553 H 52.3254 -1.75289 0.733065 0
M  V30 554 H 50.4754 -3.83606 -0.61473 0
M  V30 555 H 52.1474 -4.16948 1.97362 0
M  V30 556 H 50.3904 -3.89073 1.91846 0
M  V30 557 H 51.0614 -5.37826 1.24285 0
M  V30 558 H 53.5374 -4.15378 -0.244939 0
M  V30 559 H 52.4134 -5.43537 -0.765406 0
M  V30 560 H 52.6744 -4.03875 -1.79827 0
M  V30 561 N 51.7335 -0.305618 -1.54608 0
M  V30 562 C 52.9615 0.304775 -2.04643 0
M  V30 563 C 53.3765 1.47167 -1.18268 0
M  V30 564 O 52.7335 1.81296 -0.209328 0
M  V30 565 C 52.7845 0.756564 -3.53495 0
M  V30 566 O 52.5055 -0.36389 -4.36586 0
M  V30 567 C 54.0065 1.43163 -4.19546 0
M  V30 568 H 51.2265 0.0655481 -0.667791 0
M  V30 569 H 53.7705 -0.446592 -1.99564 0
M  V30 570 H 51.9255 1.45794 -3.58919 0
M  V30 571 H 52.3395 -0.0113121 -5.24499 0
M  V30 572 H 53.8135 1.69886 -5.25207 0
M  V30 573 H 54.2905 2.37318 -3.69563 0
M  V30 574 H 54.8965 0.773307 -4.18211 0
M  V30 575 N 53.2116 1.57565 -0.0334293 0
M  V30 576 C 54.1746 2.09393 0.932048 0
M  V30 577 C 55.1746 1.00986 1.25134 0
M  V30 578 O 56.3646 1.27129 1.19096 0
M  V30 579 C 53.4966 2.56338 2.2473 0
M  V30 580 H 54.6896 2.95984 0.483085 0
M  V30 581 H 52.2426 1.54819 0.21468 0
M  V30 582 H 52.9776 1.7309 2.74245 0
M  V30 583 H 52.7626 3.35542 2.02865 0
M  V30 584 H 54.2526 2.96646 2.93923 0
M  V30 585 N 54.6897 -0.239769 1.55765 0
M  V30 586 C 55.6217 -1.32001 1.87372 0
M  V30 587 C 56.6347 -1.43944 0.760522 0
M  V30 588 O 57.8237 -1.45167 1.0387 0
M  V30 589 C 54.9237 -2.69779 2.05115 0
M  V30 590 C 54.0967 -2.80014 3.36022 0
M  V30 591 C 53.1557 -3.98684 3.4342 0
M  V30 592 O 52.1817 -3.87877 4.16582 0
M  V30 593 N 53.3837 -5.12176 2.73232 0
M  V30 594 H 56.1487 -1.0522 2.80622 0
M  V30 595 H 53.7097 -0.429857 1.56089 0
M  V30 596 H 55.7017 -3.47517 2.07399 0
M  V30 597 H 54.2717 -2.89237 1.18577 0
M  V30 598 H 53.4917 -1.88896 3.45994 0
M  V30 599 H 54.7797 -2.83808 4.22292 0
M  V30 600 H 54.1777 -5.2385 2.13536 0
M  V30 601 H 52.7347 -5.88022 2.81199 0
M  V30 602 N 56.1678 -1.49265 -0.50573 0
M  V30 603 C 57.1178 -1.6198 -1.60457 0
M  V30 604 C 58.1018 -0.47568 -1.53708 0
M  V30 605 O 59.2938 -0.728392 -1.61318 0
M  V30 606 C 56.4228 -1.68526 -2.99089 0
M  V30 607 C 55.5088 -2.885 -3.10852 0
M  V30 608 N 55.8998 -4.12635 -2.92517 0
M  V30 609 C 54.1978 -2.86338 -3.41945 0
M  V30 610 C 54.8988 -4.93258 -3.08337 0
M  V30 611 N 53.8748 -4.26533 -3.37003 0
M  V30 612 H 57.6768 -2.55681 -1.44928 0
M  V30 613 H 55.1908 -1.45972 -0.711752 0
M  V30 614 H 57.1878 -1.75732 -3.78053 0
M  V30 615 H 55.8478 -0.759584 -3.1569 0
M  V30 616 H 56.8588 -4.42689 -2.68787 0
M  V30 617 H 53.5358 -2.03129 -3.64753 0
M  V30 618 H 54.9258 -6.01856 -2.98695 0
M  V30 619 N 57.6459 0.756429 -1.3826 0
M  V30 620 C 59.0619 1.0591 -1.19395 0
M  V30 621 C 59.2619 2.01459 -0.0406567 0
M  V30 622 O 58.3179 2.44909 0.614467 0
M  V30 623 C 59.6309 1.64191 -2.51916 0
M  V30 624 C 61.1789 1.76376 -2.58574 0
M  V30 625 C 61.6539 2.38069 -3.91264 0
M  V30 626 N 63.1449 2.45503 -3.92788 0
M  V30 627 C 63.8799 2.94126 -4.92217 0
M  V30 628 N 63.3759 3.42805 -6.02043 0
M  V30 629 N 65.1689 2.9314 -4.7961 0
M  V30 630 H 57.3199 0.122313 -2.12048 0
M  V30 631 H 59.5829 0.116892 -0.940766 0
M  V30 632 H 59.2889 1.01451 -3.3675 0
M  V30 633 H 59.1629 2.6329 -2.70108 0
M  V30 634 H 61.5499 2.38244 -1.74137 0
M  V30 635 H 61.6309 0.759894 -2.44252 0
M  V30 636 H 61.2749 1.76835 -4.76121 0
M  V30 637 H 61.2049 3.39091 -4.02895 0
M  V30 638 H 63.6959 2.1107 -3.13461 0
M  V30 639 H 64.0089 3.78354 -6.73846 0
M  V30 640 H 62.3539 3.4087 -6.05667 0
M  V30 641 H 65.5449 2.54419 -3.92923 0
M  V30 642 H 65.7179 3.30721 -5.5725 0
M  V30 643 N 59.124 1.23083 0.984299 0
M  V30 644 C 60.034 1.02515 2.11016 0
M  V30 645 C 61.05 -0.0291702 1.73976 0
M  V30 646 O 62.226 0.165434 2.00719 0
M  V30 647 C 59.291 0.614673 3.41208 0
M  V30 648 C 58.352 1.74359 3.92297 0
M  V30 649 C 57.585 1.35261 5.16275 0
M  V30 650 O 57.808 0.235136 5.69915 0
M  V30 651 O 56.742 2.17227 5.61334 0
M  V30 652 H 60.568 1.96862 2.31255 0
M  V30 653 H 58.153 1.01753 1.09392 0
M  V30 654 H 60.035 0.396518 4.1953 0
M  V30 655 H 58.71 -0.299851 3.22308 0
M  V30 656 H 57.617 2.01635 3.1511 0
M  V30 657 H 58.95 2.63629 4.15645 0
M  V30 658 N 60.6021 -1.18246 1.0419 0
M  V30 659 C 61.5351 -2.20746 0.578474 0
M  V30 660 C 62.5131 -1.57912 -0.387624 0
M  V30 661 O 63.6971 -1.86071 -0.301634 0
M  V30 662 C 60.8241 -3.38346 -0.154762 0
M  V30 663 C 59.8701 -4.19587 0.764782 0
M  V30 664 S 60.7031 -4.86014 2.24835 0
M  V30 665 C 61.8591 -6.07012 1.526 0
M  V30 666 H 62.0921 -2.59715 1.44691 0
M  V30 667 H 59.6251 -1.287 0.85297 0
M  V30 668 H 61.5831 -4.065 -0.571641 0
M  V30 669 H 60.2441 -2.97786 -0.999105 0
M  V30 670 H 59.4371 -5.03611 0.197976 0
M  V30 671 H 59.0391 -3.56818 1.12057 0
M  V30 672 H 61.3311 -6.72523 0.819733 0
M  V30 673 H 62.2741 -6.68202 2.34333 0
M  V30 674 H 62.6821 -5.55249 1.01779 0
M  V30 675 N 62.0802 -0.821533 -1.34494 0
M  V30 676 C 63.0102 -0.257138 -2.3208 0
M  V30 677 C 63.9912 0.625645 -1.58176 0
M  V30 678 O 65.1762 0.552811 -1.86166 0
M  V30 679 C 62.3062 0.582958 -3.42372 0
M  V30 680 C 61.2602 -0.202571 -4.2752 0
M  V30 681 C 60.5862 0.760179 -5.29269 0
M  V30 682 C 61.8862 -1.40998 -5.02908 0
M  V30 683 H 63.5802 -1.07247 -2.79532 0
M  V30 684 H 61.1262 -0.517163 -1.34393 0
M  V30 685 H 63.0792 0.987972 -4.09655 0
M  V30 686 H 61.8032 1.43133 -2.93565 0
M  V30 687 H 60.4622 -0.588936 -3.61838 0
M  V30 688 H 60.1102 1.60447 -4.76724 0
M  V30 689 H 59.8102 0.238809 -5.87115 0
M  V30 690 H 61.3342 1.16308 -5.9942 0
M  V30 691 H 62.7482 -1.07905 -5.63054 0
M  V30 692 H 61.1452 -1.86689 -5.70322 0
M  V30 693 H 62.2152 -2.1889 -4.32684 0
M  V30 694 N 63.5583 1.46682 -0.576371 0
M  V30 695 C 64.8353 1.95599 0.00703437 0
M  V30 696 C 65.2153 1.51904 1.46589 0
M  V30 697 O 64.5633 0.766755 2.15251 0
M  V30 698 C 64.7733 3.4864 -0.158404 0
M  V30 699 C 66.1213 4.24594 -0.0229439 0
M  V30 700 O 67.1453 3.56094 -0.0869173 0
M  V30 701 O 66.0043 5.46373 0.118015 0
M  V30 702 H 63.0983 0.825275 0.053384 0
M  V30 703 H 65.6443 1.56996 -0.644244 0
M  V30 704 H 64.4163 3.7331 -1.17282 0
M  V30 705 H 64.0393 3.94057 0.5296 0
M  V30 706 N 65.0364 0.313813 1.54444 0
M  V30 707 C 65.9684 -0.590425 2.21465 0
M  V30 708 C 66.9814 -1.08753 1.21147 0
M  V30 709 O 68.1704 -1.00278 1.4767 0
M  V30 710 C 65.2704 -1.82179 2.85769 0
M  V30 711 C 64.4434 -1.46502 4.12136 0
M  V30 712 C 63.5024 -2.55288 4.60124 0
M  V30 713 O 62.5284 -2.19842 5.25032 0
M  V30 714 N 63.7304 -3.86053 4.33525 0
M  V30 715 H 66.4954 -0.0166033 2.99695 0
M  V30 716 H 64.0564 0.136578 1.61323 0
M  V30 717 H 66.0484 -2.54328 3.14801 0
M  V30 718 H 64.6184 -2.30369 2.11303 0
M  V30 719 H 63.8384 -0.575595 3.89975 0
M  V30 720 H 65.1264 -1.20221 4.94393 0
M  V30 721 H 64.5244 -4.17654 3.81552 0
M  V30 722 H 63.0814 -4.54461 4.67235 0
M  V30 723 N 66.5145 -1.57545 0.0417849 0
M  V30 724 C 67.7605 -1.92601 -0.635021 0
M  V30 725 C 68.0935 -0.919627 -1.71045 0
M  V30 726 O 67.3685 0.0557892 -1.9442 0
M  V30 727 C 67.6515 -3.38085 -1.23979 0
M  V30 728 C 67.5045 -4.49467 -0.173057 0
M  V30 729 C 68.8235 -3.83776 -2.15416 0
M  V30 730 H 65.9425 -0.700397 -0.229374 0
M  V30 731 H 68.5845 -1.89728 0.101633 0
M  V30 732 H 66.7345 -3.40664 -1.86762 0
M  V30 733 H 68.4065 -4.59018 0.458312 0
M  V30 734 H 66.6495 -4.30909 0.499996 0
M  V30 735 H 67.3205 -5.48323 -0.636054 0
M  V30 736 H 69.7965 -3.83013 -1.62605 0
M  V30 737 H 68.6725 -4.8624 -2.54679 0
M  V30 738 H 68.9335 -3.19998 -3.05047 0
M  V30 739 N 67.9926 0.231505 -1.5589 0
M  V30 740 C 68.9226 1.29022 -1.94617 0
M  V30 741 C 69.9036 1.4941 -0.813067 0
M  V30 742 O 71.0886 1.6176 -1.07459 0
M  V30 743 C 68.2186 2.64199 -2.25424 0
M  V30 744 C 67.1726 2.58484 -3.41131 0
M  V30 745 C 66.4986 3.97599 -3.57518 0
M  V30 746 C 67.7986 2.1413 -4.76388 0
M  V30 747 H 69.4926 0.968563 -2.83301 0
M  V30 748 H 67.0386 0.464479 -1.36303 0
M  V30 749 H 68.9916 3.38413 -2.51107 0
M  V30 750 H 67.7156 2.98032 -1.33583 0
M  V30 751 H 66.3746 1.86727 -3.15481 0
M  V30 752 H 66.0226 4.28723 -2.6307 0
M  V30 753 H 65.7226 3.94659 -4.35337 0
M  V30 754 H 67.2466 4.7349 -3.85538 0
M  V30 755 H 68.6606 2.78083 -5.01341 0
M  V30 756 H 67.0576 2.2227 -5.57419 0
M  V30 757 H 68.1276 1.09331 -4.72414 0
M  V30 758 N 69.4707 1.49531 0.497807 0
M  V30 759 C 70.4177 1.66436 1.59899 0
M  V30 760 C 71.3877 0.505793 1.58212 0
M  V30 761 O 72.5727 0.733202 1.7615 0
M  V30 762 C 69.7127 1.7399 2.98029 0
M  V30 763 C 68.8257 3.01172 3.09708 0
M  V30 764 C 67.9607 2.99686 4.38591 0
M  V30 765 C 66.9997 4.21434 4.43914 0
M  V30 766 N 66.1367 4.1784 5.64229 0
M  V30 767 H 70.9767 2.60459 1.44793 0
M  V30 768 H 68.5137 1.29137 0.704423 0
M  V30 769 H 70.4717 1.76352 3.78095 0
M  V30 770 H 69.1017 0.834301 3.11832 0
M  V30 771 H 68.1537 3.08408 2.22685 0
M  V30 772 H 69.4657 3.91165 3.09502 0
M  V30 773 H 68.6197 3.00628 5.2698 0
M  V30 774 H 67.3587 2.07477 4.41367 0
M  V30 775 H 66.3637 4.20733 3.53926 0
M  V30 776 H 67.5887 5.14839 4.42851 0
M  V30 777 H 65.5347 3.28469 5.67841 0
M  V30 778 H 65.4517 5.01571 5.65652 0
M  V30 779 H 66.7197 4.22889 6.54817 0
M  V30 780 N 70.9488 -0.749086 1.3866 0
M  V30 781 C 71.8788 -1.8764 1.38973 0
M  V30 782 C 72.8598 -1.68178 0.255004 0
M  V30 783 O 74.0448 -1.88704 0.458754 0
M  V30 784 C 71.1748 -3.25222 1.21851 0
M  V30 785 C 70.1288 -3.59295 2.32575 0
M  V30 786 C 69.4548 -4.95663 2.00555 0
M  V30 787 C 70.7548 -3.63709 3.7485 0
M  V30 788 H 72.4488 -1.87635 2.3331 0
M  V30 789 H 69.9948 -0.901329 1.12303 0
M  V30 790 H 71.9478 -4.03746 1.20695 0
M  V30 791 H 70.6718 -3.25719 0.239775 0
M  V30 792 H 69.3308 -2.83093 2.32925 0
M  V30 793 H 68.9788 -4.92724 1.01154 0
M  V30 794 H 68.6788 -5.19429 2.74714 0
M  V30 795 H 70.2028 -5.7656 2.01024 0
M  V30 796 H 71.6168 -4.32338 3.76506 0
M  V30 797 H 70.0138 -3.98986 4.48252 0
M  V30 798 H 71.0838 -2.63834 4.06841 0
M  V30 799 N 72.4269 -1.23603 -0.977757 0
M  V30 800 C 73.6739 -1.06971 -1.71941 0
M  V30 801 C 74.0019 0.393009 -1.90488 0
M  V30 802 O 73.2569 1.30719 -1.4564 0
M  V30 803 C 73.5559 -1.7433 -3.11999 0
M  V30 804 C 73.2219 -3.24252 -3.13323 0
M  V30 805 C 71.8839 -3.65156 -3.13392 0
M  V30 806 C 74.2359 -4.20141 -3.08433 0
M  V30 807 C 71.5639 -5.00403 -3.0629 0
M  V30 808 C 73.9159 -5.55384 -3.02873 0
M  V30 809 C 72.5799 -5.95647 -3.01265 0
M  V30 810 H 71.8499 -0.391433 -0.629175 0
M  V30 811 H 74.4969 -1.53572 -1.14403 0
M  V30 812 H 72.8019 -1.20096 -3.7294 0
M  V30 813 H 74.4989 -1.58936 -3.68158 0
M  V30 814 H 71.0889 -2.91692 -3.14029 0
M  V30 815 H 75.2729 -3.89547 -3.07517 0
M  V30 816 H 70.5289 -5.3081 -3.03399 0
M  V30 817 H 74.7029 -6.29398 -2.98046 0
M  V30 818 H 72.3299 -7.0041 -2.95516 0
M  V30 819 N 73.905 1.17692 -1.04816 0
M  V30 820 C 75.13 1.92327 -0.776207 0
M  V30 821 C 75.555 1.76082 0.661581 0
M  V30 822 O 74.913 1.076 1.45917 0
M  V30 823 C 74.961 3.41539 -1.15687 0
M  V30 824 O 74.065 4.11402 -0.286775 0
M  V30 825 H 73.406 0.599735 -0.284981 0
M  V30 826 H 75.936 1.49201 -1.4 0
M  V30 827 H 75.946 3.92269 -1.12202 0
M  V30 828 H 74.621 3.52684 -2.20425 0
M  V30 829 H 73.198 3.70939 -0.381903 0
M  V30 830 N 75.3831 0.828654 1.34056 0
M  V30 831 C 76.6321 0.415828 1.97367 0
M  V30 832 C 76.9451 -1.02796 1.6641 0
M  V30 833 O 78.1511 -1.54497 2.23255 0
M  V30 834 C 76.6071 0.692601 3.53173 0
M  V30 835 C 76.2151 2.15038 3.93017 0
M  V30 836 C 77.9591 0.346222 4.23086 0
M  V30 837 C 75.8661 2.37174 5.41758 0
M  V30 838 H 74.7961 0.151755 0.738571 0
M  V30 839 H 77.4471 1.01581 1.52819 0
M  V30 840 H 75.8291 0.0223764 3.95994 0
M  V30 841 H 77.0031 2.86024 3.61285 0
M  V30 842 H 75.3181 2.45875 3.36057 0
M  V30 843 H 77.9151 0.48937 5.32456 0
M  V30 844 H 78.2581 -0.709842 4.10204 0
M  V30 845 H 78.7911 0.971258 3.85761 0
M  V30 846 H 75.5301 3.41308 5.59633 0
M  V30 847 H 75.0501 1.70738 5.74986 0
M  V30 848 H 76.7291 2.19818 6.08514 0
M  V30 849 N 76.8612 -1.46375 0.584142 0
M  V30 850 C 78.1072 -2.02678 0.0703716 0
M  V30 851 C 78.4402 -1.4545 -1.28678 0
M  V30 852 O 77.7152 -0.62014 -1.84349 0
M  V30 853 C 77.9982 -3.60099 0.00614674 0
M  V30 854 C 77.8512 -4.27709 1.3923 0
M  V30 855 C 79.1702 -4.34598 -0.693742 0
M  V30 856 H 76.2892 -0.736504 0.027047 0
M  V30 857 H 78.9312 -1.74501 0.751615 0
M  V30 858 H 77.0812 -3.84236 -0.574009 0
M  V30 859 H 78.7532 -4.14832 2.01773 0
M  V30 860 H 76.9962 -3.87016 1.95962 0
M  V30 861 H 77.6672 -5.36478 1.29982 0
M  V30 862 H 80.1432 -4.15615 -0.200869 0
M  V30 863 H 79.0192 -5.44318 -0.707714 0
M  V30 864 H 79.2802 -4.05759 -1.75533 0
M  V30 865 N 78.3393 -0.321999 -1.54275 0
M  V30 866 C 79.7503 0.166384 -1.85957 0
M  V30 867 C 80.1013 1.51747 -1.24367 0
M  V30 868 O 79.2263 2.09317 -0.549124 0
M  V30 869 C 79.8213 0.308681 -3.37391 0
M  V30 870 C 78.3803 0.741286 -3.69028 0
M  V30 871 C 77.5273 -0.137937 -2.76957 0
M  V30 872 H 80.4783 -0.542335 -1.49146 0
M  V30 873 H 80.4993 1.13984 -3.63026 0
M  V30 874 H 80.0113 -0.674809 -3.82188 0
M  V30 875 H 78.1123 1.73458 -3.29762 0
M  V30 876 H 78.2253 0.546118 -4.75977 0
M  V30 877 H 76.5893 0.386251 -2.51754 0
M  V30 878 H 77.3723 -1.11816 -3.2458 0
M  V30 879 N 79.8174 1.5752 -0.0501392 0
M  V30 880 C 81.0944 1.83996 0.663685 0
M  V30 881 C 81.4744 0.938339 1.89099 0
M  V30 882 O 80.8224 -0.00087759 2.285 0
M  V30 883 C 81.0324 3.33702 1.02196 0
M  V30 884 C 82.3804 4.00691 1.40469 0
M  V30 885 O 83.4044 3.38321 1.11433 0
M  V30 886 O 82.2634 5.10658 1.94654 0
M  V30 887 H 79.3574 0.759385 0.32751 0
M  V30 888 H 81.9034 1.69514 -0.0794238 0
M  V30 889 H 80.6754 3.91015 0.149364 0
M  V30 890 H 80.2984 3.53368 1.82255 0
M  V30 891 N 81.2955 -0.223234 1.56011 0
M  V30 892 C 82.5255 -0.963413 1.82762 0
M  V30 893 C 82.9335 -1.78516 0.626804 0
M  V30 894 O 82.2765 -1.78974 -0.414014 0
M  V30 895 C 82.3385 -1.93126 3.0322 0
M  V30 896 C 82.0025 -1.2942 4.38291 0
M  V30 897 C 82.9995 -0.684916 5.15369 0
M  V30 898 C 80.6845 -1.30647 4.85012 0
M  V30 899 C 82.6785 -0.0963971 6.37327 0
M  V30 900 C 80.3655 -0.71411 6.06913 0
M  V30 901 C 81.3635 -0.110123 6.82911 0
M  V30 902 O 81.0515 0.47303 8.02507 0
M  V30 903 H 80.7835 -0.288011 0.611576 0
M  V30 904 H 83.3375 -0.244103 2.03944 0
M  V30 905 H 81.5675 -2.68952 2.77852 0
M  V30 906 H 83.2565 -2.53685 3.16857 0
M  V30 907 H 84.0225 -0.667774 4.80381 0
M  V30 908 H 79.9015 -1.76598 4.25833 0
M  V30 909 H 83.4455 0.375657 6.96588 0
M  V30 910 H 79.3425 -0.728659 6.41374 0
M  V30 911 H 80.1105 0.367186 8.17676 0
M  V30 912 N 82.7736 -1.49793 -0.48987 0
M  V30 913 C 84.0506 -1.50348 -1.25119 0
M  V30 914 C 84.4306 -0.237466 -2.0976 0
M  V30 915 O 83.7786 0.77981 -2.14782 0
M  V30 916 C 83.9886 -2.78872 -2.09837 0
M  V30 917 C 85.3366 -3.288 -2.68655 0
M  V30 918 O 86.3606 -2.80065 -2.20096 0
M  V30 919 O 85.2196 -4.13707 -3.57083 0
M  V30 920 H 82.3136 -0.602242 -0.566775 0
M  V30 921 H 84.8596 -1.62067 -0.503229 0
M  V30 922 H 83.6316 -3.62499 -1.47343 0
M  V30 923 H 83.2546 -2.70066 -2.91805 0
M  V30 924 N 84.2517 0.741722 -1.39055 0
M  V30 925 C 85.1817 1.869 -1.39966 0
M  V30 926 C 86.1627 1.6804 -0.26392 0
M  V30 927 O 87.3477 1.88458 -0.468755 0
M  V30 928 C 84.4777 3.24572 -1.23574 0
M  V30 929 C 83.4317 3.58056 -2.34477 0
M  V30 930 C 82.7577 4.94593 -2.0318 0
M  V30 931 C 84.0577 3.61716 -3.76774 0
M  V30 932 H 85.7517 1.86395 -2.34302 0
M  V30 933 H 83.2977 0.895361 -1.1278 0
M  V30 934 H 85.2507 4.031 -1.22834 0
M  V30 935 H 83.9747 3.25587 -0.257045 0
M  V30 936 H 82.6337 2.81854 -2.34423 0
M  V30 937 H 82.2817 4.92181 -1.03765 0
M  V30 938 H 81.9817 5.17964 -2.77465 0
M  V30 939 H 83.5057 5.75486 -2.04079 0
M  V30 940 H 84.9197 4.30335 -3.78794 0
M  V30 941 H 83.3167 3.96603 -4.50362 0
M  V30 942 H 84.3867 2.61672 -4.08235 0
M  V30 943 N 85.7298 1.2412 0.971189 0
M  V30 944 C 86.6778 1.02812 2.08644 0
M  V30 945 C 87.6718 -0.0358403 1.69362 0
M  V30 946 O 88.8778 0.118429 1.7961 0
M  V30 947 H 85.2528 0.315428 0.682649 0
M  V30 948 H 87.2238 1.97397 2.23779 0
M  V30 949 C 85.9728 0.645874 3.41649 0
M  V30 950 H 85.2958 1.45632 3.72332 0
M  V30 951 H 86.7358 0.536366 4.20594 0
M  V30 952 C 85.1948 -0.646713 3.30635 0
M  V30 953 O 85.7248 -1.69338 3.64263 0
M  V30 954 N 83.9308 -0.626115 2.83775 0
M  V30 955 H 83.4778 0.225988 2.56607 0
M  V30 956 H 83.4358 -1.49117 2.76788 0
M  V30 957 N 87.2079 -1.17134 1.05439 0
M  V30 958 C 88.4569 -1.86791 0.761049 0
M  V30 959 C 88.7699 -1.82072 -0.714795 0
M  V30 960 O 89.9759 -2.47223 -1.12218 0
M  V30 961 C 88.4319 -3.35166 1.31117 0
M  V30 962 C 88.0399 -3.48381 2.81664 0
M  V30 963 C 89.7839 -4.10134 1.09499 0
M  V30 964 C 87.6909 -4.90793 3.29964 0
M  V30 965 H 86.6209 -0.699681 0.281002 0
M  V30 966 H 89.2719 -1.3226 1.27199 0
M  V30 967 H 87.6539 -3.8925 0.72803 0
M  V30 968 H 88.8279 -3.04502 3.45855 0
M  V30 969 H 87.1429 -2.86836 3.01851 0
M  V30 970 H 89.7399 -5.152 1.43084 0
M  V30 971 H 90.0829 -4.16287 0.0328772 0
M  V30 972 H 90.6159 -3.62264 1.64346 0
M  V30 973 H 87.3549 -4.89816 4.35616 0
M  V30 974 H 86.8749 -5.35333 2.70516 0
M  V30 975 H 88.5539 -5.59573 3.24787 0
M  V30 976 N 88.686 -0.835752 -1.33615 0
M  V30 977 C 89.619 -0.211815 -2.27215 0
M  V30 978 C 90.597 0.639249 -1.49507 0
M  V30 979 O 91.781 0.600193 -1.78689 0
M  V30 980 C 88.908 0.702893 -3.31326 0
M  V30 981 C 87.954 -0.0723049 -4.26439 0
M  V30 982 S 88.787 -1.42811 -5.16106 0
M  V30 983 C 89.943 -0.518613 -6.23748 0
M  V30 984 H 90.176 -1.00533 -2.79786 0
M  V30 985 H 87.709 -0.632336 -1.40858 0
M  V30 986 H 89.667 1.22505 -3.91794 0
M  V30 987 H 88.328 1.47004 -2.77576 0
M  V30 988 H 87.521 0.62359 -5.00127 0
M  V30 989 H 87.123 -0.525424 -3.70291 0
M  V30 990 H 89.415 0.284778 -6.76901 0
M  V30 991 H 90.358 -1.22556 -6.97413 0
M  V30 992 H 90.766 -0.101344 -5.64409 0
M  V30 993 N 90.1641 1.46063 -0.591896 0
M  V30 994 C 91.0961 2.28539 0.174001 0
M  V30 995 C 92.1091 1.39047 0.846753 0
M  V30 996 O 93.2981 1.63564 0.714774 0
M  V30 997 C 90.3981 3.14347 1.26645 0
M  V30 998 C 89.5711 4.32021 0.683856 0
M  V30 999 C 88.6301 4.99157 1.66518 0
M  V30 1000 O 87.6561 5.56458 1.19763 0
M  V30 1001 N 88.8581 4.97005 2.99943 0
M  V30 1002 H 91.6231 2.94911 -0.533633 0
M  V30 1003 H 89.1841 1.56077 -0.430294 0
M  V30 1004 H 91.1761 3.56125 1.92242 0
M  V30 1005 H 89.7461 2.49988 1.87682 0
M  V30 1006 H 88.9661 3.93915 -0.1498 0
M  V30 1007 H 90.2541 5.08059 0.274567 0
M  V30 1008 H 89.6521 4.51714 3.40545 0
M  V30 1009 H 88.2091 5.42696 3.61004 0
M  V30 1010 N 91.6422 0.330177 1.54103 0
M  V30 1011 C 93.0532 -0.15652 1.86043 0
M  V30 1012 C 93.4042 -1.51086 1.2517 0
M  V30 1013 O 92.5292 -2.09023 0.560217 0
M  V30 1014 C 93.1242 -0.290784 3.3755 0
M  V30 1015 C 91.6832 -0.721705 3.69416 0
M  V30 1016 C 90.8302 0.152622 2.7688 0
M  V30 1017 H 93.7812 0.550237 1.48856 0
M  V30 1018 H 93.8022 -1.12058 3.63625 0
M  V30 1019 H 93.3142 0.695068 3.81825 0
M  V30 1020 H 91.4152 -1.71706 3.30678 0
M  V30 1021 H 91.5282 -0.520869 4.7626 0
M  V30 1022 H 89.8922 -0.372894 2.51956 0
M  V30 1023 H 90.6752 1.13536 3.23982 0
M  V30 1024 N 93.1203 -1.57491 0.0584922 0
M  V30 1025 C 94.3683 -1.92597 -0.612436 0
M  V30 1026 C 94.6893 -0.938162 -1.70949 0
M  V30 1027 O 93.9593 0.0158301 -1.95894 0
M  V30 1028 H 92.5393 -0.710964 -0.229214 0
M  V30 1029 H 95.2013 -1.94571 0.113218 0
M  V30 1030 H 94.2973 -2.94038 -1.04633 0
M  V30 1031 N 94.5984 0.214957 -1.56127 0
M  V30 1032 C 95.5304 1.29004 -1.89448 0
M  V30 1033 C 96.5434 1.42716 -0.783326 0
M  V30 1034 O 97.7324 1.43496 -1.06166 0
M  V30 1035 C 94.8324 2.66482 -2.09381 0
M  V30 1036 C 94.0054 2.74633 -3.40434 0
M  V30 1037 C 93.0644 3.9317 -3.49719 0
M  V30 1038 O 92.0904 3.812 -4.227 0
M  V30 1039 N 93.2924 5.07765 -2.81346 0
M  V30 1040 H 96.0574 1.00743 -2.82261 0
M  V30 1041 H 93.6184 0.40497 -1.56753 0
M  V30 1042 H 95.6104 3.44173 -2.12901 0
M  V30 1043 H 94.1804 2.87314 -1.23163 0
M  V30 1044 H 93.4004 1.83368 -3.48955 0
M  V30 1045 H 94.6884 2.77054 -4.26754 0
M  V30 1046 H 94.0864 5.20386 -2.21843 0
M  V30 1047 H 92.6434 5.83474 -2.90519 0
M  V30 1048 N 96.0765 1.50051 0.48192 0
M  V30 1049 C 97.3245 1.60181 1.23234 0
M  V30 1050 C 97.6455 0.299176 1.92691 0
M  V30 1051 O 96.9155 -0.682708 1.83619 0
M  V30 1052 H 95.4955 0.590232 0.457859 0
M  V30 1053 H 98.1575 1.86775 0.556881 0
M  V30 1054 H 97.2535 2.40753 1.98607 0
M  V30 1055 N 97.5546 -0.734337 1.39446 0
M  V30 1056 C 98.4846 -1.86155 1.40955 0
M  V30 1057 C 99.4656 -1.67898 0.272827 0
M  V30 1058 O 100.651 -1.88207 0.478743 0
M  V30 1059 C 97.7806 -3.23912 1.25294 0
M  V30 1060 C 96.7346 -3.56808 2.36373 0
M  V30 1061 C 96.0606 -4.93508 2.058 0
M  V30 1062 C 97.3606 -3.59713 3.78687 0
M  V30 1063 H 99.0546 -1.8515 2.35287 0
M  V30 1064 H 96.6006 -0.889367 1.13253 0
M  V30 1065 H 98.5536 -4.02443 1.2497 0
M  V30 1066 H 97.2776 -3.25446 0.274308 0
M  V30 1067 H 95.9366 -2.80606 2.35914 0
M  V30 1068 H 95.5846 -4.91623 1.06374 0
M  V30 1069 H 95.2846 -5.16486 2.80208 0
M  V30 1070 H 96.8086 -5.74396 2.07128 0
M  V30 1071 H 98.2226 -4.2832 3.81071 0
M  V30 1072 H 96.6196 -3.94209 4.52459 0
M  V30 1073 H 97.6896 -2.59504 4.09617 0
M  V30 1074 N 99.0327 -1.24633 -0.964593 0
M  V30 1075 C 100.261 -1.11501 -1.74285 0
M  V30 1076 C 100.676 0.332165 -1.85855 0
M  V30 1077 O 100.033 1.22903 -1.34911 0
M  V30 1078 C 100.084 -1.75258 -3.16175 0
M  V30 1079 O 99.8047 -3.14318 -3.05182 0
M  V30 1080 C 101.306 -1.67776 -4.10324 0
M  V30 1081 H 98.5257 -0.389407 -0.546446 0
M  V30 1082 H 101.07 -1.64801 -1.21083 0
M  V30 1083 H 99.2247 -1.25954 -3.66353 0
M  V30 1084 H 99.6387 -3.4551 -3.94618 0
M  V30 1085 H 101.113 -2.17064 -5.0753 0
M  V30 1086 H 101.59 -0.639584 -4.34518 0
M  V30 1087 H 102.196 -2.16522 -3.66058 0
M  V30 1088 N 100.511 1.16574 -1.06058 0
M  V30 1089 C 101.421 2.2452 -0.680282 0
M  V30 1090 C 102.437 1.71348 0.302604 0
M  V30 1091 O 103.613 2.00822 0.152513 0
M  V30 1092 C 100.678 3.46629 -0.0700315 0
M  V30 1093 C 99.7388 4.14849 -1.10448 0
M  V30 1094 C 98.9718 5.31129 -0.523256 0
M  V30 1095 O 99.1948 5.66514 0.664709 0
M  V30 1096 O 98.1288 5.88526 -1.26179 0
M  V30 1097 H 101.955 2.59355 -1.58015 0
M  V30 1098 H 99.5398 1.24043 -0.832694 0
M  V30 1099 H 101.422 4.20543 0.268667 0
M  V30 1100 H 100.097 3.13573 0.803353 0
M  V30 1101 H 99.0038 3.42916 -1.49532 0
M  V30 1102 H 100.337 4.51954 -1.94931 0
M  V30 1103 N 101.989 0.842826 1.3317 0
M  V30 1104 C 103.238 0.436738 1.96915 0
M  V30 1105 C 103.551 -1.01025 1.67491 0
M  V30 1106 O 104.757 -1.5212 2.24881 0
M  V30 1107 C 103.213 0.730021 3.52418 0
M  V30 1108 C 102.821 2.19195 3.90714 0
M  V30 1109 C 104.565 0.391076 4.22695 0
M  V30 1110 C 102.472 2.42907 5.39212 0
M  V30 1111 H 101.402 0.15958 0.736919 0
M  V30 1112 H 104.053 1.03196 1.51733 0
M  V30 1113 H 102.435 0.0643755 3.95948 0
M  V30 1114 H 103.609 2.8984 3.58231 0
M  V30 1115 H 101.924 2.49425 3.33431 0
M  V30 1116 H 104.521 0.545817 5.31907 0
M  V30 1117 H 104.864 -0.666294 4.10933 0
M  V30 1118 H 105.397 1.01212 3.84709 0
M  V30 1119 H 102.136 3.47224 5.55982 0
M  V30 1120 H 101.656 1.76827 5.73142 0
M  V30 1121 H 103.335 2.2626 6.06148 0
M  V30 1122 N 103.467 -1.45747 0.599634 0
M  V30 1123 C 104.695 -2.06668 0.0978551 0
M  V30 1124 C 105.11 -1.44562 -1.21439 0
M  V30 1125 O 104.467 -0.556923 -1.73795 0
M  V30 1126 C 104.518 -3.61456 -0.0567044 0
M  V30 1127 O 104.239 -4.21242 1.20361 0
M  V30 1128 C 105.74 -4.39345 -0.590869 0
M  V30 1129 H 102.96 -0.667825 0.0651943 0
M  V30 1130 H 105.504 -1.87115 0.82511 0
M  V30 1131 H 103.659 -3.80378 -0.734251 0
M  V30 1132 H 104.073 -5.14323 1.02821 0
M  V30 1133 H 105.547 -5.48182 -0.648131 0
M  V30 1134 H 106.024 -4.08568 -1.61147 0
M  V30 1135 H 106.63 -4.25268 0.0523679 0
M  V30 1136 N 104.945 -0.338344 -1.53925 0
M  V30 1137 C 106.185 0.260168 -2.02737 0
M  V30 1138 C 106.549 1.48181 -1.22092 0
M  V30 1139 O 107.75 2.15416 -1.60777 0
M  V30 1140 C 106.021 0.571627 -3.52799 0
M  V30 1141 S 107.58 1.14769 -4.23525 0
M  V30 1142 H 104.398 0.077791 -0.706732 0
M  V30 1143 H 107 -0.474899 -1.89644 0
M  V30 1144 H 105.704 -0.325392 -4.09108 0
M  V30 1145 H 105.235 1.3365 -3.70002 0
M  V30 1146 H 107.25 2.43372 -4.32417 0
M  V30 1147 N 106.423 1.57458 -0.0668435 0
M  V30 1148 C 107.839 1.56947 0.289772 0
M  V30 1149 C 108.039 1.07584 1.70376 0
M  V30 1150 O 107.095 0.739486 2.41429 0
M  V30 1151 C 108.408 3.0052 0.103943 0
M  V30 1152 C 109.956 3.12517 0.173857 0
M  V30 1153 C 110.431 4.57997 0.0163682 0
M  V30 1154 N 111.922 4.63144 0.0721352 0
M  V30 1155 C 112.657 5.73394 -0.0253794 0
M  V30 1156 N 112.153 6.92576 -0.176133 0
M  V30 1157 N 113.946 5.62091 0.0313305 0
M  V30 1158 H 106.097 1.87863 -0.991027 0
M  V30 1159 H 108.36 0.86583 -0.38606 0
M  V30 1160 H 108.066 3.40729 -0.871572 0
M  V30 1161 H 107.94 3.67304 0.858366 0
M  V30 1162 H 110.327 2.72197 1.13985 0
M  V30 1163 H 110.408 2.48381 -0.611586 0
M  V30 1164 H 110.052 4.99005 -0.946374 0
M  V30 1165 H 109.982 5.20158 0.821153 0
M  V30 1166 H 112.473 3.77436 0.187263 0
M  V30 1167 H 112.786 7.72418 -0.242821 0
M  V30 1168 H 111.131 6.94678 -0.211429 0
M  V30 1169 H 114.322 4.67867 0.147773 0
M  V30 1170 H 114.495 6.47982 -0.048121 0
M  V30 1171 N 107.901 -0.206675 1.56239 0
M  V30 1172 C 109.15 -0.926964 1.79138 0
M  V30 1173 C 109.463 -1.84901 0.638043 0
M  V30 1174 O 110.669 -2.60906 0.751033 0
M  V30 1175 C 109.125 -1.6986 3.17294 0
M  V30 1176 C 108.733 -0.821956 4.40395 0
M  V30 1177 C 110.477 -2.40922 3.4951 0
M  V30 1178 C 108.384 -1.59179 5.69575 0
M  V30 1179 H 107.314 -0.349864 0.667915 0
M  V30 1180 H 109.965 -0.180487 1.8261 0
M  V30 1181 H 108.347 -2.48853 3.08039 0
M  V30 1182 H 109.521 -0.0715019 4.60745 0
M  V30 1183 H 107.836 -0.222741 4.15804 0
M  V30 1184 H 110.433 -2.99047 4.43255 0
M  V30 1185 H 110.776 -3.14542 2.72707 0
M  V30 1186 H 111.309 -1.68905 3.60161 0
M  V30 1187 H 108.048 -0.898589 6.49312 0
M  V30 1188 H 107.568 -2.31648 5.53262 0
M  V30 1189 H 109.247 -2.14862 6.10281 0
M  V30 1190 N 109.379 -1.50304 -0.473955 0
M  V30 1191 C 110.309 -1.71886 -1.58042 0
M  V30 1192 C 111.29 -0.567799 -1.60344 0
M  V30 1193 O 112.475 -0.806623 -1.76656 0
M  V30 1194 C 109.605 -1.81036 -2.96384 0
M  V30 1195 C 108.559 -2.962 -3.08949 0
M  V30 1196 C 107.885 -2.9049 -4.48909 0
M  V30 1197 C 109.185 -4.36752 -2.86434 0
M  V30 1198 H 110.879 -2.64527 -1.40234 0
M  V30 1199 H 108.425 -1.27295 -0.673201 0
M  V30 1200 H 110.378 -1.94719 -3.73714 0
M  V30 1201 H 109.102 -0.850147 -3.15341 0
M  V30 1202 H 107.761 -2.82164 -2.3405 0
M  V30 1203 H 107.409 -1.92321 -4.64781 0
M  V30 1204 H 107.109 -3.67802 -4.58253 0
M  V30 1205 H 108.633 -3.06218 -5.28264 0
M  V30 1206 H 110.047 -4.5133 -3.53517 0
M  V30 1207 H 108.444 -5.15493 -3.07225 0
M  V30 1208 H 109.514 -4.49321 -1.82316 0
M  V30 1209 N 110.857 0.726932 -1.39834 0
M  V30 1210 C 111.767 1.87131 -1.41489 0
M  V30 1211 C 112.783 1.71239 -0.308757 0
M  V30 1212 O 113.959 1.93701 -0.551529 0
M  V30 1213 C 111.024 3.22811 -1.26468 0
M  V30 1214 C 110.085 3.51039 -2.47124 0
M  V30 1215 C 109.318 4.80245 -2.3281 0
M  V30 1216 O 109.541 5.54537 -1.33585 0
M  V30 1217 O 108.475 5.08554 -3.21957 0
M  V30 1218 H 112.301 1.8869 -2.3797 0
M  V30 1219 H 109.886 0.875837 -1.21035 0
M  V30 1220 H 111.768 4.03877 -1.20255 0
M  V30 1221 H 110.443 3.22005 -0.330862 0
M  V30 1222 H 109.35 2.70027 -2.58914 0
M  V30 1223 H 110.683 3.56632 -3.39227 0
M  V30 1224 N 112.336 1.25143 0.95797 0
M  V30 1225 C 113.584 1.09476 1.69881 0
M  V30 1226 C 113.905 -0.365502 1.91544 0
M  V30 1227 O 113.175 -1.25985 1.50015 0
M  V30 1228 H 111.755 0.402128 0.629525 0
M  V30 1229 H 114.417 1.57214 1.15194 0
M  V30 1230 H 113.513 1.60046 2.6794 0
M  V30 1231 N 113.814 -1.1601 1.06675 0
M  V30 1232 C 114.744 -2.22688 0.702307 0
M  V30 1233 C 115.725 -1.67306 -0.307032 0
M  V30 1234 O 116.91 -1.93352 -0.181305 0
M  V30 1235 C 114.04 -3.47178 0.092038 0
M  V30 1236 C 112.994 -4.15477 1.02777 0
M  V30 1237 C 112.32 -5.33963 0.28061 0
M  V30 1238 C 113.62 -4.66019 2.35846 0
M  V30 1239 H 115.314 -2.53429 1.59419 0
M  V30 1240 H 112.86 -1.21813 0.767961 0
M  V30 1241 H 114.813 -4.21037 -0.174814 0
M  V30 1242 H 113.537 -3.15749 -0.834877 0
M  V30 1243 H 112.196 -3.43549 1.27944 0
M  V30 1244 H 111.844 -4.98788 -0.649545 0
M  V30 1245 H 111.544 -5.806 0.904258 0
M  V30 1246 H 113.068 -6.10596 0.021396 0
M  V30 1247 H 114.482 -5.3144 2.15045 0
M  V30 1248 H 112.879 -5.23293 2.93743 0
M  V30 1249 H 113.949 -3.82023 2.98641 0
M  V30 1250 N 115.292 -0.849877 -1.32721 0
M  V30 1251 C 116.239 -0.289033 -2.28983 0
M  V30 1252 C 117.209 0.601324 -1.54833 0
M  V30 1253 O 118.394 0.537253 -1.8308 0
M  V30 1254 C 115.534 0.520623 -3.4115 0
M  V30 1255 C 114.647 -0.394989 -4.3019 0
M  V30 1256 C 113.782 0.426834 -5.29482 0
M  V30 1257 C 112.821 -0.486476 -6.10164 0
M  V30 1258 N 111.958 0.297879 -7.01468 0
M  V30 1259 H 116.798 -1.11519 -2.76347 0
M  V30 1260 H 114.335 -0.56138 -1.35967 0
M  V30 1261 H 116.293 1.00563 -4.04899 0
M  V30 1262 H 114.923 1.31165 -2.9495 0
M  V30 1263 H 113.975 -0.99836 -3.67065 0
M  V30 1264 H 115.287 -1.09612 -4.86607 0
M  V30 1265 H 114.441 0.975205 -5.98811 0
M  V30 1266 H 113.18 1.16136 -4.73671 0
M  V30 1267 H 112.185 -1.04677 -5.39743 0
M  V30 1268 H 113.41 -1.21953 -6.6806 0
M  V30 1269 H 111.356 1.01558 -6.48091 0
M  V30 1270 H 111.273 -0.344318 -7.55216 0
M  V30 1271 H 112.541 0.828131 -7.75089 0
M  V30 1272 N 116.77 1.45427 -0.607355 0
M  V30 1273 C 118.181 1.85756 -0.187535 0
M  V30 1274 C 118.532 1.5077 1.25551 0
M  V30 1275 O 117.657 0.93427 1.95193 0
M  V30 1276 C 118.252 3.37154 -0.333572 0
M  V30 1277 C 116.811 3.76387 0.0315542 0
M  V30 1278 C 115.958 2.69377 -0.658117 0
M  V30 1279 H 118.909 1.36231 -0.81405 0
M  V30 1280 H 118.93 3.78014 0.43428 0
M  V30 1281 H 118.442 3.62586 -1.38393 0
M  V30 1282 H 116.543 3.56571 1.0811 0
M  V30 1283 H 116.656 4.77731 -0.361935 0
M  V30 1284 H 115.02 2.5452 -0.0957873 0
M  V30 1285 H 115.803 2.97646 -1.7106 0
M  V30 1286 N 118.248 0.346503 1.53744 0
M  V30 1287 C 119.497 -0.250122 2.00143 0
M  V30 1288 C 119.81 -1.51418 1.23822 0
M  V30 1289 O 121.016 -2.18823 1.60713 0
M  V30 1290 C 119.472 -0.496252 3.56462 0
M  V30 1291 C 119.08 0.752077 4.41642 0
M  V30 1292 C 120.824 -1.05157 4.11269 0
M  V30 1293 C 118.731 0.476583 5.89477 0
M  V30 1294 H 117.661 -0.0972409 0.747703 0
M  V30 1295 H 120.312 0.46229 1.77581 0
M  V30 1296 H 118.694 -1.26944 3.75102 0
M  V30 1297 H 119.868 1.5266 4.34778 0
M  V30 1298 H 118.183 1.22925 3.97842 0
M  V30 1299 H 120.78 -1.27269 5.19333 0
M  V30 1300 H 121.123 -2.00799 3.64672 0
M  V30 1301 H 121.656 -0.339019 3.96353 0
M  V30 1302 H 118.395 1.4028 6.40314 0
M  V30 1303 H 117.915 -0.259794 5.99237 0
M  V30 1304 H 119.594 0.0949315 6.4693 0
M  V30 1305 N 119.726 -1.57421 0.075193 0
M  V30 1306 C 120.656 -2.15942 -0.888324 0
M  V30 1307 C 121.637 -1.08737 -1.30806 0
M  V30 1308 O 122.822 -1.36787 -1.37851 0
M  V30 1309 C 119.952 -2.72379 -2.1547 0
M  V30 1310 C 118.906 -3.8478 -1.87425 0
M  V30 1311 C 118.232 -4.27834 -3.20721 0
M  V30 1312 C 119.532 -5.08869 -1.17684 0
M  V30 1313 H 121.226 -2.96705 -0.400799 0
M  V30 1314 H 118.772 -1.42723 -0.191342 0
M  V30 1315 H 120.725 -3.11965 -2.83295 0
M  V30 1316 H 119.449 -1.88841 -2.6647 0
M  V30 1317 H 118.108 -3.45703 -1.22004 0
M  V30 1318 H 117.756 -3.41214 -3.6957 0
M  V30 1319 H 117.456 -5.03605 -3.02746 0
M  V30 1320 H 118.98 -4.70039 -3.89738 0
M  V30 1321 H 120.394 -5.4575 -1.75584 0
M  V30 1322 H 118.791 -5.8994 -1.09956 0
M  V30 1323 H 119.861 -4.84648 -0.156453 0
M  V30 1324 N 121.204 0.198386 -1.56346 0
M  V30 1325 C 122.167 1.22952 -1.93431 0
M  V30 1326 C 123.167 1.38611 -0.815092 0
M  V30 1327 O 124.357 1.36479 -1.08255 0
M  V30 1328 C 121.489 2.59946 -2.20546 0
M  V30 1329 H 122.682 0.912626 -2.85677 0
M  V30 1330 H 120.235 0.43977 -1.49986 0
M  V30 1331 H 120.97 2.96696 -1.30927 0
M  V30 1332 H 120.755 2.49953 -3.02102 0
M  V30 1333 H 122.245 3.3431 -2.50253 0
M  V30 1334 N 122.682 1.50554 0.465978 0
M  V30 1335 C 123.592 1.72585 1.58907 0
M  V30 1336 C 124.608 0.60911 1.6299 0
M  V30 1337 O 125.784 0.88804 1.80765 0
M  V30 1338 C 122.849 1.81995 2.95091 0
M  V30 1339 C 121.91 3.05751 3.01355 0
M  V30 1340 C 121.143 3.14702 4.31043 0
M  V30 1341 O 121.366 2.30313 5.21835 0
M  V30 1342 O 120.3 4.07468 4.43005 0
M  V30 1343 H 124.126 2.67799 1.43239 0
M  V30 1344 H 121.711 1.34711 0.646013 0
M  V30 1345 H 123.593 1.90335 3.75966 0
M  V30 1346 H 122.268 0.899659 3.10947 0
M  V30 1347 H 121.175 3.02908 2.19539 0
M  V30 1348 H 122.508 3.97375 2.90437 0
M  V30 1349 N 124.16 -0.719506 1.40217 0
M  V30 1350 C 125.407 -1.47933 1.38283 0
M  V30 1351 C 125.735 -1.94493 -0.0161536 0
M  V30 1352 O 124.99 -1.68224 -0.999956 0
M  V30 1353 C 125.289 -2.72271 2.31524 0
M  V30 1354 C 124.955 -2.44496 3.78857 0
M  V30 1355 C 123.617 -2.36631 4.18998 0
M  V30 1356 C 125.969 -2.21104 4.71977 0
M  V30 1357 C 123.297 -2.03437 5.503 0
M  V30 1358 C 125.649 -1.89423 6.03574 0
M  V30 1359 C 124.313 -1.80038 6.42762 0
M  V30 1360 H 123.583 -0.541325 0.506012 0
M  V30 1361 H 126.23 -0.824502 1.72842 0
M  V30 1362 H 124.535 -3.42572 1.90137 0
M  V30 1363 H 126.232 -3.30348 2.27313 0
M  V30 1364 H 122.822 -2.51503 3.47051 0
M  V30 1365 H 127.006 -2.26139 4.41786 0
M  V30 1366 H 122.262 -1.94705 5.79569 0
M  V30 1367 H 126.436 -1.70336 6.75247 0
M  V30 1368 H 124.063 -1.54083 7.44421 0
M  V30 1369 N 125.638 -1.25649 -0.95132 0
M  V30 1370 C 126.585 -1.06323 -2.04851 0
M  V30 1371 C 127.555 0.0286491 -1.66075 0
M  V30 1372 O 128.74 -0.12917 -1.90362 0
M  V30 1373 C 125.88 -0.691529 -3.381 0
M  V30 1374 C 124.993 -1.85861 -3.89974 0
M  V30 1375 C 124.128 -1.43096 -5.11563 0
M  V30 1376 C 123.167 -2.56696 -5.55674 0
M  V30 1377 N 122.304 -2.14684 -6.68472 0
M  V30 1378 H 127.144 -2.00222 -2.20715 0
M  V30 1379 H 124.681 -0.997027 -1.08156 0
M  V30 1380 H 126.639 -0.456963 -4.1469 0
M  V30 1381 H 125.269 0.210474 -3.22113 0
M  V30 1382 H 124.321 -2.20639 -3.09875 0
M  V30 1383 H 125.633 -2.71161 -4.18657 0
M  V30 1384 H 124.787 -1.15624 -5.9558 0
M  V30 1385 H 123.526 -0.548722 -4.84603 0
M  V30 1386 H 122.531 -2.84909 -4.7022 0
M  V30 1387 H 123.756 -3.45503 -5.8464 0
M  V30 1388 H 121.702 -1.28881 -6.43215 0
M  V30 1389 H 121.619 -2.9353 -6.96689 0
M  V30 1390 H 122.887 -1.90397 -7.5589 0
M  V30 1391 N 127.117 1.15442 -1.07289 0
M  V30 1392 C 128.528 1.67803 -0.818475 0
M  V30 1393 C 128.879 1.8489 0.656507 0
M  V30 1394 O 128.004 1.55176 1.50829 0
M  V30 1395 C 128.599 3.04805 -1.47917 0
M  V30 1396 C 127.158 3.54245 -1.27229 0
M  V30 1397 C 126.305 2.29986 -1.54925 0
M  V30 1398 H 129.256 0.996646 -1.23502 0
M  V30 1399 H 129.277 3.69702 -0.90005 0
M  V30 1400 H 128.789 2.92336 -2.55267 0
M  V30 1401 H 126.89 3.71956 -0.21899 0
M  V30 1402 H 127.003 4.35723 -1.99203 0
M  V30 1403 H 125.367 2.35496 -0.970242 0
M  V30 1404 H 126.15 2.20105 -2.63455 0
M  V30 1405 N 128.595 0.856903 1.32268 0
M  V30 1406 C 129.872 0.382583 1.91822 0
M  V30 1407 C 130.252 -1.13407 1.78051 0
M  V30 1408 O 129.6 -1.95673 1.18001 0
M  V30 1409 C 129.81 0.849446 3.38505 0
M  V30 1410 C 131.158 0.867936 4.15634 0
M  V30 1411 O 132.182 0.794232 3.47232 0
M  V30 1412 O 131.041 0.972286 5.37781 0
M  V30 1413 H 128.135 0.112014 0.819379 0
M  V30 1414 H 130.681 0.943952 1.41024 0
M  V30 1415 H 129.453 1.89267 3.42482 0
M  V30 1416 H 129.076 0.265652 3.96712 0
M  V30 1417 N 130.073 -1.45103 0.615059 0
M  V30 1418 C 131.319 -2.02483 0.113347 0
M  V30 1419 C 131.652 -1.48146 -1.25564 0
M  V30 1420 O 130.927 -0.659104 -1.82992 0
M  V30 1421 C 131.21 -3.60005 0.0825278 0
M  V30 1422 C 131.063 -4.2466 1.48271 0
M  V30 1423 C 132.382 -4.35972 -0.601401 0
M  V30 1424 H 129.501 -0.735764 0.0426632 0
M  V30 1425 H 132.143 -1.72868 0.788461 0
M  V30 1426 H 130.293 -3.85367 -0.492378 0
M  V30 1427 H 131.965 -4.10458 2.10527 0
M  V30 1428 H 130.208 -3.82772 2.04127 0
M  V30 1429 H 130.879 -5.336 1.41332 0
M  V30 1430 H 133.355 -4.15947 -0.112666 0
M  V30 1431 H 132.231 -5.45697 -0.592097 0
M  V30 1432 H 132.492 -4.09391 -1.66887 0
M  V30 1433 N 131.551 -0.354651 -1.53558 0
M  V30 1434 C 132.797 0.238797 -2.01389 0
M  V30 1435 C 133.13 1.49309 -1.2418 0
M  V30 1436 O 132.405 1.91638 -0.332457 0
M  V30 1437 C 132.688 0.541771 -3.56001 0
M  V30 1438 C 132.541 -0.725388 -4.43912 0
M  V30 1439 C 133.86 1.34685 -4.18984 0
M  V30 1440 H 130.979 0.0853177 -0.732045 0
M  V30 1441 H 133.621 -0.477384 -1.83905 0
M  V30 1442 H 131.771 1.15189 -3.71031 0
M  V30 1443 H 133.443 -1.36313 -4.407 0
M  V30 1444 H 131.686 -1.34801 -4.12324 0
M  V30 1445 H 132.357 -0.468505 -5.50008 0
M  V30 1446 H 134.833 0.830837 -4.07721 0
M  V30 1447 H 133.709 1.52759 -5.27215 0
M  V30 1448 H 133.97 2.35221 -3.74331 0
M  V30 1449 N 133.029 1.57378 -0.0835403 0
M  V30 1450 C 133.959 2.1641 0.87686 0
M  V30 1451 C 134.94 1.09429 1.30228 0
M  V30 1452 O 136.125 1.37516 1.37124 0
M  V30 1453 C 133.255 2.73517 2.14022 0
M  V30 1454 C 132.209 3.85769 1.85381 0
M  V30 1455 C 131.535 4.29529 3.18448 0
M  V30 1456 C 132.835 5.09486 1.14984 0
M  V30 1457 H 134.529 2.96914 0.385059 0
M  V30 1458 H 132.075 1.42823 0.18377 0
M  V30 1459 H 134.028 3.13463 2.81636 0
M  V30 1460 H 132.752 1.90252 2.65465 0
M  V30 1461 H 131.411 3.46345 1.20169 0
M  V30 1462 H 131.059 3.43169 3.67755 0
M  V30 1463 H 130.759 5.05204 3.00071 0
M  V30 1464 H 132.283 4.72099 3.8724 0
M  V30 1465 H 133.697 5.46674 1.72687 0
M  V30 1466 H 132.094 5.90515 1.06826 0
M  V30 1467 H 133.164 4.84724 0.130749 0
M  V30 1468 N 134.507 -0.190092 1.56449 0
M  V30 1469 C 135.753 -0.911052 1.81184 0
M  V30 1470 C 136.086 -1.82699 0.658396 0
M  V30 1471 O 135.361 -1.91491 -0.340775 0
M  V30 1472 C 135.644 -1.72297 3.16205 0
M  V30 1473 C 135.497 -0.831419 4.42049 0
M  V30 1474 C 136.816 -2.69454 3.47969 0
M  V30 1475 H 133.935 -0.32977 0.659106 0
M  V30 1476 H 136.577 -0.178169 1.89163 0
M  V30 1477 H 134.727 -2.34778 3.09534 0
M  V30 1478 H 136.399 -0.220929 4.60771 0
M  V30 1479 H 134.642 -0.138406 4.33579 0
M  V30 1480 H 135.313 -1.43461 5.33032 0
M  V30 1481 H 137.789 -2.17104 3.54972 0
M  V30 1482 H 136.665 -3.23342 4.43555 0
M  V30 1483 H 136.926 -3.48744 2.71717 0
M  V30 1484 N 135.985 -1.50799 -0.457987 0
M  V30 1485 C 136.935 -1.67003 -1.55222 0
M  V30 1486 C 137.919 -0.52434 -1.52117 0
M  V30 1487 O 139.111 -0.779345 -1.58919 0
M  V30 1488 C 136.24 -1.77956 -2.93576 0
M  V30 1489 C 135.326 -2.98243 -3.01516 0
M  V30 1490 N 135.717 -4.21732 -2.79241 0
M  V30 1491 C 134.015 -2.97072 -3.32662 0
M  V30 1492 C 134.716 -5.02817 -2.92489 0
M  V30 1493 N 133.692 -4.37038 -3.23262 0
M  V30 1494 H 137.494 -2.60163 -1.36721 0
M  V30 1495 H 135.008 -1.48163 -0.664952 0
M  V30 1496 H 137.005 -1.87671 -3.72271 0
M  V30 1497 H 135.665 -0.859634 -3.13114 0
M  V30 1498 H 136.676 -4.51016 -2.54567 0
M  V30 1499 H 133.353 -2.14631 -3.58106 0
M  V30 1500 H 134.743 -6.11054 -2.79396 0
M  V30 1501 N 137.463 0.71206 -1.40597 0
M  V30 1502 C 138.711 1.46907 -1.38791 0
M  V30 1503 C 139.032 1.94998 0.00780391 0
M  V30 1504 O 138.302 1.70587 0.963174 0
M  V30 1505 H 136.882 0.545043 -0.51082 0
M  V30 1506 H 139.544 0.843882 -1.75683 0
M  V30 1507 H 138.64 2.34021 -2.06496 0
M  V30 1508 N 138.941 1.26152 0.944643 0
M  V30 1509 C 140.218 1.02247 1.66748 0
M  V30 1510 C 140.598 -0.448202 2.06287 0
M  V30 1511 O 139.946 -1.42779 1.78399 0
M  V30 1512 C 140.156 1.96788 2.88228 0
M  V30 1513 C 141.504 2.25201 3.59958 0
M  V30 1514 O 142.528 1.94626 2.98327 0
M  V30 1515 O 141.387 2.77242 4.70956 0
M  V30 1516 H 138.481 0.388517 0.730057 0
M  V30 1517 H 141.027 1.37348 0.99668 0
M  V30 1518 H 139.799 2.96047 2.55875 0
M  V30 1519 H 139.422 1.62145 3.63035 0
M  V30 1520 N 140.419 -1.14872 1.07899 0
M  V30 1521 C 141.647 -1.89661 0.82683 0
M  V30 1522 C 142.062 -1.78312 -0.620519 0
M  V30 1523 O 141.419 -1.13888 -1.42604 0
M  V30 1524 C 141.47 -3.39817 1.23316 0
M  V30 1525 O 141.191 -3.50845 2.62372 0
M  V30 1526 C 142.692 -4.31615 1.0111 0
M  V30 1527 H 139.912 -0.60092 0.298557 0
M  V30 1528 H 142.456 -1.4551 1.43691 0
M  V30 1529 H 140.611 -3.8161 0.667286 0
M  V30 1530 H 141.025 -4.44076 2.79101 0
M  V30 1531 H 142.499 -5.35367 1.34486 0
M  V30 1532 H 142.976 -4.39169 -0.0522168 0
M  V30 1533 H 143.582 -3.95572 1.56215 0
M  V30 1534 N 141.898 -0.863906 -1.31812 0
M  V30 1535 C 143.126 -0.486111 -2.01108 0
M  V30 1536 C 143.541 0.919755 -1.64882 0
M  V30 1537 O 142.898 1.60162 -0.874893 0
M  V30 1538 C 142.949 -0.626435 -3.56031 0
M  V30 1539 O 142.67 -1.97693 -3.90959 0
M  V30 1540 C 144.171 -0.248857 -4.42601 0
M  V30 1541 H 141.391 -0.190052 -0.643523 0
M  V30 1542 H 143.935 -1.1634 -1.68182 0
M  V30 1543 H 142.09 0.00322717 -3.874 0
M  V30 1544 H 142.504 -1.98034 -4.85678 0
M  V30 1545 H 143.978 -0.398016 -5.50563 0
M  V30 1546 H 144.455 0.811489 -4.31638 0
M  V30 1547 H 145.061 -0.853971 -4.16638 0
M  V30 1548 N 143.376 1.44774 -0.622745 0
M  V30 1549 C 144.604 2.06487 -0.130722 0
M  V30 1550 C 145.019 1.46476 1.19123 0
M  V30 1551 O 144.376 0.584502 1.72887 0
M  V30 1552 C 144.427 3.615 -0.000807207 0
M  V30 1553 O 144.148 4.19274 -1.27048 0
M  V30 1554 C 145.649 4.40229 0.520898 0
M  V30 1555 H 142.869 0.666704 -0.0758106 0
M  V30 1556 H 145.413 1.85779 -0.854774 0
M  V30 1557 H 143.568 3.81498 0.673643 0
M  V30 1558 H 143.982 5.12622 -1.1099 0
M  V30 1559 H 145.456 5.49144 0.560838 0
M  V30 1560 H 145.933 4.1108 1.54627 0
M  V30 1561 H 146.539 4.25131 -0.120018 0
M  V30 1562 N 144.854 0.36279 1.53368 0
M  V30 1563 C 146.082 -0.228613 2.05633 0
M  V30 1564 C 146.497 -1.42676 1.23649 0
M  V30 1565 O 145.854 -1.80394 0.27647 0
M  V30 1566 C 145.905 -0.624845 3.56059 0
M  V30 1567 O 145.626 0.525675 4.34935 0
M  V30 1568 C 147.127 -1.27493 4.24571 0
M  V30 1569 H 144.347 -0.0407183 0.669763 0
M  V30 1570 H 146.891 0.520352 1.97769 0
M  V30 1571 H 145.046 -1.32373 3.64083 0
M  V30 1572 H 145.46 0.205969 5.24095 0
M  V30 1573 H 146.934 -1.50277 5.31151 0
M  V30 1574 H 147.411 -2.23439 3.78116 0
M  V30 1575 H 148.017 -0.617558 4.20792 0
M  V30 1576 N 146.332 -1.57332 0.0918853 0
M  V30 1577 C 147.262 -2.16872 -0.865371 0
M  V30 1578 C 148.243 -1.10118 -1.29646 0
M  V30 1579 O 149.428 -1.38242 -1.36392 0
M  V30 1580 C 146.558 -2.74649 -2.12569 0
M  V30 1581 C 145.512 -3.86747 -1.83333 0
M  V30 1582 C 144.838 -4.31212 -3.16166 0
M  V30 1583 C 146.138 -5.10089 -1.1228 0
M  V30 1584 H 147.832 -2.97114 -0.369307 0
M  V30 1585 H 145.378 -1.42918 -0.176194 0
M  V30 1586 H 147.331 -3.14952 -2.7997 0
M  V30 1587 H 146.055 -1.91657 -2.64452 0
M  V30 1588 H 144.714 -3.46978 -1.18331 0
M  V30 1589 H 144.362 -3.45115 -3.6593 0
M  V30 1590 H 144.062 -5.06788 -2.97388 0
M  V30 1591 H 145.586 -4.74146 -3.84731 0
M  V30 1592 H 147 -5.47582 -1.69785 0
M  V30 1593 H 145.397 -5.91073 -1.03693 0
M  V30 1594 H 146.467 -4.84786 -0.105041 0
M  V30 1595 N 147.81 0.181792 -1.56548 0
M  V30 1596 C 148.773 1.20894 -1.94724 0
M  V30 1597 C 149.773 1.37738 -0.829747 0
M  V30 1598 O 150.963 1.35323 -1.09697 0
M  V30 1599 C 148.095 2.57593 -2.23291 0
M  V30 1600 H 149.288 0.882275 -2.86629 0
M  V30 1601 H 146.841 0.423838 -1.50444 0
M  V30 1602 H 147.576 2.95291 -1.34067 0
M  V30 1603 H 147.361 2.46735 -3.04736 0
M  V30 1604 H 148.851 3.31637 -2.53785 0
M  V30 1605 N 149.288 1.51039 0.449983 0
M  V30 1606 C 150.516 1.66869 1.2232 0
M  V30 1607 C 150.931 0.360727 1.85322 0
M  V30 1608 O 150.288 -0.659531 1.70166 0
M  V30 1609 C 150.339 2.77524 2.31652 0
M  V30 1610 O 150.06 4.03252 1.7123 0
M  V30 1611 C 151.561 3.04512 3.2216 0
M  V30 1612 H 148.781 0.560326 0.369155 0
M  V30 1613 H 151.325 1.97385 0.534719 0
M  V30 1614 H 149.48 2.49642 2.96239 0
M  V30 1615 H 149.894 4.64609 2.43389 0
M  V30 1616 H 151.368 3.85551 3.95038 0
M  V30 1617 H 151.845 2.16415 3.8218 0
M  V30 1618 H 152.451 3.34005 2.63288 0
M  V30 1619 N 150.766 -0.704594 1.40972 0
M  V30 1620 C 151.991 -1.49858 1.43378 0
M  V30 1621 C 152.416 -1.88061 0.038184 0
M  V30 1622 O 151.774 -1.5402 -0.956425 0
M  V30 1623 C 151.822 -2.74333 2.34038 0
M  V30 1624 O 150.926 -3.7147 1.7912 0
M  V30 1625 H 150.267 -0.45139 0.486974 0
M  V30 1626 H 152.797 -0.866832 1.8533 0
M  V30 1627 H 152.807 -3.22741 2.49604 0
M  V30 1628 H 151.482 -2.45863 3.35446 0
M  V30 1629 H 150.059 -3.30363 1.72958 0
M  V30 1630 N 152.244 -1.26651 -0.937939 0
M  V30 1631 C 153.174 -1.10993 -2.05433 0
M  V30 1632 C 154.155 -0.0142161 -1.70094 0
M  V30 1633 O 155.34 -0.186837 -1.93299 0
M  V30 1634 C 152.47 -0.745561 -3.39203 0
M  V30 1635 C 151.424 -1.79337 -3.88616 0
M  V30 1636 C 150.75 -1.28324 -5.19073 0
M  V30 1637 C 152.05 -3.19553 -4.13138 0
M  V30 1638 H 153.744 -2.0438 -2.1879 0
M  V30 1639 H 151.29 -0.984041 -1.05131 0
M  V30 1640 H 153.243 -0.622888 -4.16771 0
M  V30 1641 H 151.967 0.22401 -3.25831 0
M  V30 1642 H 150.626 -1.90477 -3.13231 0
M  V30 1643 H 150.274 -0.303414 -5.02084 0
M  V30 1644 H 149.974 -1.98369 -5.53103 0
M  V30 1645 H 151.498 -1.1733 -5.99221 0
M  V30 1646 H 152.912 -3.11471 -4.81309 0
M  V30 1647 H 151.309 -3.87218 -4.58457 0
M  V30 1648 H 152.379 -3.65368 -3.18801 0
M  V30 1649 N 153.722 1.14298 -1.08507 0
M  V30 1650 C 154.685 2.17607 -0.719711 0
M  V30 1651 C 155.685 1.58907 0.245997 0
M  V30 1652 O 156.875 1.74181 0.0254081 0
M  V30 1653 C 154.007 3.40842 -0.0627695 0
M  V30 1654 H 155.2 2.51443 -1.63452 0
M  V30 1655 H 152.753 1.28963 -0.88307 0
M  V30 1656 H 153.488 3.12587 0.863716 0
M  V30 1657 H 153.273 3.84713 -0.757504 0
M  V30 1658 H 154.763 4.17221 0.177786 0
M  V30 1659 N 155.201 0.870884 1.31352 0
M  V30 1660 C 156.164 0.332243 2.26779 0
M  V30 1661 C 157.164 -0.517302 1.52252 0
M  V30 1662 O 158.354 -0.326477 1.71113 0
M  V30 1663 C 155.486 -0.528066 3.36785 0
M  V30 1664 H 156.679 1.17469 2.75937 0
M  V30 1665 H 154.232 0.64655 1.423 0
M  V30 1666 H 154.967 -1.39167 2.92922 0
M  V30 1667 H 154.752 0.0802582 3.92018 0
M  V30 1668 H 156.242 -0.897179 4.07849 0
M  V30 1669 N 156.679 -1.44442 0.630414 0
M  V30 1670 C 157.926 -2.02052 0.134617 0
M  V30 1671 C 158.254 -1.49576 -1.24327 0
M  V30 1672 O 157.509 -0.669806 -1.83881 0
M  V30 1673 C 157.808 -3.57332 0.0697835 0
M  V30 1674 C 157.474 -4.29058 1.38635 0
M  V30 1675 C 156.136 -4.4837 1.74694 0
M  V30 1676 C 158.488 -4.69872 2.25543 0
M  V30 1677 C 155.816 -5.05756 2.97369 0
M  V30 1678 C 158.168 -5.28616 3.47487 0
M  V30 1679 C 156.832 -5.46147 3.8377 0
M  V30 1680 H 156.102 -0.739361 0.0492598 0
M  V30 1681 H 158.749 -1.73217 0.816586 0
M  V30 1682 H 157.054 -3.85577 -0.695553 0
M  V30 1683 H 158.751 -3.99637 -0.330344 0
M  V30 1684 H 155.341 -4.14357 1.09574 0
M  V30 1685 H 159.525 -4.54666 1.98979 0
M  V30 1686 H 154.781 -5.17515 3.25558 0
M  V30 1687 H 158.955 -5.59192 4.15063 0
M  V30 1688 H 156.582 -5.9038 4.7891 0
M  V30 1689 N 158.157 -0.370918 -1.53173 0
M  V30 1690 C 159.387 0.217389 -2.05453 0
M  V30 1691 C 159.795 1.42568 -1.24382 0
M  V30 1692 O 159.138 1.81571 -0.278839 0
M  V30 1693 C 159.2 0.669827 -3.53205 0
M  V30 1694 C 158.864 -0.4225 -4.55043 0
M  V30 1695 C 159.861 -1.27407 -5.04047 0
M  V30 1696 C 157.546 -0.58427 -4.9889 0
M  V30 1697 C 159.54 -2.27271 -5.95505 0
M  V30 1698 C 157.227 -1.58627 -5.90153 0
M  V30 1699 C 158.225 -2.42892 -6.38351 0
M  V30 1700 O 157.913 -3.41382 -7.27814 0
M  V30 1701 H 157.645 0.0408171 -0.674767 0
M  V30 1702 H 160.199 -0.5292 -1.98466 0
M  V30 1703 H 158.429 1.4681 -3.57748 0
M  V30 1704 H 160.118 1.18173 -3.88317 0
M  V30 1705 H 160.884 -1.16031 -4.70916 0
M  V30 1706 H 156.763 0.061851 -4.60959 0
M  V30 1707 H 160.307 -2.93079 -6.33049 0
M  V30 1708 H 156.204 -1.70048 -6.22699 0
M  V30 1709 H 156.972 -3.37173 -7.45826 0
M  V30 1710 N 159.635 1.57281 -0.100228 0
M  V30 1711 C 160.567 2.11342 0.886972 0
M  V30 1712 C 161.58 1.05182 1.24261 0
M  V30 1713 O 162.769 1.32613 1.19483 0
M  V30 1714 C 159.869 2.5825 2.19454 0
M  V30 1715 C 159.042 3.88302 2.01346 0
M  V30 1716 C 158.101 4.21004 3.15661 0
M  V30 1717 O 157.127 4.9014 2.89398 0
M  V30 1718 N 158.329 3.76818 4.41575 0
M  V30 1719 H 161.094 2.96668 0.425216 0
M  V30 1720 H 158.655 1.61678 0.0847334 0
M  V30 1721 H 160.647 2.7717 2.94888 0
M  V30 1722 H 159.217 1.77907 2.57037 0
M  V30 1723 H 158.437 3.7848 1.10212 0
M  V30 1724 H 159.725 4.73375 1.8653 0
M  V30 1725 H 159.123 3.2102 4.65792 0
M  V30 1726 H 157.68 4.00882 5.13942 0
M  V30 1727 N 161.113 -0.173488 1.56642 0
M  V30 1728 C 162.529 -0.525174 1.50712 0
M  V30 1729 C 162.729 -1.8476 0.804107 0
M  V30 1730 O 161.785 -2.49869 0.363574 0
M  V30 1731 C 163.098 -0.559937 2.95441 0
M  V30 1732 C 164.646 -0.647288 3.06234 0
M  V30 1733 C 165.121 -0.712963 4.52417 0
M  V30 1734 N 166.612 -0.775911 4.56655 0
M  V30 1735 C 167.347 -0.847264 5.67106 0
M  V30 1736 N 166.843 -0.879585 6.87194 0
M  V30 1737 N 168.636 -0.886117 5.55071 0
M  V30 1738 H 160.787 0.693681 2.00753 0
M  V30 1739 H 163.05 0.249841 0.914485 0
M  V30 1740 H 162.756 0.343049 3.50023 0
M  V30 1741 H 162.63 -1.40718 3.49969 0
M  V30 1742 H 165.017 -1.5407 2.51687 0
M  V30 1743 H 165.098 0.226586 2.54794 0
M  V30 1744 H 164.742 0.176183 5.07594 0
M  V30 1745 H 164.672 -1.60295 5.0161 0
M  V30 1746 H 167.163 -0.759304 3.70193 0
M  V30 1747 H 167.476 -0.935144 7.67121 0
M  V30 1748 H 165.821 -0.847898 6.89808 0
M  V30 1749 H 169.012 -0.857853 4.60172 0
M  V30 1750 H 169.185 -0.938263 6.41171 0
M  V30 1751 N 162.591 -1.51276 -0.441967 0
M  V30 1752 C 163.84 -1.6295 -1.18871 0
M  V30 1753 C 164.153 -0.349312 -1.92456 0
M  V30 1754 O 165.359 -0.345355 -2.69295 0
M  V30 1755 C 163.815 -2.87759 -2.16155 0
M  V30 1756 C 163.423 -4.22764 -1.48239 0
M  V30 1757 C 165.167 -3.08788 -2.91291 0
M  V30 1758 C 163.074 -5.38728 -2.4398 0
M  V30 1759 H 162.004 -0.606913 -0.447406 0
M  V30 1760 H 164.655 -1.77739 -0.456205 0
M  V30 1761 H 163.037 -2.66593 -2.92821 0
M  V30 1762 H 164.211 -4.54293 -0.771635 0
M  V30 1763 H 162.526 -4.07575 -0.852741 0
M  V30 1764 H 165.123 -3.92599 -3.63002 0
M  V30 1765 H 165.466 -2.21679 -3.5237 0
M  V30 1766 H 165.999 -3.30272 -2.21733 0
M  V30 1767 H 162.738 -6.28082 -1.87598 0
M  V30 1768 H 162.258 -5.1158 -3.13123 0
M  V30 1769 H 163.937 -5.70489 -3.05207 0
M  V30 1770 N 164.069 0.697108 -1.41344 0
M  V30 1771 C 165.48 1.27697 -1.36199 0
M  V30 1772 C 165.831 1.9615 -0.0443463 0
M  V30 1773 O 164.956 1.98689 0.857419 0
M  V30 1774 C 165.551 2.32223 -2.46694 0
M  V30 1775 C 164.11 2.8579 -2.44952 0
M  V30 1776 C 163.257 1.59807 -2.26621 0
M  V30 1777 H 166.208 0.491968 -1.50882 0
M  V30 1778 H 166.229 3.1348 -2.15664 0
M  V30 1779 H 165.741 1.82373 -3.42581 0
M  V30 1780 H 163.842 3.3982 -1.52817 0
M  V30 1781 H 163.955 3.36325 -3.41207 0
M  V30 1782 H 162.319 1.8556 -1.7447 0
M  V30 1783 H 163.102 1.11956 -3.24532 0
M  V30 1784 N 165.547 1.27147 0.931209 0
M  V30 1785 C 166.793 1.13446 1.68101 0
M  V30 1786 C 167.126 -0.319628 1.91552 0
M  V30 1787 O 166.401 -1.23407 1.50336 0
M  V30 1788 C 166.684 1.91482 3.0497 0
M  V30 1789 C 166.537 3.44855 2.88782 0
M  V30 1790 C 167.856 1.71651 4.05246 0
M  V30 1791 H 164.975 0.413498 0.610072 0
M  V30 1792 H 167.617 1.56261 1.08086 0
M  V30 1793 H 165.767 1.55095 3.56199 0
M  V30 1794 H 167.439 3.9105 2.44698 0
M  V30 1795 H 165.682 3.71373 2.24198 0
M  V30 1796 H 166.353 3.94694 3.85902 0
M  V30 1797 H 168.829 2.0337 3.63015 0
M  V30 1798 H 167.705 2.28651 4.99009 0
M  V30 1799 H 167.966 0.663555 4.37092 0
M  V30 1800 N 167.025 -1.13721 1.09112 0
M  V30 1801 C 168.273 -1.84559 0.823562 0
M  V30 1802 C 168.594 -1.83754 -0.652658 0
M  V30 1803 O 167.864 -1.29102 -1.47342 0
M  V30 1804 H 166.444 -0.683376 0.301673 0
M  V30 1805 H 169.106 -1.37771 1.37859 0
M  V30 1806 H 168.202 -2.8917 1.17419 0
M  V30 1807 N 168.503 -0.877838 -1.30888 0
M  V30 1808 C 169.453 -0.310872 -2.25871 0
M  V30 1809 C 170.437 0.556596 -1.50966 0
M  V30 1810 O 171.629 0.402187 -1.7237 0
M  V30 1811 C 168.758 0.479821 -3.3993 0
M  V30 1812 C 167.844 -0.401333 -4.22197 0
M  V30 1813 N 168.235 -1.49848 -4.83093 0
M  V30 1814 C 166.533 -0.195167 -4.45573 0
M  V30 1815 C 167.234 -2.0425 -5.44662 0
M  V30 1816 N 166.21 -1.33843 -5.26865 0
M  V30 1817 H 170.012 -1.1493 -2.70496 0
M  V30 1818 H 167.526 -0.726458 -1.45246 0
M  V30 1819 H 169.523 0.902582 -4.07012 0
M  V30 1820 H 168.183 1.31577 -2.96846 0
M  V30 1821 H 169.194 -1.88137 -4.82519 0
M  V30 1822 H 165.871 0.604192 -4.13105 0
M  V30 1823 H 167.261 -2.96345 -6.03017 0
M  V30 1824 N 169.982 1.44106 -0.638065 0
M  V30 1825 C 171.228 2.02277 -0.145546 0
M  V30 1826 C 171.561 1.50125 1.23191 0
M  V30 1827 O 170.836 0.688133 1.8192 0
M  V30 1828 C 171.119 3.59829 -0.139791 0
M  V30 1829 C 170.972 4.22247 -1.55008 0
M  V30 1830 C 172.291 4.36873 0.531966 0
M  V30 1831 H 169.41 0.734992 -0.0543632 0
M  V30 1832 H 172.052 1.71592 -0.815863 0
M  V30 1833 H 170.202 3.86102 0.431007 0
M  V30 1834 H 171.874 4.07057 -2.1703 0
M  V30 1835 H 170.117 3.79476 -2.10191 0
M  V30 1836 H 170.788 5.31284 -1.49804 0
M  V30 1837 H 173.264 4.16074 0.0464781 0
M  V30 1838 H 172.14 5.4657 0.505206 0
M  V30 1839 H 172.401 4.11995 1.60352 0
M  V30 1840 N 171.46 0.379036 1.52974 0
M  V30 1841 C 172.37 -0.468639 2.29872 0
M  V30 1842 C 173.386 -1.08067 1.36373 0
M  V30 1843 O 174.562 -1.08871 1.69438 0
M  V30 1844 C 171.627 -1.58594 3.083 0
M  V30 1845 C 170.688 -1.00007 4.17489 0
M  V30 1846 C 169.921 -2.06413 4.92168 0
M  V30 1847 O 170.144 -3.27751 4.66835 0
M  V30 1848 O 169.078 -1.68717 5.7777 0
M  V30 1849 H 172.904 0.157508 3.03291 0
M  V30 1850 H 170.489 0.143035 1.48714 0
M  V30 1851 H 172.371 -2.23525 3.57232 0
M  V30 1852 H 171.046 -2.19724 2.37703 0
M  V30 1853 H 169.953 -0.314299 3.72777 0
M  V30 1854 H 171.286 -0.433135 4.90291 0
M  V30 1855 N 172.938 -1.57226 0.108567 0
M  V30 1856 C 173.901 -2.13602 -0.831082 0
M  V30 1857 C 174.901 -1.06841 -1.20173 0
M  V30 1858 O 176.091 -1.32666 -1.12895 0
M  V30 1859 C 173.223 -2.66769 -2.12243 0
M  V30 1860 H 174.416 -2.97951 -0.341317 0
M  V30 1861 H 171.969 -1.55667 -0.14057 0
M  V30 1862 H 172.704 -1.85977 -2.65675 0
M  V30 1863 H 172.489 -3.44839 -1.86625 0
M  V30 1864 H 173.979 -3.10332 -2.79435 0
M  V30 1865 N 174.416 0.165178 -1.56732 0
M  V30 1866 C 175.664 0.879068 -1.8198 0
M  V30 1867 C 175.985 1.82514 -0.686561 0
M  V30 1868 O 175.255 1.93694 0.293146 0
M  V30 1869 H 173.835 0.327608 -0.671329 0
M  V30 1870 H 176.497 0.163526 -1.94213 0
M  V30 1871 H 175.593 1.45228 -2.76252 0
M  V30 1872 N 175.894 1.51508 0.433938 0
M  V30 1873 C 176.824 1.76016 1.53429 0
M  V30 1874 C 177.805 0.610112 1.58782 0
M  V30 1875 O 178.99 0.853177 1.74455 0
M  V30 1876 C 176.12 1.88831 2.9148 0
M  V30 1877 C 175.074 3.04288 3.00987 0
M  V30 1878 C 174.4 3.0229 4.4105 0
M  V30 1879 C 175.7 4.44193 2.74754 0
M  V30 1880 H 177.394 2.68152 1.33171 0
M  V30 1881 H 174.94 1.29035 0.639214 0
M  V30 1882 H 176.893 2.04559 3.6842 0
M  V30 1883 H 175.617 0.933455 3.12976 0
M  V30 1884 H 174.276 2.8827 2.26486 0
M  V30 1885 H 173.924 2.04576 4.59519 0
M  V30 1886 H 173.624 3.79822 4.4834 0
M  V30 1887 H 175.148 3.20116 5.1996 0
M  V30 1888 H 176.562 4.60544 3.41426 0
M  V30 1889 H 174.959 5.23457 2.9345 0
M  V30 1890 H 176.029 4.53996 1.70339 0
M  V30 1891 N 177.372 -0.689602 1.41712 0
M  V30 1892 C 178.788 -1.00093 1.24312 0
M  V30 1893 C 178.988 -2.01036 0.136729 0
M  V30 1894 O 178.044 -2.47562 -0.496918 0
M  V30 1895 C 179.357 -1.51985 2.59463 0
M  V30 1896 C 180.905 -1.63838 2.66695 0
M  V30 1897 C 181.38 -2.1913 4.02177 0
M  V30 1898 N 182.871 -2.26483 4.04054 0
M  V30 1899 C 183.606 -2.70306 5.0569 0
M  V30 1900 N 183.102 -3.13691 6.17713 0
M  V30 1901 N 184.895 -2.69923 4.9305 0
M  V30 1902 H 177.046 -0.0210029 2.1239 0
M  V30 1903 H 179.309 -0.0718733 0.945272 0
M  V30 1904 H 179.015 -0.85269 3.41207 0
M  V30 1905 H 178.889 -2.50103 2.82362 0
M  V30 1906 H 181.276 -2.29664 1.85306 0
M  V30 1907 H 181.357 -0.642492 2.476 0
M  V30 1908 H 181.001 -1.53918 4.84016 0
M  V30 1909 H 180.931 -3.19482 4.18615 0
M  V30 1910 H 183.422 -1.95874 3.23174 0
M  V30 1911 H 183.735 -3.45773 6.9113 0
M  V30 1912 H 182.08 -3.11585 6.21241 0
M  V30 1913 H 185.271 -2.35382 4.04614 0
M  V30 1914 H 185.444 -3.03758 5.72394 0
M  V30 1915 N 178.85 -1.27639 -0.924453 0
M  V30 1916 C 180.078 -1.16989 -1.70649 0
M  V30 1917 C 180.493 0.272869 -1.86818 0
M  V30 1918 O 179.85 1.18549 -1.38753 0
M  V30 1919 C 179.901 -1.85229 -3.10439 0
M  V30 1920 O 179.622 -3.23868 -2.95028 0
M  V30 1921 C 181.123 -1.80746 -4.04779 0
M  V30 1922 H 178.343 -0.406595 -0.53378 0
M  V30 1923 H 180.887 -1.68569 -1.15778 0
M  V30 1924 H 179.042 -1.37545 -3.6216 0
M  V30 1925 H 179.456 -3.57889 -3.83426 0
M  V30 1926 H 180.93 -2.33101 -5.00368 0
M  V30 1927 H 181.407 -0.777499 -4.32263 0
M  V30 1928 H 182.013 -2.28059 -3.58984 0
M  V30 1929 N 180.328 1.1314 -1.09713 0
M  V30 1930 C 181.576 1.84119 -0.833338 0
M  V30 1931 C 181.897 1.84097 0.642904 0
M  V30 1932 O 181.167 1.29881 1.46655 0
M  V30 1933 H 179.747 0.681766 -0.305293 0
M  V30 1934 H 182.409 1.37038 -1.38588 0
M  V30 1935 H 181.505 2.88543 -1.18951 0
M  V30 1936 N 181.806 0.884767 1.30421 0
M  V30 1937 C 183.083 0.423185 1.90967 0
M  V30 1938 C 183.463 -1.09605 1.80416 0
M  V30 1939 O 182.811 -1.93126 1.22125 0
M  V30 1940 C 183.021 0.921056 3.36627 0
M  V30 1941 C 184.369 0.955903 4.137 0
M  V30 1942 O 185.393 0.867706 3.4547 0
M  V30 1943 O 184.252 1.08614 5.35598 0
M  V30 1944 H 181.346 0.129369 0.816819 0
M  V30 1945 H 183.892 0.973653 1.3899 0
M  V30 1946 H 182.664 1.96489 3.3839 0
M  V30 1947 H 182.287 0.349741 3.96059 0
M  V30 1948 N 183.284 -1.43765 0.645699 0
M  V30 1949 C 184.214 -2.33471 -0.0370477 0
M  V30 1950 C 185.195 -1.49042 -0.819779 0
M  V30 1951 O 186.38 -1.77726 -0.782758 0
M  V30 1952 C 183.51 -3.32311 -1.0093 0
M  V30 1953 C 182.464 -4.2667 -0.337201 0
M  V30 1954 C 181.79 -5.1549 -1.42037 0
M  V30 1955 C 183.09 -5.16657 0.765706 0
M  V30 1956 H 184.784 -2.90809 0.712069 0
M  V30 1957 H 182.33 -1.39834 0.343876 0
M  V30 1958 H 184.283 -3.9396 -1.49578 0
M  V30 1959 H 183.007 -2.73213 -1.78948 0
M  V30 1960 H 181.666 -3.66374 0.128771 0
M  V30 1961 H 181.314 -4.52735 -2.1918 0
M  V30 1962 H 181.014 -5.79438 -0.975966 0
M  V30 1963 H 182.538 -5.80012 -1.90838 0
M  V30 1964 H 183.952 -5.72158 0.361702 0
M  V30 1965 H 182.349 -5.89286 1.13413 0
M  V30 1966 H 183.419 -4.56796 1.62683 0
M  V30 1967 N 184.763 -0.387143 -1.52771 0
M  V30 1968 C 185.993 0.195585 -2.05672 0
M  V30 1969 C 186.401 1.41241 -1.25887 0
M  V30 1970 O 185.744 1.81265 -0.298081 0
M  V30 1971 C 185.806 0.632327 -3.53895 0
M  V30 1972 C 185.47 -0.470739 -4.54569 0
M  V30 1973 C 186.467 -1.32746 -5.02667 0
M  V30 1974 C 184.152 -0.637151 -4.98243 0
M  V30 1975 C 186.146 -2.33574 -5.93061 0
M  V30 1976 C 183.833 -1.64877 -5.88438 0
M  V30 1977 C 184.831 -2.49649 -6.35739 0
M  V30 1978 O 184.519 -3.49082 -7.24153 0
M  V30 1979 H 184.251 0.033658 -0.675162 0
M  V30 1980 H 186.805 -0.550221 -1.97893 0
M  V30 1981 H 185.035 1.43008 -3.59285 0
M  V30 1982 H 186.724 1.14048 -3.89548 0
M  V30 1983 H 187.49 -1.21019 -4.69659 0
M  V30 1984 H 183.369 0.0129567 -4.60998 0
M  V30 1985 H 186.913 -2.99777 -6.29904 0
M  V30 1986 H 182.81 -1.76643 -6.2086 0
M  V30 1987 H 183.578 -3.45065 -7.42208 0
M  V30 1988 N 186.241 1.57166 -0.116904 0
M  V30 1989 C 187.466 1.999 0.55271 0
M  V30 1990 C 187.891 0.996039 1.59564 0
M  V30 1991 O 187.249 -0.032556 1.81271 0
M  V30 1992 C 187.297 3.4152 1.15742 0
M  V30 1993 O 186.401 3.44106 2.27299 0
M  V30 1994 H 185.742 0.649447 0.138258 0
M  V30 1995 H 188.272 2.03573 -0.204759 0
M  V30 1996 H 188.282 3.79684 1.49346 0
M  V30 1997 H 186.957 4.14034 0.393493 0
M  V30 1998 H 185.534 3.17759 1.9515 0
M  V30 1999 N 187.719 -0.156864 1.56817 0
M  V30 2000 C 189.13 -0.717916 1.72345 0
M  V30 2001 C 189.481 -1.82124 0.729747 0
M  V30 2002 O 188.606 -2.16141 -0.105781 0
M  V30 2003 C 189.201 -1.30904 3.12489 0
M  V30 2004 C 187.76 -1.81676 3.29653 0
M  V30 2005 C 186.907 -0.701349 2.68284 0
M  V30 2006 H 189.858 0.0686989 1.58551 0
M  V30 2007 H 189.879 -2.17882 3.11942 0
M  V30 2008 H 189.391 -0.505796 3.8479 0
M  V30 2009 H 187.492 -2.64598 2.62333 0
M  V30 2010 H 187.605 -1.95226 4.3752 0
M  V30 2011 H 185.969 -1.12548 2.28484 0
M  V30 2012 H 186.752 0.0902846 3.43181 0
M  V30 2013 N 189.197 -1.51736 -0.425897 0
M  V30 2014 C 190.443 -1.66174 -1.17294 0
M  V30 2015 C 190.798 -0.37876 -1.88635 0
M  V30 2016 O 190.091 0.626021 -1.81084 0
M  V30 2017 C 190.285 -2.81103 -2.20717 0
M  V30 2018 C 190.114 -4.20453 -1.59529 0
M  V30 2019 C 188.884 -4.86225 -1.37525 0
M  V30 2020 C 191.082 -5.03146 -1.06528 0
M  V30 2021 N 189.064 -6.09657 -0.720537 0
M  V30 2022 C 190.435 -6.17674 -0.536506 0
M  V30 2023 C 192.49 -4.88594 -0.958127 0
M  V30 2024 C 191.193 -7.19245 0.0888917 0
M  V30 2025 C 193.219 -5.90383 -0.346608 0
M  V30 2026 C 192.581 -7.04191 0.171564 0
M  V30 2027 H 188.68 -0.661871 -0.416475 0
M  V30 2028 H 191.264 -1.88997 -0.467801 0
M  V30 2029 H 189.435 -2.59924 -2.88607 0
M  V30 2030 H 191.167 -2.84662 -2.87663 0
M  V30 2031 H 187.922 -4.44293 -1.64015 0
M  V30 2032 H 188.346 -6.75756 -0.410292 0
M  V30 2033 H 192.988 -4.0085 -1.34459 0
M  V30 2034 H 190.706 -8.06628 0.48746 0
M  V30 2035 H 194.292 -5.81194 -0.265451 0
M  V30 2036 H 193.172 -7.81606 0.637309 0
M  V30 2037 N 190.675 0.682077 -1.42076 0
M  V30 2038 C 192.086 1.26246 -1.37546 0
M  V30 2039 C 192.437 1.96092 -0.0651481 0
M  V30 2040 O 191.562 1.99587 0.836297 0
M  V30 2041 C 192.157 2.29594 -2.49143 0
M  V30 2042 C 190.716 2.83175 -2.47969 0
M  V30 2043 C 189.863 1.57395 -2.28303 0
M  V30 2044 H 192.814 0.475937 -1.51395 0
M  V30 2045 H 192.835 3.11175 -2.18976 0
M  V30 2046 H 192.347 1.78729 -3.44496 0
M  V30 2047 H 190.448 3.3818 -1.56413 0
M  V30 2048 H 190.561 3.32687 -3.44755 0
M  V30 2049 H 188.925 1.83699 -1.76428 0
M  V30 2050 H 189.708 1.08507 -3.25701 0
M  V30 2051 N 192.153 1.28127 0.917671 0
M  V30 2052 C 193.063 1.13556 2.05286 0
M  V30 2053 C 194.079 0.0630914 1.73886 0
M  V30 2054 O 195.255 0.271598 1.9956 0
M  V30 2055 C 192.32 0.794676 3.3747 0
M  V30 2056 C 191.381 1.94909 3.82504 0
M  V30 2057 C 190.614 1.62437 5.0838 0
M  V30 2058 O 190.837 0.536905 5.67867 0
M  V30 2059 O 189.771 2.46677 5.4903 0
M  V30 2060 H 193.597 2.08844 2.20495 0
M  V30 2061 H 191.182 1.07409 1.03845 0
M  V30 2062 H 193.064 0.618344 4.16839 0
M  V30 2063 H 191.739 -0.128581 3.23445 0
M  V30 2064 H 190.646 2.18055 3.03978 0
M  V30 2065 H 191.979 2.85291 4.01086 0
M  V30 2066 N 193.631 -1.12557 1.10312 0
M  V30 2067 C 194.541 -2.21841 0.763142 0
M  V30 2068 C 195.557 -1.72354 -0.238801 0
M  V30 2069 O 196.733 -2.01249 -0.0778746 0
M  V30 2070 C 193.798 -3.46131 0.198632 0
M  V30 2071 C 192.859 -4.10464 1.25769 0
M  V30 2072 C 192.092 -5.28821 0.72002 0
M  V30 2073 O 192.315 -5.6859 -0.453993 0
M  V30 2074 O 191.249 -5.83437 1.47935 0
M  V30 2075 H 195.075 -2.53312 1.67532 0
M  V30 2076 H 192.66 -1.20867 0.878157 0
M  V30 2077 H 194.542 -4.2125 -0.112401 0
M  V30 2078 H 193.217 -3.16338 -0.686419 0
M  V30 2079 H 192.124 -3.3713 1.62156 0
M  V30 2080 H 193.457 -4.44408 2.11571 0
M  V30 2081 N 195.109 -0.891671 -1.2995 0
M  V30 2082 C 196.072 -0.36828 -2.26222 0
M  V30 2083 C 197.072 0.493014 -1.53056 0
M  V30 2084 O 198.262 0.299213 -1.71611 0
M  V30 2085 C 195.394 0.47442 -3.37583 0
M  V30 2086 H 196.587 -1.21844 -2.74033 0
M  V30 2087 H 194.14 -0.669107 -1.41254 0
M  V30 2088 H 194.875 1.34489 -2.95099 0
M  V30 2089 H 194.66 -0.142615 -3.91841 0
M  V30 2090 H 196.15 0.83218 -4.09224 0
M  V30 2091 N 196.587 1.43421 -0.653314 0
M  V30 2092 C 197.535 2.32546 0.0501531 0
M  V30 2093 C 198.529 1.48617 0.812985 0
M  V30 2094 O 199.735 1.64825 0.723375 0
M  V30 2095 H 196.11 0.751185 0.0350032 0
M  V30 2096 H 198.081 2.89602 -0.719261 0
M  V30 2097 C 196.83 3.32925 1.00279 0
M  V30 2098 H 196.153 3.97532 0.425236 0
M  V30 2099 H 197.593 3.9792 1.46409 0
M  V30 2100 C 196.052 2.63532 2.09886 0
M  V30 2101 O 196.582 2.45092 3.18265 0
M  V30 2102 N 194.788 2.22905 1.86445 0
M  V30 2103 H 194.335 2.38103 0.98309 0
M  V30 2104 H 194.293 1.76805 2.59976 0
M  V30 2105 N 198.065 0.39524 1.52563 0
M  V30 2106 C 199.481 0.0454682 1.59535 0
M  V30 2107 C 199.681 -1.44056 1.4089 0
M  V30 2108 O 198.737 -2.20579 1.22888 0
M  V30 2109 C 200.05 0.527963 2.96029 0
M  V30 2110 C 201.598 0.484733 3.09224 0
M  V30 2111 C 202.073 0.943512 4.48176 0
M  V30 2112 N 203.564 0.899765 4.54377 0
M  V30 2113 C 204.299 1.22609 5.60138 0
M  V30 2114 N 203.795 1.62319 6.73516 0
M  V30 2115 N 205.588 1.14696 5.50274 0
M  V30 2116 H 197.739 1.36261 1.62931 0
M  V30 2117 H 200.002 0.558887 0.765735 0
M  V30 2118 H 199.708 1.56607 3.14908 0
M  V30 2119 H 199.582 -0.0698056 3.77135 0
M  V30 2120 H 201.969 -0.544298 2.90037 0
M  V30 2121 H 202.05 1.11838 2.30056 0
M  V30 2122 H 201.694 1.9708 4.68104 0
M  V30 2123 H 201.624 0.286817 5.25818 0
M  V30 2124 H 204.115 0.607632 3.72983 0
M  V30 2125 H 204.428 1.85567 7.5019 0
M  V30 2126 H 202.773 1.66211 6.74833 0
M  V30 2127 H 205.964 0.835701 4.6058 0
M  V30 2128 H 206.137 1.40459 6.32594 0
M  V30 2129 N 199.544 -1.57102 0.125237 0
M  V30 2130 C 200.772 -1.99761 -0.538797 0
M  V30 2131 C 201.187 -1.00503 -1.59827 0
M  V30 2132 O 200.544 0.00119474 -1.825 0
M  V30 2133 C 200.595 -3.42408 -1.15927 0
M  V30 2134 O 200.316 -4.37869 -0.142143 0
M  V30 2135 C 201.817 -4.00232 -1.90602 0
M  V30 2136 H 199.037 -0.655772 -0.14214 0
M  V30 2137 H 201.581 -2.03383 0.213413 0
M  V30 2138 H 199.736 -3.39706 -1.86223 0
M  V30 2139 H 200.15 -5.21128 -0.593775 0
M  V30 2140 H 201.624 -5.02105 -2.29335 0
M  V30 2141 H 202.101 -3.39721 -2.78363 0
M  V30 2142 H 202.707 -4.06499 -1.25055 0
M  V30 2143 N 201.022 0.148545 -1.56898 0
M  V30 2144 C 201.952 1.18524 -2.01182 0
M  V30 2145 C 202.933 1.4489 -0.891123 0
M  V30 2146 O 204.118 1.55836 -1.15882 0
M  V30 2147 C 201.248 2.51879 -2.39112 0
M  V30 2148 C 200.202 2.40038 -3.54353 0
M  V30 2149 C 199.528 3.78089 -3.78091 0
M  V30 2150 C 200.828 1.88577 -4.87069 0
M  V30 2151 H 202.522 0.817029 -2.88036 0
M  V30 2152 H 200.068 0.391575 -1.38574 0
M  V30 2153 H 202.021 3.24627 -2.68692 0
M  V30 2154 H 200.745 2.90532 -1.49193 0
M  V30 2155 H 199.404 1.69742 -3.24936 0
M  V30 2156 H 199.052 4.14175 -2.85426 0
M  V30 2157 H 198.752 3.71028 -4.55645 0
M  V30 2158 H 200.276 4.52387 -4.10095 0
M  V30 2159 H 201.69 2.51117 -5.15377 0
M  V30 2160 H 200.087 1.9241 -5.68417 0
M  V30 2161 H 201.157 0.84136 -4.77545 0
M  V30 2162 N 202.5 1.5196 0.417844 0
M  V30 2163 C 203.728 1.69426 1.18753 0
M  V30 2164 C 204.143 0.399955 1.84515 0
M  V30 2165 O 203.5 -0.623288 1.71527 0
M  V30 2166 C 203.551 2.82375 2.25714 0
M  V30 2167 O 203.272 4.06793 1.62638 0
M  V30 2168 C 204.773 3.11277 3.15628 0
M  V30 2169 H 201.993 0.568031 0.357186 0
M  V30 2170 H 204.537 1.98475 0.49273 0
M  V30 2171 H 202.692 2.5587 2.90877 0
M  V30 2172 H 203.106 4.69667 2.3348 0
M  V30 2173 H 204.58 3.93843 3.86771 0
M  V30 2174 H 205.057 2.24473 3.77503 0
M  V30 2175 H 205.663 3.39515 2.56144 0
M  V30 2176 N 203.978 -0.674533 1.42435 0
M  V30 2177 C 205.226 -1.43175 1.42637 0
M  V30 2178 C 205.547 -1.94951 0.0438992 0
M  V30 2179 O 204.817 -1.7308 -0.917607 0
M  V30 2180 H 203.397 -0.531307 0.525092 0
M  V30 2181 H 206.059 -0.797006 1.77859 0
M  V30 2182 H 205.155 -2.28463 2.12629 0
M  V30 2183 N 205.456 -1.28612 -0.910864 0
M  V30 2184 C 206.406 -1.09423 -2.00026 0
M  V30 2185 C 207.39 -0.0170079 -1.60891 0
M  V30 2186 O 208.582 -0.237472 -1.754 0
M  V30 2187 C 205.711 -0.76114 -3.34756 0
M  V30 2188 C 204.797 -1.87735 -3.80285 0
M  V30 2189 N 205.188 -3.11938 -3.98156 0
M  V30 2190 C 203.486 -1.76786 -4.09467 0
M  V30 2191 C 204.187 -3.84687 -4.36338 0
M  V30 2192 N 203.163 -3.12555 -4.44759 0
M  V30 2193 H 206.965 -2.03658 -2.11898 0
M  V30 2194 H 204.479 -1.19573 -1.09891 0
M  V30 2195 H 206.476 -0.604743 -4.12491 0
M  V30 2196 H 205.136 0.173403 -3.24237 0
M  V30 2197 H 206.147 -3.47516 -3.83996 0
M  V30 2198 H 202.824 -0.905284 -4.07567 0
M  V30 2199 H 204.214 -4.91518 -4.58104 0
M  V30 2200 N 206.934 1.1197 -1.10907 0
M  V30 2201 C 207.864 2.19928 -0.784473 0
M  V30 2202 C 208.845 1.6833 0.244726 0
M  V30 2203 O 210.03 1.93892 0.109418 0
M  V30 2204 C 207.16 3.46597 -0.220827 0
M  V30 2205 C 206.114 4.11376 -1.18127 0
M  V30 2206 C 205.44 5.32554 -0.478594 0
M  V30 2207 C 206.74 4.56945 -2.52979 0
M  V30 2208 H 208.434 2.47337 -1.68715 0
M  V30 2209 H 205.98 1.18879 -0.812642 0
M  V30 2210 H 207.933 4.21396 0.0184278 0
M  V30 2211 H 206.657 3.1863 0.717113 0
M  V30 2212 H 205.316 3.38564 -1.40606 0
M  V30 2213 H 204.964 5.00856 0.463976 0
M  V30 2214 H 204.664 5.76844 -1.11912 0
M  V30 2215 H 206.188 6.10096 -0.248 0
M  V30 2216 H 207.602 5.23093 -2.3462 0
M  V30 2217 H 205.999 5.1203 -3.12962 0
M  V30 2218 H 207.069 3.70676 -3.12614 0
M  V30 2219 N 208.412 0.89855 1.29475 0
M  V30 2220 C 209.375 0.380272 2.26023 0
M  V30 2221 C 210.375 -0.484891 1.53315 0
M  V30 2222 O 211.565 -0.290108 1.71767 0
M  V30 2223 C 208.697 -0.45651 3.3783 0
M  V30 2224 H 209.89 1.23295 2.73383 0
M  V30 2225 H 207.443 0.676589 1.40897 0
M  V30 2226 H 208.178 -1.32922 2.95808 0
M  V30 2227 H 207.963 0.163393 3.91759 0
M  V30 2228 H 209.453 -0.810466 4.0966 0
M  V30 2229 N 209.89 -1.43072 0.660911 0
M  V30 2230 C 210.823 -2.28074 -0.0758862 0
M  V30 2231 C 211.801 -1.40271 -0.822362 0
M  V30 2232 O 212.985 -1.69713 -0.820352 0
M  V30 2233 C 210.112 -3.19843 -1.11437 0
M  V30 2234 C 209.158 -4.23957 -0.465069 0
M  V30 2235 S 209.991 -5.29978 0.767078 0
M  V30 2236 C 211.147 -6.25314 -0.270682 0
M  V30 2237 H 211.38 -2.90216 0.645139 0
M  V30 2238 H 208.913 -1.47697 0.449995 0
M  V30 2239 H 210.871 -3.73257 -1.70849 0
M  V30 2240 H 209.532 -2.56863 -1.80776 0
M  V30 2241 H 208.725 -4.88299 -1.24819 0
M  V30 2242 H 208.327 -3.73959 0.0551242 0
M  V30 2243 H 210.619 -6.67932 -1.13459 0
M  V30 2244 H 211.562 -7.07293 0.337916 0
M  V30 2245 H 211.97 -5.61195 -0.609937 0
M  V30 2246 N 211.368 -0.403325 -1.52352 0
M  V30 2247 C 212.598 0.17376 -2.05868 0
M  V30 2248 C 213.006 1.39898 -1.27378 0
M  V30 2249 O 212.349 1.80939 -0.31729 0
M  V30 2250 C 212.411 0.594756 -3.54546 0
M  V30 2251 C 212.075 -0.518926 -4.54044 0
M  V30 2252 C 213.072 -1.3807 -5.01231 0
M  V30 2253 C 210.757 -0.689961 -4.97539 0
M  V30 2254 C 212.751 -2.39852 -5.90551 0
M  V30 2255 C 210.438 -1.71109 -5.86656 0
M  V30 2256 C 211.436 -2.56378 -6.33056 0
M  V30 2257 O 211.124 -3.56743 -7.20409 0
M  V30 2258 H 210.856 0.0264951 -0.675481 0
M  V30 2259 H 213.41 -0.571179 -1.97299 0
M  V30 2260 H 211.64 1.39189 -3.60782 0
M  V30 2261 H 213.329 1.0991 -3.90736 0
M  V30 2262 H 214.095 -1.25994 -4.68349 0
M  V30 2263 H 209.974 -0.035939 -4.60986 0
M  V30 2264 H 213.518 -3.06441 -6.26689 0
M  V30 2265 H 209.415 -1.83218 -6.18952 0
M  V30 2266 H 210.183 -3.52918 -7.38506 0
M  V30 2267 N 212.846 1.57033 -0.133567 0
M  V30 2268 C 213.796 2.12641 0.822671 0
M  V30 2269 C 214.78 1.05081 1.21847 0
M  V30 2270 O 215.972 1.31287 1.18713 0
M  V30 2271 C 213.101 2.74094 2.06706 0
M  V30 2272 C 212.187 3.88757 1.69497 0
M  V30 2273 N 212.578 4.95194 1.03037 0
M  V30 2274 C 210.876 3.99213 1.98859 0
M  V30 2275 C 211.577 5.75414 0.852873 0
M  V30 2276 N 210.553 5.25726 1.3825 0
M  V30 2277 H 214.355 2.92308 0.305537 0
M  V30 2278 H 211.869 1.62256 0.0684276 0
M  V30 2279 H 213.866 3.12285 2.76195 0
M  V30 2280 H 212.526 1.95896 2.5895 0
M  V30 2281 H 213.537 5.13247 0.692669 0
M  V30 2282 H 210.214 3.32075 2.53047 0
M  V30 2283 H 211.604 6.71089 0.330091 0
M  V30 2284 N 214.325 -0.140222 1.56975 0
M  V30 2285 C 215.572 -0.851687 1.83719 0
M  V30 2286 C 215.9 -1.80862 0.715485 0
M  V30 2287 O 215.155 -1.93464 -0.294956 0
M  V30 2288 C 215.454 -1.65386 3.16832 0
M  V30 2289 C 215.12 -0.843112 4.42947 0
M  V30 2290 C 213.782 -0.619464 4.77196 0
M  V30 2291 C 216.134 -0.276582 5.20466 0
M  V30 2292 C 213.462 0.181312 5.8642 0
M  V30 2293 C 215.814 0.51127 6.30531 0
M  V30 2294 C 214.478 0.745432 6.63325 0
M  V30 2295 H 213.748 -0.311654 0.672274 0
M  V30 2296 H 216.395 -0.115006 1.91154 0
M  V30 2297 H 214.7 -2.46084 3.04877 0
M  V30 2298 H 216.397 -2.20793 3.34741 0
M  V30 2299 H 212.987 -1.0275 4.16101 0
M  V30 2300 H 217.171 -0.436632 4.94376 0
M  V30 2301 H 212.427 0.372165 6.10266 0
M  V30 2302 H 216.601 0.957354 6.89788 0
M  V30 2303 H 214.228 1.36778 7.47794 0
M  V30 2304 N 215.803 -1.52179 -0.40978 0
M  V30 2305 C 217.028 -1.70347 -1.18308 0
M  V30 2306 C 217.453 -0.411887 -1.83535 0
M  V30 2307 O 216.811 0.630587 -1.6998 0
M  V30 2308 C 216.859 -2.83977 -2.22238 0
M  V30 2309 O 215.963 -2.495 -3.28365 0
M  V30 2310 H 215.304 -0.567103 -0.345384 0
M  V30 2311 H 217.834 -1.98879 -0.480445 0
M  V30 2312 H 217.844 -3.0887 -2.66577 0
M  V30 2313 H 216.519 -3.77685 -1.74146 0
M  V30 2314 H 215.096 -2.35277 -2.89308 0
M  V30 2315 N 217.281 0.66697 -1.42791 0
M  V30 2316 C 218.692 1.2478 -1.38877 0
M  V30 2317 C 219.043 1.96012 -0.0859426 0
M  V30 2318 O 218.168 2.00463 0.815081 0
M  V30 2319 C 218.763 2.26938 -2.51564 0
M  V30 2320 C 217.322 2.80529 -2.50959 0
M  V30 2321 C 216.469 1.54965 -2.29959 0
M  V30 2322 H 219.42 0.459853 -1.51892 0
M  V30 2323 H 219.441 3.08834 -2.22265 0
M  V30 2324 H 218.953 1.75065 -3.46372 0
M  V30 2325 H 217.054 3.36502 -1.59991 0
M  V30 2326 H 217.167 3.29012 -3.48265 0
M  V30 2327 H 215.531 1.81817 -1.78366 0
M  V30 2328 H 216.314 1.05047 -3.26833 0
M  V30 2329 N 218.759 1.29093 0.90403 0
M  V30 2330 C 219.987 1.19689 1.68766 0
M  V30 2331 C 220.402 -0.243113 1.87228 0
M  V30 2332 O 219.759 -1.16326 1.40621 0
M  V30 2333 C 219.81 1.90144 3.07453 0
M  V30 2334 O 219.531 3.2852 2.89838 0
M  V30 2335 C 221.032 1.87162 4.01852 0
M  V30 2336 H 218.252 0.415035 0.527244 0
M  V30 2337 H 220.796 1.7039 1.13082 0
M  V30 2338 H 218.951 1.43289 3.59926 0
M  V30 2339 H 219.365 3.63944 3.77684 0
M  V30 2340 H 220.839 2.41032 4.96596 0
M  V30 2341 H 221.316 0.84617 4.30972 0
M  V30 2342 H 221.922 2.33741 3.5531 0
M  V30 2343 N 220.237 -1.11381 1.11499 0
M  V30 2344 C 221.147 -2.21019 0.786628 0
M  V30 2345 C 222.163 -1.72597 -0.220507 0
M  V30 2346 O 223.339 -2.01321 -0.0565251 0
M  V30 2347 C 220.404 -3.459 0.235333 0
M  V30 2348 C 219.465 -4.09107 1.30115 0
M  V30 2349 C 218.698 -5.28027 0.776068 0
M  V30 2350 O 218.921 -5.6904 -0.393661 0
M  V30 2351 O 217.855 -5.81835 1.54114 0
M  V30 2352 H 221.681 -2.51521 1.70209 0
M  V30 2353 H 219.266 -1.19928 0.890928 0
M  V30 2354 H 221.148 -4.21346 -0.067715 0
M  V30 2355 H 219.823 -3.17049 -0.652828 0
M  V30 2356 H 218.73 -3.35391 1.65722 0
M  V30 2357 H 220.063 -4.42139 2.16273 0
M  V30 2358 N 221.715 -0.905404 -1.28997 0
M  V30 2359 C 222.943 -0.549846 -1.9946 0
M  V30 2360 C 223.358 0.866834 -1.67724 0
M  V30 2361 O 222.715 1.57298 -0.925404 0
M  V30 2362 C 222.766 -0.739387 -3.53858 0
M  V30 2363 O 222.487 -2.10031 -3.84472 0
M  V30 2364 C 223.988 -0.389541 -4.41585 0
M  V30 2365 H 221.208 -0.210429 -0.637151 0
M  V30 2366 H 223.752 -1.21632 -1.64396 0
M  V30 2367 H 221.907 -0.120023 -3.87214 0
M  V30 2368 H 222.321 -2.13385 -4.79132 0
M  V30 2369 H 223.795 -0.572972 -5.49018 0
M  V30 2370 H 224.272 0.673756 -4.34001 0
M  V30 2371 H 224.878 -0.986089 -4.1371 0
M  V30 2372 N 223.193 1.4272 -0.668489 0
M  V30 2373 C 224.418 2.06484 -0.194758 0
M  V30 2374 C 224.843 1.49862 1.13679 0
M  V30 2375 O 224.201 0.614582 1.70565 0
M  V30 2376 C 224.249 3.60353 -0.133546 0
M  V30 2377 O 223.353 4.02464 0.899806 0
M  V30 2378 H 222.694 0.656137 -0.10188 0
M  V30 2379 H 225.224 1.82964 -0.915722 0
M  V30 2380 H 225.234 4.07976 0.0447041 0
M  V30 2381 H 223.909 4.00938 -1.1055 0
M  V30 2382 H 222.486 3.66402 0.693109 0
M  V30 2383 N 224.671 0.411399 1.52136 0
M  V30 2384 C 226.087 0.0623865 1.59478 0
M  V30 2385 C 226.287 -1.42554 1.4241 0
M  V30 2386 O 225.343 -2.19263 1.2522 0
M  V30 2387 C 226.656 0.559331 2.95452 0
M  V30 2388 C 228.204 0.517503 3.08692 0
M  V30 2389 C 228.679 0.990994 4.4715 0
M  V30 2390 N 230.17 0.947908 4.53397 0
M  V30 2391 C 230.905 1.28544 5.58806 0
M  V30 2392 N 230.401 1.69454 6.71757 0
M  V30 2393 N 232.194 1.20526 5.49026 0
M  V30 2394 H 224.345 1.37982 1.61477 0
M  V30 2395 H 226.608 0.566977 0.759764 0
M  V30 2396 H 226.314 1.59938 3.1323 0
M  V30 2397 H 226.188 -0.0298014 3.77188 0
M  V30 2398 H 228.575 -0.513505 2.90598 0
M  V30 2399 H 228.656 1.14272 2.28857 0
M  V30 2400 H 228.3 2.02034 4.65988 0
M  V30 2401 H 228.23 0.34257 5.25485 0
M  V30 2402 H 230.721 0.647157 3.72317 0
M  V30 2403 H 231.034 1.93513 7.48179 0
M  V30 2404 H 229.379 1.73359 6.73032 0
M  V30 2405 H 232.57 0.884505 4.59667 0
M  V30 2406 H 232.743 1.47161 6.31069 0
M  V30 2407 N 226.149 -1.5696 0.141893 0
M  V30 2408 C 227.081 -2.13619 -0.830627 0
M  V30 2409 C 228.094 -1.08439 -1.21428 0
M  V30 2410 O 229.283 -1.35734 -1.15925 0
M  V30 2411 C 226.383 -2.63978 -2.12529 0
M  V30 2412 C 225.556 -3.93504 -1.9098 0
M  V30 2413 C 224.615 -4.29225 -3.04388 0
M  V30 2414 O 223.641 -4.97641 -2.76302 0
M  V30 2415 N 224.843 -3.88393 -4.31429 0
M  V30 2416 H 227.608 -2.97691 -0.34641 0
M  V30 2417 H 225.169 -1.61846 -0.0418375 0
M  V30 2418 H 227.161 -2.84891 -2.87436 0
M  V30 2419 H 225.731 -1.84659 -2.52229 0
M  V30 2420 H 224.951 -3.81269 -1.00139 0
M  V30 2421 H 226.239 -4.78154 -1.73914 0
M  V30 2422 H 225.637 -3.33257 -4.57117 0
M  V30 2423 H 224.194 -4.14368 -5.03133 0
M  V30 2424 N 227.627 0.131896 -1.57047 0
M  V30 2425 C 228.575 1.18146 -2.0036 0
M  V30 2426 C 229.569 1.43614 -0.898406 0
M  V30 2427 O 230.775 1.43729 -1.08361 0
M  V30 2428 H 227.15 0.398042 -0.638018 0
M  V30 2429 H 229.121 0.789564 -2.87765 0
M  V30 2430 C 227.87 2.50341 -2.41298 0
M  V30 2431 H 227.193 2.31578 -3.25902 0
M  V30 2432 H 228.633 3.22371 -2.75414 0
M  V30 2433 C 227.092 3.11984 -1.27153 0
M  V30 2434 O 227.622 3.97484 -0.580459 0
M  V30 2435 N 225.828 2.71662 -1.03189 0
M  V30 2436 H 225.375 2.02231 -1.59564 0
M  V30 2437 H 225.333 3.13238 -0.270077 0
M  V30 2438 N 229.106 1.52395 0.401703 0
M  V30 2439 C 230.036 1.79231 1.49661 0
M  V30 2440 C 231.017 0.643654 1.57452 0
M  V30 2441 O 232.202 0.889989 1.72606 0
M  V30 2442 C 229.332 1.94971 2.87409 0
M  V30 2443 C 228.286 3.10604 2.94465 0
M  V30 2444 C 227.612 3.11577 4.34538 0
M  V30 2445 C 228.912 4.49921 2.6527 0
M  V30 2446 H 230.606 2.70917 1.27454 0
M  V30 2447 H 228.152 1.30362 0.6117 0
M  V30 2448 H 230.105 2.12328 3.63999 0
M  V30 2449 H 228.829 0.999632 3.10926 0
M  V30 2450 H 227.488 2.93009 2.20321 0
M  V30 2451 H 227.136 2.14277 4.55076 0
M  V30 2452 H 226.836 3.89247 4.40183 0
M  V30 2453 H 228.36 3.31073 5.13053 0
M  V30 2454 H 229.774 4.67683 3.31581 0
M  V30 2455 H 228.171 5.29564 2.82281 0
M  V30 2456 H 229.241 4.57507 1.60671 0
M  V30 2457 N 230.584 -0.659388 1.43143 0
M  V30 2458 C 231.514 -1.78422 1.50625 0
M  V30 2459 C 232.495 -1.66216 0.361443 0
M  V30 2460 O 233.68 -1.85404 0.577834 0
M  V30 2461 C 230.81 -3.16815 1.42287 0
M  V30 2462 C 229.764 -3.43777 2.54954 0
M  V30 2463 C 229.09 -4.81905 2.31671 0
M  V30 2464 C 230.39 -3.39134 3.97222 0
M  V30 2465 H 232.084 -1.72417 2.44771 0
M  V30 2466 H 229.63 -0.828084 1.17808 0
M  V30 2467 H 231.583 -3.95253 1.46127 0
M  V30 2468 H 230.307 -3.23534 0.446435 0
M  V30 2469 H 228.966 -2.67707 2.50457 0
M  V30 2470 H 228.614 -4.85294 1.32284 0
M  V30 2471 H 228.314 -5.00906 3.07192 0
M  V30 2472 H 229.838 -5.62609 2.37284 0
M  V30 2473 H 231.252 -4.07518 4.03239 0
M  V30 2474 H 229.649 -3.69671 4.72719 0
M  V30 2475 H 230.719 -2.37426 4.22797 0
M  V30 2476 N 232.062 -1.29571 -0.897171 0
M  V30 2477 C 233.478 -1.07637 -1.17841 0
M  V30 2478 C 233.678 0.170713 -2.00776 0
M  V30 2479 O 232.734 0.867768 -2.3712 0
M  V30 2480 C 234.047 -2.3332 -1.8969 0
M  V30 2481 C 235.595 -2.38664 -2.02505 0
M  V30 2482 C 236.07 -3.64157 -2.77765 0
M  V30 2483 N 237.561 -3.64894 -2.85318 0
M  V30 2484 C 238.296 -4.58679 -3.44094 0
M  V30 2485 N 237.792 -5.62799 -4.04017 0
M  V30 2486 N 239.585 -4.46245 -3.41793 0
M  V30 2487 H 231.736 -2.09598 -0.343883 0
M  V30 2488 H 233.999 -0.923333 -0.214848 0
M  V30 2489 H 233.705 -3.24262 -1.36187 0
M  V30 2490 H 233.579 -2.41025 -2.9015 0
M  V30 2491 H 235.966 -1.48208 -2.55183 0
M  V30 2492 H 236.047 -2.34943 -1.01171 0
M  V30 2493 H 235.691 -4.54965 -2.25763 0
M  V30 2494 H 235.621 -3.65137 -3.7945 0
M  V30 2495 H 238.112 -2.89613 -2.42761 0
M  V30 2496 H 238.425 -6.3048 -4.46895 0
M  V30 2497 H 236.77 -5.66605 -4.02472 0
M  V30 2498 H 239.961 -3.64094 -2.94199 0
M  V30 2499 H 240.134 -5.19518 -3.87304 0
M  V30 2500 N 233.54 1.10788 -1.12088 0
M  V30 2501 C 234.45 2.20599 -0.798338 0
M  V30 2502 C 235.466 1.72712 0.21135 0
M  V30 2503 O 236.642 2.01348 0.0458477 0
M  V30 2504 C 233.707 3.45771 -0.253674 0
M  V30 2505 C 232.768 4.08411 -1.32283 0
M  V30 2506 C 232.001 5.27608 -0.80406 0
M  V30 2507 O 232.224 5.69241 0.363478 0
M  V30 2508 O 231.158 5.8101 -1.57198 0
M  V30 2509 H 234.984 2.50614 -1.7154 0
M  V30 2510 H 232.569 1.19454 -0.897275 0
M  V30 2511 H 234.451 4.21376 0.0453691 0
M  V30 2512 H 233.126 3.1739 0.636005 0
M  V30 2513 H 232.033 3.34507 -1.67499 0
M  V30 2514 H 233.366 4.40986 -2.18614 0
M  V30 2515 N 235.018 0.912232 1.28515 0
M  V30 2516 C 235.966 0.389597 2.29314 0
M  V30 2517 C 236.96 -0.517915 1.61289 0
M  V30 2518 O 238.166 -0.399328 1.75515 0
M  V30 2519 H 234.541 0.107386 0.744293 0
M  V30 2520 H 236.512 1.25286 2.70825 0
M  V30 2521 C 235.261 -0.356496 3.45868 0
M  V30 2522 H 234.584 0.332608 3.98414 0
M  V30 2523 H 236.024 -0.686851 4.184 0
M  V30 2524 C 234.483 -1.56383 2.98406 0
M  V30 2525 O 235.013 -2.66294 3.00749 0
M  V30 2526 N 233.219 -1.41029 2.54085 0
M  V30 2527 H 232.766 -0.516089 2.52377 0
M  V30 2528 H 232.724 -2.21939 2.22689 0
M  V30 2529 N 236.496 -1.42363 0.676048 0
M  V30 2530 C 237.742 -2.0182 0.199125 0
M  V30 2531 C 238.075 -1.53339 -1.19168 0
M  V30 2532 O 237.35 -0.736124 -1.80032 0
M  V30 2533 C 237.633 -3.59331 0.235144 0
M  V30 2534 C 237.486 -4.17989 1.66149 0
M  V30 2535 C 238.805 -4.3813 -0.41595 0
M  V30 2536 H 235.924 -0.733293 0.0738311 0
M  V30 2537 H 238.566 -1.69368 0.86107 0
M  V30 2538 H 236.716 -3.87109 -0.328487 0
M  V30 2539 H 238.388 -4.0116 2.27747 0
M  V30 2540 H 236.631 -3.7377 2.20178 0
M  V30 2541 H 237.302 -5.27126 1.63837 0
M  V30 2542 H 239.778 -4.16051 0.0638529 0
M  V30 2543 H 238.654 -5.47717 -0.360115 0
M  V30 2544 H 238.915 -4.16101 -1.49373 0
M  V30 2545 N 237.974 -0.419461 -1.51915 0
M  V30 2546 C 238.937 0.389116 -2.25873 0
M  V30 2547 C 239.937 0.964924 -1.28631 0
M  V30 2548 O 241.127 0.842179 -1.52489 0
M  V30 2549 C 238.259 1.54874 -3.03689 0
M  V30 2550 H 239.452 -0.258799 -2.98781 0
M  V30 2551 H 237.005 -0.172209 -1.55348 0
M  V30 2552 H 237.74 2.23323 -2.35154 0
M  V30 2553 H 237.525 1.14223 -3.75094 0
M  V30 2554 H 239.015 2.12046 -3.59759 0
M  V30 2555 N 239.452 1.56882 -0.150215 0
M  V30 2556 C 240.729 1.87844 0.545327 0
M  V30 2557 C 241.109 1.0567 1.82749 0
M  V30 2558 O 240.457 0.144442 2.28043 0
M  V30 2559 C 240.667 3.39526 0.80767 0
M  V30 2560 C 242.015 4.08814 1.14703 0
M  V30 2561 O 243.039 3.44723 0.896917 0
M  V30 2562 O 241.898 5.22004 1.61784 0
M  V30 2563 H 238.992 0.778677 0.278553 0
M  V30 2564 H 241.538 1.68666 -0.187068 0
M  V30 2565 H 240.31 3.91173 -0.0996096 0
M  V30 2566 H 239.933 3.64243 1.59413 0
M  V30 2567 N 240.93 -0.123565 1.57115 0
M  V30 2568 C 242.155 -0.850398 1.89164 0
M  V30 2569 C 242.58 -1.7286 0.741688 0
M  V30 2570 O 241.938 -1.78665 -0.307958 0
M  V30 2571 C 241.986 -1.66353 3.19936 0
M  V30 2572 O 241.09 -2.77004 3.0552 0
M  V30 2573 H 240.431 -0.235454 0.620852 0
M  V30 2574 H 242.961 -0.107335 2.04318 0
M  V30 2575 H 242.971 -2.05372 3.52543 0
M  V30 2576 H 241.646 -1.01881 4.03228 0
M  V30 2577 H 240.223 -2.41221 2.84371 0
M  V30 2578 N 242.408 -1.52605 -0.393616 0
M  V30 2579 C 243.824 -1.41753 -0.733357 0
M  V30 2580 C 244.024 -0.534293 -1.94287 0
M  V30 2581 O 243.08 -0.0059787 -2.52499 0
M  V30 2582 C 244.393 -2.84531 -0.972772 0
M  V30 2583 C 245.941 -2.93978 -1.07453 0
M  V30 2584 C 246.416 -4.37756 -1.3466 0
M  V30 2585 N 247.907 -4.4106 -1.41492 0
M  V30 2586 C 248.642 -5.49387 -1.642 0
M  V30 2587 N 248.138 -6.67806 -1.8441 0
M  V30 2588 N 249.931 -5.36923 -1.66342 0
M  V30 2589 H 242.082 -2.08555 0.402328 0
M  V30 2590 H 244.345 -0.940654 0.117789 0
M  V30 2591 H 244.051 -3.51353 -0.156204 0
M  V30 2592 H 243.925 -3.26508 -1.88871 0
M  V30 2593 H 246.312 -2.27326 -1.88167 0
M  V30 2594 H 246.393 -2.55435 -0.136605 0
M  V30 2595 H 246.037 -5.04972 -0.544581 0
M  V30 2596 H 245.967 -4.73848 -2.2973 0
M  V30 2597 H 248.458 -3.55705 -1.27601 0
M  V30 2598 H 248.771 -7.46141 -2.01231 0
M  V30 2599 H 247.116 -6.70843 -1.81644 0
M  V30 2600 H 250.307 -4.43381 -1.50102 0
M  V30 2601 H 250.48 -6.21416 -1.837 0
M  V30 2602 N 243.887 0.651787 -1.4349 0
M  V30 2603 C 245.136 1.40754 -1.44469 0
M  V30 2604 C 245.449 1.95463 -0.0731845 0
M  V30 2605 O 246.655 2.71471 0.0395721 0
M  V30 2606 C 245.111 2.54735 -2.5424 0
M  V30 2607 C 244.719 2.06628 -3.97504 0
M  V30 2608 C 246.463 3.32092 -2.64414 0
M  V30 2609 C 244.37 3.17829 -4.98737 0
M  V30 2610 H 243.3 0.528862 -0.53742 0
M  V30 2611 H 245.951 0.703365 -1.69485 0
M  V30 2612 H 244.333 3.2763 -2.22428 0
M  V30 2613 H 245.507 1.40734 -4.38783 0
M  V30 2614 H 243.822 1.42146 -3.91387 0
M  V30 2615 H 246.419 4.14952 -3.37223 0
M  V30 2616 H 246.762 3.80217 -1.69532 0
M  V30 2617 H 247.295 2.66279 -2.95534 0
M  V30 2618 H 244.034 2.74671 -5.95177 0
M  V30 2619 H 243.554 3.82429 -4.62069 0
M  V30 2620 H 245.233 3.82937 -5.21505 0
M  V30 2621 N 245.365 1.30045 0.890287 0
M  V30 2622 C 246.612 1.18561 1.64163 0
M  V30 2623 C 246.94 -0.260852 1.92743 0
M  V30 2624 O 246.195 -1.20376 1.54299 0
M  V30 2625 C 246.494 1.95409 2.99249 0
M  V30 2626 C 246.16 3.45066 2.90242 0
M  V30 2627 C 244.822 3.85878 2.87492 0
M  V30 2628 C 247.174 4.4039 2.78758 0
M  V30 2629 C 244.502 5.20314 2.7109 0
M  V30 2630 C 246.854 5.74928 2.63894 0
M  V30 2631 C 245.518 6.14986 2.59516 0
M  V30 2632 H 244.788 0.433846 0.600715 0
M  V30 2633 H 247.435 1.61088 1.03552 0
M  V30 2634 H 245.74 1.45501 3.63781 0
M  V30 2635 H 247.437 1.8392 3.56334 0
M  V30 2636 H 244.027 3.12631 2.93189 0
M  V30 2637 H 248.211 4.09806 2.79952 0
M  V30 2638 H 243.467 5.50449 2.66112 0
M  V30 2639 H 247.641 6.48434 2.53981 0
M  V30 2640 H 245.268 7.19104 2.46565 0
M  V30 2641 N 246.843 -1.10192 1.12674 0
M  V30 2642 C 248.092 -1.81573 0.8783 0
M  V30 2643 C 248.405 -1.86249 -0.597557 0
M  V30 2644 O 249.611 -2.5386 -0.962681 0
M  V30 2645 C 248.067 -3.26149 1.52167 0
M  V30 2646 C 247.675 -3.29763 3.03249 0
M  V30 2647 C 249.419 -4.0234 1.3536 0
M  V30 2648 C 247.326 -4.68815 3.60508 0
M  V30 2649 H 246.256 -0.680394 0.324931 0
M  V30 2650 H 248.907 -1.23902 1.35353 0
M  V30 2651 H 247.289 -3.83832 0.974104 0
M  V30 2652 H 248.463 -2.8189 3.6452 0
M  V30 2653 H 246.778 -2.67059 3.19481 0
M  V30 2654 H 249.375 -5.05058 1.75559 0
M  V30 2655 H 249.718 -4.15235 0.297554 0
M  V30 2656 H 250.251 -3.51079 1.87052 0
M  V30 2657 H 246.99 -4.61121 4.65884 0
M  V30 2658 H 246.51 -5.17045 3.04014 0
M  V30 2659 H 248.189 -5.37785 3.59717 0
M  V30 2660 N 248.321 -0.919034 -1.28029 0
M  V30 2661 C 249.549 -0.570971 -1.98866 0
M  V30 2662 C 249.964 0.848996 -1.68634 0
M  V30 2663 O 249.321 1.56307 -0.942036 0
M  V30 2664 C 249.372 -0.776876 -3.53054 0
M  V30 2665 O 249.093 -2.14097 -3.82222 0
M  V30 2666 C 250.594 -0.436356 -4.41147 0
M  V30 2667 H 247.814 -0.217175 -0.634883 0
M  V30 2668 H 250.358 -1.23368 -1.63097 0
M  V30 2669 H 248.513 -0.161085 -3.87065 0
M  V30 2670 H 248.927 -2.18455 -4.76841 0
M  V30 2671 H 250.401 -0.63117 -5.4838 0
M  V30 2672 H 250.878 0.627686 -4.34692 0
M  V30 2673 H 251.484 -1.02991 -4.12641 0
M  V30 2674 N 249.799 1.42003 -0.683588 0
M  V30 2675 C 251.047 2.01015 -0.209101 0
M  V30 2676 C 251.368 1.54365 1.19149 0
M  V30 2677 O 250.638 0.769083 1.80172 0
M  V30 2678 H 249.218 0.743294 -0.074315 0
M  V30 2679 H 251.88 1.73798 -0.882066 0
M  V30 2680 H 250.976 3.11343 -0.2172 0
M  V30 2681 N 251.277 0.427512 1.51691 0
M  V30 2682 C 252.225 -0.403359 2.29076 0
M  V30 2683 C 253.219 -1.02962 1.34518 0
M  V30 2684 O 254.425 -0.965715 1.51901 0
M  V30 2685 H 250.8 -0.148879 0.737115 0
M  V30 2686 H 252.771 0.270295 2.97173 0
M  V30 2687 C 251.52 -1.49763 3.13794 0
M  V30 2688 H 250.843 -1.02508 3.86435 0
M  V30 2689 H 252.283 -2.05244 3.71014 0
M  V30 2690 C 250.742 -2.47536 2.28533 0
M  V30 2691 O 251.272 -3.51848 1.93819 0
M  V30 2692 N 249.478 -2.18187 1.91945 0
M  V30 2693 H 249.025 -1.33389 2.20375 0
M  V30 2694 H 248.983 -2.83848 1.35195 0
M  V30 2695 N 252.755 -1.56801 0.158532 0
M  V30 2696 C 253.983 -2.00859 -0.496303 0
M  V30 2697 C 254.398 -1.03871 -1.57659 0
M  V30 2698 O 253.755 -0.0375165 -1.82461 0
M  V30 2699 C 253.806 -3.4479 -1.08638 0
M  V30 2700 O 253.527 -4.38072 -0.0492322 0
M  V30 2701 C 255.028 -4.04185 -1.8207 0
M  V30 2702 H 252.248 -0.65864 -0.128199 0
M  V30 2703 H 254.792 -2.02885 0.256506 0
M  V30 2704 H 252.947 -3.43579 -1.78975 0
M  V30 2705 H 253.361 -5.2227 -0.483102 0
M  V30 2706 H 254.835 -5.06857 -2.18633 0
M  V30 2707 H 255.312 -3.45549 -2.71095 0
M  V30 2708 H 255.918 -4.0906 -1.16405 0
M  V30 2709 N 254.233 0.115231 -1.57178 0
M  V30 2710 C 255.479 0.82357 -1.85325 0
M  V30 2711 C 255.812 1.79349 -0.744814 0
M  V30 2712 O 255.087 1.92899 0.249024 0
M  V30 2713 C 255.37 1.57014 -3.24066 0
M  V30 2714 C 255.223 0.619565 -4.45513 0
M  V30 2715 C 256.542 2.52545 -3.60429 0
M  V30 2716 H 253.661 0.297948 -0.674089 0
M  V30 2717 H 256.303 0.0877138 -1.89797 0
M  V30 2718 H 254.453 2.19742 -3.20383 0
M  V30 2719 H 256.125 0.000837639 -4.613 0
M  V30 2720 H 254.368 -0.0686174 -4.33746 0
M  V30 2721 H 255.039 1.17866 -5.3927 0
M  V30 2722 H 257.515 1.9992 -3.64926 0
M  V30 2723 H 256.391 3.01811 -4.58477 0
M  V30 2724 H 256.652 3.35383 -2.88047 0
M  V30 2725 N 255.711 1.52812 0.385517 0
M  V30 2726 C 256.96 1.67249 1.12741 0
M  V30 2727 C 257.273 0.4205 1.91027 0
M  V30 2728 O 258.479 0.445064 2.67827 0
M  V30 2729 C 256.935 2.95583 2.05326 0
M  V30 2730 C 256.543 4.27974 1.32447 0
M  V30 2731 C 258.287 3.19386 2.7963 0
M  V30 2732 C 256.194 5.47412 2.23818 0
M  V30 2733 H 255.124 0.6231 0.424573 0
M  V30 2734 H 257.775 1.79309 0.389924 0
M  V30 2735 H 256.157 2.77277 2.82725 0
M  V30 2736 H 257.331 4.56844 0.602495 0
M  V30 2737 H 255.646 4.10459 0.700885 0
M  V30 2738 H 258.243 4.05801 3.48181 0
M  V30 2739 H 258.586 2.34604 3.43899 0
M  V30 2740 H 259.119 3.38274 2.09322 0
M  V30 2741 H 255.858 6.34612 1.64157 0
M  V30 2742 H 255.378 5.22849 2.93921 0
M  V30 2743 H 257.057 5.81423 2.83824 0
M  V30 2744 N 257.189 -0.644168 1.43834 0
M  V30 2745 C 258.466 -1.40188 1.36406 0
M  V30 2746 C 258.846 -2.11094 0.0163124 0
M  V30 2747 O 258.194 -2.05426 -1.00062 0
M  V30 2748 C 258.404 -2.3791 2.55343 0
M  V30 2749 C 259.752 -3.01637 2.98832 0
M  V30 2750 O 260.776 -2.48237 2.55455 0
M  V30 2751 O 259.635 -3.98477 3.74003 0
M  V30 2752 H 256.729 -0.626773 0.539523 0
M  V30 2753 H 259.275 -0.670317 1.559 0
M  V30 2754 H 258.047 -1.84525 3.4506 0
M  V30 2755 H 257.67 -3.18503 2.37995 0
M  V30 2756 N 258.668 -1.30515 -0.883378 0
M  V30 2757 C 259.631 -1.1701 -1.97082 0
M  V30 2758 C 260.631 -0.10089 -1.60483 0
M  V30 2759 O 261.821 -0.349127 -1.70666 0
M  V30 2760 C 258.953 -0.793045 -3.31547 0
M  V30 2761 H 260.146 -2.13622 -2.10489 0
M  V30 2762 H 257.699 -1.13935 -1.06998 0
M  V30 2763 H 258.434 0.172499 -3.23841 0
M  V30 2764 H 258.219 -1.56576 -3.5948 0
M  V30 2765 H 259.709 -0.722073 -4.1131 0
M  V30 2766 N 260.146 1.09593 -1.13257 0
M  V30 2767 C 261.076 2.18214 -0.830946 0
M  V30 2768 C 262.057 1.68812 0.208966 0
M  V30 2769 O 263.242 1.9408 0.0682666 0
M  V30 2770 C 260.372 3.46051 -0.294296 0
M  V30 2771 C 259.326 4.08778 -1.26826 0
M  V30 2772 C 258.652 5.31419 -0.591449 0
M  V30 2773 C 259.952 4.51476 -2.62615 0
M  V30 2774 H 261.646 2.43703 -1.73923 0
M  V30 2775 H 259.192 1.17128 -0.837675 0
M  V30 2776 H 261.145 4.2134 -0.0709606 0
M  V30 2777 H 259.869 3.20079 0.649366 0
M  V30 2778 H 258.528 3.35505 -1.47756 0
M  V30 2779 H 258.176 5.01727 0.357633 0
M  V30 2780 H 257.876 5.74341 -1.24123 0
M  V30 2781 H 259.4 6.09433 -0.377355 0
M  V30 2782 H 260.814 5.17999 -2.45663 0
M  V30 2783 H 259.211 5.05277 -3.23752 0
M  V30 2784 H 260.281 3.63962 -3.20406 0
M  V30 2785 N 261.624 0.925811 1.2754 0
M  V30 2786 C 262.554 0.440748 2.29303 0
M  V30 2787 C 263.535 -0.497971 1.62648 0
M  V30 2788 O 264.72 -0.403126 1.8997 0
M  V30 2789 C 261.85 -0.309048 3.45922 0
M  V30 2790 C 260.804 0.54166 4.24559 0
M  V30 2791 C 260.13 -0.337191 5.33636 0
M  V30 2792 C 261.43 1.80516 4.90114 0
M  V30 2793 H 263.124 1.29121 2.70126 0
M  V30 2794 H 260.67 0.622323 1.29858 0
M  V30 2795 H 262.623 -0.659315 4.1621 0
M  V30 2796 H 261.347 -1.19352 3.04011 0
M  V30 2797 H 260.006 0.874609 3.56014 0
M  V30 2798 H 259.654 -1.22056 4.87966 0
M  V30 2799 H 259.354 0.228497 5.87156 0
M  V30 2800 H 260.878 -0.683072 6.06767 0
M  V30 2801 H 262.292 1.52307 5.52698 0
M  V30 2802 H 260.689 2.3142 5.53683 0
M  V30 2803 H 261.759 2.52581 4.13921 0
M  V30 2804 N 263.102 -1.41638 0.69111 0
M  V30 2805 C 264.348 -2.02104 0.229258 0
M  V30 2806 C 264.703 -1.53741 -1.15678 0
M  V30 2807 O 263.996 -0.736849 -1.76865 0
M  V30 2808 C 264.19 -3.56714 0.221277 0
M  V30 2809 C 264.019 -4.20083 1.605 0
M  V30 2810 C 262.789 -4.54566 2.20676 0
M  V30 2811 C 264.987 -4.46587 2.55078 0
M  V30 2812 N 262.969 -5.03199 3.5166 0
M  V30 2813 C 264.34 -4.96946 3.70735 0
M  V30 2814 C 266.395 -4.28593 2.53401 0
M  V30 2815 C 265.098 -5.31203 4.8499 0
M  V30 2816 C 267.124 -4.63936 3.66765 0
M  V30 2817 C 266.486 -5.14463 4.81152 0
M  V30 2818 H 262.585 -0.771256 0.12918 0
M  V30 2819 H 265.169 -1.72251 0.907626 0
M  V30 2820 H 263.34 -3.86051 -0.426562 0
M  V30 2821 H 265.072 -4.03896 -0.254983 0
M  V30 2822 H 261.827 -4.4087 1.73005 0
M  V30 2823 H 262.251 -5.31926 4.18789 0
M  V30 2824 H 266.893 -3.88771 1.66184 0
M  V30 2825 H 264.611 -5.69951 5.72871 0
M  V30 2826 H 268.197 -4.51677 3.66714 0
M  V30 2827 H 267.077 -5.41299 5.67419 0
M  V30 2828 N 264.58 -0.43555 -1.51462 0
M  V30 2829 C 265.826 0.131709 -2.02372 0
M  V30 2830 C 266.159 1.42516 -1.3192 0
M  V30 2831 O 265.434 1.89606 -0.433573 0
M  V30 2832 C 265.717 0.352301 -3.58373 0
M  V30 2833 C 265.57 -0.959676 -4.39443 0
M  V30 2834 C 266.889 1.12286 -4.25535 0
M  V30 2835 H 264.008 0.0463936 -0.735538 0
M  V30 2836 H 266.65 -0.574197 -1.81116 0
M  V30 2837 H 264.8 0.9536 -3.76615 0
M  V30 2838 H 266.472 -1.59482 -4.32855 0
M  V30 2839 H 264.715 -1.56468 -4.04599 0
M  V30 2840 H 265.386 -0.759394 -5.46752 0
M  V30 2841 H 267.862 0.613545 -4.11552 0
M  V30 2842 H 266.738 1.24598 -5.34571 0
M  V30 2843 H 266.999 2.15048 -3.86273 0
M  V30 2844 N 266.058 1.56714 -0.166846 0
M  V30 2845 C 267.474 1.58473 0.189372 0
M  V30 2846 C 267.674 1.18201 1.63189 0
M  V30 2847 O 266.73 0.891528 2.36237 0
M  V30 2848 C 268.043 3.00573 -0.0873872 0
M  V30 2849 C 269.591 3.1299 -0.0252443 0
M  V30 2850 C 270.066 4.57174 -0.274934 0
M  V30 2851 N 271.557 4.62665 -0.222553 0
M  V30 2852 C 272.292 5.72072 -0.389985 0
M  V30 2853 N 271.788 6.90054 -0.616229 0
M  V30 2854 N 273.581 5.61153 -0.326202 0
M  V30 2855 H 265.732 1.8118 -1.10849 0
M  V30 2856 H 267.995 0.839525 -0.440342 0
M  V30 2857 H 267.701 3.34497 -1.0865 0
M  V30 2858 H 267.575 3.72019 0.623037 0
M  V30 2859 H 269.962 2.78895 0.96444 0
M  V30 2860 H 270.043 2.43989 -0.768309 0
M  V30 2861 H 269.687 4.91976 -1.26181 0
M  V30 2862 H 269.617 5.24328 0.48869 0
M  V30 2863 H 272.108 3.77863 -0.0531512 0
M  V30 2864 H 272.421 7.69311 -0.733559 0
M  V30 2865 H 270.766 6.91927 -0.652791 0
M  V30 2866 H 273.957 4.67859 -0.150072 0
M  V30 2867 H 274.13 6.46364 -0.460116 0
M  V30 2868 N 267.536 -0.106894 1.57237 0
M  V30 2869 C 268.813 -0.843526 1.76477 0
M  V30 2870 C 269.193 -1.97499 0.745464 0
M  V30 2871 O 268.541 -2.27357 -0.228306 0
M  V30 2872 C 268.751 -1.34903 3.21873 0
M  V30 2873 C 270.099 -1.79654 3.8472 0
M  V30 2874 O 271.123 -1.44554 3.2555 0
M  V30 2875 O 269.982 -2.44515 4.88748 0
M  V30 2876 H 267.076 -0.401468 0.723016 0
M  V30 2877 H 269.622 -0.0896927 1.69463 0
M  V30 2878 H 268.394 -0.53781 3.87586 0
M  V30 2879 H 268.017 -2.16522 3.33473 0
M  V30 2880 N 269.014 -1.53014 -0.377408 0
M  V30 2881 C 269.946 -1.74884 -1.48149 0
M  V30 2882 C 270.959 -0.629433 -1.5014 0
M  V30 2883 O 272.148 -0.905416 -1.53833 0
M  V30 2884 C 269.248 -1.80299 -2.86959 0
M  V30 2885 C 268.421 -3.09776 -3.08801 0
M  V30 2886 C 267.48 -3.06586 -4.27658 0
M  V30 2887 O 266.506 -3.80419 -4.23403 0
M  V30 2888 N 267.708 -2.26578 -5.34455 0
M  V30 2889 H 270.473 -2.70147 -1.29771 0
M  V30 2890 H 268.034 -1.51646 -0.56703 0
M  V30 2891 H 270.026 -1.75657 -3.64591 0
M  V30 2892 H 268.596 -0.92372 -2.98641 0
M  V30 2893 H 267.816 -3.27815 -2.18931 0
M  V30 2894 H 269.104 -3.95366 -3.20255 0
M  V30 2895 H 268.502 -1.66081 -5.40771 0
M  V30 2896 H 267.059 -2.27766 -6.10709 0
M  V30 2897 N 270.492 0.636531 -1.44174 0
M  V30 2898 C 271.738 1.39826 -1.4689 0
M  V30 2899 C 272.071 1.93947 -0.0990585 0
M  V30 2900 O 271.346 1.73325 0.882544 0
M  V30 2901 C 271.629 2.56751 -2.5249 0
M  V30 2902 C 271.482 2.08014 -3.98811 0
M  V30 2903 C 272.801 3.58946 -2.54649 0
M  V30 2904 H 269.92 0.507075 -0.53483 0
M  V30 2905 H 272.562 0.720188 -1.75822 0
M  V30 2906 H 270.712 3.14597 -2.2795 0
M  V30 2907 H 272.384 1.5504 -4.34466 0
M  V30 2908 H 270.627 1.39242 -4.10846 0
M  V30 2909 H 271.298 2.92169 -4.68339 0
M  V30 2910 H 273.774 3.1089 -2.76563 0
M  V30 2911 H 272.65 4.38286 -3.3045 0
M  V30 2912 H 272.911 4.12655 -1.58646 0
M  V30 2913 N 271.97 1.30982 0.876444 0
M  V30 2914 C 272.903 1.12414 1.98591 0
M  V30 2915 C 273.881 0.0294078 1.62573 0
M  V30 2916 O 275.065 0.184598 1.87594 0
M  V30 2917 C 272.192 0.716276 3.3104 0
M  V30 2918 C 271.238 1.81311 3.86042 0
M  V30 2919 S 272.071 3.41727 4.1229 0
M  V30 2920 C 273.227 3.02863 5.47745 0
M  V30 2921 H 273.46 2.06338 2.14037 0
M  V30 2922 H 270.993 1.15393 1.02586 0
M  V30 2923 H 272.951 0.487697 4.07593 0
M  V30 2924 H 271.612 -0.203749 3.13438 0
M  V30 2925 H 270.805 1.48021 4.81774 0
M  V30 2926 H 270.407 1.99641 3.16259 0
M  V30 2927 H 272.699 2.51353 6.29148 0
M  V30 2928 H 273.642 3.97533 5.8598 0
M  V30 2929 H 274.05 2.40487 5.10711 0
M  V30 2930 N 273.449 -1.08991 1.13837 0
M  V30 2931 C 274.674 -1.85551 0.926585 0
M  V30 2932 C 275.099 -1.80782 -0.519566 0
M  V30 2933 O 274.457 -1.18855 -1.36906 0
M  V30 2934 C 274.505 -3.31266 1.42462 0
M  V30 2935 O 273.609 -4.07822 0.612789 0
M  V30 2936 H 272.95 -0.575192 0.331738 0
M  V30 2937 H 275.48 -1.37604 1.51414 0
M  V30 2938 H 275.49 -3.82112 1.43019 0
M  V30 2939 H 274.165 -3.34052 2.47754 0
M  V30 2940 H 272.742 -3.66731 0.675463 0
M  V30 2941 N 274.927 -0.932562 -1.27047 0
M  V30 2942 C 276.152 -0.591474 -1.98787 0
M  V30 2943 C 276.577 0.824601 -1.69062 0
M  V30 2944 O 275.935 1.5541 -0.933677 0
M  V30 2945 C 275.983 -0.829808 -3.50922 0
M  V30 2946 O 275.087 0.102266 -4.12273 0
M  V30 2947 H 274.428 -0.227185 -0.623926 0
M  V30 2948 H 276.958 -1.25314 -1.61733 0
M  V30 2949 H 276.968 -0.747292 -4.01098 0
M  V30 2950 H 275.643 -1.86201 -3.7189 0
M  V30 2951 H 274.22 -0.0305761 -3.72887 0
M  V30 2952 N 276.405 1.4127 -0.698611 0
M  V30 2953 C 277.682 1.94955 -0.158762 0
M  V30 2954 C 278.062 1.63781 1.33188 0
M  V30 2955 O 277.41 0.946423 2.07979 0
M  V30 2956 C 277.62 3.46044 -0.453309 0
M  V30 2957 C 278.968 4.22872 -0.382707 0
M  V30 2958 O 279.992 3.54076 -0.388396 0
M  V30 2959 O 278.851 5.45407 -0.345463 0
M  V30 2960 H 275.945 0.82683 -0.0167505 0
M  V30 2961 H 278.491 1.50971 -0.77498 0
M  V30 2962 H 277.263 3.62028 -1.48498 0
M  V30 2963 H 276.886 3.97128 0.19373 0
M  V30 2964 N 277.883 0.443576 1.51229 0
M  V30 2965 C 278.83 -0.364716 2.279 0
M  V30 2966 C 279.8 -1.0114 1.31757 0
M  V30 2967 O 280.985 -1.02912 1.60667 0
M  V30 2968 C 278.125 -1.45644 3.12861 0
M  V30 2969 C 277.238 -0.827269 4.24005 0
M  V30 2970 C 276.373 -1.89456 4.96266 0
M  V30 2971 C 275.412 -1.24416 5.99322 0
M  V30 2972 N 274.549 -2.25309 6.64966 0
M  V30 2973 H 279.389 0.295464 2.96532 0
M  V30 2974 H 276.926 0.157554 1.46254 0
M  V30 2975 H 278.884 -2.10076 3.6045 0
M  V30 2976 H 277.514 -2.08616 2.46331 0
M  V30 2977 H 276.566 -0.0710839 3.80334 0
M  V30 2978 H 277.878 -0.312481 4.9782 0
M  V30 2979 H 277.032 -2.61535 5.47434 0
M  V30 2980 H 275.771 -2.4431 4.22095 0
M  V30 2981 H 274.776 -0.508868 5.4744 0
M  V30 2982 H 276.001 -0.702882 6.75453 0
M  V30 2983 H 273.947 -2.79231 5.93604 0
M  V30 2984 H 273.864 -1.78739 7.34567 0
M  V30 2985 H 275.132 -2.96853 7.20763 0
M  V30 2986 N 279.361 -1.56624 0.175154 0
M  V30 2987 C 280.291 -2.21155 -0.749195 0
M  V30 2988 C 281.272 -1.16836 -1.23626 0
M  V30 2989 O 282.457 -1.45277 -1.28873 0
M  V30 2990 C 279.587 -2.8553 -1.97711 0
M  V30 2991 C 278.541 -3.95921 -1.62575 0
M  V30 2992 C 277.867 -4.47365 -2.92864 0
M  V30 2993 C 279.167 -5.15323 -0.850838 0
M  V30 2994 H 280.861 -2.98653 -0.211295 0
M  V30 2995 H 278.407 -1.43651 -0.100188 0
M  V30 2996 H 280.36 -3.2935 -2.62881 0
M  V30 2997 H 279.084 -2.05406 -2.53921 0
M  V30 2998 H 277.743 -3.52762 -0.997719 0
M  V30 2999 H 277.391 -3.64027 -3.47122 0
M  V30 3000 H 277.091 -5.21839 -2.70106 0
M  V30 3001 H 278.615 -4.93873 -3.59056 0
M  V30 3002 H 280.029 -5.55812 -1.40521 0
M  V30 3003 H 278.426 -5.95739 -0.722154 0
M  V30 3004 H 279.496 -4.84661 0.152082 0
M  V30 3005 N 280.839 0.0985539 -1.57292 0
M  V30 3006 C 282.255 0.45267 -1.53046 0
M  V30 3007 C 282.455 1.80713 -0.891342 0
M  V30 3008 O 281.511 2.4785 -0.482375 0
M  V30 3009 C 282.824 0.418341 -2.97776 0
M  V30 3010 C 284.372 0.500443 -3.08973 0
M  V30 3011 C 284.847 0.496297 -4.55303 0
M  V30 3012 N 286.338 0.557151 -4.59837 0
M  V30 3013 C 287.073 0.575726 -5.70502 0
M  V30 3014 N 286.569 0.550714 -6.90608 0
M  V30 3015 N 288.362 0.620277 -5.58667 0
M  V30 3016 H 280.513 -0.788673 -1.97215 0
M  V30 3017 H 282.776 -0.293188 -0.901524 0
M  V30 3018 H 282.482 -0.509659 -3.47988 0
M  V30 3019 H 282.356 1.2386 -3.56284 0
M  V30 3020 H 284.743 1.41886 -2.58751 0
M  V30 3021 H 284.824 -0.347894 -2.53423 0
M  V30 3022 H 284.468 -0.418162 -5.06176 0
M  V30 3023 H 284.398 1.3618 -5.08687 0
M  V30 3024 H 286.889 0.581816 -3.73394 0
M  V30 3025 H 287.202 0.568075 -7.70709 0
M  V30 3026 H 285.547 0.517816 -6.93068 0
M  V30 3027 H 288.738 0.637322 -4.63741 0
M  V30 3028 H 288.911 0.631283 -6.44918 0
M  V30 3029 N 282.317 1.53212 0.369288 0
M  V30 3030 C 283.542 1.73423 1.1375 0
M  V30 3031 C 283.967 0.460404 1.82378 0
M  V30 3032 O 283.325 -0.585298 1.71592 0
M  V30 3033 C 283.373 2.89769 2.1463 0
M  V30 3034 O 282.477 2.58119 3.21634 0
M  V30 3035 H 281.818 0.576061 0.330227 0
M  V30 3036 H 284.348 2.00083 0.427547 0
M  V30 3037 H 284.358 3.15829 2.58294 0
M  V30 3038 H 283.033 3.8217 1.64071 0
M  V30 3039 H 281.61 2.42864 2.82969 0
M  V30 3040 N 283.795 -0.628877 1.44509 0
M  V30 3041 C 284.705 -1.7694 1.54044 0
M  V30 3042 C 285.721 -1.68705 0.425987 0
M  V30 3043 O 286.897 -1.89442 0.683656 0
M  V30 3044 C 283.962 -3.13332 1.48405 0
M  V30 3045 C 283.023 -3.33181 2.70719 0
M  V30 3046 C 282.256 -4.63067 2.6534 0
M  V30 3047 O 282.479 -5.44017 1.71469 0
M  V30 3048 O 281.413 -4.85167 3.56226 0
M  V30 3049 H 285.239 -1.71848 2.50403 0
M  V30 3050 H 282.824 -0.790378 1.26781 0
M  V30 3051 H 284.706 -3.94634 1.47791 0
M  V30 3052 H 283.381 -3.1896 0.551898 0
M  V30 3053 H 282.288 -2.51549 2.769 0
M  V30 3054 H 283.621 -3.32416 3.62988 0
M  V30 3055 N 285.273 -1.31445 -0.869486 0
M  V30 3056 C 286.203 -1.21727 -1.99261 0
M  V30 3057 C 287.184 -0.104359 -1.6978 0
M  V30 3058 O 288.369 -0.289038 -1.92037 0
M  V30 3059 C 285.499 -0.924317 -3.34774 0
M  V30 3060 C 284.453 -1.99685 -3.78563 0
M  V30 3061 C 283.779 -1.55658 -5.11541 0
M  V30 3062 C 285.079 -3.41003 -3.95619 0
M  V30 3063 H 286.773 -2.1569 -2.07649 0
M  V30 3064 H 284.319 -1.03839 -0.997675 0
M  V30 3065 H 286.272 -0.842934 -4.12883 0
M  V30 3066 H 284.996 0.0509793 -3.2656 0
M  V30 3067 H 283.655 -2.06813 -3.02694 0
M  V30 3068 H 283.303 -0.569132 -4.9977 0
M  V30 3069 H 283.003 -2.27409 -5.41811 0
M  V30 3070 H 284.527 -1.48928 -5.92159 0
M  V30 3071 H 285.941 -3.36547 -4.64122 0
M  V30 3072 H 284.338 -4.10975 -4.37286 0
M  V30 3073 H 285.408 -3.81754 -2.98985 0
M  V30 3074 N 286.751 1.08385 -1.14413 0
M  V30 3075 C 287.714 2.13486 -0.834048 0
M  V30 3076 C 288.714 1.59988 0.161418 0
M  V30 3077 O 289.904 1.74071 -0.0669575 0
M  V30 3078 C 287.036 3.4003 -0.243354 0
M  V30 3079 H 288.229 2.42425 -1.7655 0
M  V30 3080 H 285.782 1.24101 -0.950189 0
M  V30 3081 H 286.517 3.16726 0.696807 0
M  V30 3082 H 286.302 3.80157 -0.960367 0
M  V30 3083 H 287.792 4.17577 -0.0436242 0
M  V30 3084 N 288.23 0.939286 1.26551 0
M  V30 3085 C 289.193 0.451987 2.24699 0
M  V30 3086 C 290.193 -0.435869 1.5478 0
M  V30 3087 O 291.383 -0.235314 1.72603 0
M  V30 3088 C 288.515 -0.348801 3.39111 0
M  V30 3089 H 289.708 1.3193 2.69322 0
M  V30 3090 H 287.261 0.721072 1.38673 0
M  V30 3091 H 287.996 -1.23444 2.99887 0
M  V30 3092 H 287.781 0.287945 3.91041 0
M  V30 3093 H 289.271 -0.679726 4.12031 0
M  V30 3094 N 289.708 -1.40897 0.706093 0
M  V30 3095 C 290.656 -2.32572 0.0361893 0
M  V30 3096 C 291.65 -1.51532 -0.757266 0
M  V30 3097 O 292.856 -1.67396 -0.661703 0
M  V30 3098 H 289.231 -0.751966 -0.00709935 0
M  V30 3099 H 291.202 -2.86733 0.826249 0
M  V30 3100 C 289.951 -3.36418 -0.87854 0
M  V30 3101 H 289.274 -3.98836 -0.277401 0
M  V30 3102 H 290.714 -4.0308 -1.3154 0
M  V30 3103 C 289.173 -2.71141 -1.99961 0
M  V30 3104 O 289.703 -2.56735 -3.0895 0
M  V30 3105 N 287.909 -2.29671 -1.78043 0
M  V30 3106 H 287.456 -2.41588 -0.894042 0
M  V30 3107 H 287.414 -1.86332 -2.53235 0
M  V30 3108 N 291.186 -0.45159 -1.50991 0
M  V30 3109 C 292.416 0.108177 -2.06317 0
M  V30 3110 C 292.824 1.35774 -1.31765 0
M  V30 3111 O 292.167 1.79838 -0.374694 0
M  V30 3112 C 292.229 0.481659 -3.56259 0
M  V30 3113 C 291.893 -0.663114 -4.52163 0
M  V30 3114 C 292.89 -1.53947 -4.96585 0
M  V30 3115 C 290.575 -0.8479 -4.95092 0
M  V30 3116 C 292.569 -2.58518 -5.82621 0
M  V30 3117 C 290.256 -1.89686 -5.80915 0
M  V30 3118 C 291.254 -2.76388 -6.24579 0
M  V30 3119 O 290.942 -3.79482 -7.08695 0
M  V30 3120 H 290.674 0.00499183 -0.675982 0
M  V30 3121 H 293.228 -0.633659 -1.95381 0
M  V30 3122 H 291.458 1.27641 -3.65027 0
M  V30 3123 H 293.147 0.974233 -3.94035 0
M  V30 3124 H 293.913 -1.4083 -4.64103 0
M  V30 3125 H 289.792 -0.18258 -4.60638 0
M  V30 3126 H 293.336 -3.26224 -6.16623 0
M  V30 3127 H 289.233 -2.02817 -6.12809 0
M  V30 3128 H 290.001 -3.76234 -7.26905 0
M  V30 3129 N 292.664 1.56529 -0.183458 0
M  V30 3130 C 294.075 1.83739 0.331177 0
M  V30 3131 C 294.426 1.10373 1.62211 0
M  V30 3132 O 293.551 0.36071 2.13373 0
M  V30 3133 C 294.146 3.33306 0.607646 0
M  V30 3134 C 292.705 3.60969 1.06668 0
M  V30 3135 C 291.852 2.77086 0.109029 0
M  V30 3136 H 294.803 1.53379 -0.407484 0
M  V30 3137 H 294.824 3.51444 1.45832 0
M  V30 3138 H 294.336 3.86677 -0.332086 0
M  V30 3139 H 292.437 3.13021 2.0211 0
M  V30 3140 H 292.55 4.69231 0.967447 0
M  V30 3141 H 290.914 2.47319 0.608714 0
M  V30 3142 H 291.697 3.33241 -0.82494 0
M  V30 3143 N 294.142 -0.090211 1.57342 0
M  V30 3144 C 295.389 -0.792807 1.86335 0
M  V30 3145 C 295.717 -1.78494 0.772662 0
M  V30 3146 O 294.972 -1.94305 -0.233258 0
M  V30 3147 C 295.271 -1.55222 3.21933 0
M  V30 3148 C 294.937 -0.701765 4.45406 0
M  V30 3149 C 293.599 -0.467334 4.78925 0
M  V30 3150 C 295.951 -0.11086 5.21082 0
M  V30 3151 C 293.279 0.367785 5.85546 0
M  V30 3152 C 295.631 0.711609 6.28585 0
M  V30 3153 C 294.295 0.956086 6.60617 0
M  V30 3154 H 293.565 -0.290109 0.681849 0
M  V30 3155 H 296.212 -0.0541332 1.91423 0
M  V30 3156 H 294.517 -2.3626 3.12551 0
M  V30 3157 H 296.214 -2.10032 3.41595 0
M  V30 3158 H 292.804 -0.894598 4.1916 0
M  V30 3159 H 296.988 -0.279129 4.95514 0
M  V30 3160 H 292.244 0.566128 6.08773 0
M  V30 3161 H 296.418 1.17632 6.86393 0
M  V30 3162 H 294.045 1.60499 7.43064 0
M  V30 3163 N 295.62 -1.53406 -0.361157 0
M  V30 3164 C 296.869 -1.69022 -1.10066 0
M  V30 3165 C 297.182 -0.450838 -1.90333 0
M  V30 3166 O 298.388 -0.487617 -2.67085 0
M  V30 3167 C 296.844 -2.98812 -2.00598 0
M  V30 3168 C 296.452 -4.30027 -1.25621 0
M  V30 3169 C 298.196 -3.23795 -2.74513 0
M  V30 3170 C 296.103 -5.50903 -2.1508 0
M  V30 3171 H 295.033 -0.629776 -0.414606 0
M  V30 3172 H 297.684 -1.79907 -0.361348 0
M  V30 3173 H 296.066 -2.8174 -2.78278 0
M  V30 3174 H 297.24 -4.57745 -0.529739 0
M  V30 3175 H 295.555 -4.11522 -0.635496 0
M  V30 3176 H 298.152 -4.11289 -3.41681 0
M  V30 3177 H 298.495 -2.40045 -3.40123 0
M  V30 3178 H 299.028 -3.41561 -2.03914 0
M  V30 3179 H 295.767 -6.37143 -1.54041 0
M  V30 3180 H 295.287 -5.27459 -2.85565 0
M  V30 3181 H 296.966 -5.85865 -2.74538 0
M  V30 3182 N 297.098 0.621204 -1.44841 0
M  V30 3183 C 298.375 1.38 -1.38619 0
M  V30 3184 C 298.755 2.11041 -0.0498935 0
M  V30 3185 O 298.103 2.06992 0.967816 0
M  V30 3186 C 298.313 2.33817 -2.59096 0
M  V30 3187 C 299.661 2.96844 -3.03593 0
M  V30 3188 O 300.685 2.44141 -2.59371 0
M  V30 3189 O 299.544 3.92476 -3.80296 0
M  V30 3190 H 296.638 0.61811 -0.549426 0
M  V30 3191 H 299.184 0.645429 -1.56947 0
M  V30 3192 H 297.956 1.79012 -3.47952 0
M  V30 3193 H 297.579 3.14676 -2.43032 0
M  V30 3194 N 298.576 1.31904 0.862503 0
M  V30 3195 C 299.987 1.19803 1.43193 0
M  V30 3196 C 300.338 -0.192567 1.95253 0
M  V30 3197 O 299.463 -1.09081 1.86896 0
M  V30 3198 C 300.058 2.16883 2.60283 0
M  V30 3199 C 298.617 2.08692 3.13248 0
M  V30 3200 C 297.764 2.05691 1.85975 0
M  V30 3201 H 300.715 1.43846 0.670365 0
M  V30 3202 H 300.736 1.76278 3.37204 0
M  V30 3203 H 300.248 3.18083 2.22363 0
M  V30 3204 H 298.349 1.10713 3.55771 0
M  V30 3205 H 298.462 2.9815 3.75025 0
M  V30 3206 H 296.826 1.50814 2.05249 0
M  V30 3207 H 297.609 3.08659 1.50282 0
M  V30 3208 N 300.054 -1.07777 1.14986 0
M  V30 3209 C 301.331 -1.7699 0.832695 0
M  V30 3210 C 301.711 -2.001 -0.672561 0
M  V30 3211 O 301.059 -1.61598 -1.6155 0
M  V30 3212 C 301.269 -3.08139 1.63863 0
M  V30 3213 C 302.617 -3.8256 1.84208 0
M  V30 3214 O 303.641 -3.17939 1.60603 0
M  V30 3215 O 302.5 -4.98612 2.23714 0
M  V30 3216 H 299.594 -0.768389 0.305791 0
M  V30 3217 H 302.14 -1.14182 1.25541 0
M  V30 3218 H 300.912 -2.86909 2.6608 0
M  V30 3219 H 300.535 -3.78678 1.21197 0
M  V30 3220 N 301.532 -0.945985 -1.26051 0
M  V30 3221 C 302.479 -0.45809 -2.26208 0
M  V30 3222 C 303.449 0.484816 -1.58867 0
M  V30 3223 O 304.634 0.399969 -1.86561 0
M  V30 3224 C 301.774 0.266131 -3.44072 0
M  V30 3225 C 300.887 -0.713005 -4.26075 0
M  V30 3226 C 300.022 0.0329013 -5.3119 0
M  V30 3227 C 299.061 -0.93774 -6.04874 0
M  V30 3228 N 298.198 -0.223274 -7.01745 0
M  V30 3229 H 303.038 -1.3171 -2.67313 0
M  V30 3230 H 300.575 -0.66069 -1.31428 0
M  V30 3231 H 302.533 0.702514 -4.11243 0
M  V30 3232 H 301.163 1.08925 -3.03867 0
M  V30 3233 H 300.215 -1.26789 -3.58648 0
M  V30 3234 H 301.527 -1.45406 -4.77136 0
M  V30 3235 H 300.681 0.528335 -6.04395 0
M  V30 3236 H 299.42 0.806801 -4.8098 0
M  V30 3237 H 298.425 -1.44425 -5.30492 0
M  V30 3238 H 299.65 -1.71172 -6.57173 0
M  V30 3239 H 297.596 0.532046 -6.53839 0
M  V30 3240 H 297.513 -0.90357 -7.50581 0
M  V30 3241 H 298.781 0.250907 -7.79096 0
M  V30 3242 N 303.011 1.40521 -0.713556 0
M  V30 3243 C 303.958 2.30723 -0.059684 0
M  V30 3244 C 304.928 1.48079 0.752448 0
M  V30 3245 O 306.113 1.76823 0.71681 0
M  V30 3246 C 303.253 3.34274 0.857594 0
M  V30 3247 C 302.366 4.31986 0.0351536 0
M  V30 3248 C 301.501 5.22605 0.951724 0
M  V30 3249 C 300.54 6.11976 0.123253 0
M  V30 3250 N 299.677 6.9502 0.99459 0
M  V30 3251 H 304.517 2.86074 -0.834596 0
M  V30 3252 H 302.054 1.40879 -0.42326 0
M  V30 3253 H 304.012 3.92879 1.40364 0
M  V30 3254 H 302.642 2.8043 1.59871 0
M  V30 3255 H 301.694 3.7518 -0.628052 0
M  V30 3256 H 303.006 4.95101 -0.606347 0
M  V30 3257 H 302.16 5.86131 1.56638 0
M  V30 3258 H 300.899 4.59759 1.62705 0
M  V30 3259 H 299.904 5.47482 -0.50435 0
M  V30 3260 H 301.129 6.76881 -0.548539 0
M  V30 3261 H 299.075 6.34764 1.6556 0
M  V30 3262 H 298.992 7.54892 0.40908 0
M  V30 3263 H 300.26 7.62997 1.59549 0
M  V30 3264 N 304.489 0.459591 1.5075 0
M  V30 3265 C 305.422 -0.386257 2.24907 0
M  V30 3266 C 306.4 -1.006 1.27744 0
M  V30 3267 O 307.584 -1.04416 1.56938 0
M  V30 3268 C 304.711 -1.54021 3.01654 0
M  V30 3269 C 303.757 -1.03898 4.13651 0
M  V30 3270 S 304.59 0.0370501 5.35487 0
M  V30 3271 C 305.746 -1.12105 6.15779 0
M  V30 3272 H 305.979 0.243272 2.96303 0
M  V30 3273 H 303.512 0.244339 1.52454 0
M  V30 3274 H 305.47 -2.20163 3.46466 0
M  V30 3275 H 304.131 -2.14121 2.29806 0
M  V30 3276 H 303.324 -1.90254 4.66711 0
M  V30 3277 H 302.926 -0.45545 3.71216 0
M  V30 3278 H 305.218 -2.03501 6.46215 0
M  V30 3279 H 306.161 -0.62995 7.05292 0
M  V30 3280 H 306.569 -1.36967 5.47631 0
M  V30 3281 N 305.967 -1.56429 0.191757 0
M  V30 3282 C 307.216 -1.9666 -0.448088 0
M  V30 3283 C 307.529 -1.08136 -1.62991 0
M  V30 3284 O 308.735 -1.38135 -2.33733 0
M  V30 3285 C 307.191 -3.49753 -0.848585 0
M  V30 3286 C 306.799 -4.46935 0.308764 0
M  V30 3287 C 308.543 -3.9876 -1.4557 0
M  V30 3288 C 306.45 -5.91293 -0.112506 0
M  V30 3289 H 305.38 -0.734312 -0.171179 0
M  V30 3290 H 308.031 -1.81301 0.283242 0
M  V30 3291 H 306.413 -3.60604 -1.63649 0
M  V30 3292 H 307.587 -4.47813 1.08627 0
M  V30 3293 H 305.902 -4.08102 0.827158 0
M  V30 3294 H 308.499 -5.04086 -1.78328 0
M  V30 3295 H 308.842 -3.42875 -2.36099 0
M  V30 3296 H 309.375 -3.9101 -0.731836 0
M  V30 3297 H 306.114 -6.51097 0.758514 0
M  V30 3298 H 305.634 -5.93676 -0.854941 0
M  V30 3299 H 307.313 -6.44663 -0.549448 0
M  V30 3300 N 307.445 0.0818655 -1.57387 0
M  V30 3301 C 308.375 1.09885 -2.06028 0
M  V30 3302 C 309.356 1.4098 -0.951774 0
M  V30 3303 O 310.541 1.50781 -1.22387 0
M  V30 3304 C 307.671 2.4151 -2.4958 0
M  V30 3305 C 306.625 2.24792 -3.64215 0
M  V30 3306 C 305.951 3.61712 -3.93787 0
M  V30 3307 C 307.251 1.67749 -4.94629 0
M  V30 3308 H 308.945 0.694128 -2.91243 0
M  V30 3309 H 306.491 0.332448 -1.4011 0
M  V30 3310 H 308.444 3.12939 -2.82219 0
M  V30 3311 H 307.168 2.83943 -1.61381 0
M  V30 3312 H 305.827 1.55807 -3.31843 0
M  V30 3313 H 305.475 4.01697 -3.02735 0
M  V30 3314 H 305.175 3.51368 -4.70971 0
M  V30 3315 H 306.699 4.34587 -4.28913 0
M  V30 3316 H 308.113 2.29032 -5.25564 0
M  V30 3317 H 306.51 1.68128 -5.76067 0
M  V30 3318 H 307.58 0.638059 -4.80684 0
M  V30 3319 N 308.923 1.53595 0.353017 0
M  V30 3320 C 310.169 1.70638 1.09593 0
M  V30 3321 C 310.502 0.463286 1.88593 0
M  V30 3322 O 309.777 -0.539597 1.86865 0
M  V30 3323 C 310.06 2.96406 2.04489 0
M  V30 3324 C 309.913 4.30901 1.29014 0
M  V30 3325 C 311.232 3.17812 3.0444 0
M  V30 3326 H 308.351 0.620913 0.397034 0
M  V30 3327 H 310.993 1.86254 0.375446 0
M  V30 3328 H 309.143 2.83223 2.65927 0
M  V30 3329 H 310.815 4.55917 0.702638 0
M  V30 3330 H 309.058 4.29741 0.592071 0
M  V30 3331 H 309.729 5.1506 1.98537 0
M  V30 3332 H 312.205 3.30263 2.53112 0
M  V30 3333 H 311.081 4.07223 3.6805 0
M  V30 3334 H 311.342 2.33669 3.75301 0
M  V30 3335 N 310.401 -0.613514 1.45168 0
M  V30 3336 C 311.629 -1.39946 1.5239 0
M  V30 3337 C 312.044 -1.88167 0.154531 0
M  V30 3338 O 311.401 -1.61872 -0.842843 0
M  V30 3339 C 311.452 -2.60795 2.50337 0
M  V30 3340 O 311.173 -2.1458 3.81952 0
M  V30 3341 C 312.674 -3.53723 2.67198 0
M  V30 3342 H 309.894 -0.428593 0.516284 0
M  V30 3343 H 312.438 -0.748753 1.903 0
M  V30 3344 H 310.593 -3.21919 2.15515 0
M  V30 3345 H 311.007 -2.93055 4.34993 0
M  V30 3346 H 312.481 -4.35079 3.39721 0
M  V30 3347 H 312.958 -4.0368 1.73029 0
M  V30 3348 H 313.564 -2.98456 3.02992 0
M  V30 3349 N 311.879 -1.3236 -0.855495 0
M  V30 3350 C 313.127 -1.22629 -1.60644 0
M  V30 3351 C 313.448 0.212136 -1.93843 0
M  V30 3352 O 312.718 1.13666 -1.59552 0
M  V30 3353 H 311.298 -0.450882 -0.595579 0
M  V30 3354 H 313.96 -1.65871 -1.02337 0
M  V30 3355 H 313.056 -1.80832 -2.54374 0
M  V30 3356 N 313.357 1.07166 -1.15556 0
M  V30 3357 C 314.307 2.12649 -0.82247 0
M  V30 3358 C 315.291 1.59725 0.194129 0
M  V30 3359 O 316.483 1.76999 -0.00540402 0
M  V30 3360 C 313.612 3.41847 -0.315572 0
M  V30 3361 C 312.698 4.0162 -1.36244 0
M  V30 3362 N 313.089 4.35625 -2.5703 0
M  V30 3363 C 311.387 4.29114 -1.21562 0
M  V30 3364 C 312.088 4.83017 -3.24144 0
M  V30 3365 N 311.064 4.81906 -2.51531 0
M  V30 3366 H 314.866 2.36776 -1.74111 0
M  V30 3367 H 312.38 1.24622 -1.0413 0
M  V30 3368 H 314.377 4.16859 -0.0585855 0
M  V30 3369 H 313.037 3.19163 0.597105 0
M  V30 3370 H 314.048 4.26253 -2.94158 0
M  V30 3371 H 310.725 4.15919 -0.362988 0
M  V30 3372 H 312.115 5.18605 -4.27198 0
M  V30 3373 N 314.835 0.952656 1.25548 0
M  V30 3374 C 316.251 0.656769 1.4546 0
M  V30 3375 C 316.451 -0.78633 1.85524 0
M  V30 3376 O 315.507 -1.56183 1.98402 0
M  V30 3377 C 316.82 1.62801 2.52817 0
M  V30 3378 C 318.368 1.63897 2.66659 0
M  V30 3379 C 318.843 2.5978 3.77198 0
M  V30 3380 N 320.334 2.58133 3.84606 0
M  V30 3381 C 321.069 3.29003 4.69621 0
M  V30 3382 N 320.565 4.09339 5.58939 0
M  V30 3383 N 322.358 3.179 4.63569 0
M  V30 3384 H 314.509 1.88526 0.978344 0
M  V30 3385 H 316.772 0.810815 0.491206 0
M  V30 3386 H 316.478 2.65869 2.30232 0
M  V30 3387 H 316.352 1.38898 3.50695 0
M  V30 3388 H 318.739 0.615481 2.8861 0
M  V30 3389 H 318.82 1.91858 1.69187 0
M  V30 3390 H 318.464 3.62254 3.55997 0
M  V30 3391 H 318.394 2.29105 4.7415 0
M  V30 3392 H 320.885 1.99809 3.20757 0
M  V30 3393 H 321.198 4.6034 6.20731 0
M  V30 3394 H 319.543 4.13438 5.58654 0
M  V30 3395 H 322.734 2.54612 3.92798 0
M  V30 3396 H 322.907 3.73398 5.29602 0
M  V30 3397 N 316.313 -1.40141 0.720998 0
M  V30 3398 C 317.729 -1.54632 0.395113 0
M  V30 3399 C 317.929 -1.69115 -1.09555 0
M  V30 3400 O 316.985 -1.68377 -1.88163 0
M  V30 3401 C 318.298 -2.77177 1.1659 0
M  V30 3402 C 319.846 -2.91 1.15274 0
M  V30 3403 C 320.321 -4.16465 1.90579 0
M  V30 3404 N 321.812 -4.23476 1.87675 0
M  V30 3405 C 322.547 -5.19475 2.42762 0
M  V30 3406 N 322.043 -6.21348 3.06428 0
M  V30 3407 N 323.836 -5.11592 2.32874 0
M  V30 3408 H 315.987 -1.28986 1.68749 0
M  V30 3409 H 318.25 -0.62412 0.713567 0
M  V30 3410 H 317.956 -2.72771 2.22011 0
M  V30 3411 H 317.83 -3.69442 0.76108 0
M  V30 3412 H 320.217 -2.94907 0.106702 0
M  V30 3413 H 320.298 -1.99838 1.59682 0
M  V30 3414 H 319.942 -4.1332 2.95176 0
M  V30 3415 H 319.872 -5.06646 1.43587 0
M  V30 3416 H 322.363 -3.50497 1.41281 0
M  V30 3417 H 322.676 -6.91034 3.45965 0
M  V30 3418 H 321.021 -6.21777 3.10514 0
M  V30 3419 H 324.212 -4.30936 1.82789 0
M  V30 3420 H 324.385 -5.86233 2.76106 0
M  V30 3421 N 317.792 -0.46758 -1.50504 0
M  V30 3422 C 318.702 0.33382 -2.32213 0
M  V30 3423 C 319.718 0.999323 -1.42441 0
M  V30 3424 O 320.894 0.988068 -1.75497 0
M  V30 3425 C 317.959 1.4035 -3.17022 0
M  V30 3426 C 317.02 0.754961 -4.2261 0
M  V30 3427 C 316.253 1.77367 -5.03365 0
M  V30 3428 O 316.476 2.99976 -4.8515 0
M  V30 3429 O 315.41 1.34744 -5.86624 0
M  V30 3430 H 319.236 -0.334067 -3.01857 0
M  V30 3431 H 316.821 -0.229496 -1.47627 0
M  V30 3432 H 318.703 2.02318 -3.69656 0
M  V30 3433 H 317.378 2.05492 -2.5011 0
M  V30 3434 H 316.285 0.0964244 -3.73976 0
M  V30 3435 H 317.618 0.146545 -4.91982 0
M  V30 3436 N 319.27 1.56325 -0.20005 0
M  V30 3437 C 320.495 2.02548 0.44597 0
M  V30 3438 C 320.92 1.07922 1.5406 0
M  V30 3439 O 320.278 0.0635775 1.81188 0
M  V30 3440 C 320.326 3.47175 0.974761 0
M  V30 3441 O 319.43 3.55671 2.08739 0
M  V30 3442 H 318.771 0.655862 0.103638 0
M  V30 3443 H 321.301 2.02201 -0.312381 0
M  V30 3444 H 321.311 3.87067 1.2901 0
M  V30 3445 H 319.986 4.15538 0.17347 0
M  V30 3446 H 318.563 3.27657 1.78032 0
M  V30 3447 N 320.748 -0.0735177 1.57428 0
M  V30 3448 C 321.995 -0.772999 1.87166 0
M  V30 3449 C 322.323 -1.77665 0.791551 0
M  V30 3450 O 321.578 -1.94541 -0.212636 0
M  V30 3451 C 321.877 -1.51799 3.23561 0
M  V30 3452 C 321.543 -0.654484 4.46125 0
M  V30 3453 C 320.205 -0.416511 4.79394 0
M  V30 3454 C 322.557 -0.0555862 5.2117 0
M  V30 3455 C 319.885 0.429869 5.85123 0
M  V30 3456 C 322.237 0.778239 6.27795 0
M  V30 3457 C 320.901 1.0261 6.59566 0
M  V30 3458 H 320.171 -0.282861 0.684888 0
M  V30 3459 H 322.818 -0.0338272 1.9147 0
M  V30 3460 H 321.123 -2.32932 3.1504 0
M  V30 3461 H 322.82 -2.06397 3.43804 0
M  V30 3462 H 319.41 -0.850091 4.20085 0
M  V30 3463 H 323.594 -0.226558 4.95783 0
M  V30 3464 H 318.85 0.630665 6.08139 0
M  V30 3465 H 323.024 1.24906 6.85107 0
M  V30 3466 H 320.651 1.68371 7.4132 0
M  V30 3467 N 322.226 -1.5378 -0.344866 0
M  V30 3468 C 323.474 -1.70625 -1.08311 0
M  V30 3469 C 323.795 -0.471447 -1.89215 0
M  V30 3470 O 323.065 0.514616 -1.8902 0
M  V30 3471 H 321.645 -0.629058 -0.402859 0
M  V30 3472 H 324.307 -1.9103 -0.386459 0
M  V30 3473 H 323.403 -2.57656 -1.76124 0
M  V30 3474 N 323.704 0.605807 -1.45491 0
M  V30 3475 C 325.12 0.926751 -1.29936 0
M  V30 3476 C 325.32 1.99896 -0.253706 0
M  V30 3477 O 324.376 2.50038 0.351737 0
M  V30 3478 C 325.689 1.36599 -2.67883 0
M  V30 3479 C 327.237 1.4801 -2.75793 0
M  V30 3480 C 327.712 1.95309 -4.14268 0
M  V30 3481 N 329.203 2.0254 -4.16571 0
M  V30 3482 C 329.938 2.40363 -5.20589 0
M  V30 3483 N 329.434 2.77143 -6.34952 0
M  V30 3484 N 331.227 2.40718 -5.07948 0
M  V30 3485 H 323.378 -0.102862 -2.12151 0
M  V30 3486 H 325.641 0.016639 -0.947854 0
M  V30 3487 H 325.347 0.652306 -3.45598 0
M  V30 3488 H 325.221 2.33215 -2.96463 0
M  V30 3489 H 327.608 2.1847 -1.98381 0
M  V30 3490 H 327.689 0.497041 -2.50925 0
M  V30 3491 H 327.333 1.25436 -4.92167 0
M  V30 3492 H 327.263 2.94532 -4.3653 0
M  V30 3493 H 329.754 1.76699 -3.34045 0
M  V30 3494 H 330.067 3.0489 -7.10114 0
M  V30 3495 H 328.412 2.74834 -6.3835 0
M  V30 3496 H 331.603 2.11392 -4.1765 0
M  V30 3497 H 331.776 2.69869 -5.89131 0
M  V30 3498 N 325.182 1.32811 0.848464 0
M  V30 3499 C 326.43 1.23479 1.59991 0
M  V30 3500 C 326.751 -0.201853 1.93952 0
M  V30 3501 O 326.021 -1.12818 1.60153 0
M  V30 3502 H 324.601 0.454034 0.593179 0
M  V30 3503 H 327.263 1.66412 1.01455 0
M  V30 3504 H 326.359 1.82178 2.53412 0
M  V30 3505 N 326.66 -1.06551 1.16123 0
M  V30 3506 C 327.907 -1.79302 0.941126 0
M  V30 3507 C 328.235 -1.87105 -0.531235 0
M  V30 3508 O 327.49 -1.35692 -1.41018 0
M  V30 3509 C 327.789 -3.23911 1.51052 0
M  V30 3510 C 327.455 -3.36193 3.00475 0
M  V30 3511 C 326.117 -3.39252 3.41265 0
M  V30 3512 C 328.469 -3.38326 3.96465 0
M  V30 3513 C 325.797 -3.42057 4.76669 0
M  V30 3514 C 328.149 -3.4267 5.31752 0
M  V30 3515 C 326.813 -3.4401 5.72026 0
M  V30 3516 H 326.083 -0.656111 0.344382 0
M  V30 3517 H 328.73 -1.25325 1.44796 0
M  V30 3518 H 327.035 -3.80723 0.925063 0
M  V30 3519 H 328.732 -3.78793 1.31593 0
M  V30 3520 H 325.322 -3.34516 2.6795 0
M  V30 3521 H 329.506 -3.35176 3.6602 0
M  V30 3522 H 324.762 -3.41398 5.07206 0
M  V30 3523 H 328.936 -3.43268 6.05921 0
M  V30 3524 H 326.563 -3.45937 6.76928 0
M  V30 3525 N 328.138 -0.959301 -1.25041 0
M  V30 3526 C 329.048 -0.489994 -2.29426 0
M  V30 3527 C 330.064 0.444944 -1.68215 0
M  V30 3528 O 331.24 0.320046 -1.98841 0
M  V30 3529 C 328.305 0.220309 -3.45999 0
M  V30 3530 C 327.366 -0.753418 -4.22637 0
M  V30 3531 C 326.599 -0.076918 -5.33645 0
M  V30 3532 O 326.822 1.13649 -5.58963 0
M  V30 3533 O 325.756 -0.764824 -5.97021 0
M  V30 3534 H 329.582 -1.35755 -2.71669 0
M  V30 3535 H 327.167 -0.725961 -1.30576 0
M  V30 3536 H 329.049 0.619677 -4.16819 0
M  V30 3537 H 327.724 1.06296 -3.0575 0
M  V30 3538 H 326.631 -1.20308 -3.54227 0
M  V30 3539 H 327.964 -1.56423 -4.66683 0
M  V30 3540 N 329.616 1.39756 -0.72842 0
M  V30 3541 C 330.526 2.34444 -0.0855374 0
M  V30 3542 C 331.542 1.57976 0.729356 0
M  V30 3543 O 332.718 1.90301 0.659346 0
M  V30 3544 C 329.783 3.36965 0.815798 0
M  V30 3545 C 328.844 4.29299 -0.0105996 0
M  V30 3546 C 328.077 5.26923 0.84781 0
M  V30 3547 O 328.3 5.30859 2.08673 0
M  V30 3548 O 327.234 6.01249 0.279969 0
M  V30 3549 H 331.06 2.91065 -0.866892 0
M  V30 3550 H 328.645 1.4117 -0.48902 0
M  V30 3551 H 330.527 3.99804 1.33171 0
M  V30 3552 H 329.202 2.82739 1.57608 0
M  V30 3553 H 328.109 3.69703 -0.571877 0
M  V30 3554 H 329.442 4.86712 -0.73295 0
M  V30 3555 N 331.094 0.475555 1.50254 0
M  V30 3556 C 332.343 -0.0795996 2.01543 0
M  V30 3557 C 332.656 -1.4038 1.36209 0
M  V30 3558 O 333.862 -2.04415 1.7868 0
M  V30 3559 C 332.318 -0.192363 3.59386 0
M  V30 3560 C 331.926 1.12367 4.33679 0
M  V30 3561 C 333.67 -0.699238 4.18701 0
M  V30 3562 C 331.577 0.974453 5.83317 0
M  V30 3563 H 330.507 -0.0335228 0.753254 0
M  V30 3564 H 333.158 0.611128 1.73025 0
M  V30 3565 H 331.54 -0.946974 3.84511 0
M  V30 3566 H 332.714 1.88958 4.20276 0
M  V30 3567 H 331.029 1.562 3.85993 0
M  V30 3568 H 333.626 -0.827978 5.28251 0
M  V30 3569 H 333.969 -1.69171 3.80377 0
M  V30 3570 H 334.502 -0.00188807 3.978 0
M  V30 3571 H 331.241 1.94042 6.26121 0
M  V30 3572 H 330.761 0.248998 5.99283 0
M  V30 3573 H 332.44 0.642867 6.43798 0
M  V30 3574 N 332.573 -1.56217 0.208337 0
M  V30 3575 C 333.813 -1.99849 -0.428927 0
M  V30 3576 C 334.177 -1.09262 -1.57879 0
M  V30 3577 O 335.378 -1.42185 -2.28116 0
M  V30 3578 C 333.649 -3.46777 -0.864879 0
M  V30 3579 S 335.208 -4.12434 -1.49811 0
M  V30 3580 H 332.026 -0.697742 -0.136665 0
M  V30 3581 H 334.628 -1.92953 0.314519 0
M  V30 3582 H 333.332 -4.10396 -0.0181326 0
M  V30 3583 H 332.863 -3.57518 -1.64147 0
M  V30 3584 H 334.878 -4.10532 -2.78707 0
M  V30 3585 N 334.051 0.0651679 -1.57465 0
M  V30 3586 C 335.001 1.0838 -2.00594 0
M  V30 3587 C 335.985 1.34106 -0.889071 0
M  V30 3588 O 337.177 1.34295 -1.15299 0
M  V30 3589 C 334.306 2.39565 -2.45894 0
M  V30 3590 C 333.392 2.17085 -3.64328 0
M  V30 3591 N 333.783 1.64553 -4.78285 0
M  V30 3592 C 332.081 2.4753 -3.71006 0
M  V30 3593 C 332.782 1.57042 -5.60101 0
M  V30 3594 N 331.758 2.03328 -5.04141 0
M  V30 3595 H 335.56 0.671062 -2.86136 0
M  V30 3596 H 333.074 0.27213 -1.60104 0
M  V30 3597 H 335.071 3.13308 -2.75034 0
M  V30 3598 H 333.731 2.81549 -1.61741 0
M  V30 3599 H 334.742 1.33323 -5.00445 0
M  V30 3600 H 331.419 2.92835 -2.9758 0
M  V30 3601 H 332.809 1.17223 -6.61595 0
M  V30 3602 N 335.529 1.53961 0.336706 0
M  V30 3603 C 336.492 1.81724 1.39675 0
M  V30 3604 C 337.492 0.688532 1.45313 0
M  V30 3605 O 338.682 0.956829 1.45569 0
M  V30 3606 C 335.814 1.96543 2.78538 0
M  V30 3607 H 337.007 2.76424 1.16318 0
M  V30 3608 H 334.56 1.45478 0.571474 0
M  V30 3609 H 335.295 1.0401 3.07168 0
M  V30 3610 H 335.08 2.78665 2.75841 0
M  V30 3611 H 336.57 2.19516 3.5525 0
M  V30 3612 N 337.007 -0.598083 1.45811 0
M  V30 3613 C 337.937 -1.71873 1.58057 0
M  V30 3614 C 338.918 -1.64533 0.431615 0
M  V30 3615 O 340.103 -1.82787 0.65595 0
M  V30 3616 C 337.233 -3.10495 1.55597 0
M  V30 3617 C 336.187 -3.32654 2.69305 0
M  V30 3618 C 335.513 -4.71646 2.51902 0
M  V30 3619 C 336.813 -3.21981 4.11248 0
M  V30 3620 H 338.507 -1.61881 2.51863 0
M  V30 3621 H 336.053 -0.777372 1.21214 0
M  V30 3622 H 338.006 -3.88699 1.6276 0
M  V30 3623 H 336.73 -3.2135 0.583255 0
M  V30 3624 H 335.389 -2.56843 2.61586 0
M  V30 3625 H 335.037 -4.79246 1.52748 0
M  V30 3626 H 334.737 -4.87426 3.2816 0
M  V30 3627 H 336.261 -5.52038 2.60933 0
M  V30 3628 H 337.675 -3.90049 4.20161 0
M  V30 3629 H 336.072 -3.49289 4.87972 0
M  V30 3630 H 337.142 -2.1928 4.32486 0
M  V30 3631 N 338.485 -1.33259 -0.841409 0
M  V30 3632 C 339.448 -1.23221 -1.9326 0
M  V30 3633 C 340.448 -0.151895 -1.60081 0
M  V30 3634 O 341.638 -0.403246 -1.69468 0
M  V30 3635 C 338.77 -0.898123 -3.28856 0
M  V30 3636 H 339.963 -2.2021 -2.03587 0
M  V30 3637 H 337.516 -1.17281 -1.03319 0
M  V30 3638 H 338.251 0.0693841 -3.24226 0
M  V30 3639 H 338.036 -1.67934 -3.54317 0
M  V30 3640 H 339.526 -0.852563 -4.08805 0
M  V30 3641 N 339.963 1.05934 -1.16686 0
M  V30 3642 C 341.24 1.75643 -0.860747 0
M  V30 3643 C 341.62 2.01144 0.640641 0
M  V30 3644 O 340.968 1.64147 1.58959 0
M  V30 3645 C 341.178 3.05493 -1.68745 0
M  V30 3646 C 342.526 3.79581 -1.90271 0
M  V30 3647 O 343.55 3.15344 -1.65641 0
M  V30 3648 O 342.409 4.9499 -2.31618 0
M  V30 3649 H 339.503 0.763426 -0.317977 0
M  V30 3650 H 342.049 1.1217 -1.27342 0
M  V30 3651 H 340.821 2.8264 -2.70611 0
M  V30 3652 H 340.444 3.76702 -1.27206 0
M  V30 3653 N 341.441 0.965919 1.2453 0
M  V30 3654 C 342.69 0.622437 1.91856 0
M  V30 3655 C 343.003 -0.846006 1.76358 0
M  V30 3656 O 344.209 -1.29993 2.38357 0
M  V30 3657 C 342.665 1.0626 3.43856 0
M  V30 3658 C 342.273 2.55437 3.68043 0
M  V30 3659 C 344.017 0.792183 4.17043 0
M  V30 3660 C 341.924 2.93196 5.13605 0
M  V30 3661 H 340.854 0.229092 0.718354 0
M  V30 3662 H 343.505 1.17189 1.41206 0
M  V30 3663 H 341.887 0.441476 3.93531 0
M  V30 3664 H 343.061 3.22665 3.28974 0
M  V30 3665 H 341.376 2.8007 3.08139 0
M  V30 3666 H 343.973 1.05031 5.24283 0
M  V30 3667 H 344.316 -0.271584 4.15413 0
M  V30 3668 H 344.849 1.37419 3.73311 0
M  V30 3669 H 341.588 3.98636 5.20355 0
M  V30 3670 H 341.108 2.30651 5.53679 0
M  V30 3671 H 342.787 2.83004 5.81823 0
M  V30 3672 N 342.919 -1.39368 0.735821 0
M  V30 3673 C 343.882 -2.2896 0.104874 0
M  V30 3674 C 344.882 -1.46347 -0.666274 0
M  V30 3675 O 346.072 -1.67014 -0.49517 0
M  V30 3676 C 343.204 -3.29857 -0.860656 0
M  V30 3677 H 344.397 -2.86259 0.894205 0
M  V30 3678 H 341.95 -1.48029 0.501704 0
M  V30 3679 H 342.685 -2.77615 -1.67631 0
M  V30 3680 H 342.47 -3.9087 -0.310327 0
M  V30 3681 H 343.96 -3.96893 -1.29867 0
M  V30 3682 N 344.397 -0.483516 -1.5 0
M  V30 3683 C 345.625 0.0644831 -2.06799 0
M  V30 3684 C 346.04 1.32399 -1.34596 0
M  V30 3685 O 345.397 1.77626 -0.418946 0
M  V30 3686 C 345.448 0.339927 -3.59898 0
M  V30 3687 O 345.169 -0.869635 -4.29382 0
M  V30 3688 C 346.67 0.933515 -4.33359 0
M  V30 3689 H 343.89 -0.0126333 -0.670881 0
M  V30 3690 H 346.434 -0.675864 -1.93009 0
M  V30 3691 H 344.589 1.03022 -3.7345 0
M  V30 3692 H 345.003 -0.62179 -5.20801 0
M  V30 3693 H 346.477 1.07593 -5.41413 0
M  V30 3694 H 346.954 1.92685 -3.94676 0
M  V30 3695 H 347.56 0.281221 -4.24369 0
M  V30 3696 N 345.875 1.56104 -0.216619 0
M  V30 3697 C 347.103 2.02563 0.421413 0
M  V30 3698 C 347.518 1.0965 1.53695 0
M  V30 3699 O 346.875 0.10521 1.82196 0
M  V30 3700 C 346.926 3.48584 0.957665 0
M  V30 3701 O 346.647 4.37953 -0.113389 0
M  V30 3702 C 348.148 4.10664 1.66943 0
M  V30 3703 H 345.368 0.662944 0.103665 0
M  V30 3704 H 347.912 2.01793 -0.331629 0
M  V30 3705 H 346.067 3.49985 1.661 0
M  V30 3706 H 346.481 5.23704 0.288932 0
M  V30 3707 H 347.955 5.14622 1.99671 0
M  V30 3708 H 348.432 3.55373 2.58083 0
M  V30 3709 H 349.038 4.13098 1.01142 0
M  V30 3710 N 347.353 -0.0568162 1.57498 0
M  V30 3711 C 348.303 -1.07315 2.01166 0
M  V30 3712 C 349.287 -1.33632 0.896171 0
M  V30 3713 O 350.479 -1.33682 1.16009 0
M  V30 3714 C 347.608 -2.38257 2.47161 0
M  V30 3715 C 346.694 -2.1515 3.65474 0
M  V30 3716 N 347.085 -1.62014 4.7915 0
M  V30 3717 C 345.383 -2.45559 3.72313 0
M  V30 3718 C 346.084 -1.54069 5.60926 0
M  V30 3719 N 345.06 -2.00652 5.05213 0
M  V30 3720 H 348.862 -0.655878 2.86488 0
M  V30 3721 H 346.376 -0.263635 1.60246 0
M  V30 3722 H 348.373 -3.11845 2.76691 0
M  V30 3723 H 347.033 -2.80687 1.63232 0
M  V30 3724 H 348.044 -1.30667 5.01145 0
M  V30 3725 H 344.721 -2.91253 2.99129 0
M  V30 3726 H 346.111 -1.13712 6.62208 0
M  V30 3727 N 348.832 -1.54138 -0.328536 0
M  V30 3728 C 349.764 -1.79509 -1.4251 0
M  V30 3729 C 350.777 -0.67688 -1.48061 0
M  V30 3730 O 351.966 -0.953898 -1.50874 0
M  V30 3731 C 349.066 -1.89337 -2.81078 0
M  V30 3732 C 348.239 -3.19443 -2.98789 0
M  V30 3733 C 347.298 -3.20036 -4.17688 0
M  V30 3734 O 346.324 -3.93697 -4.11086 0
M  V30 3735 N 347.526 -2.43467 -5.26976 0
M  V30 3736 H 350.291 -2.74139 -1.21111 0
M  V30 3737 H 347.852 -1.53373 -0.518499 0
M  V30 3738 H 349.844 -1.87167 -3.58818 0
M  V30 3739 H 348.414 -1.01826 -2.95551 0
M  V30 3740 H 347.634 -3.34614 -2.08391 0
M  V30 3741 H 348.922 -4.05354 -3.07515 0
M  V30 3742 H 348.32 -1.83201 -5.35214 0
M  V30 3743 H 346.877 -2.4708 -6.03154 0
M  V30 3744 N 350.31 0.590341 -1.46126 0
M  V30 3745 C 351.587 1.35029 -1.41515 0
M  V30 3746 C 351.967 2.10888 -0.0946472 0
M  V30 3747 O 351.315 2.08998 0.923693 0
M  V30 3748 C 351.525 2.28269 -2.63997 0
M  V30 3749 C 352.873 2.90338 -3.09821 0
M  V30 3750 O 353.897 2.38585 -2.64492 0
M  V30 3751 O 352.756 3.84321 -3.88535 0
M  V30 3752 H 349.85 0.606317 -0.562413 0
M  V30 3753 H 352.396 0.611994 -1.58281 0
M  V30 3754 H 351.168 1.71591 -3.51671 0
M  V30 3755 H 350.791 3.0945 -2.49652 0
M  V30 3756 N 351.788 1.33704 0.83433 0
M  V30 3757 C 353.037 1.24763 1.58484 0
M  V30 3758 C 353.35 -0.183775 1.94735 0
M  V30 3759 O 354.556 -0.395234 2.68608 0
M  V30 3760 C 353.012 2.18638 2.85876 0
M  V30 3761 C 352.62 3.66974 2.56971 0
M  V30 3762 C 354.364 2.18581 3.63899 0
M  V30 3763 C 352.271 4.5275 3.80488 0
M  V30 3764 H 351.201 0.463425 0.594772 0
M  V30 3765 H 353.852 1.58797 0.919551 0
M  V30 3766 H 352.234 1.77542 3.5397 0
M  V30 3767 H 353.408 4.16538 1.9706 0
M  V30 3768 H 351.723 3.69366 1.92244 0
M  V30 3769 H 354.32 2.79894 4.55591 0
M  V30 3770 H 354.663 1.18207 3.99165 0
M  V30 3771 H 355.196 2.58062 3.02735 0
M  V30 3772 H 351.935 5.54017 3.5035 0
M  V30 3773 H 351.455 4.07927 4.39722 0
M  V30 3774 H 353.134 4.66784 4.4802 0
M  V30 3775 N 353.266 -1.05314 1.17247 0
M  V30 3776 C 354.198 -2.13023 0.845812 0
M  V30 3777 C 355.211 -1.62096 -0.151246 0
M  V30 3778 O 356.4 -1.78343 0.0748818 0
M  V30 3779 C 353.5 -3.38047 0.240292 0
M  V30 3780 C 352.673 -4.18255 1.27991 0
M  V30 3781 C 351.732 -5.21625 0.692375 0
M  V30 3782 O 350.758 -5.52619 1.36385 0
M  V30 3783 N 351.96 -5.78201 -0.516178 0
M  V30 3784 H 354.725 -2.41642 1.77283 0
M  V30 3785 H 352.286 -1.21401 1.07115 0
M  V30 3786 H 354.278 -4.04359 -0.16603 0
M  V30 3787 H 352.848 -3.06972 -0.590487 0
M  V30 3788 H 352.068 -3.47451 1.86203 0
M  V30 3789 H 353.356 -4.68643 1.98119 0
M  V30 3790 H 352.754 -5.55301 -1.07969 0
M  V30 3791 H 351.311 -6.4604 -0.86458 0
M  V30 3792 N 354.744 -0.972509 -1.24016 0
M  V30 3793 C 355.993 -0.632603 -1.91523 0
M  V30 3794 C 356.306 0.836641 -1.76804 0
M  V30 3795 O 357.512 1.28728 -2.39043 0
M  V30 3796 C 355.968 -1.08082 -3.43287 0
M  V30 3797 C 355.576 -2.57386 -3.66683 0
M  V30 3798 C 357.32 -0.814288 -4.16617 0
M  V30 3799 C 355.227 -2.95915 -5.12043 0
M  V30 3800 H 354.157 -0.232898 -0.717129 0
M  V30 3801 H 356.808 -1.17936 -1.40582 0
M  V30 3802 H 355.19 -0.462339 -3.93292 0
M  V30 3803 H 356.364 -3.24405 -3.27258 0
M  V30 3804 H 354.679 -2.81701 -3.06649 0
M  V30 3805 H 357.276 -1.0781 -5.23718 0
M  V30 3806 H 357.619 0.24955 -4.15551 0
M  V30 3807 H 358.152 -1.39397 -3.72577 0
M  V30 3808 H 354.891 -4.0139 -5.18234 0
M  V30 3809 H 354.411 -2.33584 -5.52448 0
M  V30 3810 H 356.09 -2.86086 -5.80314 0
M  V30 3811 N 356.222 1.38976 -0.743202 0
M  V30 3812 C 357.468 2.0064 -0.295189 0
M  V30 3813 C 357.801 1.5885 1.11716 0
M  V30 3814 O 357.076 0.821181 1.76315 0
M  V30 3815 C 357.359 3.578 -0.406318 0
M  V30 3816 C 357.212 4.09586 -1.85903 0
M  V30 3817 C 358.531 4.39616 0.206439 0
M  V30 3818 H 355.65 0.728935 -0.108733 0
M  V30 3819 H 358.292 1.65067 -0.940897 0
M  V30 3820 H 356.442 3.88235 0.143419 0
M  V30 3821 H 358.114 3.89837 -2.46627 0
M  V30 3822 H 356.357 3.6284 -2.3776 0
M  V30 3823 H 357.028 5.18708 -1.888 0
M  V30 3824 H 359.504 4.15273 -0.262283 0
M  V30 3825 H 358.38 5.48812 0.0983819 0
M  V30 3826 H 358.641 4.22754 1.2935 0
M  V30 3827 N 357.7 0.491464 1.49741 0
M  V30 3828 C 358.93 -0.0534375 2.06531 0
M  V30 3829 C 359.338 -1.32233 1.35318 0
M  V30 3830 O 358.681 -1.78781 0.422243 0
M  V30 3831 C 358.743 -0.387034 3.57411 0
M  V30 3832 C 358.407 0.782764 4.50246 0
M  V30 3833 C 359.404 1.67059 4.92329 0
M  V30 3834 C 357.089 0.978866 4.9267 0
M  V30 3835 C 359.083 2.73874 5.75562 0
M  V30 3836 C 356.77 2.05022 5.75682 0
M  V30 3837 C 357.768 2.92851 6.17031 0
M  V30 3838 O 357.456 3.98138 6.98385 0
M  V30 3839 H 357.188 0.0129324 0.675876 0
M  V30 3840 H 359.742 0.685238 1.93633 0
M  V30 3841 H 357.972 -1.17918 3.68283 0
M  V30 3842 H 359.661 -0.869419 3.96479 0
M  V30 3843 H 360.427 1.53086 4.60206 0
M  V30 3844 H 356.306 0.304646 4.59992 0
M  V30 3845 H 359.85 3.42458 6.07757 0
M  V30 3846 H 355.747 2.18993 6.07217 0
M  V30 3847 H 356.515 3.95374 7.16674 0
M  V30 3848 N 359.178 -1.55987 0.224894 0
M  V30 3849 C 360.589 -1.84553 -0.282345 0
M  V30 3850 C 360.94 -1.14634 -1.59227 0
M  V30 3851 O 360.065 -0.417155 -2.12341 0
M  V30 3852 C 360.66 -3.348 -0.519062 0
M  V30 3853 C 359.219 -3.63671 -0.970604 0
M  V30 3854 C 358.366 -2.77277 -0.0355261 0
M  V30 3855 H 361.317 -1.52245 0.448006 0
M  V30 3856 H 361.338 -3.55187 -1.36463 0
M  V30 3857 H 360.85 -3.8566 0.43449 0
M  V30 3858 H 358.951 -3.1827 -1.9374 0
M  V30 3859 H 359.064 -4.71631 -0.842698 0
M  V30 3860 H 357.428 -2.48846 -0.542927 0
M  V30 3861 H 358.211 -3.30937 0.913003 0
M  V30 3862 N 360.656 0.0484629 -1.57525 0
M  V30 3863 C 361.902 0.744226 -1.88651 0
M  V30 3864 C 362.235 1.76029 -0.820212 0
M  V30 3865 O 361.51 1.93782 0.166985 0
M  V30 3866 C 361.793 1.43128 -3.30434 0
M  V30 3867 C 361.646 0.43005 -4.47739 0
M  V30 3868 C 362.965 2.37031 -3.70816 0
M  V30 3869 H 360.084 0.269089 -0.68612 0
M  V30 3870 H 362.726 0.00713532 -1.89999 0
M  V30 3871 H 360.876 2.05956 -3.29415 0
M  V30 3872 H 362.548 -0.194816 -4.60888 0
M  V30 3873 H 360.791 -0.252522 -4.33064 0
M  V30 3874 H 361.462 0.948874 -5.43783 0
M  V30 3875 H 363.938 1.84263 -3.73077 0
M  V30 3876 H 362.814 2.82094 -4.70865 0
M  V30 3877 H 363.075 3.22864 -3.02012 0
M  V30 3878 N 362.134 1.5431 0.320358 0
M  V30 3879 C 363.084 1.803 1.39556 0
M  V30 3880 C 364.068 0.659166 1.46778 0
M  V30 3881 O 365.26 0.91926 1.51257 0
M  V30 3882 C 362.389 2.03665 2.76361 0
M  V30 3883 C 361.475 3.24178 2.73439 0
M  V30 3884 N 361.866 4.4516 2.40137 0
M  V30 3885 C 360.164 3.25816 3.04565 0
M  V30 3886 C 360.865 5.27109 2.4603 0
M  V30 3887 N 359.841 4.64368 2.82601 0
M  V30 3888 H 363.643 2.71416 1.12742 0
M  V30 3889 H 361.157 1.53548 0.528856 0
M  V30 3890 H 363.154 2.20425 3.53862 0
M  V30 3891 H 361.814 1.13805 3.04103 0
M  V30 3892 H 362.825 4.72104 2.12927 0
M  V30 3893 H 359.502 2.46001 3.37328 0
M  V30 3894 H 360.892 6.33728 2.23246 0
M  V30 3895 N 363.613 -0.582584 1.46437 0
M  V30 3896 C 364.543 -1.70187 1.59871 0
M  V30 3897 C 365.524 -1.64066 0.449042 0
M  V30 3898 O 366.709 -1.82081 0.6753 0
M  V30 3899 C 363.839 -3.08827 1.58881 0
M  V30 3900 C 362.793 -3.29779 2.72819 0
M  V30 3901 C 362.119 -4.68947 2.5689 0
M  V30 3902 C 363.419 -3.17601 4.1464 0
M  V30 3903 H 365.113 -1.592 2.53566 0
M  V30 3904 H 362.659 -0.764472 1.22032 0
M  V30 3905 H 364.612 -3.86951 1.66873 0
M  V30 3906 H 363.336 -3.20713 0.617306 0
M  V30 3907 H 361.995 -2.54054 2.64296 0
M  V30 3908 H 361.643 -4.77599 1.57823 0
M  V30 3909 H 361.343 -4.83919 3.33312 0
M  V30 3910 H 362.867 -5.4924 2.66773 0
M  V30 3911 H 364.281 -3.8557 4.24274 0
M  V30 3912 H 362.678 -3.44094 4.9165 0
M  V30 3913 H 363.748 -2.14681 4.34788 0
M  V30 3914 N 365.091 -1.34144 -0.827227 0
M  V30 3915 C 366.039 -1.25364 -1.95925 0
M  V30 3916 C 367.033 -0.152608 -1.68711 0
M  V30 3917 O 368.239 -0.317311 -1.77181 0
M  V30 3918 H 364.614 -0.389342 -0.643364 0
M  V30 3919 H 366.585 -2.21045 -2.00454 0
M  V30 3920 C 365.334 -1.02158 -3.32354 0
M  V30 3921 H 364.657 -1.86111 -3.5384 0
M  V30 3922 H 366.097 -1.00048 -4.12027 0
M  V30 3923 C 364.556 0.275244 -3.35774 0
M  V30 3924 O 365.086 1.27806 -3.80826 0
M  V30 3925 N 363.292 0.306853 -2.88975 0
M  V30 3926 H 362.839 -0.509777 -2.52506 0
M  V30 3927 H 362.797 1.17432 -2.91646 0
M  V30 3928 N 366.569 1.04691 -1.17803 0
M  V30 3929 C 367.98 1.59238 -0.974689 0
M  V30 3930 C 368.331 1.90306 0.477292 0
M  V30 3931 O 367.456 1.68846 1.35352 0
M  V30 3932 C 368.051 2.89318 -1.76296 0
M  V30 3933 C 366.61 3.40506 -1.60414 0
M  V30 3934 C 365.757 2.14172 -1.76141 0
M  V30 3935 H 368.708 0.874395 -1.32439 0
M  V30 3936 H 368.729 3.5944 -1.24833 0
M  V30 3937 H 368.241 2.66675 -2.81968 0
M  V30 3938 H 366.342 3.68175 -0.572519 0
M  V30 3939 H 366.455 4.14753 -2.39827 0
M  V30 3940 H 364.819 2.25176 -1.19028 0
M  V30 3941 H 365.602 1.93992 -2.83235 0
M  V30 3942 N 368.047 0.979072 1.23499 0
M  V30 3943 C 368.995 0.510604 2.26926 0
M  V30 3944 C 369.989 -0.431691 1.63807 0
M  V30 3945 O 371.195 -0.30573 1.77385 0
M  V30 3946 H 367.57 0.146688 0.737554 0
M  V30 3947 H 369.541 1.39466 2.63803 0
M  V30 3948 C 368.29 -0.172658 3.47271 0
M  V30 3949 H 367.613 0.543331 3.96091 0
M  V30 3950 H 369.053 -0.464101 4.21452 0
M  V30 3951 C 367.512 -1.40345 3.06276 0
M  V30 3952 O 368.042 -2.49978 3.14442 0
M  V30 3953 N 366.248 -1.27362 2.61203 0
M  V30 3954 H 365.795 -0.381584 2.54758 0
M  V30 3955 H 365.753 -2.09822 2.34141 0
M  V30 3956 N 369.525 -1.3858 0.750561 0
M  V30 3957 C 370.771 -2.00481 0.305825 0
M  V30 3958 C 371.104 -1.5944 -1.10872 0
M  V30 3959 O 370.379 -0.83052 -1.75877 0
M  V30 3960 C 370.662 -3.5758 0.425287 0
M  V30 3961 C 370.515 -4.08594 1.88072 0
M  V30 3962 C 371.834 -4.39719 -0.183122 0
M  V30 3963 H 368.953 -0.728348 0.112598 0
M  V30 3964 H 371.595 -1.64566 0.949638 0
M  V30 3965 H 369.745 -3.88306 -0.122828 0
M  V30 3966 H 371.417 -3.88523 2.48691 0
M  V30 3967 H 369.66 -3.61574 2.39681 0
M  V30 3968 H 370.331 -5.177 1.91548 0
M  V30 3969 H 372.807 -4.15128 0.284303 0
M  V30 3970 H 371.683 -5.48856 -0.0692757 0
M  V30 3971 H 371.944 -4.23434 -1.27106 0
M  V30 3972 N 371.003 -0.499398 -1.49478 0
M  V30 3973 C 372.419 -0.155261 -1.58843 0
M  V30 3974 C 372.619 1.34008 -1.50479 0
M  V30 3975 O 371.675 2.11589 -1.37791 0
M  V30 3976 C 372.988 -0.730636 -2.91689 0
M  V30 3977 C 374.536 -0.696599 -3.0515 0
M  V30 3978 C 375.011 -1.25001 -4.40612 0
M  V30 3979 N 376.502 -1.21064 -4.47099 0
M  V30 3980 C 377.237 -1.60905 -5.50361 0
M  V30 3981 N 376.733 -2.08331 -6.60735 0
M  V30 3982 N 378.526 -1.52331 -5.41065 0
M  V30 3983 H 370.677 -1.47162 -1.53158 0
M  V30 3984 H 372.94 -0.610309 -0.725415 0
M  V30 3985 H 372.646 -1.77928 -3.03372 0
M  V30 3986 H 372.52 -0.190161 -3.7672 0
M  V30 3987 H 374.907 0.343204 -2.93097 0
M  V30 3988 H 374.988 -1.2742 -2.21806 0
M  V30 3989 H 374.632 -2.28859 -4.53416 0
M  V30 3990 H 374.562 -0.64836 -5.22593 0
M  V30 3991 H 377.053 -0.863128 -3.67911 0
M  V30 3992 H 377.366 -2.36805 -7.35624 0
M  V30 3993 H 375.711 -2.12304 -6.6178 0
M  V30 3994 H 378.902 -1.151 -4.53729 0
M  V30 3995 H 379.075 -1.83704 -6.21415 0
M  V30 3996 N 372.481 1.55866 -0.233164 0
M  V30 3997 C 373.391 2.24431 0.683217 0
M  V30 3998 C 374.407 1.2558 1.2044 0
M  V30 3999 O 375.583 1.58422 1.24356 0
M  V30 4000 C 372.648 2.91979 1.86947 0
M  V30 4001 C 371.709 4.06204 1.38912 0
M  V30 4002 C 370.942 4.70522 2.51883 0
M  V30 4003 O 371.165 4.33865 3.70293 0
M  V30 4004 O 370.099 5.59296 2.22423 0
M  V30 4005 H 373.925 3.03426 0.129059 0
M  V30 4006 H 371.51 1.494 -0.0022283 0
M  V30 4007 H 373.392 3.34573 2.56201 0
M  V30 4008 H 372.067 2.15935 2.41151 0
M  V30 4009 H 370.974 3.68155 0.664259 0
M  V30 4010 H 372.307 4.84025 0.893328 0
M  V30 4011 N 373.959 -0.0401083 1.57549 0
M  V30 4012 C 375.37 -0.588097 1.77196 0
M  V30 4013 C 375.721 -1.76209 0.862832 0
M  V30 4014 O 374.846 -2.16331 0.0548389 0
M  V30 4015 C 375.441 -1.07363 3.21339 0
M  V30 4016 C 374 -1.56723 3.42221 0
M  V30 4017 C 373.147 -0.50041 2.72747 0
M  V30 4018 H 376.098 0.186119 1.57605 0
M  V30 4019 H 376.119 -1.94143 3.27244 0
M  V30 4020 H 375.631 -0.218975 3.87482 0
M  V30 4021 H 373.732 -2.4441 2.81237 0
M  V30 4022 H 373.845 -1.62234 4.50796 0
M  V30 4023 H 372.209 -0.952894 2.36203 0
M  V30 4024 H 372.992 0.344599 3.41566 0
M  V30 4025 N 375.437 -1.54477 -0.31217 0
M  V30 4026 C 376.683 -1.73483 -1.0503 0
M  V30 4027 C 377.016 -0.513125 -1.87298 0
M  V30 4028 O 376.291 0.489864 -1.8823 0
M  V30 4029 C 376.574 -3.01723 -1.96558 0
M  V30 4030 C 376.427 -4.3417 -1.17545 0
M  V30 4031 C 377.746 -3.25772 -2.95907 0
M  V30 4032 H 374.865 -0.631222 -0.380432 0
M  V30 4033 H 377.507 -1.87184 -0.325932 0
M  V30 4034 H 375.657 -2.90174 -2.58324 0
M  V30 4035 H 377.329 -4.5762 -0.581513 0
M  V30 4036 H 375.572 -4.31159 -0.477925 0
M  V30 4037 H 376.243 -5.20143 -1.84811 0
M  V30 4038 H 378.719 -3.36857 -2.44267 0
M  V30 4039 H 377.595 -4.16838 -3.57123 0
M  V30 4040 H 377.856 -2.43537 -3.68974 0
M  V30 4041 N 376.915 0.57481 -1.46744 0
M  V30 4042 C 377.863 1.70435 -1.58286 0
M  V30 4043 C 378.857 1.63287 -0.450956 0
M  V30 4044 O 380.063 1.68685 -0.628121 0
M  V30 4045 H 376.438 0.56364 -0.497809 0
M  V30 4046 H 378.409 1.57833 -2.53242 0
M  V30 4047 C 377.158 3.08815 -1.59776 0
M  V30 4048 H 376.481 3.1499 -2.46214 0
M  V30 4049 H 377.921 3.87588 -1.71905 0
M  V30 4050 C 376.38 3.35301 -0.327812 0
M  V30 4051 O 376.91 3.97511 0.57861 0
M  V30 4052 N 375.116 2.89816 -0.213274 0
M  V30 4053 H 374.663 2.39371 -0.951798 0
M  V30 4054 H 374.621 3.0791 0.63553 0
M  V30 4055 N 378.394 1.34581 0.820102 0
M  V30 4056 C 379.81 1.14325 1.11364 0
M  V30 4057 C 380.01 -0.0533648 2.01429 0
M  V30 4058 O 379.066 -0.728044 2.41776 0
M  V30 4059 C 380.379 2.43983 1.75764 0
M  V30 4060 C 381.927 2.50065 1.88246 0
M  V30 4061 C 382.402 3.79732 2.56061 0
M  V30 4062 N 383.893 3.80908 2.63558 0
M  V30 4063 C 384.628 4.77961 3.16766 0
M  V30 4064 N 384.124 5.85397 3.70517 0
M  V30 4065 N 385.917 4.65413 3.15194 0
M  V30 4066 H 378.068 2.11246 0.221096 0
M  V30 4067 H 380.331 0.934289 0.160649 0
M  V30 4068 H 380.037 3.31651 1.1705 0
M  V30 4069 H 379.911 2.57531 2.75604 0
M  V30 4070 H 382.298 1.62834 2.46108 0
M  V30 4071 H 382.379 2.40442 0.873006 0
M  V30 4072 H 382.023 4.67354 1.98853 0
M  V30 4073 H 381.953 3.86639 3.57516 0
M  V30 4074 H 384.444 3.03274 2.25463 0
M  V30 4075 H 384.757 6.55463 4.09376 0
M  V30 4076 H 383.102 5.89107 3.68752 0
M  V30 4077 H 386.293 3.80627 2.72471 0
M  V30 4078 H 386.466 5.41216 3.56356 0
M  V30 4079 N 379.872 -1.04064 1.18357 0
M  V30 4080 C 381.121 -1.76662 0.973313 0
M  V30 4081 C 381.434 -1.89154 -0.497991 0
M  V30 4082 O 382.64 -2.58606 -0.826762 0
M  V30 4083 C 381.096 -3.17624 1.69242 0
M  V30 4084 C 380.704 -3.13225 3.20303 0
M  V30 4085 C 382.448 -3.946 1.56497 0
M  V30 4086 C 380.355 -4.49046 3.84853 0
M  V30 4087 H 379.285 -0.662214 0.36054 0
M  V30 4088 H 381.936 -1.16553 1.41731 0
M  V30 4089 H 380.318 -3.78129 1.1762 0
M  V30 4090 H 381.492 -2.62172 3.78949 0
M  V30 4091 H 379.807 -2.49749 3.33189 0
M  V30 4092 H 382.404 -4.95042 2.02084 0
M  V30 4093 H 382.747 -4.13074 0.517243 0
M  V30 4094 H 383.28 -3.4067 2.05399 0
M  V30 4095 H 380.019 -4.35777 4.89672 0
M  V30 4096 H 379.539 -5.00203 3.30994 0
M  V30 4097 H 381.218 -5.17961 3.87718 0
M  V30 4098 N 381.35 -0.985608 -1.22978 0
M  V30 4099 C 382.28 -0.549649 -2.26939 0
M  V30 4100 C 383.261 0.419803 -1.64838 0
M  V30 4101 O 384.446 0.31203 -1.91677 0
M  V30 4102 C 381.576 0.143652 -3.47003 0
M  V30 4103 C 380.53 -0.743606 -4.21491 0
M  V30 4104 C 379.856 0.0822027 -5.34637 0
M  V30 4105 C 381.156 -2.03694 -4.80943 0
M  V30 4106 H 382.85 -1.41862 -2.63658 0
M  V30 4107 H 380.396 -0.683571 -1.26741 0
M  V30 4108 H 382.349 0.459985 -4.18882 0
M  V30 4109 H 381.073 1.04711 -3.09359 0
M  V30 4110 H 379.732 -1.04347 -3.51436 0
M  V30 4111 H 379.38 0.986359 -4.93234 0
M  V30 4112 H 379.08 -0.508377 -5.85397 0
M  V30 4113 H 380.604 0.392797 -6.09335 0
M  V30 4114 H 382.018 -1.78504 -5.44802 0
M  V30 4115 H 380.415 -2.57573 -5.42011 0
M  V30 4116 H 381.485 -2.72042 -4.01399 0
M  V30 4117 N 382.828 1.3818 -0.7579 0
M  V30 4118 C 384.076 1.99624 -0.315361 0
M  V30 4119 C 384.397 1.60464 1.10799 0
M  V30 4120 O 383.667 0.863507 1.75842 0
M  V30 4121 H 382.247 0.73831 -0.113611 0
M  V30 4122 H 384.909 1.68878 -0.972952 0
M  V30 4123 H 384.005 3.09754 -0.381931 0
M  V30 4124 N 384.306 0.507319 1.49211 0
M  V30 4125 C 385.256 -0.287112 2.26185 0
M  V30 4126 C 386.24 -0.929983 1.31302 0
M  V30 4127 O 387.432 -0.836538 1.55984 0
M  V30 4128 C 384.561 -1.34718 3.15763 0
M  V30 4129 C 383.647 -0.710235 4.18111 0
M  V30 4130 N 384.038 0.190836 5.0544 0
M  V30 4131 C 382.336 -0.97009 4.35322 0
M  V30 4132 C 383.037 0.55606 5.79036 0
M  V30 4133 N 382.013 -0.0775232 5.43545 0
M  V30 4134 H 385.815 0.406445 2.91076 0
M  V30 4135 H 383.329 0.323814 1.59139 0
M  V30 4136 H 385.326 -1.92982 3.69545 0
M  V30 4137 H 383.986 -2.04235 2.52424 0
M  V30 4138 H 384.997 0.562047 5.14841 0
M  V30 4139 H 381.674 -1.65753 3.83187 0
M  V30 4140 H 383.064 1.2936 6.5933 0
M  V30 4141 N 385.784 -1.5574 0.241426 0
M  V30 4142 C 387.03 -1.99104 -0.385406 0
M  V30 4143 C 387.363 -1.1293 -1.57988 0
M  V30 4144 O 386.638 -0.191449 -1.93555 0
M  V30 4145 C 386.921 -3.51087 -0.800616 0
M  V30 4146 C 386.774 -4.48028 0.398874 0
M  V30 4147 C 388.093 -4.08015 -1.64959 0
M  V30 4148 H 385.212 -0.723848 -0.138614 0
M  V30 4149 H 387.854 -1.86903 0.341642 0
M  V30 4150 H 386.004 -3.61615 -1.4201 0
M  V30 4151 H 387.676 -4.49487 1.03726 0
M  V30 4152 H 385.919 -4.21077 1.04293 0
M  V30 4153 H 386.59 -5.51962 0.0651056 0
M  V30 4154 H 389.066 -4.00555 -1.12672 0
M  V30 4155 H 387.942 -5.14635 -1.90898 0
M  V30 4156 H 388.203 -3.56131 -2.61961 0
M  V30 4157 N 387.262 0.0317525 -1.57568 0
M  V30 4158 C 388.209 1.0332 -2.06382 0
M  V30 4159 C 389.179 1.36082 -0.952414 0
M  V30 4160 O 390.364 1.46466 -1.2228 0
M  V30 4161 C 387.504 2.32989 -2.54578 0
M  V30 4162 C 386.617 2.0641 -3.79498 0
M  V30 4163 C 385.752 3.2993 -4.16317 0
M  V30 4164 C 384.791 2.98893 -5.34162 0
M  V30 4165 N 383.928 4.14857 -5.66426 0
M  V30 4166 H 388.768 0.609982 -2.9169 0
M  V30 4167 H 386.305 0.289573 -1.44222 0
M  V30 4168 H 388.263 3.0875 -2.80587 0
M  V30 4169 H 386.893 2.73039 -1.7219 0
M  V30 4170 H 385.945 1.21158 -3.6059 0
M  V30 4171 H 387.257 1.79513 -4.65378 0
M  V30 4172 H 386.411 4.1406 -4.4344 0
M  V30 4173 H 385.15 3.59938 -3.29083 0
M  V30 4174 H 384.155 2.13164 -5.06795 0
M  V30 4175 H 385.38 2.70165 -6.23047 0
M  V30 4176 H 383.326 4.44821 -4.82151 0
M  V30 4177 H 383.243 3.91374 -6.4681 0
M  V30 4178 H 384.511 4.99868 -5.98124 0
M  V30 4179 N 388.74 1.54641 0.303973 0
M  V30 4180 C 389.688 1.86137 1.39484 0
M  V30 4181 C 390.682 0.734854 1.52631 0
M  V30 4182 O 391.888 0.918803 1.54784 0
M  V30 4183 H 388.263 0.590324 0.465856 0
M  V30 4184 H 390.234 2.77324 1.10154 0
M  V30 4185 C 388.983 2.12274 2.75382 0
M  V30 4186 H 388.306 2.98429 2.66046 0
M  V30 4187 H 389.746 2.38254 3.5073 0
M  V30 4188 C 388.205 0.920365 3.24085 0
M  V30 4189 O 388.735 0.139377 4.01458 0
M  V30 4190 N 386.941 0.726566 2.81371 0
M  V30 4191 H 386.488 1.36332 2.18567 0
M  V30 4192 H 386.446 -0.0763799 3.14307 0
M  V30 4193 N 390.218 -0.567019 1.47046 0
M  V30 4194 C 391.464 -1.32658 1.53394 0
M  V30 4195 C 391.797 -1.93254 0.19148 0
M  V30 4196 O 391.072 -1.77338 -0.798844 0
M  V30 4197 C 391.355 -2.44412 2.64452 0
M  V30 4198 C 391.208 -1.88749 4.08282 0
M  V30 4199 C 392.527 -3.46387 2.71485 0
M  V30 4200 H 389.646 -0.48098 0.558415 0
M  V30 4201 H 392.288 -0.635481 1.79058 0
M  V30 4202 H 390.438 -3.03363 2.427 0
M  V30 4203 H 392.11 -1.34134 4.41368 0
M  V30 4204 H 390.353 -1.19481 4.17021 0
M  V30 4205 H 391.024 -2.69491 4.81745 0
M  V30 4206 H 393.5 -2.9734 2.91081 0
M  V30 4207 H 392.376 -4.2202 3.50985 0
M  V30 4208 H 392.637 -4.04616 1.78153 0
M  V30 4209 N 391.696 -1.35014 -0.812953 0
M  V30 4210 C 392.945 -1.27269 -1.56479 0
M  V30 4211 C 393.258 0.152771 -1.95002 0
M  V30 4212 O 394.464 0.352451 -2.69203 0
M  V30 4213 C 392.92 -2.23159 -2.82362 0
M  V30 4214 C 392.528 -3.71016 -2.511 0
M  V30 4215 C 394.272 -2.24342 -3.60376 0
M  V30 4216 C 392.179 -4.58746 -3.73237 0
M  V30 4217 H 391.109 -0.472829 -0.587324 0
M  V30 4218 H 393.76 -1.6024 -0.894171 0
M  V30 4219 H 392.142 -1.83151 -3.51101 0
M  V30 4220 H 393.316 -4.1962 -1.90409 0
M  V30 4221 H 391.631 -3.72378 -1.86343 0
M  V30 4222 H 394.228 -2.87107 -4.51081 0
M  V30 4223 H 394.571 -1.24542 -3.97234 0
M  V30 4224 H 395.104 -2.62846 -2.98591 0
M  V30 4225 H 391.843 -5.59521 -3.41492 0
M  V30 4226 H 391.363 -4.14871 -4.33176 0
M  V30 4227 H 393.042 -4.73852 -4.40537 0
M  V30 4228 N 393.175 1.03435 -1.18907 0
M  V30 4229 C 394.105 2.13503 -0.945448 0
M  V30 4230 C 395.086 1.69682 0.119189 0
M  V30 4231 O 396.271 1.94169 -0.034707 0
M  V30 4232 C 393.401 3.44004 -0.477316 0
M  V30 4233 C 392.355 4.0148 -1.48316 0
M  V30 4234 C 391.681 5.27537 -0.872311 0
M  V30 4235 C 392.981 4.36921 -2.86177 0
M  V30 4236 H 394.675 2.34141 -1.86597 0
M  V30 4237 H 392.221 1.12523 -0.898584 0
M  V30 4238 H 394.174 4.20372 -0.294204 0
M  V30 4239 H 392.898 3.23072 0.478786 0
M  V30 4240 H 391.557 3.27201 -1.65332 0
M  V30 4241 H 391.205 5.02917 0.0911752 0
M  V30 4242 H 390.905 5.66954 -1.54393 0
M  V30 4243 H 392.429 6.06576 -0.699871 0
M  V30 4244 H 393.843 5.04248 -2.72776 0
M  V30 4245 H 392.24 4.87405 -3.50081 0
M  V30 4246 H 393.31 3.46466 -3.39248 0
M  V30 4247 N 394.653 0.992116 1.22453 0
M  V30 4248 C 395.902 0.662992 1.90492 0
M  V30 4249 C 396.215 -0.808407 1.78113 0
M  V30 4250 O 397.421 -1.24908 2.41061 0
M  V30 4251 C 395.877 1.1353 3.41524 0
M  V30 4252 C 395.485 2.63187 3.62542 0
M  V30 4253 C 397.229 0.880465 4.15269 0
M  V30 4254 C 395.136 3.04024 5.0727 0
M  V30 4255 H 394.066 0.244278 0.713333 0
M  V30 4256 H 396.717 1.20157 1.38688 0
M  V30 4257 H 395.099 0.52485 3.92506 0
M  V30 4258 H 396.273 3.2957 3.22056 0
M  V30 4259 H 394.588 2.86543 3.02129 0
M  V30 4260 H 397.185 1.16128 5.21937 0
M  V30 4261 H 397.528 -0.183408 4.15896 0
M  V30 4262 H 398.061 1.45307 3.70312 0
M  V30 4263 H 394.8 4.09584 5.11782 0
M  V30 4264 H 394.32 2.42343 5.48662 0
M  V30 4265 H 395.999 2.95282 5.75689 0
M  V30 4266 N 396.131 -1.37776 0.765217 0
M  V30 4267 C 397.408 -1.93975 0.251596 0
M  V30 4268 C 397.788 -1.69949 -1.25222 0
M  V30 4269 O 397.136 -1.04457 -2.03226 0
M  V30 4270 C 397.346 -3.43487 0.617895 0
M  V30 4271 C 398.694 -4.20564 0.584029 0
M  V30 4272 O 399.718 -3.5182 0.556888 0
M  V30 4273 O 398.577 -5.43138 0.605291 0
M  V30 4274 H 395.671 -0.82509 0.0561806 0
M  V30 4275 H 398.217 -1.47101 0.846128 0
M  V30 4276 H 396.989 -3.5453 1.65602 0
M  V30 4277 H 396.612 -3.976 -0.00403411 0
M  V30 4278 N 397.609 -0.515225 -1.4894 0
M  V30 4279 C 399.02 -0.0710067 -1.86565 0
M  V30 4280 C 399.371 1.34733 -1.42623 0
M  V30 4281 O 398.496 2.00653 -0.810379 0
M  V30 4282 C 399.091 -0.122083 -3.3858 0
M  V30 4283 C 397.65 0.266863 -3.75453 0
M  V30 4284 C 396.797 -0.488376 -2.72966 0
M  V30 4285 H 399.748 -0.727266 -1.41055 0
M  V30 4286 H 399.769 0.669818 -3.74558 0
M  V30 4287 H 399.281 -1.15448 -3.70531 0
M  V30 4288 H 397.382 1.30196 -3.49113 0
M  V30 4289 H 397.495 -0.0624811 -4.79059 0
M  V30 4290 H 395.859 0.0635622 -2.54621 0
M  V30 4291 H 396.642 -1.52113 -3.07761 0
M  V30 4292 N 399.087 1.5561 -0.249682 0
M  V30 4293 C 400.019 2.18834 0.681496 0
M  V30 4294 C 401.032 1.16546 1.1367 0
M  V30 4295 O 402.221 1.43397 1.06299 0
M  V30 4296 C 399.321 2.77992 1.9384 0
M  V30 4297 C 398.494 4.05725 1.63419 0
M  V30 4298 C 397.553 4.49174 2.74096 0
M  V30 4299 O 396.579 5.15492 2.41364 0
M  V30 4300 N 397.781 4.17191 4.03649 0
M  V30 4301 H 400.546 2.9937 0.140514 0
M  V30 4302 H 398.107 1.6175 -0.0697541 0
M  V30 4303 H 400.099 3.04015 2.67127 0
M  V30 4304 H 398.669 2.01596 2.38909 0
M  V30 4305 H 397.889 3.87261 0.736358 0
M  V30 4306 H 399.177 4.88999 1.40562 0
M  V30 4307 H 398.575 3.63955 4.33074 0
M  V30 4308 H 397.132 4.48043 4.73393 0
M  V30 4309 N 400.565 -0.0233959 1.57583 0
M  V30 4310 C 401.475 -1.03907 2.10334 0
M  V30 4311 C 402.491 -1.39257 1.04323 0
M  V30 4312 O 403.667 -1.48462 1.36091 0
M  V30 4313 C 400.732 -2.31938 2.57693 0
M  V30 4314 C 399.793 -2.03117 3.78209 0
M  V30 4315 C 399.026 -3.25043 4.233 0
M  V30 4316 O 399.249 -4.35916 3.67876 0
M  V30 4317 O 398.183 -3.10411 5.15683 0
M  V30 4318 H 402.009 -0.620748 2.97288 0
M  V30 4319 H 399.594 -0.240743 1.47448 0
M  V30 4320 H 401.476 -3.07196 2.88458 0
M  V30 4321 H 400.151 -2.73055 1.73847 0
M  V30 4322 H 399.058 -1.25408 3.52454 0
M  V30 4323 H 400.391 -1.66852 4.63056 0
M  V30 4324 N 402.043 -1.548 -0.295768 0
M  V30 4325 C 403.273 -1.78069 -1.04762 0
M  V30 4326 C 403.681 -0.542847 -1.81245 0
M  V30 4327 O 403.024 0.497051 -1.76848 0
M  V30 4328 C 403.086 -2.93881 -2.07061 0
M  V30 4329 C 402.75 -4.31777 -1.49725 0
M  V30 4330 C 403.747 -5.11613 -0.924581 0
M  V30 4331 C 401.432 -4.78389 -1.5313 0
M  V30 4332 C 403.426 -6.36184 -0.393594 0
M  V30 4333 C 401.113 -6.02921 -0.996447 0
M  V30 4334 C 402.111 -6.81654 -0.428569 0
M  V30 4335 O 401.799 -8.0384 0.0981593 0
M  V30 4336 H 401.531 -0.597475 -0.316226 0
M  V30 4337 H 404.085 -2.02584 -0.338973 0
M  V30 4338 H 402.315 -2.65003 -2.81621 0
M  V30 4339 H 404.004 -3.04679 -2.6819 0
M  V30 4340 H 404.77 -4.76743 -0.891136 0
M  V30 4341 H 400.649 -4.17132 -1.9627 0
M  V30 4342 H 404.193 -6.97582 0.0503014 0
M  V30 4343 H 400.09 -6.37277 -1.02706 0
M  V30 4344 H 400.858 -8.18499 -0.0146455 0
M  V30 4345 N 403.521 0.559213 -1.47345 0
M  V30 4346 C 404.451 1.67622 -1.62558 0
M  V30 4347 C 405.432 1.63331 -0.475087 0
M  V30 4348 O 406.617 1.80983 -0.704182 0
M  V30 4349 C 403.747 3.0626 -1.63774 0
M  V30 4350 C 402.701 3.25397 -2.7803 0
M  V30 4351 C 402.027 4.64801 -2.64318 0
M  V30 4352 C 403.327 3.10965 -4.19641 0
M  V30 4353 H 405.021 1.55146 -2.56067 0
M  V30 4354 H 402.567 0.744961 -1.23233 0
M  V30 4355 H 404.52 3.84247 -1.73008 0
M  V30 4356 H 403.244 3.1969 -0.66825 0
M  V30 4357 H 401.903 2.49817 -2.68304 0
M  V30 4358 H 401.551 4.75028 -1.65401 0
M  V30 4359 H 401.251 4.78555 -3.40968 0
M  V30 4360 H 402.775 5.44926 -2.75478 0
M  V30 4361 H 404.189 3.78772 -4.30354 0
M  V30 4362 H 402.586 3.36229 -4.97062 0
M  V30 4363 H 403.656 2.07736 -4.38148 0
M  V30 4364 N 404.999 1.35443 0.805782 0
M  V30 4365 C 406.41 1.25768 1.37983 0
M  V30 4366 C 406.761 -0.10958 1.95894 0
M  V30 4367 O 405.886 -1.01056 1.91355 0
M  V30 4368 C 406.481 2.27727 2.5085 0
M  V30 4369 C 405.04 2.2179 3.04115 0
M  V30 4370 C 404.187 2.13393 1.77084 0
M  V30 4371 H 407.138 1.4656 0.608752 0
M  V30 4372 H 407.159 1.90422 3.29424 0
M  V30 4373 H 406.671 3.27227 2.08671 0
M  V30 4374 H 404.772 1.25703 3.50756 0
M  V30 4375 H 404.885 3.13788 3.62042 0
M  V30 4376 H 403.249 1.59384 1.98668 0
M  V30 4377 H 404.032 3.14755 1.37056 0
M  V30 4378 N 406.477 -1.02803 1.19454 0
M  V30 4379 C 407.724 -1.76217 0.997693 0
M  V30 4380 C 408.052 -1.887 -0.47144 0
M  V30 4381 O 407.307 -1.4011 -1.3663 0
M  V30 4382 C 407.606 -3.18941 1.6128 0
M  V30 4383 C 407.272 -3.26463 3.11019 0
M  V30 4384 C 405.934 -3.28223 3.51885 0
M  V30 4385 C 408.286 -3.25542 4.07028 0
M  V30 4386 C 405.614 -3.26719 4.8731 0
M  V30 4387 C 407.966 -3.25579 5.42385 0
M  V30 4388 C 406.63 -3.25637 5.82681 0
M  V30 4389 H 405.9 -0.644823 0.365082 0
M  V30 4390 H 408.547 -1.20655 1.4871 0
M  V30 4391 H 406.852 -3.77587 1.04572 0
M  V30 4392 H 408.549 -3.74415 1.43577 0
M  V30 4393 H 405.139 -3.25822 2.78457 0
M  V30 4394 H 409.323 -3.23362 3.76498 0
M  V30 4395 H 404.579 -3.25089 5.1781 0
M  V30 4396 H 408.753 -3.23817 6.16535 0
M  V30 4397 H 406.38 -3.24226 6.87591 0
M  V30 4398 N 407.956 -0.998596 -1.21925 0
M  V30 4399 C 409.202 -0.678667 -1.91107 0
M  V30 4400 C 409.535 0.78791 -1.77498 0
M  V30 4401 O 408.81 1.57043 -1.1475 0
M  V30 4402 C 409.093 -1.09245 -3.43129 0
M  V30 4403 C 408.946 -2.61801 -3.6576 0
M  V30 4404 C 410.265 -0.649984 -4.35274 0
M  V30 4405 H 407.384 -0.248025 -0.694012 0
M  V30 4406 H 410.026 -1.24314 -1.43688 0
M  V30 4407 H 408.176 -0.612171 -3.83647 0
M  V30 4408 H 409.848 -3.17543 -3.34611 0
M  V30 4409 H 408.091 -3.03609 -3.09845 0
M  V30 4410 H 408.762 -2.85804 -4.7225 0
M  V30 4411 H 411.238 -1.0626 -4.02303 0
M  V30 4412 H 410.114 -0.967743 -5.40302 0
M  V30 4413 H 410.375 0.449139 -4.39813 0
M  V30 4414 N 409.434 1.37368 -0.772513 0
M  V30 4415 C 410.68 2.00423 -0.3467 0
M  V30 4416 C 411.035 1.60224 1.06518 0
M  V30 4417 O 410.328 0.838712 1.72268 0
M  V30 4418 C 410.522 3.54817 -0.428876 0
M  V30 4419 C 410.351 4.10011 -1.84719 0
M  V30 4420 C 409.121 4.40927 -2.46803 0
M  V30 4421 C 411.319 4.30955 -2.80681 0
M  V30 4422 N 409.301 4.8184 -3.80399 0
M  V30 4423 C 410.672 4.74486 -3.99078 0
M  V30 4424 C 412.727 4.1309 -2.77958 0
M  V30 4425 C 411.43 5.02023 -5.15136 0
M  V30 4426 C 413.456 4.41764 -3.9319 0
M  V30 4427 C 412.818 4.85535 -5.10328 0
M  V30 4428 H 408.917 0.762413 -0.173927 0
M  V30 4429 H 411.501 1.66666 -1.00651 0
M  V30 4430 H 409.672 3.87881 0.200757 0
M  V30 4431 H 411.404 4.04696 0.0190668 0
M  V30 4432 H 408.159 4.30033 -1.98415 0
M  V30 4433 H 408.583 5.06604 -4.49089 0
M  V30 4434 H 413.225 3.7842 -1.88568 0
M  V30 4435 H 410.943 5.35582 -6.05126 0
M  V30 4436 H 414.529 4.29528 -3.92425 0
M  V30 4437 H 413.409 5.07296 -5.98013 0
M  V30 4438 N 410.912 0.523116 1.48665 0
M  V30 4439 C 411.842 -0.23231 2.32342 0
M  V30 4440 C 412.823 -0.941637 1.41659 0
M  V30 4441 O 414.008 -0.928751 1.70552 0
M  V30 4442 C 411.138 -1.28387 3.22698 0
M  V30 4443 C 410.092 -0.693098 4.22351 0
M  V30 4444 C 409.418 -1.8468 5.01794 0
M  V30 4445 C 410.718 0.33063 5.21252 0
M  V30 4446 H 412.412 0.466192 2.95748 0
M  V30 4447 H 409.958 0.225643 1.42221 0
M  V30 4448 H 411.911 -1.82024 3.80059 0
M  V30 4449 H 410.635 -2.01186 2.57278 0
M  V30 4450 H 409.294 -0.178299 3.66166 0
M  V30 4451 H 408.942 -2.56301 4.32804 0
M  V30 4452 H 408.642 -1.45747 5.69238 0
M  V30 4453 H 410.166 -2.38709 5.62006 0
M  V30 4454 H 411.58 -0.118407 5.73178 0
M  V30 4455 H 409.977 0.636974 5.9671 0
M  V30 4456 H 411.047 1.23883 4.68808 0
M  V30 4457 N 412.39 -1.55475 0.257931 0
M  V30 4458 C 413.323 -2.179 -0.677862 0
M  V30 4459 C 414.301 -1.13448 -1.16483 0
M  V30 4460 O 415.485 -1.41889 -1.24095 0
M  V30 4461 C 412.612 -2.78851 -1.92249 0
M  V30 4462 C 411.658 -3.96454 -1.57246 0
M  V30 4463 S 412.491 -5.31349 -0.665501 0
M  V30 4464 C 413.647 -5.9576 -1.91889 0
M  V30 4465 H 413.88 -2.96934 -0.147396 0
M  V30 4466 H 411.413 -1.54342 0.0423023 0
M  V30 4467 H 413.371 -3.14602 -2.63697 0
M  V30 4468 H 412.032 -1.99742 -2.42409 0
M  V30 4469 H 411.225 -4.37731 -2.49814 0
M  V30 4470 H 410.827 -3.62038 -0.938325 0
M  V30 4471 H 413.119 -6.13947 -2.86487 0
M  V30 4472 H 414.062 -6.9094 -1.54942 0
M  V30 4473 H 414.47 -5.2494 -2.076 0
M  V30 4474 N 413.868 0.0150385 -1.57593 0
M  V30 4475 C 414.816 1.02958 -2.08572 0
M  V30 4476 C 415.81 1.36554 -1.00246 0
M  V30 4477 O 417.016 1.35295 -1.18724 0
M  V30 4478 H 413.391 0.349619 -0.665786 0
M  V30 4479 H 415.362 0.573932 -2.92829 0
M  V30 4480 C 414.111 2.31752 -2.59203 0
M  V30 4481 H 413.434 2.06765 -3.42182 0
M  V30 4482 H 414.874 3.01053 -2.98568 0
M  V30 4483 C 413.333 3.01692 -1.49945 0
M  V30 4484 O 413.863 3.92083 -0.873704 0
M  V30 4485 N 412.069 2.6326 -1.23056 0
M  V30 4486 H 411.616 1.89838 -1.74125 0
M  V30 4487 H 411.574 3.10372 -0.501685 0
M  V30 4488 N 415.346 1.54954 0.287554 0
M  V30 4489 C 416.296 1.8322 1.357 0
M  V30 4490 C 417.28 0.690152 1.45347 0
M  V30 4491 O 418.472 0.951137 1.49273 0
M  V30 4492 C 415.601 2.09481 2.71979 0
M  V30 4493 C 414.687 3.29906 2.66502 0
M  V30 4494 N 415.078 4.50154 2.30641 0
M  V30 4495 C 413.376 3.32203 2.97585 0
M  V30 4496 C 414.077 5.32209 2.34794 0
M  V30 4497 N 413.053 4.70258 2.72688 0
M  V30 4498 H 416.855 2.73746 1.0696 0
M  V30 4499 H 414.369 1.54635 0.496167 0
M  V30 4500 H 416.366 2.27882 3.49107 0
M  V30 4501 H 415.026 1.2023 3.0162 0
M  V30 4502 H 416.037 4.76515 2.02865 0
M  V30 4503 H 412.714 2.53101 3.32034 0
M  V30 4504 H 414.104 6.38321 2.09753 0
M  V30 4505 N 416.824 -0.551391 1.4764 0
M  V30 4506 C 417.787 -1.64007 1.60107 0
M  V30 4507 C 418.787 -1.53601 0.47576 0
M  V30 4508 O 419.977 -1.57655 0.740988 0
M  V30 4509 C 417.109 -3.03569 1.55108 0
M  V30 4510 H 418.302 -1.543 2.57161 0
M  V30 4511 H 415.855 -0.771776 1.35917 0
M  V30 4512 H 416.59 -3.18804 0.594519 0
M  V30 4513 H 416.375 -3.12532 2.36783 0
M  V30 4514 H 417.865 -3.82762 1.66982 0
M  V30 4515 N 418.302 -1.35869 -0.798587 0
M  V30 4516 C 419.548 -1.30788 -1.55775 0
M  V30 4517 C 419.903 0.114558 -1.92059 0
M  V30 4518 O 419.196 1.06691 -1.59147 0
M  V30 4519 C 419.39 -2.1556 -2.85077 0
M  V30 4520 C 419.219 -3.65904 -2.61428 0
M  V30 4521 C 417.989 -4.35112 -2.56915 0
M  V30 4522 C 420.187 -4.59375 -2.31255 0
M  V30 4523 N 418.169 -5.71155 -2.25068 0
M  V30 4524 C 419.54 -5.83598 -2.09316 0
M  V30 4525 C 421.595 -4.48035 -2.17185 0
M  V30 4526 C 420.298 -6.97755 -1.74731 0
M  V30 4527 C 422.324 -5.62049 -1.83998 0
M  V30 4528 C 421.686 -6.85305 -1.629 0
M  V30 4529 H 417.785 -0.533855 -0.571422 0
M  V30 4530 H 420.369 -1.7083 -0.934079 0
M  V30 4531 H 418.54 -1.77776 -3.45326 0
M  V30 4532 H 420.272 -2.01938 -3.50718 0
M  V30 4533 H 417.027 -3.87812 -2.71843 0
M  V30 4534 H 417.451 -6.42978 -2.11916 0
M  V30 4535 H 422.093 -3.53338 -2.3219 0
M  V30 4536 H 419.811 -7.92411 -1.58464 0
M  V30 4537 H 423.397 -5.55232 -1.73808 0
M  V30 4538 H 422.277 -7.72034 -1.37596 0
M  V30 4539 N 419.78 1.02168 -1.19998 0
M  V30 4540 C 420.71 2.12488 -0.96804 0
M  V30 4541 C 421.691 1.69799 0.101185 0
M  V30 4542 O 422.876 1.94121 -0.0552993 0
M  V30 4543 C 420.006 3.43479 -0.513776 0
M  V30 4544 C 418.96 3.99884 -1.52566 0
M  V30 4545 C 418.286 5.26582 -0.928214 0
M  V30 4546 C 419.586 4.33861 -2.90795 0
M  V30 4547 H 421.28 2.32149 -1.89069 0
M  V30 4548 H 418.826 1.11564 -0.910468 0
M  V30 4549 H 420.779 4.20036 -0.338774 0
M  V30 4550 H 419.503 3.23561 0.444493 0
M  V30 4551 H 418.162 3.25429 -1.68794 0
M  V30 4552 H 417.81 5.02986 0.0378289 0
M  V30 4553 H 417.51 5.65284 -1.60397 0
M  V30 4554 H 419.034 6.05799 -0.764167 0
M  V30 4555 H 420.448 5.01327 -2.78109 0
M  V30 4556 H 418.845 4.83664 -3.55231 0
M  V30 4557 H 419.915 3.42848 -3.42904 0
M  V30 4558 N 421.258 1.00505 1.21394 0
M  V30 4559 C 422.507 0.683159 1.89778 0
M  V30 4560 C 422.82 -0.789471 1.7896 0
M  V30 4561 O 424.026 -1.22344 2.42372 0
M  V30 4562 C 422.482 1.17146 3.40301 0
M  V30 4563 C 422.09 2.67017 3.5973 0
M  V30 4564 C 423.834 0.924461 4.14311 0
M  V30 4565 C 421.741 3.09387 5.04017 0
M  V30 4566 H 420.671 0.25183 0.710702 0
M  V30 4567 H 423.322 1.21622 1.37406 0
M  V30 4568 H 421.704 0.566451 3.91928 0
M  V30 4569 H 422.878 3.32968 3.18542 0
M  V30 4570 H 421.193 2.89732 2.99073 0
M  V30 4571 H 423.79 1.21658 5.20676 0
M  V30 4572 H 424.133 -0.139286 4.16067 0
M  V30 4573 H 424.666 1.49226 3.6875 0
M  V30 4574 H 421.405 4.14989 5.07409 0
M  V30 4575 H 420.925 2.48149 5.46061 0
M  V30 4576 H 422.604 3.01371 5.72525 0
M  V30 4577 N 422.737 -1.36956 0.779787 0
M  V30 4578 C 423.667 -2.32761 0.185651 0
M  V30 4579 C 424.648 -1.56177 -0.673989 0
M  V30 4580 O 425.833 -1.84378 -0.609797 0
M  V30 4581 C 422.963 -3.40418 -0.687964 0
M  V30 4582 C 421.917 -4.27941 0.0710102 0
M  V30 4583 C 421.243 -5.26681 -0.922573 0
M  V30 4584 C 422.543 -5.07006 1.25467 0
M  V30 4585 H 424.237 -2.82698 0.986008 0
M  V30 4586 H 421.783 -1.3592 0.475592 0
M  V30 4587 H 423.736 -4.06423 -1.11348 0
M  V30 4588 H 422.46 -2.89025 -1.52093 0
M  V30 4589 H 421.119 -3.63478 0.47739 0
M  V30 4590 H 420.767 -4.71565 -1.7503 0
M  V30 4591 H 420.467 -5.86103 -0.419237 0
M  V30 4592 H 421.991 -5.9556 -1.34686 0
M  V30 4593 H 423.405 -5.66105 0.905401 0
M  V30 4594 H 421.802 -5.75793 1.69063 0
M  V30 4595 H 422.872 -4.3921 2.05481 0
M  V30 4596 N 424.215 -0.530993 -1.48385 0
M  V30 4597 C 425.443 -0.00134122 -2.069 0
M  V30 4598 C 425.858 1.2805 -1.3874 0
M  V30 4599 O 425.215 1.76204 -0.475244 0
M  V30 4600 C 425.266 0.225256 -3.60798 0
M  V30 4601 O 424.987 -1.0058 -4.26398 0
M  V30 4602 C 426.488 0.795172 -4.3611 0
M  V30 4603 H 423.708 -0.0339704 -0.67014 0
M  V30 4604 H 426.252 -0.736926 -1.90761 0
M  V30 4605 H 424.407 0.910891 -3.76539 0
M  V30 4606 H 424.821 -0.787165 -5.1856 0
M  V30 4607 H 426.295 0.903143 -5.44562 0
M  V30 4608 H 426.772 1.80031 -4.00606 0
M  V30 4609 H 427.378 0.146069 -4.25049 0
M  V30 4610 N 425.693 1.55336 -0.266172 0
M  V30 4611 C 426.97 1.91372 0.404486 0
M  V30 4612 C 427.35 1.18935 1.74407 0
M  V30 4613 O 426.698 0.3132 2.26343 0
M  V30 4614 C 426.908 3.44581 0.553593 0
M  V30 4615 C 428.256 4.16196 0.840618 0
M  V30 4616 O 429.28 3.50426 0.638739 0
M  V30 4617 O 428.139 5.32567 1.22618 0
M  V30 4618 H 425.233 0.797194 0.220025 0
M  V30 4619 H 427.779 1.66813 -0.311664 0
M  V30 4620 H 426.551 3.89357 -0.389498 0
M  V30 4621 H 426.174 3.75065 1.31955 0
M  V30 4622 N 427.171 -0.0066808 1.57599 0
M  V30 4623 C 428.396 -0.707738 1.94951 0
M  V30 4624 C 428.821 -1.66882 0.867868 0
M  V30 4625 O 428.179 -1.80457 -0.17458 0
M  V30 4626 C 428.227 -1.42162 3.31394 0
M  V30 4627 O 427.331 -2.53578 3.25226 0
M  V30 4628 H 426.672 -0.188752 0.636607 0
M  V30 4629 H 429.202 0.0445193 2.04552 0
M  V30 4630 H 429.212 -1.78655 3.66806 0
M  V30 4631 H 427.887 -0.716903 4.09675 0
M  V30 4632 H 426.464 -2.19463 3.01481 0
M  V30 4633 N 428.649 -1.55105 -0.279332 0
M  V30 4634 C 429.897 -1.75066 -1.00977 0
M  V30 4635 C 430.218 -0.551276 -1.87045 0
M  V30 4636 O 429.488 0.433984 -1.91032 0
M  V30 4637 H 428.068 -0.645578 -0.375816 0
M  V30 4638 H 430.73 -1.92497 -0.305089 0
M  V30 4639 H 429.826 -2.64894 -1.65038 0
M  V30 4640 N 430.127 0.543554 -1.4793 0
M  V30 4641 C 431.375 1.29752 -1.54948 0
M  V30 4642 C 431.696 1.93764 -0.219242 0
M  V30 4643 O 430.966 1.80639 0.75805 0
M  V30 4644 H 429.546 0.481874 -0.570795 0
M  V30 4645 H 432.208 0.633636 -1.84312 0
M  V30 4646 H 431.304 2.08392 -2.32334 0
M  V30 4647 N 431.605 1.3629 0.791371 0
M  V30 4648 C 432.854 1.29742 1.54434 0
M  V30 4649 C 433.167 -0.121729 1.95221 0
M  V30 4650 O 434.373 -0.309579 2.69729 0
M  V30 4651 C 432.829 2.27623 2.78776 0
M  V30 4652 C 432.437 3.74963 2.45166 0
M  V30 4653 C 434.181 2.30047 3.56761 0
M  V30 4654 C 432.088 4.64626 3.65891 0
M  V30 4655 H 431.018 0.482113 0.579727 0
M  V30 4656 H 433.669 1.61642 0.868565 0
M  V30 4657 H 432.051 1.88714 3.48142 0
M  V30 4658 H 433.225 4.22596 1.83709 0
M  V30 4659 H 431.54 3.75295 1.80396 0
M  V30 4660 H 434.137 2.94247 4.46456 0
M  V30 4661 H 434.48 1.30846 3.95203 0
M  V30 4662 H 435.013 2.67563 2.94372 0
M  V30 4663 H 431.752 5.64883 3.32547 0
M  V30 4664 H 431.272 4.2171 4.26521 0
M  V30 4665 H 432.951 4.80801 4.32943 0
M  V30 4666 N 433.083 -1.0153 1.20538 0
M  V30 4667 C 434.015 -2.10224 0.913155 0
M  V30 4668 C 435.028 -1.62495 -0.0995998 0
M  V30 4669 O 436.217 -1.78014 0.131582 0
M  V30 4670 C 433.317 -3.37111 0.347717 0
M  V30 4671 C 432.49 -4.13971 1.41233 0
M  V30 4672 C 431.549 -5.19158 0.857976 0
M  V30 4673 O 430.575 -5.48 1.53897 0
M  V30 4674 N 431.777 -5.7955 -0.331966 0
M  V30 4675 H 434.542 -2.35879 1.84881 0
M  V30 4676 H 432.103 -1.17931 1.10923 0
M  V30 4677 H 434.095 -4.04683 -0.0373026 0
M  V30 4678 H 432.665 -3.08696 -0.492527 0
M  V30 4679 H 431.885 -3.41351 1.97163 0
M  V30 4680 H 433.173 -4.62103 2.12928 0
M  V30 4681 H 432.571 -5.58455 -0.902478 0
M  V30 4682 H 431.128 -6.48464 -0.65861 0
M  V30 4683 N 434.561 -1.01147 -1.20859 0
M  V30 4684 C 435.471 -0.58686 -2.27141 0
M  V30 4685 C 436.487 0.373198 -1.69951 0
M  V30 4686 O 437.663 0.235423 -2.00019 0
M  V30 4687 C 434.728 0.0733602 -3.46622 0
M  V30 4688 C 433.789 -0.931995 -4.19061 0
M  V30 4689 C 433.022 -0.303186 -5.32838 0
M  V30 4690 O 433.245 0.898395 -5.63281 0
M  V30 4691 O 432.179 -1.01735 -5.9324 0
M  V30 4692 H 436.005 -1.47155 -2.65667 0
M  V30 4693 H 433.59 -0.780689 -1.2738 0
M  V30 4694 H 435.472 0.442333 -4.19072 0
M  V30 4695 H 434.147 0.932329 -3.09983 0
M  V30 4696 H 433.054 -1.35224 -3.48805 0
M  V30 4697 H 434.387 -1.76076 -4.59628 0
M  V30 4698 N 436.039 1.36541 -0.78704 0
M  V30 4699 C 436.949 2.3387 -0.184896 0
M  V30 4700 C 437.965 1.60927 0.661697 0
M  V30 4701 O 439.141 1.92927 0.57804 0
M  V30 4702 C 436.206 3.40122 0.672145 0
M  V30 4703 C 435.267 4.28867 -0.19267 0
M  V30 4704 C 434.5 5.30045 0.623561 0
M  V30 4705 O 434.723 5.39232 1.8597 0
M  V30 4706 O 433.657 6.01895 0.0247068 0
M  V30 4707 H 437.483 2.87126 -0.989562 0
M  V30 4708 H 435.068 1.38969 -0.548455 0
M  V30 4709 H 436.95 4.05093 1.16094 0
M  V30 4710 H 435.625 2.89169 1.45474 0
M  V30 4711 H 434.532 3.66945 -0.728166 0
M  V30 4712 H 435.865 4.83165 -0.938722 0
M  V30 4713 N 437.518 0.538854 1.48102 0
M  V30 4714 C 438.481 -0.208395 2.28251 0
M  V30 4715 C 439.481 -0.859656 1.35892 0
M  V30 4716 O 440.671 -0.71834 1.58699 0
M  V30 4717 C 437.803 -1.30252 3.15035 0
M  V30 4718 H 438.996 0.495407 2.9578 0
M  V30 4719 H 436.549 0.295112 1.53489 0
M  V30 4720 H 437.284 -2.0393 2.52157 0
M  V30 4721 H 437.069 -0.840551 3.82985 0
M  V30 4722 H 438.559 -1.82787 3.75471 0
M  V30 4723 N 438.996 -1.55193 0.274407 0
M  V30 4724 C 440.407 -1.85358 -0.223488 0
M  V30 4725 C 440.758 -1.19642 -1.555 0
M  V30 4726 O 439.883 -0.484498 -2.10907 0
M  V30 4727 C 440.478 -3.36282 -0.412285 0
M  V30 4728 C 439.037 -3.66574 -0.854413 0
M  V30 4729 C 438.184 -2.7725 0.0527056 0
M  V30 4730 H 441.135 -1.50743 0.496215 0
M  V30 4731 H 441.156 -3.59349 -1.25094 0
M  V30 4732 H 440.668 -3.84083 0.556965 0
M  V30 4733 H 438.769 -3.24273 -1.83516 0
M  V30 4734 H 438.882 -4.74073 -0.692226 0
M  V30 4735 H 437.246 -2.50447 -0.463484 0
M  V30 4736 H 438.029 -3.27865 1.01783 0
M  V30 4737 N 440.474 -0.00167713 -1.576 0
M  V30 4738 C 441.699 0.69739 -1.95323 0
M  V30 4739 C 442.124 1.6642 -0.876706 0
M  V30 4740 O 441.482 1.80548 0.165007 0
M  V30 4741 C 441.53 1.40403 -3.32144 0
M  V30 4742 O 440.634 2.5185 -3.26566 0
M  V30 4743 H 439.975 0.185373 -0.637599 0
M  V30 4744 H 442.505 -0.0553665 -2.04525 0
M  V30 4745 H 442.515 1.76707 -3.67748 0
M  V30 4746 H 441.19 0.695167 -4.10049 0
M  V30 4747 H 439.767 2.17861 -3.0264 0
M  V30 4748 N 441.952 1.55251 0.271103 0
M  V30 4749 C 442.882 1.9127 1.33933 0
M  V30 4750 C 443.863 0.77478 1.5143 0
M  V30 4751 O 445.048 1.03307 1.64442 0
M  V30 4752 C 442.178 2.18627 2.69851 0
M  V30 4753 C 441.132 3.34442 2.67081 0
M  V30 4754 C 440.458 3.47284 4.06569 0
M  V30 4755 C 441.758 4.70784 2.26185 0
M  V30 4756 H 443.452 2.80744 1.04035 0
M  V30 4757 H 440.998 1.35077 0.499017 0
M  V30 4758 H 442.951 2.42413 3.44694 0
M  V30 4759 H 441.675 1.25955 3.01335 0
M  V30 4760 H 440.334 3.10627 1.94695 0
M  V30 4761 H 439.982 2.52074 4.35279 0
M  V30 4762 H 439.682 4.25152 4.0561 0
M  V30 4763 H 441.206 3.73363 4.83148 0
M  V30 4764 H 442.62 4.94102 2.90751 0
M  V30 4765 H 441.017 5.51582 2.36384 0
M  V30 4766 H 442.087 4.69478 1.21319 0
M  V30 4767 N 443.43 -0.535701 1.48216 0
M  V30 4768 C 444.678 -1.28928 1.55634 0
M  V30 4769 C 444.999 -1.93645 0.229514 0
M  V30 4770 O 444.269 -1.81038 -0.74846 0
M  V30 4771 H 442.849 -0.47884 0.573342 0
M  V30 4772 H 445.511 -0.623853 1.84646 0
M  V30 4773 H 444.607 -2.07157 2.33436 0
M  V30 4774 N 444.908 -1.36708 -0.784132 0
M  V30 4775 C 445.855 -1.31466 -1.89698 0
M  V30 4776 C 446.825 -0.18239 -1.65096 0
M  V30 4777 O 448.01 -0.369762 -1.87183 0
M  V30 4778 C 445.15 -1.1151 -3.26588 0
M  V30 4779 C 444.263 -2.33859 -3.63227 0
M  V30 4780 C 443.398 -2.06873 -4.89262 0
M  V30 4781 C 442.437 -3.25154 -5.18595 0
M  V30 4782 N 441.574 -2.978 -6.35814 0
M  V30 4783 H 446.414 -2.26619 -1.93515 0
M  V30 4784 H 443.951 -1.12625 -0.946256 0
M  V30 4785 H 445.909 -0.979653 -4.05535 0
M  V30 4786 H 444.539 -0.200103 -3.22179 0
M  V30 4787 H 443.591 -2.58188 -2.79362 0
M  V30 4788 H 444.903 -3.22109 -3.8085 0
M  V30 4789 H 444.057 -1.90289 -5.76086 0
M  V30 4790 H 442.796 -1.15942 -4.73718 0
M  V30 4791 H 441.801 -3.42292 -4.30251 0
M  V30 4792 H 443.026 -4.1692 -5.36055 0
M  V30 4793 H 440.972 -2.09485 -6.21653 0
M  V30 4794 H 440.889 -3.7959 -6.53794 0
M  V30 4795 H 442.157 -2.84805 -7.25607 0
M  V30 4796 N 446.386 1.0089 -1.21074 0
M  V30 4797 C 447.797 1.56056 -1.02486 0
M  V30 4798 C 448.148 1.91728 0.416506 0
M  V30 4799 O 447.273 1.73066 1.29912 0
M  V30 4800 C 447.868 2.83563 -1.85411 0
M  V30 4801 C 446.427 3.3523 -1.71166 0
M  V30 4802 C 445.574 2.0846 -1.82865 0
M  V30 4803 H 448.525 0.831818 -1.35154 0
M  V30 4804 H 448.546 3.55286 -1.36205 0
M  V30 4805 H 448.058 2.57569 -2.9031 0
M  V30 4806 H 446.159 3.66167 -0.689361 0
M  V30 4807 H 446.272 4.06913 -2.52901 0
M  V30 4808 H 444.636 2.21275 -1.26132 0
M  V30 4809 H 445.419 1.84883 -2.89263 0
M  V30 4810 N 447.864 1.01787 1.20321 0
M  V30 4811 C 449.11 0.708985 1.90003 0
M  V30 4812 C 449.443 -0.759572 1.78729 0
M  V30 4813 O 448.718 -1.55198 1.17234 0
M  V30 4814 C 449.001 1.1469 3.41348 0
M  V30 4815 C 448.854 2.67586 3.61549 0
M  V30 4816 C 450.173 0.71915 4.34185 0
M  V30 4817 H 447.292 0.259034 0.689978 0
M  V30 4818 H 449.934 1.26584 1.41692 0
M  V30 4819 H 448.084 0.673128 3.82624 0
M  V30 4820 H 449.756 3.22826 3.29517 0
M  V30 4821 H 447.999 3.085 3.04976 0
M  V30 4822 H 448.67 2.93281 4.67643 0
M  V30 4823 H 451.146 1.12647 4.00562 0
M  V30 4824 H 450.022 1.05358 5.38694 0
M  V30 4825 H 450.283 -0.379111 4.40472 0
M  V30 4826 N 449.342 -1.36122 0.79427 0
M  V30 4827 C 450.272 -2.32551 0.210328 0
M  V30 4828 C 451.253 -1.56884 -0.657386 0
M  V30 4829 O 452.438 -1.85014 -0.590207 0
M  V30 4830 C 449.568 -3.41128 -0.651819 0
M  V30 4831 C 448.522 -4.27842 0.116395 0
M  V30 4832 C 447.848 -5.2763 -0.86666 0
M  V30 4833 C 449.148 -5.05647 1.30837 0
M  V30 4834 H 450.842 -2.81636 1.01594 0
M  V30 4835 H 448.388 -1.35407 0.489981 0
M  V30 4836 H 450.341 -4.07581 -1.07031 0
M  V30 4837 H 449.065 -2.90622 -1.49019 0
M  V30 4838 H 447.724 -3.62952 0.515915 0
M  V30 4839 H 447.372 -4.73395 -1.70019 0
M  V30 4840 H 447.072 -5.86514 -0.35705 0
M  V30 4841 H 448.596 -5.96955 -1.28361 0
M  V30 4842 H 450.01 -5.65113 0.965393 0
M  V30 4843 H 448.407 -5.73967 1.75161 0
M  V30 4844 H 449.477 -4.37006 2.10128 0
M  V30 4845 N 450.82 -0.546701 -1.47814 0
M  V30 4846 C 452.066 -0.0187684 -2.02791 0
M  V30 4847 C 452.399 1.32338 -1.42128 0
M  V30 4848 O 451.674 1.85867 -0.573023 0
M  V30 4849 C 451.957 0.0854985 -3.59998 0
M  V30 4850 C 451.81 -1.283 -4.31114 0
M  V30 4851 C 453.129 0.80412 -4.32691 0
M  V30 4852 H 450.248 -0.0082946 -0.736953 0
M  V30 4853 H 452.89 -0.706962 -1.76358 0
M  V30 4854 H 451.04 0.671609 -3.82651 0
M  V30 4855 H 452.712 -1.91151 -4.19832 0
M  V30 4856 H 450.955 -1.86049 -3.91878 0
M  V30 4857 H 451.626 -1.16287 -5.39612 0
M  V30 4858 H 454.102 0.306576 -4.14969 0
M  V30 4859 H 452.978 0.846011 -5.42341 0
M  V30 4860 H 453.239 1.85802 -4.01161 0
M  V30 4861 N 452.299 1.55045 -0.282633 0
M  V30 4862 C 453.232 2.18951 0.64311 0
M  V30 4863 C 454.21 1.15287 1.14664 0
M  V30 4864 O 455.394 1.43846 1.21822 0
M  V30 4865 C 452.521 2.81874 1.87789 0
M  V30 4866 C 451.567 3.98906 1.50919 0
M  V30 4867 S 452.4 5.3234 0.580884 0
M  V30 4868 C 453.556 5.98737 1.82387 0
M  V30 4869 H 453.789 2.97131 0.100138 0
M  V30 4870 H 451.322 1.54255 -0.0668514 0
M  V30 4871 H 453.28 3.18757 2.58658 0
M  V30 4872 H 451.941 2.03573 2.392 0
M  V30 4873 H 451.134 4.4165 2.42819 0
M  V30 4874 H 450.736 3.63485 0.88061 0
M  V30 4875 H 453.028 6.18427 2.76684 0
M  V30 4876 H 453.971 6.93318 1.4393 0
M  V30 4877 H 454.379 5.28177 1.99223 0
M  V30 4878 N 453.777 0.010035 1.57597 0
M  V30 4879 C 455.193 -0.346164 1.55801 0
M  V30 4880 C 455.393 -1.74144 1.01371 0
M  V30 4881 O 454.449 -2.43938 0.651968 0
M  V30 4882 C 455.762 -0.212216 2.9995 0
M  V30 4883 C 457.31 -0.286409 3.11687 0
M  V30 4884 C 457.785 -0.18147 4.5764 0
M  V30 4885 N 459.276 -0.239056 4.62583 0
M  V30 4886 C 460.011 -0.181351 5.73113 0
M  V30 4887 N 459.507 -0.073661 6.92761 0
M  V30 4888 N 461.3 -0.233949 5.61613 0
M  V30 4889 H 453.451 0.922657 1.91313 0
M  V30 4890 H 455.714 0.354595 0.879185 0
M  V30 4891 H 455.42 0.748169 3.4365 0
M  V30 4892 H 455.294 -0.990224 3.6397 0
M  V30 4893 H 457.681 -1.23724 2.67911 0
M  V30 4894 H 457.762 0.521645 2.50425 0
M  V30 4895 H 457.406 0.765863 5.02093 0
M  V30 4896 H 457.336 -1.00814 5.1686 0
M  V30 4897 H 459.827 -0.32321 3.76515 0
M  V30 4898 H 460.14 -0.0358003 7.72792 0
M  V30 4899 H 458.485 -0.0391461 6.94989 0
M  V30 4900 H 461.676 -0.316347 4.6703 0
M  V30 4901 H 461.849 -0.185514 6.47734 0
M  V30 4902 N 455.255 -1.55392 -0.262866 0
M  V30 4903 C 456.532 -1.67204 -1.01499 0
M  V30 4904 C 456.912 -0.545186 -2.03939 0
M  V30 4905 O 456.26 0.453467 -2.23955 0
M  V30 4906 C 456.47 -3.06847 -1.6627 0
M  V30 4907 C 457.818 -3.64928 -2.17054 0
M  V30 4908 O 458.842 -3.09545 -1.76239 0
M  V30 4909 O 457.701 -4.61984 -2.91947 0
M  V30 4910 H 454.795 -0.679467 -0.471438 0
M  V30 4911 H 457.341 -1.67729 -0.257918 0
M  V30 4912 H 456.113 -3.80309 -0.920915 0
M  V30 4913 H 455.736 -3.10266 -2.48638 0
M  V30 4914 N 456.733 0.527833 -1.48498 0
M  V30 4915 C 457.961 1.30823 -1.6029 0
M  V30 4916 C 458.376 1.86945 -0.263974 0
M  V30 4917 O 457.733 1.6651 0.747034 0
M  V30 4918 C 457.784 2.45756 -2.65116 0
M  V30 4919 O 457.505 1.91946 -3.93813 0
M  V30 4920 C 459.006 3.37543 -2.87367 0
M  V30 4921 H 456.226 0.397763 -0.540394 0
M  V30 4922 H 458.77 0.636529 -1.94341 0
M  V30 4923 H 456.925 3.08806 -2.33917 0
M  V30 4924 H 457.339 2.67195 -4.51339 0
M  V30 4925 H 458.813 4.14532 -3.6451 0
M  V30 4926 H 459.29 3.92905 -1.9627 0
M  V30 4927 H 459.896 2.80283 -3.19878 0
M  V30 4928 N 458.211 1.37122 0.776871 0
M  V30 4929 C 459.439 1.3523 1.5659 0
M  V30 4930 C 459.854 -0.0635518 1.88693 0
M  V30 4931 O 459.211 -1.02394 1.51069 0
M  V30 4932 C 459.262 2.18583 2.8793 0
M  V30 4933 O 458.983 3.5465 2.57206 0
M  V30 4934 C 460.484 2.24612 3.82183 0
M  V30 4935 H 457.704 0.4634 0.485285 0
M  V30 4936 H 460.248 1.80392 0.963266 0
M  V30 4937 H 458.403 1.76943 3.4463 0
M  V30 4938 H 458.817 3.98286 3.41275 0
M  V30 4939 H 460.291 2.87267 4.71361 0
M  V30 4940 H 460.768 1.25309 4.20944 0
M  V30 4941 H 461.374 2.66543 3.31414 0
M  V30 4942 N 459.689 -1.00246 1.21608 0
M  V30 4943 C 460.599 -2.12515 0.993709 0
M  V30 4944 C 461.615 -1.73913 -0.0549939 0
M  V30 4945 O 462.791 -2.00943 0.135619 0
M  V30 4946 C 459.856 -3.42083 0.563953 0
M  V30 4947 C 458.917 -3.94843 1.68516 0
M  V30 4948 C 458.15 -5.18226 1.27582 0
M  V30 4949 O 458.373 -5.70201 0.150506 0
M  V30 4950 O 457.307 -5.64497 2.0887 0
M  V30 4951 H 461.133 -2.34152 1.93407 0
M  V30 4952 H 458.718 -1.10891 1.00118 0
M  V30 4953 H 460.6 -4.20073 0.334194 0
M  V30 4954 H 459.275 -3.21828 -0.347665 0
M  V30 4955 H 458.182 -3.18068 1.96935 0
M  V30 4956 H 459.515 -4.19512 2.5743 0
M  V30 4957 N 461.167 -1.02423 -1.1978 0
M  V30 4958 C 462.583 -0.740459 -1.41384 0
M  V30 4959 C 462.783 0.676827 -1.89793 0
M  V30 4960 O 461.839 1.4435 -2.0717 0
M  V30 4961 C 463.152 -1.77264 -2.42895 0
M  V30 4962 C 464.7 -1.79165 -2.56649 0
M  V30 4963 C 465.175 -2.8133 -3.6141 0
M  V30 4964 N 466.666 -2.80118 -3.68901 0
M  V30 4965 C 467.401 -3.55824 -4.49641 0
M  V30 4966 N 466.897 -4.41231 -5.34123 0
M  V30 4967 N 468.69 -3.44387 -4.44246 0
M  V30 4968 H 460.841 -1.9391 -0.866764 0
M  V30 4969 H 463.104 -0.838074 -0.443098 0
M  V30 4970 H 462.81 -2.7884 -2.14339 0
M  V30 4971 H 462.684 -1.59108 -3.42001 0
M  V30 4972 H 465.071 -0.782702 -2.84531 0
M  V30 4973 H 465.152 -2.01396 -1.57713 0
M  V30 4974 H 464.796 -3.82394 -3.34271 0
M  V30 4975 H 464.726 -2.56359 -4.59986 0
M  V30 4976 H 467.217 -2.1817 -3.08562 0
M  V30 4977 H 467.53 -4.95747 -5.92836 0
M  V30 4978 H 465.875 -4.45306 -5.33599 0
M  V30 4979 H 469.066 -2.7708 -3.77285 0
M  V30 4980 H 469.239 -4.0364 -5.06931 0
M  V30 4981 N 462.645 1.35699 -0.801477 0
M  V30 4982 C 464.056 1.81415 -0.441073 0
M  V30 4983 C 464.407 1.66595 1.03636 0
M  V30 4984 O 463.532 1.19369 1.80499 0
M  V30 4985 C 464.127 3.29369 -0.793819 0
M  V30 4986 C 462.686 3.73248 -0.486083 0
M  V30 4987 C 461.833 2.57775 -1.02213 0
M  V30 4988 H 464.784 1.23749 -0.993572 0
M  V30 4989 H 464.805 3.80395 -0.0894158 0
M  V30 4990 H 464.317 3.40123 -1.86917 0
M  V30 4991 H 462.418 3.68046 0.580735 0
M  V30 4992 H 462.531 4.68222 -1.01513 0
M  V30 4993 H 460.895 2.50788 -0.444712 0
M  V30 4994 H 461.678 2.71309 -2.10348 0
M  V30 4995 N 464.123 0.554532 1.47522 0
M  V30 4996 C 465.033 -0.197865 2.33764 0
M  V30 4997 C 466.049 -0.914576 1.48025 0
M  V30 4998 O 467.225 -0.884067 1.80959 0
M  V30 4999 C 464.29 -1.21628 3.24665 0
M  V30 5000 C 463.351 -0.507283 4.26292 0
M  V30 5001 C 462.584 -1.47718 5.1285 0
M  V30 5002 O 462.807 -2.7118 5.01814 0
M  V30 5003 O 461.741 -1.00313 5.93482 0
M  V30 5004 H 465.567 0.50949 2.99396 0
M  V30 5005 H 463.152 0.315176 1.46038 0
M  V30 5006 H 465.034 -1.80421 3.80823 0
M  V30 5007 H 463.709 -1.9056 2.61665 0
M  V30 5008 H 462.616 0.121778 3.73902 0
M  V30 5009 H 463.949 0.140544 4.91999 0
M  V30 5010 N 465.601 -1.54893 0.290851 0
M  V30 5011 C 466.564 -2.21824 -0.576784 0
M  V30 5012 C 467.564 -1.20104 -1.06919 0
M  V30 5013 O 468.754 -1.44906 -0.966843 0
M  V30 5014 C 465.886 -2.89662 -1.79747 0
M  V30 5015 H 467.079 -2.99899 0.00784051 0
M  V30 5016 H 464.632 -1.56245 0.0415934 0
M  V30 5017 H 465.367 -2.15639 -2.42219 0
M  V30 5018 H 465.152 -3.64219 -1.45214 0
M  V30 5019 H 466.642 -3.4075 -2.4141 0
M  V30 5020 N 467.08 -0.0183926 -1.57589 0
M  V30 5021 C 468.326 0.663543 -1.91638 0
M  V30 5022 C 468.659 1.72392 -0.894134 0
M  V30 5023 O 467.934 1.94316 0.0846449 0
M  V30 5024 C 468.217 1.28984 -3.36207 0
M  V30 5025 C 468.07 0.239761 -4.49161 0
M  V30 5026 C 469.389 2.2109 -3.80536 0
M  V30 5027 H 466.508 0.239746 -0.696915 0
M  V30 5028 H 469.15 -0.073456 -1.89858 0
M  V30 5029 H 467.3 1.91799 -3.37854 0
M  V30 5030 H 468.972 -0.390119 -4.59647 0
M  V30 5031 H 467.215 -0.435972 -4.31604 0
M  V30 5032 H 467.886 0.717383 -5.47319 0
M  V30 5033 H 470.362 1.68273 -3.80557 0
M  V30 5034 H 469.238 2.61869 -4.82406 0
M  V30 5035 H 469.499 3.09764 -3.15434 0
M  V30 5036 N 468.558 1.5553 0.254621 0
M  V30 5037 C 469.786 1.81046 1.00149 0
M  V30 5038 C 470.201 0.593047 1.79244 0
M  V30 5039 O 469.558 -0.438196 1.77161 0
M  V30 5040 C 469.609 3.04684 1.94551 0
M  V30 5041 O 469.33 4.21725 1.18658 0
M  V30 5042 C 470.831 3.42943 2.80901 0
M  V30 5043 H 468.051 0.602653 0.295044 0
M  V30 5044 H 470.595 2.02576 0.279842 0
M  V30 5045 H 468.75 2.85226 2.62154 0
M  V30 5046 H 469.164 4.91746 1.82445 0
M  V30 5047 H 470.638 4.32576 3.42902 0
M  V30 5048 H 471.115 2.63176 3.51617 0
M  V30 5049 H 471.721 3.64724 2.18762 0
M  V30 5050 N 470.036 -0.519951 1.48776 0
M  V30 5051 C 470.999 -1.60574 1.6355 0
M  V30 5052 C 471.999 -1.52557 0.508234 0
M  V30 5053 O 473.189 -1.56047 0.774262 0
M  V30 5054 C 470.321 -3.00211 1.61512 0
M  V30 5055 H 471.514 -1.4881 2.60376 0
M  V30 5056 H 469.067 -0.742772 1.37523 0
M  V30 5057 H 469.802 -3.17471 0.662009 0
M  V30 5058 H 469.587 -3.07439 2.43359 0
M  V30 5059 H 471.077 -3.79134 1.75064 0
M  V30 5060 N 471.514 -1.37532 -0.769588 0
M  V30 5061 C 472.762 -1.32597 -1.5252 0
M  V30 5062 C 473.083 0.0884294 -1.94799 0
M  V30 5063 O 472.353 1.03289 -1.66458 0
M  V30 5064 H 470.933 -0.487846 -0.565699 0
M  V30 5065 H 473.595 -1.72044 -0.915806 0
M  V30 5066 H 472.691 -1.96643 -2.42359 0
M  V30 5067 N 472.992 0.995999 -1.22138 0
M  V30 5068 C 474.22 1.77066 -1.07029 0
M  V30 5069 C 474.635 1.8495 0.379357 0
M  V30 5070 O 473.992 1.3174 1.26297 0
M  V30 5071 C 474.043 3.20533 -1.67155 0
M  V30 5072 O 473.764 3.13082 -3.06449 0
M  V30 5073 C 475.265 4.14461 -1.5728 0
M  V30 5074 H 472.485 0.556179 -0.375374 0
M  V30 5075 H 475.029 1.25238 -1.61666 0
M  V30 5076 H 473.184 3.6944 -1.16589 0
M  V30 5077 H 473.598 4.03283 -3.35355 0
M  V30 5078 H 475.072 5.1289 -2.04078 0
M  V30 5079 H 475.549 4.36005 -0.528795 0
M  V30 5080 H 476.155 3.71449 -2.07136 0
M  V30 5081 N 474.47 1.03057 1.19235 0
M  V30 5082 C 475.716 0.729098 1.89241 0
M  V30 5083 C 476.049 -0.740573 1.79525 0
M  V30 5084 O 475.324 -1.53946 1.18874 0
M  V30 5085 C 475.607 1.18304 3.40112 0
M  V30 5086 C 475.46 2.71406 3.5869 0
M  V30 5087 C 476.779 0.765161 4.33397 0
M  V30 5088 H 473.898 0.266338 0.687192 0
M  V30 5089 H 476.54 1.28079 1.40341 0
M  V30 5090 H 474.69 0.713672 3.81889 0
M  V30 5091 H 476.362 3.26303 3.26074 0
M  V30 5092 H 474.605 3.11717 3.01687 0
M  V30 5093 H 475.276 2.98225 4.64506 0
M  V30 5094 H 477.752 1.16889 3.99345 0
M  V30 5095 H 476.628 1.11065 5.37546 0
M  V30 5096 H 476.889 -0.332372 4.40849 0
M  V30 5097 N 475.948 -1.35272 0.808662 0
M  V30 5098 C 477.364 -1.51806 0.492653 0
M  V30 5099 C 477.564 -1.7574 -0.985778 0
M  V30 5100 O 476.62 -1.80003 -1.77074 0
M  V30 5101 C 477.933 -2.69202 1.33981 0
M  V30 5102 C 479.481 -2.8308 1.33547 0
M  V30 5103 C 479.956 -4.03502 2.16679 0
M  V30 5104 N 481.447 -4.10684 2.14227 0
M  V30 5105 C 482.182 -5.02984 2.75308 0
M  V30 5106 N 481.678 -6.00603 3.45323 0
M  V30 5107 N 483.471 -4.95746 2.64938 0
M  V30 5108 H 475.622 -1.17993 1.76611 0
M  V30 5109 H 477.885 -0.577476 0.751814 0
M  V30 5110 H 477.591 -2.581 2.38909 0
M  V30 5111 H 477.465 -3.63854 0.994491 0
M  V30 5112 H 479.852 -2.93631 0.294036 0
M  V30 5113 H 479.933 -1.89278 1.72068 0
M  V30 5114 H 479.577 -3.93711 3.20864 0
M  V30 5115 H 479.507 -4.96489 1.75517 0
M  V30 5116 H 481.998 -3.40802 1.63285 0
M  V30 5117 H 482.311 -6.67633 3.89212 0
M  V30 5118 H 480.656 -6.0077 3.49428 0
M  V30 5119 H 483.847 -4.18439 2.09825 0
M  V30 5120 H 484.02 -5.67487 3.12829 0
M  V30 5121 N 477.426 -0.562348 -1.47226 0
M  V30 5122 C 478.356 0.170627 -2.32876 0
M  V30 5123 C 479.337 0.903748 -1.44106 0
M  V30 5124 O 480.522 0.883206 -1.72954 0
M  V30 5125 C 477.652 1.19786 -3.25989 0
M  V30 5126 C 476.606 0.580875 -4.2404 0
M  V30 5127 C 475.932 1.71311 -5.06514 0
M  V30 5128 C 477.232 -0.468714 -5.20193 0
M  V30 5129 H 478.926 -0.544441 -2.94408 0
M  V30 5130 H 476.472 -0.263271 -1.41573 0
M  V30 5131 H 478.425 1.71884 -3.84752 0
M  V30 5132 H 477.149 1.94294 -2.62521 0
M  V30 5133 H 475.808 0.0811538 -3.6651 0
M  V30 5134 H 475.456 2.44736 -4.39447 0
M  V30 5135 H 475.156 1.30604 -5.72902 0
M  V30 5136 H 476.68 2.23725 -5.68137 0
M  V30 5137 H 478.094 -0.0336028 -5.7329 0
M  V30 5138 H 476.491 -0.794957 -5.94811 0
M  V30 5139 H 477.561 -1.36269 -4.65359 0
M  V30 5140 N 478.904 1.54736 -0.299062 0
M  V30 5141 C 480.15 2.00397 0.311244 0
M  V30 5142 C 480.483 1.18716 1.53688 0
M  V30 5143 O 479.758 0.263154 1.92712 0
M  V30 5144 C 480.041 3.53817 0.669761 0
M  V30 5145 C 479.894 4.46239 -0.564882 0
M  V30 5146 C 481.213 4.13856 1.49702 0
M  V30 5147 H 478.332 0.728493 0.111653 0
M  V30 5148 H 480.974 1.85506 -0.410774 0
M  V30 5149 H 479.124 3.66637 1.28491 0
M  V30 5150 H 480.796 4.45328 -1.20337 0
M  V30 5151 H 479.039 4.16916 -1.19849 0
M  V30 5152 H 479.71 5.5134 -0.269918 0
M  V30 5153 H 482.186 4.04461 0.977284 0
M  V30 5154 H 481.062 5.21365 1.71666 0
M  V30 5155 H 481.323 3.65608 2.48563 0
M  V30 5156 N 480.382 0.0267497 1.57577 0
M  V30 5157 C 481.63 -0.651116 1.91324 0
M  V30 5158 C 481.951 -1.72804 0.90353 0
M  V30 5159 O 481.221 -1.95822 -0.0552946 0
M  V30 5160 H 479.801 -0.243491 0.706202 0
M  V30 5161 H 482.463 0.0739935 1.94759 0
M  V30 5162 H 481.559 -1.10536 2.9187 0
M  V30 5163 N 481.861 -1.55662 -0.24637 0
M  V30 5164 C 483.089 -1.81575 -0.991876 0
M  V30 5165 C 483.504 -0.602545 -1.78927 0
M  V30 5166 O 482.861 0.428795 -1.77391 0
M  V30 5167 C 482.912 -3.05711 -1.92933 0
M  V30 5168 O 482.633 -4.22348 -1.1642 0
M  V30 5169 C 484.134 -3.44428 -2.79078 0
M  V30 5170 H 481.354 -0.604209 -0.291844 0
M  V30 5171 H 483.898 -2.02722 -0.269095 0
M  V30 5172 H 482.053 -2.86612 -2.60638 0
M  V30 5173 H 482.467 -4.92706 -1.79835 0
M  V30 5174 H 483.941 -4.34388 -3.40603 0
M  V30 5175 H 484.418 -2.65037 -3.50217 0
M  V30 5176 H 485.024 -3.65879 -2.16824 0
M  V30 5177 N 483.339 0.512053 -1.4905 0
M  V30 5178 C 484.616 1.27337 -1.48474 0
M  V30 5179 C 484.996 2.1009 -0.206301 0
M  V30 5180 O 484.344 2.136 0.811609 0
M  V30 5181 C 484.554 2.13954 -2.75726 0
M  V30 5182 C 485.902 2.73507 -3.24776 0
M  V30 5183 O 486.926 2.24229 -2.76767 0
M  V30 5184 O 485.785 3.63186 -4.08361 0
M  V30 5185 H 482.879 0.575652 -0.593762 0
M  V30 5186 H 485.425 0.527232 -1.61302 0
M  V30 5187 H 484.197 1.52709 -3.60272 0
M  V30 5188 H 483.82 2.95782 -2.65705 0
M  V30 5189 N 484.817 1.37938 0.762283 0
M  V30 5190 C 485.764 1.34467 1.87583 0
M  V30 5191 C 486.734 0.208633 1.64785 0
M  V30 5192 O 487.919 0.399494 1.86571 0
M  V30 5193 C 485.059 1.16692 3.24772 0
M  V30 5194 C 484.172 2.39608 3.59461 0
M  V30 5195 C 483.307 2.14631 4.85908 0
M  V30 5196 C 482.346 3.33364 5.13357 0
M  V30 5197 N 481.483 3.07877 6.30996 0
M  V30 5198 H 486.323 2.29669 1.89885 0
M  V30 5199 H 483.86 1.14116 0.928219 0
M  V30 5200 H 485.818 1.04405 4.03925 0
M  V30 5201 H 484.448 0.251333 3.2182 0
M  V30 5202 H 483.5 2.626 2.75219 0
M  V30 5203 H 484.812 3.28128 3.75678 0
M  V30 5204 H 483.966 1.99429 5.72986 0
M  V30 5205 H 482.705 1.23463 4.71814 0
M  V30 5206 H 481.71 3.49094 4.24751 0
M  V30 5207 H 482.935 4.25395 5.29354 0
M  V30 5208 H 480.881 2.19348 6.18241 0
M  V30 5209 H 480.798 3.89944 6.47673 0
M  V30 5210 H 482.066 2.96313 7.20985 0
M  V30 5211 N 486.295 -0.989507 1.22664 0
M  V30 5212 C 487.227 -2.0824 0.957542 0
M  V30 5213 C 488.24 -1.6267 -0.0651098 0
M  V30 5214 O 489.429 -1.77695 0.169312 0
M  V30 5215 C 486.529 -3.36298 0.419145 0
M  V30 5216 C 485.702 -4.10882 1.49982 0
M  V30 5217 C 484.761 -5.17221 0.967904 0
M  V30 5218 O 483.787 -5.44613 1.65487 0
M  V30 5219 N 484.989 -5.80124 -0.20896 0
M  V30 5220 H 487.754 -2.31904 1.89843 0
M  V30 5221 H 485.315 -1.15552 1.13399 0
M  V30 5222 H 487.307 -4.04671 0.0485451 0
M  V30 5223 H 485.877 -3.09671 -0.426937 0
M  V30 5224 H 485.097 -3.37092 2.04359 0
M  V30 5225 H 486.385 -4.57482 2.22682 0
M  V30 5226 H 485.783 -5.60244 -0.783818 0
M  V30 5227 H 484.34 -6.49715 -0.520913 0
M  V30 5228 N 487.773 -1.03688 -1.18687 0
M  V30 5229 C 489.189 -0.755413 -1.4059 0
M  V30 5230 C 489.389 0.656659 -1.905 0
M  V30 5231 O 488.445 1.42144 -2.08689 0
M  V30 5232 C 489.758 -1.7983 -2.41001 0
M  V30 5233 C 491.306 -1.81877 -2.54735 0
M  V30 5234 C 491.781 -2.85148 -3.58406 0
M  V30 5235 N 493.272 -2.84015 -3.6591 0
M  V30 5236 C 494.007 -3.60573 -4.45841 0
M  V30 5237 N 493.503 -4.46871 -5.29413 0
M  V30 5238 N 495.296 -3.49079 -4.40568 0
M  V30 5239 H 487.447 -1.94818 -0.846148 0
M  V30 5240 H 489.71 -0.842727 -0.434184 0
M  V30 5241 H 489.416 -2.81097 -2.1137 0
M  V30 5242 H 489.29 -1.62727 -3.40294 0
M  V30 5243 H 491.677 -0.812836 -2.83685 0
M  V30 5244 H 491.758 -2.03057 -1.55568 0
M  V30 5245 H 491.402 -3.85918 -3.30197 0
M  V30 5246 H 491.332 -2.61224 -4.57241 0
M  V30 5247 H 493.823 -2.21431 -3.0623 0
M  V30 5248 H 494.136 -5.02007 -5.87545 0
M  V30 5249 H 492.481 -4.5094 -5.28846 0
M  V30 5250 H 495.672 -2.81066 -3.74325 0
M  V30 5251 H 495.845 -4.08994 -5.02621 0
M  V30 5252 N 489.251 1.34841 -0.815825 0
M  V30 5253 C 490.5 1.97755 -0.396976 0
M  V30 5254 C 490.813 1.65422 1.04379 0
M  V30 5255 O 492.019 2.21771 1.5662 0
M  V30 5256 C 490.475 3.53818 -0.658869 0
M  V30 5257 C 490.083 3.95051 -2.11278 0
M  V30 5258 C 491.827 4.23397 -0.305834 0
M  V30 5259 C 489.734 5.43997 -2.31994 0
M  V30 5260 H 488.664 0.739985 -0.1447 0
M  V30 5261 H 491.315 1.53781 -1.00118 0
M  V30 5262 H 489.697 3.95997 0.0154112 0
M  V30 5263 H 490.871 3.63998 -2.82564 0
M  V30 5264 H 489.186 3.38388 -2.42657 0
M  V30 5265 H 491.783 5.32899 -0.43854 0
M  V30 5266 H 492.126 4.09508 0.748952 0
M  V30 5267 H 492.659 3.8667 -0.934403 0
M  V30 5268 H 489.398 5.62865 -3.35952 0
M  V30 5269 H 488.918 5.76589 -1.65244 0
M  V30 5270 H 490.597 6.10584 -2.14001 0
M  V30 5271 N 490.729 0.570148 1.46925 0
M  V30 5272 C 491.975 0.0510284 2.02736 0
M  V30 5273 C 492.308 -1.3006 1.44215 0
M  V30 5274 O 491.583 -1.84932 0.602521 0
M  V30 5275 C 491.866 -0.028215 3.60089 0
M  V30 5276 C 491.719 1.35142 4.29018 0
M  V30 5277 C 493.038 -0.735181 4.33916 0
M  V30 5278 H 490.157 0.0200178 0.736728 0
M  V30 5279 H 492.799 0.73493 1.75211 0
M  V30 5280 H 490.949 -0.610648 3.83671 0
M  V30 5281 H 492.621 1.97806 4.16738 0
M  V30 5282 H 490.864 1.9226 3.88868 0
M  V30 5283 H 491.535 1.24857 5.37694 0
M  V30 5284 H 494.011 -0.240519 4.15404 0
M  V30 5285 H 492.887 -0.759622 5.43618 0
M  V30 5286 H 493.148 -1.79397 4.04066 0
M  V30 5287 N 492.207 -1.54576 0.307264 0
M  V30 5288 C 493.117 -2.27435 -0.57536 0
M  V30 5289 C 494.133 -1.31183 -1.14311 0
M  V30 5290 O 495.309 -1.64175 -1.16656 0
M  V30 5291 C 492.374 -3.00566 -1.72803 0
M  V30 5292 C 491.435 -4.12369 -1.19373 0
M  V30 5293 C 490.668 -4.82003 -2.29147 0
M  V30 5294 O 490.891 -4.51038 -3.49171 0
M  V30 5295 O 489.825 -5.69271 -1.95485 0
M  V30 5296 H 493.651 -3.03696 0.0158558 0
M  V30 5297 H 491.236 -1.49219 0.0735064 0
M  V30 5298 H 493.118 -3.46416 -2.39946 0
M  V30 5299 H 491.793 -2.27195 -2.30574 0
M  V30 5300 H 490.7 -3.70905 -0.487851 0
M  V30 5301 H 492.033 -4.87736 -0.661376 0
M  V30 5302 N 493.685 -0.035106 -1.57561 0
M  V30 5303 C 494.595 0.960295 -2.14046 0
M  V30 5304 C 495.611 1.3529 -1.0942 0
M  V30 5305 O 496.787 1.43309 -1.41508 0
M  V30 5306 C 493.852 2.22214 -2.66124 0
M  V30 5307 C 492.913 1.8894 -3.85487 0
M  V30 5308 C 492.146 3.09109 -4.35072 0
M  V30 5309 O 492.369 4.21963 -3.83802 0
M  V30 5310 O 491.303 2.91058 -5.26848 0
M  V30 5311 H 495.129 0.509983 -2.99387 0
M  V30 5312 H 492.714 0.185853 -1.48239 0
M  V30 5313 H 494.596 2.96279 -2.99661 0
M  V30 5314 H 493.271 2.66414 -1.83862 0
M  V30 5315 H 492.178 1.12241 -3.56865 0
M  V30 5316 H 493.511 1.49551 -4.6893 0
M  V30 5317 N 495.163 1.55791 0.238111 0
M  V30 5318 C 496.409 1.78297 0.966337 0
M  V30 5319 C 496.742 0.601903 1.84637 0
M  V30 5320 O 496.017 -0.399499 1.90353 0
M  V30 5321 C 496.3 3.10758 1.81939 0
M  V30 5322 C 496.153 4.39283 0.966958 0
M  V30 5323 C 497.472 3.39519 2.80027 0
M  V30 5324 H 494.591 0.648654 0.349882 0
M  V30 5325 H 497.233 1.88525 0.236253 0
M  V30 5326 H 495.383 3.02168 2.44185 0
M  V30 5327 H 497.055 4.59873 0.362514 0
M  V30 5328 H 495.298 4.32948 0.271669 0
M  V30 5329 H 495.969 5.28368 1.59784 0
M  V30 5330 H 498.445 3.48128 2.27917 0
M  V30 5331 H 497.321 4.33402 3.36829 0
M  V30 5332 H 497.582 2.60864 3.56934 0
M  V30 5333 N 496.642 -0.504142 1.49319 0
M  V30 5334 C 497.87 -1.28256 1.62351 0
M  V30 5335 C 498.285 -1.86502 0.293682 0
M  V30 5336 O 497.642 -1.67678 -0.720449 0
M  V30 5337 C 497.693 -2.41507 2.68992 0
M  V30 5338 O 497.414 -1.85656 3.96817 0
M  V30 5339 C 498.915 -3.32929 2.927 0
M  V30 5340 H 496.135 -0.389115 0.546654 0
M  V30 5341 H 498.679 -0.605531 1.95329 0
M  V30 5342 H 496.834 -3.05046 2.38801 0
M  V30 5343 H 497.248 -2.59981 4.55533 0
M  V30 5344 H 498.722 -4.0868 3.71058 0
M  V30 5345 H 499.199 -3.89733 2.02496 0
M  V30 5346 H 499.805 -2.75158 3.24296 0
M  V30 5347 N 498.12 -1.38341 -0.754957 0
M  V30 5348 C 499.536 -1.19508 -1.05783 0
M  V30 5349 C 499.736 -0.0428005 -2.01455 0
M  V30 5350 O 498.792 0.611861 -2.44975 0
M  V30 5351 C 500.105 -2.52091 -1.63923 0
M  V30 5352 C 501.653 -2.58762 -1.76101 0
M  V30 5353 C 502.128 -3.91517 -2.37652 0
M  V30 5354 N 503.619 -3.93049 -2.45085 0
M  V30 5355 C 504.354 -4.9253 -2.93602 0
M  V30 5356 N 503.85 -6.02408 -3.42165 0
M  V30 5357 N 505.643 -4.79921 -2.92629 0
M  V30 5358 H 497.794 -2.1206 -0.120056 0
M  V30 5359 H 500.057 -0.94089 -0.11589 0
M  V30 5360 H 499.763 -3.36858 -1.01093 0
M  V30 5361 H 499.637 -2.70388 -2.63003 0
M  V30 5362 H 502.024 -1.74391 -2.38058 0
M  V30 5363 H 502.105 -2.44333 -0.757294 0
M  V30 5364 H 501.749 -4.76309 -1.76329 0
M  V30 5365 H 501.679 -4.03256 -3.38662 0
M  V30 5366 H 504.17 -3.13685 -2.10736 0
M  V30 5367 H 504.483 -6.74248 -3.77637 0
M  V30 5368 H 502.828 -6.0603 -3.40225 0
M  V30 5369 H 506.019 -3.93194 -2.54001 0
M  V30 5370 H 506.192 -5.57601 -3.30128 0
M  V30 5371 N 499.598 0.982988 -1.23187 0
M  V30 5372 C 500.528 2.09301 -1.03515 0
M  V30 5373 C 501.509 1.70035 0.0471136 0
M  V30 5374 O 502.694 1.93847 -0.117029 0
M  V30 5375 C 499.824 3.4167 -0.622791 0
M  V30 5376 C 498.778 3.94828 -1.65211 0
M  V30 5377 C 498.104 5.23362 -1.09527 0
M  V30 5378 C 499.404 4.2439 -3.04451 0
M  V30 5379 H 501.098 2.26016 -1.96359 0
M  V30 5380 H 498.644 1.08611 -0.945501 0
M  V30 5381 H 500.597 4.18746 -0.472233 0
M  V30 5382 H 499.321 3.24811 0.341329 0
M  V30 5383 H 497.98 3.19895 -1.79061 0
M  V30 5384 H 497.628 5.02852 -0.122211 0
M  V30 5385 H 497.328 5.59895 -1.783 0
M  V30 5386 H 498.852 6.03062 -0.956511 0
M  V30 5387 H 500.266 4.92225 -2.93917 0
M  V30 5388 H 498.663 4.72118 -3.70438 0
M  V30 5389 H 499.733 3.31765 -3.53638 0
M  V30 5390 N 501.076 1.04316 1.18135 0
M  V30 5391 C 502.006 0.657299 2.24058 0
M  V30 5392 C 502.987 -0.340678 1.66654 0
M  V30 5393 O 504.172 -0.220223 1.92947 0
M  V30 5394 C 501.302 0.0220715 3.47293 0
M  V30 5395 C 500.256 0.943857 4.17463 0
M  V30 5396 C 499.582 0.172973 5.3442 0
M  V30 5397 C 500.882 2.26409 4.70677 0
M  V30 5398 H 502.576 1.5428 2.56589 0
M  V30 5399 H 500.122 0.743263 1.23335 0
M  V30 5400 H 502.075 -0.259607 4.206 0
M  V30 5401 H 500.799 -0.898323 3.14003 0
M  V30 5402 H 499.458 1.20996 3.46057 0
M  V30 5403 H 499.106 -0.749907 4.97379 0
M  V30 5404 H 498.806 0.787098 5.82304 0
M  V30 5405 H 500.33 -0.101628 6.10515 0
M  V30 5406 H 501.744 2.04294 5.35665 0
M  V30 5407 H 500.141 2.8314 5.29105 0
M  V30 5408 H 501.211 2.90883 3.87962 0
M  V30 5409 N 502.554 -1.34406 0.822964 0
M  V30 5410 C 503.501 -2.29519 0.24284 0
M  V30 5411 C 504.471 -1.5359 -0.632397 0
M  V30 5412 O 505.656 -1.8196 -0.57403 0
M  V30 5413 C 502.796 -3.40032 -0.58925 0
M  V30 5414 C 501.909 -4.30899 0.308236 0
M  V30 5415 C 501.044 -5.28515 -0.533425 0
M  V30 5416 C 500.083 -6.1102 0.363444 0
M  V30 5417 N 499.22 -7.00725 -0.439147 0
M  V30 5418 H 504.06 -2.78537 1.05929 0
M  V30 5419 H 501.597 -1.3707 0.533872 0
M  V30 5420 H 503.555 -4.0279 -1.087 0
M  V30 5421 H 502.185 -2.92248 -1.37081 0
M  V30 5422 H 501.237 -3.69002 0.924203 0
M  V30 5423 H 502.549 -4.88717 0.997862 0
M  V30 5424 H 501.703 -5.96725 -1.09565 0
M  V30 5425 H 500.442 -4.71235 -1.25656 0
M  V30 5426 H 499.447 -5.41743 0.937812 0
M  V30 5427 H 500.672 -6.70381 1.08469 0
M  V30 5428 H 498.618 -6.45913 -1.14595 0
M  V30 5429 H 498.535 -7.55756 0.19209 0
M  V30 5430 H 499.803 -7.73263 -0.984124 0
M  V30 5431 N 504.032 -0.577932 -1.46621 0
M  V30 5432 C 505.309 0.00495287 -1.95599 0
M  V30 5433 C 505.689 1.46428 -1.5206 0
M  V30 5434 O 505.037 2.1517 -0.769046 0
M  V30 5435 C 505.247 -0.162114 -3.48623 0
M  V30 5436 C 506.595 -0.0274623 -4.24591 0
M  V30 5437 O 507.619 -0.0907067 -3.56084 0
M  V30 5438 O 506.478 0.1122 -5.46385 0
M  V30 5439 H 503.572 0.0525057 -0.825332 0
M  V30 5440 H 506.118 -0.645914 -1.56927 0
M  V30 5441 H 504.89 -1.17679 -3.73185 0
M  V30 5442 H 504.513 0.525407 -3.94113 0
M  V30 5443 N 505.51 1.54411 -0.315457 0
M  V30 5444 C 506.42 2.27737 0.56329 0
M  V30 5445 C 507.436 1.31787 1.13614 0
M  V30 5446 O 508.612 1.64791 1.15784 0
M  V30 5447 C 505.677 3.01478 1.71207 0
M  V30 5448 C 504.738 4.12997 1.17185 0
M  V30 5449 C 503.971 4.83212 2.26588 0
M  V30 5450 O 504.194 4.52884 3.46775 0
M  V30 5451 O 503.128 5.70299 1.92463 0
M  V30 5452 H 506.954 3.03683 -0.0319614 0
M  V30 5453 H 504.539 1.49178 -0.0814188 0
M  V30 5454 H 506.421 3.47683 2.38106 0
M  V30 5455 H 505.096 2.28414 2.29366 0
M  V30 5456 H 504.003 3.71159 0.468174 0
M  V30 5457 H 505.336 4.8808 0.635501 0
M  V30 5458 N 506.988 0.0434614 1.5754 0
M  V30 5459 C 507.936 -0.951465 2.1225 0
M  V30 5460 C 508.93 -1.3274 1.05245 0
M  V30 5461 O 510.136 -1.30795 1.23663 0
M  V30 5462 H 506.511 -0.324667 0.678303 0
M  V30 5463 H 508.482 -0.464855 2.94757 0
M  V30 5464 C 507.231 -2.21972 2.67626 0
M  V30 5465 H 506.554 -1.93923 3.4962 0
M  V30 5466 H 507.994 -2.89765 3.09536 0
M  V30 5467 C 506.453 -2.95919 1.61038 0
M  V30 5468 O 506.983 -3.8857 1.01862 0
M  V30 5469 N 505.189 -2.58511 1.32741 0
M  V30 5470 H 504.736 -1.83244 1.81051 0
M  V30 5471 H 504.694 -3.08296 0.616531 0
M  V30 5472 N 508.466 -1.55915 -0.229846 0
M  V30 5473 C 509.376 -1.94891 -1.30593 0
M  V30 5474 C 510.392 -0.851604 -1.51736 0
M  V30 5475 O 511.568 -1.15447 -1.65027 0
M  V30 5476 C 508.633 -2.25052 -2.63728 0
M  V30 5477 C 507.694 -3.48306 -2.5096 0
M  V30 5478 C 506.927 -3.77019 -3.77747 0
M  V30 5479 O 507.15 -3.07534 -4.80395 0
M  V30 5480 O 506.084 -4.70523 -3.75356 0
M  V30 5481 H 509.91 -2.86581 -1.00525 0
M  V30 5482 H 507.495 -1.43017 -0.432025 0
M  V30 5483 H 509.377 -2.45682 -3.42372 0
M  V30 5484 H 508.052 -1.36538 -2.93495 0
M  V30 5485 H 506.959 -3.32964 -1.70546 0
M  V30 5486 H 508.292 -4.37177 -2.26136 0
M  V30 5487 N 509.944 0.496216 -1.49584 0
M  V30 5488 C 511.174 1.27209 -1.62793 0
M  V30 5489 C 511.582 1.86799 -0.300476 0
M  V30 5490 O 510.925 1.68802 0.724674 0
M  V30 5491 C 510.987 2.43812 -2.64189 0
M  V30 5492 C 510.651 2.05055 -4.08414 0
M  V30 5493 C 511.648 1.58752 -4.9507 0
M  V30 5494 C 509.333 2.14543 -4.54177 0
M  V30 5495 C 511.327 1.22448 -6.25528 0
M  V30 5496 C 509.014 1.77851 -5.84647 0
M  V30 5497 C 510.012 1.31878 -6.70147 0
M  V30 5498 O 509.7 0.956834 -7.98185 0
M  V30 5499 H 509.432 0.391848 -0.550846 0
M  V30 5500 H 511.986 0.601712 -1.96389 0
M  V30 5501 H 510.216 3.13941 -2.25783 0
M  V30 5502 H 511.905 3.05829 -2.66877 0
M  V30 5503 H 512.671 1.50863 -4.60939 0
M  V30 5504 H 508.55 2.49277 -3.87791 0
M  V30 5505 H 512.094 0.864933 -6.92217 0
M  V30 5506 H 507.991 1.8539 -6.18305 0
M  V30 5507 H 508.759 1.08789 -8.11238 0
M  V30 5508 N 511.423 1.38739 0.74761 0
M  V30 5509 C 512.355 1.32341 1.87132 0
M  V30 5510 C 513.368 0.234502 1.61102 0
M  V30 5511 O 514.557 0.492516 1.71571 0
M  V30 5512 C 511.657 1.02915 3.22896 0
M  V30 5513 C 510.83 2.22834 3.76383 0
M  V30 5514 C 509.889 1.90059 4.90677 0
M  V30 5515 O 508.915 2.62615 5.04997 0
M  V30 5516 N 510.117 0.859141 5.74107 0
M  V30 5517 H 512.882 2.29175 1.93129 0
M  V30 5518 H 510.443 1.32678 0.927805 0
M  V30 5519 H 512.435 0.79031 3.96908 0
M  V30 5520 H 511.005 0.148572 3.12247 0
M  V30 5521 H 510.225 2.62747 2.93867 0
M  V30 5522 H 511.513 3.02851 4.08851 0
M  V30 5523 H 510.911 0.257564 5.65113 0
M  V30 5524 H 509.468 0.680189 6.48241 0
M  V30 5525 N 512.901 -0.976442 1.23707 0
M  V30 5526 C 513.864 -2.0511 1.02287 0
M  V30 5527 C 514.864 -1.60791 -0.0167195 0
M  V30 5528 O 516.054 -1.72761 0.223408 0
M  V30 5529 C 513.186 -3.36458 0.548507 0
M  V30 5530 H 514.379 -2.25545 1.9766 0
M  V30 5531 H 511.932 -1.15042 1.05806 0
M  V30 5532 H 512.667 -3.21713 -0.408818 0
M  V30 5533 H 512.452 -3.69967 1.29874 0
M  V30 5534 H 513.942 -4.15489 0.419406 0
M  V30 5535 N 514.379 -1.04941 -1.1758 0
M  V30 5536 C 515.312 -0.592518 -2.20373 0
M  V30 5537 C 516.29 0.377561 -1.58156 0
M  V30 5538 O 517.474 0.28978 -1.86259 0
M  V30 5539 C 514.601 0.133215 -3.38438 0
M  V30 5540 C 513.647 -0.791484 -4.19092 0
M  V30 5541 S 514.48 -2.27925 -4.84572 0
M  V30 5542 C 515.636 -1.56462 -6.06028 0
M  V30 5543 H 515.869 -1.46342 -2.58788 0
M  V30 5544 H 513.402 -0.861148 -1.28155 0
M  V30 5545 H 515.36 0.545746 -4.06856 0
M  V30 5546 H 514.021 0.980124 -2.98416 0
M  V30 5547 H 513.214 -0.230039 -5.03475 0
M  V30 5548 H 512.816 -1.14326 -3.56098 0
M  V30 5549 H 515.108 -0.862539 -6.71987 0
M  V30 5550 H 516.051 -2.38583 -6.66696 0
M  V30 5551 H 516.459 -1.05313 -5.5459 0
M  V30 5552 N 515.857 1.33968 -0.830081 0
M  V30 5553 C 517.082 2.02813 -0.433796 0
M  V30 5554 C 517.507 1.62076 0.954614 0
M  V30 5555 O 516.865 0.808955 1.62252 0
M  V30 5556 C 516.913 3.56348 -0.552115 0
M  V30 5557 O 516.017 4.10202 0.425191 0
M  V30 5558 H 515.358 0.639817 -0.177567 0
M  V30 5559 H 517.888 1.7106 -1.12248 0
M  V30 5560 H 517.898 4.05722 -0.430513 0
M  V30 5561 H 516.573 3.85344 -1.56471 0
M  V30 5562 H 515.15 3.71979 0.261878 0
M  V30 5563 N 517.335 0.585699 1.46312 0
M  V30 5564 C 518.751 0.247607 1.57668 0
M  V30 5565 C 518.951 -1.25007 1.58037 0
M  V30 5566 O 518.007 -2.03196 1.49893 0
M  V30 5567 C 519.32 0.899456 2.86933 0
M  V30 5568 C 520.868 0.873326 3.00569 0
M  V30 5569 C 521.343 1.50477 4.32574 0
M  V30 5570 N 522.834 1.46925 4.3928 0
M  V30 5571 C 523.569 1.92719 5.40044 0
M  V30 5572 N 523.065 2.46499 6.47464 0
M  V30 5573 N 524.858 1.83617 5.31264 0
M  V30 5574 H 517.009 1.55841 1.44317 0
M  V30 5575 H 519.272 0.651564 0.688599 0
M  V30 5576 H 518.978 1.95313 2.92482 0
M  V30 5577 H 518.852 0.409476 3.74971 0
M  V30 5578 H 521.239 -0.171736 2.946 0
M  V30 5579 H 521.32 1.40136 2.13999 0
M  V30 5580 H 520.964 2.54905 4.39302 0
M  V30 5581 H 520.894 0.951944 5.17924 0
M  V30 5582 H 523.385 1.07616 3.62253 0
M  V30 5583 H 523.698 2.79291 7.20567 0
M  V30 5584 H 522.043 2.50526 6.48276 0
M  V30 5585 H 525.234 1.41358 4.46246 0
M  V30 5586 H 525.407 2.19622 6.09648 0
M  V30 5587 N 518.813 -1.54241 0.323641 0
M  V30 5588 C 519.776 -2.22997 -0.529602 0
M  V30 5589 C 520.776 -1.22345 -1.04347 0
M  V30 5590 O 521.966 -1.46924 -0.935889 0
M  V30 5591 C 519.098 -2.93409 -1.73562 0
M  V30 5592 H 520.291 -2.99815 0.0714518 0
M  V30 5593 H 517.844 -1.56121 0.0747258 0
M  V30 5594 H 518.579 -2.20729 -2.37591 0
M  V30 5595 H 518.364 -3.67217 -1.37456 0
M  V30 5596 H 519.854 -3.45794 -2.34128 0
M  V30 5597 N 520.291 -0.0518155 -1.57515 0
M  V30 5598 C 521.241 0.932017 -2.0808 0
M  V30 5599 C 522.225 1.27141 -0.986098 0
M  V30 5600 O 523.417 1.25373 -1.24943 0
M  V30 5601 C 520.546 2.20665 -2.62986 0
M  V30 5602 C 519.632 1.89462 -3.79427 0
M  V30 5603 N 520.023 1.28621 -4.89173 0
M  V30 5604 C 518.321 2.19327 -3.88345 0
M  V30 5605 C 519.022 1.15062 -5.70207 0
M  V30 5606 N 517.998 1.65372 -5.17835 0
M  V30 5607 H 521.8 0.456964 -2.90326 0
M  V30 5608 H 519.314 0.152619 -1.61681 0
M  V30 5609 H 521.311 2.92044 -2.97516 0
M  V30 5610 H 519.971 2.68776 -1.8218 0
M  V30 5611 H 520.982 0.958341 -5.08956 0
M  V30 5612 H 517.659 2.69955 -3.18482 0
M  V30 5613 H 519.049 0.678243 -6.68468 0
M  V30 5614 N 521.769 1.56035 0.221574 0
M  V30 5615 C 522.717 1.93269 1.29421 0
M  V30 5616 C 523.711 0.814727 1.48521 0
M  V30 5617 O 524.917 0.999559 1.49696 0
M  V30 5618 H 521.292 0.614188 0.43391 0
M  V30 5619 H 523.263 2.82773 0.952987 0
M  V30 5620 C 522.012 2.26573 2.63742 0
M  V30 5621 H 521.335 3.12112 2.49853 0
M  V30 5622 H 522.775 2.5651 3.37607 0
M  V30 5623 C 521.234 1.09086 3.1875 0
M  V30 5624 O 521.764 0.351985 4.00155 0
M  V30 5625 N 519.97 0.874693 2.77124 0
M  V30 5626 H 519.517 1.47726 2.11033 0
M  V30 5627 H 519.475 0.0903349 3.1427 0
M  V30 5628 N 523.247 -0.488276 1.49845 0
M  V30 5629 C 524.658 -1.06955 1.53028 0
M  V30 5630 C 525.009 -1.9351 0.323797 0
M  V30 5631 O 524.134 -2.08891 -0.565116 0
M  V30 5632 C 524.729 -1.94643 2.77307 0
M  V30 5633 C 523.288 -2.4791 2.83227 0
M  V30 5634 C 522.435 -1.25833 2.47106 0
M  V30 5635 H 525.386 -0.271626 1.56358 0
M  V30 5636 H 525.407 -2.79496 2.5819 0
M  V30 5637 H 524.919 -1.31621 3.65099 0
M  V30 5638 H 523.02 -3.14535 1.99745 0
M  V30 5639 H 523.133 -2.84193 3.85709 0
M  V30 5640 H 521.497 -1.58764 1.99163 0
M  V30 5641 H 522.28 -0.644993 3.37186 0
M  V30 5642 N 524.725 -1.39134 -0.740242 0
M  V30 5643 C 525.955 -1.39132 -1.52728 0
M  V30 5644 C 526.363 0.0173133 -1.89192 0
M  V30 5645 O 525.706 0.997715 -1.54244 0
M  V30 5646 C 525.768 -2.1952 -2.84695 0
M  V30 5647 C 525.432 -3.68203 -2.70695 0
M  V30 5648 C 526.429 -4.61401 -2.39593 0
M  V30 5649 C 524.114 -4.11724 -2.8773 0
M  V30 5650 C 526.108 -5.96102 -2.25701 0
M  V30 5651 C 523.795 -5.46503 -2.73456 0
M  V30 5652 C 524.793 -6.38506 -2.42486 0
M  V30 5653 O 524.481 -7.70803 -2.28295 0
M  V30 5654 H 524.213 -0.477263 -0.478744 0
M  V30 5655 H 526.767 -1.83504 -0.922799 0
M  V30 5656 H 524.997 -1.69888 -3.47383 0
M  V30 5657 H 526.686 -2.1176 -3.46284 0
M  V30 5658 H 527.452 -4.29079 -2.26088 0
M  V30 5659 H 523.331 -3.4045 -3.10829 0
M  V30 5660 H 526.875 -6.6788 -2.0145 0
M  V30 5661 H 522.772 -5.78417 -2.86538 0
M  V30 5662 H 523.54 -7.8147 -2.43405 0
M  V30 5663 N 526.204 0.969867 -1.24223 0
M  V30 5664 C 527.452 1.70918 -1.0785 0
M  V30 5665 C 527.773 1.91186 0.383763 0
M  V30 5666 O 527.043 1.48806 1.27411 0
M  V30 5667 H 525.623 0.633334 -0.396103 0
M  V30 5668 H 528.285 1.16689 -1.56108 0
M  V30 5669 H 527.381 2.69455 -1.57482 0
M  V30 5670 N 527.682 1.05563 1.17022 0
M  V30 5671 C 528.959 0.68165 1.83338 0
M  V30 5672 C 529.339 -0.837665 1.93769 0
M  V30 5673 O 528.687 -1.74507 1.47511 0
M  V30 5674 C 528.897 1.375 3.20772 0
M  V30 5675 C 530.245 1.51545 3.96635 0
M  V30 5676 O 531.269 1.33431 3.30264 0
M  V30 5677 O 530.128 1.812 5.15586 0
M  V30 5678 H 527.222 0.240412 0.791285 0
M  V30 5679 H 529.768 1.15545 1.24288 0
M  V30 5680 H 528.54 2.41135 3.08171 0
M  V30 5681 H 528.163 0.890798 3.87493 0
M  V30 5682 N 529.16 -1.33526 0.837174 0
M  V30 5683 C 530.408 -1.97446 0.431211 0
M  V30 5684 C 530.729 -1.6665 -1.01255 0
M  V30 5685 O 529.999 -0.964559 -1.70508 0
M  V30 5686 H 528.579 -0.73043 0.156463 0
M  V30 5687 H 531.241 -1.62918 1.06976 0
M  V30 5688 H 530.337 -3.07001 0.561877 0
M  V30 5689 N 530.638 -0.59345 -1.46 0
M  V30 5690 C 531.57 0.171569 -2.28557 0
M  V30 5691 C 532.583 0.845273 -1.39137 0
M  V30 5692 O 533.772 0.713033 -1.6364 0
M  V30 5693 C 530.872 1.26311 -3.14482 0
M  V30 5694 C 530.045 0.679258 -4.32094 0
M  V30 5695 C 529.104 1.65987 -4.99334 0
M  V30 5696 O 528.13 1.19171 -5.56585 0
M  V30 5697 N 529.332 2.99414 -4.97324 0
M  V30 5698 H 532.097 -0.536771 -2.94854 0
M  V30 5699 H 529.658 -0.431954 -1.56031 0
M  V30 5700 H 531.65 1.91863 -3.5633 0
M  V30 5701 H 530.22 1.87416 -2.50188 0
M  V30 5702 H 529.44 -0.153992 -3.93899 0
M  V30 5703 H 530.728 0.26916 -5.08088 0
M  V30 5704 H 530.126 3.40064 -4.52076 0
M  V30 5705 H 528.683 3.60426 -5.4308 0
M  V30 5706 N 532.116 1.54067 -0.331816 0
M  V30 5707 C 533.079 2.23275 0.517768 0
M  V30 5708 C 534.079 1.22897 1.03697 0
M  V30 5709 O 535.269 1.47419 0.928084 0
M  V30 5710 C 532.401 2.94326 1.72004 0
M  V30 5711 H 533.594 2.99773 -0.0873507 0
M  V30 5712 H 531.147 1.56079 -0.0830042 0
M  V30 5713 H 531.882 2.21986 2.36417 0
M  V30 5714 H 531.667 3.67941 1.35507 0
M  V30 5715 H 533.157 3.47031 2.32291 0
M  V30 5716 N 533.594 0.0601682 1.57485 0
M  V30 5717 C 534.834 -0.615384 1.94916 0
M  V30 5718 C 535.198 -1.67475 0.938948 0
M  V30 5719 O 536.399 -2.40502 1.20051 0
M  V30 5720 C 534.67 -1.18788 3.37082 0
M  V30 5721 S 536.229 -1.88018 3.96478 0
M  V30 5722 H 533.047 -0.201821 0.681754 0
M  V30 5723 H 535.649 0.131252 1.95059 0
M  V30 5724 H 534.353 -0.404869 4.08398 0
M  V30 5725 H 533.884 -1.97114 3.40455 0
M  V30 5726 H 535.899 -3.16161 3.82435 0
M  V30 5727 N 535.072 -1.5615 -0.213296 0
M  V30 5728 C 536.297 -1.83986 -0.957282 0
M  V30 5729 C 536.722 -0.641526 -1.76822 0
M  V30 5730 O 536.08 0.409722 -1.7661 0
M  V30 5731 C 536.128 -3.09889 -1.84393 0
M  V30 5732 O 535.232 -2.89163 -2.94038 0
M  V30 5733 H 534.573 -0.606357 -0.270605 0
M  V30 5734 H 537.103 -2.03369 -0.224111 0
M  V30 5735 H 537.113 -3.40209 -2.25215 0
M  V30 5736 H 535.788 -3.96735 -1.24795 0
M  V30 5737 H 534.365 -2.70097 -2.57103 0
M  V30 5738 N 536.55 0.480323 -1.50102 0
M  V30 5739 C 537.966 0.813295 -1.37323 0
M  V30 5740 C 538.166 1.97027 -0.422206 0
M  V30 5741 O 537.222 2.5212 0.138563 0
M  V30 5742 C 538.535 1.13404 -2.78496 0
M  V30 5743 C 540.083 1.24104 -2.87345 0
M  V30 5744 C 540.558 1.59497 -4.29331 0
M  V30 5745 N 542.049 1.66507 -4.32238 0
M  V30 5746 C 542.784 1.95378 -5.39087 0
M  V30 5747 N 542.28 2.22333 -6.56155 0
M  V30 5748 N 544.073 1.96803 -5.26522 0
M  V30 5749 H 536.224 -0.282291 -2.10516 0
M  V30 5750 H 538.487 -0.063752 -0.945854 0
M  V30 5751 H 538.193 0.357064 -3.49883 0
M  V30 5752 H 538.067 2.07251 -3.15162 0
M  V30 5753 H 540.454 2.00871 -2.16183 0
M  V30 5754 H 540.535 0.282593 -2.54234 0
M  V30 5755 H 540.179 0.832736 -5.01027 0
M  V30 5756 H 540.109 2.56477 -4.59921 0
M  V30 5757 H 542.6 1.47753 -3.47818 0
M  V30 5758 H 542.913 2.43611 -7.33399 0
M  V30 5759 H 541.258 2.19745 -6.59346 0
M  V30 5760 H 544.449 1.75235 -4.34062 0
M  V30 5761 H 544.622 2.18969 -6.09883 0
M  V30 5762 N 538.028 1.39524 0.732853 0
M  V30 5763 C 539.277 1.36175 1.48792 0
M  V30 5764 C 539.59 -0.0388195 1.95561 0
M  V30 5765 O 540.796 -0.194899 2.708 0
M  V30 5766 C 539.252 2.39242 2.68871 0
M  V30 5767 C 538.86 3.85024 2.29042 0
M  V30 5768 C 540.604 2.44972 3.46683 0
M  V30 5769 C 538.511 4.79727 3.45856 0
M  V30 5770 H 537.441 0.506267 0.558757 0
M  V30 5771 H 540.092 1.65181 0.799226 0
M  V30 5772 H 538.474 2.0331 3.39825 0
M  V30 5773 H 539.648 4.30008 1.6562 0
M  V30 5774 H 537.963 3.82609 1.64316 0
M  V30 5775 H 540.56 3.12918 4.33574 0
M  V30 5776 H 540.903 1.4749 3.89297 0
M  V30 5777 H 541.436 2.79808 2.82759 0
M  V30 5778 H 538.175 5.78479 3.08289 0
M  V30 5779 H 537.695 4.39421 4.08251 0
M  V30 5780 H 539.374 4.98731 4.12161 0
M  V30 5781 N 539.506 -0.963266 1.24736 0
M  V30 5782 C 540.436 -2.07628 1.06832 0
M  V30 5783 C 541.417 -1.70088 -0.0200566 0
M  V30 5784 O 542.602 -1.93636 0.147854 0
M  V30 5785 C 539.732 -3.40636 0.677069 0
M  V30 5786 C 538.686 -3.9215 1.71471 0
M  V30 5787 C 538.012 -5.21553 1.1784 0
M  V30 5788 C 539.312 -4.19493 3.11164 0
M  V30 5789 H 541.006 -2.22864 1.9993 0
M  V30 5790 H 538.552 -1.07093 0.96266 0
M  V30 5791 H 540.505 -4.17941 0.538792 0
M  V30 5792 H 539.229 -3.25313 -0.289612 0
M  V30 5793 H 537.888 -3.17005 1.84128 0
M  V30 5794 H 537.536 -5.02593 0.202195 0
M  V30 5795 H 537.236 -5.56988 1.87185 0
M  V30 5796 H 538.76 -6.01463 1.05233 0
M  V30 5797 H 540.174 -4.87487 3.01711 0
M  V30 5798 H 538.571 -4.66165 3.77902 0
M  V30 5799 H 539.641 -3.26097 3.58871 0
M  V30 5800 N 540.985 -1.06182 -1.16461 0
M  V30 5801 C 541.895 -0.682671 -2.24448 0
M  V30 5802 C 542.911 0.30078 -1.71381 0
M  V30 5803 O 544.087 0.150376 -2.00838 0
M  V30 5804 C 541.152 -0.0737202 -3.46622 0
M  V30 5805 C 540.213 -1.10889 -4.14731 0
M  V30 5806 C 539.446 -0.528908 -5.31073 0
M  V30 5807 O 539.669 0.65868 -5.66584 0
M  V30 5808 O 538.603 -1.26805 -5.88391 0
M  V30 5809 H 542.429 -1.58291 -2.59187 0
M  V30 5810 H 540.014 -0.834013 -1.23954 0
M  V30 5811 H 541.896 0.264192 -4.20571 0
M  V30 5812 H 540.571 0.800015 -3.13658 0
M  V30 5813 H 539.478 -1.49896 -3.42756 0
M  V30 5814 H 540.811 -1.95412 -4.51747 0
M  V30 5815 N 542.463 1.3308 -0.844243 0
M  V30 5816 C 543.426 2.27403 -0.286485 0
M  V30 5817 C 544.426 1.51179 0.547872 0
M  V30 5818 O 545.616 1.70421 0.360886 0
M  V30 5819 C 542.748 3.35653 0.595813 0
M  V30 5820 H 543.941 2.78248 -1.11885 0
M  V30 5821 H 541.494 1.43574 -0.617749 0
M  V30 5822 H 542.229 2.90058 1.4504 0
M  V30 5823 H 542.014 3.921 -0.00125994 0
M  V30 5824 H 543.504 4.05958 0.979168 0
M  V30 5825 N 543.941 0.601185 1.45683 0
M  V30 5826 C 544.871 -0.108824 2.33246 0
M  V30 5827 C 545.852 -0.865223 1.46451 0
M  V30 5828 O 547.037 -0.83704 1.75235 0
M  V30 5829 C 544.167 -1.11101 3.2905 0
M  V30 5830 C 543.121 -0.468244 4.25431 0
M  V30 5831 C 542.447 -1.57822 5.10878 0
M  V30 5832 C 543.747 0.606469 5.18767 0
M  V30 5833 H 545.441 0.622306 2.92861 0
M  V30 5834 H 542.987 0.300714 1.40825 0
M  V30 5835 H 544.94 -1.61622 3.89174 0
M  V30 5836 H 543.664 -1.87265 2.67581 0
M  V30 5837 H 542.323 0.0160484 3.66596 0
M  V30 5838 H 541.971 -2.32998 4.45781 0
M  V30 5839 H 541.671 -1.15369 5.76163 0
M  V30 5840 H 543.195 -2.08583 5.73869 0
M  V30 5841 H 544.609 0.185589 5.73 0
M  V30 5842 H 543.006 0.952381 5.92494 0
M  V30 5843 H 544.076 1.48559 4.61582 0
M  V30 5844 N 545.419 -1.53889 0.339982 0
M  V30 5845 C 546.366 -2.24902 -0.518452 0
M  V30 5846 C 547.336 -1.24593 -1.09844 0
M  V30 5847 O 548.521 -1.53317 -1.13572 0
M  V30 5848 C 545.661 -3.02262 -1.66529 0
M  V30 5849 C 544.774 -4.17418 -1.11295 0
M  V30 5850 C 543.909 -4.82273 -2.2268 0
M  V30 5851 C 542.948 -5.89503 -1.6478 0
M  V30 5852 N 542.085 -6.48153 -2.69893 0
M  V30 5853 H 546.925 -2.97853 0.0936579 0
M  V30 5854 H 544.462 -1.46986 0.0579924 0
M  V30 5855 H 546.42 -3.45371 -2.3404 0
M  V30 5856 H 545.05 -2.31614 -2.24844 0
M  V30 5857 H 544.102 -3.78976 -0.328886 0
M  V30 5858 H 545.414 -4.94554 -0.649414 0
M  V30 5859 H 544.568 -5.28435 -2.98063 0
M  V30 5860 H 543.307 -4.04552 -2.72376 0
M  V30 5861 H 542.312 -5.42728 -0.879004 0
M  V30 5862 H 543.537 -6.6913 -1.1594 0
M  V30 5863 H 541.483 -5.73298 -3.1885 0
M  V30 5864 H 541.4 -7.20752 -2.28151 0
M  V30 5865 H 542.668 -6.98968 -3.45056 0
M  V30 5866 N 546.897 -0.0685191 -1.57451 0
M  V30 5867 C 547.845 0.917577 -2.13736 0
M  V30 5868 C 548.839 1.31049 -1.07344 0
M  V30 5869 O 550.045 1.28811 -1.25728 0
M  V30 5870 H 546.42 0.313835 -0.683382 0
M  V30 5871 H 548.391 0.417903 -2.95459 0
M  V30 5872 C 547.14 2.17686 -2.71123 0
M  V30 5873 H 546.463 1.88336 -3.52661 0
M  V30 5874 H 547.903 2.84803 -3.14107 0
M  V30 5875 C 546.362 2.9332 -1.65726 0
M  V30 5876 O 546.892 3.86901 -1.08031 0
M  V30 5877 N 545.098 2.56367 -1.36837 0
M  V30 5878 H 544.645 1.80341 -1.83943 0
M  V30 5879 H 544.603 3.07276 -0.665501 0
M  V30 5880 N 548.375 1.56261 0.205012 0
M  V30 5881 C 549.323 1.94631 1.27364 0
M  V30 5882 C 550.317 0.830434 1.47649 0
M  V30 5883 O 551.523 1.01538 1.48627 0
M  V30 5884 H 547.898 0.618755 0.427371 0
M  V30 5885 H 549.869 2.83768 0.922941 0
M  V30 5886 C 548.618 2.29358 2.61324 0
M  V30 5887 H 547.941 3.14744 2.46528 0
M  V30 5888 H 549.381 2.60076 3.34868 0
M  V30 5889 C 547.84 1.12461 3.17575 0
M  V30 5890 O 548.37 0.394407 3.99759 0
M  V30 5891 N 546.576 0.904036 2.7618 0
M  V30 5892 H 546.123 1.49956 2.09454 0
M  V30 5893 H 546.081 0.123662 3.14157 0
M  V30 5894 N 549.853 -0.472356 1.50355 0
M  V30 5895 C 551.269 -0.806001 1.37753 0
M  V30 5896 C 551.469 -1.968 0.432649 0
M  V30 5897 O 550.525 -2.52189 -0.12519 0
M  V30 5898 C 551.838 -1.11926 2.79093 0
M  V30 5899 C 553.386 -1.22579 2.87999 0
M  V30 5900 C 553.861 -1.57218 4.3017 0
M  V30 5901 N 555.352 -1.64212 4.33115 0
M  V30 5902 C 556.087 -1.92517 5.40116 0
M  V30 5903 N 555.583 -2.1885 6.57325 0
M  V30 5904 N 557.376 -1.94008 5.27558 0
M  V30 5905 H 549.527 0.293451 2.10363 0
M  V30 5906 H 551.79 0.0687672 0.945503 0
M  V30 5907 H 551.496 -0.338504 3.50067 0
M  V30 5908 H 551.37 -2.05577 3.16256 0
M  V30 5909 H 553.757 -1.99722 2.17245 0
M  V30 5910 H 553.838 -0.269107 2.54381 0
M  V30 5911 H 553.482 -0.806154 5.01461 0
M  V30 5912 H 553.412 -2.54034 4.61275 0
M  V30 5913 H 555.903 -1.45906 3.48597 0
M  V30 5914 H 556.216 -2.39718 7.3468 0
M  V30 5915 H 554.561 -2.16245 6.60502 0
M  V30 5916 H 557.752 -1.72931 4.34986 0
M  V30 5917 H 557.925 -2.15731 6.11035 0
M  V30 5918 N 551.331 -1.39911 -0.725443 0
M  V30 5919 C 552.58 -1.36963 -1.48068 0
M  V30 5920 C 552.893 0.0284478 -1.95579 0
M  V30 5921 O 554.099 0.180535 -2.70899 0
M  V30 5922 C 552.555 -2.40664 -2.67598 0
M  V30 5923 C 552.163 -3.86234 -2.26997 0
M  V30 5924 C 553.907 -2.46807 -3.45379 0
M  V30 5925 C 551.814 -4.81554 -3.43307 0
M  V30 5926 H 550.744 -0.509223 -0.556065 0
M  V30 5927 H 553.395 -1.65602 -0.790454 0
M  V30 5928 H 551.777 -2.05109 -3.38742 0
M  V30 5929 H 552.951 -4.3088 -1.63337 0
M  V30 5930 H 551.266 -3.83475 -1.62284 0
M  V30 5931 H 553.863 -3.15213 -4.31909 0
M  V30 5932 H 554.206 -1.49552 -3.8851 0
M  V30 5933 H 554.739 -2.81303 -2.81271 0
M  V30 5934 H 551.478 -5.80106 -3.05217 0
M  V30 5935 H 550.998 -4.4158 -4.05915 0
M  V30 5936 H 552.677 -5.0091 -4.0951 0
M  V30 5937 N 552.809 0.956637 -1.25245 0
M  V30 5938 C 554.034 1.74104 -1.12706 0
M  V30 5939 C 554.459 1.85436 0.315429 0
M  V30 5940 O 553.817 1.33334 1.22848 0
M  V30 5941 C 553.865 3.1338 -1.78396 0
M  V30 5942 O 552.969 3.98485 -1.06224 0
M  V30 5943 H 552.31 0.53476 -0.393609 0
M  V30 5944 H 554.84 1.19924 -1.65769 0
M  V30 5945 H 554.85 3.6385 -1.846 0
M  V30 5946 H 553.525 3.04448 -2.83345 0
M  V30 5947 H 552.102 3.56952 -1.07886 0
M  V30 5948 N 554.287 1.06798 1.15896 0
M  V30 5949 C 555.217 0.704677 2.22613 0
M  V30 5950 C 556.198 -0.305252 1.67339 0
M  V30 5951 O 557.383 -0.179247 1.93371 0
M  V30 5952 C 554.513 0.0957325 3.47168 0
M  V30 5953 C 553.467 1.0322 4.15367 0
M  V30 5954 C 552.793 0.286293 5.33933 0
M  V30 5955 C 554.093 2.36341 4.65768 0
M  V30 5956 H 555.787 1.59688 2.53259 0
M  V30 5957 H 553.333 0.769257 1.21731 0
M  V30 5958 H 555.286 -0.170333 4.21056 0
M  V30 5959 H 554.01 -0.831516 3.15838 0
M  V30 5960 H 552.669 1.28309 3.43413 0
M  V30 5961 H 552.317 -0.644237 4.98857 0
M  V30 5962 H 552.017 0.910436 5.80504 0
M  V30 5963 H 553.541 0.0278938 6.10594 0
M  V30 5964 H 554.955 2.1561 5.31211 0
M  V30 5965 H 553.352 2.94299 5.2298 0
M  V30 5966 H 554.422 2.99047 3.81705 0
M  V30 5967 O 555.804 -1.27943 0.985539 0
M  V30 5968 H 556.495 -1.83099 0.632003 0
M  V30 END ATOM
M  V30 BEGIN BOND
M  V30 END BOND
M  V30 END CTAB
M  END
$$$$
