drugbank_target|O15111 Inhibitor of nuclear factor kappa-B kinase subunit alpha (DB00233; DB00244; DB00795; DB06151)
 OpenBabel12092120573D

  0  0  0     0  0            999 V3000
M  V30 BEGIN CTAB
M  V30 COUNTS 11892 12014 0 0 0
M  V30 BEGIN ATOM
M  V30 1 H -0.908 1.98254 -0.117106 0
M  V30 2 N 0 1.576 0 0
M  V30 3 C 0.933 2.03868 1.02534 0
M  V30 4 C 1.911 0.928543 1.3348 0
M  V30 5 O 3.095 1.19667 1.45644 0
M  V30 6 C 0.222 2.43627 2.35294 0
M  V30 7 C -0.732 3.65373 2.2001 0
M  V30 8 S 0.101 5.13292 1.52614 0
M  V30 9 C 1.257 5.56322 2.86805 0
M  V30 10 H 1.49 2.90518 0.631377 0
M  V30 11 H -0.977 1.52953 0.210867 0
M  V30 12 H 0.981 2.67203 3.11629 0
M  V30 13 H -0.358 1.57376 2.7183 0
M  V30 14 H -1.165 3.90944 3.18086 0
M  V30 15 H -1.563 3.418 1.51819 0
M  V30 16 H 0.729 5.58782 3.83104 0
M  V30 17 H 1.672 6.56266 2.65933 0
M  V30 18 H 2.08 4.83886 2.90714 0
M  V30 19 N 1.4781 -0.272755 1.55222 0
M  V30 20 C 2.3881 -1.35918 1.91216 0
M  V30 21 C 3.4041 -1.54026 0.809436 0
M  V30 22 O 4.5801 -1.68148 1.10852 0
M  V30 23 C 1.6451 -2.69834 2.17693 0
M  V30 24 C 0.7061 -2.6047 3.41253 0
M  V30 25 C -0.0609 -3.88 3.66458 0
M  V30 26 O 0.1621 -4.88693 2.94169 0
M  V30 27 O -0.9039 -3.88189 4.59992 0
M  V30 28 H 2.9221 -1.0839 2.83699 0
M  V30 29 H 0.5071 -0.471301 1.41771 0
M  V30 30 H 2.3891 -3.49017 2.36147 0
M  V30 31 H 1.0641 -2.97148 1.28392 0
M  V30 32 H -0.0289 -1.79663 3.28134 0
M  V30 33 H 1.3041 -2.38106 4.30774 0
M  V30 34 N 2.9562 -1.48159 -0.537278 0
M  V30 35 C 4.3722 -1.34118 -0.865129 0
M  V30 36 C 4.5722 -0.346678 -1.98495 0
M  V30 37 O 3.6282 0.234715 -2.51407 0
M  V30 38 C 4.9412 -2.73963 -1.23954 0
M  V30 39 C 6.4892 -2.82397 -1.34984 0
M  V30 40 C 6.9642 -4.22928 -1.75772 0
M  V30 41 N 8.4552 -4.25566 -1.82887 0
M  V30 42 C 9.1902 -5.31235 -2.15817 0
M  V30 43 N 8.6862 -6.47189 -2.47222 0
M  V30 44 N 10.4792 -5.18624 -2.16761 0
M  V30 45 H 2.6302 -2.1144 0.201715 0
M  V30 46 H 4.8932 -0.947598 0.0275949 0
M  V30 47 H 4.5992 -3.48264 -0.490381 0
M  V30 48 H 4.4732 -3.0702 -2.19132 0
M  V30 49 H 6.8602 -2.08356 -2.08978 0
M  V30 50 H 6.9412 -2.5297 -0.379448 0
M  V30 51 H 6.5852 -4.97482 -1.02341 0
M  V30 52 H 6.5152 -4.49794 -2.73848 0
M  V30 53 H 9.0062 -3.41924 -1.60924 0
M  V30 54 H 9.3192 -7.23564 -2.71433 0
M  V30 55 H 7.6642 -6.50476 -2.44757 0
M  V30 56 H 10.8552 -4.27056 -1.91679 0
M  V30 57 H 11.0282 -6.01078 -2.42093 0
M  V30 58 N 4.4343 0.785586 -1.36625 0
M  V30 59 C 5.8453 1.36101 -1.27803 0
M  V30 60 C 6.1963 1.96035 0.0804875 0
M  V30 61 O 5.3213 1.92834 0.982042 0
M  V30 62 C 5.9163 2.47442 -2.31426 0
M  V30 63 C 4.4753 3.00789 -2.26281 0
M  V30 64 C 3.6223 1.73896 -2.15999 0
M  V30 65 H 6.5733 0.586928 -1.47448 0
M  V30 66 H 6.5943 3.2656 -1.95291 0
M  V30 67 H 6.1063 2.03791 -3.30289 0
M  V30 68 H 4.2073 3.48851 -1.30896 0
M  V30 69 H 4.3203 3.57343 -3.19128 0
M  V30 70 H 2.6843 1.9628 -1.62316 0
M  V30 71 H 3.4673 1.32368 -3.16755 0
M  V30 72 N 5.9124 1.20967 1.01018 0
M  V30 73 C 7.3234 1.02319 1.56165 0
M  V30 74 C 7.6744 -0.418546 1.91684 0
M  V30 75 O 6.7994 -1.30096 1.72928 0
M  V30 76 C 7.3944 1.85109 2.8376 0
M  V30 77 C 5.9534 1.70809 3.35412 0
M  V30 78 C 5.1004 1.82643 2.08655 0
M  V30 79 H 8.0514 1.35065 0.833255 0
M  V30 80 H 8.0724 1.35827 3.55431 0
M  V30 81 H 7.5844 2.90035 2.57878 0
M  V30 82 H 5.6854 0.685464 3.66241 0
M  V30 83 H 5.7984 2.52467 4.07182 0
M  V30 84 H 4.1624 1.25896 2.21409 0
M  V30 85 H 4.9454 2.89066 1.85191 0
M  V30 86 N 7.3905 -1.2043 1.01659 0
M  V30 87 C 8.6385 -1.89423 0.704522 0
M  V30 88 C 8.9595 -1.79231 -0.768197 0
M  V30 89 O 8.2295 -1.1947 -1.55254 0
M  V30 90 H 6.8095 -0.701178 0.257602 0
M  V30 91 H 9.4715 -1.4626 1.28818 0
M  V30 92 H 8.5675 -2.96052 0.987916 0
M  V30 93 N 8.8686 -0.792821 -1.36206 0
M  V30 94 C 9.7986 -0.207853 -2.32573 0
M  V30 95 C 10.7796 0.659055 -1.56813 0
M  V30 96 O 11.9646 0.592176 -1.84951 0
M  V30 97 C 9.0946 0.655449 -3.41059 0
M  V30 98 C 8.0486 -0.111842 -4.27854 0
M  V30 99 C 7.3746 0.872274 -5.27537 0
M  V30 100 C 8.6746 -1.30299 -5.05786 0
M  V30 101 H 10.3686 -1.01294 -2.81744 0
M  V30 102 H 7.9146 -0.48854 -1.3546 0
M  V30 103 H 9.8676 1.07464 -4.07467 0
M  V30 104 H 8.5916 1.49328 -2.90463 0
M  V30 105 H 7.2506 -0.512053 -3.63006 0
M  V30 106 H 6.8986 1.70523 -4.73214 0
M  V30 107 H 6.5986 0.363291 -5.86476 0
M  V30 108 H 8.1226 1.28996 -5.96818 0
M  V30 109 H 9.5366 -0.959379 -5.65216 0
M  V30 110 H 7.9336 -1.7455 -5.74154 0
M  V30 111 H 9.0036 -2.09663 -4.37229 0
M  V30 112 N 10.3467 1.47872 -0.545128 0
M  V30 113 C 11.7627 1.5829 -0.204032 0
M  V30 114 C 11.9627 1.54529 1.29317 0
M  V30 115 O 11.0187 1.44232 2.07252 0
M  V30 116 C 12.3317 2.89304 -0.819987 0
M  V30 117 C 13.8797 3.02864 -0.790105 0
M  V30 118 C 14.3547 4.3656 -1.38491 0
M  V30 119 N 15.8457 4.43165 -1.34755 0
M  V30 120 C 16.5807 5.45153 -1.77753 0
M  V30 121 N 16.0767 6.54016 -2.2855 0
M  V30 122 N 17.8697 5.36125 -1.68897 0
M  V30 123 H 10.0207 1.4856 -1.51802 0
M  V30 124 H 12.2837 0.706305 -0.632327 0
M  V30 125 H 11.9897 2.97757 -1.87173 0
M  V30 126 H 11.8637 3.75957 -0.305915 0
M  V30 127 H 14.2507 2.94014 0.252913 0
M  V30 128 H 14.3317 2.17782 -1.34181 0
M  V30 129 H 13.9757 4.46164 -2.42693 0
M  V30 130 H 13.9057 5.20353 -0.808754 0
M  V30 131 H 16.3967 3.65083 -0.975855 0
M  V30 132 H 16.7097 7.27994 -2.59314 0
M  V30 133 H 15.0547 6.54938 -2.32553 0
M  V30 134 H 18.2457 4.49975 -1.28998 0
M  V30 135 H 18.4187 6.15472 -2.02726 0
M  V30 136 N 11.8248 0.280983 1.55075 0
M  V30 137 C 13.2358 -0.215629 1.85451 0
M  V30 138 C 13.5868 -1.54991 1.203 0
M  V30 139 O 12.7118 -2.10699 0.493435 0
M  V30 140 C 13.3068 -0.398026 3.36454 0
M  V30 141 C 11.8658 -0.838866 3.66933 0
M  V30 142 C 11.0128 0.064458 2.77225 0
M  V30 143 H 13.9638 0.502601 1.50531 0
M  V30 144 H 13.9848 -1.23569 3.59876 0
M  V30 145 H 13.4968 0.573241 3.83843 0
M  V30 146 H 11.5978 -1.8214 3.25048 0
M  V30 147 H 11.7108 -0.672123 4.74362 0
M  V30 148 H 10.0748 -0.452863 2.50642 0
M  V30 149 H 10.8578 1.03172 3.2743 0
M  V30 150 N 13.3029 -1.57598 0.00835791 0
M  V30 151 C 14.5509 -1.90551 -0.6734 0
M  V30 152 C 14.8719 -0.883301 -1.73847 0
M  V30 153 O 14.1419 0.0781442 -1.95744 0
M  V30 154 H 12.7219 -0.703312 -0.251717 0
M  V30 155 H 15.3839 -1.94833 0.0512592 0
M  V30 156 H 14.4799 -2.9056 -1.13935 0
M  V30 157 N 14.781 0.264519 -1.55364 0
M  V30 158 C 15.744 1.31046 -1.88042 0
M  V30 159 C 16.744 1.41943 -0.755569 0
M  V30 160 O 17.934 1.40947 -1.02369 0
M  V30 161 C 15.066 2.69067 -2.09323 0
M  V30 162 H 16.259 1.03297 -2.81549 0
M  V30 163 H 13.812 0.502989 -1.47986 0
M  V30 164 H 14.547 3.01982 -1.18226 0
M  V30 165 H 14.332 2.62542 -2.91229 0
M  V30 166 H 15.822 3.44623 -2.35848 0
M  V30 167 N 16.2591 1.48442 0.529413 0
M  V30 168 C 17.5071 1.56179 1.28267 0
M  V30 169 C 17.8281 0.237721 1.93546 0
M  V30 170 O 17.0981 -0.740779 1.81354 0
M  V30 171 H 15.6781 0.575367 0.476405 0
M  V30 172 H 18.3401 1.84909 0.61602 0
M  V30 173 H 17.4361 2.34312 2.06165 0
M  V30 174 N 17.7372 -0.778329 1.37039 0
M  V30 175 C 18.9852 -1.53361 1.31623 0
M  V30 176 C 19.3062 -1.94739 -0.100831 0
M  V30 177 O 18.5762 -1.65797 -1.04347 0
M  V30 178 H 17.1562 -0.568794 0.484234 0
M  V30 179 H 19.8182 -0.926742 1.71457 0
M  V30 180 H 18.9142 -2.43606 1.95096 0
M  V30 181 N 19.2153 -1.21501 -1.00376 0
M  V30 182 C 20.6263 -1.03146 -1.55621 0
M  V30 183 C 20.9773 0.408375 -1.91903 0
M  V30 184 O 20.1023 1.29177 -1.73616 0
M  V30 185 C 20.6973 -1.86612 -2.82775 0
M  V30 186 C 19.2563 -1.72586 -3.34501 0
M  V30 187 C 18.4033 -1.83747 -2.07683 0
M  V30 188 H 21.3543 -1.35505 -0.826081 0
M  V30 189 H 21.3753 -1.3771 -3.54706 0
M  V30 190 H 20.8873 -2.91399 -2.56336 0
M  V30 191 H 18.9883 -0.704877 -3.65872 0
M  V30 192 H 19.1013 -2.54623 -4.05837 0
M  V30 193 H 17.4653 -1.27069 -2.20739 0
M  V30 194 H 18.2483 -2.90044 -1.83655 0
M  V30 195 N 20.6934 1.19889 -1.02296 0
M  V30 196 C 21.9394 1.89973 -0.726759 0
M  V30 197 C 22.2944 1.7776 0.73614 0
M  V30 198 O 21.5874 1.15523 1.52856 0
M  V30 199 C 21.7814 3.39883 -1.10518 0
M  V30 200 C 21.6104 3.66684 -2.60332 0
M  V30 201 C 20.3804 3.85045 -3.27213 0
M  V30 202 C 22.5784 3.68727 -3.58532 0
M  V30 203 N 20.5604 3.99422 -4.66192 0
M  V30 204 C 21.9314 3.88604 -4.83101 0
M  V30 205 C 23.9864 3.51722 -3.52414 0
M  V30 206 C 22.6894 3.9324 -6.02292 0
M  V30 207 C 24.7154 3.57632 -4.71013 0
M  V30 208 C 24.0774 3.77988 -5.94394 0
M  V30 209 H 20.1764 0.714551 -0.317712 0
M  V30 210 H 22.7604 1.44123 -1.30907 0
M  V30 211 H 20.9314 3.8447 -0.551142 0
M  V30 212 H 22.6634 3.97464 -0.761853 0
M  V30 213 H 19.4184 3.83689 -2.77632 0
M  V30 214 H 19.8424 4.10473 -5.38368 0
M  V30 215 H 24.4844 3.34945 -2.58015 0
M  V30 216 H 22.2024 4.08811 -6.97065 0
M  V30 217 H 25.7884 3.45773 -4.67902 0
M  V30 218 H 24.6684 3.82428 -6.8463 0
M  V30 219 N 22.1715 0.800033 1.35784 0
M  V30 220 C 23.0815 0.207204 2.33683 0
M  V30 221 C 24.0975 -0.64631 1.61551 0
M  V30 222 O 25.2735 -0.559604 1.93469 0
M  V30 223 C 22.3385 -0.639659 3.40748 0
M  V30 224 C 21.3995 0.233585 4.28664 0
M  V30 225 C 20.6325 -0.572954 5.30616 0
M  V30 226 O 20.8555 -1.80816 5.40982 0
M  V30 227 O 19.7895 0.0327285 6.01891 0
M  V30 228 H 23.6155 1.01692 2.86169 0
M  V30 229 H 21.2005 0.561691 1.38439 0
M  V30 230 H 23.0825 -1.12223 4.06182 0
M  V30 231 H 21.7575 -1.42708 2.90544 0
M  V30 232 H 20.6645 0.763147 3.66233 0
M  V30 233 H 21.9975 0.984784 4.82248 0
M  V30 234 N 23.6496 -1.47581 0.552962 0
M  V30 235 C 24.5826 -2.26883 -0.244857 0
M  V30 236 C 25.5606 -1.33784 -0.924147 0
M  V30 237 O 26.7446 -1.6316 -0.943981 0
M  V30 238 C 23.8716 -3.10695 -1.34856 0
M  V30 239 C 22.9176 -4.19339 -0.778268 0
M  V30 240 S 23.7506 -5.34207 0.37184 0
M  V30 241 C 24.9066 -6.21584 -0.733779 0
M  V30 242 H 25.1396 -2.94202 0.428087 0
M  V30 243 H 22.6726 -1.50628 0.339197 0
M  V30 244 H 24.6306 -3.59555 -1.98066 0
M  V30 245 H 23.2916 -2.42746 -1.99332 0
M  V30 246 H 22.4846 -4.77695 -1.60696 0
M  V30 247 H 22.0866 -3.73338 -0.222422 0
M  V30 248 H 24.3786 -6.57676 -1.62692 0
M  V30 249 H 25.3216 -7.07851 -0.187668 0
M  V30 250 H 25.7296 -5.55125 -1.02454 0
M  V30 251 N 25.1277 -0.289203 -1.54924 0
M  V30 252 C 26.5437 0.0645403 -1.59469 0
M  V30 253 C 26.7437 1.53419 -1.30632 0
M  V30 254 O 25.7997 2.2852 -1.074 0
M  V30 255 C 27.1127 -0.32278 -2.98963 0
M  V30 256 C 28.6607 -0.270564 -3.11828 0
M  V30 257 C 29.1357 -0.632532 -4.53611 0
M  V30 258 N 30.6267 -0.584617 -4.59496 0
M  V30 259 C 31.3617 -0.837314 -5.67254 0
M  V30 260 N 30.8577 -1.15536 -6.83098 0
M  V30 261 N 32.6507 -0.765166 -5.56868 0
M  V30 262 H 24.8017 -1.24714 -1.71931 0
M  V30 263 H 27.0647 -0.504809 -0.802416 0
M  V30 264 H 26.7707 -1.34541 -3.24948 0
M  V30 265 H 26.6447 0.32944 -3.75759 0
M  V30 266 H 29.0317 0.742805 -2.85598 0
M  V30 267 H 29.1127 -0.957242 -2.37214 0
M  V30 268 H 28.7567 -1.64365 -4.80569 0
M  V30 269 H 28.6867 0.07609 -5.26545 0
M  V30 270 H 31.1777 -0.349248 -3.76283 0
M  V30 271 H 31.4907 -1.33447 -7.61191 0
M  V30 272 H 29.8357 -1.19328 -6.84679 0
M  V30 273 H 33.0267 -0.516432 -4.65243 0
M  V30 274 H 33.1997 -0.965477 -6.40767 0
M  V30 275 N 26.6058 1.57591 -0.0167156 0
M  V30 276 C 27.5158 2.1291 0.98521 0
M  V30 277 C 28.5318 1.07834 1.36557 0
M  V30 278 O 29.7078 1.39826 1.44951 0
M  V30 279 C 26.7728 2.63512 2.25305 0
M  V30 280 C 25.8338 3.83256 1.93426 0
M  V30 281 C 25.0668 4.31435 3.14165 0
M  V30 282 O 25.2898 3.78851 4.26413 0
M  V30 283 O 24.2238 5.23416 2.97186 0
M  V30 284 H 28.0498 2.98772 0.544888 0
M  V30 285 H 25.6348 1.48012 0.203141 0
M  V30 286 H 27.5168 2.96183 2.99756 0
M  V30 287 H 26.1918 1.8074 2.68542 0
M  V30 288 H 25.0988 3.55531 1.16398 0
M  V30 289 H 26.4318 4.67153 1.55013 0
M  V30 290 N 28.0839 -0.256276 1.55502 0
M  V30 291 C 29.4999 -0.604325 1.47716 0
M  V30 292 C 29.6999 -1.88763 0.705039 0
M  V30 293 O 28.7559 -2.51445 0.230613 0
M  V30 294 C 30.0689 -0.715756 2.92057 0
M  V30 295 C 31.6169 -0.808706 3.02372 0
M  V30 296 C 32.0919 -0.951777 4.48001 0
M  V30 297 N 33.5829 -1.01688 4.519 0
M  V30 298 C 34.3179 -1.14668 5.61817 0
M  V30 299 N 33.8139 -1.24261 6.81565 0
M  V30 300 N 35.6069 -1.1791 5.49594 0
M  V30 301 H 27.7579 0.586291 2.04148 0
M  V30 302 H 30.0209 0.201015 0.926443 0
M  V30 303 H 29.7269 0.157027 3.51349 0
M  V30 304 H 29.6009 -1.59071 3.42018 0
M  V30 305 H 31.9879 -1.67195 2.43166 0
M  V30 306 H 32.0689 0.0912063 2.55637 0
M  V30 307 H 31.7129 -0.0931291 5.07815 0
M  V30 308 H 31.6429 -1.86659 4.92408 0
M  V30 309 H 34.1339 -0.954468 3.65648 0
M  V30 310 H 34.4469 -1.34046 7.61086 0
M  V30 311 H 32.7919 -1.21236 6.84344 0
M  V30 312 H 35.9829 -1.10057 4.54978 0
M  V30 313 H 36.1559 -1.27681 6.35296 0
M  V30 314 N 29.562 -1.4872 -0.521534 0
M  V30 315 C 30.492 -1.66771 -1.63431 0
M  V30 316 C 31.473 -0.516499 -1.62069 0
M  V30 317 O 32.658 -0.750013 -1.79132 0
M  V30 318 C 29.788 -1.71515 -3.01993 0
M  V30 319 C 28.742 -2.86222 -3.18216 0
M  V30 320 C 28.068 -2.76061 -4.57924 0
M  V30 321 C 29.368 -4.27419 -3.00184 0
M  V30 322 H 31.062 -2.59932 -1.48579 0
M  V30 323 H 28.608 -1.25089 -0.713358 0
M  V30 324 H 30.561 -1.82731 -3.7972 0
M  V30 325 H 29.285 -0.749393 -3.17886 0
M  V30 326 H 27.944 -2.74575 -2.42908 0
M  V30 327 H 27.592 -1.77437 -4.70665 0
M  V30 328 H 27.292 -3.53037 -4.69722 0
M  V30 329 H 28.816 -2.89256 -5.37739 0
M  V30 330 H 30.23 -4.39855 -3.67697 0
M  V30 331 H 28.627 -5.05458 -3.2347 0
M  V30 332 H 29.697 -4.43293 -1.96518 0
M  V30 333 N 31.0401 0.771051 -1.3745 0
M  V30 334 C 32.2881 1.52661 -1.32435 0
M  V30 335 C 32.6091 1.9479 0.0905024 0
M  V30 336 O 31.8791 1.66348 1.03466 0
M  V30 337 H 30.4591 0.566218 -0.487244 0
M  V30 338 H 33.1211 0.917636 -1.71946 0
M  V30 339 H 32.2171 2.42568 -1.96385 0
M  V30 340 N 32.5182 1.22032 0.997298 0
M  V30 341 C 33.7462 1.06841 1.7718 0
M  V30 342 C 34.1612 -0.381325 1.84909 0
M  V30 343 O 33.5182 -1.26437 1.31605 0
M  V30 344 C 33.5692 1.66814 3.20711 0
M  V30 345 O 33.2902 3.06116 3.13408 0
M  V30 346 C 34.7912 1.56838 4.14628 0
M  V30 347 H 32.0112 0.374782 0.556578 0
M  V30 348 H 34.5552 1.61532 1.2541 0
M  V30 349 H 32.7102 1.16196 3.69564 0
M  V30 350 H 33.1242 3.34926 4.0364 0
M  V30 351 H 34.5982 2.03532 5.13107 0
M  V30 352 H 35.0752 0.524155 4.36061 0
M  V30 353 H 35.6812 2.06741 3.7167 0
M  V30 354 N 33.9963 -1.19345 1.0293 0
M  V30 355 C 35.2443 -1.88665 0.724574 0
M  V30 356 C 35.5653 -1.80036 -0.749144 0
M  V30 357 O 34.8353 -1.2111 -1.53978 0
M  V30 358 H 33.4153 -0.698406 0.265025 0
M  V30 359 H 36.0773 -1.44885 1.30362 0
M  V30 360 H 35.1733 -2.94987 1.01926 0
M  V30 361 N 35.4744 -0.807222 -1.35358 0
M  V30 362 C 36.7224 -0.387122 -1.98358 0
M  V30 363 C 37.0434 1.04942 -1.64354 0
M  V30 364 O 36.3134 1.72615 -0.926339 0
M  V30 365 H 34.8934 -0.140154 -0.733734 0
M  V30 366 H 37.5554 -1.0332 -1.6526 0
M  V30 367 H 36.6514 -0.493352 -3.08176 0
M  V30 368 N 36.9525 1.47285 -0.560781 0
M  V30 369 C 38.1995 2.02464 -0.038062 0
M  V30 370 C 38.5275 1.43474 1.31322 0
M  V30 371 O 37.7825 0.581311 1.86867 0
M  V30 372 C 38.0815 3.57258 0.100784 0
M  V30 373 C 37.7475 4.35184 -1.18007 0
M  V30 374 C 36.4095 4.56194 -1.53103 0
M  V30 375 C 38.7615 4.80098 -2.02867 0
M  V30 376 C 36.0895 5.19367 -2.729 0
M  V30 377 C 38.4415 5.44593 -3.21871 0
M  V30 378 C 37.1055 5.63835 -3.57276 0
M  V30 379 H 36.3755 0.740869 -0.0139279 0
M  V30 380 H 39.0225 1.76916 -0.733012 0
M  V30 381 H 37.3275 3.81819 0.878724 0
M  V30 382 H 39.0245 3.97606 0.520639 0
M  V30 383 H 35.6145 4.19113 -0.8968 0
M  V30 384 H 39.7985 4.63642 -1.7706 0
M  V30 385 H 35.0545 5.32459 -3.00496 0
M  V30 386 H 39.2285 5.78358 -3.87911 0
M  V30 387 H 36.8555 6.12557 -4.50197 0
M  V30 388 N 38.4306 0.297415 1.54768 0
M  V30 389 C 39.6786 -0.312295 1.99673 0
M  V30 390 C 39.9996 -1.54686 1.18732 0
M  V30 391 O 39.2696 -1.93854 0.282382 0
M  V30 392 H 37.8496 -0.118381 0.73756 0
M  V30 393 H 40.5116 0.407915 1.90583 0
M  V30 394 H 39.6076 -0.586813 3.06534 0
M  V30 395 N 39.9087 -1.5758 0.0250728 0
M  V30 396 C 40.8567 -2.11125 -0.97617 0
M  V30 397 C 41.8507 -1.03689 -1.33959 0
M  V30 398 O 43.0567 -1.22128 -1.3223 0
M  V30 399 H 39.4317 -0.674468 -0.332561 0
M  V30 400 H 41.4027 -2.94194 -0.499223 0
M  V30 401 C 40.1517 -2.65017 -2.2508 0
M  V30 402 H 39.4747 -3.47333 -1.9799 0
M  V30 403 H 40.9147 -3.06133 -2.93357 0
M  V30 404 C 39.3737 -1.57574 -2.97779 0
M  V30 405 O 39.9037 -0.973203 -3.89733 0
M  V30 406 N 38.1097 -1.29716 -2.60043 0
M  V30 407 H 37.6567 -1.789 -1.85345 0
M  V30 408 H 37.6147 -0.58051 -3.08994 0
M  V30 409 N 41.3868 0.248026 -1.55636 0
M  V30 410 C 42.6328 0.97767 -1.77678 0
M  V30 411 C 42.9658 1.85016 -0.590135 0
M  V30 412 O 42.2408 1.90095 0.411611 0
M  V30 413 C 42.5238 1.83914 -3.09593 0
M  V30 414 C 42.3768 0.99491 -4.38659 0
M  V30 415 C 43.6958 2.82183 -3.37729 0
M  V30 416 H 40.8148 0.354005 -0.646413 0
M  V30 417 H 43.4568 0.248253 -1.88371 0
M  V30 418 H 41.6068 2.46104 -3.00608 0
M  V30 419 H 43.2788 0.391789 -4.59633 0
M  V30 420 H 41.5218 0.299231 -4.32767 0
M  V30 421 H 42.1928 1.63145 -5.2734 0
M  V30 422 H 44.6688 2.30129 -3.4667 0
M  V30 423 H 43.5448 3.39582 -4.31249 0
M  V30 424 H 43.8058 3.58588 -2.58586 0
M  V30 425 N 42.8649 1.48995 0.513639 0
M  V30 426 C 44.1049 1.59452 1.27885 0
M  V30 427 C 44.4689 0.269479 1.90099 0
M  V30 428 O 45.6699 0.249139 2.67643 0
M  V30 429 C 43.9409 2.71277 2.32688 0
M  V30 430 S 45.4999 3.01604 3.18717 0
M  V30 431 H 42.3179 0.562565 0.434789 0
M  V30 432 H 44.9199 1.86595 0.583301 0
M  V30 433 H 43.6239 3.66089 1.8549 0
M  V30 434 H 43.1549 2.46086 3.06929 0
M  V30 435 H 45.1699 2.42155 4.331 0
M  V30 436 N 44.343 -0.763751 1.37857 0
M  V30 437 C 45.273 -1.89103 1.36975 0
M  V30 438 C 46.254 -1.68439 0.237152 0
M  V30 439 O 47.439 -1.8918 0.438713 0
M  V30 440 C 44.569 -3.26496 1.18395 0
M  V30 441 C 43.523 -3.61741 2.28751 0
M  V30 442 C 42.849 -4.97762 1.95286 0
M  V30 443 C 44.149 -3.67665 3.70972 0
M  V30 444 H 45.843 -1.90099 2.31307 0
M  V30 445 H 43.389 -0.91319 1.11341 0
M  V30 446 H 45.342 -4.05003 1.16406 0
M  V30 447 H 44.066 -3.25955 0.205215 0
M  V30 448 H 42.725 -2.85547 2.29909 0
M  V30 449 H 42.373 -4.93769 0.959221 0
M  V30 450 H 42.073 -5.22313 2.69189 0
M  V30 451 H 43.597 -5.7866 1.94898 0
M  V30 452 H 45.011 -4.36307 3.719 0
M  V30 453 H 43.408 -4.03718 4.43995 0
M  V30 454 H 44.478 -2.68134 4.0402 0
M  V30 455 N 45.8211 -1.22559 -0.990812 0
M  V30 456 C 47.0511 -1.07623 -1.76355 0
M  V30 457 C 47.4591 0.37601 -1.85426 0
M  V30 458 O 46.8021 1.27228 -1.32509 0
M  V30 459 C 46.8641 -1.61507 -3.21179 0
M  V30 460 C 46.5281 -3.10146 -3.35646 0
M  V30 461 C 47.5251 -4.07553 -3.22796 0
M  V30 462 C 45.2101 -3.49644 -3.60631 0
M  V30 463 C 47.2041 -5.42442 -3.34716 0
M  V30 464 C 44.8911 -4.84682 -3.72192 0
M  V30 465 C 45.8891 -5.8089 -3.59243 0
M  V30 466 O 45.5771 -7.13476 -3.70415 0
M  V30 467 H 45.3091 -0.377745 -0.560611 0
M  V30 468 H 47.8631 -1.62658 -1.25425 0
M  V30 469 H 46.0931 -1.00881 -3.73309 0
M  V30 470 H 47.7821 -1.42202 -3.80175 0
M  V30 471 H 48.5481 -3.78381 -3.03403 0
M  V30 472 H 44.4271 -2.75282 -3.69785 0
M  V30 473 H 47.9711 -6.17518 -3.24526 0
M  V30 474 H 43.8681 -5.13534 -3.91092 0
M  V30 475 H 44.6361 -7.21083 -3.87275 0
M  V30 476 N 47.2992 1.18797 -1.03562 0
M  V30 477 C 48.2312 2.21731 -0.580337 0
M  V30 478 C 49.2442 1.59051 0.347349 0
M  V30 479 O 50.4332 1.77929 0.142669 0
M  V30 480 C 47.5332 3.38459 0.172805 0
M  V30 481 C 46.7062 4.3072 -0.761496 0
M  V30 482 C 45.7652 5.26174 -0.0525547 0
M  V30 483 O 44.7912 5.65108 -0.681333 0
M  V30 484 N 45.9932 5.67624 1.21586 0
M  V30 485 H 48.7582 2.61417 -1.46565 0
M  V30 486 H 46.3192 1.33531 -0.915476 0
M  V30 487 H 48.3112 3.99335 0.656793 0
M  V30 488 H 46.8812 2.97507 0.959602 0
M  V30 489 H 46.1012 3.67525 -1.42544 0
M  V30 490 H 47.3892 4.89267 -1.39626 0
M  V30 491 H 46.7872 5.38038 1.74732 0
M  V30 492 H 45.3442 6.30721 1.64421 0
M  V30 493 N 48.7773 0.814389 1.34928 0
M  V30 494 C 49.7273 0.202752 2.27097 0
M  V30 495 C 50.7113 -0.62799 1.48139 0
M  V30 496 O 51.9033 -0.483969 1.70255 0
M  V30 497 C 49.0323 -0.64146 3.37254 0
M  V30 498 C 48.1183 0.19944 4.23631 0
M  V30 499 N 48.5093 1.26628 4.89693 0
M  V30 500 C 46.8073 -0.0176433 4.45997 0
M  V30 501 C 47.5083 1.78031 5.53787 0
M  V30 502 N 46.4843 1.08553 5.32651 0
M  V30 503 H 50.2863 1.01893 2.75672 0
M  V30 504 H 47.8003 0.656332 1.48546 0
M  V30 505 H 49.7973 -1.09575 4.02243 0
M  V30 506 H 48.4573 -1.4559 2.9023 0
M  V30 507 H 49.4683 1.64901 4.90946 0
M  V30 508 H 46.1453 -0.800601 4.09752 0
M  V30 509 H 47.5353 2.67236 6.16469 0
M  V30 510 N 50.2554 -1.46986 0.568584 0
M  V30 511 C 51.6714 -1.57946 0.229189 0
M  V30 512 C 51.8714 -1.56567 -1.26843 0
M  V30 513 O 50.9274 -1.47511 -2.04931 0
M  V30 514 C 52.2404 -2.87963 0.865909 0
M  V30 515 C 53.7884 -3.01568 0.838188 0
M  V30 516 C 54.2634 -4.34301 1.45419 0
M  V30 517 N 55.7544 -4.40965 1.41788 0
M  V30 518 C 56.4894 -5.42256 1.86403 0
M  V30 519 N 55.9854 -6.50297 2.38926 0
M  V30 520 N 57.7784 -5.3337 1.77405 0
M  V30 521 H 49.9294 -1.46126 1.54146 0
M  V30 522 H 52.1924 -0.696156 0.643484 0
M  V30 523 H 51.8984 -2.94742 1.91886 0
M  V30 524 H 51.7724 -3.75423 0.365687 0
M  V30 525 H 54.1594 -2.94379 -0.206106 0
M  V30 526 H 54.2404 -2.1562 1.37629 0
M  V30 527 H 53.8844 -4.42247 2.49761 0
M  V30 528 H 53.8144 -5.19 0.891435 0
M  V30 529 H 56.3054 -3.63484 1.03381 0
M  V30 530 H 56.6184 -7.23777 2.70863 0
M  V30 531 H 54.9634 -6.51155 2.42944 0
M  V30 532 H 58.1544 -4.47865 1.3614 0
M  V30 533 H 58.3274 -6.12169 2.12492 0
M  V30 534 N 51.7335 -0.305618 -1.54608 0
M  V30 535 C 52.6435 0.57778 -2.27374 0
M  V30 536 C 53.6595 1.14451 -1.31061 0
M  V30 537 O 54.8355 1.16831 -1.6405 0
M  V30 538 C 51.9005 1.73123 -3.00382 0
M  V30 539 C 50.9615 1.19812 -4.12242 0
M  V30 540 C 50.1945 2.2966 -4.81759 0
M  V30 541 O 50.4175 3.49651 -4.50666 0
M  V30 542 O 49.3515 1.96091 -5.69062 0
M  V30 543 H 53.1775 -0.012624 -3.03697 0
M  V30 544 H 50.7625 -0.0719184 -1.49227 0
M  V30 545 H 52.6445 2.40315 -3.4616 0
M  V30 546 H 51.3195 2.30815 -2.26949 0
M  V30 547 H 50.2265 0.491798 -3.70853 0
M  V30 548 H 51.5595 0.666566 -4.87666 0
M  V30 549 N 53.2116 1.57565 -0.0334293 0
M  V30 550 C 54.1416 2.13511 0.945265 0
M  V30 551 C 55.1226 1.05231 1.33643 0
M  V30 552 O 56.3076 1.33084 1.41429 0
M  V30 553 C 53.4376 2.6657 2.22616 0
M  V30 554 C 52.3916 3.79676 1.97561 0
M  V30 555 C 51.7176 4.1918 3.31952 0
M  V30 556 C 53.0176 5.0557 1.31135 0
M  V30 557 H 54.7116 2.95538 0.479325 0
M  V30 558 H 52.2576 1.42166 0.229115 0
M  V30 559 H 54.2106 3.04344 2.91466 0
M  V30 560 H 52.9346 1.8171 2.71384 0
M  V30 561 H 51.5936 3.42347 1.31127 0
M  V30 562 H 51.2416 3.31296 3.78487 0
M  V30 563 H 50.9416 4.95402 3.15992 0
M  V30 564 H 52.4656 4.59541 4.02063 0
M  V30 565 H 53.8796 5.40903 1.89992 0
M  V30 566 H 52.2766 5.86818 1.25559 0
M  V30 567 H 53.3466 4.84062 0.284894 0
M  V30 568 N 54.6897 -0.239769 1.55765 0
M  V30 569 C 55.9667 -0.990056 1.68693 0
M  V30 570 C 56.3467 -2.03107 0.5754 0
M  V30 571 O 55.6947 -2.24604 -0.42017 0
M  V30 572 C 55.9047 -1.61696 3.09282 0
M  V30 573 C 57.2527 -2.11613 3.6811 0
M  V30 574 O 58.2767 -1.71624 3.12127 0
M  V30 575 O 57.1357 -2.85057 4.66267 0
M  V30 576 H 54.2297 -0.461299 0.686391 0
M  V30 577 H 56.7757 -0.232991 1.68093 0
M  V30 578 H 55.5477 -0.864357 3.81634 0
M  V30 579 H 55.1707 -2.44005 3.13923 0
M  V30 580 N 56.1678 -1.49265 -0.50573 0
M  V30 581 C 57.0978 -1.68495 -1.61653 0
M  V30 582 C 58.0788 -0.53366 -1.61512 0
M  V30 583 O 59.2638 -0.76897 -1.78327 0
M  V30 584 C 56.3938 -1.74709 -3.00157 0
M  V30 585 C 55.3478 -2.89581 -3.15162 0
M  V30 586 C 54.6738 -2.80903 -4.5497 0
M  V30 587 C 55.9738 -4.30578 -2.95634 0
M  V30 588 H 57.6678 -2.61493 -1.45814 0
M  V30 589 H 55.2138 -1.25838 -0.70005 0
M  V30 590 H 57.1668 -1.86748 -3.77761 0
M  V30 591 H 55.8908 -0.783067 -3.17074 0
M  V30 592 H 54.5498 -2.77136 -2.39982 0
M  V30 593 H 54.1978 -1.82419 -4.68756 0
M  V30 594 H 53.8978 -3.57999 -4.65951 0
M  V30 595 H 55.4218 -2.94944 -5.34641 0
M  V30 596 H 56.8358 -4.4373 -3.63011 0
M  V30 597 H 55.2328 -5.0886 -3.18091 0
M  V30 598 H 56.3028 -4.45352 -1.91806 0
M  V30 599 N 57.6459 0.756429 -1.3826 0
M  V30 600 C 58.5929 1.87011 -1.35261 0
M  V30 601 C 59.5629 1.64695 -0.215616 0
M  V30 602 O 60.7479 1.864 -0.407399 0
M  V30 603 C 57.8879 3.24275 -1.18068 0
M  V30 604 C 57.0009 3.58442 -2.41129 0
M  V30 605 C 56.1359 4.84994 -2.16689 0
M  V30 606 C 55.1749 5.11939 -3.35537 0
M  V30 607 N 54.3119 6.29685 -3.10549 0
M  V30 608 H 59.1519 1.8891 -2.30472 0
M  V30 609 H 56.6889 0.923373 -1.14509 0
M  V30 610 H 58.6469 4.03479 -1.06116 0
M  V30 611 H 57.2769 3.21711 -0.264973 0
M  V30 612 H 56.3289 2.74103 -2.63764 0
M  V30 613 H 57.6409 3.74283 -3.29717 0
M  V30 614 H 56.7949 5.72135 -2.01857 0
M  V30 615 H 55.5339 4.71286 -1.25462 0
M  V30 616 H 54.5389 4.23268 -3.50891 0
M  V30 617 H 55.7639 5.27546 -4.27635 0
M  V30 618 H 53.7099 6.17306 -2.21967 0
M  V30 619 H 53.6269 6.46014 -3.92686 0
M  V30 620 H 54.8949 7.19722 -2.99367 0
M  V30 621 N 59.124 1.23083 0.984299 0
M  V30 622 C 60.373 1.05466 1.71929 0
M  V30 623 C 60.686 -0.409211 1.91272 0
M  V30 624 O 61.892 -0.705226 2.62181 0
M  V30 625 C 60.348 1.83874 3.09384 0
M  V30 626 C 59.956 3.34566 2.97943 0
M  V30 627 C 61.7 1.74734 3.8687 0
M  V30 628 C 59.607 4.05381 4.30605 0
M  V30 629 H 58.537 0.391039 0.644674 0
M  V30 630 H 61.188 1.47013 1.09815 0
M  V30 631 H 59.57 1.35131 3.72231 0
M  V30 632 H 60.744 3.90767 2.44209 0
M  V30 633 H 59.059 3.44476 2.33934 0
M  V30 634 H 61.656 2.24957 4.85076 0
M  V30 635 H 61.999 0.709372 4.10212 0
M  V30 636 H 62.532 2.21067 3.30717 0
M  V30 637 H 59.271 5.09467 4.1246 0
M  V30 638 H 58.791 3.53967 4.84218 0
M  V30 639 H 60.47 4.11458 4.99311 0
M  V30 640 N 60.6021 -1.18246 1.0419 0
M  V30 641 C 61.5651 -2.20128 0.638452 0
M  V30 642 C 62.5651 -1.57885 -0.304805 0
M  V30 643 O 63.7551 -1.73967 -0.0900369 0
M  V30 644 C 60.8871 -3.4084 -0.0637751 0
M  V30 645 H 62.0801 -2.57336 1.54007 0
M  V30 646 H 59.6331 -1.32152 0.834598 0
M  V30 647 H 60.3681 -3.09166 -0.979136 0
M  V30 648 H 60.1531 -3.8726 0.614198 0
M  V30 649 H 61.6431 -4.16274 -0.332512 0
M  V30 650 N 62.0802 -0.821533 -1.34494 0
M  V30 651 C 63.3292 -0.405355 -1.97585 0
M  V30 652 C 63.6422 1.03677 -1.65863 0
M  V30 653 O 64.8482 1.55679 -2.22433 0
M  V30 654 C 63.3042 -0.673861 -3.53535 0
M  V30 655 C 62.9122 -2.12951 -3.94152 0
M  V30 656 C 64.6562 -0.32378 -4.23263 0
M  V30 657 C 62.5632 -2.34298 -5.43009 0
M  V30 658 H 61.4932 -0.147836 -0.739365 0
M  V30 659 H 64.1442 -1.00769 -1.53355 0
M  V30 660 H 62.5262 -0.00137554 -3.96 0
M  V30 661 H 63.7002 -2.84104 -3.62797 0
M  V30 662 H 62.0152 -2.44089 -3.37356 0
M  V30 663 H 64.6122 -0.461126 -5.32708 0
M  V30 664 H 64.9552 0.731586 -4.09821 0
M  V30 665 H 65.4882 -0.950786 -3.8627 0
M  V30 666 H 62.2272 -3.38335 -5.61435 0
M  V30 667 H 61.7472 -1.67687 -5.75883 0
M  V30 668 H 63.4262 -2.16588 -6.09671 0
M  V30 669 N 63.5583 1.46682 -0.576371 0
M  V30 670 C 64.5053 2.30241 0.160499 0
M  V30 671 C 65.4753 1.40233 0.890162 0
M  V30 672 O 66.6603 1.69186 0.882084 0
M  V30 673 C 63.8003 3.24578 1.1723 0
M  V30 674 C 62.9133 4.29684 0.446736 0
M  V30 675 C 62.0483 5.11154 1.44551 0
M  V30 676 C 61.0873 6.08015 0.70599 0
M  V30 677 N 60.2243 6.82376 1.65251 0
M  V30 678 H 65.0643 2.92727 -0.558127 0
M  V30 679 H 62.6013 1.44272 -0.287056 0
M  V30 680 H 64.5593 3.77711 1.77172 0
M  V30 681 H 63.1893 2.63916 1.85872 0
M  V30 682 H 62.2413 3.79458 -0.267594 0
M  V30 683 H 63.5533 4.98626 -0.131686 0
M  V30 684 H 62.7073 5.68533 2.11791 0
M  V30 685 H 61.4463 4.42158 2.05786 0
M  V30 686 H 60.4513 5.49796 0.0197725 0
M  V30 687 H 61.6763 6.79028 0.09912 0
M  V30 688 H 59.6223 6.16094 2.25308 0
M  V30 689 H 59.5393 7.47556 1.12673 0
M  V30 690 H 60.8073 7.44316 2.31546 0
M  V30 691 N 65.0364 0.313813 1.54444 0
M  V30 692 C 66.2614 -0.296681 2.05267 0
M  V30 693 C 66.6864 -1.45757 1.18897 0
M  V30 694 O 66.0444 -1.80239 0.195886 0
M  V30 695 C 66.0924 -0.71831 3.53373 0
M  V30 696 O 65.1964 -1.82175 3.69981 0
M  V30 697 H 64.5374 -0.0554061 0.661684 0
M  V30 698 H 67.0674 0.459387 1.99376 0
M  V30 699 H 67.0774 -1.00364 3.95463 0
M  V30 700 H 65.7524 0.130821 4.15694 0
M  V30 701 H 64.3294 -1.53598 3.39797 0
M  V30 702 N 66.5145 -1.57545 0.0417849 0
M  V30 703 C 67.7545 -1.94185 -0.63809 0
M  V30 704 C 68.1185 -0.919339 -1.68559 0
M  V30 705 O 69.3195 -1.17236 -2.41886 0
M  V30 706 C 67.5905 -3.35672 -1.22714 0
M  V30 707 S 69.1495 -3.94256 -1.92633 0
M  V30 708 H 65.9675 -0.679353 -0.209764 0
M  V30 709 H 68.5695 -1.95199 0.108479 0
M  V30 710 H 67.2735 -4.07898 -0.452503 0
M  V30 711 H 66.8045 -3.38132 -2.01073 0
M  V30 712 H 68.8195 -3.7872 -3.20602 0
M  V30 713 N 67.9926 0.231505 -1.5589 0
M  V30 714 C 69.4086 0.580748 -1.48659 0
M  V30 715 C 69.6086 1.87617 -0.73498 0
M  V30 716 O 68.6646 2.51046 -0.270586 0
M  V30 717 C 69.9776 0.669202 -2.93159 0
M  V30 718 C 71.5256 0.760499 -3.03621 0
M  V30 719 C 72.0006 0.880383 -4.49459 0
M  V30 720 N 73.4916 0.944861 -4.53461 0
M  V30 721 C 74.2266 1.05716 -5.63571 0
M  V30 722 N 73.7226 1.13403 -6.83456 0
M  V30 723 N 75.5156 1.09152 -5.514 0
M  V30 724 H 67.6666 -0.618695 -2.03189 0
M  V30 725 H 69.9296 -0.215728 -0.923128 0
M  V30 726 H 69.6356 -0.212904 -3.51055 0
M  V30 727 H 69.5096 1.5361 -3.44505 0
M  V30 728 H 71.8966 1.63305 -2.45796 0
M  V30 729 H 71.9776 -0.131864 -2.5546 0
M  V30 730 H 71.6216 0.0123284 -5.07899 0
M  V30 731 H 71.5516 1.78802 -4.95316 0
M  V30 732 H 74.0426 0.896176 -3.6712 0
M  V30 733 H 74.3556 1.21921 -7.63122 0
M  V30 734 H 72.7006 1.10333 -6.86186 0
M  V30 735 H 75.8916 1.02805 -4.56671 0
M  V30 736 H 76.0646 1.17558 -6.37247 0
M  V30 737 N 69.4707 1.49531 0.497807 0
M  V30 738 C 70.4007 1.6935 1.60757 0
M  V30 739 C 71.3817 0.542218 1.61227 0
M  V30 740 O 72.5667 0.778417 1.77917 0
M  V30 741 C 69.6967 1.76298 2.99226 0
M  V30 742 C 68.6507 2.91248 3.13622 0
M  V30 743 C 67.9767 2.83312 4.53474 0
M  V30 744 C 69.2767 4.3214 2.93346 0
M  V30 745 H 70.9707 2.62263 1.44425 0
M  V30 746 H 68.5167 1.26208 0.693367 0
M  V30 747 H 70.4697 1.88749 3.76765 0
M  V30 748 H 69.1937 0.799871 3.16654 0
M  V30 749 H 67.8527 2.78404 2.38509 0
M  V30 750 H 67.5007 1.84902 4.67782 0
M  V30 751 H 67.2007 3.60465 4.64046 0
M  V30 752 H 68.7247 2.97775 5.33069 0
M  V30 753 H 70.1387 4.45649 3.60652 0
M  V30 754 H 68.5357 5.1054 3.15387 0
M  V30 755 H 69.6057 4.46363 1.89441 0
M  V30 756 N 70.9488 -0.749086 1.3866 0
M  V30 757 C 71.8588 -1.89358 1.38494 0
M  V30 758 C 72.8748 -1.71708 0.281476 0
M  V30 759 O 74.0508 -1.94554 0.520643 0
M  V30 760 C 71.1158 -3.24782 1.21316 0
M  V30 761 C 70.1768 -3.54926 2.41508 0
M  V30 762 C 69.4098 -4.83888 2.2514 0
M  V30 763 O 69.6328 -5.56592 1.24746 0
M  V30 764 O 68.5668 -5.13612 3.13826 0
M  V30 765 H 72.3928 -1.92452 2.34938 0
M  V30 766 H 69.9778 -0.894981 1.19626 0
M  V30 767 H 71.8598 -4.05739 1.13814 0
M  V30 768 H 70.5348 -3.2249 0.279592 0
M  V30 769 H 69.4418 -2.74112 2.54585 0
M  V30 770 H 70.7748 -3.61983 3.3351 0
M  V30 771 N 72.4269 -1.23603 -0.977757 0
M  V30 772 C 73.3569 -1.04401 -2.0886 0
M  V30 773 C 74.3379 0.0399052 -1.70053 0
M  V30 774 O 75.5229 -0.125246 -1.93796 0
M  V30 775 C 72.6529 -0.637269 -3.41403 0
M  V30 776 C 71.6069 -1.66883 -3.94124 0
M  V30 777 C 70.9329 -1.11745 -5.22893 0
M  V30 778 C 72.2329 -3.06247 -4.23096 0
M  V30 779 H 73.9269 -1.97316 -2.25182 0
M  V30 780 H 71.4729 -0.950096 -1.08209 0
M  V30 781 H 73.4259 -0.48998 -4.18542 0
M  V30 782 H 72.1499 0.327557 -3.24953 0
M  V30 783 H 70.8089 -1.80416 -3.19133 0
M  V30 784 H 70.4569 -0.143527 -5.02795 0
M  V30 785 H 70.1569 -1.80672 -5.59134 0
M  V30 786 H 71.6809 -0.982067 -6.02651 0
M  V30 787 H 73.0949 -2.96001 -4.90975 0
M  V30 788 H 71.4919 -3.72436 -4.70544 0
M  V30 789 H 72.5619 -3.55041 -3.30263 0
M  V30 790 N 73.905 1.17692 -1.04816 0
M  V30 791 C 75.13 1.92327 -0.776207 0
M  V30 792 C 75.555 1.76082 0.661581 0
M  V30 793 O 74.913 1.076 1.45917 0
M  V30 794 C 74.961 3.41539 -1.15687 0
M  V30 795 O 74.065 4.11402 -0.286775 0
M  V30 796 H 73.406 0.599735 -0.284981 0
M  V30 797 H 75.936 1.49201 -1.4 0
M  V30 798 H 75.946 3.92269 -1.12202 0
M  V30 799 H 74.621 3.52684 -2.20425 0
M  V30 800 H 73.198 3.70939 -0.381903 0
M  V30 801 N 75.3831 0.828654 1.34056 0
M  V30 802 C 76.6111 0.43262 2.02326 0
M  V30 803 C 77.0261 -0.963147 1.62385 0
M  V30 804 O 76.3831 -1.62425 0.832121 0
M  V30 805 C 76.4341 0.53182 3.57567 0
M  V30 806 O 76.1551 1.87258 3.96063 0
M  V30 807 C 77.6561 0.131422 4.43105 0
M  V30 808 H 74.8761 0.172923 0.648335 0
M  V30 809 H 77.4201 1.1184 1.71208 0
M  V30 810 H 75.5751 -0.105938 3.87255 0
M  V30 811 H 75.9891 1.85087 4.90758 0
M  V30 812 H 77.4631 0.251904 5.51425 0
M  V30 813 H 77.9401 -0.925645 4.29335 0
M  V30 814 H 78.5461 0.743207 4.18756 0
M  V30 815 N 76.8612 -1.46375 0.584142 0
M  V30 816 C 77.8082 -2.30323 -0.148286 0
M  V30 817 C 78.7782 -1.40703 -0.882713 0
M  V30 818 O 79.9632 -1.69651 -0.873099 0
M  V30 819 C 77.1032 -3.25196 -1.15507 0
M  V30 820 C 76.2162 -4.29915 -0.423943 0
M  V30 821 C 75.3512 -5.11914 -1.41838 0
M  V30 822 C 74.3902 -6.08381 -0.673736 0
M  V30 823 N 73.5272 -6.83242 -1.6163 0
M  V30 824 H 78.3672 -2.92427 0.573644 0
M  V30 825 H 75.9042 -1.44118 0.294703 0
M  V30 826 H 77.8622 -3.78646 -1.75166 0
M  V30 827 H 76.4922 -2.64898 -1.8447 0
M  V30 828 H 75.5442 -3.7931 0.287714 0
M  V30 829 H 76.8562 -4.98549 0.158128 0
M  V30 830 H 76.0102 -5.69648 -2.08773 0
M  V30 831 H 74.7492 -4.43243 -2.03438 0
M  V30 832 H 73.7542 -5.49799 0.00938483 0
M  V30 833 H 74.9792 -6.79071 -0.0631082 0
M  V30 834 H 72.9252 -6.1728 -2.22038 0
M  V30 835 H 72.8422 -7.48144 -1.08707 0
M  V30 836 H 74.1102 -7.45534 -2.27596 0
M  V30 837 N 78.3393 -0.321999 -1.54275 0
M  V30 838 C 79.2873 0.560206 -2.25753 0
M  V30 839 C 80.2813 1.11984 -1.27106 0
M  V30 840 O 81.4873 1.06806 -1.44888 0
M  V30 841 H 77.8623 0.199304 -0.725108 0
M  V30 842 H 79.8333 -0.0649365 -2.98329 0
M  V30 843 C 78.5823 1.71023 -3.02731 0
M  V30 844 H 77.9053 1.28885 -3.78456 0
M  V30 845 H 79.3453 2.30314 -3.55993 0
M  V30 846 C 77.8043 2.62692 -2.10938 0
M  V30 847 O 78.3343 3.64364 -1.6912 0
M  V30 848 N 76.5403 2.30891 -1.76459 0
M  V30 849 H 76.0873 1.48253 -2.10663 0
M  V30 850 H 76.0453 2.92487 -1.1532 0
M  V30 851 N 79.8174 1.5752 -0.0501392 0
M  V30 852 C 81.2334 1.56631 0.306402 0
M  V30 853 C 81.4334 1.0577 1.71508 0
M  V30 854 O 80.4894 0.713837 2.422 0
M  V30 855 C 81.8024 3.00393 0.135811 0
M  V30 856 C 83.3504 3.12315 0.206993 0
M  V30 857 C 83.8254 4.57954 0.064944 0
M  V30 858 N 85.3164 4.63041 0.121254 0
M  V30 859 C 86.0514 5.73389 0.0354381 0
M  V30 860 N 85.5474 6.92724 -0.102666 0
M  V30 861 N 87.3404 5.62026 0.090946 0
M  V30 862 H 79.4914 1.88903 -0.971046 0
M  V30 863 H 81.7544 0.869876 -0.376855 0
M  V30 864 H 81.4604 3.41635 -0.835384 0
M  V30 865 H 81.3344 3.66373 0.897275 0
M  V30 866 H 83.7214 2.70973 1.16866 0
M  V30 867 H 83.8024 2.49016 -0.585208 0
M  V30 868 H 83.4464 4.99981 -0.893394 0
M  V30 869 H 83.3764 5.19258 0.876277 0
M  V30 870 H 85.8674 3.77216 0.227284 0
M  V30 871 H 86.1804 7.72633 -0.160882 0
M  V30 872 H 84.5254 6.94864 -0.137737 0
M  V30 873 H 87.7164 4.67684 0.197388 0
M  V30 874 H 87.8894 6.47997 0.0206089 0
M  V30 875 N 81.2955 -0.223234 1.56011 0
M  V30 876 C 82.2055 -1.29766 1.95443 0
M  V30 877 C 83.2215 -1.51373 0.858028 0
M  V30 878 O 84.3975 -1.64536 1.16146 0
M  V30 879 C 81.4625 -2.62772 2.26167 0
M  V30 880 C 80.5235 -2.49482 3.49367 0
M  V30 881 C 79.7565 -3.76145 3.78616 0
M  V30 882 O 79.9795 -4.79087 3.09568 0
M  V30 883 O 78.9135 -3.73358 4.72109 0
M  V30 884 H 82.7395 -0.99309 2.87004 0
M  V30 885 H 80.3245 -0.425958 1.43199 0
M  V30 886 H 82.2065 -3.41327 2.47131 0
M  V30 887 H 80.8815 -2.92913 1.37781 0
M  V30 888 H 79.7885 -1.69133 3.33684 0
M  V30 889 H 81.1215 -2.2428 4.38131 0
M  V30 890 N 82.7736 -1.49793 -0.48987 0
M  V30 891 C 84.1896 -1.36803 -0.822022 0
M  V30 892 C 84.3896 -0.409652 -1.97292 0
M  V30 893 O 83.4456 0.154614 -2.52026 0
M  V30 894 C 84.7586 -2.77768 -1.15175 0
M  V30 895 C 86.3066 -2.86549 -1.25931 0
M  V30 896 C 86.7816 -4.28306 -1.62228 0
M  V30 897 N 88.2726 -4.31169 -1.69256 0
M  V30 898 C 89.0076 -5.37832 -1.98807 0
M  V30 899 N 88.5036 -6.54726 -2.26507 0
M  V30 900 N 90.2966 -5.25258 -2.00152 0
M  V30 901 H 82.4476 -2.10691 0.268881 0
M  V30 902 H 84.7106 -0.946241 0.057728 0
M  V30 903 H 84.4166 -3.49648 -0.379335 0
M  V30 904 H 84.2906 -3.13836 -2.09253 0
M  V30 905 H 86.6776 -2.14899 -2.02243 0
M  V30 906 H 86.7586 -2.54049 -0.298776 0
M  V30 907 H 86.4026 -5.00486 -0.864622 0
M  V30 908 H 86.3326 -4.58279 -2.594 0
M  V30 909 H 88.8236 -3.4687 -1.49965 0
M  V30 910 H 89.1366 -7.31833 -2.48276 0
M  V30 911 H 87.4816 -6.57933 -2.23939 0
M  V30 912 H 90.6726 -4.32938 -1.77996 0
M  V30 913 H 90.8456 -6.08476 -2.22848 0
M  V30 914 N 84.2517 0.741722 -1.39055 0
M  V30 915 C 85.4977 1.50234 -1.37118 0
M  V30 916 C 85.8527 1.92368 0.0350439 0
M  V30 917 O 85.1457 1.63422 1.00019 0
M  V30 918 C 85.3397 2.7592 -2.27163 0
M  V30 919 C 85.1687 2.46074 -3.76401 0
M  V30 920 C 83.9387 2.38704 -4.45364 0
M  V30 921 C 86.1367 2.12062 -4.68545 0
M  V30 922 N 84.1187 2.01258 -5.79973 0
M  V30 923 C 85.4897 1.85005 -5.91754 0
M  V30 924 C 87.5447 1.98473 -4.56632 0
M  V30 925 C 86.2477 1.4573 -7.04383 0
M  V30 926 C 88.2737 1.60599 -5.69176 0
M  V30 927 C 87.6357 1.34423 -6.91455 0
M  V30 928 H 83.7347 0.548858 -0.557027 0
M  V30 929 H 86.3187 0.862642 -1.74547 0
M  V30 930 H 84.4897 3.3768 -1.91904 0
M  V30 931 H 86.2217 3.42068 -2.16267 0
M  V30 932 H 82.9767 2.55574 -3.98721 0
M  V30 933 H 83.4007 1.85147 -6.51191 0
M  V30 934 H 88.0427 2.17381 -3.62637 0
M  V30 935 H 85.7607 1.25562 -7.98286 0
M  V30 936 H 89.3467 1.507 -5.61944 0
M  V30 937 H 88.2267 1.05555 -7.77064 0
M  V30 938 N 85.7298 1.2412 0.971189 0
M  V30 939 C 86.9698 1.09066 1.7287 0
M  V30 940 C 87.3338 -0.364794 1.88503 0
M  V30 941 O 88.5348 -0.636748 2.61149 0
M  V30 942 C 86.8058 1.80629 3.08396 0
M  V30 943 S 88.3648 1.81263 3.99611 0
M  V30 944 H 85.1828 0.390145 0.594397 0
M  V30 945 H 87.7848 1.57397 1.15959 0
M  V30 946 H 86.4888 2.85647 2.94676 0
M  V30 947 H 86.0198 1.32617 3.70373 0
M  V30 948 H 88.0348 0.877804 4.88374 0
M  V30 949 N 87.2079 -1.17134 1.05439 0
M  V30 950 C 88.1579 -2.1919 0.627675 0
M  V30 951 C 89.1419 -1.57328 -0.337147 0
M  V30 952 O 90.3339 -1.76329 -0.153976 0
M  V30 953 C 87.4629 -3.43299 0.00651435 0
M  V30 954 C 86.5489 -4.12255 0.995312 0
M  V30 955 N 86.9399 -4.56997 2.16765 0
M  V30 956 C 85.2379 -4.38316 0.824336 0
M  V30 957 C 85.9389 -5.10239 2.7934 0
M  V30 958 N 84.9149 -5.02595 2.07122 0
M  V30 959 H 88.7169 -2.5149 1.52086 0
M  V30 960 H 86.2309 -1.33491 0.924868 0
M  V30 961 H 88.2279 -4.15693 -0.316965 0
M  V30 962 H 86.8879 -3.1249 -0.882033 0
M  V30 963 H 87.8989 -4.51006 2.54587 0
M  V30 964 H 84.5759 -4.17498 -0.0129526 0
M  V30 965 H 85.9659 -5.54961 3.78772 0
M  V30 966 N 88.686 -0.835752 -1.33615 0
M  V30 967 C 89.596 -0.269088 -2.33052 0
M  V30 968 C 90.612 0.603251 -1.63208 0
M  V30 969 O 91.788 0.508112 -1.94885 0
M  V30 970 C 88.853 0.549091 -3.42324 0
M  V30 971 C 87.914 -0.347156 -4.27894 0
M  V30 972 C 87.147 0.43207 -5.31948 0
M  V30 973 O 87.37 1.66409 -5.45586 0
M  V30 974 O 86.304 -0.192298 -6.01593 0
M  V30 975 H 90.13 -1.09243 -2.83372 0
M  V30 976 H 87.715 -0.598198 -1.36901 0
M  V30 977 H 89.597 1.01414 -4.09015 0
M  V30 978 H 88.272 1.34955 -2.94226 0
M  V30 979 H 87.179 -0.859979 -3.64081 0
M  V30 980 H 88.512 -1.1123 -4.79467 0
M  V30 981 N 90.1641 1.46063 -0.591896 0
M  V30 982 C 91.4131 2.01547 -0.0786637 0
M  V30 983 C 91.7261 1.46796 1.29268 0
M  V30 984 O 92.9321 1.94157 1.89777 0
M  V30 985 C 91.3881 3.59787 -0.0900024 0
M  V30 986 C 90.9961 4.23534 -1.46023 0
M  V30 987 C 92.7401 4.22895 0.368806 0
M  V30 988 C 90.6471 5.73881 -1.4288 0
M  V30 989 H 89.5771 0.753564 -0.0256388 0
M  V30 990 H 92.2281 1.677 -0.744905 0
M  V30 991 H 90.6101 3.90752 0.642586 0
M  V30 992 H 91.7841 4.04167 -2.21328 0
M  V30 993 H 90.0991 3.72558 -1.85982 0
M  V30 994 H 92.6961 5.33116 0.411258 0
M  V30 995 H 93.0391 3.9247 1.38827 0
M  V30 996 H 93.5721 3.9659 -0.31001 0
M  V30 997 H 90.3111 6.0898 -2.42536 0
M  V30 998 H 89.8311 5.95486 -0.718095 0
M  V30 999 H 91.5101 6.36776 -1.14565 0
M  V30 1000 N 91.6422 0.330177 1.54103 0
M  V30 1001 C 92.5742 -0.566902 2.22079 0
M  V30 1002 C 93.5872 -1.07462 1.22294 0
M  V30 1003 O 94.7762 -0.987065 1.48726 0
M  V30 1004 C 91.8762 -1.79138 2.87685 0
M  V30 1005 C 91.0492 -1.42123 4.13666 0
M  V30 1006 C 90.1082 -2.50394 4.62806 0
M  V30 1007 O 89.1342 -2.14261 5.27334 0
M  V30 1008 N 90.3362 -3.81433 4.37595 0
M  V30 1009 H 93.1012 0.0151844 2.99696 0
M  V30 1010 H 90.6622 0.153681 1.61169 0
M  V30 1011 H 92.6542 -2.50975 3.1748 0
M  V30 1012 H 91.2242 -2.28115 2.13734 0
M  V30 1013 H 90.4442 -0.534201 3.90564 0
M  V30 1014 H 91.7322 -1.14971 4.9564 0
M  V30 1015 H 91.1302 -4.13584 3.8596 0
M  V30 1016 H 89.6872 -4.4948 4.72029 0
M  V30 1017 N 93.1203 -1.57491 0.0584922 0
M  V30 1018 C 94.3693 -1.92155 -0.613146 0
M  V30 1019 C 94.6823 -0.939334 -1.71569 0
M  V30 1020 O 95.8883 -1.17829 -2.44599 0
M  V30 1021 C 94.3443 -3.41303 -1.14195 0
M  V30 1022 C 93.9523 -4.47944 -0.0711265 0
M  V30 1023 C 95.6963 -3.84988 -1.78841 0
M  V30 1024 C 93.6033 -5.88212 -0.613225 0
M  V30 1025 H 92.5333 -0.717162 -0.232796 0
M  V30 1026 H 95.1843 -1.83049 0.12857 0
M  V30 1027 H 93.5663 -3.45437 -1.93621 0
M  V30 1028 H 94.7403 -4.55408 0.702836 0
M  V30 1029 H 93.0553 -4.13644 0.478313 0
M  V30 1030 H 95.6523 -4.87159 -2.20408 0
M  V30 1031 H 95.9953 -3.21632 -2.64308 0
M  V30 1032 H 96.5283 -3.83401 -1.06059 0
M  V30 1033 H 93.2673 -6.55183 0.203978 0
M  V30 1034 H 92.7873 -5.84294 -1.35501 0
M  V30 1035 H 94.4663 -6.37687 -1.09383 0
M  V30 1036 N 94.5984 0.214957 -1.56127 0
M  V30 1037 C 95.5314 1.29382 -1.87977 0
M  V30 1038 C 96.5094 1.44897 -0.737807 0
M  V30 1039 O 97.6934 1.60605 -0.986833 0
M  V30 1040 C 94.8204 2.66325 -2.09258 0
M  V30 1041 C 93.8664 2.67789 -3.31951 0
M  V30 1042 S 94.6994 2.21198 -4.8768 0
M  V30 1043 C 95.8554 3.60003 -5.12004 0
M  V30 1044 H 96.0884 1.02173 -2.79192 0
M  V30 1045 H 93.6214 0.417516 -1.48648 0
M  V30 1046 H 95.5794 3.45162 -2.22201 0
M  V30 1047 H 94.2404 2.90755 -1.18829 0
M  V30 1048 H 93.4334 3.68436 -3.43906 0
M  V30 1049 H 93.0354 1.9702 -3.17898 0
M  V30 1050 H 95.3274 4.55739 -5.01307 0
M  V30 1051 H 96.2704 3.52959 -6.13861 0
M  V30 1052 H 96.6784 3.53996 -4.39712 0
M  V30 1053 N 96.0765 1.50051 0.48192 0
M  V30 1054 C 97.0235 1.68122 1.58125 0
M  V30 1055 C 97.9935 0.522545 1.57666 0
M  V30 1056 O 99.1785 0.751844 1.75362 0
M  V30 1057 C 96.3185 1.77142 2.96167 0
M  V30 1058 C 95.4315 3.0444 3.06497 0
M  V30 1059 C 94.5665 3.04321 4.35387 0
M  V30 1060 C 93.6055 4.26118 4.3942 0
M  V30 1061 N 92.7425 4.238 5.59766 0
M  V30 1062 H 97.5825 2.6198 1.42022 0
M  V30 1063 H 95.1195 1.29877 0.690687 0
M  V30 1064 H 97.0775 1.80352 3.76203 0
M  V30 1065 H 95.7075 0.867329 3.1093 0
M  V30 1066 H 94.7595 3.10752 2.19402 0
M  V30 1067 H 96.0715 3.94426 3.05336 0
M  V30 1068 H 95.2255 3.062 5.23762 0
M  V30 1069 H 93.9645 2.12147 4.39141 0
M  V30 1070 H 92.9695 4.24463 3.49444 0
M  V30 1071 H 94.1945 5.19507 4.37366 0
M  V30 1072 H 92.1405 3.34474 5.64326 0
M  V30 1073 H 92.0575 5.07542 5.60301 0
M  V30 1074 H 93.3255 4.2981 6.50295 0
M  V30 1075 N 97.5546 -0.734337 1.39446 0
M  V30 1076 C 98.5016 -1.84835 1.38219 0
M  V30 1077 C 99.4716 -1.64331 0.24179 0
M  V30 1078 O 100.657 -1.85728 0.437002 0
M  V30 1079 C 97.7966 -3.22355 1.23212 0
M  V30 1080 C 96.9096 -3.5456 2.46801 0
M  V30 1081 C 96.0446 -4.81485 2.24377 0
M  V30 1082 C 95.0836 -5.06536 3.43639 0
M  V30 1083 N 94.2206 -6.24665 3.20528 0
M  V30 1084 H 99.0606 -1.85219 2.33448 0
M  V30 1085 H 96.5976 -0.905039 1.15963 0
M  V30 1086 H 98.5556 -4.0174 1.12522 0
M  V30 1087 H 97.1856 -3.21248 0.316121 0
M  V30 1088 H 96.2376 -2.69872 2.68092 0
M  V30 1089 H 97.5496 -3.6899 3.3563 0
M  V30 1090 H 96.7036 -5.68852 2.10933 0
M  V30 1091 H 95.4426 -4.6923 1.32944 0
M  V30 1092 H 94.4476 -4.17632 3.5758 0
M  V30 1093 H 95.6726 -5.20676 4.35974 0
M  V30 1094 H 93.6186 -6.13696 2.3176 0
M  V30 1095 H 93.5356 -6.39685 4.02913 0
M  V30 1096 H 94.8036 -7.14868 3.10779 0
M  V30 1097 N 99.0327 -1.24633 -0.964593 0
M  V30 1098 C 99.9627 -1.06611 -2.07741 0
M  V30 1099 C 100.944 0.0218666 -1.70086 0
M  V30 1100 O 102.129 -0.145793 -1.93652 0
M  V30 1101 C 99.2587 -0.673444 -3.40708 0
M  V30 1102 C 98.2127 -1.71054 -3.92332 0
M  V30 1103 C 97.5387 -1.17285 -5.21678 0
M  V30 1104 C 98.8387 -3.10718 -4.19824 0
M  V30 1105 H 100.533 -1.99693 -2.23076 0
M  V30 1106 H 98.0787 -0.96152 -1.07195 0
M  V30 1107 H 100.032 -0.534345 -4.17998 0
M  V30 1108 H 98.7557 0.293073 -3.25282 0
M  V30 1109 H 97.4147 -1.83791 -3.17201 0
M  V30 1110 H 97.0627 -0.196847 -5.02615 0
M  V30 1111 H 96.7627 -1.86592 -5.57187 0
M  V30 1112 H 98.2867 -1.04593 -6.01575 0
M  V30 1113 H 99.7007 -3.01192 -4.87808 0
M  V30 1114 H 98.0977 -3.77406 -4.66567 0
M  V30 1115 H 99.1677 -3.58524 -3.26479 0
M  V30 1116 N 100.511 1.16574 -1.06058 0
M  V30 1117 C 101.459 2.22941 -0.663343 0
M  V30 1118 C 102.453 1.66358 0.319593 0
M  V30 1119 O 103.659 1.7905 0.184713 0
M  V30 1120 H 100.034 0.725907 -0.196376 0
M  V30 1121 H 102.005 2.53736 -1.57037 0
M  V30 1122 C 100.754 3.47642 -0.0632808 0
M  V30 1123 H 100.077 3.91493 -0.810733 0
M  V30 1124 H 101.517 4.2363 0.177177 0
M  V30 1125 C 99.9758 3.1509 1.19248 0
M  V30 1126 O 100.506 3.30673 2.28075 0
M  V30 1127 N 98.7118 2.6924 1.09353 0
M  V30 1128 H 98.2588 2.5676 0.207912 0
M  V30 1129 H 98.2168 2.47833 1.93458 0
M  V30 1130 N 101.989 0.842826 1.3317 0
M  V30 1131 C 102.939 0.250877 2.26616 0
M  V30 1132 C 103.923 -0.596427 1.49437 0
M  V30 1133 O 105.115 -0.447747 1.71243 0
M  V30 1134 C 102.244 -0.569779 3.38539 0
M  V30 1135 C 101.33 0.289254 4.23112 0
M  V30 1136 N 101.721 1.36987 4.86897 0
M  V30 1137 C 100.019 0.0769631 4.45934 0
M  V30 1138 C 100.72 1.89737 5.49886 0
M  V30 1139 N 99.6959 1.19827 5.30229 0
M  V30 1140 H 103.498 1.07718 2.73448 0
M  V30 1141 H 101.012 0.687693 1.47121 0
M  V30 1142 H 103.009 -1.01018 4.04476 0
M  V30 1143 H 101.669 -1.39401 2.93253 0
M  V30 1144 H 102.68 1.75277 4.87338 0
M  V30 1145 H 99.3569 -0.713507 4.11358 0
M  V30 1146 H 100.747 2.80253 6.10662 0
M  V30 1147 N 103.467 -1.45747 0.599634 0
M  V30 1148 C 104.43 -2.28917 -0.113835 0
M  V30 1149 C 105.43 -1.3933 -0.802729 0
M  V30 1150 O 106.62 -1.61534 -0.652103 0
M  V30 1151 C 103.752 -3.20152 -1.17114 0
M  V30 1152 H 104.945 -2.93478 0.617289 0
M  V30 1153 H 102.498 -1.52137 0.358327 0
M  V30 1154 H 103.233 -2.60374 -1.93329 0
M  V30 1155 H 103.018 -3.86133 -0.681468 0
M  V30 1156 H 104.508 -3.82708 -1.67105 0
M  V30 1157 N 104.945 -0.338344 -1.53925 0
M  V30 1158 C 105.893 0.536231 -2.26335 0
M  V30 1159 C 106.887 1.1063 -1.28286 0
M  V30 1160 O 108.093 1.05264 -1.46012 0
M  V30 1161 H 104.468 0.191602 -0.727181 0
M  V30 1162 H 106.439 -0.0965747 -2.98244 0
M  V30 1163 C 105.188 1.67803 -3.04528 0
M  V30 1164 H 104.511 1.24864 -3.79801 0
M  V30 1165 H 105.951 2.26526 -3.58416 0
M  V30 1166 C 104.41 2.60439 -2.13712 0
M  V30 1167 O 104.94 3.6255 -1.72975 0
M  V30 1168 N 103.146 2.29006 -1.78898 0
M  V30 1169 H 102.693 1.46011 -2.12223 0
M  V30 1170 H 102.651 2.91248 -1.18416 0
M  V30 1171 N 106.423 1.57458 -0.0668435 0
M  V30 1172 C 107.669 1.93587 0.6043 0
M  V30 1173 C 108.002 0.946722 1.69561 0
M  V30 1174 O 107.277 -0.0248516 1.94484 0
M  V30 1175 C 107.56 3.40014 1.18585 0
M  V30 1176 C 107.413 4.49685 0.101529 0
M  V30 1177 C 108.732 3.87154 2.09284 0
M  V30 1178 H 105.851 0.703958 0.218202 0
M  V30 1179 H 108.493 1.89542 -0.131804 0
M  V30 1180 H 106.643 3.43592 1.81319 0
M  V30 1181 H 108.315 4.5823 -0.531279 0
M  V30 1182 H 106.558 4.30059 -0.568487 0
M  V30 1183 H 107.229 5.49266 0.54874 0
M  V30 1184 H 109.705 3.85551 1.56491 0
M  V30 1185 H 108.581 4.90231 2.46911 0
M  V30 1186 H 108.842 3.2481 2.99918 0
M  V30 1187 N 107.901 -0.206675 1.56239 0
M  V30 1188 C 109.147 -0.930218 1.80208 0
M  V30 1189 C 109.48 -1.83387 0.638981 0
M  V30 1190 O 108.755 -1.91119 -0.361066 0
M  V30 1191 C 109.038 -1.75641 3.1436 0
M  V30 1192 C 108.891 -0.878257 4.41142 0
M  V30 1193 C 110.21 -2.73129 3.45092 0
M  V30 1194 H 107.329 -0.336742 0.655571 0
M  V30 1195 H 109.971 -0.198222 1.88963 0
M  V30 1196 H 108.121 -2.38048 3.07027 0
M  V30 1197 H 109.793 -0.269787 4.6051 0
M  V30 1198 H 108.036 -0.184385 4.33408 0
M  V30 1199 H 108.707 -1.49106 5.3148 0
M  V30 1200 H 111.183 -2.20856 3.52649 0
M  V30 1201 H 110.059 -3.28028 4.40101 0
M  V30 1202 H 110.32 -3.51606 2.68003 0
M  V30 1203 N 109.379 -1.50304 -0.473955 0
M  V30 1204 C 110.326 -1.68959 -1.57231 0
M  V30 1205 C 111.296 -0.530899 -1.57387 0
M  V30 1206 O 112.481 -0.761133 -1.74961 0
M  V30 1207 C 109.621 -1.7871 -2.95223 0
M  V30 1208 C 108.734 -3.06061 -3.04878 0
M  V30 1209 C 107.869 -3.06626 -4.33767 0
M  V30 1210 C 106.908 -4.28443 -4.37154 0
M  V30 1211 N 106.045 -4.26763 -5.5751 0
M  V30 1212 H 110.885 -2.6273 -1.40631 0
M  V30 1213 H 108.422 -1.30241 -0.683789 0
M  V30 1214 H 110.38 -1.82344 -3.75242 0
M  V30 1215 H 109.01 -0.883806 -3.10465 0
M  V30 1216 H 108.062 -3.11911 -2.17751 0
M  V30 1217 H 109.374 -3.96039 -3.0324 0
M  V30 1218 H 108.528 -3.08973 -5.22131 0
M  V30 1219 H 107.267 -2.14473 -4.3801 0
M  V30 1220 H 106.272 -4.2631 -3.47188 0
M  V30 1221 H 107.497 -5.2182 -4.34605 0
M  V30 1222 H 105.443 -3.37462 -5.62544 0
M  V30 1223 H 105.36 -5.10507 -5.57601 0
M  V30 1224 H 106.628 -4.33253 -6.48006 0
M  V30 1225 N 110.857 0.726932 -1.39834 0
M  V30 1226 C 111.82 1.82269 -1.38962 0
M  V30 1227 C 112.82 1.58248 -0.285334 0
M  V30 1228 O 114.01 1.65499 -0.54366 0
M  V30 1229 C 111.142 3.20186 -1.17019 0
M  V30 1230 H 112.335 1.84443 -2.36476 0
M  V30 1231 H 109.888 0.931416 -1.25516 0
M  V30 1232 H 110.623 3.23669 -0.202204 0
M  V30 1233 H 110.408 3.3902 -1.96998 0
M  V30 1234 H 111.898 4.00235 -1.1917 0
M  V30 1235 N 112.336 1.25143 0.95797 0
M  V30 1236 C 113.576 1.10893 1.71703 0
M  V30 1237 C 113.94 -0.34478 1.88879 0
M  V30 1238 O 115.141 -0.609014 2.6181 0
M  V30 1239 C 113.412 1.83889 3.06463 0
M  V30 1240 S 114.971 1.85491 3.97666 0
M  V30 1241 H 111.789 0.396428 0.590226 0
M  V30 1242 H 114.391 1.58618 1.14283 0
M  V30 1243 H 113.095 2.88756 2.9163 0
M  V30 1244 H 112.626 1.36538 3.68946 0
M  V30 1245 H 114.641 0.929553 4.87415 0
M  V30 1246 N 113.814 -1.1601 1.06675 0
M  V30 1247 C 115.091 -1.82679 0.699114 0
M  V30 1248 C 115.471 -1.94559 -0.819137 0
M  V30 1249 O 114.819 -1.49169 -1.73092 0
M  V30 1250 C 115.029 -3.19445 1.40555 0
M  V30 1251 C 116.377 -3.95171 1.55323 0
M  V30 1252 O 117.401 -3.28976 1.36577 0
M  V30 1253 O 116.26 -5.13833 1.86112 0
M  V30 1254 H 113.354 -0.788954 0.247951 0
M  V30 1255 H 115.9 -1.23179 1.16726 0
M  V30 1256 H 114.672 -3.05856 2.44065 0
M  V30 1257 H 114.295 -3.86625 0.927733 0
M  V30 1258 N 115.292 -0.849877 -1.32721 0
M  V30 1259 C 116.538 -0.451591 -1.97708 0
M  V30 1260 C 116.871 0.989175 -1.6712 0
M  V30 1261 O 116.146 1.69334 -0.956891 0
M  V30 1262 C 116.429 -0.685598 -3.53513 0
M  V30 1263 C 116.282 -2.17444 -3.93749 0
M  V30 1264 C 117.601 -0.138874 -4.39881 0
M  V30 1265 H 114.72 -0.16555 -0.718166 0
M  V30 1266 H 117.362 -1.06742 -1.57182 0
M  V30 1267 H 115.512 -0.161416 -3.88165 0
M  V30 1268 H 117.184 -2.76433 -3.693 0
M  V30 1269 H 115.427 -2.65476 -3.43081 0
M  V30 1270 H 116.098 -2.28888 -5.02309 0
M  V30 1271 H 118.574 -0.587068 -4.11938 0
M  V30 1272 H 117.45 -0.332213 -5.47894 0
M  V30 1273 H 117.711 0.95806 -4.31594 0
M  V30 1274 N 116.77 1.45427 -0.607355 0
M  V30 1275 C 118.181 1.85756 -0.187535 0
M  V30 1276 C 118.532 1.5077 1.25551 0
M  V30 1277 O 117.657 0.93427 1.95193 0
M  V30 1278 C 118.252 3.37154 -0.333572 0
M  V30 1279 C 116.811 3.76387 0.0315542 0
M  V30 1280 C 115.958 2.69377 -0.658117 0
M  V30 1281 H 118.909 1.36231 -0.81405 0
M  V30 1282 H 118.93 3.78014 0.43428 0
M  V30 1283 H 118.442 3.62586 -1.38393 0
M  V30 1284 H 116.543 3.56571 1.0811 0
M  V30 1285 H 116.656 4.77731 -0.361935 0
M  V30 1286 H 115.02 2.5452 -0.0957873 0
M  V30 1287 H 115.803 2.97646 -1.7106 0
M  V30 1288 N 118.248 0.346503 1.53744 0
M  V30 1289 C 119.158 -0.517293 2.28826 0
M  V30 1290 C 120.174 -1.10935 1.3405 0
M  V30 1291 O 121.35 -1.1244 1.6709 0
M  V30 1292 C 118.415 -1.65098 3.04866 0
M  V30 1293 C 117.476 -1.0884 4.15274 0
M  V30 1294 C 116.709 -2.16806 4.87679 0
M  V30 1295 O 116.932 -3.3758 4.59778 0
M  V30 1296 O 115.866 -1.80934 5.74061 0
M  V30 1297 H 119.692 0.0931396 3.03557 0
M  V30 1298 H 117.277 0.111458 1.48984 0
M  V30 1299 H 119.159 -2.31053 3.5241 0
M  V30 1300 H 117.834 -2.24717 2.32989 0
M  V30 1301 H 116.741 -0.3933 3.72027 0
M  V30 1302 H 118.074 -0.537036 4.89261 0
M  V30 1303 N 119.726 -1.57421 0.075193 0
M  V30 1304 C 120.636 -2.1642 -0.905511 0
M  V30 1305 C 121.652 -1.12828 -1.32461 0
M  V30 1306 O 122.828 -1.45109 -1.39661 0
M  V30 1307 C 119.893 -2.71693 -2.15369 0
M  V30 1308 C 118.954 -3.90171 -1.79068 0
M  V30 1309 C 118.187 -4.42798 -2.97936 0
M  V30 1310 O 118.41 -3.94416 -4.12058 0
M  V30 1311 O 117.344 -5.34085 -2.77555 0
M  V30 1312 H 121.17 -3.00588 -0.433626 0
M  V30 1313 H 118.755 -1.48664 -0.148067 0
M  V30 1314 H 120.637 -3.07104 -2.88557 0
M  V30 1315 H 119.312 -1.90582 -2.61649 0
M  V30 1316 H 118.219 -3.59606 -1.03122 0
M  V30 1317 H 119.552 -4.72584 -1.37569 0
M  V30 1318 N 121.204 0.198386 -1.56346 0
M  V30 1319 C 122.134 1.24865 -1.9731 0
M  V30 1320 C 123.115 1.47651 -0.844576 0
M  V30 1321 O 124.3 1.59444 -1.10866 0
M  V30 1322 C 121.43 2.59358 -2.30977 0
M  V30 1323 C 120.384 2.5119 -3.46537 0
M  V30 1324 C 119.71 3.89926 -3.65871 0
M  V30 1325 C 121.01 2.03977 -4.80823 0
M  V30 1326 H 122.704 0.908252 -2.85291 0
M  V30 1327 H 120.25 0.435462 -1.37258 0
M  V30 1328 H 122.203 3.33011 -2.58228 0
M  V30 1329 H 120.927 2.95132 -1.39874 0
M  V30 1330 H 119.586 1.79993 -3.19371 0
M  V30 1331 H 119.234 4.23046 -2.72105 0
M  V30 1332 H 118.934 3.85336 -4.4361 0
M  V30 1333 H 120.458 4.65205 -3.95495 0
M  V30 1334 H 121.872 2.67386 -5.07127 0
M  V30 1335 H 120.269 2.10397 -5.62008 0
M  V30 1336 H 121.339 0.992861 -4.74626 0
M  V30 1337 N 122.682 1.50554 0.465978 0
M  V30 1338 C 123.63 1.70324 1.58406 0
M  V30 1339 C 124.624 0.569139 1.59553 0
M  V30 1340 O 125.83 0.749776 1.63641 0
M  V30 1341 H 122.205 0.537688 0.525734 0
M  V30 1342 H 124.176 2.64104 1.38894 0
M  V30 1343 C 122.925 1.81928 2.96307 0
M  V30 1344 H 122.248 2.68586 2.96144 0
M  V30 1345 H 123.688 1.99784 3.73982 0
M  V30 1346 C 122.147 0.572095 3.32007 0
M  V30 1347 O 122.677 -0.286416 4.00678 0
M  V30 1348 N 120.883 0.424606 2.87481 0
M  V30 1349 H 120.43 1.12427 2.31771 0
M  V30 1350 H 120.388 -0.408697 3.11732 0
M  V30 1351 N 124.16 -0.719506 1.40217 0
M  V30 1352 C 125.409 -1.47486 1.37589 0
M  V30 1353 C 125.722 -1.9559 -0.0201568 0
M  V30 1354 O 126.928 -2.70973 -0.169049 0
M  V30 1355 C 125.384 -2.66575 2.41796 0
M  V30 1356 C 124.992 -2.25358 3.87192 0
M  V30 1357 C 126.736 -3.4433 2.48269 0
M  V30 1358 C 124.643 -3.41262 4.83005 0
M  V30 1359 H 123.573 -0.553901 0.511576 0
M  V30 1360 H 126.224 -0.783427 1.65936 0
M  V30 1361 H 124.606 -3.3787 2.06543 0
M  V30 1362 H 125.78 -1.61509 4.31569 0
M  V30 1363 H 124.095 -1.60657 3.84159 0
M  V30 1364 H 126.692 -4.30569 3.17041 0
M  V30 1365 H 127.035 -3.87872 1.51198 0
M  V30 1366 H 127.568 -2.80076 2.82493 0
M  V30 1367 H 124.307 -3.02755 5.81394 0
M  V30 1368 H 123.827 -4.0404 4.43297 0
M  V30 1369 H 125.506 -4.07383 5.02641 0
M  V30 1370 N 125.638 -1.25649 -0.95132 0
M  V30 1371 C 126.568 -1.08808 -2.06599 0
M  V30 1372 C 127.549 0.00382547 -1.701 0
M  V30 1373 O 128.734 -0.166325 -1.93486 0
M  V30 1374 C 125.864 -0.709542 -3.39975 0
M  V30 1375 C 124.818 -1.75206 -3.90496 0
M  V30 1376 C 124.144 -1.22811 -5.20405 0
M  V30 1377 C 125.444 -3.15153 -4.16504 0
M  V30 1378 H 127.138 -2.02048 -2.20946 0
M  V30 1379 H 124.684 -0.972835 -1.06169 0
M  V30 1380 H 126.637 -0.578649 -4.17408 0
M  V30 1381 H 125.361 0.258556 -3.25575 0
M  V30 1382 H 124.02 -1.87145 -3.15234 0
M  V30 1383 H 123.668 -0.250145 -5.02378 0
M  V30 1384 H 123.368 -1.92492 -5.55176 0
M  V30 1385 H 124.892 -1.10968 -6.00432 0
M  V30 1386 H 126.306 -3.06349 -4.84586 0
M  V30 1387 H 124.703 -3.82333 -4.62538 0
M  V30 1388 H 125.773 -3.61966 -3.22658 0
M  V30 1389 N 127.117 1.15442 -1.07289 0
M  V30 1390 C 128.366 1.85557 -0.790669 0
M  V30 1391 C 128.679 1.83186 0.685739 0
M  V30 1392 O 129.885 2.48977 1.0827 0
M  V30 1393 C 128.341 3.33038 -1.36433 0
M  V30 1394 C 127.949 3.43856 -2.8717 0
M  V30 1395 C 129.693 4.0834 -1.1601 0
M  V30 1396 C 127.6 4.85482 -3.3773 0
M  V30 1397 H 126.53 0.695122 -0.292098 0
M  V30 1398 H 129.181 1.30219 -1.29287 0
M  V30 1399 H 127.563 3.88043 -0.789864 0
M  V30 1400 H 128.737 2.98961 -3.50655 0
M  V30 1401 H 127.052 2.81998 -3.06376 0
M  V30 1402 H 129.649 5.12859 -1.51262 0
M  V30 1403 H 129.992 4.16182 -0.0991007 0
M  V30 1404 H 130.525 3.59603 -1.70089 0
M  V30 1405 H 127.264 4.82823 -4.43353 0
M  V30 1406 H 126.784 5.30961 -2.78999 0
M  V30 1407 H 128.463 5.54335 -3.33648 0
M  V30 1408 N 128.595 0.856903 1.32268 0
M  V30 1409 C 129.545 0.274899 2.26337 0
M  V30 1410 C 130.529 -0.580543 1.50062 0
M  V30 1411 O 131.721 -0.429559 1.71708 0
M  V30 1412 C 128.85 -0.533841 3.39124 0
M  V30 1413 C 127.936 0.334114 4.22782 0
M  V30 1414 N 128.327 1.42143 4.85416 0
M  V30 1415 C 126.625 0.124256 4.45827 0
M  V30 1416 C 127.326 1.95559 5.47843 0
M  V30 1417 N 126.302 1.25444 5.28928 0
M  V30 1418 H 130.104 1.10612 2.72291 0
M  V30 1419 H 127.618 0.703258 1.46383 0
M  V30 1420 H 129.615 -0.96722 4.05525 0
M  V30 1421 H 128.275 -1.36283 2.94715 0
M  V30 1422 H 129.286 1.80436 4.85451 0
M  V30 1423 H 125.963 -0.669837 4.12092 0
M  V30 1424 H 127.353 2.86714 6.07655 0
M  V30 1425 N 130.073 -1.45103 0.615059 0
M  V30 1426 C 131.35 -1.95549 0.0448276 0
M  V30 1427 C 131.73 -1.55737 -1.4251 0
M  V30 1428 O 131.078 -0.823556 -2.13143 0
M  V30 1429 C 131.288 -3.48098 0.250785 0
M  V30 1430 C 132.636 -4.24384 0.135509 0
M  V30 1431 O 133.66 -3.55738 0.181299 0
M  V30 1432 O 132.519 -5.46493 0.0268878 0
M  V30 1433 H 129.613 -0.8264 -0.0314845 0
M  V30 1434 H 132.159 -1.55232 0.685642 0
M  V30 1435 H 130.931 -3.7007 1.27139 0
M  V30 1436 H 130.554 -3.95323 -0.424937 0
M  V30 1437 N 131.551 -0.354651 -1.53558 0
M  V30 1438 C 132.797 0.238797 -2.01389 0
M  V30 1439 C 133.13 1.49309 -1.2418 0
M  V30 1440 O 132.405 1.91638 -0.332457 0
M  V30 1441 C 132.688 0.541771 -3.56001 0
M  V30 1442 C 132.541 -0.725388 -4.43912 0
M  V30 1443 C 133.86 1.34685 -4.18984 0
M  V30 1444 H 130.979 0.0853177 -0.732045 0
M  V30 1445 H 133.621 -0.477384 -1.83905 0
M  V30 1446 H 131.771 1.15189 -3.71031 0
M  V30 1447 H 133.443 -1.36313 -4.407 0
M  V30 1448 H 131.686 -1.34801 -4.12324 0
M  V30 1449 H 132.357 -0.468505 -5.50008 0
M  V30 1450 H 134.833 0.830837 -4.07721 0
M  V30 1451 H 133.709 1.52759 -5.27215 0
M  V30 1452 H 133.97 2.35221 -3.74331 0
M  V30 1453 N 133.029 1.57378 -0.0835403 0
M  V30 1454 C 134.44 1.81261 0.447358 0
M  V30 1455 C 134.791 0.998331 1.68902 0
M  V30 1456 O 133.916 0.224282 2.15235 0
M  V30 1457 C 134.511 3.28767 0.818386 0
M  V30 1458 C 133.07 3.53455 1.29409 0
M  V30 1459 C 132.217 2.75831 0.285024 0
M  V30 1460 H 135.168 1.5566 -0.309115 0
M  V30 1461 H 135.189 3.41459 1.67887 0
M  V30 1462 H 134.701 3.88006 -0.0855019 0
M  V30 1463 H 132.802 2.99534 2.21608 0
M  V30 1464 H 132.915 4.62128 1.2639 0
M  V30 1465 H 131.279 2.42947 0.764767 0
M  V30 1466 H 132.062 3.37813 -0.611341 0
M  V30 1467 N 134.507 -0.190092 1.56449 0
M  V30 1468 C 135.437 -1.23816 1.97969 0
M  V30 1469 C 136.418 -1.47201 0.852395 0
M  V30 1470 O 137.603 -1.58854 1.1171 0
M  V30 1471 C 134.733 -2.5813 2.3235 0
M  V30 1472 C 133.687 -2.49348 3.47864 0
M  V30 1473 C 133.013 -3.8798 3.67934 0
M  V30 1474 C 134.313 -2.01424 4.81898 0
M  V30 1475 H 136.007 -0.89311 2.85769 0
M  V30 1476 H 133.553 -0.428177 1.37487 0
M  V30 1477 H 135.506 -3.31637 2.59991 0
M  V30 1478 H 134.23 -2.94386 1.41438 0
M  V30 1479 H 132.889 -1.78297 3.20321 0
M  V30 1480 H 132.537 -4.21597 2.74344 0
M  V30 1481 H 132.237 -3.82978 4.45648 0
M  V30 1482 H 133.761 -4.63101 3.97957 0
M  V30 1483 H 135.175 -2.64693 5.08538 0
M  V30 1484 H 133.572 -2.07413 5.63116 0
M  V30 1485 H 134.642 -0.967677 4.75146 0
M  V30 1486 N 135.985 -1.50799 -0.457987 0
M  V30 1487 C 136.915 -1.73553 -1.5621 0
M  V30 1488 C 137.896 -0.584774 -1.59732 0
M  V30 1489 O 139.081 -0.825314 -1.7579 0
M  V30 1490 C 136.211 -1.84169 -2.94447 0
M  V30 1491 C 135.165 -2.99461 -3.0579 0
M  V30 1492 C 134.491 -2.95235 -4.45803 0
M  V30 1493 C 135.791 -4.39766 -2.81786 0
M  V30 1494 H 137.485 -2.66 -1.37421 0
M  V30 1495 H 135.031 -1.28002 -0.659662 0
M  V30 1496 H 136.984 -1.98672 -3.71628 0
M  V30 1497 H 135.708 -0.883545 -3.14422 0
M  V30 1498 H 134.367 -2.8463 -2.31044 0
M  V30 1499 H 134.015 -1.97239 -4.62715 0
M  V30 1500 H 133.715 -3.72642 -4.54326 0
M  V30 1501 H 135.239 -3.11803 -5.24987 0
M  V30 1502 H 136.653 -4.55054 -3.4871 0
M  V30 1503 H 135.05 -5.18722 -3.0174 0
M  V30 1504 H 136.12 -4.51229 -1.7754 0
M  V30 1505 N 137.463 0.71206 -1.40597 0
M  V30 1506 C 138.426 1.80785 -1.40888 0
M  V30 1507 C 139.426 1.57937 -0.302103 0
M  V30 1508 O 140.616 1.64913 -0.561182 0
M  V30 1509 C 137.748 3.18927 -1.20409 0
M  V30 1510 H 138.941 1.81924 -2.38419 0
M  V30 1511 H 136.494 0.91805 -1.26497 0
M  V30 1512 H 137.229 3.23436 -0.236522 0
M  V30 1513 H 137.014 3.36911 -2.00582 0
M  V30 1514 H 138.504 3.98949 -1.23408 0
M  V30 1515 N 138.941 1.26152 0.944643 0
M  V30 1516 C 139.874 1.01729 2.04271 0
M  V30 1517 C 140.852 -0.0568101 1.62501 0
M  V30 1518 O 142.036 0.0848987 1.88309 0
M  V30 1519 C 139.163 0.539792 3.34371 0
M  V30 1520 C 138.209 1.60593 3.9511 0
M  V30 1521 S 139.042 3.19392 4.29825 0
M  V30 1522 C 140.198 2.73402 5.63029 0
M  V30 1523 H 140.431 1.94703 2.24673 0
M  V30 1524 H 137.964 1.09793 1.08558 0
M  V30 1525 H 139.922 0.270956 4.09605 0
M  V30 1526 H 138.583 -0.369609 3.11918 0
M  V30 1527 H 137.776 1.22275 4.88943 0
M  V30 1528 H 137.378 1.82596 3.26397 0
M  V30 1529 H 139.67 2.1765 6.41588 0
M  V30 1530 H 140.613 3.65913 6.06229 0
M  V30 1531 H 141.021 2.13077 5.22741 0
M  V30 1532 N 140.419 -1.14872 1.07899 0
M  V30 1533 C 141.329 -2.2341 0.715915 0
M  V30 1534 C 142.345 -1.71808 -0.275306 0
M  V30 1535 O 143.521 -2.01039 -0.120545 0
M  V30 1536 C 140.586 -3.46474 0.125168 0
M  V30 1537 C 139.647 -4.13039 1.17034 0
M  V30 1538 C 138.88 -5.30229 0.607688 0
M  V30 1539 O 139.103 -5.675 -0.574497 0
M  V30 1540 O 138.037 -5.86444 1.35526 0
M  V30 1541 H 141.863 -2.56808 1.62121 0
M  V30 1542 H 139.448 -1.22702 0.852322 0
M  V30 1543 H 141.33 -4.20917 -0.201729 0
M  V30 1544 H 140.005 -3.14811 -0.753364 0
M  V30 1545 H 138.912 -3.40493 1.54968 0
M  V30 1546 H 140.245 -4.48796 2.02097 0
M  V30 1547 N 141.898 -0.863906 -1.31812 0
M  V30 1548 C 143.128 -0.485406 -2.00817 0
M  V30 1549 C 143.536 0.925007 -1.65046 0
M  V30 1550 O 142.879 1.61653 -0.872574 0
M  V30 1551 C 142.941 -0.555589 -3.55181 0
M  V30 1552 C 142.605 -1.92654 -4.14407 0
M  V30 1553 C 143.602 -2.89324 -4.31958 0
M  V30 1554 C 141.287 -2.2262 -4.50273 0
M  V30 1555 C 143.281 -4.14108 -4.84555 0
M  V30 1556 C 140.968 -3.47654 -5.02573 0
M  V30 1557 C 141.966 -4.43214 -5.19664 0
M  V30 1558 O 141.654 -5.66033 -5.70843 0
M  V30 1559 H 141.386 -0.188224 -0.649267 0
M  V30 1560 H 143.94 -1.16514 -1.69156 0
M  V30 1561 H 142.17 0.181037 -3.86276 0
M  V30 1562 H 143.859 -0.19138 -4.05449 0
M  V30 1563 H 144.625 -2.6748 -4.04573 0
M  V30 1564 H 140.504 -1.4902 -4.3625 0
M  V30 1565 H 144.048 -4.88703 -4.9781 0
M  V30 1566 H 139.945 -3.69345 -5.29391 0
M  V30 1567 H 140.713 -5.6812 -5.89222 0
M  V30 1568 N 143.376 1.44774 -0.622745 0
M  V30 1569 C 144.616 2.04004 -0.127102 0
M  V30 1570 C 144.98 1.47862 1.22478 0
M  V30 1571 O 146.181 1.98541 1.81204 0
M  V30 1572 C 144.452 3.57247 -0.104429 0
M  V30 1573 S 146.011 4.37574 0.327814 0
M  V30 1574 H 142.829 0.708713 -0.0569776 0
M  V30 1575 H 145.431 1.77275 -0.824253 0
M  V30 1576 H 144.135 3.95616 -1.09159 0
M  V30 1577 H 143.666 3.88575 0.614236 0
M  V30 1578 H 145.681 4.70575 1.57395 0
M  V30 1579 N 144.854 0.36279 1.53368 0
M  V30 1580 C 146.079 -0.231226 2.06107 0
M  V30 1581 C 146.504 -1.419 1.23474 0
M  V30 1582 O 145.862 -1.79524 0.253128 0
M  V30 1583 C 145.91 -0.605523 3.5548 0
M  V30 1584 O 145.014 -1.70312 3.7559 0
M  V30 1585 H 144.355 -0.034327 0.663112 0
M  V30 1586 H 146.885 0.522584 1.97814 0
M  V30 1587 H 146.895 -0.877314 3.98456 0
M  V30 1588 H 145.57 0.263004 4.15068 0
M  V30 1589 H 144.147 -1.4271 3.44512 0
M  V30 1590 N 146.332 -1.57332 0.0918853 0
M  V30 1591 C 147.58 -1.93853 -0.571446 0
M  V30 1592 C 147.901 -0.974212 -1.6892 0
M  V30 1593 O 147.171 -0.0257254 -1.95883 0
M  V30 1594 H 145.751 -0.715666 -0.214082 0
M  V30 1595 H 148.413 -1.94287 0.154464 0
M  V30 1596 H 147.509 -2.96191 -0.983729 0
M  V30 1597 N 147.81 0.181792 -1.56548 0
M  V30 1598 C 149.058 0.89832 -1.81038 0
M  V30 1599 C 149.379 1.83232 -0.667164 0
M  V30 1600 O 148.649 1.93372 0.313673 0
M  V30 1601 H 147.229 0.33471 -0.667816 0
M  V30 1602 H 149.891 0.184116 -1.94028 0
M  V30 1603 H 148.987 1.4815 -2.74696 0
M  V30 1604 N 149.288 1.51039 0.449983 0
M  V30 1605 C 150.565 1.53612 1.21089 0
M  V30 1606 C 150.945 0.292997 2.09057 0
M  V30 1607 O 150.293 -0.72259 2.16774 0
M  V30 1608 C 150.503 2.84337 2.0237 0
M  V30 1609 C 151.851 3.35807 2.59843 0
M  V30 1610 O 152.875 2.85802 2.12593 0
M  V30 1611 O 151.734 4.23029 3.45989 0
M  V30 1612 H 148.828 0.617057 0.550608 0
M  V30 1613 H 151.374 1.63344 0.460082 0
M  V30 1614 H 150.146 3.66278 1.37681 0
M  V30 1615 H 149.769 2.77708 2.84542 0
M  V30 1616 N 150.766 -0.704594 1.40972 0
M  V30 1617 C 151.696 -1.83124 1.44872 0
M  V30 1618 C 152.677 -1.67281 0.30838 0
M  V30 1619 O 153.862 -1.87149 0.518556 0
M  V30 1620 C 150.992 -3.21181 1.32136 0
M  V30 1621 C 149.946 -3.51714 2.43888 0
M  V30 1622 C 149.272 -4.89032 2.16222 0
M  V30 1623 C 150.572 -3.516 3.86232 0
M  V30 1624 H 152.266 -1.80117 2.39161 0
M  V30 1625 H 149.812 -0.865145 1.15114 0
M  V30 1626 H 151.765 -3.99702 1.33479 0
M  V30 1627 H 150.489 -3.24791 0.343279 0
M  V30 1628 H 149.148 -2.75539 2.41813 0
M  V30 1629 H 148.796 -4.89256 1.16778 0
M  V30 1630 H 148.496 -5.10426 2.911 0
M  V30 1631 H 150.02 -5.69873 2.19265 0
M  V30 1632 H 151.434 -4.2014 3.9007 0
M  V30 1633 H 149.831 -3.84523 4.60719 0
M  V30 1634 H 150.901 -2.50757 4.15029 0
M  V30 1635 N 152.244 -1.26651 -0.937939 0
M  V30 1636 C 153.66 -1.03834 -1.21205 0
M  V30 1637 C 153.86 0.234502 -2.00131 0
M  V30 1638 O 152.916 0.942767 -2.3424 0
M  V30 1639 C 154.229 -2.27167 -1.97017 0
M  V30 1640 C 155.777 -2.32101 -2.09996 0
M  V30 1641 C 156.252 -3.55136 -2.8921 0
M  V30 1642 N 157.743 -3.55632 -2.96783 0
M  V30 1643 C 158.478 -4.475 -3.58512 0
M  V30 1644 N 157.974 -5.4966 -4.21717 0
M  V30 1645 N 159.767 -4.35145 -3.55816 0
M  V30 1646 H 151.918 -2.08398 -0.410391 0
M  V30 1647 H 154.181 -0.916031 -0.244114 0
M  V30 1648 H 153.887 -3.19765 -1.46434 0
M  V30 1649 H 153.761 -2.31672 -2.97671 0
M  V30 1650 H 156.148 -1.40015 -2.59769 0
M  V30 1651 H 156.229 -2.31605 -1.08594 0
M  V30 1652 H 155.873 -4.47553 -2.40123 0
M  V30 1653 H 155.803 -3.5288 -3.90875 0
M  V30 1654 H 158.294 -2.81743 -2.51852 0
M  V30 1655 H 158.607 -6.15943 -4.66727 0
M  V30 1656 H 156.952 -5.53514 -4.20294 0
M  V30 1657 H 160.143 -3.5455 -3.05634 0
M  V30 1658 H 160.316 -5.06934 -4.03636 0
M  V30 1659 N 153.722 1.14298 -1.08507 0
M  V30 1660 C 154.669 2.19414 -0.715965 0
M  V30 1661 C 155.639 1.63399 0.298326 0
M  V30 1662 O 156.824 1.89929 0.182101 0
M  V30 1663 C 153.964 3.44845 -0.132534 0
M  V30 1664 C 153.077 4.15007 -1.19973 0
M  V30 1665 C 152.212 5.28024 -0.580048 0
M  V30 1666 C 151.251 5.9002 -1.62921 0
M  V30 1667 N 150.388 6.94485 -1.03125 0
M  V30 1668 H 155.228 2.50336 -1.61666 0
M  V30 1669 H 152.765 1.2293 -0.807882 0
M  V30 1670 H 154.723 4.16601 0.223454 0
M  V30 1671 H 153.353 3.14403 0.731467 0
M  V30 1672 H 152.405 3.41629 -1.67313 0
M  V30 1673 H 153.717 4.57178 -1.99473 0
M  V30 1674 H 152.871 6.06455 -0.172364 0
M  V30 1675 H 151.61 4.87076 0.246603 0
M  V30 1676 H 150.615 5.10291 -2.04654 0
M  V30 1677 H 151.84 6.33042 -2.45835 0
M  V30 1678 H 149.786 6.55612 -0.225711 0
M  V30 1679 H 149.703 7.35148 -1.76334 0
M  V30 1680 H 150.971 7.7679 -0.649458 0
M  V30 1681 N 155.201 0.870884 1.31352 0
M  V30 1682 C 156.131 0.343096 2.30966 0
M  V30 1683 C 157.112 -0.566507 1.60389 0
M  V30 1684 O 158.297 -0.483336 1.88089 0
M  V30 1685 C 155.427 -0.455487 3.443 0
M  V30 1686 C 154.381 0.361103 4.26474 0
M  V30 1687 C 153.707 -0.563221 5.31725 0
M  V30 1688 C 155.007 1.59566 4.97329 0
M  V30 1689 H 156.701 1.17548 2.75359 0
M  V30 1690 H 154.247 0.566686 1.32381 0
M  V30 1691 H 156.2 -0.83525 4.13039 0
M  V30 1692 H 154.924 -1.32139 2.98675 0
M  V30 1693 H 153.583 0.722825 3.59403 0
M  V30 1694 H 153.231 -1.42643 4.82351 0
M  V30 1695 H 152.931 -0.0207409 5.87596 0
M  V30 1696 H 154.455 -0.939808 6.03324 0
M  V30 1697 H 155.869 1.28728 5.58661 0
M  V30 1698 H 154.266 2.07728 5.63 0
M  V30 1699 H 155.336 2.34798 4.24262 0
M  V30 1700 N 156.679 -1.44442 0.630414 0
M  V30 1701 C 157.609 -2.33418 -0.0618083 0
M  V30 1702 C 158.59 -1.48165 -0.835541 0
M  V30 1703 O 159.775 -1.76886 -0.801564 0
M  V30 1704 C 156.905 -3.31222 -1.04449 0
M  V30 1705 C 155.859 -4.26288 -0.382436 0
M  V30 1706 C 155.185 -5.13954 -1.47497 0
M  V30 1707 C 156.485 -5.1744 0.710865 0
M  V30 1708 H 158.179 -2.91548 0.681184 0
M  V30 1709 H 155.725 -1.40191 0.329026 0
M  V30 1710 H 157.678 -3.92351 -1.53748 0
M  V30 1711 H 156.402 -2.71299 -1.81836 0
M  V30 1712 H 155.061 -3.6649 0.0899054 0
M  V30 1713 H 154.709 -4.50385 -2.2397 0
M  V30 1714 H 154.409 -5.7837 -1.03737 0
M  V30 1715 H 155.933 -5.77955 -1.96979 0
M  V30 1716 H 157.347 -5.72509 0.300996 0
M  V30 1717 H 155.744 -5.90455 1.07156 0
M  V30 1718 H 156.814 -4.58496 1.57829 0
M  V30 1719 N 158.157 -0.370918 -1.53173 0
M  V30 1720 C 159.105 0.488101 -2.27421 0
M  V30 1721 C 160.099 1.07884 -1.30604 0
M  V30 1722 O 161.305 1.02143 -1.48212 0
M  V30 1723 H 157.68 0.176134 -0.731082 0
M  V30 1724 H 159.651 -0.159815 -2.97972 0
M  V30 1725 C 158.4 1.61306 -3.08019 0
M  V30 1726 H 157.723 1.1678 -3.82364 0
M  V30 1727 H 159.163 2.18872 -3.63141 0
M  V30 1728 C 157.622 2.55848 -2.19188 0
M  V30 1729 O 158.152 3.58799 -1.80626 0
M  V30 1730 N 156.358 2.2516 -1.83715 0
M  V30 1731 H 155.905 1.41476 -2.15273 0
M  V30 1732 H 155.863 2.8867 -1.24567 0
M  V30 1733 N 159.635 1.57281 -0.100228 0
M  V30 1734 C 160.582 2.14305 0.856858 0
M  V30 1735 C 161.552 1.06296 1.27634 0
M  V30 1736 O 162.737 1.34109 1.35718 0
M  V30 1737 C 159.877 2.73184 2.10866 0
M  V30 1738 C 158.99 3.95442 1.73925 0
M  V30 1739 C 158.125 4.42468 2.93931 0
M  V30 1740 C 157.164 5.57303 2.5314 0
M  V30 1741 N 156.301 5.99158 3.65997 0
M  V30 1742 H 161.141 2.95772 0.363726 0
M  V30 1743 H 158.678 1.46139 0.167858 0
M  V30 1744 H 160.636 3.05442 2.84185 0
M  V30 1745 H 159.266 1.94437 2.57671 0
M  V30 1746 H 158.318 3.69464 0.905554 0
M  V30 1747 H 159.63 4.78769 1.39935 0
M  V30 1748 H 158.784 4.76537 3.75496 0
M  V30 1749 H 157.523 3.58052 3.31134 0
M  V30 1750 H 156.528 5.22857 1.70003 0
M  V30 1751 H 157.753 6.43471 2.17075 0
M  V30 1752 H 155.699 5.17687 4.02909 0
M  V30 1753 H 155.616 6.77295 3.35869 0
M  V30 1754 H 156.884 6.3786 4.48057 0
M  V30 1755 N 161.113 -0.173488 1.56642 0
M  V30 1756 C 162.524 -0.736155 1.71574 0
M  V30 1757 C 162.875 -1.82888 0.710389 0
M  V30 1758 O 162 -2.16017 -0.1287 0
M  V30 1759 C 162.595 -1.34211 3.11083 0
M  V30 1760 C 161.154 -1.85162 3.27707 0
M  V30 1761 C 160.301 -0.729765 2.67525 0
M  V30 1762 H 163.252 0.0518786 1.58615 0
M  V30 1763 H 163.273 -2.21178 3.09613 0
M  V30 1764 H 162.785 -0.546579 3.84232 0
M  V30 1765 H 160.886 -2.67366 2.59512 0
M  V30 1766 H 160.999 -1.99855 4.35425 0
M  V30 1767 H 159.363 -1.14965 2.27278 0
M  V30 1768 H 160.146 0.0538806 3.43258 0
M  V30 1769 N 162.591 -1.51276 -0.441967 0
M  V30 1770 C 163.501 -1.75092 -1.56141 0
M  V30 1771 C 164.517 -0.634963 -1.62001 0
M  V30 1772 O 165.693 -0.916686 -1.79329 0
M  V30 1773 C 162.758 -1.86666 -2.92158 0
M  V30 1774 C 161.819 -3.10506 -2.96453 0
M  V30 1775 C 161.052 -3.21519 -4.25982 0
M  V30 1776 O 161.275 -2.38586 -5.18105 0
M  V30 1777 O 160.209 -4.14465 -4.36466 0
M  V30 1778 H 164.035 -2.70044 -1.38961 0
M  V30 1779 H 161.62 -1.35722 -0.624499 0
M  V30 1780 H 163.502 -1.96292 -3.72891 0
M  V30 1781 H 162.177 -0.949014 -3.09476 0
M  V30 1782 H 161.084 -3.06363 -2.14692 0
M  V30 1783 H 162.417 -4.01945 -2.84079 0
M  V30 1784 N 164.069 0.697108 -1.41344 0
M  V30 1785 C 165.017 1.83237 -1.43272 0
M  V30 1786 C 166.011 1.66522 -0.310947 0
M  V30 1787 O 167.217 1.73402 -0.482899 0
M  V30 1788 H 163.592 0.603802 -0.448249 0
M  V30 1789 H 165.563 1.78727 -2.38954 0
M  V30 1790 C 164.312 3.21245 -1.33029 0
M  V30 1791 H 163.635 3.34723 -2.18633 0
M  V30 1792 H 165.075 4.00763 -1.38439 0
M  V30 1793 C 163.534 3.36873 -0.0424635 0
M  V30 1794 O 164.064 3.91177 0.913421 0
M  V30 1795 N 162.27 2.90581 0.0331145 0
M  V30 1796 H 161.817 2.46577 -0.745506 0
M  V30 1797 H 161.775 3.01416 0.894199 0
M  V30 1798 N 165.547 1.27147 0.931209 0
M  V30 1799 C 166.787 1.14511 1.69312 0
M  V30 1800 C 167.151 -0.304638 1.89568 0
M  V30 1801 O 168.352 -0.553343 2.63043 0
M  V30 1802 C 166.623 1.90349 3.02493 0
M  V30 1803 S 168.182 1.93884 3.93642 0
M  V30 1804 H 165 0.408858 0.581684 0
M  V30 1805 H 167.602 1.61006 1.10893 0
M  V30 1806 H 166.306 2.94877 2.85439 0
M  V30 1807 H 165.837 1.44333 3.65966 0
M  V30 1808 H 167.852 1.03273 4.85334 0
M  V30 1809 N 167.025 -1.13721 1.09112 0
M  V30 1810 C 168.265 -1.86576 0.834801 0
M  V30 1811 C 168.629 -1.81435 -0.628122 0
M  V30 1812 O 169.83 -2.49497 -1.00024 0
M  V30 1813 C 168.101 -3.30872 1.35124 0
M  V30 1814 S 169.66 -4.21257 1.22832 0
M  V30 1815 H 166.478 -0.643666 0.302017 0
M  V30 1816 H 169.08 -1.37085 1.39385 0
M  V30 1817 H 167.784 -3.32166 2.41027 0
M  V30 1818 H 167.315 -3.85423 0.788185 0
M  V30 1819 H 169.33 -4.95884 0.177191 0
M  V30 1820 N 168.503 -0.877838 -1.30888 0
M  V30 1821 C 169.751 -0.491723 -1.96027 0
M  V30 1822 C 170.072 0.960827 -1.69685 0
M  V30 1823 O 169.342 1.67462 -1.01654 0
M  V30 1824 H 167.922 -0.17885 -0.725273 0
M  V30 1825 H 170.584 -1.11935 -1.59551 0
M  V30 1826 H 169.68 -0.656016 -3.05128 0
M  V30 1827 N 169.982 1.44106 -0.638065 0
M  V30 1828 C 170.912 2.33448 0.0494287 0
M  V30 1829 C 171.893 1.48606 0.827672 0
M  V30 1830 O 173.078 1.77308 0.792173 0
M  V30 1831 C 170.208 3.31771 1.02691 0
M  V30 1832 C 169.162 4.26485 0.359823 0
M  V30 1833 C 168.488 5.14729 1.44769 0
M  V30 1834 C 169.788 5.17056 -0.738296 0
M  V30 1835 H 171.482 2.91183 -0.696636 0
M  V30 1836 H 169.028 1.40014 -0.336456 0
M  V30 1837 H 170.981 3.93161 1.51666 0
M  V30 1838 H 169.705 2.7226 1.80395 0
M  V30 1839 H 168.364 3.66437 -0.10934 0
M  V30 1840 H 168.012 4.51566 2.21578 0
M  V30 1841 H 167.712 5.78913 1.00668 0
M  V30 1842 H 169.236 5.78991 1.93911 0
M  V30 1843 H 170.65 5.72342 -0.331354 0
M  V30 1844 H 169.047 5.89879 -1.10286 0
M  V30 1845 H 170.117 4.57652 -1.60258 0
M  V30 1846 N 171.46 0.379036 1.52974 0
M  V30 1847 C 172.407 -0.461048 2.26148 0
M  V30 1848 C 173.377 -1.06637 1.27349 0
M  V30 1849 O 174.562 -1.09633 1.56157 0
M  V30 1850 C 171.702 -1.58782 3.06402 0
M  V30 1851 C 170.815 -1.00636 4.20115 0
M  V30 1852 C 169.95 -2.10334 4.87784 0
M  V30 1853 C 168.989 -1.49724 5.93506 0
M  V30 1854 N 168.126 -2.5331 6.54812 0
M  V30 1855 H 172.966 0.169429 2.97518 0
M  V30 1856 H 170.503 0.0953806 1.4679 0
M  V30 1857 H 172.461 -2.25174 3.51215 0
M  V30 1858 H 171.091 -2.18876 2.37261 0
M  V30 1859 H 170.143 -0.232332 3.7969 0
M  V30 1860 H 171.455 -0.523343 4.96047 0
M  V30 1861 H 170.609 -2.84519 5.35849 0
M  V30 1862 H 169.348 -2.61992 4.11353 0
M  V30 1863 H 168.353 -0.740598 5.44789 0
M  V30 1864 H 169.578 -0.988732 6.71864 0
M  V30 1865 H 167.524 -3.04156 5.81227 0
M  V30 1866 H 167.441 -2.09734 7.26325 0
M  V30 1867 H 168.709 -3.27155 7.07524 0
M  V30 1868 N 172.938 -1.57226 0.108567 0
M  V30 1869 C 173.848 -2.18292 -0.859401 0
M  V30 1870 C 174.864 -1.15612 -1.30038 0
M  V30 1871 O 176.04 -1.48039 -1.36552 0
M  V30 1872 C 173.105 -2.762 -2.09558 0
M  V30 1873 C 172.166 -3.93881 -1.70752 0
M  V30 1874 C 171.399 -4.49018 -2.88477 0
M  V30 1875 O 171.622 -4.03068 -4.036 0
M  V30 1876 O 170.556 -5.39852 -2.66164 0
M  V30 1877 H 174.382 -3.01441 -0.369769 0
M  V30 1878 H 171.967 -1.48945 -0.1165 0
M  V30 1879 H 173.849 -3.13156 -2.81978 0
M  V30 1880 H 172.524 -1.96089 -2.57548 0
M  V30 1881 H 171.431 -3.61713 -0.954714 0
M  V30 1882 H 172.764 -4.75396 -1.27513 0
M  V30 1883 N 174.416 0.165178 -1.56732 0
M  V30 1884 C 175.641 0.900253 -1.86843 0
M  V30 1885 C 176.066 1.74766 -0.695596 0
M  V30 1886 O 175.424 1.77786 0.35522 0
M  V30 1887 C 175.472 1.74777 -3.15413 0
M  V30 1888 O 174.576 2.85007 -2.98068 0
M  V30 1889 H 173.917 0.251832 -0.614391 0
M  V30 1890 H 176.447 0.161468 -2.03962 0
M  V30 1891 H 176.457 2.14646 -3.46974 0
M  V30 1892 H 175.132 1.12537 -4.00385 0
M  V30 1893 H 173.709 2.48676 -2.77875 0
M  V30 1894 N 175.894 1.51508 0.433938 0
M  V30 1895 C 176.826 1.69266 1.54537 0
M  V30 1896 C 177.839 0.573276 1.52373 0
M  V30 1897 O 179.028 0.847698 1.57087 0
M  V30 1898 C 176.128 1.69524 2.93453 0
M  V30 1899 C 175.301 2.98101 3.20085 0
M  V30 1900 C 174.36 2.90502 4.38742 0
M  V30 1901 O 173.386 3.64442 4.3723 0
M  V30 1902 N 174.588 2.06586 5.42496 0
M  V30 1903 H 177.353 2.65145 1.39708 0
M  V30 1904 H 174.914 1.49437 0.622922 0
M  V30 1905 H 176.906 1.62004 3.70859 0
M  V30 1906 H 175.476 0.812245 3.01863 0
M  V30 1907 H 174.696 3.19464 2.30947 0
M  V30 1908 H 175.984 3.83207 3.34708 0
M  V30 1909 H 175.382 1.45896 5.46563 0
M  V30 1910 H 173.939 2.04943 6.18742 0
M  V30 1911 N 177.372 -0.689602 1.41712 0
M  V30 1912 C 178.621 -1.44534 1.40686 0
M  V30 1913 C 178.934 -1.95588 0.0213352 0
M  V30 1914 O 180.14 -2.71271 -0.111534 0
M  V30 1915 C 178.596 -2.61387 2.47396 0
M  V30 1916 C 178.204 -2.17094 3.91885 0
M  V30 1917 C 179.948 -3.38986 2.55517 0
M  V30 1918 C 177.855 -3.3094 4.90135 0
M  V30 1919 H 176.785 -0.542925 0.52321 0
M  V30 1920 H 179.436 -0.748054 1.6756 0
M  V30 1921 H 177.818 -3.33412 2.13664 0
M  V30 1922 H 178.992 -1.52318 4.34897 0
M  V30 1923 H 177.307 -1.52473 3.8748 0
M  V30 1924 H 179.904 -4.23747 3.26102 0
M  V30 1925 H 180.247 -3.84578 1.59391 0
M  V30 1926 H 180.78 -2.74021 2.8837 0
M  V30 1927 H 177.519 -2.90355 5.87685 0
M  V30 1928 H 177.039 -3.94546 4.51767 0
M  V30 1929 H 178.718 -3.9663 5.11169 0
M  V30 1930 N 178.85 -1.27639 -0.924453 0
M  V30 1931 C 179.78 -1.13166 -2.04244 0
M  V30 1932 C 180.761 -0.032256 -1.70069 0
M  V30 1933 O 181.946 -0.207328 -1.9309 0
M  V30 1934 C 179.076 -0.781496 -3.38393 0
M  V30 1935 C 178.03 -1.83449 -3.86692 0
M  V30 1936 C 177.356 -1.33822 -5.17683 0
M  V30 1937 C 178.656 -3.23917 -4.09726 0
M  V30 1938 H 180.35 -2.06689 -2.1661 0
M  V30 1939 H 177.896 -0.995136 -1.04082 0
M  V30 1940 H 179.849 -0.667057 -4.16087 0
M  V30 1941 H 178.573 0.189439 -3.2605 0
M  V30 1942 H 177.232 -1.93789 -3.11193 0
M  V30 1943 H 176.88 -0.35665 -5.01734 0
M  V30 1944 H 176.58 -2.04224 -5.50968 0
M  V30 1945 H 178.104 -1.23679 -5.97943 0
M  V30 1946 H 179.518 -3.16559 -4.77978 0
M  V30 1947 H 177.915 -3.92059 -4.54324 0
M  V30 1948 H 178.985 -3.68729 -3.14908 0
M  V30 1949 N 180.328 1.1314 -1.09713 0
M  V30 1950 C 181.553 1.88862 -0.857081 0
M  V30 1951 C 181.978 1.78729 0.586304 0
M  V30 1952 O 181.336 1.13692 1.41222 0
M  V30 1953 C 181.384 3.36325 -1.30069 0
M  V30 1954 O 180.488 4.09815 -0.461007 0
M  V30 1955 H 179.829 0.587108 -0.310162 0
M  V30 1956 H 182.359 1.43129 -1.46203 0
M  V30 1957 H 182.369 3.87157 -1.28738 0
M  V30 1958 H 181.044 3.43017 -2.35185 0
M  V30 1959 H 179.621 3.68986 -0.538888 0
M  V30 1960 N 181.806 0.884767 1.30421 0
M  V30 1961 C 182.736 0.367574 2.30589 0
M  V30 1962 C 183.717 -0.549464 1.60981 0
M  V30 1963 O 184.902 -0.46336 1.88591 0
M  V30 1964 C 182.032 -0.418944 3.44764 0
M  V30 1965 C 180.986 0.406316 4.26067 0
M  V30 1966 C 180.312 -0.506793 5.32293 0
M  V30 1967 C 181.612 1.64832 4.95608 0
M  V30 1968 H 183.306 1.20462 2.74097 0
M  V30 1969 H 180.852 0.580695 1.31772 0
M  V30 1970 H 182.805 -0.791395 4.13902 0
M  V30 1971 H 181.529 -1.28964 3.0006 0
M  V30 1972 H 180.188 0.760903 3.58617 0
M  V30 1973 H 179.836 -1.37519 4.83836 0
M  V30 1974 H 179.536 0.0415828 5.87585 0
M  V30 1975 H 181.06 -0.875764 6.04287 0
M  V30 1976 H 182.474 1.34646 5.57264 0
M  V30 1977 H 180.871 2.13688 5.60765 0
M  V30 1978 H 181.941 2.39284 4.21748 0
M  V30 1979 N 183.284 -1.43765 0.645699 0
M  V30 1980 C 184.214 -2.33471 -0.0370477 0
M  V30 1981 C 185.195 -1.49042 -0.819779 0
M  V30 1982 O 186.38 -1.77726 -0.782758 0
M  V30 1983 C 183.51 -3.32311 -1.0093 0
M  V30 1984 C 182.464 -4.2667 -0.337201 0
M  V30 1985 C 181.79 -5.1549 -1.42037 0
M  V30 1986 C 183.09 -5.16657 0.765706 0
M  V30 1987 H 184.784 -2.90809 0.712069 0
M  V30 1988 H 182.33 -1.39834 0.343876 0
M  V30 1989 H 184.283 -3.9396 -1.49578 0
M  V30 1990 H 183.007 -2.73213 -1.78948 0
M  V30 1991 H 181.666 -3.66374 0.128771 0
M  V30 1992 H 181.314 -4.52735 -2.1918 0
M  V30 1993 H 181.014 -5.79438 -0.975966 0
M  V30 1994 H 182.538 -5.80012 -1.90838 0
M  V30 1995 H 183.952 -5.72158 0.361702 0
M  V30 1996 H 182.349 -5.89286 1.13413 0
M  V30 1997 H 183.419 -4.56796 1.62683 0
M  V30 1998 N 184.763 -0.387143 -1.52771 0
M  V30 1999 C 185.988 0.198407 -2.06449 0
M  V30 2000 C 186.413 1.39918 -1.25716 0
M  V30 2001 O 185.771 1.79099 -0.281657 0
M  V30 2002 C 185.819 0.548893 -3.56398 0
M  V30 2003 O 184.923 1.64315 -3.78252 0
M  V30 2004 H 184.264 0.0237731 -0.663574 0
M  V30 2005 H 186.794 -0.553989 -1.96957 0
M  V30 2006 H 186.804 0.813812 -3.99801 0
M  V30 2007 H 185.479 -0.329005 -4.14597 0
M  V30 2008 H 184.056 1.37211 -3.46738 0
M  V30 2009 N 186.241 1.57166 -0.116904 0
M  V30 2010 C 187.518 1.86645 0.585049 0
M  V30 2011 C 187.898 1.0177 1.84949 0
M  V30 2012 O 187.246 0.0960379 2.28298 0
M  V30 2013 C 187.456 3.37736 0.879507 0
M  V30 2014 C 188.804 4.06289 1.23348 0
M  V30 2015 O 189.828 3.42743 0.969836 0
M  V30 2016 O 188.687 5.18455 1.7282 0
M  V30 2017 H 185.781 0.772593 0.295007 0
M  V30 2018 H 188.327 1.69025 -0.151249 0
M  V30 2019 H 187.099 3.91296 -0.0166136 0
M  V30 2020 H 186.722 3.6078 1.67103 0
M  V30 2021 N 187.719 -0.156864 1.56817 0
M  V30 2022 C 188.968 -0.869504 1.81996 0
M  V30 2023 C 189.281 -1.82777 0.696545 0
M  V30 2024 O 190.487 -2.58384 0.833658 0
M  V30 2025 C 188.943 -1.59679 3.22538 0
M  V30 2026 C 188.551 -0.681431 4.42787 0
M  V30 2027 C 190.295 -2.2968 3.56997 0
M  V30 2028 C 188.202 -1.40978 5.74351 0
M  V30 2029 H 187.132 -0.328438 0.678708 0
M  V30 2030 H 189.783 -0.1223 1.83092 0
M  V30 2031 H 188.165 -2.38927 3.158 0
M  V30 2032 H 189.339 0.0751166 4.60739 0
M  V30 2033 H 187.654 -0.0903431 4.16302 0
M  V30 2034 H 190.251 -2.84794 4.52544 0
M  V30 2035 H 190.594 -3.05707 2.82576 0
M  V30 2036 H 191.127 -1.57361 3.65352 0
M  V30 2037 H 187.866 -0.691561 6.51842 0
M  V30 2038 H 187.386 -2.13929 5.60352 0
M  V30 2039 H 189.065 -1.95337 6.16808 0
M  V30 2040 N 189.197 -1.51736 -0.425897 0
M  V30 2041 C 190.445 -1.64644 -1.17204 0
M  V30 2042 C 190.766 -0.370486 -1.91448 0
M  V30 2043 O 190.036 0.614088 -1.86026 0
M  V30 2044 H 188.616 -0.606819 -0.435638 0
M  V30 2045 H 191.278 -1.88713 -0.487177 0
M  V30 2046 H 190.374 -2.47958 -1.89534 0
M  V30 2047 N 190.675 0.682077 -1.42076 0
M  V30 2048 C 191.9 1.47558 -1.45744 0
M  V30 2049 C 192.325 1.87977 -0.0680981 0
M  V30 2050 O 191.683 1.55522 0.9318 0
M  V30 2051 C 191.731 2.70575 -2.38373 0
M  V30 2052 O 190.835 3.68573 -1.85007 0
M  V30 2053 H 190.176 0.443585 -0.494093 0
M  V30 2054 H 192.706 0.837238 -1.86686 0
M  V30 2055 H 192.716 3.18729 -2.54707 0
M  V30 2056 H 191.391 2.40495 -3.39315 0
M  V30 2057 H 189.968 3.2757 -1.78192 0
M  V30 2058 N 192.153 1.28127 0.917671 0
M  V30 2059 C 193.401 1.14825 1.66312 0
M  V30 2060 C 193.722 -0.304379 1.9261 0
M  V30 2061 O 192.992 -1.21149 1.53947 0
M  V30 2062 H 191.572 0.421953 0.616413 0
M  V30 2063 H 194.234 1.608 1.10134 0
M  V30 2064 H 193.33 1.68489 2.62712 0
M  V30 2065 N 193.631 -1.12557 1.10312 0
M  V30 2066 C 194.88 -1.83395 0.839588 0
M  V30 2067 C 195.193 -1.84939 -0.636929 0
M  V30 2068 O 196.399 -2.51761 -1.01631 0
M  V30 2069 C 194.855 -3.29303 1.45215 0
M  V30 2070 C 194.463 -3.36122 2.96186 0
M  V30 2071 C 196.207 -4.05121 1.26796 0
M  V30 2072 C 194.114 -4.76357 3.50483 0
M  V30 2073 H 193.044 -0.687133 0.310425 0
M  V30 2074 H 195.695 -1.26746 1.32694 0
M  V30 2075 H 194.077 -3.85812 0.892469 0
M  V30 2076 H 195.251 -2.89559 3.58458 0
M  V30 2077 H 193.566 -2.73776 3.13745 0
M  V30 2078 H 196.163 -5.08668 1.64806 0
M  V30 2079 H 196.506 -4.15773 0.209409 0
M  V30 2080 H 197.039 -3.54967 1.79563 0
M  V30 2081 H 193.778 -4.70899 4.55998 0
M  V30 2082 H 193.298 -5.23377 2.92978 0
M  V30 2083 H 194.977 -5.45294 3.48228 0
M  V30 2084 N 195.109 -0.891671 -1.2995 0
M  V30 2085 C 196.525 -0.58662 -1.48428 0
M  V30 2086 C 196.725 0.873951 -1.81561 0
M  V30 2087 O 195.781 1.65471 -1.90724 0
M  V30 2088 C 197.094 -1.50553 -2.60296 0
M  V30 2089 C 198.642 -1.50988 -2.74175 0
M  V30 2090 C 199.117 -2.41488 -3.89163 0
M  V30 2091 N 200.608 -2.39489 -3.96483 0
M  V30 2092 C 201.343 -3.06223 -4.84784 0
M  V30 2093 N 200.839 -3.82206 -5.77833 0
M  V30 2094 N 202.632 -2.95421 -4.78208 0
M  V30 2095 H 194.783 -1.83644 -1.06718 0
M  V30 2096 H 197.046 -0.786455 -0.529332 0
M  V30 2097 H 196.752 -2.54581 -2.42654 0
M  V30 2098 H 196.626 -1.22008 -3.56923 0
M  V30 2099 H 199.013 -0.47708 -2.91218 0
M  V30 2100 H 199.094 -1.83567 -1.78148 0
M  V30 2101 H 198.738 -3.44857 -3.72876 0
M  V30 2102 H 198.668 -2.06222 -4.84541 0
M  V30 2103 H 201.159 -1.84278 -3.29924 0
M  V30 2104 H 201.472 -4.302 -6.41988 0
M  V30 2105 H 199.817 -3.86313 -5.77743 0
M  V30 2106 H 203.008 -2.35581 -4.04499 0
M  V30 2107 H 203.181 -3.47704 -5.46814 0
M  V30 2108 N 196.587 1.43421 -0.653314 0
M  V30 2109 C 197.817 2.05864 -0.174238 0
M  V30 2110 C 198.225 1.49052 1.16534 0
M  V30 2111 O 197.568 0.616481 1.73047 0
M  V30 2112 C 197.63 3.59499 -0.00875873 0
M  V30 2113 C 197.294 4.38893 -1.27364 0
M  V30 2114 C 198.291 4.70947 -2.20239 0
M  V30 2115 C 195.976 4.789 -1.51525 0
M  V30 2116 C 197.97 5.41916 -3.35568 0
M  V30 2117 C 195.657 5.49614 -2.67147 0
M  V30 2118 C 196.655 5.81044 -3.58994 0
M  V30 2119 O 196.343 6.50313 -4.72597 0
M  V30 2120 H 196.075 0.670345 -0.0872549 0
M  V30 2121 H 198.629 1.84913 -0.894226 0
M  V30 2122 H 196.859 3.79025 0.7666 0
M  V30 2123 H 198.548 4.0364 0.427687 0
M  V30 2124 H 199.314 4.40558 -2.02815 0
M  V30 2125 H 195.193 4.53843 -0.809158 0
M  V30 2126 H 198.737 5.66365 -4.07279 0
M  V30 2127 H 194.634 5.79419 -2.84505 0
M  V30 2128 H 195.402 6.68795 -4.71864 0
M  V30 2129 N 198.065 0.39524 1.52563 0
M  V30 2130 C 198.995 -0.428384 2.29537 0
M  V30 2131 C 199.976 -1.05831 1.33169 0
M  V30 2132 O 201.161 -1.06995 1.62067 0
M  V30 2133 C 198.291 -1.55274 3.10656 0
M  V30 2134 C 197.245 -1.04855 4.14957 0
M  V30 2135 C 196.571 -2.26543 4.84337 0
M  V30 2136 C 197.871 -0.112324 5.22179 0
M  V30 2137 H 199.565 0.213867 2.98635 0
M  V30 2138 H 197.111 0.104298 1.43622 0
M  V30 2139 H 199.064 -2.1358 3.63265 0
M  V30 2140 H 197.788 -2.22266 2.39302 0
M  V30 2141 H 196.447 -0.487985 3.63338 0
M  V30 2142 H 196.095 -2.92059 4.09525 0
M  V30 2143 H 195.795 -1.93466 5.54837 0
M  V30 2144 H 197.319 -2.85481 5.39753 0
M  V30 2145 H 198.733 -0.603752 5.70112 0
M  V30 2146 H 197.13 0.128968 5.99961 0
M  V30 2147 H 198.2 0.837052 4.77621 0
M  V30 2148 N 199.544 -1.57102 0.125237 0
M  V30 2149 C 200.494 -2.12202 -0.833936 0
M  V30 2150 C 201.478 -1.04433 -1.22403 0
M  V30 2151 O 202.67 -1.30655 -1.19408 0
M  V30 2152 C 199.799 -2.72994 -2.08157 0
M  V30 2153 C 198.885 -3.87852 -1.71556 0
M  V30 2154 N 199.276 -4.9464 -1.05662 0
M  V30 2155 C 197.574 -3.98153 -2.00973 0
M  V30 2156 C 198.275 -5.74953 -0.883376 0
M  V30 2157 N 197.251 -5.24985 -1.41036 0
M  V30 2158 H 201.053 -2.92141 -0.321035 0
M  V30 2159 H 198.567 -1.62217 -0.0770315 0
M  V30 2160 H 200.564 -3.10816 -2.77847 0
M  V30 2161 H 199.224 -1.9452 -2.59985 0
M  V30 2162 H 200.235 -5.12872 -0.719878 0
M  V30 2163 H 196.912 -3.30728 -2.54804 0
M  V30 2164 H 198.302 -6.70904 -0.365675 0
M  V30 2165 N 201.022 0.148545 -1.56898 0
M  V30 2166 C 201.932 1.20293 -2.01412 0
M  V30 2167 C 202.948 1.47107 -0.929273 0
M  V30 2168 O 204.124 1.58807 -1.23863 0
M  V30 2169 C 201.189 2.51682 -2.38447 0
M  V30 2170 C 200.25 2.32529 -3.60872 0
M  V30 2171 C 199.483 3.57653 -3.96132 0
M  V30 2172 O 199.706 4.63771 -3.32073 0
M  V30 2173 O 198.64 3.50408 -4.89385 0
M  V30 2174 H 202.466 0.855025 -2.91416 0
M  V30 2175 H 200.051 0.357151 -1.45068 0
M  V30 2176 H 201.933 3.29147 -2.63135 0
M  V30 2177 H 200.608 2.86006 -1.51599 0
M  V30 2178 H 199.515 1.53019 -3.41373 0
M  V30 2179 H 200.848 2.03121 -4.48333 0
M  V30 2180 N 202.5 1.5196 0.417844 0
M  V30 2181 C 203.448 1.75278 1.52907 0
M  V30 2182 C 204.442 0.619611 1.57662 0
M  V30 2183 O 205.648 0.801457 1.61173 0
M  V30 2184 H 202.023 0.554141 0.508362 0
M  V30 2185 H 203.994 2.68389 1.30422 0
M  V30 2186 C 202.743 1.91262 2.90369 0
M  V30 2187 H 202.066 2.77872 2.8745 0
M  V30 2188 H 203.506 2.11581 3.67436 0
M  V30 2189 C 201.965 0.677431 3.30019 0
M  V30 2190 O 202.495 -0.158799 4.01386 0
M  V30 2191 N 200.701 0.515851 2.85985 0
M  V30 2192 H 200.248 1.19744 2.28077 0
M  V30 2193 H 200.206 -0.309315 3.12875 0
M  V30 2194 N 203.978 -0.674533 1.42435 0
M  V30 2195 C 204.925 -1.78807 1.45934 0
M  V30 2196 C 205.895 -1.63157 0.311271 0
M  V30 2197 O 207.08 -1.83707 0.515383 0
M  V30 2198 C 204.22 -3.16839 1.36773 0
M  V30 2199 C 203.333 -3.43774 2.61617 0
M  V30 2200 C 202.468 -4.71536 2.44597 0
M  V30 2201 C 201.507 -4.91505 3.64814 0
M  V30 2202 N 200.644 -6.10508 3.46734 0
M  V30 2203 H 205.484 -1.75151 2.41093 0
M  V30 2204 H 203.021 -0.85504 1.19697 0
M  V30 2205 H 204.979 -3.96606 1.29459 0
M  V30 2206 H 203.609 -3.19619 0.452089 0
M  V30 2207 H 202.661 -2.58259 2.79297 0
M  V30 2208 H 203.973 -3.54423 3.50978 0
M  V30 2209 H 203.127 -5.59393 2.3487 0
M  V30 2210 H 201.866 -4.6317 1.52726 0
M  V30 2211 H 200.871 -4.0209 3.74972 0
M  V30 2212 H 202.096 -5.01716 4.57665 0
M  V30 2213 H 200.042 -6.03315 2.5758 0
M  V30 2214 H 199.959 -6.2202 4.29682 0
M  V30 2215 H 201.227 -7.01044 3.40819 0
M  V30 2216 N 205.456 -1.28612 -0.910864 0
M  V30 2217 C 206.705 -1.15311 -1.65488 0
M  V30 2218 C 207.018 0.296999 -1.93332 0
M  V30 2219 O 208.224 0.551168 -2.65847 0
M  V30 2220 C 206.68 -2.01599 -2.98137 0
M  V30 2221 C 206.288 -3.51367 -2.7793 0
M  V30 2222 C 208.032 -1.96993 -3.76024 0
M  V30 2223 C 205.939 -4.29797 -4.06237 0
M  V30 2224 H 204.869 -0.42796 -0.620779 0
M  V30 2225 H 207.52 -1.53166 -1.01057 0
M  V30 2226 H 205.902 -1.56603 -3.63719 0
M  V30 2227 H 207.076 -4.0434 -2.21011 0
M  V30 2228 H 205.391 -3.57529 -2.13452 0
M  V30 2229 H 207.988 -2.52856 -4.71135 0
M  V30 2230 H 208.331 -0.94733 -4.05378 0
M  V30 2231 H 208.864 -2.39973 -3.17266 0
M  V30 2232 H 205.603 -5.32648 -3.82055 0
M  V30 2233 H 205.123 -3.81596 -4.62757 0
M  V30 2234 H 206.802 -4.39869 -4.74473 0
M  V30 2235 N 206.934 1.1197 -1.10907 0
M  V30 2236 C 208.183 1.82947 -0.849302 0
M  V30 2237 C 208.496 1.85275 0.627112 0
M  V30 2238 O 209.702 2.52296 1.00295 0
M  V30 2239 C 208.158 3.28529 -1.46959 0
M  V30 2240 C 207.766 3.34546 -2.97965 0
M  V30 2241 C 209.51 4.04443 -1.28942 0
M  V30 2242 C 207.417 4.74491 -3.53004 0
M  V30 2243 H 206.347 0.685477 -0.314065 0
M  V30 2244 H 208.998 1.2604 -1.33365 0
M  V30 2245 H 207.38 3.85333 -0.912917 0
M  V30 2246 H 208.554 2.87654 -3.59989 0
M  V30 2247 H 206.869 2.72108 -3.15192 0
M  V30 2248 H 209.466 5.07787 -1.67502 0
M  V30 2249 H 209.809 4.15656 -0.231456 0
M  V30 2250 H 210.342 3.5401 -1.81443 0
M  V30 2251 H 207.081 4.68474 -4.58489 0
M  V30 2252 H 206.601 5.21816 -2.9575 0
M  V30 2253 H 208.28 5.4344 -3.51115 0
M  V30 2254 N 208.412 0.89855 1.29475 0
M  V30 2255 C 209.362 0.346767 2.25348 0
M  V30 2256 C 210.346 -0.532509 1.51833 0
M  V30 2257 O 211.538 -0.374714 1.72988 0
M  V30 2258 C 208.667 -0.425681 3.40651 0
M  V30 2259 C 207.753 0.46845 4.21505 0
M  V30 2260 N 208.144 1.57514 4.80648 0
M  V30 2261 C 206.442 0.26603 4.45206 0
M  V30 2262 C 207.143 2.12889 5.41344 0
M  V30 2263 N 206.119 1.42208 5.24669 0
M  V30 2264 H 209.921 1.19219 2.68634 0
M  V30 2265 H 207.435 0.749473 1.44072 0
M  V30 2266 H 209.432 -0.837716 4.08397 0
M  V30 2267 H 208.092 -1.26838 2.98902 0
M  V30 2268 H 209.103 1.95789 4.79465 0
M  V30 2269 H 205.78 -0.538394 4.14014 0
M  V30 2270 H 207.17 3.05901 5.98226 0
M  V30 2271 N 209.89 -1.43072 0.660911 0
M  V30 2272 C 211.306 -1.56169 0.329173 0
M  V30 2273 C 211.506 -1.64317 -1.16629 0
M  V30 2274 O 210.562 -1.60245 -1.95135 0
M  V30 2275 C 211.875 -2.81873 1.04729 0
M  V30 2276 C 213.423 -2.95627 1.02828 0
M  V30 2277 C 213.898 -4.24174 1.72744 0
M  V30 2278 N 215.389 -4.31055 1.69545 0
M  V30 2279 C 216.124 -5.29304 2.20511 0
M  V30 2280 N 215.62 -6.33786 2.79799 0
M  V30 2281 N 217.413 -5.21008 2.10966 0
M  V30 2282 H 209.564 -1.36027 1.63127 0
M  V30 2283 H 211.827 -0.653823 0.686454 0
M  V30 2284 H 211.533 -2.81942 2.10242 0
M  V30 2285 H 211.407 -3.72338 0.603702 0
M  V30 2286 H 213.794 -2.95094 -0.0184742 0
M  V30 2287 H 213.875 -2.06431 1.51063 0
M  V30 2288 H 213.519 -4.25467 2.7738 0
M  V30 2289 H 213.449 -5.1228 1.2197 0
M  V30 2290 H 215.94 -3.56174 1.26288 0
M  V30 2291 H 216.253 -7.05086 3.16344 0
M  V30 2292 H 214.598 -6.34387 2.83863 0
M  V30 2293 H 217.789 -4.38301 1.64347 0
M  V30 2294 H 217.962 -5.97416 2.50993 0
M  V30 2295 N 211.368 -0.403325 -1.52352 0
M  V30 2296 C 212.645 0.232611 -1.94212 0
M  V30 2297 C 213.025 1.63133 -1.33981 0
M  V30 2298 O 212.373 2.22659 -0.513344 0
M  V30 2299 C 212.583 0.244811 -3.4814 0
M  V30 2300 C 213.931 0.46698 -4.22024 0
M  V30 2301 O 214.955 0.324419 -3.5472 0
M  V30 2302 O 213.814 0.74747 -5.41364 0
M  V30 2303 H 210.908 0.148223 -0.813609 0
M  V30 2304 H 213.454 -0.458848 -1.63379 0
M  V30 2305 H 212.226 -0.734378 -3.84347 0
M  V30 2306 H 211.849 0.980611 -3.85318 0
M  V30 2307 N 212.846 1.57033 -0.133567 0
M  V30 2308 C 213.776 2.1909 0.807567 0
M  V30 2309 C 214.757 1.13517 1.26681 0
M  V30 2310 O 215.942 1.41809 1.32679 0
M  V30 2311 C 213.072 2.80188 2.05212 0
M  V30 2312 C 212.026 3.91471 1.73015 0
M  V30 2313 C 211.352 4.39443 3.04622 0
M  V30 2314 C 212.652 5.12886 0.987168 0
M  V30 2315 H 214.346 2.97988 0.290403 0
M  V30 2316 H 211.892 1.43335 0.138239 0
M  V30 2317 H 213.845 3.22264 2.71521 0
M  V30 2318 H 212.569 1.98601 2.59278 0
M  V30 2319 H 211.228 3.49993 1.0909 0
M  V30 2320 H 210.876 3.54695 3.56651 0
M  V30 2321 H 210.576 5.14495 2.83847 0
M  V30 2322 H 212.1 4.8418 3.72024 0
M  V30 2323 H 213.514 5.51891 1.55208 0
M  V30 2324 H 211.911 5.93615 0.87985 0
M  V30 2325 H 212.981 4.84894 -0.0235286 0
M  V30 2326 N 214.325 -0.140222 1.56975 0
M  V30 2327 C 215.272 -1.17292 1.98774 0
M  V30 2328 C 216.242 -1.4232 0.856408 0
M  V30 2329 O 217.427 -1.54541 1.119 0
M  V30 2330 C 214.567 -2.49973 2.37923 0
M  V30 2331 C 213.68 -2.32062 3.64378 0
M  V30 2332 C 212.815 -3.57825 3.926 0
M  V30 2333 C 211.854 -3.3498 5.12303 0
M  V30 2334 N 210.991 -4.52891 5.36502 0
M  V30 2335 H 215.831 -0.809472 2.86795 0
M  V30 2336 H 213.368 -0.388237 1.41884 0
M  V30 2337 H 215.326 -3.27346 2.58652 0
M  V30 2338 H 213.956 -2.84252 1.52972 0
M  V30 2339 H 213.008 -1.45711 3.51387 0
M  V30 2340 H 214.32 -2.11145 4.51906 0
M  V30 2341 H 213.474 -4.43624 4.13863 0
M  V30 2342 H 212.213 -3.81753 3.03506 0
M  V30 2343 H 211.218 -2.4757 4.90906 0
M  V30 2344 H 212.443 -3.12444 6.02956 0
M  V30 2345 H 210.389 -4.76979 4.50363 0
M  V30 2346 H 210.306 -4.35001 6.18312 0
M  V30 2347 H 211.574 -5.39884 5.62268 0
M  V30 2348 N 215.803 -1.52179 -0.40978 0
M  V30 2349 C 217.214 -1.58377 -0.988615 0
M  V30 2350 C 217.565 -0.423879 -1.91566 0
M  V30 2351 O 216.69 0.455844 -2.11544 0
M  V30 2352 C 217.285 -2.87044 -1.79976 0
M  V30 2353 C 215.844 -2.95722 -2.32863 0
M  V30 2354 C 214.991 -2.53309 -1.12828 0
M  V30 2355 H 217.942 -1.57558 -0.190039 0
M  V30 2356 H 217.963 -2.7236 -2.65707 0
M  V30 2357 H 217.475 -3.71444 -1.12478 0
M  V30 2358 H 215.576 -2.15814 -3.03735 0
M  V30 2359 H 215.689 -3.99951 -2.63773 0
M  V30 2360 H 214.053 -2.07142 -1.48204 0
M  V30 2361 H 214.836 -3.40082 -0.46897 0
M  V30 2362 N 217.281 0.66697 -1.42791 0
M  V30 2363 C 218.191 1.80962 -1.49299 0
M  V30 2364 C 219.207 1.69775 -0.381108 0
M  V30 2365 O 220.383 1.91188 -0.633188 0
M  V30 2366 C 217.448 3.17156 -1.40045 0
M  V30 2367 C 216.509 3.40242 -2.6179 0
M  V30 2368 C 215.742 4.69939 -2.52969 0
M  V30 2369 O 215.965 5.48372 -1.56985 0
M  V30 2370 O 214.899 4.94441 -3.43237 0
M  V30 2371 H 218.725 1.78427 -2.45759 0
M  V30 2372 H 216.31 0.823713 -1.24641 0
M  V30 2373 H 218.192 3.98413 -1.37276 0
M  V30 2374 H 216.867 3.20312 -0.467138 0
M  V30 2375 H 215.774 2.58802 -2.70134 0
M  V30 2376 H 217.107 3.41923 -3.54047 0
M  V30 2377 N 218.759 1.29093 0.90403 0
M  V30 2378 C 219.707 1.13727 2.02901 0
M  V30 2379 C 220.701 0.0539853 1.69314 0
M  V30 2380 O 221.907 0.213469 1.7873 0
M  V30 2381 H 218.282 0.35117 0.664969 0
M  V30 2382 H 220.253 2.08982 2.13001 0
M  V30 2383 C 219.002 0.826066 3.37745 0
M  V30 2384 H 218.325 1.65164 3.64089 0
M  V30 2385 H 219.765 0.758559 4.17159 0
M  V30 2386 C 218.224 -0.470541 3.33598 0
M  V30 2387 O 218.754 -1.49792 3.72727 0
M  V30 2388 N 216.96 -0.474812 2.86695 0
M  V30 2389 H 216.507 0.361692 2.55048 0
M  V30 2390 H 216.465 -1.34236 2.84303 0
M  V30 2391 N 220.237 -1.11381 1.11499 0
M  V30 2392 C 221.486 -1.82494 0.858993 0
M  V30 2393 C 221.799 -1.85605 -0.617278 0
M  V30 2394 O 223.005 -2.52824 -0.989552 0
M  V30 2395 C 221.461 -3.27745 1.48699 0
M  V30 2396 C 221.069 -3.32961 2.99735 0
M  V30 2397 C 222.813 -4.03754 1.31085 0
M  V30 2398 C 220.72 -4.72612 3.55516 0
M  V30 2399 H 219.65 -0.683802 0.317696 0
M  V30 2400 H 222.301 -1.25331 1.34031 0
M  V30 2401 H 220.683 -3.84844 0.933339 0
M  V30 2402 H 221.857 -2.85741 3.61509 0
M  V30 2403 H 220.172 -2.70433 3.16631 0
M  V30 2404 H 222.769 -5.06891 1.70192 0
M  V30 2405 H 223.112 -4.15527 0.253496 0
M  V30 2406 H 223.645 -3.53043 1.83318 0
M  V30 2407 H 220.384 -4.66036 4.60967 0
M  V30 2408 H 219.904 -5.2024 2.98513 0
M  V30 2409 H 221.583 -5.4157 3.53992 0
M  V30 2410 N 221.715 -0.905404 -1.28997 0
M  V30 2411 C 222.961 -0.535039 -1.95615 0
M  V30 2412 C 223.294 0.917404 -1.71165 0
M  V30 2413 O 222.569 1.65123 -1.02785 0
M  V30 2414 C 222.852 -0.834918 -3.50287 0
M  V30 2415 C 222.705 -2.33948 -3.84172 0
M  V30 2416 C 224.024 -0.325318 -4.38896 0
M  V30 2417 H 221.143 -0.195861 -0.710498 0
M  V30 2418 H 223.785 -1.13313 -1.52513 0
M  V30 2419 H 221.935 -0.325904 -3.87131 0
M  V30 2420 H 223.607 -2.91847 -3.57243 0
M  V30 2421 H 221.85 -2.79789 -3.31513 0
M  V30 2422 H 222.521 -2.49987 -4.92149 0
M  V30 2423 H 224.997 -0.761256 -4.09077 0
M  V30 2424 H 223.873 -0.564295 -5.45992 0
M  V30 2425 H 224.134 0.774144 -4.35269 0
M  V30 2426 N 223.193 1.4272 -0.668489 0
M  V30 2427 C 224.123 2.335 -0.000100175 0
M  V30 2428 C 225.104 1.50328 0.795964 0
M  V30 2429 O 226.289 1.78949 0.754385 0
M  V30 2430 C 223.419 3.33874 0.956302 0
M  V30 2431 C 222.373 4.27152 0.269278 0
M  V30 2432 C 221.699 5.17684 1.33818 0
M  V30 2433 C 222.999 5.15373 -0.847805 0
M  V30 2434 H 224.693 2.89639 -0.758244 0
M  V30 2435 H 222.239 1.39269 -0.366079 0
M  V30 2436 H 224.192 3.9629 1.43292 0
M  V30 2437 H 222.916 2.76025 1.74579 0
M  V30 2438 H 221.575 3.66123 -0.187042 0
M  V30 2439 H 221.223 4.56165 2.1195 0
M  V30 2440 H 220.923 5.80918 0.883659 0
M  V30 2441 H 222.447 5.82974 1.81586 0
M  V30 2442 H 223.861 5.7151 -0.452681 0
M  V30 2443 H 222.258 5.87407 -1.22773 0
M  V30 2444 H 223.328 4.5415 -1.69929 0
M  V30 2445 N 224.671 0.411399 1.52136 0
M  V30 2446 C 225.603 -0.448386 2.24771 0
M  V30 2447 C 226.616 -1.00828 1.27818 0
M  V30 2448 O 227.805 -0.906841 1.53749 0
M  V30 2449 C 224.905 -1.63636 2.96777 0
M  V30 2450 C 224.078 -1.19995 4.20618 0
M  V30 2451 C 223.137 -2.25509 4.75428 0
M  V30 2452 O 222.163 -1.86007 5.3795 0
M  V30 2453 N 223.365 -3.577 4.57199 0
M  V30 2454 H 226.13 0.174025 2.99194 0
M  V30 2455 H 223.691 0.238897 1.60128 0
M  V30 2456 H 225.683 -2.33793 3.30338 0
M  V30 2457 H 224.253 -2.16465 2.25526 0
M  V30 2458 H 223.473 -0.326421 3.92846 0
M  V30 2459 H 224.761 -0.885365 5.01038 0
M  V30 2460 H 224.159 -3.92543 4.07341 0
M  V30 2461 H 222.716 -4.23827 4.95191 0
M  V30 2462 N 226.149 -1.5696 0.141893 0
M  V30 2463 C 227.426 -1.87553 -0.555281 0
M  V30 2464 C 227.806 -1.04699 -1.83306 0
M  V30 2465 O 227.154 -0.132346 -2.28116 0
M  V30 2466 C 227.364 -3.39093 -0.825664 0
M  V30 2467 C 228.712 -4.08199 -1.16869 0
M  V30 2468 O 229.736 -3.44242 -0.915185 0
M  V30 2469 O 228.595 -5.21139 -1.6455 0
M  V30 2470 H 225.689 -0.777188 -0.282679 0
M  V30 2471 H 228.235 -1.68763 0.17812 0
M  V30 2472 H 227.007 -3.91221 0.0788633 0
M  V30 2473 H 226.63 -3.63393 -1.61343 0
M  V30 2474 N 227.627 0.131896 -1.57047 0
M  V30 2475 C 228.873 0.843179 -1.84441 0
M  V30 2476 C 229.206 1.80129 -0.725749 0
M  V30 2477 O 228.481 1.92624 0.269469 0
M  V30 2478 C 228.764 1.60442 -3.22382 0
M  V30 2479 C 228.617 0.666782 -4.4483 0
M  V30 2480 C 229.936 2.56354 -3.5773 0
M  V30 2481 H 227.055 0.305081 -0.670891 0
M  V30 2482 H 229.697 0.107839 -1.89694 0
M  V30 2483 H 227.847 2.23128 -3.18035 0
M  V30 2484 H 229.519 0.0497646 -4.61273 0
M  V30 2485 H 227.762 -0.022609 -4.33794 0
M  V30 2486 H 228.433 1.23579 -5.37989 0
M  V30 2487 H 230.909 2.0378 -3.62785 0
M  V30 2488 H 229.785 3.06657 -4.5525 0
M  V30 2489 H 230.046 3.38419 -2.84473 0
M  V30 2490 N 229.106 1.52395 0.401703 0
M  V30 2491 C 230.354 1.66488 1.14569 0
M  V30 2492 C 230.675 0.400897 1.90835 0
M  V30 2493 O 229.945 -0.584415 1.8698 0
M  V30 2494 H 228.525 0.613672 0.425929 0
M  V30 2495 H 231.187 1.89464 0.457093 0
M  V30 2496 H 230.283 2.50942 1.85566 0
M  V30 2497 N 230.584 -0.659388 1.43143 0
M  V30 2498 C 231.832 -1.41654 1.44147 0
M  V30 2499 C 232.153 -1.94893 0.0645739 0
M  V30 2500 O 231.423 -1.74044 -0.899198 0
M  V30 2501 H 230.003 -0.525708 0.530697 0
M  V30 2502 H 232.665 -0.778097 1.78694 0
M  V30 2503 H 231.761 -2.26195 2.1504 0
M  V30 2504 N 232.062 -1.29571 -0.897171 0
M  V30 2505 C 233.009 -1.14916 -2.00158 0
M  V30 2506 C 233.979 -0.0418149 -1.66047 0
M  V30 2507 O 235.164 -0.209793 -1.89643 0
M  V30 2508 C 232.304 -0.834307 -3.34863 0
M  V30 2509 C 231.417 -2.02234 -3.8174 0
M  V30 2510 C 230.552 -1.64664 -5.05034 0
M  V30 2511 C 229.591 -2.80033 -5.44286 0
M  V30 2512 N 228.728 -2.42843 -6.58765 0
M  V30 2513 H 233.568 -2.09403 -2.12025 0
M  V30 2514 H 231.105 -1.042 -1.0383 0
M  V30 2515 H 233.063 -0.632436 -4.12379 0
M  V30 2516 H 231.693 0.0736656 -3.22716 0
M  V30 2517 H 230.745 -2.33583 -3.00238 0
M  V30 2518 H 232.057 -2.88673 -4.06779 0
M  V30 2519 H 231.211 -1.4078 -5.9014 0
M  V30 2520 H 229.95 -0.753766 -4.8184 0
M  V30 2521 H 228.955 -3.04596 -4.57713 0
M  V30 2522 H 230.18 -3.69989 -5.6946 0
M  V30 2523 H 228.126 -1.56046 -6.3717 0
M  V30 2524 H 228.043 -3.22815 -6.83613 0
M  V30 2525 H 229.311 -2.22285 -7.47134 0
M  V30 2526 N 233.54 1.10788 -1.12088 0
M  V30 2527 C 234.789 1.82036 -0.868659 0
M  V30 2528 C 235.102 1.85929 0.607426 0
M  V30 2529 O 236.308 2.53346 0.97613 0
M  V30 2530 C 234.764 3.26951 -1.50435 0
M  V30 2531 C 234.372 3.31367 -3.01496 0
M  V30 2532 C 236.116 4.03053 -1.33225 0
M  V30 2533 C 234.023 4.7072 -3.58017 0
M  V30 2534 H 232.953 0.682108 -0.321318 0
M  V30 2535 H 235.604 1.24618 -1.34694 0
M  V30 2536 H 233.986 3.84343 -0.953735 0
M  V30 2537 H 235.16 2.83819 -3.6302 0
M  V30 2538 H 233.475 2.6875 -3.18061 0
M  V30 2539 H 236.072 5.05981 -1.72878 0
M  V30 2540 H 236.415 4.15387 -0.275529 0
M  V30 2541 H 236.948 3.52066 -1.85188 0
M  V30 2542 H 233.687 4.63585 -4.63432 0
M  V30 2543 H 233.207 5.1865 -3.01268 0
M  V30 2544 H 234.886 5.39685 -3.56859 0
M  V30 2545 N 235.018 0.912232 1.28515 0
M  V30 2546 C 236.267 0.540504 1.94323 0
M  V30 2547 C 236.58 -0.920044 1.72611 0
M  V30 2548 O 237.786 -1.39986 2.32629 0
M  V30 2549 C 236.242 0.915803 3.48053 0
M  V30 2550 C 235.85 2.39598 3.78546 0
M  V30 2551 C 237.594 0.614588 4.20027 0
M  V30 2552 C 235.501 2.71148 5.25578 0
M  V30 2553 H 234.431 0.198418 0.727424 0
M  V30 2554 H 237.082 1.11094 1.46049 0
M  V30 2555 H 235.464 0.274168 3.9505 0
M  V30 2556 H 236.638 3.08422 3.42364 0
M  V30 2557 H 234.953 2.66749 3.1974 0
M  V30 2558 H 237.55 0.827002 5.28266 0
M  V30 2559 H 237.893 -0.447531 4.13887 0
M  V30 2560 H 238.426 1.21462 3.78803 0
M  V30 2561 H 235.165 3.76207 5.36794 0
M  V30 2562 H 234.685 2.0696 5.62963 0
M  V30 2563 H 236.364 2.58072 5.93302 0
M  V30 2564 N 236.496 -1.42363 0.676048 0
M  V30 2565 C 237.446 -2.27987 -0.0242903 0
M  V30 2566 C 238.43 -1.41153 -0.772319 0
M  V30 2567 O 239.622 -1.64592 -0.651025 0
M  V30 2568 C 236.751 -3.29195 -0.973953 0
M  V30 2569 C 235.837 -4.23512 -0.223202 0
M  V30 2570 N 236.228 -4.99865 0.772589 0
M  V30 2571 C 234.526 -4.43606 -0.461469 0
M  V30 2572 C 235.227 -5.68757 1.22027 0
M  V30 2573 N 234.203 -5.40811 0.549975 0
M  V30 2574 H 238.005 -2.84445 0.73949 0
M  V30 2575 H 235.519 -1.54341 0.50522 0
M  V30 2576 H 237.516 -3.89339 -1.49067 0
M  V30 2577 H 236.176 -2.74298 -1.73755 0
M  V30 2578 H 237.187 -5.04921 1.15217 0
M  V30 2579 H 233.864 -3.99749 -1.20446 0
M  V30 2580 H 235.254 -6.40007 2.0455 0
M  V30 2581 N 237.974 -0.419461 -1.51915 0
M  V30 2582 C 238.921 0.400927 -2.27291 0
M  V30 2583 C 239.891 1.03224 -1.30131 0
M  V30 2584 O 241.076 1.05455 -1.59009 0
M  V30 2585 C 238.216 1.50603 -3.10504 0
M  V30 2586 C 237.329 0.89462 -4.22635 0
M  V30 2587 C 236.464 1.97328 -4.93189 0
M  V30 2588 C 235.503 1.33935 -5.97267 0
M  V30 2589 N 234.64 2.3586 -6.61298 0
M  V30 2590 H 239.48 -0.248251 -2.96964 0
M  V30 2591 H 237.017 -0.134266 -1.46486 0
M  V30 2592 H 238.975 2.15783 -3.57062 0
M  V30 2593 H 237.605 2.12509 -2.42981 0
M  V30 2594 H 236.657 0.131583 -3.80172 0
M  V30 2595 H 237.969 0.391641 -4.9726 0
M  V30 2596 H 237.123 2.70211 -5.43204 0
M  V30 2597 H 235.862 2.50994 -4.18155 0
M  V30 2598 H 234.867 0.595896 -5.46561 0
M  V30 2599 H 236.092 0.810252 -6.74249 0
M  V30 2600 H 234.038 2.88639 -5.89087 0
M  V30 2601 H 233.955 1.90403 -7.3163 0
M  V30 2602 H 235.223 3.08282 -7.15949 0
M  V30 2603 N 239.452 1.56882 -0.150215 0
M  V30 2604 C 240.701 1.95403 0.500071 0
M  V30 2605 C 241.014 1.03777 1.658 0
M  V30 2606 O 242.22 1.31889 2.37313 0
M  V30 2607 C 240.676 3.4738 0.941018 0
M  V30 2608 C 240.284 4.47596 -0.190158 0
M  V30 2609 C 242.028 3.9476 1.56091 0
M  V30 2610 C 239.935 5.90787 0.269237 0
M  V30 2611 H 238.865 0.729515 0.190588 0
M  V30 2612 H 241.516 1.81988 -0.235074 0
M  V30 2613 H 239.898 3.56138 1.73152 0
M  V30 2614 H 241.072 4.50536 -0.967157 0
M  V30 2615 H 239.387 4.10151 -0.718666 0
M  V30 2616 H 241.984 4.99181 1.9163 0
M  V30 2617 H 242.327 3.36494 2.45107 0
M  V30 2618 H 242.86 3.88932 0.835249 0
M  V30 2619 H 239.599 6.52879 -0.585621 0
M  V30 2620 H 239.119 5.912 1.01204 0
M  V30 2621 H 240.798 6.42979 0.720176 0
M  V30 2622 N 240.93 -0.123565 1.57115 0
M  V30 2623 C 242.179 -0.830704 1.83799 0
M  V30 2624 C 242.492 -1.81259 0.735158 0
M  V30 2625 O 243.698 -2.56558 0.888278 0
M  V30 2626 C 242.154 -1.52802 3.25852 0
M  V30 2627 C 241.762 -0.587356 4.44133 0
M  V30 2628 C 243.506 -2.22056 3.61789 0
M  V30 2629 C 241.413 -1.28764 5.77212 0
M  V30 2630 H 240.343 -0.313967 0.685522 0
M  V30 2631 H 242.994 -0.0834359 1.8331 0
M  V30 2632 H 241.376 -2.32175 3.20797 0
M  V30 2633 H 242.55 0.172829 4.60476 0
M  V30 2634 H 240.865 -0.00201892 4.164 0
M  V30 2635 H 243.462 -2.75131 4.58483 0
M  V30 2636 H 243.805 -2.99644 2.88997 0
M  V30 2637 H 244.338 -1.49576 3.68608 0
M  V30 2638 H 241.077 -0.55314 6.53162 0
M  V30 2639 H 240.597 -2.01995 5.64764 0
M  V30 2640 H 242.276 -1.8221 6.20813 0
M  V30 2641 N 242.408 -1.52605 -0.393616 0
M  V30 2642 C 243.685 -1.58001 -1.15304 0
M  V30 2643 C 244.065 -0.370385 -2.07825 0
M  V30 2644 O 243.413 0.641638 -2.19306 0
M  V30 2645 C 243.623 -2.91652 -1.91677 0
M  V30 2646 C 244.971 -3.4522 -2.47201 0
M  V30 2647 O 245.995 -2.93495 -2.01839 0
M  V30 2648 O 244.854 -4.35579 -3.3005 0
M  V30 2649 H 241.948 -0.637068 -0.527327 0
M  V30 2650 H 244.494 -1.64939 -0.399141 0
M  V30 2651 H 243.266 -3.71136 -1.23992 0
M  V30 2652 H 242.889 -2.88077 -2.74039 0
M  V30 2653 N 243.887 0.651787 -1.4349 0
M  V30 2654 C 244.817 1.77621 -1.51569 0
M  V30 2655 C 245.798 1.66022 -0.370253 0
M  V30 2656 O 246.983 1.85095 -0.587658 0
M  V30 2657 C 244.113 3.16056 -1.43966 0
M  V30 2658 C 243.067 3.4242 -2.56774 0
M  V30 2659 C 242.393 4.8067 -2.34223 0
M  V30 2660 C 243.693 3.37023 -3.99015 0
M  V30 2661 H 245.387 1.71117 -2.45681 0
M  V30 2662 H 242.933 0.821825 -1.18246 0
M  V30 2663 H 244.886 3.94472 -1.48221 0
M  V30 2664 H 243.61 3.23293 -0.463586 0
M  V30 2665 H 242.269 2.66375 -2.51873 0
M  V30 2666 H 241.917 4.84585 -1.34856 0
M  V30 2667 H 241.617 4.9927 -3.09844 0
M  V30 2668 H 243.141 5.61342 -2.40265 0
M  V30 2669 H 244.555 4.05374 -4.05395 0
M  V30 2670 H 242.952 3.67159 -4.74673 0
M  V30 2671 H 244.022 2.3518 -4.2405 0
M  V30 2672 N 245.365 1.30045 0.890287 0
M  V30 2673 C 246.613 1.18327 1.63839 0
M  V30 2674 C 246.934 -0.263455 1.93212 0
M  V30 2675 O 246.204 -1.17856 1.56482 0
M  V30 2676 H 244.784 0.434933 0.607324 0
M  V30 2677 H 247.446 1.631 1.06698 0
M  V30 2678 H 246.542 1.74024 2.59079 0
M  V30 2679 N 246.843 -1.10192 1.12674 0
M  V30 2680 C 248.073 -1.85713 0.905213 0
M  V30 2681 C 248.481 -1.81056 -0.549108 0
M  V30 2682 O 247.824 -1.19927 -1.39151 0
M  V30 2683 C 247.886 -3.34972 1.30516 0
M  V30 2684 C 247.55 -3.63385 2.77129 0
M  V30 2685 C 248.547 -3.59772 3.75313 0
M  V30 2686 C 246.232 -3.91981 3.14096 0
M  V30 2687 C 248.226 -3.84354 5.08479 0
M  V30 2688 C 245.913 -4.16218 4.47443 0
M  V30 2689 C 246.911 -4.12395 5.44444 0
M  V30 2690 O 246.599 -4.36014 6.75387 0
M  V30 2691 H 246.331 -0.593719 0.323223 0
M  V30 2692 H 248.885 -1.40198 1.50112 0
M  V30 2693 H 247.115 -3.81156 0.652463 0
M  V30 2694 H 248.804 -3.91886 1.05736 0
M  V30 2695 H 249.57 -3.37716 3.48099 0
M  V30 2696 H 245.449 -3.94085 2.39202 0
M  V30 2697 H 248.993 -3.81285 5.84181 0
M  V30 2698 H 244.89 -4.37754 4.74386 0
M  V30 2699 H 245.658 -4.53516 6.8137 0
M  V30 2700 N 248.321 -0.919034 -1.28029 0
M  V30 2701 C 249.284 -0.416182 -2.2539 0
M  V30 2702 C 250.284 0.460438 -1.54067 0
M  V30 2703 O 251.474 0.262744 -1.72207 0
M  V30 2704 C 248.606 0.402707 -3.38513 0
M  V30 2705 H 249.799 -1.27629 -2.71387 0
M  V30 2706 H 247.352 -0.698919 -1.39803 0
M  V30 2707 H 248.087 1.282 -2.97885 0
M  V30 2708 H 247.872 -0.225698 -3.9145 0
M  V30 2709 H 249.362 0.745191 -4.10897 0
M  V30 2710 N 249.799 1.42003 -0.683588 0
M  V30 2711 C 250.746 2.30798 -0.0107309 0
M  V30 2712 C 251.716 1.4645 0.783688 0
M  V30 2713 O 252.901 1.75263 0.754156 0
M  V30 2714 C 250.041 3.3238 0.928306 0
M  V30 2715 C 249.154 4.31814 0.126776 0
M  V30 2716 C 248.289 5.20468 1.06236 0
M  V30 2717 C 247.328 6.11577 0.253035 0
M  V30 2718 N 246.465 6.92754 1.14179 0
M  V30 2719 H 251.305 2.8778 -0.773727 0
M  V30 2720 H 248.842 1.41745 -0.393283 0
M  V30 2721 H 250.8 3.89813 1.48666 0
M  V30 2722 H 249.43 2.76976 1.65783 0
M  V30 2723 H 248.482 3.76427 -0.54833 0
M  V30 2724 H 249.794 4.96276 -0.501192 0
M  V30 2725 H 248.948 5.82677 1.69035 0
M  V30 2726 H 247.687 4.56204 1.7242 0
M  V30 2727 H 246.692 5.48428 -0.388108 0
M  V30 2728 H 247.917 6.77892 -0.404839 0
M  V30 2729 H 245.863 6.3111 1.78987 0
M  V30 2730 H 245.78 7.53855 0.569111 0
M  V30 2731 H 247.048 7.59441 1.75697 0
M  V30 2732 N 251.277 0.427512 1.51691 0
M  V30 2733 C 252.554 -0.201684 1.94557 0
M  V30 2734 C 252.934 -1.60981 1.36559 0
M  V30 2735 O 252.282 -2.21814 0.548702 0
M  V30 2736 C 252.492 -0.189394 3.48486 0
M  V30 2737 C 253.84 -0.39978 4.22714 0
M  V30 2738 O 254.864 -0.267945 3.55191 0
M  V30 2739 O 253.723 -0.661249 5.42485 0
M  V30 2740 H 250.817 -0.135261 0.815864 0
M  V30 2741 H 253.363 0.484782 1.62628 0
M  V30 2742 H 252.135 0.795431 3.8313 0
M  V30 2743 H 251.758 -0.919187 3.86829 0
M  V30 2744 N 252.755 -1.56801 0.158532 0
M  V30 2745 C 254.001 -1.96781 -0.490405 0
M  V30 2746 C 254.334 -1.04397 -1.63753 0
M  V30 2747 O 253.609 -0.0885805 -1.94298 0
M  V30 2748 C 253.892 -3.4635 -0.985594 0
M  V30 2749 C 253.745 -4.49512 0.160824 0
M  V30 2750 C 255.064 -3.98697 -1.86355 0
M  V30 2751 H 252.183 -0.715482 -0.176788 0
M  V30 2752 H 254.825 -1.88451 0.242088 0
M  V30 2753 H 252.975 -3.53579 -1.60978 0
M  V30 2754 H 254.647 -4.54353 0.797537 0
M  V30 2755 H 252.89 -4.26013 0.818256 0
M  V30 2756 H 253.561 -5.51531 -0.227569 0
M  V30 2757 H 256.037 -3.94019 -1.33746 0
M  V30 2758 H 254.913 -5.03792 -2.17909 0
M  V30 2759 H 255.174 -3.41744 -2.8047 0
M  V30 2760 N 254.233 0.115231 -1.57178 0
M  V30 2761 C 255.51 0.852873 -1.76027 0
M  V30 2762 C 255.89 1.97892 -0.73498 0
M  V30 2763 O 255.238 2.27232 0.24036 0
M  V30 2764 C 255.448 1.36608 -3.21153 0
M  V30 2765 C 256.796 1.81692 -3.83762 0
M  V30 2766 O 257.82 1.46278 -3.24779 0
M  V30 2767 O 256.679 2.47104 -4.87444 0
M  V30 2768 H 253.773 0.405296 -0.720877 0
M  V30 2769 H 256.319 0.0986785 -1.69413 0
M  V30 2770 H 255.091 0.558357 -3.87296 0
M  V30 2771 H 254.714 2.18287 -3.3232 0
M  V30 2772 N 255.711 1.52812 0.385517 0
M  V30 2773 C 256.643 1.74096 1.49074 0
M  V30 2774 C 257.656 0.621462 1.50472 0
M  V30 2775 O 258.845 0.897245 1.54311 0
M  V30 2776 C 255.945 1.78774 2.87911 0
M  V30 2777 C 255.118 3.08134 3.10439 0
M  V30 2778 C 254.177 3.04313 4.29278 0
M  V30 2779 O 253.203 3.78168 4.25415 0
M  V30 2780 N 254.405 2.23741 5.35649 0
M  V30 2781 H 257.17 2.69455 1.31202 0
M  V30 2782 H 254.731 1.51343 0.575065 0
M  V30 2783 H 256.723 1.73721 3.65518 0
M  V30 2784 H 255.293 0.907869 2.99126 0
M  V30 2785 H 254.513 3.26649 2.20667 0
M  V30 2786 H 255.801 3.93662 3.22347 0
M  V30 2787 H 255.199 1.63211 5.41645 0
M  V30 2788 H 253.756 2.24524 6.11909 0
M  V30 2789 N 257.189 -0.644168 1.43834 0
M  V30 2790 C 258.437 -1.40117 1.45642 0
M  V30 2791 C 258.758 -1.94814 0.0852413 0
M  V30 2792 O 258.028 -1.74988 -0.880688 0
M  V30 2793 H 256.608 -0.52005 0.536243 0
M  V30 2794 H 259.27 -0.7591 1.7951 0
M  V30 2795 H 258.366 -2.23902 2.17427 0
M  V30 2796 N 258.668 -1.30515 -0.883378 0
M  V30 2797 C 259.893 -1.22487 -1.67367 0
M  V30 2798 C 260.318 0.208767 -1.86938 0
M  V30 2799 O 259.676 1.15015 -1.40148 0
M  V30 2800 C 259.724 -1.96041 -3.02655 0
M  V30 2801 O 258.828 -1.28859 -3.91751 0
M  V30 2802 H 258.169 -0.423573 -0.511353 0
M  V30 2803 H 260.699 -1.72362 -1.10239 0
M  V30 2804 H 260.709 -2.05124 -3.52687 0
M  V30 2805 H 259.384 -3.00307 -2.8773 0
M  V30 2806 H 257.961 -1.28141 -3.50192 0
M  V30 2807 N 260.146 1.09593 -1.13257 0
M  V30 2808 C 261.076 2.18214 -0.830946 0
M  V30 2809 C 262.057 1.68812 0.208966 0
M  V30 2810 O 263.242 1.9408 0.0682666 0
M  V30 2811 C 260.372 3.46051 -0.294296 0
M  V30 2812 C 259.326 4.08778 -1.26826 0
M  V30 2813 C 258.652 5.31419 -0.591449 0
M  V30 2814 C 259.952 4.51476 -2.62615 0
M  V30 2815 H 261.646 2.43703 -1.73923 0
M  V30 2816 H 259.192 1.17128 -0.837675 0
M  V30 2817 H 261.145 4.2134 -0.0709606 0
M  V30 2818 H 259.869 3.20079 0.649366 0
M  V30 2819 H 258.528 3.35505 -1.47756 0
M  V30 2820 H 258.176 5.01727 0.357633 0
M  V30 2821 H 257.876 5.74341 -1.24123 0
M  V30 2822 H 259.4 6.09433 -0.377355 0
M  V30 2823 H 260.814 5.17999 -2.45663 0
M  V30 2824 H 259.211 5.05277 -3.23752 0
M  V30 2825 H 260.281 3.63962 -3.20406 0
M  V30 2826 N 261.624 0.925811 1.2754 0
M  V30 2827 C 262.864 0.572521 1.96218 0
M  V30 2828 C 263.228 -0.869719 1.71172 0
M  V30 2829 O 264.429 -1.33119 2.33523 0
M  V30 2830 C 262.7 0.887325 3.4621 0
M  V30 2831 S 264.259 0.642266 4.34074 0
M  V30 2832 H 261.077 0.211403 0.678845 0
M  V30 2833 H 263.679 1.19384 1.54815 0
M  V30 2834 H 262.383 1.93469 3.61936 0
M  V30 2835 H 261.914 0.255123 3.92572 0
M  V30 2836 H 263.929 -0.500822 4.93666 0
M  V30 2837 N 263.102 -1.41638 0.69111 0
M  V30 2838 C 264.33 -2.05628 0.22909 0
M  V30 2839 C 264.745 -1.51992 -1.11999 0
M  V30 2840 O 264.102 -0.666322 -1.69901 0
M  V30 2841 C 264.153 -3.61084 0.173283 0
M  V30 2842 O 263.874 -4.12735 1.46907 0
M  V30 2843 C 265.375 -4.42213 -0.310266 0
M  V30 2844 H 262.595 -0.662327 0.107534 0
M  V30 2845 H 265.139 -1.81489 0.942438 0
M  V30 2846 H 263.294 -3.84278 -0.490858 0
M  V30 2847 H 263.708 -5.06743 1.35322 0
M  V30 2848 H 265.182 -5.51194 -0.298196 0
M  V30 2849 H 265.659 -4.1799 -1.34838 0
M  V30 2850 H 266.265 -4.24074 0.322716 0
M  V30 2851 N 264.58 -0.43555 -1.51462 0
M  V30 2852 C 265.805 0.132627 -2.06976 0
M  V30 2853 C 266.23 1.35848 -1.30104 0
M  V30 2854 O 265.588 1.78112 -0.338493 0
M  V30 2855 C 265.636 0.43523 -3.57964 0
M  V30 2856 O 264.74 1.52198 -3.83288 0
M  V30 2857 H 264.081 0.00265 -0.663995 0
M  V30 2858 H 266.611 -0.616369 -1.95095 0
M  V30 2859 H 266.621 0.686206 -4.02188 0
M  V30 2860 H 265.296 -0.460739 -4.1334 0
M  V30 2861 H 263.873 1.2611 -3.50928 0
M  V30 2862 N 266.058 1.56714 -0.166846 0
M  V30 2863 C 267.305 1.96747 0.479252 0
M  V30 2864 C 267.633 1.05263 1.63554 0
M  V30 2865 O 266.888 0.0858098 1.95512 0
M  V30 2866 C 267.187 3.42889 1.00806 0
M  V30 2867 C 266.853 4.50889 -0.0318574 0
M  V30 2868 C 265.515 4.8015 -0.317675 0
M  V30 2869 C 267.867 5.15949 -0.737956 0
M  V30 2870 C 265.195 5.71772 -1.31506 0
M  V30 2871 C 267.547 6.08647 -1.72429 0
M  V30 2872 C 266.211 6.36277 -2.0176 0
M  V30 2873 H 265.481 0.719949 0.175371 0
M  V30 2874 H 268.128 1.89756 -0.257864 0
M  V30 2875 H 266.433 3.4681 1.82291 0
M  V30 2876 H 268.13 3.71203 1.51689 0
M  V30 2877 H 264.72 4.28128 0.201088 0
M  V30 2878 H 268.904 4.93458 -0.530351 0
M  V30 2879 H 264.16 5.91465 -1.54853 0
M  V30 2880 H 268.334 6.58129 -2.27682 0
M  V30 2881 H 265.961 7.07075 -2.79194 0
M  V30 2882 N 267.536 -0.106894 1.57237 0
M  V30 2883 C 268.782 -0.81373 1.85759 0
M  V30 2884 C 269.115 -1.78952 0.754315 0
M  V30 2885 O 268.39 -1.93029 -0.23879 0
M  V30 2886 C 268.673 -1.55293 3.24894 0
M  V30 2887 C 268.526 -0.595929 4.45835 0
M  V30 2888 C 269.845 -2.5063 3.61763 0
M  V30 2889 H 266.964 -0.294369 0.67566 0
M  V30 2890 H 269.606 -0.0776472 1.89841 0
M  V30 2891 H 267.756 -2.1804 3.21544 0
M  V30 2892 H 269.428 0.0236262 4.61294 0
M  V30 2893 H 267.671 0.0916191 4.33703 0
M  V30 2894 H 268.342 -1.15004 5.39887 0
M  V30 2895 H 270.818 -1.97982 3.65981 0
M  V30 2896 H 269.694 -2.99376 4.60071 0
M  V30 2897 H 269.955 -3.3385 2.89821 0
M  V30 2898 N 269.014 -1.53014 -0.377408 0
M  V30 2899 C 270.262 -1.6829 -1.11906 0
M  V30 2900 C 270.583 -0.431206 -1.90173 0
M  V30 2901 O 269.853 0.554595 -1.87886 0
M  V30 2902 H 268.433 -0.620371 -0.416112 0
M  V30 2903 H 271.095 -1.90167 -0.426893 0
M  V30 2904 H 270.191 -2.53862 -1.8155 0
M  V30 2905 N 270.492 0.636531 -1.44174 0
M  V30 2906 C 271.72 1.42353 -1.50144 0
M  V30 2907 C 272.135 1.88389 -0.124575 0
M  V30 2908 O 271.492 1.6051 0.868489 0
M  V30 2909 C 271.543 2.64744 -2.46156 0
M  V30 2910 O 271.264 2.20629 -3.7849 0
M  V30 2911 C 272.765 3.57929 -2.61537 0
M  V30 2912 H 269.985 0.436752 -0.5094 0
M  V30 2913 H 272.529 0.778933 -1.89084 0
M  V30 2914 H 270.684 3.25307 -2.10366 0
M  V30 2915 H 271.098 2.99938 -4.30276 0
M  V30 2916 H 272.572 4.40428 -3.32757 0
M  V30 2917 H 273.049 4.06382 -1.66585 0
M  V30 2918 H 273.655 3.03238 -2.98206 0
M  V30 2919 N 271.97 1.30982 0.876444 0
M  V30 2920 C 272.9 1.20668 1.99903 0
M  V30 2921 C 273.881 0.095354 1.69833 0
M  V30 2922 O 275.066 0.27885 1.92188 0
M  V30 2923 C 272.196 0.90655 3.3526 0
M  V30 2924 C 271.15 1.97675 3.79617 0
M  V30 2925 C 270.476 1.52943 5.1236 0
M  V30 2926 C 271.776 3.389 3.97422 0
M  V30 2927 H 273.47 2.14586 2.0879 0
M  V30 2928 H 271.016 1.03308 1.00317 0
M  V30 2929 H 272.969 0.821025 4.13324 0
M  V30 2930 H 271.693 -0.0682969 3.26529 0
M  V30 2931 H 270.352 2.05205 3.03787 0
M  V30 2932 H 270 0.54262 5.00065 0
M  V30 2933 H 269.7 2.24532 5.43009 0
M  V30 2934 H 271.224 1.45786 5.92941 0
M  V30 2935 H 272.638 3.34081 4.659 0
M  V30 2936 H 271.035 4.0865 4.3946 0
M  V30 2937 H 272.105 3.80163 3.01006 0
M  V30 2938 N 273.449 -1.08991 1.13837 0
M  V30 2939 C 274.381 -2.15606 0.777612 0
M  V30 2940 C 275.394 -1.61533 -0.202739 0
M  V30 2941 O 276.583 -1.78491 0.0181055 0
M  V30 2942 C 273.683 -3.3864 0.132623 0
M  V30 2943 C 272.856 -4.22115 1.1462 0
M  V30 2944 C 271.915 -5.23564 0.526074 0
M  V30 2945 O 270.941 -5.56678 1.18735 0
M  V30 2946 N 272.143 -5.76266 -0.699866 0
M  V30 2947 H 274.908 -2.47159 1.69506 0
M  V30 2948 H 272.469 -1.24747 1.03198 0
M  V30 2949 H 274.461 -4.03626 -0.29459 0
M  V30 2950 H 273.031 -3.04938 -0.687849 0
M  V30 2951 H 272.251 -3.53199 1.75055 0
M  V30 2952 H 273.539 -4.74709 1.83109 0
M  V30 2953 H 272.937 -5.51585 -1.25581 0
M  V30 2954 H 271.494 -6.42963 -1.06968 0
M  V30 2955 N 274.927 -0.932562 -1.27047 0
M  V30 2956 C 276.157 -0.591173 -1.97961 0
M  V30 2957 C 276.565 0.836219 -1.69717 0
M  V30 2958 O 275.908 1.56801 -0.957036 0
M  V30 2959 C 275.97 -0.743082 -3.51736 0
M  V30 2960 C 275.634 -2.1435 -4.03613 0
M  V30 2961 C 276.631 -3.11815 -4.16014 0
M  V30 2962 C 274.316 -2.46175 -4.37839 0
M  V30 2963 C 276.31 -4.39211 -4.61923 0
M  V30 2964 C 273.997 -3.73806 -4.83438 0
M  V30 2965 C 274.995 -4.70137 -4.95439 0
M  V30 2966 O 274.683 -5.95496 -5.40037 0
M  V30 2967 H 274.415 -0.222375 -0.638377 0
M  V30 2968 H 276.969 -1.25317 -1.62742 0
M  V30 2969 H 275.199 -0.0239739 -3.86693 0
M  V30 2970 H 276.888 -0.40603 -4.03864 0
M  V30 2971 H 277.654 -2.88549 -3.89826 0
M  V30 2972 H 273.533 -1.71936 -4.27737 0
M  V30 2973 H 277.077 -5.14404 -4.71205 0
M  V30 2974 H 272.974 -3.96888 -5.09068 0
M  V30 2975 H 273.742 -5.98554 -5.58279 0
M  V30 2976 N 276.405 1.4127 -0.698611 0
M  V30 2977 C 277.335 2.33447 -0.049629 0
M  V30 2978 C 278.316 1.51982 0.763898 0
M  V30 2979 O 279.501 1.80509 0.716257 0
M  V30 2980 C 276.631 3.35828 0.885267 0
M  V30 2981 C 275.585 4.27627 0.178613 0
M  V30 2982 C 274.911 5.20406 1.22807 0
M  V30 2983 C 276.211 5.13459 -0.956933 0
M  V30 2984 H 277.905 2.87966 -0.81951 0
M  V30 2985 H 275.451 1.38461 -0.395538 0
M  V30 2986 H 277.404 3.9924 1.34854 0
M  V30 2987 H 276.128 2.79666 1.68685 0
M  V30 2988 H 274.787 3.65643 -0.26466 0
M  V30 2989 H 274.435 4.60558 2.02226 0
M  V30 2990 H 274.135 5.82661 0.760239 0
M  V30 2991 H 275.659 5.86695 1.69179 0
M  V30 2992 H 277.073 5.70421 -0.573805 0
M  V30 2993 H 275.47 5.8467 -1.35205 0
M  V30 2994 H 276.54 4.50443 -1.79524 0
M  V30 2995 N 277.883 0.443576 1.51229 0
M  V30 2996 C 278.846 -0.353132 2.26463 0
M  V30 2997 C 279.846 -0.944338 1.3015 0
M  V30 2998 O 281.036 -0.817813 1.5381 0
M  V30 2999 C 278.168 -1.50023 3.06114 0
M  V30 3000 H 279.361 0.3063 2.98332 0
M  V30 3001 H 276.914 0.196902 1.55055 0
M  V30 3002 H 277.649 -2.19553 2.38677 0
M  V30 3003 H 277.434 -1.08241 3.76864 0
M  V30 3004 H 278.924 -2.06296 3.63087 0
M  V30 3005 N 279.361 -1.56624 0.175154 0
M  V30 3006 C 280.772 -1.83561 -0.340916 0
M  V30 3007 C 281.123 -1.09511 -1.62794 0
M  V30 3008 O 280.248 -0.349389 -2.13561 0
M  V30 3009 C 280.843 -3.32979 -0.625313 0
M  V30 3010 C 279.402 -3.60399 -1.08581 0
M  V30 3011 C 278.549 -2.77024 -0.123722 0
M  V30 3012 H 281.5 -1.53593 0.399344 0
M  V30 3013 H 281.521 -3.50666 -1.47694 0
M  V30 3014 H 281.033 -3.86847 0.311575 0
M  V30 3015 H 279.134 -3.11945 -2.03767 0
M  V30 3016 H 279.247 -4.68711 -0.992317 0
M  V30 3017 H 277.611 -2.46993 -0.621821 0
M  V30 3018 H 278.394 -3.33674 0.807256 0
M  V30 3019 N 280.839 0.0985539 -1.57292 0
M  V30 3020 C 281.749 1.13824 -2.05137 0
M  V30 3021 C 282.765 1.44076 -0.975604 0
M  V30 3022 O 283.941 1.54786 -1.28853 0
M  V30 3023 C 281.006 2.43969 -2.46333 0
M  V30 3024 C 280.067 2.2093 -3.68087 0
M  V30 3025 C 279.3 3.44869 -4.0731 0
M  V30 3026 O 279.523 4.52972 -3.46659 0
M  V30 3027 O 278.457 3.34661 -5.00285 0
M  V30 3028 H 282.283 0.761881 -2.93988 0
M  V30 3029 H 279.868 0.310818 -1.46131 0
M  V30 3030 H 281.75 3.20609 -2.73473 0
M  V30 3031 H 280.425 2.81038 -1.60621 0
M  V30 3032 H 279.332 1.42081 -3.46069 0
M  V30 3033 H 280.665 1.88755 -4.54568 0
M  V30 3034 N 282.317 1.53212 0.369288 0
M  V30 3035 C 283.247 1.82365 1.45826 0
M  V30 3036 C 284.228 0.676907 1.56051 0
M  V30 3037 O 285.413 0.926401 1.70679 0
M  V30 3038 C 282.543 2.01023 2.83208 0
M  V30 3039 C 281.497 3.1678 2.8781 0
M  V30 3040 C 280.823 3.20724 4.27832 0
M  V30 3041 C 282.123 4.55447 2.55667 0
M  V30 3042 H 283.817 2.73559 1.21678 0
M  V30 3043 H 281.363 1.3163 0.583911 0
M  V30 3044 H 283.316 2.20001 3.59413 0
M  V30 3045 H 282.04 1.06536 3.08736 0
M  V30 3046 H 280.699 2.97616 2.14056 0
M  V30 3047 H 280.347 2.23882 4.50429 0
M  V30 3048 H 280.047 3.98496 4.31827 0
M  V30 3049 H 281.571 3.41881 5.05915 0
M  V30 3050 H 282.985 4.74611 3.21586 0
M  V30 3051 H 281.382 5.35432 2.70984 0
M  V30 3052 H 282.452 4.60812 1.5093 0
M  V30 3053 N 283.795 -0.628877 1.44509 0
M  V30 3054 C 285.042 -1.38839 1.47411 0
M  V30 3055 C 285.37 -1.94202 0.10757 0
M  V30 3056 O 284.625 -1.74243 -0.890947 0
M  V30 3057 C 284.924 -2.56995 2.48371 0
M  V30 3058 C 284.59 -2.19908 3.93639 0
M  V30 3059 C 283.252 -2.09506 4.33198 0
M  V30 3060 C 285.604 -1.9064 4.85083 0
M  V30 3061 C 282.932 -1.68028 5.62124 0
M  V30 3062 C 285.284 -1.50655 6.14399 0
M  V30 3063 C 283.948 -1.38796 6.5291 0
M  V30 3064 H 283.218 -0.508048 0.539414 0
M  V30 3065 H 285.865 -0.712913 1.77735 0
M  V30 3066 H 284.17 -3.29786 2.11538 0
M  V30 3067 H 285.867 -3.15223 2.47861 0
M  V30 3068 H 282.457 -2.28922 3.62343 0
M  V30 3069 H 286.641 -1.97585 4.55273 0
M  V30 3070 H 281.897 -1.57452 5.90778 0
M  V30 3071 H 286.071 -1.27048 6.84713 0
M  V30 3072 H 283.698 -1.06429 7.52713 0
M  V30 3073 N 285.273 -1.31445 -0.869486 0
M  V30 3074 C 286.183 -1.21097 -2.0093 0
M  V30 3075 C 287.199 -0.127584 -1.73532 0
M  V30 3076 O 288.375 -0.345477 -1.98415 0
M  V30 3077 C 285.44 -0.919378 -3.34288 0
M  V30 3078 C 284.501 -2.08971 -3.75006 0
M  V30 3079 C 283.734 -1.81194 -5.02001 0
M  V30 3080 O 283.957 -0.747296 -5.65484 0
M  V30 3081 O 282.891 -2.66883 -5.39497 0
M  V30 3082 H 286.717 -2.16883 -2.12592 0
M  V30 3083 H 284.302 -1.11189 -0.997868 0
M  V30 3084 H 286.184 -0.772625 -4.14257 0
M  V30 3085 H 284.859 0.00844772 -3.23699 0
M  V30 3086 H 283.766 -2.29187 -2.95676 0
M  V30 3087 H 285.099 -2.9998 -3.90221 0
M  V30 3088 N 286.751 1.08385 -1.14413 0
M  V30 3089 C 287.699 2.17406 -0.826888 0
M  V30 3090 C 288.693 1.6827 0.195312 0
M  V30 3091 O 289.899 1.79927 0.0513892 0
M  V30 3092 H 286.274 0.70934 -0.249681 0
M  V30 3093 H 288.245 2.41388 -1.75426 0
M  V30 3094 C 286.994 3.46215 -0.320979 0
M  V30 3095 H 286.317 3.84401 -1.0989 0
M  V30 3096 H 287.757 4.23777 -0.137549 0
M  V30 3097 C 286.216 3.23067 0.955472 0
M  V30 3098 O 286.746 3.4668 2.02918 0
M  V30 3099 N 284.952 2.7661 0.890798 0
M  V30 3100 H 284.499 2.57594 0.0168815 0
M  V30 3101 H 284.457 2.61501 1.74542 0
M  V30 3102 N 288.23 0.939286 1.26551 0
M  V30 3103 C 289.177 0.446088 2.26448 0
M  V30 3104 C 290.147 -0.493234 1.58608 0
M  V30 3105 O 291.332 -0.409857 1.86346 0
M  V30 3106 C 288.472 -0.284375 3.43926 0
M  V30 3107 C 287.585 0.690399 4.26448 0
M  V30 3108 C 286.72 -0.0610712 5.31165 0
M  V30 3109 C 285.759 0.905649 6.05363 0
M  V30 3110 N 284.896 0.186055 7.01853 0
M  V30 3111 H 289.736 1.30291 2.68008 0
M  V30 3112 H 287.273 0.65371 1.31776 0
M  V30 3113 H 289.231 -0.724313 4.10864 0
M  V30 3114 H 287.861 -1.10535 3.03285 0
M  V30 3115 H 286.913 1.24885 3.59316 0
M  V30 3116 H 288.225 1.42873 4.779 0
M  V30 3117 H 287.379 -0.56038 6.04106 0
M  V30 3118 H 286.118 -0.832297 4.80546 0
M  V30 3119 H 285.123 1.4161 5.3125 0
M  V30 3120 H 286.348 1.67685 6.58072 0
M  V30 3121 H 284.294 -0.566714 6.53548 0
M  V30 3122 H 284.211 0.863752 7.51049 0
M  V30 3123 H 285.479 -0.292221 7.78952 0
M  V30 3124 N 289.708 -1.40897 0.706093 0
M  V30 3125 C 291.119 -1.84023 0.315052 0
M  V30 3126 C 291.47 -1.5906 -1.14866 0
M  V30 3127 O 290.595 -1.06651 -1.88293 0
M  V30 3128 C 291.19 -3.34055 0.565038 0
M  V30 3129 C 289.749 -3.7571 0.227806 0
M  V30 3130 C 288.896 -2.64204 0.842122 0
M  V30 3131 H 291.847 -1.303 0.905963 0
M  V30 3132 H 291.868 -3.80107 -0.172843 0
M  V30 3133 H 291.38 -3.52192 1.63042 0
M  V30 3134 H 289.481 -3.63172 -0.832895 0
M  V30 3135 H 289.594 -4.74103 0.690174 0
M  V30 3136 H 287.958 -2.53255 0.270893 0
M  V30 3137 H 288.741 -2.85155 1.91158 0
M  V30 3138 N 291.186 -0.45159 -1.50991 0
M  V30 3139 C 292.416 0.108177 -2.06317 0
M  V30 3140 C 292.824 1.35774 -1.31765 0
M  V30 3141 O 292.167 1.79838 -0.374694 0
M  V30 3142 C 292.229 0.481659 -3.56259 0
M  V30 3143 C 291.893 -0.663114 -4.52163 0
M  V30 3144 C 292.89 -1.53947 -4.96585 0
M  V30 3145 C 290.575 -0.8479 -4.95092 0
M  V30 3146 C 292.569 -2.58518 -5.82621 0
M  V30 3147 C 290.256 -1.89686 -5.80915 0
M  V30 3148 C 291.254 -2.76388 -6.24579 0
M  V30 3149 O 290.942 -3.79482 -7.08695 0
M  V30 3150 H 290.674 0.00499183 -0.675982 0
M  V30 3151 H 293.228 -0.633659 -1.95381 0
M  V30 3152 H 291.458 1.27641 -3.65027 0
M  V30 3153 H 293.147 0.974233 -3.94035 0
M  V30 3154 H 293.913 -1.4083 -4.64103 0
M  V30 3155 H 289.792 -0.18258 -4.60638 0
M  V30 3156 H 293.336 -3.26224 -6.16623 0
M  V30 3157 H 289.233 -2.02817 -6.12809 0
M  V30 3158 H 290.001 -3.76234 -7.26905 0
M  V30 3159 N 292.664 1.56529 -0.183458 0
M  V30 3160 C 293.892 2.01623 0.464285 0
M  V30 3161 C 294.307 1.06366 1.55986 0
M  V30 3162 O 293.664 0.0665398 1.82379 0
M  V30 3163 C 293.715 3.46475 1.03139 0
M  V30 3164 O 293.436 4.38095 -0.0204675 0
M  V30 3165 C 294.937 4.0703 1.75617 0
M  V30 3166 H 292.157 0.660596 0.117704 0
M  V30 3167 H 294.701 2.02451 -0.288751 0
M  V30 3168 H 292.856 3.46383 1.73486 0
M  V30 3169 H 293.27 5.22973 0.399952 0
M  V30 3170 H 294.744 5.10271 2.10542 0
M  V30 3171 H 295.221 3.49819 2.65563 0
M  V30 3172 H 295.827 4.1086 1.09882 0
M  V30 3173 N 294.142 -0.090211 1.57342 0
M  V30 3174 C 295.105 -1.09335 2.01441 0
M  V30 3175 C 296.105 -1.32666 0.908641 0
M  V30 3176 O 297.295 -1.28697 1.174 0
M  V30 3177 C 294.427 -2.44136 2.3793 0
M  V30 3178 H 295.62 -0.713662 2.91285 0
M  V30 3179 H 293.173 -0.335404 1.52659 0
M  V30 3180 H 293.908 -2.86972 1.51055 0
M  V30 3181 H 293.693 -2.28548 3.18603 0
M  V30 3182 H 295.183 -3.16277 2.72688 0
M  V30 3183 N 295.62 -1.53406 -0.361157 0
M  V30 3184 C 296.848 -1.73717 -1.12383 0
M  V30 3185 C 297.263 -0.468161 -1.82904 0
M  V30 3186 O 296.62 0.559198 -1.73722 0
M  V30 3187 C 296.671 -2.90558 -2.15078 0
M  V30 3188 O 296.392 -4.12549 -1.47428 0
M  V30 3189 C 297.893 -3.22777 -3.03858 0
M  V30 3190 H 295.113 -0.580896 -0.335858 0
M  V30 3191 H 297.657 -2.00167 -0.418728 0
M  V30 3192 H 295.812 -2.66489 -2.8118 0
M  V30 3193 H 296.226 -4.78009 -2.15887 0
M  V30 3194 H 297.7 -4.07927 -3.71887 0
M  V30 3195 H 298.177 -2.38329 -3.68912 0
M  V30 3196 H 298.783 -3.48787 -2.43367 0
M  V30 3197 N 297.098 0.621204 -1.44841 0
M  V30 3198 C 298.344 1.3826 -1.48365 0
M  V30 3199 C 298.677 1.93831 -0.119624 0
M  V30 3200 O 297.952 1.74251 0.864111 0
M  V30 3201 C 298.235 2.54058 -2.55199 0
M  V30 3202 C 298.088 2.03772 -4.00995 0
M  V30 3203 C 299.407 3.56225 -2.58442 0
M  V30 3204 H 296.526 0.501374 -0.540179 0
M  V30 3205 H 299.168 0.7015 -1.76576 0
M  V30 3206 H 297.318 3.12162 -2.31274 0
M  V30 3207 H 298.99 1.50423 -4.36086 0
M  V30 3208 H 297.233 1.34876 -4.12299 0
M  V30 3209 H 297.904 2.87185 -4.71411 0
M  V30 3210 H 300.38 3.07939 -2.79844 0
M  V30 3211 H 299.256 4.34756 -3.3508 0
M  V30 3212 H 299.517 4.10949 -1.63013 0
M  V30 3213 N 298.576 1.31904 0.862503 0
M  V30 3214 C 299.853 1.12644 1.59908 0
M  V30 3215 C 300.233 -0.316104 2.0872 0
M  V30 3216 O 299.581 -1.31145 1.87118 0
M  V30 3217 C 299.791 2.1472 2.7513 0
M  V30 3218 C 301.139 2.47637 3.44907 0
M  V30 3219 O 302.163 2.13205 2.85346 0
M  V30 3220 O 301.022 3.06632 4.52371 0
M  V30 3221 H 298.116 0.43416 0.703871 0
M  V30 3222 H 300.662 1.43408 0.907314 0
M  V30 3223 H 299.434 3.1172 2.3653 0
M  V30 3224 H 299.057 1.84905 3.51989 0
M  V30 3225 N 300.054 -1.07777 1.14986 0
M  V30 3226 C 301.284 -1.83752 0.944402 0
M  V30 3227 C 301.692 -1.8218 -0.51058 0
M  V30 3228 O 301.035 -1.22852 -1.36576 0
M  V30 3229 C 301.097 -3.32128 1.37592 0
M  V30 3230 C 300.761 -3.57425 2.84775 0
M  V30 3231 C 301.758 -3.5173 3.8286 0
M  V30 3232 C 299.443 -3.8523 3.2234 0
M  V30 3233 C 301.437 -3.73482 5.16517 0
M  V30 3234 C 299.124 -4.06634 4.56171 0
M  V30 3235 C 300.122 -4.00754 5.53069 0
M  V30 3236 O 299.81 -4.2159 6.84483 0
M  V30 3237 H 299.542 -0.58673 0.335744 0
M  V30 3238 H 302.096 -1.36982 1.53052 0
M  V30 3239 H 300.326 -3.79686 0.733165 0
M  V30 3240 H 302.015 -3.89555 1.14024 0
M  V30 3241 H 302.781 -3.30256 3.55184 0
M  V30 3242 H 298.66 -3.88923 2.47508 0
M  V30 3243 H 302.204 -3.68808 5.92137 0
M  V30 3244 H 298.101 -4.27593 4.83564 0
M  V30 3245 H 298.869 -4.38961 6.90837 0
M  V30 3246 N 301.532 -0.945985 -1.26051 0
M  V30 3247 C 302.778 -0.606539 -1.94146 0
M  V30 3248 C 303.133 0.84586 -1.72809 0
M  V30 3249 O 302.426 1.59781 -1.05738 0
M  V30 3250 C 302.62 -0.890475 -3.46129 0
M  V30 3251 C 302.449 -2.36892 -3.82246 0
M  V30 3252 C 301.219 -3.02494 -4.04753 0
M  V30 3253 C 303.417 -3.34772 -3.90425 0
M  V30 3254 N 301.399 -4.40302 -4.27794 0
M  V30 3255 C 302.77 -4.57855 -4.18054 0
M  V30 3256 C 304.825 -3.2973 -3.73072 0
M  V30 3257 C 303.528 -5.76522 -4.30134 0
M  V30 3258 C 305.554 -4.47727 -3.86386 0
M  V30 3259 C 304.916 -5.69593 -4.14419 0
M  V30 3260 H 301.015 -0.272407 -0.73302 0
M  V30 3261 H 303.599 -1.21638 -1.52027 0
M  V30 3262 H 301.77 -0.309638 -3.87164 0
M  V30 3263 H 303.502 -0.51181 -4.01451 0
M  V30 3264 H 300.257 -2.53095 -4.003 0
M  V30 3265 H 300.681 -5.11646 -4.43337 0
M  V30 3266 H 305.323 -2.36565 -3.50424 0
M  V30 3267 H 303.041 -6.70136 -4.51601 0
M  V30 3268 H 306.627 -4.45363 -3.74356 0
M  V30 3269 H 305.507 -6.59375 -4.24493 0
M  V30 3270 N 303.011 1.40521 -0.713556 0
M  V30 3271 C 304.236 2.05759 -0.26035 0
M  V30 3272 C 304.661 1.53403 1.08854 0
M  V30 3273 O 304.019 0.668535 1.68524 0
M  V30 3274 C 304.067 3.59745 -0.248122 0
M  V30 3275 O 303.171 4.05123 0.77131 0
M  V30 3276 H 302.512 0.652564 -0.122703 0
M  V30 3277 H 305.042 1.79958 -0.973467 0
M  V30 3278 H 305.052 4.07911 -0.0851129 0
M  V30 3279 H 303.727 3.97218 -1.2325 0
M  V30 3280 H 302.304 3.68422 0.57619 0
M  V30 3281 N 304.489 0.459591 1.5075 0
M  V30 3282 C 305.736 -0.0993495 2.02256 0
M  V30 3283 C 306.064 -1.40751 1.34237 0
M  V30 3284 O 305.319 -1.90379 0.453228 0
M  V30 3285 C 305.618 -0.342866 3.55752 0
M  V30 3286 C 305.284 0.88218 4.42186 0
M  V30 3287 C 303.946 1.21808 4.65528 0
M  V30 3288 C 306.298 1.69837 4.92752 0
M  V30 3289 C 303.626 2.37045 5.36681 0
M  V30 3290 C 305.978 2.84192 5.65171 0
M  V30 3291 C 304.642 3.1821 5.8677 0
M  V30 3292 H 303.912 -0.0363545 0.740108 0
M  V30 3293 H 306.559 0.611329 1.8148 0
M  V30 3294 H 304.864 -1.13567 3.7498 0
M  V30 3295 H 306.561 -0.789121 3.93159 0
M  V30 3296 H 303.151 0.610467 4.2423 0
M  V30 3297 H 307.335 1.45205 4.74583 0
M  V30 3298 H 302.591 2.63689 5.51614 0
M  V30 3299 H 306.765 3.4779 6.03337 0
M  V30 3300 H 304.392 4.07613 6.41682 0
M  V30 3301 N 305.967 -1.56429 0.191757 0
M  V30 3302 C 307.215 -1.97095 -0.447006 0
M  V30 3303 C 307.536 -1.07967 -1.62383 0
M  V30 3304 O 306.806 -0.150248 -1.95323 0
M  V30 3305 H 305.386 -0.727832 -0.168135 0
M  V30 3306 H 308.048 -1.92911 0.27771 0
M  V30 3307 H 307.144 -3.01848 -0.793371 0
M  V30 3308 N 307.445 0.0818655 -1.57387 0
M  V30 3309 C 308.673 0.796108 -1.9097 0
M  V30 3310 C 309.088 1.71626 -0.786757 0
M  V30 3311 O 308.445 1.80908 0.240513 0
M  V30 3312 C 308.496 1.59829 -3.24248 0
M  V30 3313 O 308.217 0.715131 -4.32224 0
M  V30 3314 C 309.718 2.41442 -3.7178 0
M  V30 3315 H 306.938 0.22691 -0.631469 0
M  V30 3316 H 309.482 0.0551439 -2.04426 0
M  V30 3317 H 307.637 2.29163 -3.12351 0
M  V30 3318 H 308.051 1.27205 -5.08841 0
M  V30 3319 H 309.525 2.932 -4.67694 0
M  V30 3320 H 310.002 3.2051 -3.00283 0
M  V30 3321 H 310.608 1.77283 -3.86589 0
M  V30 3322 N 308.923 1.53595 0.353017 0
M  V30 3323 C 309.856 1.7572 1.45594 0
M  V30 3324 C 310.834 0.605961 1.50887 0
M  V30 3325 O 312.018 0.840023 1.68748 0
M  V30 3326 C 309.145 1.84732 2.83887 0
M  V30 3327 C 308.191 3.06808 2.96262 0
M  V30 3328 S 309.024 4.66065 2.63711 0
M  V30 3329 C 310.18 4.77943 4.04131 0
M  V30 3330 H 310.413 2.68994 1.26608 0
M  V30 3331 H 307.946 1.44343 0.548117 0
M  V30 3332 H 309.904 1.9061 3.63563 0
M  V30 3333 H 308.565 0.92488 3.00175 0
M  V30 3334 H 307.758 3.09761 3.97573 0
M  V30 3335 H 307.36 2.99108 2.24523 0
M  V30 3336 H 309.652 4.5877 4.98534 0
M  V30 3337 H 310.595 5.80022 4.06177 0
M  V30 3338 H 311.003 4.06472 3.91715 0
M  V30 3339 N 310.401 -0.613514 1.45168 0
M  V30 3340 C 311.647 -1.37471 1.49096 0
M  V30 3341 C 311.98 -1.93765 0.129901 0
M  V30 3342 O 311.255 -1.74707 -0.854858 0
M  V30 3343 C 311.538 -2.52701 2.56542 0
M  V30 3344 C 311.391 -2.01643 4.0207 0
M  V30 3345 C 312.71 -3.54849 2.60327 0
M  V30 3346 H 309.829 -0.498502 0.54283 0
M  V30 3347 H 312.471 -0.692125 1.76945 0
M  V30 3348 H 310.621 -3.10931 2.32926 0
M  V30 3349 H 312.293 -1.48108 4.36877 0
M  V30 3350 H 310.536 -1.32688 4.13009 0
M  V30 3351 H 311.207 -2.84681 4.72928 0
M  V30 3352 H 313.683 -3.0645 2.81474 0
M  V30 3353 H 312.559 -4.32973 3.37381 0
M  V30 3354 H 312.82 -4.10079 1.6519 0
M  V30 3355 N 311.879 -1.3236 -0.855495 0
M  V30 3356 C 313.126 -1.22872 -1.60962 0
M  V30 3357 C 313.454 0.209658 -1.93367 0
M  V30 3358 O 312.709 1.16243 -1.57436 0
M  V30 3359 C 313.008 -2.03275 -2.93963 0
M  V30 3360 C 312.674 -3.5264 -2.80991 0
M  V30 3361 C 311.336 -3.93364 -2.7716 0
M  V30 3362 C 313.688 -4.47626 -2.66983 0
M  V30 3363 C 311.016 -5.27319 -2.572 0
M  V30 3364 C 313.368 -5.81723 -2.48558 0
M  V30 3365 C 312.032 -6.2165 -2.4312 0
M  V30 3366 H 311.302 -0.44962 -0.589001 0
M  V30 3367 H 313.949 -1.63777 -0.992442 0
M  V30 3368 H 312.254 -1.55095 -3.59795 0
M  V30 3369 H 313.951 -1.93303 -3.51333 0
M  V30 3370 H 310.541 -3.20295 -2.84797 0
M  V30 3371 H 314.725 -4.17084 -2.68988 0
M  V30 3372 H 309.981 -5.57311 -2.51424 0
M  V30 3373 H 314.155 -6.5494 -2.36699 0
M  V30 3374 H 311.782 -7.25388 -2.27412 0
M  V30 3375 N 313.357 1.07166 -1.15556 0
M  V30 3376 C 314.267 2.17947 -0.868116 0
M  V30 3377 C 315.283 1.73297 0.156297 0
M  V30 3378 O 316.459 2.01392 -0.0182327 0
M  V30 3379 C 313.524 3.44789 -0.36355 0
M  V30 3380 C 312.585 4.03996 -1.45209 0
M  V30 3381 C 311.818 5.24783 -0.971508 0
M  V30 3382 O 312.041 5.70109 0.182194 0
M  V30 3383 O 310.975 5.75715 -1.75603 0
M  V30 3384 H 314.801 2.4503 -1.79427 0
M  V30 3385 H 312.386 1.16539 -0.934824 0
M  V30 3386 H 314.268 4.21307 -0.0887113 0
M  V30 3387 H 312.943 3.19253 0.534708 0
M  V30 3388 H 311.85 3.29009 -1.78056 0
M  V30 3389 H 313.183 4.33808 -2.32533 0
M  V30 3390 N 314.835 0.952656 1.25548 0
M  V30 3391 C 316.075 0.614013 1.9496 0
M  V30 3392 C 316.439 -0.833215 1.72978 0
M  V30 3393 O 317.64 -1.28135 2.36294 0
M  V30 3394 C 315.911 0.960562 3.4425 0
M  V30 3395 S 317.47 0.734195 4.32614 0
M  V30 3396 H 314.288 0.225754 0.674208 0
M  V30 3397 H 316.89 1.22641 1.52248 0
M  V30 3398 H 315.594 2.01103 3.57751 0
M  V30 3399 H 315.125 0.338336 3.91942 0
M  V30 3400 H 317.14 -0.395995 4.94617 0
M  V30 3401 N 316.313 -1.40141 0.720998 0
M  V30 3402 C 317.562 -2.0002 0.259804 0
M  V30 3403 C 317.875 -1.57839 -1.15526 0
M  V30 3404 O 319.081 -2.10455 -1.71525 0
M  V30 3405 C 317.537 -3.57516 0.413566 0
M  V30 3406 C 317.145 -4.08667 1.83562 0
M  V30 3407 C 318.889 -4.24498 0.0134387 0
M  V30 3408 C 316.796 -5.58686 1.93968 0
M  V30 3409 H 315.726 -0.748195 0.0933806 0
M  V30 3410 H 318.377 -1.60313 0.892866 0
M  V30 3411 H 316.759 -3.9495 -0.288169 0
M  V30 3412 H 317.933 -3.82598 2.56817 0
M  V30 3413 H 316.248 -3.543 2.1877 0
M  V30 3414 H 318.845 -5.34654 0.0703954 0
M  V30 3415 H 319.188 -4.03375 -1.02927 0
M  V30 3416 H 319.721 -3.92188 0.665815 0
M  V30 3417 H 316.46 -5.8467 2.96379 0
M  V30 3418 H 315.98 -5.86602 1.25131 0
M  V30 3419 H 317.659 -6.23875 1.71431 0
M  V30 3420 N 317.792 -0.46758 -1.50504 0
M  V30 3421 C 318.755 0.317059 -2.26996 0
M  V30 3422 C 319.755 0.923513 -1.31635 0
M  V30 3423 O 320.945 0.793239 -1.55091 0
M  V30 3424 C 318.077 1.45134 -3.08462 0
M  V30 3425 H 319.27 -0.353723 -2.97807 0
M  V30 3426 H 316.823 -0.221545 -1.54722 0
M  V30 3427 H 317.558 2.15728 -2.4214 0
M  V30 3428 H 317.343 1.02232 -3.78538 0
M  V30 3429 H 318.833 2.00493 -3.66323 0
M  V30 3430 N 319.27 1.56325 -0.20005 0
M  V30 3431 C 320.518 1.97329 0.436547 0
M  V30 3432 C 320.839 1.08826 1.61808 0
M  V30 3433 O 320.109 0.160604 1.95241 0
M  V30 3434 H 318.689 0.728714 0.164272 0
M  V30 3435 H 321.351 1.92761 -0.287937 0
M  V30 3436 H 320.447 3.02264 0.777353 0
M  V30 3437 N 320.748 -0.0735177 1.57428 0
M  V30 3438 C 321.978 -0.78483 1.91112 0
M  V30 3439 C 322.386 -1.71729 0.7941 0
M  V30 3440 O 321.729 -1.82105 -0.241542 0
M  V30 3441 C 321.791 -1.63346 3.20247 0
M  V30 3442 C 321.455 -0.870557 4.48632 0
M  V30 3443 C 322.452 -0.19058 5.19551 0
M  V30 3444 C 320.137 -0.838242 4.95256 0
M  V30 3445 C 322.131 0.511503 6.35344 0
M  V30 3446 C 319.818 -0.132386 6.10957 0
M  V30 3447 C 320.816 0.541288 6.80852 0
M  V30 3448 O 320.504 1.23578 7.94345 0
M  V30 3449 H 320.236 -0.228408 0.636244 0
M  V30 3450 H 322.79 -0.0486039 2.05342 0
M  V30 3451 H 321.02 -2.41245 3.02222 0
M  V30 3452 H 322.709 -2.22329 3.39595 0
M  V30 3453 H 323.475 -0.206864 4.84559 0
M  V30 3454 H 319.354 -1.35206 4.40727 0
M  V30 3455 H 322.898 1.03789 6.89836 0
M  V30 3456 H 318.795 -0.114023 6.45399 0
M  V30 3457 H 319.563 1.14487 8.10454 0
M  V30 3458 N 322.226 -1.5378 -0.344866 0
M  V30 3459 C 323.642 -1.44015 -0.687888 0
M  V30 3460 C 323.842 -0.595834 -1.92489 0
M  V30 3461 O 322.898 -0.0863064 -2.52352 0
M  V30 3462 C 324.211 -2.87481 -0.881758 0
M  V30 3463 C 325.759 -2.97247 -0.980459 0
M  V30 3464 C 326.234 -4.41819 -1.20665 0
M  V30 3465 N 327.725 -4.45339 -1.27389 0
M  V30 3466 C 328.46 -5.54333 -1.46639 0
M  V30 3467 N 327.956 -6.73335 -1.63071 0
M  V30 3468 N 329.749 -5.41944 -1.49176 0
M  V30 3469 H 321.9 -2.07169 0.468475 0
M  V30 3470 H 324.163 -0.93643 0.147655 0
M  V30 3471 H 323.869 -3.51672 -0.0443444 0
M  V30 3472 H 323.743 -3.32352 -1.78388 0
M  V30 3473 H 326.13 -2.33197 -1.8084 0
M  V30 3474 H 326.211 -2.5574 -0.0552713 0
M  V30 3475 H 325.855 -5.06449 -0.383652 0
M  V30 3476 H 325.785 -4.80917 -2.14539 0
M  V30 3477 H 328.276 -3.59585 -1.1622 0
M  V30 3478 H 328.589 -7.52165 -1.77391 0
M  V30 3479 H 326.934 -6.76282 -1.60209 0
M  V30 3480 H 330.125 -4.47932 -1.3592 0
M  V30 3481 H 330.298 -6.26946 -1.63837 0
M  V30 3482 N 323.704 0.605807 -1.45491 0
M  V30 3483 C 325.115 1.18777 -1.44045 0
M  V30 3484 C 325.466 1.95471 -0.169001 0
M  V30 3485 O 324.591 2.0374 0.729324 0
M  V30 3486 C 325.186 2.16064 -2.60963 0
M  V30 3487 C 323.745 2.69633 -2.62631 0
M  V30 3488 C 322.892 1.45072 -2.36325 0
M  V30 3489 H 325.843 0.395017 -1.53705 0
M  V30 3490 H 325.864 2.9913 -2.35163 0
M  V30 3491 H 325.376 1.60217 -3.53486 0
M  V30 3492 H 323.477 3.29414 -1.74119 0
M  V30 3493 H 323.59 3.13944 -3.61906 0
M  V30 3494 H 321.954 1.74089 -1.85917 0
M  V30 3495 H 322.737 0.910899 -3.30995 0
M  V30 3496 N 325.182 1.32811 0.848464 0
M  V30 3497 C 326.429 1.23724 1.60308 0
M  V30 3498 C 326.757 -0.1994 1.93475 0
M  V30 3499 O 326.012 -1.15406 1.5805 0
M  V30 3500 C 326.311 2.04831 2.92881 0
M  V30 3501 C 325.977 3.54125 2.79117 0
M  V30 3502 C 324.639 3.94829 2.7507 0
M  V30 3503 C 326.991 4.49036 2.64606 0
M  V30 3504 C 324.319 5.28675 2.544 0
M  V30 3505 C 326.671 5.83033 2.4547 0
M  V30 3506 C 325.335 6.22931 2.39819 0
M  V30 3507 H 324.605 0.452737 0.586609 0
M  V30 3508 H 327.252 1.64301 0.983743 0
M  V30 3509 H 325.557 1.57001 3.58968 0
M  V30 3510 H 327.254 1.95164 3.50303 0
M  V30 3511 H 323.844 3.21801 2.83094 0
M  V30 3512 H 328.028 4.18505 2.66772 0
M  V30 3513 H 323.284 5.58637 2.48465 0
M  V30 3514 H 327.458 6.56186 2.33222 0
M  V30 3515 H 325.085 7.26584 2.23562 0
M  V30 3516 N 326.66 -1.06551 1.16123 0
M  V30 3517 C 327.59 -2.15935 0.88851 0
M  V30 3518 C 328.571 -1.69306 -0.164135 0
M  V30 3519 O 329.756 -1.94193 -0.0167857 0
M  V30 3520 C 326.886 -3.45149 0.385942 0
M  V30 3521 C 325.84 -4.05271 1.3762 0
M  V30 3522 C 325.166 -5.29664 0.732137 0
M  V30 3523 C 326.466 -4.44355 2.74493 0
M  V30 3524 H 328.16 -2.39006 1.80323 0
M  V30 3525 H 325.706 -1.14866 0.868435 0
M  V30 3526 H 327.659 -4.21004 0.182647 0
M  V30 3527 H 326.383 -3.21689 -0.564274 0
M  V30 3528 H 325.042 -3.3147 1.56599 0
M  V30 3529 H 324.69 -5.02499 -0.224483 0
M  V30 3530 H 324.39 -5.70848 1.39307 0
M  V30 3531 H 325.914 -6.08218 0.538802 0
M  V30 3532 H 327.328 -5.11303 2.59311 0
M  V30 3533 H 325.725 -4.96515 3.37035 0
M  V30 3534 H 326.795 -3.55339 3.29943 0
M  V30 3535 N 328.138 -0.959301 -1.25041 0
M  V30 3536 C 329.088 -0.453888 -2.23436 0
M  V30 3537 C 330.072 0.459461 -1.542 0
M  V30 3538 O 331.264 0.291752 -1.74579 0
M  V30 3539 C 328.393 0.262667 -3.42294 0
M  V30 3540 C 327.479 -0.669022 -4.1879 0
M  V30 3541 N 327.87 -1.80267 -4.72586 0
M  V30 3542 C 326.168 -0.47814 -4.4343 0
M  V30 3543 C 326.869 -2.38475 -5.3057 0
M  V30 3544 N 325.845 -1.67078 -5.17287 0
M  V30 3545 H 329.647 -1.319 -2.6264 0
M  V30 3546 H 327.161 -0.817358 -1.40332 0
M  V30 3547 H 329.158 0.641911 -4.11929 0
M  V30 3548 H 327.818 1.12432 -3.04613 0
M  V30 3549 H 328.829 -2.18442 -4.69578 0
M  V30 3550 H 325.506 0.340249 -4.16111 0
M  V30 3551 H 326.896 -3.34094 -5.8295 0
M  V30 3552 N 329.616 1.39756 -0.72842 0
M  V30 3553 C 330.566 2.2792 -0.0603424 0
M  V30 3554 C 331.55 1.43922 0.719399 0
M  V30 3555 O 332.742 1.66895 0.589489 0
M  V30 3556 C 329.871 3.32582 0.851104 0
M  V30 3557 C 328.957 4.24049 0.0658641 0
M  V30 3558 N 329.348 4.96653 -0.957578 0
M  V30 3559 C 327.646 4.45013 0.296509 0
M  V30 3560 C 328.347 5.63836 -1.43052 0
M  V30 3561 N 327.323 5.38397 -0.750315 0
M  V30 3562 H 331.125 2.81504 -0.84455 0
M  V30 3563 H 328.639 1.5236 -0.562155 0
M  V30 3564 H 330.636 3.94603 1.34514 0
M  V30 3565 H 329.296 2.80558 1.63454 0
M  V30 3566 H 330.307 5.00297 -1.33877 0
M  V30 3567 H 326.984 4.03943 1.05527 0
M  V30 3568 H 328.374 6.31974 -2.28163 0
M  V30 3569 N 331.094 0.475555 1.50254 0
M  V30 3570 C 332.024 -0.30611 2.31485 0
M  V30 3571 C 333.005 -0.986228 1.38591 0
M  V30 3572 O 334.19 -0.982541 1.67511 0
M  V30 3573 C 331.32 -1.38588 3.1845 0
M  V30 3574 C 330.274 -0.827115 4.19932 0
M  V30 3575 C 329.6 -2.00551 4.95665 0
M  V30 3576 C 330.9 0.16463 5.2204 0
M  V30 3577 H 332.594 0.371866 2.97082 0
M  V30 3578 H 330.14 0.180282 1.42867 0
M  V30 3579 H 332.093 -1.94023 3.74076 0
M  V30 3580 H 330.817 -2.09269 2.50747 0
M  V30 3581 H 329.476 -0.294702 3.65414 0
M  V30 3582 H 329.124 -2.6994 4.2443 0
M  V30 3583 H 328.824 -1.63784 5.64313 0
M  V30 3584 H 330.348 -2.56468 5.54127 0
M  V30 3585 H 331.762 -0.300699 5.72511 0
M  V30 3586 H 330.159 0.446813 5.98434 0
M  V30 3587 H 331.229 1.08905 4.72512 0
M  V30 3588 N 332.573 -1.56217 0.208337 0
M  V30 3589 C 333.505 -2.1695 -0.739276 0
M  V30 3590 C 334.518 -1.13492 -1.1672 0
M  V30 3591 O 335.707 -1.40529 -1.10063 0
M  V30 3592 C 332.807 -2.72755 -2.01142 0
M  V30 3593 C 331.98 -4.0125 -1.74118 0
M  V30 3594 C 331.039 -4.41749 -2.85909 0
M  V30 3595 O 330.065 -5.08912 -2.54946 0
M  V30 3596 N 331.267 -4.06342 -4.14568 0
M  V30 3597 H 334.032 -2.98893 -0.219837 0
M  V30 3598 H 331.593 -1.61878 0.0268445 0
M  V30 3599 H 333.585 -2.96826 -2.75094 0
M  V30 3600 H 332.155 -1.95191 -2.4417 0
M  V30 3601 H 331.375 -3.85173 -0.838775 0
M  V30 3602 H 332.663 -4.851 -1.53477 0
M  V30 3603 H 332.061 -3.52345 -4.42571 0
M  V30 3604 H 330.618 -4.35335 -4.85105 0
M  V30 3605 N 334.051 0.0651679 -1.57465 0
M  V30 3606 C 335.462 0.616213 -1.76238 0
M  V30 3607 C 335.813 1.7756 -0.834689 0
M  V30 3608 O 334.938 2.1639 -0.0204156 0
M  V30 3609 C 335.533 1.12462 -3.1959 0
M  V30 3610 C 334.092 1.62147 -3.39684 0
M  V30 3611 C 333.239 0.543739 -2.71917 0
M  V30 3612 H 336.19 -0.161022 -1.57881 0
M  V30 3613 H 336.211 1.99324 -3.24114 0
M  V30 3614 H 335.723 0.280592 -3.87084 0
M  V30 3615 H 333.824 2.48854 -2.77313 0
M  V30 3616 H 333.937 1.69385 -4.48158 0
M  V30 3617 H 332.301 0.990352 -2.34657 0
M  V30 3618 H 333.084 -0.290216 -3.42071 0
M  V30 3619 N 335.529 1.53961 0.336706 0
M  V30 3620 C 336.776 1.71536 1.07618 0
M  V30 3621 C 337.104 0.482125 1.8843 0
M  V30 3622 O 336.359 -0.536142 1.88213 0
M  V30 3623 C 336.658 2.93493 2.03953 0
M  V30 3624 C 336.324 4.28811 1.39399 0
M  V30 3625 C 334.986 4.65602 1.21523 0
M  V30 3626 C 337.338 5.12844 0.929541 0
M  V30 3627 C 334.666 5.84037 0.558312 0
M  V30 3628 C 337.018 6.31951 0.286505 0
M  V30 3629 C 335.682 6.67432 0.0954869 0
M  V30 3630 H 334.952 0.627696 0.393801 0
M  V30 3631 H 337.599 1.88186 0.354715 0
M  V30 3632 H 335.904 2.71475 2.82504 0
M  V30 3633 H 337.601 3.04285 2.61174 0
M  V30 3634 H 334.191 3.99858 1.54311 0
M  V30 3635 H 338.375 4.84947 1.05548 0
M  V30 3636 H 333.631 6.10097 0.398995 0
M  V30 3637 H 337.805 6.96352 -0.0814376 0
M  V30 3638 H 335.432 7.59063 -0.415579 0
M  V30 3639 N 337.007 -0.598083 1.45811 0
M  V30 3640 C 338.235 -1.38322 1.53866 0
M  V30 3641 C 338.65 -1.87992 0.174479 0
M  V30 3642 O 338.007 -1.62756 -0.825627 0
M  V30 3643 C 338.058 -2.58125 2.53089 0
M  V30 3644 O 337.779 -2.10516 3.84206 0
M  V30 3645 C 339.28 -3.50869 2.70935 0
M  V30 3646 H 336.5 -0.423093 0.520801 0
M  V30 3647 H 339.044 -0.728527 1.91083 0
M  V30 3648 H 337.199 -3.19615 2.18917 0
M  V30 3649 H 337.613 -2.88425 4.38077 0
M  V30 3650 H 339.087 -4.31451 3.44317 0
M  V30 3651 H 339.564 -4.01822 1.77301 0
M  V30 3652 H 340.17 -2.95225 3.06141 0
M  V30 3653 N 338.485 -1.33259 -0.841409 0
M  V30 3654 C 339.731 -1.25766 -1.59857 0
M  V30 3655 C 340.086 0.175602 -1.91597 0
M  V30 3656 O 339.379 1.117 -1.55672 0
M  V30 3657 C 339.573 -2.06381 -2.9179 0
M  V30 3658 C 339.402 -3.57401 -2.72937 0
M  V30 3659 C 338.172 -4.26718 -2.70628 0
M  V30 3660 C 340.37 -4.51786 -2.45753 0
M  V30 3661 N 338.352 -5.63705 -2.43125 0
M  V30 3662 C 339.723 -5.76643 -2.27777 0
M  V30 3663 C 341.778 -4.40898 -2.31329 0
M  V30 3664 C 340.481 -6.91842 -1.96841 0
M  V30 3665 C 342.507 -5.55911 -2.01786 0
M  V30 3666 C 341.869 -6.79776 -1.8462 0
M  V30 3667 H 337.968 -0.515406 -0.588117 0
M  V30 3668 H 340.552 -1.67772 -0.987955 0
M  V30 3669 H 338.723 -1.667 -3.50807 0
M  V30 3670 H 340.455 -1.90678 -3.56965 0
M  V30 3671 H 337.21 -3.78968 -2.84043 0
M  V30 3672 H 337.634 -6.35911 -2.32265 0
M  V30 3673 H 342.276 -3.45772 -2.43314 0
M  V30 3674 H 339.994 -7.86968 -1.83594 0
M  V30 3675 H 343.58 -5.49421 -1.91384 0
M  V30 3676 H 342.46 -7.67266 -1.62088 0
M  V30 3677 N 339.963 1.05934 -1.16686 0
M  V30 3678 C 340.913 2.11764 -0.844978 0
M  V30 3679 C 341.897 1.59922 0.177178 0
M  V30 3680 O 343.089 1.76983 -0.0241768 0
M  V30 3681 C 340.218 3.41493 -0.351812 0
M  V30 3682 C 339.304 4.00152 -1.40496 0
M  V30 3683 N 339.695 4.32874 -2.61636 0
M  V30 3684 C 337.993 4.278 -1.26106 0
M  V30 3685 C 338.694 4.79552 -3.29249 0
M  V30 3686 N 337.67 4.79211 -2.56628 0
M  V30 3687 H 341.472 2.34916 -1.76612 0
M  V30 3688 H 338.986 1.23511 -1.05446 0
M  V30 3689 H 340.983 4.16773 -0.102796 0
M  V30 3690 H 339.643 3.19778 0.56322 0
M  V30 3691 H 340.654 4.23109 -2.98663 0
M  V30 3692 H 337.331 4.15511 -0.407081 0
M  V30 3693 H 338.721 5.14045 -4.32675 0
M  V30 3694 N 341.441 0.965919 1.2453 0
M  V30 3695 C 342.351 0.502154 2.29163 0
M  V30 3696 C 343.367 -0.436017 1.68448 0
M  V30 3697 O 344.543 -0.309497 1.99008 0
M  V30 3698 C 341.608 -0.201956 3.46111 0
M  V30 3699 C 340.669 0.775821 4.22232 0
M  V30 3700 C 339.902 0.105217 5.33596 0
M  V30 3701 O 340.125 -1.10683 5.59558 0
M  V30 3702 O 339.059 0.796475 5.96607 0
M  V30 3703 H 342.885 1.37194 2.70946 0
M  V30 3704 H 340.47 0.732875 1.30189 0
M  V30 3705 H 342.352 -0.597564 4.17142 0
M  V30 3706 H 341.027 -1.04673 3.06309 0
M  V30 3707 H 339.934 1.22185 3.53584 0
M  V30 3708 H 341.267 1.58896 4.65846 0
M  V30 3709 N 342.919 -1.39368 0.735821 0
M  V30 3710 C 343.866 -2.30599 0.0963825 0
M  V30 3711 C 344.836 -1.49257 -0.728794 0
M  V30 3712 O 346.021 -1.77941 -0.688588 0
M  V30 3713 C 343.161 -3.35596 -0.804305 0
M  V30 3714 C 342.274 -4.31987 0.0335761 0
M  V30 3715 C 341.409 -5.24053 -0.868461 0
M  V30 3716 C 340.448 -6.12095 -0.0258776 0
M  V30 3717 N 339.585 -6.96514 -0.883893 0
M  V30 3718 H 344.425 -2.8471 0.880002 0
M  V30 3719 H 341.962 -1.40188 0.445619 0
M  V30 3720 H 343.92 -3.95062 -1.34096 0
M  V30 3721 H 342.55 -2.82938 -1.55389 0
M  V30 3722 H 341.602 -3.74133 0.68766 0
M  V30 3723 H 342.914 -4.94074 0.685036 0
M  V30 3724 H 342.068 -5.88549 -1.47293 0
M  V30 3725 H 340.807 -4.62289 -1.5537 0
M  V30 3726 H 339.812 -5.4661 0.591386 0
M  V30 3727 H 341.037 -6.75923 0.656156 0
M  V30 3728 H 338.983 -6.37318 -1.55441 0
M  V30 3729 H 338.9 -7.55448 -0.288931 0
M  V30 3730 H 340.168 -7.65439 -1.4739 0
M  V30 3731 N 344.397 -0.483516 -1.5 0
M  V30 3732 C 345.646 0.0689102 -2.01582 0
M  V30 3733 C 345.959 1.39655 -1.36952 0
M  V30 3734 O 347.165 2.03465 -1.79762 0
M  V30 3735 C 345.621 0.173302 -3.59483 0
M  V30 3736 C 345.229 -1.14665 -4.33077 0
M  V30 3737 C 346.973 0.677024 -4.19066 0
M  V30 3738 C 344.88 -1.00537 -5.82792 0
M  V30 3739 H 343.81 0.0295277 -0.753422 0
M  V30 3740 H 346.461 -0.620295 -1.72698 0
M  V30 3741 H 344.843 0.926569 -3.85007 0
M  V30 3742 H 346.017 -1.91184 -4.19268 0
M  V30 3743 H 344.332 -1.58244 -3.85159 0
M  V30 3744 H 346.929 0.799952 -5.28682 0
M  V30 3745 H 347.272 1.67151 -3.81269 0
M  V30 3746 H 347.805 -0.0192083 -3.97795 0
M  V30 3747 H 344.544 -1.9736 -6.25083 0
M  V30 3748 H 344.064 -0.280776 -5.99142 0
M  V30 3749 H 345.743 -0.677 -6.43448 0
M  V30 3750 N 345.875 1.56104 -0.216619 0
M  V30 3751 C 346.822 2.2007 0.695531 0
M  V30 3752 C 347.792 1.15471 1.19397 0
M  V30 3753 O 348.977 1.43807 1.25396 0
M  V30 3754 C 346.117 2.88073 1.90021 0
M  V30 3755 C 345.23 4.07253 1.44113 0
M  V30 3756 C 344.365 4.63052 2.603 0
M  V30 3757 C 343.404 5.74545 2.11103 0
M  V30 3758 N 342.541 6.24656 3.20545 0
M  V30 3759 H 347.381 2.97655 0.143327 0
M  V30 3760 H 344.918 1.46982 0.0589934 0
M  V30 3761 H 346.876 3.25681 2.60745 0
M  V30 3762 H 345.506 2.13015 2.42538 0
M  V30 3763 H 344.558 3.75164 0.628999 0
M  V30 3764 H 345.87 4.8783 1.04036 0
M  V30 3765 H 345.024 5.03078 3.39113 0
M  V30 3766 H 343.763 3.81628 3.03663 0
M  V30 3767 H 342.768 5.34027 1.3075 0
M  V30 3768 H 343.993 6.57801 1.68746 0
M  V30 3769 H 341.939 5.46148 3.63399 0
M  V30 3770 H 341.856 7.00343 2.84704 0
M  V30 3771 H 343.124 6.69338 3.99508 0
M  V30 3772 N 347.353 -0.0568162 1.57498 0
M  V30 3773 C 348.3 -1.06591 2.04712 0
M  V30 3774 C 349.27 -1.3758 0.930644 0
M  V30 3775 O 350.455 -1.48392 1.19935 0
M  V30 3776 C 347.595 -2.3701 2.50839 0
M  V30 3777 C 346.708 -2.12421 3.76167 0
M  V30 3778 C 345.843 -3.36511 4.11015 0
M  V30 3779 C 344.882 -3.07353 5.2934 0
M  V30 3780 N 344.019 -4.23816 5.59754 0
M  V30 3781 H 348.859 -0.65631 2.90683 0
M  V30 3782 H 346.396 -0.312481 1.43743 0
M  V30 3783 H 348.354 -3.13175 2.7564 0
M  V30 3784 H 346.984 -2.75744 1.67825 0
M  V30 3785 H 346.036 -1.2688 3.58616 0
M  V30 3786 H 347.348 -1.86894 4.62463 0
M  V30 3787 H 346.502 -4.21062 4.36797 0
M  V30 3788 H 345.241 -3.65128 3.23315 0
M  V30 3789 H 344.246 -2.212 5.03339 0
M  V30 3790 H 345.471 -2.80043 6.1867 0
M  V30 3791 H 343.417 -4.52436 4.75014 0
M  V30 3792 H 343.334 -4.01614 6.40501 0
M  V30 3793 H 344.602 -5.0932 5.90096 0
M  V30 3794 N 348.832 -1.54138 -0.328536 0
M  V30 3795 C 349.779 -1.83176 -1.40411 0
M  V30 3796 C 350.749 -0.678494 -1.5161 0
M  V30 3797 O 351.934 -0.92443 -1.6691 0
M  V30 3798 C 349.074 -2.06035 -2.76846 0
M  V30 3799 C 348.187 -3.33727 -2.74318 0
M  V30 3800 C 347.322 -3.46574 -4.02567 0
M  V30 3801 C 346.361 -4.68159 -3.94327 0
M  V30 3802 N 345.498 -4.77959 -5.14296 0
M  V30 3803 H 350.338 -2.74938 -1.14948 0
M  V30 3804 H 347.875 -1.36166 -0.556538 0
M  V30 3805 H 349.833 -2.1728 -3.56153 0
M  V30 3806 H 348.463 -1.1757 -3.00628 0
M  V30 3807 H 347.515 -3.31246 -1.8703 0
M  V30 3808 H 348.827 -4.23139 -2.64111 0
M  V30 3809 H 347.981 -3.57333 -4.90304 0
M  V30 3810 H 346.72 -2.55245 -4.15574 0
M  V30 3811 H 345.725 -4.57461 -3.04974 0
M  V30 3812 H 346.95 -5.60868 -3.82889 0
M  V30 3813 H 344.896 -3.89544 -5.27818 0
M  V30 3814 H 344.813 -5.6133 -5.06404 0
M  V30 3815 H 346.081 -4.93044 -6.03761 0
M  V30 3816 N 350.31 0.590341 -1.46126 0
M  V30 3817 C 351.587 1.35029 -1.41515 0
M  V30 3818 C 351.967 2.10888 -0.0946472 0
M  V30 3819 O 351.315 2.08998 0.923693 0
M  V30 3820 C 351.525 2.28269 -2.63997 0
M  V30 3821 C 352.873 2.90338 -3.09821 0
M  V30 3822 O 353.897 2.38585 -2.64492 0
M  V30 3823 O 352.756 3.84321 -3.88535 0
M  V30 3824 H 349.85 0.606317 -0.562413 0
M  V30 3825 H 352.396 0.611994 -1.58281 0
M  V30 3826 H 351.168 1.71591 -3.51671 0
M  V30 3827 H 350.791 3.0945 -2.49652 0
M  V30 3828 N 351.788 1.33704 0.83433 0
M  V30 3829 C 353.199 1.22813 1.4062 0
M  V30 3830 C 353.55 -0.151107 1.95617 0
M  V30 3831 O 352.675 -1.05092 1.89168 0
M  V30 3832 C 353.27 2.22355 2.55624 0
M  V30 3833 C 351.829 2.1529 3.08751 0
M  V30 3834 C 350.976 2.09589 1.8157 0
M  V30 3835 H 353.927 1.45236 0.639702 0
M  V30 3836 H 353.948 1.83391 3.33389 0
M  V30 3837 H 353.46 3.22728 2.15566 0
M  V30 3838 H 351.561 1.18235 3.53343 0
M  V30 3839 H 351.674 3.06038 3.68616 0
M  V30 3840 H 350.038 1.55134 2.02004 0
M  V30 3841 H 350.821 3.11777 1.43701 0
M  V30 3842 N 353.266 -1.05314 1.17247 0
M  V30 3843 C 354.213 -2.13031 0.888058 0
M  V30 3844 C 355.183 -1.65253 -0.167537 0
M  V30 3845 O 356.368 -1.90775 -0.0305974 0
M  V30 3846 C 353.508 -3.42702 0.406147 0
M  V30 3847 C 352.621 -4.04161 1.52572 0
M  V30 3848 C 351.756 -5.21744 0.997808 0
M  V30 3849 C 350.795 -5.75207 2.09291 0
M  V30 3850 N 349.932 -6.84094 1.57986 0
M  V30 3851 H 354.772 -2.36698 1.81048 0
M  V30 3852 H 352.309 -1.16121 0.903013 0
M  V30 3853 H 354.267 -4.17059 0.108305 0
M  V30 3854 H 352.897 -3.19222 -0.479313 0
M  V30 3855 H 351.949 -3.27253 1.93931 0
M  V30 3856 H 353.261 -4.39881 2.35172 0
M  V30 3857 H 352.415 -6.03168 0.653739 0
M  V30 3858 H 351.154 -4.87495 0.141232 0
M  V30 3859 H 350.159 -4.92414 2.44557 0
M  V30 3860 H 351.384 -6.11505 2.95362 0
M  V30 3861 H 349.33 -6.51745 0.74598 0
M  V30 3862 H 349.247 -7.18811 2.34195 0
M  V30 3863 H 350.515 -7.69172 1.26468 0
M  V30 3864 N 354.744 -0.972509 -1.24016 0
M  V30 3865 C 355.984 -0.644951 -1.93958 0
M  V30 3866 C 356.348 0.80559 -1.74282 0
M  V30 3867 O 357.549 1.2436 -2.38302 0
M  V30 3868 C 355.82 -1.01521 -3.42678 0
M  V30 3869 S 357.379 -0.802927 -4.31391 0
M  V30 3870 H 354.197 -0.236452 -0.670531 0
M  V30 3871 H 356.799 -1.25048 -1.50277 0
M  V30 3872 H 355.503 -2.06769 -3.54506 0
M  V30 3873 H 355.034 -0.400648 -3.91355 0
M  V30 3874 H 357.049 0.317256 -4.95185 0
M  V30 3875 N 356.222 1.38976 -0.743202 0
M  V30 3876 C 357.471 1.99581 -0.291592 0
M  V30 3877 C 357.784 1.59656 1.13001 0
M  V30 3878 O 358.99 2.13157 1.68156 0
M  V30 3879 C 357.446 3.56813 -0.470391 0
M  V30 3880 C 357.054 4.05695 -1.90041 0
M  V30 3881 C 358.798 4.24423 -0.0809709 0
M  V30 3882 C 356.705 5.5553 -2.02832 0
M  V30 3883 H 355.635 0.746615 -0.105272 0
M  V30 3884 H 358.286 1.58872 -0.918258 0
M  V30 3885 H 356.668 3.95359 0.225299 0
M  V30 3886 H 357.842 3.78464 -2.62872 0
M  V30 3887 H 356.157 3.50775 -2.24379 0
M  V30 3888 H 358.754 5.34474 -0.155445 0
M  V30 3889 H 359.097 4.04962 0.96497 0
M  V30 3890 H 359.63 3.9108 -0.728124 0
M  V30 3891 H 356.369 5.79881 -3.05643 0
M  V30 3892 H 355.889 5.84537 -1.34448 0
M  V30 3893 H 357.568 6.21069 -1.81335 0
M  V30 3894 N 357.7 0.491464 1.49741 0
M  V30 3895 C 358.947 -0.0564256 2.02421 0
M  V30 3896 C 359.275 -1.37872 1.37192 0
M  V30 3897 O 358.53 -1.89375 0.493508 0
M  V30 3898 C 358.829 -0.267329 3.56399 0
M  V30 3899 C 358.495 0.975775 4.40215 0
M  V30 3900 C 357.157 1.31655 4.62839 0
M  V30 3901 C 359.509 1.80251 4.89039 0
M  V30 3902 C 356.837 2.48375 5.31532 0
M  V30 3903 C 359.189 2.96116 5.59015 0
M  V30 3904 C 357.853 3.30585 5.79888 0
M  V30 3905 H 357.123 -0.0206476 0.740712 0
M  V30 3906 H 359.77 0.649686 1.80143 0
M  V30 3907 H 358.075 -1.05588 3.77304 0
M  V30 3908 H 359.772 -0.705549 3.94744 0
M  V30 3909 H 356.362 0.700315 4.2284 0
M  V30 3910 H 360.546 1.55239 4.71396 0
M  V30 3911 H 355.802 2.7533 5.45897 0
M  V30 3912 H 359.976 3.60509 5.95824 0
M  V30 3913 H 357.603 4.21132 6.32892 0
M  V30 3914 N 359.178 -1.55987 0.224894 0
M  V30 3915 C 360.141 -2.19178 -0.670348 0
M  V30 3916 C 361.141 -1.15461 -1.11917 0
M  V30 3917 O 362.331 -1.40675 -1.02743 0
M  V30 3918 C 359.463 -2.81777 -1.9187 0
M  V30 3919 H 360.656 -2.99662 -0.119364 0
M  V30 3920 H 358.209 -1.5628 -0.0247128 0
M  V30 3921 H 358.944 -2.05172 -2.51147 0
M  V30 3922 H 358.729 -3.57732 -1.60531 0
M  V30 3923 H 360.219 -3.30205 -2.55645 0
M  V30 3924 N 360.656 0.0484629 -1.57525 0
M  V30 3925 C 361.896 0.748196 -1.90214 0
M  V30 3926 C 362.26 1.73545 -0.821347 0
M  V30 3927 O 363.461 2.48201 -1.03198 0
M  V30 3928 C 361.732 1.41727 -3.28098 0
M  V30 3929 S 363.291 2.14884 -3.82584 0
M  V30 3930 H 360.109 0.248307 -0.666232 0
M  V30 3931 H 362.711 0.00343188 -1.955 0
M  V30 3932 H 361.415 0.685244 -4.04639 0
M  V30 3933 H 360.946 2.20099 -3.26068 0
M  V30 3934 H 362.961 3.41755 -3.59747 0
M  V30 3935 N 362.134 1.5431 0.320358 0
M  V30 3936 C 363.044 1.86946 1.41734 0
M  V30 3937 C 364.06 0.761689 1.56443 0
M  V30 3938 O 365.236 1.05629 1.71477 0
M  V30 3939 C 362.301 2.09293 2.76401 0
M  V30 3940 C 361.362 3.33082 2.70841 0
M  V30 3941 C 360.595 3.54353 3.99086 0
M  V30 3942 O 360.818 2.79002 4.97508 0
M  V30 3943 O 359.752 4.47838 4.0215 0
M  V30 3944 H 363.578 2.80232 1.17062 0
M  V30 3945 H 361.163 1.40255 0.514673 0
M  V30 3946 H 363.045 2.25303 3.56113 0
M  V30 3947 H 361.72 1.19194 3.00956 0
M  V30 3948 H 360.627 3.22454 1.89668 0
M  V30 3949 H 361.96 4.23249 2.5124 0
M  V30 3950 N 363.613 -0.582584 1.46437 0
M  V30 3951 C 364.523 -1.71949 1.59595 0
M  V30 3952 C 365.539 -1.67264 0.479443 0
M  V30 3953 O 366.715 -1.87171 0.743579 0
M  V30 3954 C 363.78 -3.08452 1.58298 0
M  V30 3955 C 362.841 -3.244 2.81182 0
M  V30 3956 C 362.074 -4.54391 2.79937 0
M  V30 3957 O 362.297 -5.38287 1.8869 0
M  V30 3958 O 361.231 -4.73588 3.71481 0
M  V30 3959 H 365.057 -1.63795 2.55744 0
M  V30 3960 H 362.642 -0.749643 1.29231 0
M  V30 3961 H 364.524 -3.89732 1.60271 0
M  V30 3962 H 363.199 -3.17043 0.653094 0
M  V30 3963 H 362.106 -2.42613 2.84763 0
M  V30 3964 H 363.439 -3.20699 3.7338 0
M  V30 3965 N 365.091 -1.34144 -0.827227 0
M  V30 3966 C 366.024 -1.19707 -1.94282 0
M  V30 3967 C 367.002 -0.0897256 -1.62352 0
M  V30 3968 O 368.186 -0.254095 -1.8678 0
M  V30 3969 C 365.313 -0.838646 -3.28153 0
M  V30 3970 C 364.359 -1.95514 -3.79047 0
M  V30 3971 S 365.192 -3.56793 -3.99323 0
M  V30 3972 C 366.348 -3.22983 -5.36127 0
M  V30 3973 H 366.581 -2.1414 -2.06231 0
M  V30 3974 H 364.114 -1.19121 -0.982321 0
M  V30 3975 H 366.072 -0.638637 -4.05502 0
M  V30 3976 H 364.733 0.0872776 -3.13979 0
M  V30 3977 H 363.926 -1.658 -4.75948 0
M  V30 3978 H 363.528 -2.11241 -3.08631 0
M  V30 3979 H 365.82 -2.74531 -6.19386 0
M  V30 3980 H 366.763 -4.19008 -5.70822 0
M  V30 3981 H 367.171 -2.59276 -5.01434 0
M  V30 3982 N 366.569 1.04691 -1.17803 0
M  V30 3983 C 367.794 1.81984 -0.994813 0
M  V30 3984 C 368.219 1.82586 0.452112 0
M  V30 3985 O 367.577 1.23854 1.324 0
M  V30 3986 C 367.625 3.2575 -1.54659 0
M  V30 3987 O 366.729 4.05267 -0.763728 0
M  V30 3988 H 366.07 0.562483 -0.352857 0
M  V30 3989 H 368.6 1.3189 -1.56417 0
M  V30 3990 H 368.61 3.76541 -1.57102 0
M  V30 3991 H 367.285 3.24627 -2.59981 0
M  V30 3992 H 365.862 3.63972 -0.811108 0
M  V30 3993 N 368.047 0.979072 1.23499 0
M  V30 3994 C 369.295 0.645941 1.91499 0
M  V30 3995 C 369.616 -0.822948 1.76784 0
M  V30 3996 O 368.886 -1.58854 1.14639 0
M  V30 3997 H 367.466 0.235919 0.708767 0
M  V30 3998 H 370.128 1.2426 1.50152 0
M  V30 3999 H 369.224 0.896411 2.9895 0
M  V30 4000 N 369.525 -1.3858 0.750561 0
M  V30 4001 C 370.435 -2.34278 0.122825 0
M  V30 4002 C 371.451 -1.59116 -0.704131 0
M  V30 4003 O 372.627 -1.91326 -0.628987 0
M  V30 4004 C 369.692 -3.38221 -0.762086 0
M  V30 4005 C 368.753 -4.29227 0.078896 0
M  V30 4006 C 367.986 -5.28205 -0.763874 0
M  V30 4007 O 368.209 -5.34112 -2.00201 0
M  V30 4008 O 367.143 -6.01618 -0.18428 0
M  V30 4009 H 370.969 -2.89649 0.913088 0
M  V30 4010 H 368.554 -1.40374 0.511417 0
M  V30 4011 H 370.436 -4.01872 -1.26793 0
M  V30 4012 H 369.111 -2.85211 -1.5309 0
M  V30 4013 H 368.018 -3.68747 0.630621 0
M  V30 4014 H 369.351 -4.85484 0.810289 0
M  V30 4015 N 371.003 -0.499398 -1.49478 0
M  V30 4016 C 372.249 0.0457576 -2.02748 0
M  V30 4017 C 372.582 1.36793 -1.37846 0
M  V30 4018 O 371.857 1.87596 -0.513601 0
M  V30 4019 C 372.14 0.199986 -3.59544 0
M  V30 4020 C 371.993 -1.1452 -4.34977 0
M  V30 4021 C 373.312 0.94137 -4.29914 0
M  V30 4022 H 370.431 0.0151552 -0.736844 0
M  V30 4023 H 373.073 -0.650498 -1.78518 0
M  V30 4024 H 371.223 0.793007 -3.8032 0
M  V30 4025 H 372.895 -1.77697 -4.25701 0
M  V30 4026 H 371.138 -1.73488 -3.97598 0
M  V30 4027 H 371.809 -0.990607 -5.43039 0
M  V30 4028 H 374.285 0.43844 -4.13784 0
M  V30 4029 H 373.161 1.01812 -5.39375 0
M  V30 4030 H 373.422 1.98471 -3.95046 0
M  V30 4031 N 372.481 1.55866 -0.233164 0
M  V30 4032 C 373.897 1.59133 0.121988 0
M  V30 4033 C 374.097 1.25016 1.58029 0
M  V30 4034 O 373.153 0.990922 2.32243 0
M  V30 4035 C 374.466 2.99932 -0.214792 0
M  V30 4036 C 376.014 3.12601 -0.157971 0
M  V30 4037 C 376.489 4.55597 -0.46859 0
M  V30 4038 N 377.98 4.61305 -0.418585 0
M  V30 4039 C 378.715 5.69903 -0.63227 0
M  V30 4040 N 378.211 6.86819 -0.90835 0
M  V30 4041 N 380.004 5.59264 -0.563913 0
M  V30 4042 H 372.155 1.76315 -1.18434 0
M  V30 4043 H 374.418 0.820093 -0.475553 0
M  V30 4044 H 374.124 3.29588 -1.22739 0
M  V30 4045 H 373.998 3.74327 0.464691 0
M  V30 4046 H 376.385 2.82735 0.845283 0
M  V30 4047 H 376.466 2.40511 -0.871102 0
M  V30 4048 H 376.11 4.86182 -1.46934 0
M  V30 4049 H 376.04 5.25928 0.265865 0
M  V30 4050 H 378.531 3.77297 -0.213368 0
M  V30 4051 H 378.844 7.65507 -1.05919 0
M  V30 4052 H 377.189 6.88536 -0.945673 0
M  V30 4053 H 380.38 4.66802 -0.348372 0
M  V30 4054 H 380.553 6.43831 -0.733847 0
M  V30 4055 N 373.959 -0.0401083 1.57549 0
M  V30 4056 C 375.206 -0.733125 1.88763 0
M  V30 4057 C 375.534 -1.75946 0.829058 0
M  V30 4058 O 374.789 -1.94949 -0.171323 0
M  V30 4059 C 375.088 -1.44902 3.26708 0
M  V30 4060 C 374.754 -0.559707 4.47413 0
M  V30 4061 C 373.416 -0.314731 4.8017 0
M  V30 4062 C 375.768 0.0549743 5.21171 0
M  V30 4063 C 373.096 0.553886 5.8408 0
M  V30 4064 C 375.448 0.911229 6.26003 0
M  V30 4065 C 374.112 1.16577 6.57241 0
M  V30 4066 H 373.382 -0.268269 0.690733 0
M  V30 4067 H 376.029 0.00679408 1.91499 0
M  V30 4068 H 374.334 -2.26197 3.1991 0
M  V30 4069 H 376.031 -1.99058 3.48105 0
M  V30 4070 H 372.621 -0.760793 4.21794 0
M  V30 4071 H 376.805 -0.121344 4.96152 0
M  V30 4072 H 372.061 0.759518 6.06664 0
M  V30 4073 H 376.235 1.3941 6.82303 0
M  V30 4074 H 373.862 1.84058 7.37582 0
M  V30 4075 N 375.437 -1.54477 -0.31217 0
M  V30 4076 C 376.662 -1.77526 -1.07235 0
M  V30 4077 C 377.087 -0.527775 -1.80544 0
M  V30 4078 O 376.445 0.52121 -1.73646 0
M  V30 4079 C 376.493 -2.97535 -2.03728 0
M  V30 4080 O 375.597 -2.69878 -3.11833 0
M  V30 4081 H 374.938 -0.58792 -0.30862 0
M  V30 4082 H 377.468 -2.01532 -0.352993 0
M  V30 4083 H 377.478 -3.25198 -2.46395 0
M  V30 4084 H 376.153 -3.87996 -1.49774 0
M  V30 4085 H 374.73 -2.53199 -2.7376 0
M  V30 4086 N 376.915 0.57481 -1.46744 0
M  V30 4087 C 378.14 1.36341 -1.56288 0
M  V30 4088 C 378.565 1.86954 -0.207347 0
M  V30 4089 O 377.923 1.62006 0.813871 0
M  V30 4090 C 377.971 2.52147 -2.57787 0
M  V30 4091 O 377.075 3.53834 -2.11838 0
M  V30 4092 H 376.416 0.405713 -0.525636 0
M  V30 4093 H 378.946 0.696453 -1.92382 0
M  V30 4094 H 378.956 2.98958 -2.77648 0
M  V30 4095 H 377.631 2.14663 -3.5622 0
M  V30 4096 H 376.208 3.1345 -2.01999 0
M  V30 4097 N 378.394 1.34581 0.820102 0
M  V30 4098 C 379.344 1.22943 1.92013 0
M  V30 4099 C 380.328 0.127802 1.60392 0
M  V30 4100 O 381.52 0.357737 1.73347 0
M  V30 4101 C 378.649 0.989938 3.28717 0
M  V30 4102 C 377.735 2.13486 3.66449 0
M  V30 4103 N 378.126 3.38625 3.75722 0
M  V30 4104 C 376.424 2.04573 3.96315 0
M  V30 4105 C 377.125 4.13832 4.08801 0
M  V30 4106 N 376.101 3.42451 4.22171 0
M  V30 4107 H 379.903 2.17771 1.97365 0
M  V30 4108 H 377.417 1.2686 1.01392 0
M  V30 4109 H 379.414 0.887462 4.07345 0
M  V30 4110 H 378.074 0.0503691 3.24661 0
M  V30 4111 H 379.085 3.73143 3.59144 0
M  V30 4112 H 375.762 1.1839 4.00362 0
M  V30 4113 H 377.152 5.21909 4.23156 0
M  V30 4114 N 379.872 -1.04064 1.18357 0
M  V30 4115 C 380.802 -2.14001 0.934113 0
M  V30 4116 C 381.783 -1.69616 -0.128186 0
M  V30 4117 O 382.968 -1.94185 0.0244093 0
M  V30 4118 C 380.098 -3.44253 0.459066 0
M  V30 4119 C 379.052 -4.02261 1.46185 0
M  V30 4120 C 378.378 -5.27992 0.844322 0
M  V30 4121 C 379.678 -4.38432 2.83856 0
M  V30 4122 H 381.372 -2.35127 1.85352 0
M  V30 4123 H 378.918 -1.12998 0.892604 0
M  V30 4124 H 380.871 -4.20522 0.271907 0
M  V30 4125 H 379.595 -3.22813 -0.495912 0
M  V30 4126 H 378.254 -3.28074 1.63595 0
M  V30 4127 H 377.902 -5.02862 -0.117845 0
M  V30 4128 H 377.602 -5.67765 1.51384 0
M  V30 4129 H 379.126 -6.06938 0.667693 0
M  V30 4130 H 380.54 -5.05688 2.70098 0
M  V30 4131 H 378.937 -4.89254 3.47491 0
M  V30 4132 H 380.007 -3.4826 3.37406 0
M  V30 4133 N 381.35 -0.985608 -1.22978 0
M  V30 4134 C 382.761 -0.693593 -1.73338 0
M  V30 4135 C 383.112 0.789935 -1.79595 0
M  V30 4136 O 382.237 1.61771 -1.43733 0
M  V30 4137 C 382.832 -1.25235 -3.14804 0
M  V30 4138 C 381.391 -1.00987 -3.626 0
M  V30 4139 C 380.538 -1.37695 -2.40698 0
M  V30 4140 H 383.489 -1.15884 -1.08428 0
M  V30 4141 H 383.51 -0.627329 -3.75293 0
M  V30 4142 H 383.022 -2.33209 -3.10218 0
M  V30 4143 H 381.123 0.0535565 -3.72562 0
M  V30 4144 H 381.236 -1.66812 -4.49122 0
M  V30 4145 H 379.6 -0.795459 -2.4196 0
M  V30 4146 H 380.383 -2.46657 -2.38779 0
M  V30 4147 N 382.828 1.3818 -0.7579 0
M  V30 4148 C 383.76 2.2901 -0.0932177 0
M  V30 4149 C 384.773 1.47958 0.679136 0
M  V30 4150 O 385.962 1.70773 0.519514 0
M  V30 4151 C 383.062 3.26953 0.89192 0
M  V30 4152 C 382.235 4.37045 0.176303 0
M  V30 4153 C 381.294 5.15148 1.07281 0
M  V30 4154 O 380.32 5.66616 0.541728 0
M  V30 4155 N 381.522 5.28542 2.40049 0
M  V30 4156 H 384.287 2.86694 -0.873303 0
M  V30 4157 H 381.848 1.50007 -0.609054 0
M  V30 4158 H 383.84 3.76083 1.49479 0
M  V30 4159 H 382.41 2.70136 1.57306 0
M  V30 4160 H 381.63 3.89493 -0.607328 0
M  V30 4161 H 382.918 5.07801 -0.318718 0
M  V30 4162 H 382.316 4.88285 2.85647 0
M  V30 4163 H 380.873 5.8103 2.95376 0
M  V30 4164 N 384.306 0.507319 1.49211 0
M  V30 4165 C 385.717 0.0611118 1.866 0
M  V30 4166 C 386.068 -1.35488 1.41907 0
M  V30 4167 O 385.193 -2.0108 0.799726 0
M  V30 4168 C 385.788 0.104125 3.3864 0
M  V30 4169 C 384.347 -0.28677 3.75306 0
M  V30 4170 C 383.494 0.473893 2.73221 0
M  V30 4171 H 386.445 0.719775 1.41439 0
M  V30 4172 H 386.466 -0.689672 3.74198 0
M  V30 4173 H 385.978 1.13482 3.71138 0
M  V30 4174 H 384.079 -1.32046 3.48417 0
M  V30 4175 H 384.192 0.0370745 4.79086 0
M  V30 4176 H 382.556 -0.0770644 2.54583 0
M  V30 4177 H 383.339 1.50478 3.08563 0
M  V30 4178 N 385.784 -1.5574 0.241426 0
M  V30 4179 C 386.732 -2.22538 -0.676718 0
M  V30 4180 C 387.726 -1.21117 -1.18436 0
M  V30 4181 O 388.932 -1.39144 -1.14188 0
M  V30 4182 H 385.307 -0.713776 -0.236701 0
M  V30 4183 H 387.278 -2.98264 -0.0901187 0
M  V30 4184 C 386.027 -2.93439 -1.86518 0
M  V30 4185 H 385.35 -3.7125 -1.4837 0
M  V30 4186 H 386.79 -3.43549 -2.48495 0
M  V30 4187 C 385.249 -1.97008 -2.73294 0
M  V30 4188 O 385.779 -1.49965 -3.72657 0
M  V30 4189 N 383.985 -1.64227 -2.39745 0
M  V30 4190 H 383.532 -2.02677 -1.58996 0
M  V30 4191 H 383.49 -0.999708 -2.98083 0
M  V30 4192 N 387.262 0.0317525 -1.57568 0
M  V30 4193 C 388.487 0.738664 -1.938 0
M  V30 4194 C 388.912 1.68242 -0.841208 0
M  V30 4195 O 388.27 1.80157 0.203267 0
M  V30 4196 C 388.318 1.47417 -3.29091 0
M  V30 4197 O 387.422 2.5872 -3.2115 0
M  V30 4198 H 386.763 0.198856 -0.633524 0
M  V30 4199 H 389.293 -0.0119713 -2.04596 0
M  V30 4200 H 389.303 1.84468 -3.63917 0
M  V30 4201 H 387.978 0.781988 -4.08482 0
M  V30 4202 H 386.555 2.24231 -2.97951 0
M  V30 4203 N 388.74 1.54641 0.303973 0
M  V30 4204 C 389.67 1.88386 1.3796 0
M  V30 4205 C 390.651 0.742485 1.5304 0
M  V30 4206 O 391.836 0.997959 1.66597 0
M  V30 4207 C 388.966 2.12854 2.74427 0
M  V30 4208 C 387.92 3.28702 2.74115 0
M  V30 4209 C 387.246 3.38582 4.13844 0
M  V30 4210 C 388.546 4.65881 2.3612 0
M  V30 4211 H 390.24 2.78474 1.09966 0
M  V30 4212 H 387.786 1.33988 0.527556 0
M  V30 4213 H 389.739 2.35047 3.49758 0
M  V30 4214 H 388.463 1.19535 3.03939 0
M  V30 4215 H 387.122 3.06428 2.0124 0
M  V30 4216 H 386.77 2.42784 4.40528 0
M  V30 4217 H 386.47 4.16453 4.14537 0
M  V30 4218 H 387.994 3.63031 4.90959 0
M  V30 4219 H 389.408 4.87823 3.01167 0
M  V30 4220 H 387.805 5.46444 2.48031 0
M  V30 4221 H 388.875 4.66799 1.3125 0
M  V30 4222 N 390.218 -0.567019 1.47046 0
M  V30 4223 C 391.458 -1.3355 1.54738 0
M  V30 4224 C 391.822 -1.90947 0.200772 0
M  V30 4225 O 393.023 -2.68367 0.152489 0
M  V30 4226 C 391.294 -2.42317 2.62712 0
M  V30 4227 S 392.853 -3.29383 2.89918 0
M  V30 4228 H 389.671 -0.454788 0.546525 0
M  V30 4229 H 392.273 -0.650191 1.84371 0
M  V30 4230 H 390.977 -1.98568 3.59164 0
M  V30 4231 H 390.508 -3.15601 2.34861 0
M  V30 4232 H 392.523 -4.41548 2.26384 0
M  V30 4233 N 391.696 -1.35014 -0.812953 0
M  V30 4234 C 392.921 -1.31187 -1.60639 0
M  V30 4235 C 393.346 0.109382 -1.87782 0
M  V30 4236 O 392.704 1.07424 -1.46047 0
M  V30 4237 C 392.752 -2.11809 -2.91838 0
M  V30 4238 O 391.856 -1.49444 -3.8437 0
M  V30 4239 H 391.197 -0.450084 -0.488181 0
M  V30 4240 H 393.727 -1.77963 -1.00947 0
M  V30 4241 H 393.737 -2.23531 -3.41318 0
M  V30 4242 H 392.412 -3.15137 -2.71407 0
M  V30 4243 H 390.989 -1.46524 -3.42907 0
M  V30 4244 N 393.175 1.03435 -1.18907 0
M  V30 4245 C 394.105 2.13503 -0.945448 0
M  V30 4246 C 395.086 1.69682 0.119189 0
M  V30 4247 O 396.271 1.94169 -0.034707 0
M  V30 4248 C 393.401 3.44004 -0.477316 0
M  V30 4249 C 392.355 4.0148 -1.48316 0
M  V30 4250 C 391.681 5.27537 -0.872311 0
M  V30 4251 C 392.981 4.36921 -2.86177 0
M  V30 4252 H 394.675 2.34141 -1.86597 0
M  V30 4253 H 392.221 1.12523 -0.898584 0
M  V30 4254 H 394.174 4.20372 -0.294204 0
M  V30 4255 H 392.898 3.23072 0.478786 0
M  V30 4256 H 391.557 3.27201 -1.65332 0
M  V30 4257 H 391.205 5.02917 0.0911752 0
M  V30 4258 H 390.905 5.66954 -1.54393 0
M  V30 4259 H 392.429 6.06576 -0.699871 0
M  V30 4260 H 393.843 5.04248 -2.72776 0
M  V30 4261 H 392.24 4.87405 -3.50081 0
M  V30 4262 H 393.31 3.46466 -3.39248 0
M  V30 4263 N 394.653 0.992116 1.22453 0
M  V30 4264 C 395.899 0.668523 1.91464 0
M  V30 4265 C 396.232 -0.797313 1.77078 0
M  V30 4266 O 395.507 -1.5765 1.13916 0
M  V30 4267 C 395.79 1.07424 3.43703 0
M  V30 4268 C 395.643 2.59857 3.67143 0
M  V30 4269 C 396.962 0.626891 4.35612 0
M  V30 4270 H 394.081 0.244341 0.695318 0
M  V30 4271 H 396.723 1.2355 1.44345 0
M  V30 4272 H 394.873 0.591816 3.83966 0
M  V30 4273 H 396.545 3.15764 3.3629 0
M  V30 4274 H 394.788 3.01961 3.11451 0
M  V30 4275 H 395.459 2.83296 4.73759 0
M  V30 4276 H 397.935 1.04125 4.02861 0
M  V30 4277 H 396.811 0.939076 5.40807 0
M  V30 4278 H 397.072 -0.472457 4.39568 0
M  V30 4279 N 396.131 -1.37776 0.765217 0
M  V30 4280 C 397.377 -2.00145 0.327072 0
M  V30 4281 C 397.71 -1.60607 -1.09175 0
M  V30 4282 O 396.985 -0.849127 -1.74986 0
M  V30 4283 C 397.268 -3.57109 0.46319 0
M  V30 4284 C 397.121 -4.06576 1.92395 0
M  V30 4285 C 398.44 -4.39888 -0.136473 0
M  V30 4286 H 395.559 -0.727113 0.120316 0
M  V30 4287 H 398.201 -1.63549 0.967039 0
M  V30 4288 H 396.351 -3.88414 -0.0816358 0
M  V30 4289 H 398.023 -3.85864 2.52798 0
M  V30 4290 H 396.266 -3.59011 2.43503 0
M  V30 4291 H 396.937 -5.15639 1.97028 0
M  V30 4292 H 399.413 -4.14803 0.328317 0
M  V30 4293 H 398.289 -5.48899 -0.0110582 0
M  V30 4294 H 398.55 -4.24758 -1.22608 0
M  V30 4295 N 397.609 -0.515225 -1.4894 0
M  V30 4296 C 398.519 0.259774 -2.33157 0
M  V30 4297 C 399.535 0.953501 -1.45548 0
M  V30 4298 O 400.711 0.931735 -1.78552 0
M  V30 4299 C 397.776 1.30193 -3.21326 0
M  V30 4300 C 396.837 0.620129 -4.24797 0
M  V30 4301 C 396.07 1.61263 -5.08753 0
M  V30 4302 O 396.293 2.84389 -4.94448 0
M  V30 4303 O 395.227 1.16013 -5.90614 0
M  V30 4304 H 399.053 -0.429932 -3.00641 0
M  V30 4305 H 396.638 -0.276346 -1.46822 0
M  V30 4306 H 398.52 1.90455 -3.75905 0
M  V30 4307 H 397.195 1.97431 -2.56521 0
M  V30 4308 H 396.102 -0.0226019 -3.74093 0
M  V30 4309 H 397.435 -0.0100493 -4.92199 0
M  V30 4310 N 399.087 1.5561 -0.249682 0
M  V30 4311 C 400.498 1.84979 0.252949 0
M  V30 4312 C 400.849 1.17153 1.57384 0
M  V30 4313 O 399.974 0.450884 2.11651 0
M  V30 4314 C 400.569 3.35584 0.465732 0
M  V30 4315 C 399.128 3.65169 0.912624 0
M  V30 4316 C 398.275 2.77299 -0.00859085 0
M  V30 4317 H 401.226 1.51513 -0.47217 0
M  V30 4318 H 401.247 3.57313 1.30795 0
M  V30 4319 H 400.759 3.8492 -0.49579 0
M  V30 4320 H 398.86 3.21312 1.88652 0
M  V30 4321 H 398.973 4.72912 0.767559 0
M  V30 4322 H 397.337 2.49678 0.50327 0
M  V30 4323 H 398.12 3.29442 -0.965537 0
M  V30 4324 N 400.565 -0.0233959 1.57583 0
M  V30 4325 C 401.498 -1.05549 2.02323 0
M  V30 4326 C 402.476 -1.34843 0.908626 0
M  V30 4327 O 403.66 -1.47404 1.17491 0
M  V30 4328 C 400.787 -2.38885 2.40108 0
M  V30 4329 C 399.833 -2.2541 3.62067 0
M  V30 4330 S 400.666 -1.60217 5.1097 0
M  V30 4331 C 401.822 -2.95032 5.52003 0
M  V30 4332 H 402.055 -0.674435 2.89549 0
M  V30 4333 H 399.588 -0.23355 1.52623 0
M  V30 4334 H 401.546 -3.15562 2.62547 0
M  V30 4335 H 400.207 -2.74137 1.53323 0
M  V30 4336 H 399.4 -3.23854 3.86179 0
M  V30 4337 H 399.002 -1.56876 3.39508 0
M  V30 4338 H 401.294 -3.91357 5.53033 0
M  V30 4339 H 402.237 -2.75646 6.52246 0
M  V30 4340 H 402.645 -2.97865 4.79517 0
M  V30 4341 N 402.043 -1.548 -0.295768 0
M  V30 4342 C 402.953 -1.89177 -1.38742 0
M  V30 4343 C 403.969 -0.786481 -1.55211 0
M  V30 4344 O 405.145 -1.08344 -1.69775 0
M  V30 4345 C 402.21 -2.13663 -2.73036 0
M  V30 4346 C 401.271 -3.37349 -2.65508 0
M  V30 4347 C 400.504 -3.60658 -3.93398 0
M  V30 4348 O 400.727 -2.86882 -4.93006 0
M  V30 4349 O 399.661 -4.54179 -3.94975 0
M  V30 4350 H 403.487 -2.82059 -1.12589 0
M  V30 4351 H 401.072 -1.41056 -0.492295 0
M  V30 4352 H 402.954 -2.3094 -3.52484 0
M  V30 4353 H 401.629 -1.23967 -2.99022 0
M  V30 4354 H 400.536 -3.25431 -1.84514 0
M  V30 4355 H 401.869 -4.27192 -2.44474 0
M  V30 4356 N 403.521 0.559213 -1.47345 0
M  V30 4357 C 404.469 1.68747 -1.60085 0
M  V30 4358 C 405.463 1.628 -0.46825 0
M  V30 4359 O 406.669 1.68009 -0.645977 0
M  V30 4360 H 403.044 0.558329 -0.503759 0
M  V30 4361 H 405.015 1.55138 -2.54902 0
M  V30 4362 C 403.764 3.07103 -1.63042 0
M  V30 4363 H 403.087 3.12361 -2.49541 0
M  V30 4364 H 404.527 3.85743 -1.76006 0
M  V30 4365 C 402.986 3.34935 -0.363357 0
M  V30 4366 O 403.516 3.98102 0.536416 0
M  V30 4367 N 401.722 2.89574 -0.244 0
M  V30 4368 H 401.269 2.38348 -0.977133 0
M  V30 4369 H 401.227 3.08566 0.602836 0
M  V30 4370 N 404.999 1.35443 0.805782 0
M  V30 4371 C 406.245 1.2996 1.56467 0
M  V30 4372 C 406.6 -0.124742 1.91995 0
M  V30 4373 O 405.893 -1.07533 1.58579 0
M  V30 4374 C 406.087 2.14045 2.86216 0
M  V30 4375 C 405.916 3.64512 2.63365 0
M  V30 4376 C 404.686 4.33744 2.59219 0
M  V30 4377 C 406.884 4.58142 2.33688 0
M  V30 4378 N 404.866 5.69953 2.28094 0
M  V30 4379 C 406.237 5.8248 2.12408 0
M  V30 4380 C 408.292 4.46877 2.19558 0
M  V30 4381 C 406.995 6.96818 1.78429 0
M  V30 4382 C 409.021 5.61065 1.86976 0
M  V30 4383 C 408.383 6.84431 1.66532 0
M  V30 4384 H 404.482 0.530817 0.574245 0
M  V30 4385 H 407.066 1.70333 0.943126 0
M  V30 4386 H 405.237 1.75942 3.46264 0
M  V30 4387 H 406.969 2.00075 3.51784 0
M  V30 4388 H 403.724 3.86365 2.73896 0
M  V30 4389 H 404.148 6.41845 2.15323 0
M  V30 4390 H 408.79 3.52102 2.34061 0
M  V30 4391 H 406.508 7.91559 1.62664 0
M  V30 4392 H 410.094 5.54302 1.7675 0
M  V30 4393 H 408.974 7.71294 1.41688 0
M  V30 4394 N 406.477 -1.02803 1.19454 0
M  V30 4395 C 407.407 -2.12999 0.956758 0
M  V30 4396 C 408.388 -1.69743 -0.110188 0
M  V30 4397 O 409.573 -1.94148 0.0450038 0
M  V30 4398 C 406.703 -3.43746 0.495553 0
M  V30 4399 C 405.657 -4.00688 1.50443 0
M  V30 4400 C 404.983 -5.27067 0.900275 0
M  V30 4401 C 406.283 -4.35397 2.8849 0
M  V30 4402 H 407.977 -2.33148 1.87836 0
M  V30 4403 H 405.523 -1.12045 0.904539 0
M  V30 4404 H 407.476 -4.2021 0.316493 0
M  V30 4405 H 406.2 -3.23321 -0.461646 0
M  V30 4406 H 404.859 -3.2632 1.67065 0
M  V30 4407 H 404.507 -5.02959 -0.064503 0
M  V30 4408 H 404.207 -5.66127 1.57397 0
M  V30 4409 H 405.731 -6.06196 0.73203 0
M  V30 4410 H 407.145 -5.02795 2.75446 0
M  V30 4411 H 405.542 -4.85541 3.52661 0
M  V30 4412 H 406.612 -3.44662 3.41081 0
M  V30 4413 N 407.956 -0.998596 -1.21925 0
M  V30 4414 C 408.888 -0.511879 -2.23411 0
M  V30 4415 C 409.901 0.396094 -1.57908 0
M  V30 4416 O 411.09 0.197316 -1.77406 0
M  V30 4417 C 408.19 0.276802 -3.37768 0
M  V30 4418 C 407.363 -0.628687 -4.32858 0
M  V30 4419 C 406.422 0.109272 -5.26087 0
M  V30 4420 O 405.448 -0.507237 -5.66935 0
M  V30 4421 N 406.65 1.38983 -5.63617 0
M  V30 4422 H 409.415 -1.38457 -2.658 0
M  V30 4423 H 406.976 -0.873981 -1.36283 0
M  V30 4424 H 408.968 0.77928 -3.97126 0
M  V30 4425 H 407.538 1.05063 -2.94415 0
M  V30 4426 H 406.758 -1.31175 -3.71735 0
M  V30 4427 H 408.046 -1.24514 -4.93329 0
M  V30 4428 H 407.444 1.91194 -5.32411 0
M  V30 4429 H 406.001 1.83739 -6.25367 0
M  V30 4430 N 409.434 1.37368 -0.772513 0
M  V30 4431 C 410.364 2.32856 -0.173304 0
M  V30 4432 C 411.345 1.55818 0.682262 0
M  V30 4433 O 412.53 1.84052 0.619566 0
M  V30 4434 C 409.66 3.40048 0.706007 0
M  V30 4435 C 408.614 4.27973 -0.0483144 0
M  V30 4436 C 407.94 5.26184 0.950491 0
M  V30 4437 C 409.24 5.07665 -1.22776 0
M  V30 4438 H 410.934 2.83217 -0.971002 0
M  V30 4439 H 408.48 1.3617 -0.468377 0
M  V30 4440 H 410.433 4.05827 1.13501 0
M  V30 4441 H 409.157 2.88214 1.53623 0
M  V30 4442 H 407.816 3.63726 -0.458107 0
M  V30 4443 H 407.464 4.7063 1.77529 0
M  V30 4444 H 407.164 5.85872 0.450314 0
M  V30 4445 H 408.688 5.94838 1.37842 0
M  V30 4446 H 410.102 5.66578 -0.875366 0
M  V30 4447 H 408.499 5.76681 -1.66007 0
M  V30 4448 H 409.569 4.40294 -2.03149 0
M  V30 4449 N 410.912 0.523116 1.48665 0
M  V30 4450 C 411.845 -0.290518 2.26343 0
M  V30 4451 C 412.823 -0.950913 1.31895 0
M  V30 4452 O 414.007 -0.976662 1.61225 0
M  V30 4453 C 411.134 -1.41088 3.07915 0
M  V30 4454 C 410.18 -0.862597 4.17686 0
M  V30 4455 S 411.013 0.264135 5.34848 0
M  V30 4456 C 412.169 -0.858864 6.19979 0
M  V30 4457 H 412.402 0.368726 2.95005 0
M  V30 4458 H 409.935 0.30878 1.51281 0
M  V30 4459 H 411.893 -2.0527 3.55492 0
M  V30 4460 H 410.554 -2.04182 2.38681 0
M  V30 4461 H 409.747 -1.70287 4.74361 0
M  V30 4462 H 409.349 -0.297595 3.72814 0
M  V30 4463 H 411.641 -1.7591 6.54264 0
M  V30 4464 H 412.584 -0.330244 7.07329 0
M  V30 4465 H 412.992 -1.13617 5.52948 0
M  V30 4466 N 412.39 -1.55475 0.257931 0
M  V30 4467 C 413.32 -2.24815 -0.630912 0
M  V30 4468 C 414.301 -1.23224 -1.17259 0
M  V30 4469 O 415.486 -1.51904 -1.20991 0
M  V30 4470 C 412.616 -2.95609 -1.82298 0
M  V30 4471 C 411.57 -4.03982 -1.41359 0
M  V30 4472 C 410.896 -4.6226 -2.68738 0
M  V30 4473 C 412.196 -5.19109 -0.57648 0
M  V30 4474 H 413.89 -2.99354 -0.0526878 0
M  V30 4475 H 411.436 -1.4398 -0.023901 0
M  V30 4476 H 413.389 -3.42822 -2.45054 0
M  V30 4477 H 412.113 -2.18577 -2.42676 0
M  V30 4478 H 410.772 -3.57555 -0.809324 0
M  V30 4479 H 410.42 -3.81915 -3.27338 0
M  V30 4480 H 410.12 -5.35424 -2.42065 0
M  V30 4481 H 411.644 -5.12212 -3.32372 0
M  V30 4482 H 413.058 -5.62479 -1.10861 0
M  V30 4483 H 411.455 -5.98729 -0.405351 0
M  V30 4484 H 412.525 -4.83174 0.408776 0
M  V30 4485 N 413.868 0.0150385 -1.57593 0
M  V30 4486 C 414.816 1.02958 -2.08572 0
M  V30 4487 C 415.81 1.36554 -1.00246 0
M  V30 4488 O 417.016 1.35295 -1.18724 0
M  V30 4489 H 413.391 0.349619 -0.665786 0
M  V30 4490 H 415.362 0.573932 -2.92829 0
M  V30 4491 C 414.111 2.31752 -2.59203 0
M  V30 4492 H 413.434 2.06765 -3.42182 0
M  V30 4493 H 414.874 3.01053 -2.98568 0
M  V30 4494 C 413.333 3.01692 -1.49945 0
M  V30 4495 O 413.863 3.92083 -0.873704 0
M  V30 4496 N 412.069 2.6326 -1.23056 0
M  V30 4497 H 411.616 1.89838 -1.74125 0
M  V30 4498 H 411.574 3.10372 -0.501685 0
M  V30 4499 N 415.346 1.54954 0.287554 0
M  V30 4500 C 416.592 1.76059 1.01856 0
M  V30 4501 C 416.947 0.547056 1.84459 0
M  V30 4502 O 416.24 -0.460442 1.85985 0
M  V30 4503 C 416.434 2.99833 1.94512 0
M  V30 4504 C 416.263 4.33108 1.21026 0
M  V30 4505 C 415.033 4.96632 0.931896 0
M  V30 4506 C 417.231 5.10694 0.607949 0
M  V30 4507 N 415.213 6.13668 0.168716 0
M  V30 4508 C 416.584 6.19996 -0.0217865 0
M  V30 4509 C 418.639 4.95236 0.514338 0
M  V30 4510 C 417.342 7.15524 -0.736092 0
M  V30 4511 C 419.368 5.91106 -0.186343 0
M  V30 4512 C 418.73 6.99786 -0.804875 0
M  V30 4513 H 414.829 0.696679 0.355193 0
M  V30 4514 H 417.413 1.92441 0.295741 0
M  V30 4515 H 415.584 2.84853 2.64033 0
M  V30 4516 H 417.316 3.09405 2.60865 0
M  V30 4517 H 414.071 4.57255 1.23348 0
M  V30 4518 H 414.495 6.76705 -0.199781 0
M  V30 4519 H 419.137 4.11328 0.978234 0
M  V30 4520 H 416.855 7.98964 -1.21172 0
M  V30 4521 H 420.441 5.81224 -0.258897 0
M  V30 4522 H 419.321 7.72694 -1.33843 0
M  V30 4523 N 416.824 -0.551391 1.4764 0
M  V30 4524 C 418.101 -1.31229 1.45046 0
M  V30 4525 C 418.481 -2.10563 0.150527 0
M  V30 4526 O 417.829 -2.11374 -0.867956 0
M  V30 4527 C 418.039 -2.21189 2.69956 0
M  V30 4528 C 419.387 -2.82021 3.1741 0
M  V30 4529 O 420.411 -2.31488 2.70724 0
M  V30 4530 O 419.27 -3.73885 3.98588 0
M  V30 4531 H 416.364 -0.591193 0.578291 0
M  V30 4532 H 418.91 -0.569813 1.59847 0
M  V30 4533 H 417.682 -1.62207 3.56096 0
M  V30 4534 H 417.305 -3.02722 2.57769 0
M  V30 4535 N 418.302 -1.35869 -0.798587 0
M  V30 4536 C 419.713 -1.26498 -1.37314 0
M  V30 4537 C 420.064 0.0991899 -1.95949 0
M  V30 4538 O 419.189 1.0004 -1.91888 0
M  V30 4539 C 419.784 -2.29054 -2.49639 0
M  V30 4540 C 418.343 -2.234 -3.02935 0
M  V30 4541 C 417.49 -2.14329 -1.75949 0
M  V30 4542 H 420.441 -1.46881 -0.600971 0
M  V30 4543 H 420.462 -1.92166 -3.28409 0
M  V30 4544 H 419.974 -3.2833 -2.06933 0
M  V30 4545 H 418.075 -1.27562 -3.50084 0
M  V30 4546 H 418.188 -3.15703 -3.60372 0
M  V30 4547 H 416.552 -1.60435 -1.9782 0
M  V30 4548 H 417.335 -3.15477 -1.35384 0
M  V30 4549 N 419.78 1.02168 -1.19998 0
M  V30 4550 C 420.712 2.10705 -0.901994 0
M  V30 4551 C 421.725 1.6244 0.108216 0
M  V30 4552 O 422.914 1.78082 -0.12214 0
M  V30 4553 C 420.014 3.37291 -0.329834 0
M  V30 4554 C 419.187 4.14714 -1.39035 0
M  V30 4555 C 418.246 5.19606 -0.830432 0
M  V30 4556 O 417.272 5.48809 -1.50989 0
M  V30 4557 N 418.474 5.79366 0.362696 0
M  V30 4558 H 421.239 2.36856 -1.83628 0
M  V30 4559 H 418.8 1.18518 -1.10296 0
M  V30 4560 H 420.792 4.04657 0.0587633 0
M  V30 4561 H 419.362 3.0843 0.508891 0
M  V30 4562 H 418.582 3.42392 -1.9535 0
M  V30 4563 H 419.87 4.63226 -2.10474 0
M  V30 4564 H 419.268 5.57968 0.932081 0
M  V30 4565 H 417.825 6.48106 0.69299 0
M  V30 4566 N 421.258 1.00505 1.21394 0
M  V30 4567 C 422.19 0.52372 2.23136 0
M  V30 4568 C 423.203 -0.387714 1.58116 0
M  V30 4569 O 424.392 -0.187905 1.77508 0
M  V30 4570 C 421.492 -0.258885 3.3791 0
M  V30 4571 C 420.665 0.651634 4.32519 0
M  V30 4572 C 419.724 -0.0813705 5.26137 0
M  V30 4573 O 418.75 0.537295 5.66658 0
M  V30 4574 N 419.952 -1.35992 5.64346 0
M  V30 4575 H 422.717 1.39865 2.65062 0
M  V30 4576 H 420.278 0.881196 1.35818 0
M  V30 4577 H 422.27 -0.758208 3.97534 0
M  V30 4578 H 420.84 -1.035 2.94968 0
M  V30 4579 H 420.06 1.33145 3.71034 0
M  V30 4580 H 421.348 1.27129 4.92662 0
M  V30 4581 H 420.746 -1.88368 5.33417 0
M  V30 4582 H 419.303 -1.8042 6.26332 0
M  V30 4583 N 422.737 -1.36956 0.779787 0
M  V30 4584 C 424.153 -1.52817 0.460342 0
M  V30 4585 C 424.353 -1.7361 -1.02283 0
M  V30 4586 O 423.409 -1.76207 -1.80852 0
M  V30 4587 C 424.722 -2.71983 1.28241 0
M  V30 4588 C 426.27 -2.85849 1.27512 0
M  V30 4589 C 426.745 -4.08008 2.08072 0
M  V30 4590 N 428.236 -4.15135 2.05467 0
M  V30 4591 C 428.971 -5.08711 2.64577 0
M  V30 4592 N 428.467 -6.07792 3.32506 0
M  V30 4593 N 430.26 -5.01254 2.54363 0
M  V30 4594 H 422.411 -1.21713 1.74068 0
M  V30 4595 H 424.674 -0.593294 0.739396 0
M  V30 4596 H 424.38 -2.63109 2.33381 0
M  V30 4597 H 424.254 -3.65882 0.917088 0
M  V30 4598 H 426.641 -2.94189 0.231686 0
M  V30 4599 H 426.722 -1.92886 1.68014 0
M  V30 4600 H 426.366 -4.00429 3.12441 0
M  V30 4601 H 426.296 -5.001 1.64947 0
M  V30 4602 H 428.787 -3.44189 1.5602 0
M  V30 4603 H 429.1 -6.75739 3.74963 0
M  V30 4604 H 427.445 -6.08047 3.36606 0
M  V30 4605 H 430.636 -4.22795 2.00902 0
M  V30 4606 H 430.809 -5.73995 3.00722 0
M  V30 4607 N 424.215 -0.530993 -1.48385 0
M  V30 4608 C 425.463 0.00273189 -2.021 0
M  V30 4609 C 425.784 1.34672 -1.41027 0
M  V30 4610 O 425.054 1.8724 -0.576012 0
M  V30 4611 H 423.634 0.00399774 -0.746989 0
M  V30 4612 H 426.296 -0.695054 -1.82085 0
M  V30 4613 H 425.392 0.11031 -3.11905 0
M  V30 4614 N 425.693 1.55336 -0.266172 0
M  V30 4615 C 426.941 1.99003 0.35246 0
M  V30 4616 C 427.262 1.15591 1.57047 0
M  V30 4617 O 426.532 0.243268 1.94384 0
M  V30 4618 H 425.112 0.735025 0.133217 0
M  V30 4619 H 427.774 1.91367 -0.369434 0
M  V30 4620 H 426.87 3.05289 0.648453 0
M  V30 4621 N 427.171 -0.0066808 1.57599 0
M  V30 4622 C 428.582 -0.550379 1.78403 0
M  V30 4623 C 428.933 -1.74339 0.900014 0
M  V30 4624 O 428.058 -2.16166 0.100713 0
M  V30 4625 C 428.653 -1.00523 3.23544 0
M  V30 4626 C 427.212 -1.49428 3.45468 0
M  V30 4627 C 426.359 -0.442444 2.73748 0
M  V30 4628 H 429.31 0.219508 1.57175 0
M  V30 4629 H 429.331 -1.87157 3.31289 0
M  V30 4630 H 428.843 -0.136735 3.87859 0
M  V30 4631 H 426.944 -2.3839 2.86358 0
M  V30 4632 H 427.057 -1.52635 4.54136 0
M  V30 4633 H 425.421 -0.902578 2.38171 0
M  V30 4634 H 426.204 0.416973 3.40758 0
M  V30 4635 N 428.649 -1.55105 -0.279332 0
M  V30 4636 C 429.895 -1.75672 -1.01327 0
M  V30 4637 C 430.228 -0.552739 -1.86168 0
M  V30 4638 O 429.503 0.449827 -1.89227 0
M  V30 4639 C 429.786 -3.05825 -1.90114 0
M  V30 4640 C 429.639 -4.36565 -1.08309 0
M  V30 4641 C 430.958 -3.31975 -2.8893 0
M  V30 4642 H 428.077 -0.639149 -0.366957 0
M  V30 4643 H 430.719 -1.87833 -0.286154 0
M  V30 4644 H 428.869 -2.95588 -2.52111 0
M  V30 4645 H 430.541 -4.58751 -0.484314 0
M  V30 4646 H 428.784 -4.32076 -0.386362 0
M  V30 4647 H 429.455 -5.23946 -1.73737 0
M  V30 4648 H 431.931 -3.41963 -2.37067 0
M  V30 4649 H 430.807 -4.2432 -3.48201 0
M  V30 4650 H 431.068 -2.51309 -3.63725 0
M  V30 4651 N 430.127 0.543554 -1.4793 0
M  V30 4652 C 431.404 1.30458 -1.4574 0
M  V30 4653 C 431.784 2.1048 -0.161692 0
M  V30 4654 O 431.132 2.11831 0.856734 0
M  V30 4655 C 431.342 2.19754 -2.71126 0
M  V30 4656 C 432.69 2.80334 -3.18901 0
M  V30 4657 O 433.714 2.30049 -2.71948 0
M  V30 4658 O 432.573 3.71766 -4.00565 0
M  V30 4659 H 429.667 0.588117 -0.581418 0
M  V30 4660 H 432.213 0.561328 -1.60147 0
M  V30 4661 H 430.985 1.60316 -3.56952 0
M  V30 4662 H 430.608 3.01351 -2.59371 0
M  V30 4663 N 431.605 1.3629 0.791371 0
M  V30 4664 C 432.535 1.33137 1.91825 0
M  V30 4665 C 433.516 0.203168 1.68882 0
M  V30 4666 O 434.701 0.400509 1.90025 0
M  V30 4667 C 431.831 1.11793 3.28816 0
M  V30 4668 C 430.785 2.21417 3.66277 0
M  V30 4669 C 430.111 1.85218 5.01596 0
M  V30 4670 C 431.411 3.63489 3.75064 0
M  V30 4671 H 433.105 2.2743 1.9472 0
M  V30 4672 H 430.651 1.09479 0.935437 0
M  V30 4673 H 432.604 1.08222 4.07266 0
M  V30 4674 H 431.328 0.139501 3.26302 0
M  V30 4675 H 429.987 2.2411 2.90121 0
M  V30 4676 H 429.635 0.859544 4.95602 0
M  V30 4677 H 429.335 2.58611 5.27631 0
M  V30 4678 H 430.859 1.832 5.82469 0
M  V30 4679 H 432.273 3.63034 4.43711 0
M  V30 4680 H 430.67 4.35771 4.12582 0
M  V30 4681 H 431.74 3.98536 2.76219 0
M  V30 4682 N 433.083 -1.0153 1.20538 0
M  V30 4683 C 434.311 -1.78746 1.04199 0
M  V30 4684 C 434.726 -1.84323 -0.408733 0
M  V30 4685 O 434.083 -1.29714 -1.28377 0
M  V30 4686 C 434.134 -3.23152 1.62035 0
M  V30 4687 O 433.855 -3.17918 3.0143 0
M  V30 4688 C 435.356 -4.16911 1.50666 0
M  V30 4689 H 432.576 -0.56208 0.366479 0
M  V30 4690 H 435.12 -1.27794 1.59653 0
M  V30 4691 H 433.275 -3.71248 1.10697 0
M  V30 4692 H 433.689 -4.08567 3.28897 0
M  V30 4693 H 435.163 -5.16072 1.95892 0
M  V30 4694 H 435.64 -4.36791 0.459363 0
M  V30 4695 H 436.246 -3.74698 2.01201 0
M  V30 4696 N 434.561 -1.01147 -1.20859 0
M  V30 4697 C 435.491 -0.597663 -2.25722 0
M  V30 4698 C 436.472 0.384744 -1.65692 0
M  V30 4699 O 437.657 0.271303 -1.92296 0
M  V30 4700 C 434.787 0.0700149 -3.47229 0
M  V30 4701 C 433.741 -0.832843 -4.19819 0
M  V30 4702 C 433.067 -0.0312202 -5.34691 0
M  V30 4703 C 434.367 -2.1385 -4.76514 0
M  V30 4704 H 436.061 -1.47423 -2.60589 0
M  V30 4705 H 433.607 -0.710301 -1.25263 0
M  V30 4706 H 435.56 0.37103 -4.19763 0
M  V30 4707 H 434.284 0.981259 -3.11511 0
M  V30 4708 H 432.943 -1.11778 -3.49144 0
M  V30 4709 H 432.591 0.881515 -4.95215 0
M  V30 4710 H 432.291 -0.632434 -5.84187 0
M  V30 4711 H 433.815 0.26346 -6.10031 0
M  V30 4712 H 435.229 -1.9002 -5.40893 0
M  V30 4713 H 433.626 -2.69012 -5.36426 0
M  V30 4714 H 434.696 -2.80495 -3.95538 0
M  V30 4715 N 436.039 1.36541 -0.78704 0
M  V30 4716 C 436.986 2.30082 -0.181901 0
M  V30 4717 C 437.956 1.5186 0.672896 0
M  V30 4718 O 439.141 1.80374 0.622072 0
M  V30 4719 C 436.281 3.3835 0.679197 0
M  V30 4720 C 435.394 4.31565 -0.193882 0
M  V30 4721 C 434.529 5.26915 0.673364 0
M  V30 4722 C 433.568 6.11769 -0.201315 0
M  V30 4723 N 432.705 6.99315 0.624777 0
M  V30 4724 H 437.545 2.81248 -0.985064 0
M  V30 4725 H 435.082 1.38437 -0.497342 0
M  V30 4726 H 437.04 3.99767 1.19341 0
M  V30 4727 H 435.67 2.8851 1.44781 0
M  V30 4728 H 434.722 3.71323 -0.826044 0
M  V30 4729 H 436.034 4.91191 -0.867937 0
M  V30 4730 H 435.188 5.9361 1.25348 0
M  V30 4731 H 433.927 4.67737 1.38105 0
M  V30 4732 H 432.932 5.44039 -0.793849 0
M  V30 4733 H 434.157 6.73022 -0.906568 0
M  V30 4734 H 432.103 6.42648 1.3168 0
M  V30 4735 H 432.02 7.56 0.00835237 0
M  V30 4736 H 433.288 7.70382 1.18879 0
M  V30 4737 N 437.518 0.538854 1.48102 0
M  V30 4738 C 438.45 -0.256278 2.27763 0
M  V30 4739 C 439.463 -0.89633 1.35904 0
M  V30 4740 O 440.652 -0.773275 1.60881 0
M  V30 4741 C 437.752 -1.37896 3.09577 0
M  V30 4742 C 436.925 -0.839159 4.29275 0
M  V30 4743 C 435.984 -1.84405 4.9283 0
M  V30 4744 O 435.01 -1.39746 5.51779 0
M  V30 4745 N 436.212 -3.17666 4.85869 0
M  V30 4746 H 438.977 0.426968 2.96643 0
M  V30 4747 H 436.538 0.373747 1.57527 0
M  V30 4748 H 438.53 -2.04955 3.48963 0
M  V30 4749 H 437.1 -1.96572 2.4306 0
M  V30 4750 H 436.32 0.00769287 3.94199 0
M  V30 4751 H 437.608 -0.457548 5.06739 0
M  V30 4752 H 437.006 -3.56609 4.39143 0
M  V30 4753 H 435.563 -3.80334 5.29329 0
M  V30 4754 N 438.996 -1.55193 0.274407 0
M  V30 4755 C 440.407 -1.85358 -0.223488 0
M  V30 4756 C 440.758 -1.19642 -1.555 0
M  V30 4757 O 439.883 -0.484498 -2.10907 0
M  V30 4758 C 440.478 -3.36282 -0.412285 0
M  V30 4759 C 439.037 -3.66574 -0.854413 0
M  V30 4760 C 438.184 -2.7725 0.0527056 0
M  V30 4761 H 441.135 -1.50743 0.496215 0
M  V30 4762 H 441.156 -3.59349 -1.25094 0
M  V30 4763 H 440.668 -3.84083 0.556965 0
M  V30 4764 H 438.769 -3.24273 -1.83516 0
M  V30 4765 H 438.882 -4.74073 -0.692226 0
M  V30 4766 H 437.246 -2.50447 -0.463484 0
M  V30 4767 H 438.029 -3.27865 1.01783 0
M  V30 4768 N 440.474 -0.00167713 -1.576 0
M  V30 4769 C 441.89 0.354422 -1.55615 0
M  V30 4770 C 442.09 1.74679 -1.00447 0
M  V30 4771 O 441.146 2.4428 -0.639022 0
M  V30 4772 C 442.459 0.22812 -2.99833 0
M  V30 4773 C 444.007 0.302934 -3.11531 0
M  V30 4774 C 444.482 0.205737 -4.57538 0
M  V30 4775 N 445.973 0.263584 -4.62449 0
M  V30 4776 C 446.708 0.211742 -5.73009 0
M  V30 4777 N 446.204 0.110399 -6.92712 0
M  V30 4778 N 447.997 0.263729 -5.61481 0
M  V30 4779 H 440.148 -0.912498 -1.918 0
M  V30 4780 H 442.411 -0.349928 -0.881053 0
M  V30 4781 H 442.117 -0.729934 -3.44042 0
M  V30 4782 H 441.991 1.00951 -3.6344 0
M  V30 4783 H 444.378 1.25143 -2.67251 0
M  V30 4784 H 444.459 -0.508357 -2.50698 0
M  V30 4785 H 444.103 -0.739225 -5.02492 0
M  V30 4786 H 444.033 1.03554 -5.16318 0
M  V30 4787 H 446.524 0.343173 -3.76339 0
M  V30 4788 H 446.837 0.0767828 -7.72762 0
M  V30 4789 H 445.182 0.0760025 -6.94958 0
M  V30 4790 H 448.373 0.34111 -4.66855 0
M  V30 4791 H 448.546 0.219862 -6.47627 0
M  V30 4792 N 441.952 1.55251 0.271103 0
M  V30 4793 C 443.192 1.77698 1.01008 0
M  V30 4794 C 443.556 0.567246 1.83429 0
M  V30 4795 O 444.757 0.670013 2.60316 0
M  V30 4796 C 443.028 3.04715 1.86772 0
M  V30 4797 S 444.587 3.48289 2.66909 0
M  V30 4798 H 441.405 0.624343 0.340172 0
M  V30 4799 H 444.007 1.9348 0.280315 0
M  V30 4800 H 442.711 3.90853 1.25149 0
M  V30 4801 H 442.242 2.91604 2.64066 0
M  V30 4802 H 444.257 3.07712 3.89266 0
M  V30 4803 N 443.43 -0.535701 1.48216 0
M  V30 4804 C 444.677 -1.29183 1.55942 0
M  V30 4805 C 445.005 -1.93125 0.230857 0
M  V30 4806 O 444.26 -1.79556 -0.778331 0
M  V30 4807 C 444.559 -2.4068 2.64212 0
M  V30 4808 C 444.225 -1.94428 4.06827 0
M  V30 4809 C 442.887 -1.81532 4.45645 0
M  V30 4810 C 445.239 -1.59405 4.96225 0
M  V30 4811 C 442.567 -1.31939 5.71672 0
M  V30 4812 C 444.919 -1.11276 6.22736 0
M  V30 4813 C 443.583 -0.969924 6.60416 0
M  V30 4814 H 442.853 -0.472715 0.570632 0
M  V30 4815 H 445.5 -0.598437 1.81909 0
M  V30 4816 H 443.805 -3.15666 2.32083 0
M  V30 4817 H 445.502 -2.98822 2.67407 0
M  V30 4818 H 442.092 -2.05415 3.76168 0
M  V30 4819 H 446.276 -1.68231 4.66917 0
M  V30 4820 H 441.532 -1.19562 5.99596 0
M  V30 4821 H 445.706 -0.832453 6.91407 0
M  V30 4822 H 443.333 -0.583436 7.57958 0
M  V30 4823 N 444.908 -1.36708 -0.784132 0
M  V30 4824 C 446.154 -1.31426 -1.54451 0
M  V30 4825 C 446.487 0.10476 -1.93917 0
M  V30 4826 O 445.762 1.05934 -1.6312 0
M  V30 4827 C 446.045 -2.24189 -2.818 0
M  V30 4828 C 445.898 -3.74813 -2.48667 0
M  V30 4829 C 447.217 -2.15626 -3.83658 0
M  V30 4830 H 444.336 -0.478739 -0.560337 0
M  V30 4831 H 446.978 -1.67305 -0.900498 0
M  V30 4832 H 445.128 -1.93722 -3.36755 0
M  V30 4833 H 446.8 -4.15823 -1.99722 0
M  V30 4834 H 445.043 -3.93989 -1.81535 0
M  V30 4835 H 445.714 -4.35138 -3.39646 0
M  V30 4836 H 448.19 -2.42456 -3.38163 0
M  V30 4837 H 447.066 -2.82694 -4.70506 0
M  V30 4838 H 447.327 -1.14522 -4.27009 0
M  V30 4839 N 446.386 1.0089 -1.21074 0
M  V30 4840 C 447.316 2.1145 -0.990523 0
M  V30 4841 C 448.297 1.69897 0.0831699 0
M  V30 4842 O 449.482 1.94052 -0.0758853 0
M  V30 4843 C 446.612 3.42914 -0.550177 0
M  V30 4844 C 445.566 3.98244 -1.56799 0
M  V30 4845 C 444.892 5.25568 -0.984013 0
M  V30 4846 C 446.192 4.30752 -2.95381 0
M  V30 4847 H 447.886 2.3013 -1.91521 0
M  V30 4848 H 445.432 1.10592 -0.92225 0
M  V30 4849 H 447.385 4.19653 -0.383305 0
M  V30 4850 H 446.109 3.24014 0.41015 0
M  V30 4851 H 444.768 3.23621 -1.72236 0
M  V30 4852 H 444.416 5.02998 -0.0155216 0
M  V30 4853 H 444.116 5.63551 -1.66384 0
M  V30 4854 H 445.64 6.04955 -0.828378 0
M  V30 4855 H 447.054 4.98349 -2.8341 0
M  V30 4856 H 445.451 4.79869 -3.60341 0
M  V30 4857 H 446.521 3.39192 -3.46521 0
M  V30 4858 N 447.864 1.01787 1.20321 0
M  V30 4859 C 448.797 0.533882 2.21867 0
M  V30 4860 C 449.775 -0.419361 1.57099 0
M  V30 4861 O 450.959 -0.339062 1.85426 0
M  V30 4862 C 448.086 -0.222899 3.37966 0
M  V30 4863 C 447.132 0.680091 4.21043 0
M  V30 4864 S 447.965 2.14997 4.90445 0
M  V30 4865 C 449.121 1.40339 6.09964 0
M  V30 4866 H 449.354 1.39429 2.62577 0
M  V30 4867 H 446.887 0.826867 1.30393 0
M  V30 4868 H 448.845 -0.653425 4.05266 0
M  V30 4869 H 447.506 -1.0589 2.95713 0
M  V30 4870 H 446.699 0.0964704 5.03908 0
M  V30 4871 H 446.301 1.04845 3.59004 0
M  V30 4872 H 448.593 0.68407 6.74038 0
M  V30 4873 H 449.536 2.20823 6.72787 0
M  V30 4874 H 449.944 0.905716 5.57187 0
M  V30 4875 N 449.342 -1.36122 0.79427 0
M  V30 4876 C 450.619 -1.93398 0.292685 0
M  V30 4877 C 450.999 -1.72567 -1.21589 0
M  V30 4878 O 450.347 -1.08745 -2.00965 0
M  V30 4879 C 450.557 -3.42099 0.690614 0
M  V30 4880 C 451.905 -4.19231 0.673105 0
M  V30 4881 O 452.929 -3.50559 0.631389 0
M  V30 4882 O 451.788 -5.41732 0.720362 0
M  V30 4883 H 448.882 -0.823712 0.0736693 0
M  V30 4884 H 451.428 -1.45273 0.87714 0
M  V30 4885 H 450.2 -3.50938 1.73085 0
M  V30 4886 H 449.823 -3.97519 0.0803036 0
M  V30 4887 N 450.82 -0.546701 -1.47814 0
M  V30 4888 C 451.77 0.227042 -2.26867 0
M  V30 4889 C 452.754 0.894844 -1.33721 0
M  V30 4890 O 453.946 0.794887 -1.58147 0
M  V30 4891 C 451.075 1.26299 -3.19223 0
M  V30 4892 C 450.161 0.59913 -4.19847 0
M  V30 4893 N 450.552 -0.324777 -5.04756 0
M  V30 4894 C 448.85 0.854331 -4.37741 0
M  V30 4895 C 449.551 -0.709386 -5.77358 0
M  V30 4896 N 448.527 -0.0666153 -5.43559 0
M  V30 4897 H 452.329 -0.483476 -2.89896 0
M  V30 4898 H 449.843 -0.365893 -1.58224 0
M  V30 4899 H 451.84 1.83116 -3.74532 0
M  V30 4900 H 450.5 1.97471 -2.57751 0
M  V30 4901 H 451.511 -0.698351 -5.1317 0
M  V30 4902 H 448.188 1.55536 -3.87447 0
M  V30 4903 H 449.578 -1.46796 -6.55668 0
M  V30 4904 N 452.299 1.55045 -0.282633 0
M  V30 4905 C 453.548 1.98938 0.332667 0
M  V30 4906 C 453.861 1.17455 1.56409 0
M  V30 4907 O 455.067 1.51527 2.25282 0
M  V30 4908 C 453.523 3.54105 0.643226 0
M  V30 4909 C 453.131 4.44374 -0.568814 0
M  V30 4910 C 454.875 4.06569 1.22074 0
M  V30 4911 C 452.782 5.90943 -0.232426 0
M  V30 4912 H 451.712 0.743043 0.128075 0
M  V30 4913 H 454.363 1.79341 -0.388464 0
M  V30 4914 H 452.745 3.69532 1.42346 0
M  V30 4915 H 453.919 4.40718 -1.34551 0
M  V30 4916 H 452.234 4.02585 -1.06369 0
M  V30 4917 H 454.831 5.13626 1.48635 0
M  V30 4918 H 455.174 3.56057 2.15707 0
M  V30 4919 H 455.707 3.94612 0.502621 0
M  V30 4920 H 452.446 6.45567 -1.13683 0
M  V30 4921 H 451.966 5.9765 0.507357 0
M  V30 4922 H 453.645 6.4677 0.172657 0
M  V30 4923 N 453.777 0.010035 1.57597 0
M  V30 4924 C 454.707 -0.976857 2.12084 0
M  V30 4925 C 455.688 -1.35191 1.03235 0
M  V30 4926 O 456.873 -1.43389 1.3097 0
M  V30 4927 C 454.003 -2.26548 2.63236 0
M  V30 4928 C 452.957 -2.03175 3.76701 0
M  V30 4929 C 452.283 -3.38138 4.14206 0
M  V30 4930 C 453.583 -1.38625 5.03568 0
M  V30 4931 H 455.277 -0.523145 2.94794 0
M  V30 4932 H 452.823 -0.250195 1.4181 0
M  V30 4933 H 454.776 -2.95952 2.99984 0
M  V30 4934 H 453.5 -2.74051 1.77661 0
M  V30 4935 H 452.159 -1.36195 3.40362 0
M  V30 4936 H 451.807 -3.83363 3.25641 0
M  V30 4937 H 451.507 -3.23312 4.90656 0
M  V30 4938 H 453.031 -4.08841 4.53521 0
M  V30 4939 H 454.445 -1.98 5.38023 0
M  V30 4940 H 452.842 -1.34256 5.84889 0
M  V30 4941 H 453.912 -0.356722 4.83586 0
M  V30 4942 N 455.255 -1.55392 -0.262866 0
M  V30 4943 C 456.203 -1.8977 -1.345 0
M  V30 4944 C 457.197 -0.775063 -1.50629 0
M  V30 4945 O 458.403 -0.959519 -1.52293 0
M  V30 4946 H 454.778 -0.602467 -0.450041 0
M  V30 4947 H 456.749 -2.80147 -1.02762 0
M  V30 4948 C 455.498 -2.19501 -2.69657 0
M  V30 4949 H 454.821 -3.05378 -2.5804 0
M  V30 4950 H 456.261 -2.47469 -3.44289 0
M  V30 4951 C 454.72 -1.00597 -3.21531 0
M  V30 4952 O 455.25 -0.245768 -4.00947 0
M  V30 4953 N 453.456 -0.800911 -2.79345 0
M  V30 4954 H 453.003 -1.42079 -2.14875 0
M  V30 4955 H 452.961 -0.00697996 -3.14399 0
M  V30 4956 N 456.733 0.527833 -1.48498 0
M  V30 4957 C 457.663 1.64136 -1.66077 0
M  V30 4958 C 458.644 1.62286 -0.509625 0
M  V30 4959 O 459.829 1.79449 -0.742413 0
M  V30 4960 C 456.959 3.02717 -1.70234 0
M  V30 4961 C 455.913 3.19426 -2.8487 0
M  V30 4962 C 455.239 4.5909 -2.74118 0
M  V30 4963 C 456.539 3.01993 -4.26142 0
M  V30 4964 H 458.233 1.4968 -2.593 0
M  V30 4965 H 455.779 0.718654 -1.24785 0
M  V30 4966 H 457.732 3.80491 -1.8112 0
M  V30 4967 H 456.456 3.18201 -0.735911 0
M  V30 4968 H 455.115 2.4407 -2.73542 0
M  V30 4969 H 454.763 4.71413 -1.7544 0
M  V30 4970 H 454.463 4.71214 -3.51042 0
M  V30 4971 H 455.987 5.3896 -2.86974 0
M  V30 4972 H 457.401 3.69558 -4.38292 0
M  V30 4973 H 455.798 3.2561 -5.04082 0
M  V30 4974 H 456.868 1.98396 -4.42456 0
M  V30 4975 N 458.211 1.37122 0.776871 0
M  V30 4976 C 459.158 1.3247 1.88998 0
M  V30 4977 C 460.128 0.191143 1.64997 0
M  V30 4978 O 461.313 0.379683 1.86984 0
M  V30 4979 C 458.453 1.13241 3.25992 0
M  V30 4980 C 457.566 2.35782 3.61982 0
M  V30 4981 C 456.701 2.09465 4.88158 0
M  V30 4982 C 455.74 3.279 5.16864 0
M  V30 4983 N 454.877 3.01167 6.34226 0
M  V30 4984 H 459.717 2.27642 1.9231 0
M  V30 4985 H 457.254 1.13125 0.94027 0
M  V30 4986 H 459.212 1.00115 4.0501 0
M  V30 4987 H 457.842 0.217186 3.22069 0
M  V30 4988 H 456.894 2.59666 2.77989 0
M  V30 4989 H 458.206 3.24125 3.79137 0
M  V30 4990 H 457.36 1.93341 5.75069 0
M  V30 4991 H 456.099 1.18452 4.73097 0
M  V30 4992 H 455.104 3.44569 4.2843 0
M  V30 4993 H 456.329 4.19757 5.33836 0
M  V30 4994 H 454.275 2.12779 6.20533 0
M  V30 4995 H 454.192 3.83052 6.51772 0
M  V30 4996 H 455.46 2.88649 7.24087 0
M  V30 4997 N 459.689 -1.00246 1.21608 0
M  V30 4998 C 460.938 -1.73476 1.02902 0
M  V30 4999 C 461.251 -1.90643 -0.437561 0
M  V30 5000 O 462.457 -2.61105 -0.74407 0
M  V30 5001 C 460.913 -3.12079 1.79261 0
M  V30 5002 C 460.521 -3.02877 3.30106 0
M  V30 5003 C 462.265 -3.89421 1.68972 0
M  V30 5004 C 460.172 -4.36575 3.98944 0
M  V30 5005 H 459.102 -0.650408 0.381425 0
M  V30 5006 H 461.753 -1.11985 1.45367 0
M  V30 5007 H 460.135 -3.74196 1.2959 0
M  V30 5008 H 461.309 -2.49983 3.87098 0
M  V30 5009 H 459.624 -2.39022 3.40965 0
M  V30 5010 H 462.221 -4.88362 2.17731 0
M  V30 5011 H 462.564 -4.1122 0.648397 0
M  V30 5012 H 463.097 -3.33963 2.16133 0
M  V30 5013 H 459.836 -4.19978 5.03288 0
M  V30 5014 H 459.356 -4.8942 3.4674 0
M  V30 5015 H 461.035 -5.05364 4.04 0
M  V30 5016 N 461.167 -1.02423 -1.1978 0
M  V30 5017 C 462.413 -0.719051 -1.89625 0
M  V30 5018 C 462.746 0.750083 -1.7913 0
M  V30 5019 O 462.021 1.54574 -1.18056 0
M  V30 5020 C 462.304 -1.16499 -3.40735 0
M  V30 5021 C 462.157 -2.695 -3.60125 0
M  V30 5022 C 463.476 -0.742166 -4.33797 0
M  V30 5023 H 460.595 -0.26269 -0.688595 0
M  V30 5024 H 463.237 -1.27333 -1.41018 0
M  V30 5025 H 461.387 -0.69341 -3.82262 0
M  V30 5026 H 463.059 -3.24569 -3.278 0
M  V30 5027 H 461.302 -3.10113 -3.03336 0
M  V30 5028 H 461.973 -2.95757 -4.66081 0
M  V30 5029 H 464.449 -1.1477 -3.99959 0
M  V30 5030 H 463.325 -1.08213 -5.38127 0
M  V30 5031 H 463.586 0.355747 -4.40666 0
M  V30 5032 N 462.645 1.35699 -0.801477 0
M  V30 5033 C 463.595 2.2728 -0.181073 0
M  V30 5034 C 464.579 1.47533 0.642098 0
M  V30 5035 O 465.771 1.69785 0.500193 0
M  V30 5036 C 462.9 3.36626 0.673612 0
M  V30 5037 C 461.986 4.23802 -0.159008 0
M  V30 5038 N 462.377 4.90879 -1.2195 0
M  V30 5039 C 460.675 4.45959 0.0602005 0
M  V30 5040 C 461.376 5.5546 -1.72738 0
M  V30 5041 N 460.352 5.33663 -1.03465 0
M  V30 5042 H 464.154 2.76632 -0.992582 0
M  V30 5043 H 461.668 1.49166 -0.642127 0
M  V30 5044 H 463.665 4.01179 1.13408 0
M  V30 5045 H 462.325 2.88828 1.48353 0
M  V30 5046 H 463.336 4.92497 -1.60209 0
M  V30 5047 H 460.013 4.08969 0.839664 0
M  V30 5048 H 461.403 6.18991 -2.61342 0
M  V30 5049 N 464.123 0.554532 1.47522 0
M  V30 5050 C 465.372 0.0273458 2.01681 0
M  V30 5051 C 465.685 -1.32962 1.43459 0
M  V30 5052 O 466.891 -1.94657 1.89265 0
M  V30 5053 C 465.347 -0.00159057 3.599 0
M  V30 5054 C 464.955 1.35197 4.27113 0
M  V30 5055 C 466.699 -0.476311 4.21819 0
M  V30 5056 C 464.606 1.28229 5.77331 0
M  V30 5057 H 463.536 0.00645269 0.753972 0
M  V30 5058 H 466.187 0.701985 1.69542 0
M  V30 5059 H 464.569 -0.741821 3.8899 0
M  V30 5060 H 465.743 2.1097 4.09668 0
M  V30 5061 H 464.058 1.76441 3.77171 0
M  V30 5062 H 466.655 -0.5468 5.31897 0
M  V30 5063 H 466.998 -1.4877 3.8881 0
M  V30 5064 H 467.531 0.20898 3.97251 0
M  V30 5065 H 464.27 2.26959 6.14955 0
M  V30 5066 H 463.79 0.566314 5.97121 0
M  V30 5067 H 465.469 0.983226 6.39485 0
M  V30 5068 N 465.601 -1.54893 0.290851 0
M  V30 5069 C 466.531 -2.26103 -0.583084 0
M  V30 5070 C 467.512 -1.25684 -1.14619 0
M  V30 5071 O 468.697 -1.54436 -1.17741 0
M  V30 5072 C 465.827 -2.99409 -1.75987 0
M  V30 5073 C 464.781 -4.0689 -1.32758 0
M  V30 5074 C 464.107 -4.67856 -2.58872 0
M  V30 5075 C 465.407 -5.20215 -0.46624 0
M  V30 5076 H 467.101 -2.99398 0.0108214 0
M  V30 5077 H 464.647 -1.43998 0.00664468 0
M  V30 5078 H 466.6 -3.47943 -2.37727 0
M  V30 5079 H 465.324 -2.23675 -2.37985 0
M  V30 5080 H 463.983 -3.59191 -0.733299 0
M  V30 5081 H 463.631 -3.88772 -3.19163 0
M  V30 5082 H 463.331 -5.40438 -2.30653 0
M  V30 5083 H 464.855 -5.19147 -3.21433 0
M  V30 5084 H 466.269 -5.64704 -0.989047 0
M  V30 5085 H 464.666 -5.99455 -0.27826 0
M  V30 5086 H 465.736 -4.82198 0.511173 0
M  V30 5087 N 467.08 -0.0183926 -1.57589 0
M  V30 5088 C 468.028 0.985111 -2.10709 0
M  V30 5089 C 469.022 1.34397 -1.0312 0
M  V30 5090 O 470.228 1.32746 -1.21567 0
M  V30 5091 H 466.603 0.335418 -0.673052 0
M  V30 5092 H 468.574 0.511689 -2.9398 0
M  V30 5093 C 467.323 2.26202 -2.64061 0
M  V30 5094 H 466.646 1.9946 -3.4649 0
M  V30 5095 H 468.086 2.94652 -3.04887 0
M  V30 5096 C 466.545 2.98444 -1.5631 0
M  V30 5097 O 467.075 3.90142 -0.956674 0
M  V30 5098 N 465.281 2.6059 -1.28612 0
M  V30 5099 H 464.828 1.86101 -1.78112 0
M  V30 5100 H 464.786 3.09238 -0.567406 0
M  V30 5101 N 468.558 1.5553 0.254621 0
M  V30 5102 C 469.491 1.84624 1.34124 0
M  V30 5103 C 470.469 0.700693 1.46728 0
M  V30 5104 O 471.653 0.94564 1.63064 0
M  V30 5105 C 468.78 2.02412 2.71564 0
M  V30 5106 C 467.826 3.25028 2.7615 0
M  V30 5107 S 468.659 4.81893 2.33538 0
M  V30 5108 C 469.815 5.02677 3.72917 0
M  V30 5109 H 470.048 2.76501 1.09245 0
M  V30 5110 H 467.581 1.47537 0.455211 0
M  V30 5111 H 469.539 2.13345 3.50705 0
M  V30 5112 H 468.2 1.11391 2.93685 0
M  V30 5113 H 467.393 3.34418 3.77069 0
M  V30 5114 H 466.995 3.12781 2.05046 0
M  V30 5115 H 469.287 4.89546 4.68349 0
M  V30 5116 H 470.23 6.0468 3.68467 0
M  V30 5117 H 470.638 4.30561 3.65072 0
M  V30 5118 N 470.036 -0.519951 1.48776 0
M  V30 5119 C 471.264 -1.29971 1.60982 0
M  V30 5120 C 471.679 -1.86803 0.273885 0
M  V30 5121 O 471.036 -1.66904 -0.738193 0
M  V30 5122 C 471.087 -2.44346 2.66415 0
M  V30 5123 O 470.808 -1.89855 3.94825 0
M  V30 5124 C 472.309 -3.36014 2.89153 0
M  V30 5125 H 469.529 -0.394891 0.542496 0
M  V30 5126 H 472.073 -0.626214 1.94676 0
M  V30 5127 H 470.228 -3.07562 2.35552 0
M  V30 5128 H 470.642 -2.64798 4.5275 0
M  V30 5129 H 472.116 -4.12593 3.66703 0
M  V30 5130 H 472.593 -3.91859 1.98351 0
M  V30 5131 H 473.199 -2.78582 3.21359 0
M  V30 5132 N 471.514 -1.37532 -0.769588 0
M  V30 5133 C 472.739 -1.36231 -1.56384 0
M  V30 5134 C 473.164 0.0495849 -1.88035 0
M  V30 5135 O 472.522 1.02723 -1.49391 0
M  V30 5136 C 472.57 -2.20986 -2.84952 0
M  V30 5137 O 471.674 -1.61597 -3.79421 0
M  V30 5138 H 471.015 -0.465387 -0.473615 0
M  V30 5139 H 473.545 -1.81085 -0.952342 0
M  V30 5140 H 473.555 -2.34277 -3.34034 0
M  V30 5141 H 472.23 -3.23612 -2.61243 0
M  V30 5142 H 470.807 -1.57359 -3.38072 0
M  V30 5143 N 472.992 0.995999 -1.22138 0
M  V30 5144 C 473.955 2.06711 -0.990109 0
M  V30 5145 C 474.955 1.60744 0.0422978 0
M  V30 5146 O 476.145 1.73095 -0.195895 0
M  V30 5147 C 473.277 3.37288 -0.49491 0
M  V30 5148 H 474.47 2.28661 -1.94047 0
M  V30 5149 H 472.023 1.16711 -1.03963 0
M  V30 5150 H 472.758 3.21022 0.459948 0
M  V30 5151 H 472.543 3.71986 -1.23971 0
M  V30 5152 H 474.033 4.16103 -0.353253 0
M  V30 5153 N 474.47 1.03057 1.19235 0
M  V30 5154 C 475.417 0.612832 2.22515 0
M  V30 5155 C 476.387 -0.374224 1.61829 0
M  V30 5156 O 477.572 -0.270501 1.88873 0
M  V30 5157 C 474.712 -0.028475 3.45088 0
M  V30 5158 C 473.825 1.00483 4.20151 0
M  V30 5159 C 472.96 0.333102 5.30155 0
M  V30 5160 C 471.999 1.3522 5.96977 0
M  V30 5161 N 471.136 0.70616 6.9854 0
M  V30 5162 H 475.976 1.49812 2.57605 0
M  V30 5163 H 473.513 0.749658 1.26564 0
M  V30 5164 H 475.471 -0.417548 4.15105 0
M  V30 5165 H 474.101 -0.877334 3.10649 0
M  V30 5166 H 473.153 1.51194 3.49062 0
M  V30 5167 H 474.465 1.77929 4.65986 0
M  V30 5168 H 473.619 -0.110725 6.06599 0
M  V30 5169 H 472.358 -0.473547 4.85396 0
M  V30 5170 H 471.363 1.80627 5.19282 0
M  V30 5171 H 472.588 2.16037 6.4382 0
M  V30 5172 H 470.534 -0.0803667 6.55951 0
M  V30 5173 H 470.451 1.41848 7.42573 0
M  V30 5174 H 471.719 0.286391 7.78974 0
M  V30 5175 N 475.948 -1.35272 0.808662 0
M  V30 5176 C 477.197 -1.97963 0.386483 0
M  V30 5177 C 477.51 -1.64866 -1.05255 0
M  V30 5178 O 478.716 -2.20937 -1.57794 0
M  V30 5179 C 477.172 -3.54162 0.640096 0
M  V30 5180 C 476.78 -3.96166 2.0918 0
M  V30 5181 C 478.524 -4.23553 0.283376 0
M  V30 5182 C 476.431 -5.4522 2.29106 0
M  V30 5183 H 475.361 -0.740742 0.140774 0
M  V30 5184 H 478.012 -1.5431 0.993012 0
M  V30 5185 H 476.394 -3.95983 -0.0364117 0
M  V30 5186 H 477.568 -3.65491 2.80629 0
M  V30 5187 H 475.883 -3.3967 2.40859 0
M  V30 5188 H 478.48 -5.33124 0.410273 0
M  V30 5189 H 478.823 -4.09105 -0.770659 0
M  V30 5190 H 479.356 -3.8716 0.913884 0
M  V30 5191 H 476.095 -5.64638 3.32962 0
M  V30 5192 H 475.615 -5.77457 1.62184 0
M  V30 5193 H 477.294 -6.1171 2.1076 0
M  V30 5194 N 477.426 -0.562348 -1.47226 0
M  V30 5195 C 478.675 -0.038041 -2.01664 0
M  V30 5196 C 478.988 1.32199 -1.44162 0
M  V30 5197 O 480.194 1.9365 -1.90294 0
M  V30 5198 C 478.65 -0.0174958 -3.59896 0
M  V30 5199 C 478.258 -1.3746 -4.2639 0
M  V30 5200 C 480.002 0.453934 -4.22066 0
M  V30 5201 C 477.909 -1.31289 -5.76643 0
M  V30 5202 H 476.839 -0.0104511 -0.753928 0
M  V30 5203 H 479.49 -0.710966 -1.69167 0
M  V30 5204 H 477.872 0.721182 -3.89378 0
M  V30 5205 H 479.046 -2.1314 -4.08544 0
M  V30 5206 H 477.361 -1.78438 -3.7623 0
M  V30 5207 H 479.958 0.518584 -5.32179 0
M  V30 5208 H 480.301 1.46706 -3.89594 0
M  V30 5209 H 480.834 -0.230044 -3.97134 0
M  V30 5210 H 477.573 -2.30217 -6.13743 0
M  V30 5211 H 477.093 -0.597973 -5.96812 0
M  V30 5212 H 478.772 -1.01713 -6.38955 0
M  V30 5213 N 478.904 1.54736 -0.299062 0
M  V30 5214 C 480.129 2.04975 0.316254 0
M  V30 5215 C 480.554 1.17501 1.46885 0
M  V30 5216 O 479.912 0.178678 1.80417 0
M  V30 5217 C 479.96 3.52672 0.751997 0
M  V30 5218 O 479.064 3.68226 1.85697 0
M  V30 5219 H 478.405 0.661126 0.0617175 0
M  V30 5220 H 480.935 1.99805 -0.440341 0
M  V30 5221 H 480.945 3.94488 1.04133 0
M  V30 5222 H 479.62 4.158 -0.0911482 0
M  V30 5223 H 478.197 3.38316 1.56834 0
M  V30 5224 N 480.382 0.0267497 1.57577 0
M  V30 5225 C 481.629 -0.652404 1.91703 0
M  V30 5226 C 481.957 -1.72271 0.902936 0
M  V30 5227 O 481.212 -1.955 -0.0884843 0
M  V30 5228 C 481.511 -1.30914 3.3256 0
M  V30 5229 C 481.177 -0.369441 4.49384 0
M  V30 5230 C 479.839 -0.110791 4.81072 0
M  V30 5231 C 482.191 0.275971 5.20469 0
M  V30 5232 C 479.519 0.801116 5.81205 0
M  V30 5233 C 481.871 1.17592 6.21575 0
M  V30 5234 C 480.535 1.44348 6.51705 0
M  V30 5235 H 479.805 -0.238732 0.70149 0
M  V30 5236 H 482.452 0.0880091 1.91298 0
M  V30 5237 H 480.757 -2.12425 3.29216 0
M  V30 5238 H 482.454 -1.84115 3.56234 0
M  V30 5239 H 479.044 -0.581211 4.24641 0
M  V30 5240 H 483.228 0.0892 4.9622 0
M  V30 5241 H 478.484 1.01614 6.02897 0
M  V30 5242 H 482.658 1.68223 6.75777 0
M  V30 5243 H 480.285 2.15176 7.29111 0
M  V30 5244 N 481.861 -1.55662 -0.24637 0
M  V30 5245 C 482.791 -1.93377 -1.30873 0
M  V30 5246 C 483.772 -0.798773 -1.50179 0
M  V30 5247 O 484.957 -1.0591 -1.62778 0
M  V30 5248 C 482.087 -2.22893 -2.66338 0
M  V30 5249 C 481.041 -3.38649 -2.61727 0
M  V30 5250 C 480.367 -3.53708 -4.00992 0
M  V30 5251 C 481.667 -4.74323 -2.18666 0
M  V30 5252 H 483.361 -2.82363 -0.995552 0
M  V30 5253 H 480.907 -1.35854 -0.477464 0
M  V30 5254 H 482.86 -2.47866 -3.40794 0
M  V30 5255 H 481.584 -1.30733 -2.99293 0
M  V30 5256 H 480.243 -3.13685 -1.89729 0
M  V30 5257 H 479.891 -2.58967 -4.31214 0
M  V30 5258 H 479.591 -4.31551 -3.98795 0
M  V30 5259 H 481.115 -3.81003 -4.77147 0
M  V30 5260 H 482.529 -4.98665 -2.82854 0
M  V30 5261 H 480.926 -5.55273 -2.27579 0
M  V30 5262 H 481.996 -4.71349 -1.13834 0
M  V30 5263 N 483.339 0.512053 -1.4905 0
M  V30 5264 C 484.269 1.62365 -1.67809 0
M  V30 5265 C 485.25 1.61737 -0.526809 0
M  V30 5266 O 486.435 1.78651 -0.761404 0
M  V30 5267 C 483.565 3.00895 -1.73435 0
M  V30 5268 C 482.519 3.16387 -2.88242 0
M  V30 5269 C 481.845 4.56157 -2.78971 0
M  V30 5270 C 483.145 2.97457 -4.29321 0
M  V30 5271 H 484.839 1.46921 -2.60873 0
M  V30 5272 H 482.385 0.705379 -1.2554 0
M  V30 5273 H 484.338 3.78549 -1.85145 0
M  V30 5274 H 483.062 3.17403 -0.769619 0
M  V30 5275 H 481.721 2.41155 -2.76116 0
M  V30 5276 H 481.369 4.69525 -1.8043 0
M  V30 5277 H 481.069 4.67465 -3.5602 0
M  V30 5278 H 482.593 5.35886 -2.92675 0
M  V30 5279 H 484.007 3.64888 -4.42187 0
M  V30 5280 H 482.404 3.20245 -5.07507 0
M  V30 5281 H 483.474 1.93692 -4.44535 0
M  V30 5282 N 484.817 1.37938 0.762283 0
M  V30 5283 C 486.228 1.30094 1.33912 0
M  V30 5284 C 486.579 -0.0472026 1.96143 0
M  V30 5285 O 485.704 -0.94917 1.94473 0
M  V30 5286 C 486.299 2.35592 2.43478 0
M  V30 5287 C 484.858 2.31353 2.96905 0
M  V30 5288 C 484.005 2.18919 1.70205 0
M  V30 5289 H 486.956 1.48423 0.561816 0
M  V30 5290 H 486.977 2.00806 3.23199 0
M  V30 5291 H 486.489 3.33701 1.98155 0
M  V30 5292 H 484.59 1.36799 3.46579 0
M  V30 5293 H 484.703 3.25147 3.51875 0
M  V30 5294 H 483.067 1.65624 1.93496 0
M  V30 5295 H 483.85 3.18956 1.26973 0
M  V30 5296 N 486.295 -0.989507 1.22664 0
M  V30 5297 C 487.706 -1.54406 1.04955 0
M  V30 5298 C 488.057 -1.92366 -0.385951 0
M  V30 5299 O 487.182 -1.75111 -1.27142 0
M  V30 5300 C 487.777 -2.80578 1.89899 0
M  V30 5301 C 486.336 -3.32464 1.76478 0
M  V30 5302 C 485.483 -2.05524 1.86159 0
M  V30 5303 H 488.434 -0.810211 1.3646 0
M  V30 5304 H 488.455 -3.53075 1.4184 0
M  V30 5305 H 487.967 -2.52918 2.94371 0
M  V30 5306 H 486.068 -3.65024 0.747528 0
M  V30 5307 H 486.181 -4.02838 2.59342 0
M  V30 5308 H 484.545 -2.19241 1.29636 0
M  V30 5309 H 485.328 -1.80258 2.92168 0
M  V30 5310 N 487.773 -1.03688 -1.18687 0
M  V30 5311 C 489.05 -0.652397 -1.84399 0
M  V30 5312 C 489.43 0.868386 -1.92412 0
M  V30 5313 O 488.778 1.76832 -1.44716 0
M  V30 5314 C 488.988 -1.3238 -3.22919 0
M  V30 5315 C 490.336 -1.45216 -3.98996 0
M  V30 5316 O 491.36 -1.2816 -3.32345 0
M  V30 5317 O 490.219 -1.72975 -5.18403 0
M  V30 5318 H 487.313 -0.227793 -0.795009 0
M  V30 5319 H 489.859 -1.13553 -1.2611 0
M  V30 5320 H 488.631 -2.36202 -3.11968 0
M  V30 5321 H 488.254 -0.829039 -3.88861 0
M  V30 5322 N 489.251 1.34841 -0.815825 0
M  V30 5323 C 490.161 2.33425 -0.234462 0
M  V30 5324 C 491.177 1.62295 0.627413 0
M  V30 5325 O 492.353 1.94109 0.536987 0
M  V30 5326 C 489.418 3.41471 0.599849 0
M  V30 5327 C 488.479 4.28362 -0.283596 0
M  V30 5328 C 487.712 5.31248 0.51099 0
M  V30 5329 O 487.935 5.43056 1.7449 0
M  V30 5330 O 486.869 6.01812 -0.10297 0
M  V30 5331 H 490.695 2.84962 -1.05024 0
M  V30 5332 H 488.28 1.37774 -0.577809 0
M  V30 5333 H 490.162 4.07464 1.07475 0
M  V30 5334 H 488.837 2.9219 1.39308 0
M  V30 5335 H 487.744 3.65318 -0.805836 0
M  V30 5336 H 489.077 4.81066 -1.041 0
M  V30 5337 N 490.729 0.570148 1.46925 0
M  V30 5338 C 491.954 0.0542592 2.07329 0
M  V30 5339 C 492.379 -1.23582 1.41806 0
M  V30 5340 O 491.737 -1.74341 0.497479 0
M  V30 5341 C 491.785 -0.111175 3.60429 0
M  V30 5342 O 490.889 -1.17071 3.95434 0
M  V30 5343 H 490.23 0.0571425 0.661537 0
M  V30 5344 H 492.76 0.789516 1.88753 0
M  V30 5345 H 492.77 -0.321315 4.06733 0
M  V30 5346 H 491.445 0.831012 4.07513 0
M  V30 5347 H 490.022 -0.940029 3.60857 0
M  V30 5348 N 492.207 -1.54576 0.307264 0
M  V30 5349 C 493.137 -2.26708 -0.55907 0
M  V30 5350 C 494.118 -1.26893 -1.1328 0
M  V30 5351 O 495.303 -1.55677 -1.16097 0
M  V30 5352 C 492.433 -3.01259 -1.72801 0
M  V30 5353 C 491.387 -4.08275 -1.28435 0
M  V30 5354 C 490.713 -4.70575 -2.53895 0
M  V30 5355 C 492.013 -5.2068 -0.411038 0
M  V30 5356 H 493.707 -2.9937 0.042576 0
M  V30 5357 H 491.253 -1.43983 0.0219173 0
M  V30 5358 H 493.206 -3.50444 -2.34023 0
M  V30 5359 H 491.93 -2.26187 -2.356 0
M  V30 5360 H 490.589 -3.59949 -0.695161 0
M  V30 5361 H 490.237 -3.92136 -3.15021 0
M  V30 5362 H 489.937 -5.42854 -2.24908 0
M  V30 5363 H 491.461 -5.22527 -3.15908 0
M  V30 5364 H 492.875 -5.65721 -0.929097 0
M  V30 5365 H 491.272 -5.99716 -0.214664 0
M  V30 5366 H 492.342 -4.81629 0.562287 0
M  V30 5367 N 493.685 -0.035106 -1.57561 0
M  V30 5368 C 494.635 0.954034 -2.0708 0
M  V30 5369 C 495.619 1.2818 -0.972558 0
M  V30 5370 O 496.811 1.26691 -1.23606 0
M  V30 5371 C 493.94 2.23442 -2.60631 0
M  V30 5372 C 493.026 1.93475 -3.77396 0
M  V30 5373 N 493.417 1.33802 -4.87781 0
M  V30 5374 C 491.715 2.23434 -3.85996 0
M  V30 5375 C 492.416 1.21103 -5.68954 0
M  V30 5376 N 491.392 1.70855 -5.16052 0
M  V30 5377 H 495.194 0.487731 -2.89825 0
M  V30 5378 H 492.708 0.169759 -1.6151 0
M  V30 5379 H 494.705 2.95183 -2.94402 0
M  V30 5380 H 493.365 2.70693 -1.79319 0
M  V30 5381 H 494.376 1.01227 -5.07911 0
M  V30 5382 H 491.053 2.73317 -3.15601 0
M  V30 5383 H 492.443 0.749105 -6.67711 0
M  V30 5384 N 495.163 1.55791 0.238111 0
M  V30 5385 C 496.388 1.8244 0.986432 0
M  V30 5386 C 496.813 0.613314 1.7782 0
M  V30 5387 O 496.171 -0.437767 1.75935 0
M  V30 5388 C 496.219 3.06917 1.893 0
M  V30 5389 O 495.323 2.84449 2.98601 0
M  V30 5390 H 494.664 0.601975 0.280218 0
M  V30 5391 H 497.194 2.02987 0.256437 0
M  V30 5392 H 497.204 3.36583 2.30598 0
M  V30 5393 H 495.879 3.947 1.31091 0
M  V30 5394 H 494.456 2.65972 2.61368 0
M  V30 5395 N 496.642 -0.504142 1.49319 0
M  V30 5396 C 497.572 -1.61473 1.68667 0
M  V30 5397 C 498.553 -1.61455 0.535378 0
M  V30 5398 O 499.738 -1.78245 0.770868 0
M  V30 5399 C 496.868 -2.99971 1.75028 0
M  V30 5400 C 495.822 -3.14854 2.89916 0
M  V30 5401 C 495.148 -4.54671 2.81387 0
M  V30 5402 C 496.448 -2.95176 4.30893 0
M  V30 5403 H 498.142 -1.45535 2.61648 0
M  V30 5404 H 495.688 -0.698711 1.25913 0
M  V30 5405 H 497.641 -3.77562 1.8715 0
M  V30 5406 H 496.365 -3.1699 0.786441 0
M  V30 5407 H 495.024 -2.39687 2.77391 0
M  V30 5408 H 494.672 -4.68562 1.82917 0
M  V30 5409 H 494.372 -4.6557 3.58494 0
M  V30 5410 H 495.896 -5.34327 2.95512 0
M  V30 5411 H 497.31 -3.62538 4.44116 0
M  V30 5412 H 495.707 -3.17549 5.09198 0
M  V30 5413 H 496.777 -1.91332 4.45556 0
M  V30 5414 N 498.12 -1.38341 -0.754957 0
M  V30 5415 C 499.052 -1.31347 -1.87831 0
M  V30 5416 C 500.065 -0.225955 -1.61224 0
M  V30 5417 O 501.254 -0.48341 -1.7183 0
M  V30 5418 C 498.354 -1.01201 -3.23437 0
M  V30 5419 C 497.527 -2.20834 -3.77559 0
M  V30 5420 C 496.586 -1.87454 -4.91678 0
M  V30 5421 O 495.612 -2.59934 -5.06382 0
M  V30 5422 N 496.814 -0.828682 -5.74555 0
M  V30 5423 H 499.579 -2.28147 -1.94342 0
M  V30 5424 H 497.14 -1.32184 -0.934828 0
M  V30 5425 H 499.132 -0.769249 -3.97322 0
M  V30 5426 H 497.702 -0.132011 -3.12321 0
M  V30 5427 H 496.922 -2.61184 -2.95256 0
M  V30 5428 H 498.21 -3.00678 -4.10451 0
M  V30 5429 H 497.608 -0.227591 -5.65242 0
M  V30 5430 H 496.165 -0.645802 -6.48593 0
M  V30 5431 N 499.598 0.982988 -1.23187 0
M  V30 5432 C 500.823 1.76455 -1.08988 0
M  V30 5433 C 501.248 1.84726 0.354691 0
M  V30 5434 O 500.606 1.30699 1.25649 0
M  V30 5435 C 500.654 3.17094 -1.71708 0
M  V30 5436 O 499.758 4.00648 -0.977477 0
M  V30 5437 H 499.099 0.542988 -0.382177 0
M  V30 5438 H 501.629 1.23413 -1.63188 0
M  V30 5439 H 501.639 3.67684 -1.76841 0
M  V30 5440 H 500.314 3.10389 -2.76823 0
M  V30 5441 H 498.891 3.59161 -1.0029 0
M  V30 5442 N 501.076 1.04316 1.18135 0
M  V30 5443 C 502.492 0.762858 1.40188 0
M  V30 5444 C 502.692 -0.646547 1.90846 0
M  V30 5445 O 501.748 -1.41036 2.0944 0
M  V30 5446 C 503.061 1.81106 2.40044 0
M  V30 5447 C 504.609 1.83226 2.53766 0
M  V30 5448 C 505.084 2.87044 3.56889 0
M  V30 5449 N 506.575 2.85951 3.64398 0
M  V30 5450 C 507.31 3.62932 4.43923 0
M  V30 5451 N 506.806 4.49672 5.27036 0
M  V30 5452 N 508.599 3.51411 4.38711 0
M  V30 5453 H 500.75 1.95264 0.835805 0
M  V30 5454 H 503.013 0.845017 0.429709 0
M  V30 5455 H 502.719 2.82214 2.09876 0
M  V30 5456 H 502.593 1.64529 3.39426 0
M  V30 5457 H 504.98 0.827869 2.8325 0
M  V30 5458 H 505.061 2.03879 1.54489 0
M  V30 5459 H 504.705 3.87663 3.28145 0
M  V30 5460 H 504.635 2.63645 4.5585 0
M  V30 5461 H 507.126 2.23051 3.05052 0
M  V30 5462 H 507.439 5.05116 5.84874 0
M  V30 5463 H 505.784 4.53738 5.26447 0
M  V30 5464 H 508.975 2.83047 3.72829 0
M  V30 5465 H 509.148 4.11654 5.00445 0
M  V30 5466 N 502.554 -1.34406 0.822964 0
M  V30 5467 C 503.803 -1.97542 0.407458 0
M  V30 5468 C 504.116 -1.65973 -1.035 0
M  V30 5469 O 505.322 -2.22598 -1.55442 0
M  V30 5470 C 503.778 -3.53463 0.677623 0
M  V30 5471 C 503.386 -3.93925 2.1337 0
M  V30 5472 C 505.13 -4.23229 0.328284 0
M  V30 5473 C 503.037 -5.42759 2.34876 0
M  V30 5474 H 501.967 -0.739207 0.148623 0
M  V30 5475 H 504.618 -1.53248 1.00932 0
M  V30 5476 H 503 -3.96 0.00558965 0
M  V30 5477 H 504.174 -3.62494 2.8449 0
M  V30 5478 H 502.489 -3.37097 2.44448 0
M  V30 5479 H 505.086 -5.32659 0.466794 0
M  V30 5480 H 505.429 -4.09899 -0.727224 0
M  V30 5481 H 505.962 -3.86169 0.954896 0
M  V30 5482 H 502.701 -5.61075 3.38932 0
M  V30 5483 H 502.221 -5.75704 1.68299 0
M  V30 5484 H 503.9 -6.0944 2.17236 0
M  V30 5485 N 504.032 -0.577932 -1.46621 0
M  V30 5486 C 504.942 0.160651 -2.34049 0
M  V30 5487 C 505.958 0.890911 -1.49462 0
M  V30 5488 O 507.134 0.855166 -1.82343 0
M  V30 5489 C 504.199 1.16447 -3.26559 0
M  V30 5490 C 503.26 0.4394 -4.27045 0
M  V30 5491 C 502.493 1.3954 -5.15135 0
M  V30 5492 O 502.716 2.63162 -5.06065 0
M  V30 5493 O 501.65 0.908585 -5.95003 0
M  V30 5494 H 505.476 -0.557057 -2.98547 0
M  V30 5495 H 503.061 -0.338369 -1.45518 0
M  V30 5496 H 504.943 1.7434 -3.83645 0
M  V30 5497 H 503.618 1.86373 -2.64663 0
M  V30 5498 H 502.525 -0.181247 -3.73661 0
M  V30 5499 H 503.858 -0.218799 -4.91713 0
M  V30 5500 N 505.51 1.54411 -0.315457 0
M  V30 5501 C 506.926 1.59556 0.037464 0
M  V30 5502 C 507.126 1.33217 1.5118 0
M  V30 5503 O 506.182 1.11264 2.26664 0
M  V30 5504 C 507.495 2.98372 -0.373477 0
M  V30 5505 C 509.043 3.11324 -0.323452 0
M  V30 5506 C 509.518 4.52472 -0.709433 0
M  V30 5507 N 511.009 4.58437 -0.662524 0
M  V30 5508 C 511.744 5.65751 -0.933474 0
M  V30 5509 N 511.24 6.81039 -1.27114 0
M  V30 5510 N 513.033 5.55489 -0.859573 0
M  V30 5511 H 505.184 1.6979 -1.27614 0
M  V30 5512 H 507.447 0.793732 -0.518356 0
M  V30 5513 H 507.153 3.22618 -1.40037 0
M  V30 5514 H 507.027 3.76264 0.265615 0
M  V30 5515 H 509.414 2.86818 0.694223 0
M  V30 5516 H 509.495 2.35555 -0.997367 0
M  V30 5517 H 509.139 4.7771 -1.72498 0
M  V30 5518 H 509.069 5.26598 -0.0132923 0
M  V30 5519 H 511.56 3.75636 -0.413065 0
M  V30 5520 H 511.873 7.58816 -1.46348 0
M  V30 5521 H 510.218 6.82555 -1.30932 0
M  V30 5522 H 513.409 4.64299 -0.595324 0
M  V30 5523 H 513.582 6.39036 -1.0741 0
M  V30 5524 N 506.988 0.0434614 1.5754 0
M  V30 5525 C 507.898 -0.94893 2.14552 0
M  V30 5526 C 508.914 -1.34707 1.10136 0
M  V30 5527 O 510.09 -1.42557 1.42266 0
M  V30 5528 C 507.155 -2.208 2.67298 0
M  V30 5529 C 506.216 -1.86893 3.86484 0
M  V30 5530 C 505.449 -3.06797 4.36705 0
M  V30 5531 O 505.672 -4.19921 3.86034 0
M  V30 5532 O 504.606 -2.8826 5.28384 0
M  V30 5533 H 508.432 -0.494099 2.99654 0
M  V30 5534 H 506.017 -0.177989 1.48336 0
M  V30 5535 H 507.899 -2.94686 3.01228 0
M  V30 5536 H 506.574 -2.65436 1.85272 0
M  V30 5537 H 505.481 -1.10347 3.57455 0
M  V30 5538 H 506.814 -1.47062 4.69716 0
M  V30 5539 N 508.466 -1.55915 -0.229846 0
M  V30 5540 C 509.694 -1.82617 -0.972562 0
M  V30 5541 C 510.109 -0.621488 -1.78278 0
M  V30 5542 O 509.466 0.409956 -1.77836 0
M  V30 5543 C 509.517 -3.0774 -1.89679 0
M  V30 5544 O 509.238 -4.23559 -1.11934 0
M  V30 5545 C 510.739 -3.47368 -2.75409 0
M  V30 5546 H 507.959 -0.60727 -0.285419 0
M  V30 5547 H 510.503 -2.02996 -0.247579 0
M  V30 5548 H 508.658 -2.89361 -2.57583 0
M  V30 5549 H 509.072 -4.94586 -1.74599 0
M  V30 5550 H 510.546 -4.37977 -3.35977 0
M  V30 5551 H 511.023 -2.68737 -3.47386 0
M  V30 5552 H 511.629 -3.68158 -2.12931 0
M  V30 5553 N 509.944 0.496216 -1.49584 0
M  V30 5554 C 511.192 1.24756 -1.58998 0
M  V30 5555 C 511.513 1.92968 -0.280775 0
M  V30 5556 O 510.783 1.82959 0.700198 0
M  V30 5557 H 509.363 0.463471 -0.585836 0
M  V30 5558 H 512.025 0.574678 -1.86235 0
M  V30 5559 H 511.121 2.00895 -2.38847 0
M  V30 5560 N 511.423 1.38739 0.74761 0
M  V30 5561 C 512.672 1.3459 1.50228 0
M  V30 5562 C 512.985 -0.0595592 1.95509 0
M  V30 5563 O 514.191 -0.22361 2.70578 0
M  V30 5564 C 512.647 2.36377 2.71393 0
M  V30 5565 C 512.255 3.82573 2.33113 0
M  V30 5566 C 513.999 2.41281 3.49262 0
M  V30 5567 C 511.906 4.76032 3.50924 0
M  V30 5568 H 510.836 0.500312 0.564096 0
M  V30 5569 H 513.487 1.64324 0.8167 0
M  V30 5570 H 511.869 1.99694 3.41962 0
M  V30 5571 H 513.043 4.28227 1.70171 0
M  V30 5572 H 511.358 3.80844 1.68365 0
M  V30 5573 H 513.955 3.08301 4.36869 0
M  V30 5574 H 514.298 1.43353 3.9084 0
M  V30 5575 H 514.831 2.76793 2.85711 0
M  V30 5576 H 511.57 5.75177 3.14408 0
M  V30 5577 H 511.09 4.35066 4.12889 0
M  V30 5578 H 512.769 4.94331 4.17427 0
M  V30 5579 N 512.901 -0.976442 1.23707 0
M  V30 5580 C 513.849 -2.09078 1.01927 0
M  V30 5581 C 514.843 -1.69345 -0.0430193 0
M  V30 5582 O 516.049 -1.79659 0.110814 0
M  V30 5583 H 512.424 -0.68398 0.312531 0
M  V30 5584 H 514.395 -2.24614 1.96447 0
M  V30 5585 C 513.144 -3.41919 0.631385 0
M  V30 5586 H 512.467 -3.72946 1.44053 0
M  V30 5587 H 513.907 -4.20817 0.518532 0
M  V30 5588 C 512.366 -3.30357 -0.660723 0
M  V30 5589 O 512.896 -3.63542 -1.70881 0
M  V30 5590 N 511.102 -2.83507 -0.638139 0
M  V30 5591 H 510.649 -2.567 0.215108 0
M  V30 5592 H 510.607 -2.76153 -1.50289 0
M  V30 5593 N 514.379 -1.04941 -1.1758 0
M  V30 5594 C 515.607 -0.778294 -1.91703 0
M  V30 5595 C 516.022 0.665697 -1.76675 0
M  V30 5596 O 515.379 1.45456 -1.10222 0
M  V30 5597 C 515.43 -1.14628 -3.42845 0
M  V30 5598 O 515.151 -2.53359 -3.57409 0
M  V30 5599 C 516.652 -0.900931 -4.34049 0
M  V30 5600 H 513.872 -0.283167 -0.608323 0
M  V30 5601 H 516.416 -1.39942 -1.49119 0
M  V30 5602 H 514.571 -0.569953 -3.83184 0
M  V30 5603 H 514.985 -2.67709 -4.51035 0
M  V30 5604 H 516.459 -1.20817 -5.38616 0
M  V30 5605 H 516.936 0.163966 -4.38894 0
M  V30 5606 H 517.542 -1.46097 -3.99419 0
M  V30 5607 N 515.857 1.33968 -0.830081 0
M  V30 5608 C 517.105 1.97672 -0.420734 0
M  V30 5609 C 517.426 1.66111 1.02138 0
M  V30 5610 O 516.696 0.955503 1.71017 0
M  V30 5611 H 515.276 0.73125 -0.152587 0
M  V30 5612 H 517.938 1.63483 -1.0611 0
M  V30 5613 H 517.034 3.07294 -0.545588 0
M  V30 5614 N 517.335 0.585699 1.46312 0
M  V30 5615 C 518.56 0.0762461 2.0726 0
M  V30 5616 C 518.985 -1.22071 1.43109 0
M  V30 5617 O 518.343 -1.73804 0.515942 0
M  V30 5618 C 518.391 -0.0729404 3.60526 0
M  V30 5619 O 517.495 -1.1287 3.96654 0
M  V30 5620 H 516.836 0.0641558 0.660893 0
M  V30 5621 H 519.366 0.809492 1.87905 0
M  V30 5622 H 519.376 -0.278158 4.07051 0
M  V30 5623 H 518.051 0.874188 4.06609 0
M  V30 5624 H 516.628 -0.901703 3.61834 0
M  V30 5625 N 518.813 -1.54241 0.323641 0
M  V30 5626 C 519.745 -2.21836 -0.576311 0
M  V30 5627 C 520.758 -1.21837 -1.07979 0
M  V30 5628 O 521.947 -1.48306 -0.99336 0
M  V30 5629 C 519.047 -2.86923 -1.80356 0
M  V30 5630 C 518.22 -4.1306 -1.43875 0
M  V30 5631 C 517.279 -4.6174 -2.52353 0
M  V30 5632 O 516.305 -5.26421 -2.16494 0
M  V30 5633 N 517.507 -4.35974 -3.83284 0
M  V30 5634 H 520.272 -2.997 0.00247987 0
M  V30 5635 H 517.833 -1.61233 0.146848 0
M  V30 5636 H 519.825 -3.16414 -2.52318 0
M  V30 5637 H 518.395 -2.12765 -2.29019 0
M  V30 5638 H 517.615 -3.90334 -0.550752 0
M  V30 5639 H 518.903 -4.95148 -1.17071 0
M  V30 5640 H 518.301 -3.84203 -4.15216 0
M  V30 5641 H 516.858 -4.70119 -4.51477 0
M  V30 5642 N 520.291 -0.0518155 -1.57515 0
M  V30 5643 C 521.201 0.937539 -2.15052 0
M  V30 5644 C 522.217 1.34121 -1.10849 0
M  V30 5645 O 523.393 1.418 -1.4302 0
M  V30 5646 C 520.458 2.19379 -2.68466 0
M  V30 5647 C 519.519 1.84841 -3.87469 0
M  V30 5648 C 518.752 3.04477 -4.38326 0
M  V30 5649 O 518.975 4.17868 -3.88256 0
M  V30 5650 O 517.909 2.85453 -5.29906 0
M  V30 5651 H 521.735 0.478201 -2.99912 0
M  V30 5652 H 519.32 0.17012 -1.48428 0
M  V30 5653 H 521.202 2.93084 -3.02787 0
M  V30 5654 H 519.877 2.64449 -1.86677 0
M  V30 5655 H 518.784 1.08449 -3.58036 0
M  V30 5656 H 520.117 1.44569 -4.7049 0
M  V30 5657 N 521.769 1.56035 0.221574 0
M  V30 5658 C 522.699 1.95434 1.2778 0
M  V30 5659 C 523.68 0.822564 1.48889 0
M  V30 5660 O 524.865 1.08486 1.61072 0
M  V30 5661 C 521.995 2.27102 2.62759 0
M  V30 5662 C 520.949 3.4277 2.56306 0
M  V30 5663 C 520.275 3.60043 3.95314 0
M  V30 5664 C 521.575 4.77742 2.11093 0
M  V30 5665 H 523.269 2.83912 0.950504 0
M  V30 5666 H 520.815 1.36596 0.455791 0
M  V30 5667 H 522.768 2.53256 3.36807 0
M  V30 5668 H 521.492 1.35478 2.97176 0
M  V30 5669 H 520.151 3.16664 1.84715 0
M  V30 5670 H 519.799 2.65794 4.27039 0
M  V30 5671 H 519.499 4.37841 3.91879 0
M  V30 5672 H 521.023 3.88545 4.71025 0
M  V30 5673 H 522.437 5.03102 2.74885 0
M  V30 5674 H 520.834 5.58823 2.18716 0
M  V30 5675 H 521.904 4.731 1.06321 0
M  V30 5676 N 523.247 -0.488276 1.49845 0
M  V30 5677 C 524.177 -1.59675 1.70371 0
M  V30 5678 C 525.158 -1.60878 0.552473 0
M  V30 5679 O 526.343 -1.77417 0.78973 0
M  V30 5680 C 523.473 -2.98098 1.782 0
M  V30 5681 C 522.427 -3.11761 2.93239 0
M  V30 5682 C 521.753 -4.51661 2.86193 0
M  V30 5683 C 523.053 -2.90589 4.33999 0
M  V30 5684 H 524.747 -1.42752 2.63177 0
M  V30 5685 H 522.293 -0.685317 1.26647 0
M  V30 5686 H 524.246 -3.75555 1.91144 0
M  V30 5687 H 522.97 -3.16138 0.820018 0
M  V30 5688 H 521.629 -2.36732 2.79917 0
M  V30 5689 H 521.277 -4.66595 1.87877 0
M  V30 5690 H 520.977 -4.61742 3.63412 0
M  V30 5691 H 522.501 -5.31162 3.01163 0
M  V30 5692 H 523.915 -3.57807 4.47936 0
M  V30 5693 H 522.312 -3.1213 5.12538 0
M  V30 5694 H 523.382 -1.86595 4.4756 0
M  V30 5695 N 524.725 -1.39134 -0.740242 0
M  V30 5696 C 525.95 -1.39518 -1.53459 0
M  V30 5697 C 526.375 0.00968883 -1.88098 0
M  V30 5698 O 525.733 0.995312 -1.51536 0
M  V30 5699 C 525.781 -2.26981 -2.802 0
M  V30 5700 O 524.885 -1.69609 -3.75908 0
M  V30 5701 H 524.226 -0.475328 -0.463637 0
M  V30 5702 H 526.756 -1.83064 -0.913717 0
M  V30 5703 H 526.766 -2.41309 -3.28989 0
M  V30 5704 H 525.441 -3.29081 -2.5432 0
M  V30 5705 H 524.018 -1.64495 -3.34658 0
M  V30 5706 N 526.204 0.969867 -1.24223 0
M  V30 5707 C 527.114 2.09806 -1.0497 0
M  V30 5708 C 528.13 1.73998 0.00886455 0
M  V30 5709 O 529.306 2.00513 -0.188848 0
M  V30 5710 C 526.371 3.40467 -0.654452 0
M  V30 5711 C 525.432 3.90236 -1.78926 0
M  V30 5712 C 524.665 5.14662 -1.41277 0
M  V30 5713 O 524.888 5.69602 -0.301632 0
M  V30 5714 O 523.822 5.58761 -2.23763 0
M  V30 5715 H 527.648 2.28942 -1.99548 0
M  V30 5716 H 525.233 1.08197 -1.03023 0
M  V30 5717 H 527.115 4.19039 -0.445452 0
M  V30 5718 H 525.79 3.22636 0.262216 0
M  V30 5719 H 524.697 3.12735 -2.05299 0
M  V30 5720 H 526.03 4.1254 -2.68462 0
M  V30 5721 N 527.682 1.05563 1.17022 0
M  V30 5722 C 528.91 0.78845 1.91288 0
M  V30 5723 C 529.325 -0.656318 1.77025 0
M  V30 5724 O 528.682 -1.44869 1.10992 0
M  V30 5725 C 528.733 1.16444 3.42232 0
M  V30 5726 O 528.454 2.5525 3.5606 0
M  V30 5727 C 529.955 0.923937 4.33565 0
M  V30 5728 H 527.175 0.286389 0.606813 0
M  V30 5729 H 529.719 1.4073 1.48375 0
M  V30 5730 H 527.874 0.590266 3.82877 0
M  V30 5731 H 528.288 2.70097 4.49609 0
M  V30 5732 H 529.762 1.23672 5.37968 0
M  V30 5733 H 530.239 -0.140688 4.38975 0
M  V30 5734 H 530.845 1.48214 3.98639 0
M  V30 5735 N 529.16 -1.33526 0.837174 0
M  V30 5736 C 530.408 -1.97446 0.431211 0
M  V30 5737 C 530.729 -1.6665 -1.01255 0
M  V30 5738 O 529.999 -0.964559 -1.70508 0
M  V30 5739 H 528.579 -0.73043 0.156463 0
M  V30 5740 H 531.241 -1.62918 1.06976 0
M  V30 5741 H 530.337 -3.07001 0.561877 0
M  V30 5742 N 530.638 -0.59345 -1.46 0
M  V30 5743 C 531.887 -0.0808084 -2.01538 0
M  V30 5744 C 532.2 1.29112 -1.46934 0
M  V30 5745 O 533.406 1.8957 -1.94359 0
M  V30 5746 C 531.862 -0.0938311 -3.59778 0
M  V30 5747 C 531.47 -1.46474 -4.23379 0
M  V30 5748 C 533.214 0.364306 -4.22934 0
M  V30 5749 C 531.121 -1.4349 -5.73729 0
M  V30 5750 H 530.051 -0.0264407 -0.753536 0
M  V30 5751 H 532.702 -0.746689 -1.67621 0
M  V30 5752 H 531.084 0.638427 -3.9082 0
M  V30 5753 H 532.258 -2.21758 -4.03931 0
M  V30 5754 H 530.573 -1.86379 -3.7236 0
M  V30 5755 H 533.17 0.405584 -5.3316 0
M  V30 5756 H 533.513 1.38409 -3.92618 0
M  V30 5757 H 534.046 -0.31423 -3.96557 0
M  V30 5758 H 530.785 -2.43184 -6.08722 0
M  V30 5759 H 530.305 -0.724431 -5.95409 0
M  V30 5760 H 531.984 -1.15243 -6.36654 0
M  V30 5761 N 532.116 1.54067 -0.331816 0
M  V30 5762 C 533.341 2.05599 0.272705 0
M  V30 5763 C 533.766 1.2059 1.44359 0
M  V30 5764 O 533.124 0.216907 1.79998 0
M  V30 5765 C 533.172 3.54188 0.677021 0
M  V30 5766 O 532.276 3.72082 1.77844 0
M  V30 5767 H 531.617 0.662286 0.0476801 0
M  V30 5768 H 534.147 1.98826 -0.482624 0
M  V30 5769 H 534.157 3.96608 0.957415 0
M  V30 5770 H 532.832 4.15513 -0.179325 0
M  V30 5771 H 531.409 3.41566 1.49622 0
M  V30 5772 N 533.594 0.0601682 1.57485 0
M  V30 5773 C 534.524 -0.90889 2.15085 0
M  V30 5774 C 535.505 -1.31838 1.07484 0
M  V30 5775 O 536.69 -1.3915 1.35466 0
M  V30 5776 C 533.82 -2.18059 2.7031 0
M  V30 5777 C 532.774 -1.91088 3.82974 0
M  V30 5778 C 532.1 -3.24789 4.24754 0
M  V30 5779 C 533.4 -1.22535 5.07723 0
M  V30 5780 H 535.094 -0.429093 2.96309 0
M  V30 5781 H 532.64 -0.204952 1.42534 0
M  V30 5782 H 534.593 -2.86258 3.09248 0
M  V30 5783 H 533.317 -2.6826 1.8629 0
M  V30 5784 H 531.976 -1.25297 3.44523 0
M  V30 5785 H 531.624 -3.72809 3.37672 0
M  V30 5786 H 531.324 -3.07538 5.00694 0
M  V30 5787 H 532.848 -3.94205 4.66299 0
M  V30 5788 H 534.262 -1.80783 5.4405 0
M  V30 5789 H 532.659 -1.1558 5.88864 0
M  V30 5790 H 533.729 -0.202692 4.84476 0
M  V30 5791 N 535.072 -1.5615 -0.213296 0
M  V30 5792 C 536.349 -1.70349 -0.961281 0
M  V30 5793 C 536.729 -0.609791 -2.02101 0
M  V30 5794 O 536.077 0.381987 -2.25285 0
M  V30 5795 C 536.287 -3.11982 -1.56424 0
M  V30 5796 C 537.635 -3.71649 -2.05334 0
M  V30 5797 O 538.659 -3.14995 -1.66302 0
M  V30 5798 O 537.518 -4.71038 -2.77102 0
M  V30 5799 H 534.612 -0.694121 -0.449582 0
M  V30 5800 H 537.158 -1.68464 -0.204426 0
M  V30 5801 H 535.93 -3.83046 -0.799457 0
M  V30 5802 H 535.553 -3.18019 -2.38641 0
M  V30 5803 N 536.55 0.480323 -1.50102 0
M  V30 5804 C 537.961 1.06142 -1.53593 0
M  V30 5805 C 538.312 1.93335 -0.334055 0
M  V30 5806 O 537.437 2.09188 0.55403 0
M  V30 5807 C 538.032 1.9317 -2.78336 0
M  V30 5808 C 536.591 2.46405 -2.84538 0
M  V30 5809 C 535.738 1.24521 -2.4777 0
M  V30 5810 H 538.689 0.26333 -1.565 0
M  V30 5811 H 538.71 2.78123 -2.59669 0
M  V30 5812 H 538.222 1.29683 -3.65792 0
M  V30 5813 H 536.323 3.13472 -2.01411 0
M  V30 5814 H 536.436 2.82143 -3.87211 0
M  V30 5815 H 534.8 1.57706 -2.00003 0
M  V30 5816 H 535.583 0.627102 -3.37524 0
M  V30 5817 N 538.028 1.39524 0.732853 0
M  V30 5818 C 539.444 1.21176 1.03868 0
M  V30 5819 C 539.644 0.0748448 2.01361 0
M  V30 5820 O 538.7 -0.57281 2.45917 0
M  V30 5821 C 540.013 2.54667 1.59892 0
M  V30 5822 C 541.561 2.6153 1.71962 0
M  V30 5823 C 542.036 3.95248 2.31394 0
M  V30 5824 N 543.527 3.96899 2.38801 0
M  V30 5825 C 544.262 4.97138 2.85729 0
M  V30 5826 N 543.758 6.07775 3.32537 0
M  V30 5827 N 545.551 4.84516 2.84957 0
M  V30 5828 H 537.702 2.12225 0.086304 0
M  V30 5829 H 539.965 0.942614 0.100907 0
M  V30 5830 H 539.671 3.38423 0.95721 0
M  V30 5831 H 539.545 2.74538 2.58668 0
M  V30 5832 H 541.932 1.78156 2.35254 0
M  V30 5833 H 542.013 2.45507 0.718327 0
M  V30 5834 H 541.657 4.79054 1.68729 0
M  V30 5835 H 541.587 4.08593 3.32204 0
M  V30 5836 H 544.078 3.16998 2.05719 0
M  V30 5837 H 544.391 6.8017 3.66862 0
M  V30 5838 H 542.736 6.11366 3.30541 0
M  V30 5839 H 545.927 3.97185 2.47713 0
M  V30 5840 H 546.1 5.62783 3.21215 0
M  V30 5841 N 539.506 -0.963266 1.24736 0
M  V30 5842 C 540.453 -2.05857 1.04363 0
M  V30 5843 C 541.423 -1.6604 -0.0444951 0
M  V30 5844 O 542.608 -1.90477 0.110999 0
M  V30 5845 C 539.748 -3.38745 0.659235 0
M  V30 5846 C 538.861 -3.9173 1.82131 0
M  V30 5847 C 537.996 -5.12906 1.38208 0
M  V30 5848 C 537.035 -5.58098 2.51382 0
M  V30 5849 N 536.172 -6.7049 2.08295 0
M  V30 5850 H 541.012 -2.22616 1.98107 0
M  V30 5851 H 538.549 -1.09103 0.986661 0
M  V30 5852 H 540.507 -4.15107 0.417371 0
M  V30 5853 H 539.137 -3.21898 -0.241201 0
M  V30 5854 H 538.189 -3.11966 2.17672 0
M  V30 5855 H 539.501 -4.21225 2.67153 0
M  V30 5856 H 538.655 -5.96657 1.09935 0
M  V30 5857 H 537.394 -4.85105 0.502456 0
M  V30 5858 H 536.399 -4.72917 2.80409 0
M  V30 5859 H 537.624 -5.87911 3.39909 0
M  V30 5860 H 535.57 -6.44416 1.22737 0
M  V30 5861 H 535.487 -6.99458 2.86869 0
M  V30 5862 H 536.755 -7.57672 1.83175 0
M  V30 5863 N 540.985 -1.06182 -1.16461 0
M  V30 5864 C 542.396 -0.802426 -1.68576 0
M  V30 5865 C 542.747 0.67412 -1.84255 0
M  V30 5866 O 541.872 1.52303 -1.5373 0
M  V30 5867 C 542.467 -1.45002 -3.06202 0
M  V30 5868 C 541.026 -1.23843 -3.55443 0
M  V30 5869 C 540.173 -1.52724 -2.31454 0
M  V30 5870 H 543.124 -1.22545 -1.00839 0
M  V30 5871 H 543.145 -0.864731 -3.70544 0
M  V30 5872 H 542.657 -2.52466 -2.94759 0
M  V30 5873 H 540.758 -0.183487 -3.72148 0
M  V30 5874 H 540.871 -1.95036 -4.37604 0
M  V30 5875 H 539.235 -0.947726 -2.36411 0
M  V30 5876 H 540.018 -2.61343 -2.22609 0
M  V30 5877 N 542.463 1.3308 -0.844243 0
M  V30 5878 C 543.426 2.27403 -0.286485 0
M  V30 5879 C 544.426 1.51179 0.547872 0
M  V30 5880 O 545.616 1.70421 0.360886 0
M  V30 5881 C 542.748 3.35653 0.595813 0
M  V30 5882 H 543.941 2.78248 -1.11885 0
M  V30 5883 H 541.494 1.43574 -0.617749 0
M  V30 5884 H 542.229 2.90058 1.4504 0
M  V30 5885 H 542.014 3.921 -0.00125994 0
M  V30 5886 H 543.504 4.05958 0.979168 0
M  V30 5887 N 543.941 0.601185 1.45683 0
M  V30 5888 C 545.166 0.0982245 2.07167 0
M  V30 5889 C 545.591 -1.20546 1.44396 0
M  V30 5890 O 544.949 -1.73247 0.534347 0
M  V30 5891 C 544.997 -0.0346976 3.60583 0
M  V30 5892 O 544.101 -1.08657 3.97828 0
M  V30 5893 H 543.442 0.0711618 0.660176 0
M  V30 5894 H 545.972 0.829376 1.87036 0
M  V30 5895 H 545.982 -0.234969 4.07323 0
M  V30 5896 H 544.657 0.917265 4.05659 0
M  V30 5897 H 543.234 -0.863275 3.6277 0
M  V30 5898 N 545.419 -1.53889 0.339982 0
M  V30 5899 C 546.351 -2.22435 -0.55275 0
M  V30 5900 C 547.364 -1.22975 -1.06681 0
M  V30 5901 O 548.553 -1.49351 -0.977575 0
M  V30 5902 C 545.653 -2.8882 -1.77302 0
M  V30 5903 C 544.826 -4.14563 -1.39486 0
M  V30 5904 C 543.885 -4.64391 -2.47442 0
M  V30 5905 O 542.911 -5.28687 -2.10899 0
M  V30 5906 N 544.113 -4.40015 -3.78639 0
M  V30 5907 H 546.878 -2.9968 0.0342669 0
M  V30 5908 H 544.439 -1.61068 0.16394 0
M  V30 5909 H 546.431 -3.19072 -2.48948 0
M  V30 5910 H 545.001 -2.15182 -2.26749 0
M  V30 5911 H 544.221 -3.90896 -0.509321 0
M  V30 5912 H 545.509 -4.96362 -1.11813 0
M  V30 5913 H 544.907 -3.88586 -4.11118 0
M  V30 5914 H 543.464 -4.74881 -4.46465 0
M  V30 5915 N 546.897 -0.0685191 -1.57451 0
M  V30 5916 C 548.137 0.605038 -1.9524 0
M  V30 5917 C 548.501 1.66974 -0.947816 0
M  V30 5918 O 549.702 2.39862 -1.21325 0
M  V30 5919 C 547.973 1.16999 -3.37707 0
M  V30 5920 S 549.532 1.85913 -3.97469 0
M  V30 5921 H 546.35 0.198203 -0.682815 0
M  V30 5922 H 548.952 -0.141594 -1.94987 0
M  V30 5923 H 547.656 0.383205 -4.08607 0
M  V30 5924 H 547.187 1.95305 -3.41496 0
M  V30 5925 H 549.202 3.14128 -3.84107 0
M  V30 5926 N 548.375 1.56261 0.205012 0
M  V30 5927 C 549.621 1.80306 0.9283 0
M  V30 5928 C 549.954 0.640932 1.83319 0
M  V30 5929 O 549.229 -0.359032 1.91158 0
M  V30 5930 C 549.512 3.14547 1.75306 0
M  V30 5931 C 549.365 4.41236 0.873562 0
M  V30 5932 C 550.684 3.45382 2.72762 0
M  V30 5933 H 547.803 0.655929 0.336044 0
M  V30 5934 H 550.445 1.88984 0.196211 0
M  V30 5935 H 548.595 3.0728 2.37721 0
M  V30 5936 H 550.267 4.60539 0.264887 0
M  V30 5937 H 548.51 4.33427 0.179773 0
M  V30 5938 H 549.181 5.31639 1.48541 0
M  V30 5939 H 551.657 3.52884 2.20481 0
M  V30 5940 H 550.533 4.40449 3.2756 0
M  V30 5941 H 550.794 2.68377 3.51321 0
M  V30 5942 N 549.853 -0.472356 1.50355 0
M  V30 5943 C 550.783 -1.57859 1.72055 0
M  V30 5944 C 551.764 -1.60283 0.569505 0
M  V30 5945 O 552.949 -1.7657 0.808503 0
M  V30 5946 C 550.079 -2.96191 1.81351 0
M  V30 5947 C 549.033 -3.08633 2.96529 0
M  V30 5948 C 548.359 -4.486 2.90968 0
M  V30 5949 C 549.659 -2.85969 4.37057 0
M  V30 5950 H 551.353 -1.39953 2.64676 0
M  V30 5951 H 548.899 -0.671846 1.27367 0
M  V30 5952 H 550.852 -3.73507 1.95117 0
M  V30 5953 H 549.576 -3.15251 0.853502 0
M  V30 5954 H 548.235 -2.33749 2.82413 0
M  V30 5955 H 547.883 -4.64577 1.92815 0
M  V30 5956 H 547.583 -4.57861 3.68289 0
M  V30 5957 H 549.107 -5.27938 3.0678 0
M  V30 5958 H 550.521 -3.53036 4.51706 0
M  V30 5959 H 548.918 -3.06677 5.15819 0
M  V30 5960 H 549.988 -1.81838 4.49514 0
M  V30 5961 N 551.331 -1.39911 -0.725443 0
M  V30 5962 C 552.608 -1.28158 -1.47766 0
M  V30 5963 C 552.988 0.104545 -2.10841 0
M  V30 5964 O 552.336 1.11657 -1.99361 0
M  V30 5965 C 552.546 -2.41306 -2.52135 0
M  V30 5966 C 553.894 -2.81076 -3.18247 0
M  V30 5967 O 554.918 -2.40827 -2.62452 0
M  V30 5968 O 553.777 -3.50581 -4.19231 0
M  V30 5969 H 550.871 -0.502761 -0.656628 0
M  V30 5970 H 553.417 -1.51808 -0.758456 0
M  V30 5971 H 552.189 -3.33932 -2.03974 0
M  V30 5972 H 551.812 -2.19374 -3.31603 0
M  V30 5973 N 552.809 0.956637 -1.25245 0
M  V30 5974 C 554.057 1.69764 -1.09657 0
M  V30 5975 C 554.378 1.91583 0.363464 0
M  V30 5976 O 553.648 1.50149 1.25825 0
M  V30 5977 H 552.228 0.629097 -0.402798 0
M  V30 5978 H 554.89 1.15026 -1.57337 0
M  V30 5979 H 553.986 2.67769 -1.60331 0
M  V30 5980 N 554.287 1.06798 1.15896 0
M  V30 5981 C 555.533 0.788934 1.86825 0
M  V30 5982 C 555.866 -0.683084 1.8179 0
M  V30 5983 O 555.141 -1.50086 1.23711 0
M  V30 5984 C 555.424 1.29065 3.36176 0
M  V30 5985 C 555.277 2.8268 3.49874 0
M  V30 5986 C 556.596 0.902655 4.30744 0
M  V30 5987 H 553.715 0.288066 0.678371 0
M  V30 5988 H 556.357 1.32479 1.36195 0
M  V30 5989 H 554.507 0.834806 3.79425 0
M  V30 5990 H 556.179 3.36511 3.15528 0
M  V30 5991 H 554.422 3.21157 2.91617 0
M  V30 5992 H 555.093 3.12852 4.54783 0
M  V30 5993 H 557.569 1.29535 3.95424 0
M  V30 5994 H 556.445 1.28111 5.3374 0
M  V30 5995 H 556.706 -0.191951 4.41683 0
M  V30 5996 N 555.766 -1.3263 0.851289 0
M  V30 5997 C 557.182 -1.50162 0.5407 0
M  V30 5998 C 557.382 -1.78788 -0.929369 0
M  V30 5999 O 556.438 -1.85545 -1.71258 0
M  V30 6000 C 557.751 -2.64803 1.42478 0
M  V30 6001 C 559.299 -2.78688 1.42485 0
M  V30 6002 C 559.774 -3.96405 2.29407 0
M  V30 6003 N 561.265 -4.0366 2.27184 0
M  V30 6004 C 562 -4.93971 2.9117 0
M  V30 6005 N 561.496 -5.89313 3.64256 0
M  V30 6006 N 563.289 -4.87066 2.80576 0
M  V30 6007 H 555.44 -1.12315 1.80275 0
M  V30 6008 H 557.703 -0.553266 0.769806 0
M  V30 6009 H 557.409 -2.50368 2.46999 0
M  V30 6010 H 557.283 -3.60506 1.10974 0
M  V30 6011 H 559.67 -2.92547 0.387304 0
M  V30 6012 H 559.751 -1.83708 1.78002 0
M  V30 6013 H 559.395 -3.83304 3.33228 0
M  V30 6014 H 559.325 -4.90654 1.91224 0
M  V30 6015 H 561.816 -3.35435 1.74045 0
M  V30 6016 H 562.129 -6.54913 4.10255 0
M  V30 6017 H 560.474 -5.8935 3.68364 0
M  V30 6018 H 563.665 -4.11552 2.23031 0
M  V30 6019 H 563.838 -5.57248 3.30725 0
M  V30 6020 N 557.244 -0.608902 -1.45362 0
M  V30 6021 C 558.492 -0.104401 -2.0183 0
M  V30 6022 C 558.813 1.27007 -1.47967 0
M  V30 6023 O 558.083 1.83924 -0.674455 0
M  V30 6024 H 556.663 -0.0356042 -0.746151 0
M  V30 6025 H 559.325 -0.790596 -1.78145 0
M  V30 6026 H 558.421 -0.0551793 -3.12051 0
M  V30 6027 N 558.722 1.53707 -0.348139 0
M  V30 6028 C 559.962 2.02899 0.247254 0
M  V30 6029 C 560.326 1.23033 1.47401 0
M  V30 6030 O 561.527 1.62146 2.14388 0
M  V30 6031 C 559.798 3.53156 0.549151 0
M  V30 6032 S 561.357 4.24247 1.1207 0
M  V30 6033 H 558.175 0.707213 0.0732894 0
M  V30 6034 H 560.777 1.89338 -0.486965 0
M  V30 6035 H 559.481 4.08893 -0.351435 0
M  V30 6036 H 559.012 3.70845 1.31291 0
M  V30 6037 H 561.027 4.33958 2.40613 0
M  V30 6038 N 560.2 0.0768682 1.57412 0
M  V30 6039 C 561.477 -0.632359 1.85096 0
M  V30 6040 C 561.857 -1.87479 0.9703 0
M  V30 6041 O 561.205 -2.28469 0.0379062 0
M  V30 6042 C 561.415 -0.965174 3.35388 0
M  V30 6043 C 562.763 -1.33648 4.03018 0
M  V30 6044 O 563.787 -1.05675 3.40164 0
M  V30 6045 O 562.646 -1.85959 5.13889 0
M  V30 6046 H 559.74 -0.314574 0.764835 0
M  V30 6047 H 562.286 0.108184 1.69355 0
M  V30 6048 H 561.058 -0.0829745 3.91212 0
M  V30 6049 H 560.681 -1.76231 3.5641 0
M  V30 6050 N 561.678 -1.56367 -0.196722 0
M  V30 6051 C 562.903 -1.84991 -0.937714 0
M  V30 6052 C 563.328 -0.660244 -1.76132 0
M  V30 6053 O 562.686 0.390967 -1.77034 0
M  V30 6054 C 562.734 -3.11828 -1.81096 0
M  V30 6055 O 561.838 -2.92266 -2.90955 0
M  V30 6056 H 561.179 -0.609193 -0.264159 0
M  V30 6057 H 563.709 -2.03595 -0.202529 0
M  V30 6058 H 563.719 -3.42579 -2.21594 0
M  V30 6059 H 562.394 -3.98037 -1.2058 0
M  V30 6060 H 560.971 -2.72809 -2.54224 0
M  V30 6061 N 563.156 0.464375 -1.50603 0
M  V30 6062 C 564.386 1.23727 -1.65454 0
M  V30 6063 C 564.794 1.86119 -0.340032 0
M  V30 6064 O 564.137 1.70301 0.688706 0
M  V30 6065 C 564.199 2.38153 -2.69301 0
M  V30 6066 C 563.863 1.96345 -4.12671 0
M  V30 6067 C 564.86 1.48215 -4.98326 0
M  V30 6068 C 562.545 2.04861 -4.58625 0
M  V30 6069 C 564.539 1.09152 -6.27985 0
M  V30 6070 C 562.226 1.65409 -5.88288 0
M  V30 6071 C 563.224 1.17634 -6.72794 0
M  V30 6072 O 562.912 0.787312 -8.00035 0
M  V30 6073 H 562.644 0.380075 -0.559034 0
M  V30 6074 H 565.198 0.559919 -1.97621 0
M  V30 6075 H 563.428 3.09081 -2.32392 0
M  V30 6076 H 565.117 3.00099 -2.73304 0
M  V30 6077 H 565.883 1.41052 -4.64036 0
M  V30 6078 H 561.762 2.40996 -3.92991 0
M  V30 6079 H 565.306 0.717909 -6.93896 0
M  V30 6080 H 561.203 1.72233 -6.22098 0
M  V30 6081 H 561.971 0.915567 -8.13363 0
M  V30 6082 N 564.634 1.40294 0.718013 0
M  V30 6083 C 565.567 1.34767 1.84155 0
M  V30 6084 C 566.545 0.218455 1.61126 0
M  V30 6085 O 567.729 0.401716 1.8417 0
M  V30 6086 C 564.856 1.09676 3.20451 0
M  V30 6087 C 563.902 2.25016 3.62312 0
M  V30 6088 S 564.735 3.87397 3.69707 0
M  V30 6089 C 565.891 3.64565 5.08766 0
M  V30 6090 H 566.124 2.29851 1.88562 0
M  V30 6091 H 563.657 1.2655 0.884555 0
M  V30 6092 H 565.615 0.95885 3.99144 0
M  V30 6093 H 564.276 0.162502 3.13679 0
M  V30 6094 H 563.469 2.03097 4.61268 0
M  V30 6095 H 563.071 2.35098 2.90869 0
M  V30 6096 H 565.363 3.22882 5.95612 0
M  V30 6097 H 566.306 4.63043 5.35721 0
M  V30 6098 H 566.714 2.98303 4.79245 0
M  V30 6099 N 566.112 -0.949982 1.2575 0
M  V30 6100 C 567.358 -1.69766 1.10938 0
M  V30 6101 C 567.691 -1.91056 -0.348028 0
M  V30 6102 O 566.966 -1.48488 -1.25625 0
M  V30 6103 C 567.249 -3.07779 1.86933 0
M  V30 6104 C 567.102 -2.9387 3.4053 0
M  V30 6105 C 568.421 -4.07749 1.65616 0
M  V30 6106 H 565.54 -0.616144 0.404396 0
M  V30 6107 H 568.182 -1.10394 1.54639 0
M  V30 6108 H 566.332 -3.58462 1.4979 0
M  V30 6109 H 568.004 -2.50476 3.87375 0
M  V30 6110 H 566.247 -2.29686 3.68004 0
M  V30 6111 H 566.918 -3.91719 3.88922 0
M  V30 6112 H 569.394 -3.65994 1.97959 0
M  V30 6113 H 568.27 -5.02348 2.21218 0
M  V30 6114 H 568.531 -4.38029 0.598595 0
M  V30 6115 N 567.59 -1.07411 -1.15328 0
M  V30 6116 C 568.82 -0.817595 -1.89734 0
M  V30 6117 C 569.228 0.63297 -1.78298 0
M  V30 6118 O 568.571 1.44594 -1.13306 0
M  V30 6119 C 568.633 -1.14748 -3.40695 0
M  V30 6120 C 568.297 -2.59876 -3.75917 0
M  V30 6121 C 569.294 -3.58122 -3.76888 0
M  V30 6122 C 566.979 -2.95469 -4.06206 0
M  V30 6123 C 568.973 -4.89996 -4.07655 0
M  V30 6124 C 566.66 -4.2754 -4.36638 0
M  V30 6125 C 567.658 -5.24614 -4.37344 0
M  V30 6126 O 567.346 -6.54312 -4.67045 0
M  V30 6127 H 567.078 -0.295175 -0.608151 0
M  V30 6128 H 569.632 -1.43409 -1.47048 0
M  V30 6129 H 567.862 -0.47395 -3.83785 0
M  V30 6130 H 569.551 -0.873397 -3.96392 0
M  V30 6131 H 570.317 -3.31966 -3.53587 0
M  V30 6132 H 566.196 -2.20558 -4.04815 0
M  V30 6133 H 569.74 -5.65759 -4.08121 0
M  V30 6134 H 565.637 -4.53449 -4.59407 0
M  V30 6135 H 566.405 -6.59473 -4.84807 0
M  V30 6136 N 569.068 1.32177 -0.85831 0
M  V30 6137 C 569.998 2.31282 -0.321041 0
M  V30 6138 C 570.979 1.59841 0.581786 0
M  V30 6139 O 572.164 1.87619 0.501262 0
M  V30 6140 C 569.294 3.4385 0.48832 0
M  V30 6141 C 568.248 4.26799 -0.320391 0
M  V30 6142 C 567.574 5.31164 0.613934 0
M  V30 6143 C 568.874 4.98829 -1.54813 0
M  V30 6144 H 570.568 2.76469 -1.14915 0
M  V30 6145 H 568.114 1.32916 -0.554028 0
M  V30 6146 H 570.067 4.12224 0.874626 0
M  V30 6147 H 568.791 2.97401 1.34983 0
M  V30 6148 H 567.45 3.60077 -0.688497 0
M  V30 6149 H 567.098 4.80967 1.47239 0
M  V30 6150 H 566.798 5.8755 0.0768097 0
M  V30 6151 H 568.322 6.024 0.997336 0
M  V30 6152 H 569.736 5.59864 -1.23392 0
M  V30 6153 H 568.133 5.64957 -2.02346 0
M  V30 6154 H 569.203 4.26483 -2.30739 0
M  V30 6155 N 570.547 0.616602 1.45037 0
M  V30 6156 C 571.794 0.115331 2.02171 0
M  V30 6157 C 572.122 -1.25748 1.48383 0
M  V30 6158 O 571.377 -1.84511 0.652229 0
M  V30 6159 C 571.676 0.0356829 3.57382 0
M  V30 6160 C 571.342 1.34535 4.30362 0
M  V30 6161 C 570.004 1.70408 4.50016 0
M  V30 6162 C 572.356 2.21049 4.72003 0
M  V30 6163 C 569.684 2.92529 5.0857 0
M  V30 6164 C 572.036 3.42427 5.31908 0
M  V30 6165 C 570.7 3.78541 5.49784 0
M  V30 6166 H 569.97 0.0422024 0.739797 0
M  V30 6167 H 572.617 0.80002 1.73988 0
M  V30 6168 H 570.922 -0.732314 3.84895 0
M  V30 6169 H 572.619 -0.368463 3.99304 0
M  V30 6170 H 569.209 1.05615 4.15383 0
M  V30 6171 H 573.393 1.94632 4.56544 0
M  V30 6172 H 568.649 3.20605 5.20598 0
M  V30 6173 H 572.823 4.09709 5.63127 0
M  V30 6174 H 570.45 4.73255 5.94923 0
M  V30 6175 N 572.025 -1.5352 0.356285 0
M  V30 6176 C 573.302 -1.93405 -0.292223 0
M  V30 6177 C 573.682 -1.28901 -1.67176 0
M  V30 6178 O 573.03 -0.444632 -2.24132 0
M  V30 6179 C 573.24 -3.47223 -0.35175 0
M  V30 6180 C 574.588 -4.20389 -0.596534 0
M  V30 6181 O 575.612 -3.53554 -0.433344 0
M  V30 6182 O 574.471 -5.3881 -0.913589 0
M  V30 6183 H 571.565 -0.808666 -0.173172 0
M  V30 6184 H 574.111 -1.64713 0.408391 0
M  V30 6185 H 572.883 -3.86423 0.615841 0
M  V30 6186 H 572.506 -3.8212 -1.09864 0
M  V30 6187 N 573.503 -0.0852151 -1.57369 0
M  V30 6188 C 574.45 0.877268 -2.13478 0
M  V30 6189 C 575.42 1.28642 -1.05073 0
M  V30 6190 O 576.605 1.36992 -1.32808 0
M  V30 6191 C 573.745 2.13464 -2.71159 0
M  V30 6192 C 572.858 1.77691 -3.93764 0
M  V30 6193 C 571.993 2.98139 -4.39643 0
M  V30 6194 C 571.032 2.58447 -5.54862 0
M  V30 6195 N 570.169 3.71698 -5.95639 0
M  V30 6196 H 575.009 0.391933 -2.95411 0
M  V30 6197 H 572.546 0.181796 -1.45972 0
M  V30 6198 H 574.504 2.87086 -3.02717 0
M  V30 6199 H 573.134 2.59514 -1.91969 0
M  V30 6200 H 572.186 0.940768 -3.68583 0
M  V30 6201 H 573.498 1.44497 -4.77412 0
M  V30 6202 H 572.652 3.80026 -4.72933 0
M  V30 6203 H 571.391 3.34536 -3.54876 0
M  V30 6204 H 570.396 1.74984 -5.21211 0
M  V30 6205 H 571.621 2.23205 -6.41371 0
M  V30 6206 H 569.567 4.07831 -5.13819 0
M  V30 6207 H 569.484 3.42317 -6.74059 0
M  V30 6208 H 570.752 4.54123 -6.33555 0
M  V30 6209 N 574.981 1.5647 0.188427 0
M  V30 6210 C 576.206 1.85486 0.927891 0
M  V30 6211 C 576.631 0.669575 1.75779 0
M  V30 6212 O 575.989 -0.381573 1.77239 0
M  V30 6213 C 576.037 3.12784 1.7944 0
M  V30 6214 O 575.141 2.93805 2.894 0
M  V30 6215 H 574.482 0.610585 0.260925 0
M  V30 6216 H 577.012 2.037 0.191729 0
M  V30 6217 H 577.022 3.43749 2.19774 0
M  V30 6218 H 575.697 3.98671 1.18468 0
M  V30 6219 H 574.274 2.74153 2.52774 0
M  V30 6220 N 576.459 -0.456382 1.50847 0
M  V30 6221 C 577.406 -1.55249 1.70782 0
M  V30 6222 C 578.376 -1.56757 0.549231 0
M  V30 6223 O 579.561 -1.74061 0.7815 0
M  V30 6224 C 576.701 -2.93118 1.82143 0
M  V30 6225 C 575.814 -3.01285 3.09598 0
M  V30 6226 C 574.949 -4.30159 3.11667 0
M  V30 6227 C 573.988 -4.32124 4.33515 0
M  V30 6228 N 573.125 -5.52492 4.3324 0
M  V30 6229 H 577.965 -1.37555 2.64353 0
M  V30 6230 H 575.502 -0.668543 1.3103 0
M  V30 6231 H 577.46 -3.73088 1.86711 0
M  V30 6232 H 576.09 -3.09413 0.919978 0
M  V30 6233 H 575.142 -2.14096 3.14431 0
M  V30 6234 H 576.454 -2.98597 3.99551 0
M  V30 6235 H 575.608 -5.18489 3.15046 0
M  V30 6236 H 574.347 -4.35477 2.1957 0
M  V30 6237 H 573.352 -3.42189 4.30333 0
M  V30 6238 H 574.577 -4.28485 5.26856 0
M  V30 6239 H 572.523 -5.58567 3.44004 0
M  V30 6240 H 572.44 -5.51605 5.16979 0
M  V30 6241 H 573.708 -6.42906 4.40786 0
M  V30 6242 N 577.937 -1.40673 -0.710563 0
M  V30 6243 C 579.165 -1.42547 -1.4996 0
M  V30 6244 C 579.58 -0.0265485 -1.88781 0
M  V30 6245 O 578.937 0.950694 -1.55782 0
M  V30 6246 C 578.988 -2.32071 -2.77173 0
M  V30 6247 O 578.709 -3.66518 -2.39992 0
M  V30 6248 C 580.21 -2.42591 -3.71032 0
M  V30 6249 H 577.43 -0.486025 -0.462623 0
M  V30 6250 H 579.974 -1.84783 -0.876102 0
M  V30 6251 H 578.129 -1.93184 -3.35795 0
M  V30 6252 H 578.543 -4.14115 -3.21884 0
M  V30 6253 H 580.017 -3.09429 -4.57119 0
M  V30 6254 H 580.494 -1.4525 -4.14486 0
M  V30 6255 H 581.1 -2.82051 -3.18319 0
M  V30 6256 N 579.415 0.9433 -1.26252 0
M  V30 6257 C 580.661 1.69175 -1.11837 0
M  V30 6258 C 580.994 1.91238 0.337891 0
M  V30 6259 O 580.269 1.49152 1.24836 0
M  V30 6260 C 580.552 3.06783 -1.88563 0
M  V30 6261 C 580.405 2.9206 -3.42083 0
M  V30 6262 C 581.724 4.06865 -1.67776 0
M  V30 6263 H 578.843 0.61399 -0.407658 0
M  V30 6264 H 581.485 1.09572 -1.55222 0
M  V30 6265 H 579.635 3.57663 -1.51689 0
M  V30 6266 H 581.307 2.48419 -3.88698 0
M  V30 6267 H 579.55 2.27731 -3.69217 0
M  V30 6268 H 580.221 3.89651 -3.90994 0
M  V30 6269 H 582.697 3.64939 -1.99897 0
M  V30 6270 H 581.573 5.01168 -2.23879 0
M  V30 6271 H 581.834 4.37705 -0.621816 0
M  V30 6272 N 580.893 1.08022 1.14757 0
M  V30 6273 C 582.123 0.827646 1.89298 0
M  V30 6274 C 582.531 -0.623506 1.78631 0
M  V30 6275 O 581.874 -1.43991 1.14071 0
M  V30 6276 C 581.936 1.16553 3.40082 0
M  V30 6277 C 581.6 2.61866 3.74533 0
M  V30 6278 C 582.597 3.60116 3.74984 0
M  V30 6279 C 580.282 2.97619 4.04633 0
M  V30 6280 C 582.276 4.92151 4.05051 0
M  V30 6281 C 579.963 4.2985 4.34364 0
M  V30 6282 C 580.961 5.26926 4.34555 0
M  V30 6283 O 580.649 6.5678 4.63568 0
M  V30 6284 H 580.381 0.298396 0.606577 0
M  V30 6285 H 582.935 1.44187 1.46285 0
M  V30 6286 H 581.165 0.494296 3.83528 0
M  V30 6287 H 582.854 0.894407 3.95923 0
M  V30 6288 H 583.62 3.33837 3.51821 0
M  V30 6289 H 579.499 2.22702 4.03639 0
M  V30 6290 H 583.043 5.67915 4.05115 0
M  V30 6291 H 578.94 4.55879 4.56995 0
M  V30 6292 H 579.708 6.62035 4.81303 0
M  V30 6293 N 582.371 -1.3172 0.865308 0
M  V30 6294 C 583.281 -2.32394 0.320935 0
M  V30 6295 C 584.297 -1.64511 -0.566746 0
M  V30 6296 O 585.473 -1.95969 -0.464575 0
M  V30 6297 C 582.538 -3.43462 -0.472701 0
M  V30 6298 C 581.599 -4.27015 0.442385 0
M  V30 6299 C 580.832 -5.32779 -0.313469 0
M  V30 6300 O 581.055 -5.49158 -1.54214 0
M  V30 6301 O 579.989 -6.01015 0.326257 0
M  V30 6302 H 583.815 -2.80868 1.15528 0
M  V30 6303 H 581.4 -1.35535 0.628545 0
M  V30 6304 H 583.282 -4.11172 -0.922781 0
M  V30 6305 H 581.957 -2.97159 -1.28367 0
M  V30 6306 H 580.864 -3.62075 0.940866 0
M  V30 6307 H 582.197 -4.76871 1.21882 0
M  V30 6308 N 583.85 -0.624285 -1.44708 0
M  V30 6309 C 585.098 -0.125802 -2.01708 0
M  V30 6310 C 585.418 1.2543 -1.49306 0
M  V30 6311 O 584.689 1.83198 -0.693924 0
M  V30 6312 H 583.269 -0.0435161 -0.745731 0
M  V30 6313 H 585.931 -0.809446 -1.77296 0
M  V30 6314 H 585.027 -0.0882734 -3.11975 0
M  V30 6315 N 585.328 1.53329 -0.364422 0
M  V30 6316 C 586.739 1.86345 0.115039 0
M  V30 6317 C 587.09 1.28505 1.4826 0
M  V30 6318 O 586.215 0.606639 2.07723 0
M  V30 6319 C 586.81 3.38114 0.215522 0
M  V30 6320 C 585.369 3.70932 0.639237 0
M  V30 6321 C 584.516 2.76471 -0.214261 0
M  V30 6322 H 587.467 1.47593 -0.583258 0
M  V30 6323 H 587.488 3.66031 1.0393 0
M  V30 6324 H 587 3.80182 -0.779948 0
M  V30 6325 H 585.101 3.3442 1.64298 0
M  V30 6326 H 585.214 4.77302 0.41465 0
M  V30 6327 H 583.578 2.52724 0.316678 0
M  V30 6328 H 584.361 3.21373 -1.20725 0
M  V30 6329 N 586.806 0.0935595 1.57322 0
M  V30 6330 C 588.053 -0.570509 1.94297 0
M  V30 6331 C 588.381 -1.68286 0.97519 0
M  V30 6332 O 587.636 -1.95699 -0.00548655 0
M  V30 6333 C 587.935 -1.16692 3.37813 0
M  V30 6334 C 587.601 -0.178509 4.50547 0
M  V30 6335 C 586.263 0.0933475 4.81109 0
M  V30 6336 C 588.615 0.496472 5.1883 0
M  V30 6337 C 585.943 1.0469 5.77284 0
M  V30 6338 C 588.295 1.43849 6.16028 0
M  V30 6339 C 586.959 1.71859 6.44997 0
M  V30 6340 H 586.229 -0.208764 0.710984 0
M  V30 6341 H 588.876 0.169066 1.90752 0
M  V30 6342 H 587.181 -1.98271 3.37929 0
M  V30 6343 H 588.878 -1.6884 3.63722 0
M  V30 6344 H 585.468 -0.400584 4.26724 0
M  V30 6345 H 589.652 0.299584 4.95395 0
M  V30 6346 H 584.908 1.27094 5.98044 0
M  V30 6347 H 589.082 1.96734 6.68034 0
M  V30 6348 H 586.709 2.45906 7.19329 0
M  V30 6349 N 588.284 -1.56567 -0.180126 0
M  V30 6350 C 589.247 -1.94852 -1.20686 0
M  V30 6351 C 590.247 -0.831212 -1.3765 0
M  V30 6352 O 591.437 -1.09841 -1.35206 0
M  V30 6353 C 588.569 -2.23565 -2.57355 0
M  V30 6354 H 589.762 -2.86722 -0.879225 0
M  V30 6355 H 587.315 -1.50489 -0.422237 0
M  V30 6356 H 588.05 -1.34381 -2.95148 0
M  V30 6357 H 587.835 -3.04999 -2.46411 0
M  V30 6358 H 589.325 -2.54137 -3.31367 0
M  V30 6359 N 589.762 0.448376 -1.51087 0
M  V30 6360 C 590.987 1.22605 -1.6728 0
M  V30 6361 C 591.412 1.84524 -0.365045 0
M  V30 6362 O 590.77 1.6832 0.673642 0
M  V30 6363 C 590.818 2.29393 -2.78229 0
M  V30 6364 O 589.922 3.34608 -2.41063 0
M  V30 6365 H 589.263 0.359705 -0.558129 0
M  V30 6366 H 591.793 0.530903 -1.97592 0
M  V30 6367 H 591.803 2.74352 -3.01986 0
M  V30 6368 H 590.478 1.83701 -3.73131 0
M  V30 6369 H 589.055 2.95202 -2.27838 0
M  V30 6370 N 591.24 1.41047 0.703093 0
M  V30 6371 C 592.656 1.23351 1.01275 0
M  V30 6372 C 592.856 0.11754 2.01157 0
M  V30 6373 O 591.912 -0.520518 2.47077 0
M  V30 6374 C 593.225 2.58001 1.54454 0
M  V30 6375 C 594.773 2.65119 1.66376 0
M  V30 6376 C 595.248 4.00067 2.22958 0
M  V30 6377 N 596.739 4.01875 2.30328 0
M  V30 6378 C 597.474 5.03087 2.75119 0
M  V30 6379 N 596.97 6.14692 3.19571 0
M  V30 6380 N 598.763 4.90451 2.74616 0
M  V30 6381 H 590.914 2.1236 0.0412686 0
M  V30 6382 H 593.177 0.944543 0.08089 0
M  V30 6383 H 592.883 3.40378 0.88521 0
M  V30 6384 H 592.757 2.79962 2.52786 0
M  V30 6385 H 595.144 1.83106 2.31422 0
M  V30 6386 H 595.225 2.46975 0.666089 0
M  V30 6387 H 594.869 4.82526 1.58529 0
M  V30 6388 H 594.799 4.15547 3.23462 0
M  V30 6389 H 597.29 3.21291 1.98949 0
M  V30 6390 H 597.603 6.87799 3.52352 0
M  V30 6391 H 595.948 6.18239 3.17498 0
M  V30 6392 H 599.139 4.0235 2.39233 0
M  V30 6393 H 599.312 5.6947 3.09206 0
M  V30 6394 N 592.718 -0.936591 1.26751 0
M  V30 6395 C 593.943 -1.72288 1.15462 0
M  V30 6396 C 594.368 -1.85915 -0.285887 0
M  V30 6397 O 593.726 -1.35272 -1.20711 0
M  V30 6398 C 593.774 -3.10503 1.83359 0
M  V30 6399 O 592.878 -3.96745 1.1255 0
M  V30 6400 H 592.219 -0.52843 0.402067 0
M  V30 6401 H 594.749 -1.17271 1.67656 0
M  V30 6402 H 594.759 -3.60867 1.90365 0
M  V30 6403 H 593.434 -2.99901 2.88153 0
M  V30 6404 H 592.011 -3.55191 1.13551 0
M  V30 6405 N 594.196 -1.08629 -1.14182 0
M  V30 6406 C 595.126 -0.740003 -2.21464 0
M  V30 6407 C 596.107 0.278591 -1.67803 0
M  V30 6408 O 597.292 0.148461 -1.93632 0
M  V30 6409 C 594.422 -0.150952 -3.46972 0
M  V30 6410 C 593.376 -1.09815 -4.13672 0
M  V30 6411 C 592.702 -0.3712 -5.3341 0
M  V30 6412 C 594.002 -2.43722 -4.61949 0
M  V30 6413 H 595.696 -1.63697 -2.50686 0
M  V30 6414 H 593.242 -0.788526 -1.20492 0
M  V30 6415 H 595.195 0.103325 -4.21273 0
M  V30 6416 H 593.919 0.781164 -3.1712 0
M  V30 6417 H 592.578 -1.33756 -3.41328 0
M  V30 6418 H 592.226 0.564792 -4.99819 0
M  V30 6419 H 591.926 -1.00267 -5.78982 0
M  V30 6420 H 593.45 -0.12503 -6.10472 0
M  V30 6421 H 594.864 -2.24034 -5.27714 0
M  V30 6422 H 593.261 -3.02582 -5.18232 0
M  V30 6423 H 594.331 -3.05082 -3.76899 0
M  V30 6424 N 595.674 1.31259 -0.872281 0
M  V30 6425 C 596.899 2.0133 -0.498099 0
M  V30 6426 C 597.324 1.65031 0.902568 0
M  V30 6427 O 596.682 0.860164 1.59596 0
M  V30 6428 C 596.73 3.54411 -0.665205 0
M  V30 6429 O 595.834 4.11347 0.294473 0
M  V30 6430 H 595.175 0.633844 -0.197832 0
M  V30 6431 H 597.705 1.67402 -1.17633 0
M  V30 6432 H 597.715 4.04147 -0.559373 0
M  V30 6433 H 596.39 3.80171 -1.68651 0
M  V30 6434 H 594.967 3.72624 0.143403 0
M  V30 6435 N 597.152 0.631951 1.44375 0
M  V30 6436 C 598.429 0.067646 1.95483 0
M  V30 6437 C 598.809 -1.40683 1.57389 0
M  V30 6438 O 598.157 -2.12167 0.848375 0
M  V30 6439 C 598.367 0.291392 3.47781 0
M  V30 6440 C 599.715 0.185028 4.24197 0
M  V30 6441 O 600.739 0.222803 3.55503 0
M  V30 6442 O 599.598 0.0906642 5.46425 0
M  V30 6443 H 596.692 -0.0218379 0.826712 0
M  V30 6444 H 599.238 0.703711 1.54421 0
M  V30 6445 H 598.01 1.31449 3.68561 0
M  V30 6446 H 597.633 -0.378772 3.95792 0
M  V30 6447 N 598.631 -1.53133 0.372548 0
M  V30 6448 C 599.871 -2.03267 -0.214943 0
M  V30 6449 C 600.235 -1.25362 -1.45425 0
M  V30 6450 O 601.436 -1.65536 -2.11781 0
M  V30 6451 C 599.707 -3.53985 -0.492897 0
M  V30 6452 S 601.266 -4.25977 -1.05307 0
M  V30 6453 H 598.084 -0.708289 -0.062029 0
M  V30 6454 H 600.686 -1.88539 0.517025 0
M  V30 6455 H 599.39 -4.08282 0.416442 0
M  V30 6456 H 598.921 -3.72887 -1.25375 0
M  V30 6457 H 600.936 -4.37731 -2.33679 0
M  V30 6458 N 600.109 -0.101901 -1.5727 0
M  V30 6459 C 601.355 0.561027 -1.94885 0
M  V30 6460 C 601.688 1.6741 -0.984258 0
M  V30 6461 O 600.963 1.94491 -0.0184767 0
M  V30 6462 C 601.246 1.10982 -3.42571 0
M  V30 6463 C 601.099 0.00133418 -4.498 0
M  V30 6464 C 602.418 2.00608 -3.9172 0
M  V30 6465 H 599.537 0.202467 -0.708644 0
M  V30 6466 H 602.179 -0.173992 -1.89202 0
M  V30 6467 H 600.329 1.73621 -3.47546 0
M  V30 6468 H 602.001 -0.63322 -4.56933 0
M  V30 6469 H 600.244 -0.664143 -4.28686 0
M  V30 6470 H 600.915 0.426253 -5.50352 0
M  V30 6471 H 603.391 1.47864 -3.88941 0
M  V30 6472 H 602.267 2.3593 -4.95609 0
M  V30 6473 H 602.528 2.92608 -3.3141 0
M  V30 6474 N 601.587 1.56661 0.17182 0
M  V30 6475 C 602.535 1.97289 1.23207 0
M  V30 6476 C 603.529 0.861566 1.45854 0
M  V30 6477 O 604.735 1.04668 1.4644 0
M  V30 6478 H 601.11 0.627681 0.41415 0
M  V30 6479 H 603.081 2.85662 0.862542 0
M  V30 6480 C 601.83 2.34849 2.564 0
M  V30 6481 H 601.153 3.19903 2.39797 0
M  V30 6482 H 602.593 2.67121 3.29276 0
M  V30 6483 C 601.052 1.19172 3.15119 0
M  V30 6484 O 601.582 0.479113 3.98833 0
M  V30 6485 N 599.788 0.962415 2.74201 0
M  V30 6486 H 599.335 1.54365 2.06226 0
M  V30 6487 H 599.293 0.190272 3.13824 0
M  V30 6488 N 603.065 -0.440357 1.51323 0
M  V30 6489 C 604.295 -1.21079 1.67402 0
M  V30 6490 C 604.703 -1.85555 0.369599 0
M  V30 6491 O 604.046 -1.71375 -0.661525 0
M  V30 6492 C 604.108 -2.33839 2.73056 0
M  V30 6493 C 603.772 -1.89755 4.15743 0
M  V30 6494 C 604.769 -1.40268 5.0062 0
M  V30 6495 C 602.454 -1.97539 4.61826 0
M  V30 6496 C 604.448 -0.991474 6.29642 0
M  V30 6497 C 602.135 -1.56029 5.90845 0
M  V30 6498 C 603.133 -1.06915 6.7458 0
M  V30 6499 O 602.821 -0.659933 8.01187 0
M  V30 6500 H 602.553 -0.371133 0.56501 0
M  V30 6501 H 605.107 -0.528409 1.98487 0
M  V30 6502 H 603.337 -3.05345 2.37279 0
M  V30 6503 H 605.026 -2.95713 2.78044 0
M  V30 6504 H 605.792 -1.33652 4.66221 0
M  V30 6505 H 601.671 -2.34713 3.96776 0
M  V30 6506 H 605.215 -0.607425 6.9495 0
M  V30 6507 H 601.112 -1.62315 6.24759 0
M  V30 6508 H 601.88 -0.786052 8.14717 0
M  V30 6509 N 604.543 -1.41418 -0.695603 0
M  V30 6510 C 605.792 -1.40073 -1.4513 0
M  V30 6511 C 606.105 -0.0130439 -1.95596 0
M  V30 6512 O 607.311 0.123032 -2.71221 0
M  V30 6513 C 605.767 -2.46286 -2.62433 0
M  V30 6514 C 605.375 -3.90962 -2.18753 0
M  V30 6515 C 607.119 -2.54077 -3.40066 0
M  V30 6516 C 605.026 -4.88728 -3.33015 0
M  V30 6517 H 603.956 -0.520903 -0.545138 0
M  V30 6518 H 606.607 -1.67242 -0.75515 0
M  V30 6519 H 604.989 -2.12248 -3.34315 0
M  V30 6520 H 606.163 -4.34248 -1.54161 0
M  V30 6521 H 604.478 -3.86831 -1.54114 0
M  V30 6522 H 607.075 -3.24303 -4.25125 0
M  V30 6523 H 607.418 -1.5776 -3.8525 0
M  V30 6524 H 607.951 -2.87206 -2.75241 0
M  V30 6525 H 604.69 -5.86449 -2.92844 0
M  V30 6526 H 604.21 -4.50091 -3.96457 0
M  V30 6527 H 605.889 -5.09483 -3.98793 0
M  V30 6528 N 606.021 0.929856 -1.27246 0
M  V30 6529 C 607.267 1.6798 -1.13625 0
M  V30 6530 C 607.6 1.91586 0.317589 0
M  V30 6531 O 606.875 1.50467 1.23247 0
M  V30 6532 C 607.158 3.04766 -1.91806 0
M  V30 6533 C 607.011 2.88415 -3.45162 0
M  V30 6534 C 608.33 4.05063 -1.72082 0
M  V30 6535 H 605.449 0.609632 -0.414147 0
M  V30 6536 H 608.091 1.0792 -1.56376 0
M  V30 6537 H 606.241 3.56034 -1.55474 0
M  V30 6538 H 607.913 2.44282 -3.91311 0
M  V30 6539 H 606.156 2.23802 -3.71611 0
M  V30 6540 H 606.827 3.85482 -3.95105 0
M  V30 6541 H 609.303 3.62798 -2.03757 0
M  V30 6542 H 608.179 4.98765 -2.29182 0
M  V30 6543 H 608.44 4.37021 -0.668206 0
M  V30 6544 N 607.499 1.09233 1.13605 0
M  V30 6545 C 608.431 0.687794 2.18637 0
M  V30 6546 C 609.444 -0.26936 1.60556 0
M  V30 6547 O 610.633 -0.0557162 1.78413 0
M  V30 6548 C 607.733 -0.00751901 3.38899 0
M  V30 6549 C 606.906 0.97067 4.26494 0
M  V30 6550 C 605.965 0.309129 5.25291 0
M  V30 6551 O 604.991 0.956149 5.61112 0
M  V30 6552 N 606.193 -0.937555 5.72879 0
M  V30 6553 H 608.958 1.59141 2.53957 0
M  V30 6554 H 606.519 0.979515 1.28907 0
M  V30 6555 H 608.511 -0.461238 4.02063 0
M  V30 6556 H 607.081 -0.813353 3.01833 0
M  V30 6557 H 606.301 1.603 3.60135 0
M  V30 6558 H 607.589 1.63323 4.81875 0
M  V30 6559 H 606.987 -1.48281 5.4592 0
M  V30 6560 H 605.544 -1.33463 6.3799 0
M  V30 6561 N 608.977 -1.30795 0.87923 0
M  V30 6562 C 610.254 -1.91145 0.415086 0
M  V30 6563 C 610.634 -1.7995 -1.10368 0
M  V30 6564 O 609.982 -1.21305 -1.93642 0
M  V30 6565 C 610.192 -3.37014 0.906778 0
M  V30 6566 C 611.54 -4.14101 0.938358 0
M  V30 6567 O 612.564 -3.45834 0.853053 0
M  V30 6568 O 611.423 -5.36054 1.06342 0
M  V30 6569 H 608.517 -0.81736 0.125905 0
M  V30 6570 H 611.063 -1.39401 0.967753 0
M  V30 6571 H 609.835 -3.3922 1.95053 0
M  V30 6572 H 609.458 -3.96204 0.332948 0
M  V30 6573 N 610.455 -0.639598 -1.44038 0
M  V30 6574 C 611.68 -0.153117 -2.06834 0
M  V30 6575 C 612.105 1.16676 -1.47541 0
M  V30 6576 O 611.463 1.71769 -0.580093 0
M  V30 6577 C 611.511 -0.0609169 -3.60549 0
M  V30 6578 O 610.615 0.98071 -4.00569 0
M  V30 6579 H 609.956 -0.0886402 -0.658057 0
M  V30 6580 H 612.486 -0.878674 -1.84771 0
M  V30 6581 H 612.496 0.126892 -4.07803 0
M  V30 6582 H 611.171 -1.0245 -4.03084 0
M  V30 6583 H 609.748 0.766789 -3.64931 0
M  V30 6584 N 611.933 1.52934 -0.380664 0
M  V30 6585 C 612.88 2.26197 0.458641 0
M  V30 6586 C 613.85 1.27462 1.06502 0
M  V30 6587 O 615.035 1.56274 1.09467 0
M  V30 6588 C 612.175 3.06571 1.58456 0
M  V30 6589 C 611.288 4.20222 1.00189 0
M  V30 6590 C 610.423 4.88007 2.09815 0
M  V30 6591 C 609.462 5.93665 1.49092 0
M  V30 6592 N 608.599 6.55081 2.52613 0
M  V30 6593 H 613.439 2.975 -0.172595 0
M  V30 6594 H 610.976 1.4678 -0.0969426 0
M  V30 6595 H 612.934 3.51455 2.24801 0
M  V30 6596 H 611.564 2.37494 2.18624 0
M  V30 6597 H 610.616 3.79714 0.228292 0
M  V30 6598 H 611.928 4.96102 0.518064 0
M  V30 6599 H 611.082 5.36151 2.83948 0
M  V30 6600 H 609.821 4.11632 2.61555 0
M  V30 6601 H 608.826 5.44868 0.7348 0
M  V30 6602 H 610.051 6.71969 0.981582 0
M  V30 6603 H 607.997 5.8155 3.03538 0
M  V30 6604 H 607.914 7.26548 2.08961 0
M  V30 6605 H 609.182 7.07871 3.26402 0
M  V30 6606 N 613.412 0.11024 1.57214 0
M  V30 6607 C 614.661 -0.549638 1.94067 0
M  V30 6608 C 614.974 -1.68388 0.995234 0
M  V30 6609 O 616.18 -2.40593 1.25807 0
M  V30 6610 C 614.636 -1.02912 3.44873 0
M  V30 6611 C 614.244 0.0761861 4.47935 0
M  V30 6612 C 615.988 -1.66087 3.9066 0
M  V30 6613 C 613.895 -0.419502 5.8991 0
M  V30 6614 H 612.825 -0.209092 0.724428 0
M  V30 6615 H 615.476 0.188683 1.82527 0
M  V30 6616 H 613.858 -1.82159 3.51616 0
M  V30 6617 H 615.032 0.852185 4.52851 0
M  V30 6618 H 613.347 0.614052 4.11847 0
M  V30 6619 H 615.944 -2.04272 4.94143 0
M  V30 6620 H 616.287 -2.53591 3.30148 0
M  V30 6621 H 616.82 -0.933959 3.86681 0
M  V30 6622 H 613.559 0.419277 6.54158 0
M  V30 6623 H 613.079 -1.16217 5.88433 0
M  V30 6624 H 614.758 -0.883577 6.40938 0
M  V30 6625 N 614.89 -1.56749 -0.16351 0
M  V30 6626 C 615.822 -1.93587 -1.22705 0
M  V30 6627 C 616.835 -0.829824 -1.40063 0
M  V30 6628 O 618.024 -1.10826 -1.39928 0
M  V30 6629 C 615.124 -2.1803 -2.59454 0
M  V30 6630 C 614.297 -3.4928 -2.63292 0
M  V30 6631 C 613.356 -3.62457 -3.8146 0
M  V30 6632 O 612.382 -4.35004 -3.67096 0
M  V30 6633 N 613.584 -2.97888 -4.9824 0
M  V30 6634 H 616.349 -2.8542 -0.914081 0
M  V30 6635 H 613.91 -1.58 -0.353214 0
M  V30 6636 H 615.902 -2.24102 -3.36987 0
M  V30 6637 H 614.472 -1.32543 -2.8311 0
M  V30 6638 H 613.692 -3.54795 -1.71796 0
M  V30 6639 H 614.98 -4.35632 -2.62873 0
M  V30 6640 H 614.378 -2.38833 -5.12811 0
M  V30 6641 H 612.935 -3.09545 -5.73607 0
M  V30 6642 N 616.368 0.432326 -1.51554 0
M  V30 6643 C 617.298 1.53242 -1.76179 0
M  V30 6644 C 618.279 1.58717 -0.611801 0
M  V30 6645 O 619.464 1.74364 -0.855033 0
M  V30 6646 C 616.594 2.91278 -1.89141 0
M  V30 6647 C 615.548 3.00663 -3.04608 0
M  V30 6648 C 614.874 4.40728 -3.02759 0
M  V30 6649 C 616.174 2.74281 -4.44485 0
M  V30 6650 H 617.868 1.32886 -2.68294 0
M  V30 6651 H 615.414 0.637841 -1.29103 0
M  V30 6652 H 617.367 3.68203 -2.04951 0
M  V30 6653 H 616.091 3.12877 -0.936785 0
M  V30 6654 H 614.75 2.26179 -2.88511 0
M  V30 6655 H 614.398 4.59301 -2.05065 0
M  V30 6656 H 614.098 4.47936 -3.80299 0
M  V30 6657 H 615.622 5.19619 -3.20669 0
M  V30 6658 H 617.036 3.40936 -4.60907 0
M  V30 6659 H 615.433 2.92893 -5.23769 0
M  V30 6660 H 616.503 1.69856 -4.54177 0
M  V30 6661 N 617.846 1.41785 0.688094 0
M  V30 6662 C 619.257 1.3701 1.26828 0
M  V30 6663 C 619.608 0.056835 1.96118 0
M  V30 6664 O 618.733 -0.84475 1.99231 0
M  V30 6665 C 619.328 2.48168 2.30648 0
M  V30 6666 C 617.887 2.46766 2.84224 0
M  V30 6667 C 617.034 2.27633 1.58361 0
M  V30 6668 H 619.985 1.51192 0.482351 0
M  V30 6669 H 620.006 2.17655 3.121 0
M  V30 6670 H 619.518 3.43735 1.80188 0
M  V30 6671 H 617.619 1.54978 3.3884 0
M  V30 6672 H 617.732 3.43342 3.34145 0
M  V30 6673 H 616.096 1.75648 1.84445 0
M  V30 6674 H 616.879 3.25238 1.09887 0
M  V30 6675 N 619.324 -0.923095 1.27737 0
M  V30 6676 C 620.573 -1.66581 1.13727 0
M  V30 6677 C 620.886 -1.9304 -0.315433 0
M  V30 6678 O 622.092 -2.65309 -0.57651 0
M  V30 6679 C 620.548 -3.00047 1.98745 0
M  V30 6680 C 620.156 -2.8127 3.48699 0
M  V30 6681 C 621.9 -3.77887 1.93395 0
M  V30 6682 C 619.807 -4.1032 4.25901 0
M  V30 6683 H 618.737 -0.624834 0.422017 0
M  V30 6684 H 621.388 -1.02514 1.52194 0
M  V30 6685 H 619.77 -3.65197 1.53125 0
M  V30 6686 H 620.944 -2.24859 4.02213 0
M  V30 6687 H 619.259 -2.16854 3.55476 0
M  V30 6688 H 621.856 -4.73526 2.48348 0
M  V30 6689 H 622.199 -4.06264 0.908605 0
M  V30 6690 H 622.732 -3.19541 2.36935 0
M  V30 6691 H 619.471 -3.8712 5.28978 0
M  V30 6692 H 618.991 -4.66377 3.77163 0
M  V30 6693 H 620.67 -4.78648 4.35321 0
M  V30 6694 N 620.802 -1.09834 -1.13024 0
M  V30 6695 C 622.051 -0.831806 -1.83749 0
M  V30 6696 C 622.364 0.644763 -1.84668 0
M  V30 6697 O 623.57 1.02697 -2.51327 0
M  V30 6698 C 622.026 -1.43817 -3.29916 0
M  V30 6699 C 621.634 -2.94759 -3.37374 0
M  V30 6700 C 623.378 -1.25077 -4.05655 0
M  V30 6701 C 621.285 -3.48461 -4.77838 0
M  V30 6702 H 620.215 -0.30751 -0.688443 0
M  V30 6703 H 622.866 -1.32156 -1.27307 0
M  V30 6704 H 621.248 -0.876106 -3.86187 0
M  V30 6705 H 622.422 -3.57228 -2.91076 0
M  V30 6706 H 620.737 -3.12581 -2.75103 0
M  V30 6707 H 623.334 -1.62649 -5.09362 0
M  V30 6708 H 623.677 -0.191782 -4.15858 0
M  V30 6709 H 624.21 -1.78057 -3.55725 0
M  V30 6710 H 620.949 -4.53998 -4.72828 0
M  V30 6711 H 620.469 -2.90757 -5.24615 0
M  V30 6712 H 622.148 -3.45914 -5.46766 0
M  V30 6713 N 622.28 1.30327 -0.886154 0
M  V30 6714 C 623.212 2.27079 -0.311072 0
M  V30 6715 C 624.225 1.53758 0.53502 0
M  V30 6716 O 625.414 1.74947 0.354378 0
M  V30 6717 C 622.514 3.33965 0.576228 0
M  V30 6718 C 621.687 4.36735 -0.241064 0
M  V30 6719 C 620.746 5.23028 0.576916 0
M  V30 6720 O 619.772 5.692 -0.000802231 0
M  V30 6721 N 620.974 5.49016 1.88579 0
M  V30 6722 H 623.739 2.77065 -1.14259 0
M  V30 6723 H 621.3 1.43519 -0.749258 0
M  V30 6724 H 623.292 3.88618 1.12953 0
M  V30 6725 H 621.862 2.839 1.30842 0
M  V30 6726 H 621.082 3.81932 -0.975805 0
M  V30 6727 H 622.37 5.02451 -0.801272 0
M  V30 6728 H 621.768 5.13288 2.37806 0
M  V30 6729 H 620.325 6.06539 2.38651 0
M  V30 6730 N 623.758 0.647228 1.43697 0
M  V30 6731 C 624.688 -0.0345631 2.33474 0
M  V30 6732 C 625.669 -0.818193 1.4913 0
M  V30 6733 O 626.854 -0.780867 1.77809 0
M  V30 6734 C 623.984 -1.00576 3.32418 0
M  V30 6735 C 622.938 -0.33266 4.26705 0
M  V30 6736 C 622.264 -1.41489 5.1564 0
M  V30 6737 C 623.564 0.771204 5.16575 0
M  V30 6738 H 625.258 0.715163 2.90733 0
M  V30 6739 H 622.804 0.345364 1.39797 0
M  V30 6740 H 624.757 -1.49159 3.94119 0
M  V30 6741 H 623.481 -1.78657 2.73403 0
M  V30 6742 H 622.14 0.13267 3.6636 0
M  V30 6743 H 621.788 -2.18698 4.52968 0
M  V30 6744 H 621.488 -0.969799 5.79542 0
M  V30 6745 H 623.012 -1.9022 5.80214 0
M  V30 6746 H 624.426 0.36779 5.72119 0
M  V30 6747 H 622.823 1.1404 5.89165 0
M  V30 6748 H 623.893 1.63169 4.56622 0
M  V30 6749 N 625.236 -1.5273 0.388769 0
M  V30 6750 C 626.652 -1.59553 0.0387049 0
M  V30 6751 C 626.852 -1.40278 -1.44652 0
M  V30 6752 O 625.908 -1.21951 -2.21098 0
M  V30 6753 C 627.221 -2.9625 0.515409 0
M  V30 6754 C 628.769 -3.09426 0.471621 0
M  V30 6755 C 629.244 -4.48572 0.924505 0
M  V30 6756 N 630.735 -4.54754 0.880496 0
M  V30 6757 C 631.47 -5.60653 1.20234 0
M  V30 6758 N 630.966 -6.74198 1.59463 0
M  V30 6759 N 632.759 -5.50755 1.12363 0
M  V30 6760 H 624.91 -1.63508 1.35569 0
M  V30 6761 H 627.173 -0.768097 0.555636 0
M  V30 6762 H 626.879 -3.15569 1.5527 0
M  V30 6763 H 626.753 -3.77102 -0.085792 0
M  V30 6764 H 629.14 -2.89804 -0.556588 0
M  V30 6765 H 629.221 -2.30528 1.10862 0
M  V30 6766 H 628.865 -4.68936 1.95094 0
M  V30 6767 H 628.795 -5.25935 0.264524 0
M  V30 6768 H 631.286 -3.73237 0.591815 0
M  V30 6769 H 631.599 -7.5097 1.82385 0
M  V30 6770 H 629.944 -6.75531 1.63349 0
M  V30 6771 H 633.135 -4.6093 0.816169 0
M  V30 6772 H 633.308 -6.33184 1.37777 0
M  V30 6773 N 626.714 -0.118576 -1.57153 0
M  V30 6774 C 627.661 0.831789 -2.1529 0
M  V30 6775 C 628.631 1.26385 -1.07778 0
M  V30 6776 O 629.816 1.34144 -1.35684 0
M  V30 6777 C 626.956 2.07664 -2.75626 0
M  V30 6778 C 626.069 1.69298 -3.97444 0
M  V30 6779 C 625.204 2.88747 -4.45868 0
M  V30 6780 C 624.243 2.46619 -5.60219 0
M  V30 6781 N 623.38 3.5898 -6.03389 0
M  V30 6782 H 628.22 0.329183 -2.96176 0
M  V30 6783 H 625.757 0.150792 -1.46325 0
M  V30 6784 H 627.715 2.80601 -3.08738 0
M  V30 6785 H 626.345 2.55384 -1.97431 0
M  V30 6786 H 625.397 0.862374 -3.70496 0
M  V30 6787 H 626.709 1.34338 -4.80369 0
M  V30 6788 H 625.863 3.69909 -4.80887 0
M  V30 6789 H 624.602 3.26933 -3.61892 0
M  V30 6790 H 623.607 1.63889 -5.24805 0
M  V30 6791 H 624.832 2.0955 -6.45961 0
M  V30 6792 H 622.778 3.9684 -5.22354 0
M  V30 6793 H 622.695 3.27942 -6.81168 0
M  V30 6794 H 623.963 4.40583 -6.43045 0
M  V30 6795 N 628.193 1.56834 0.155195 0
M  V30 6796 C 629.439 1.83169 0.870467 0
M  V30 6797 C 629.772 0.698929 1.81187 0
M  V30 6798 O 629.047 -0.298035 1.92203 0
M  V30 6799 C 629.33 3.19965 1.65211 0
M  V30 6800 C 629.183 4.43792 0.732744 0
M  V30 6801 C 630.502 3.53885 2.61636 0
M  V30 6802 H 627.621 0.666288 0.315006 0
M  V30 6803 H 630.263 1.89513 0.135988 0
M  V30 6804 H 628.413 3.14687 2.27825 0
M  V30 6805 H 630.085 4.61148 0.118236 0
M  V30 6806 H 628.328 4.3378 0.0417906 0
M  V30 6807 H 628.999 5.36095 1.31552 0
M  V30 6808 H 631.475 3.5972 2.09143 0
M  V30 6809 H 630.351 4.50648 3.13381 0
M  V30 6810 H 630.612 2.79418 3.42605 0
M  V30 6811 N 629.671 -0.424282 1.51781 0
M  V30 6812 C 630.917 -1.17117 1.66298 0
M  V30 6813 C 631.272 -1.88595 0.380767 0
M  V30 6814 O 630.565 -1.81151 -0.624094 0
M  V30 6815 C 630.759 -2.20418 2.81337 0
M  V30 6816 C 630.588 -1.59081 4.20622 0
M  V30 6817 C 629.358 -1.37007 4.86371 0
M  V30 6818 C 631.556 -1.05992 5.0326 0
M  V30 6819 N 629.538 -0.714049 6.09733 0
M  V30 6820 C 630.909 -0.529933 6.17731 0
M  V30 6821 C 632.964 -0.952927 4.88696 0
M  V30 6822 C 631.667 0.0965457 7.19235 0
M  V30 6823 C 633.693 -0.340325 5.9042 0
M  V30 6824 C 633.055 0.179057 7.04172 0
M  V30 6825 H 629.154 -0.41577 0.662314 0
M  V30 6826 H 631.738 -0.46579 1.89046 0
M  V30 6827 H 629.909 -2.8833 2.60231 0
M  V30 6828 H 631.641 -2.8736 2.84968 0
M  V30 6829 H 628.396 -1.63543 4.44467 0
M  V30 6830 H 628.82 -0.403101 6.75799 0
M  V30 6831 H 633.462 -1.34033 4.00993 0
M  V30 6832 H 631.18 0.496044 8.06576 0
M  V30 6833 H 634.766 -0.259266 5.81222 0
M  V30 6834 H 633.646 0.645626 7.81538 0
M  V30 6835 N 631.149 -1.42148 -0.680565 0
M  V30 6836 C 632.112 -1.4488 -1.77602 0
M  V30 6837 C 633.112 -0.337209 -1.57224 0
M  V30 6838 O 634.302 -0.597778 -1.63622 0
M  V30 6839 C 631.434 -1.27483 -3.16166 0
M  V30 6840 H 632.627 -2.42412 -1.76568 0
M  V30 6841 H 630.18 -1.28511 -0.889645 0
M  V30 6842 H 630.915 -0.30851 -3.22829 0
M  V30 6843 H 630.7 -2.08037 -3.3236 0
M  V30 6844 H 632.19 -1.32265 -3.96101 0
M  V30 6845 N 632.627 0.916307 -1.28225 0
M  V30 6846 C 633.537 2.05165 -1.13775 0
M  V30 6847 C 634.553 1.73879 -0.0649418 0
M  V30 6848 O 635.729 1.99531 -0.273722 0
M  V30 6849 C 632.794 3.37385 -0.798267 0
M  V30 6850 C 631.855 3.82296 -1.95316 0
M  V30 6851 C 631.088 5.08206 -1.62978 0
M  V30 6852 O 631.311 5.6781 -0.542948 0
M  V30 6853 O 630.245 5.48768 -2.47261 0
M  V30 6854 H 634.071 2.20273 -2.09078 0
M  V30 6855 H 631.656 1.0373 -1.07519 0
M  V30 6856 H 633.538 4.16773 -0.62278 0
M  V30 6857 H 632.213 3.23458 0.125139 0
M  V30 6858 H 631.12 3.03746 -2.18378 0
M  V30 6859 H 632.453 4.00782 -2.85718 0
M  V30 6860 N 634.105 1.10431 1.1244 0
M  V30 6861 C 635.068 0.756542 2.16354 0
M  V30 6862 C 636.068 -0.21899 1.59302 0
M  V30 6863 O 637.258 0.00415969 1.742 0
M  V30 6864 C 634.39 0.120612 3.40687 0
M  V30 6865 H 635.583 1.67696 2.48632 0
M  V30 6866 H 633.136 0.904832 1.27446 0
M  V30 6867 H 633.871 -0.810536 3.14008 0
M  V30 6868 H 633.656 0.822693 3.83372 0
M  V30 6869 H 635.146 -0.106945 4.17463 0
M  V30 6870 N 635.583 -1.29855 0.893053 0
M  V30 6871 C 636.829 -1.96116 0.516349 0
M  V30 6872 C 637.162 -1.70281 -0.933695 0
M  V30 6873 O 636.437 -1.01205 -1.66096 0
M  V30 6874 C 636.72 -3.51068 0.801455 0
M  V30 6875 C 636.573 -3.86387 2.30272 0
M  V30 6876 C 637.892 -4.39186 0.283423 0
M  V30 6877 H 635.011 -0.712335 0.189072 0
M  V30 6878 H 637.653 -1.53587 1.11852 0
M  V30 6879 H 635.803 -3.87424 0.288949 0
M  V30 6880 H 637.475 -3.60012 2.88425 0
M  V30 6881 H 635.718 -3.34167 2.76613 0
M  V30 6882 H 636.389 -4.94512 2.45279 0
M  V30 6883 H 638.865 -4.09785 0.722187 0
M  V30 6884 H 637.741 -5.46505 0.512169 0
M  V30 6885 H 638.002 -4.34511 -0.815643 0
M  V30 6886 N 637.061 -0.65484 -1.43351 0
M  V30 6887 C 638.011 0.0581325 -2.27926 0
M  V30 6888 C 638.995 0.793188 -1.3999 0
M  V30 6889 O 640.187 0.675387 -1.63608 0
M  V30 6890 C 637.316 1.02272 -3.27712 0
M  V30 6891 C 636.402 0.286048 -4.23134 0
M  V30 6892 N 636.793 -0.698298 -5.00957 0
M  V30 6893 C 635.091 0.527272 -4.42872 0
M  V30 6894 C 635.792 -1.1357 -5.70506 0
M  V30 6895 N 634.768 -0.469631 -5.41568 0
M  V30 6896 H 638.57 -0.697182 -2.85511 0
M  V30 6897 H 636.084 -0.482252 -1.55074 0
M  V30 6898 H 638.081 1.5483 -3.87083 0
M  V30 6899 H 636.741 1.77807 -2.71688 0
M  V30 6900 H 637.752 -1.07708 -5.06576 0
M  V30 6901 H 634.429 1.26367 -3.97916 0
M  V30 6902 H 635.819 -1.95027 -6.42973 0
M  V30 6903 N 638.539 1.52521 -0.396863 0
M  V30 6904 C 639.769 2.05792 0.182485 0
M  V30 6905 C 640.177 1.26784 1.40436 0
M  V30 6906 O 639.52 0.309617 1.81072 0
M  V30 6907 C 639.582 3.54291 0.609781 0
M  V30 6908 C 639.246 4.5426 -0.499674 0
M  V30 6909 C 640.243 5.01812 -1.35944 0
M  V30 6910 C 637.928 4.97827 -0.668864 0
M  V30 6911 C 639.922 5.91562 -2.37346 0
M  V30 6912 C 637.609 5.87376 -1.68621 0
M  V30 6913 C 638.607 6.34137 -2.53692 0
M  V30 6914 O 638.295 7.21915 -3.53686 0
M  V30 6915 H 638.027 0.675362 0.0293583 0
M  V30 6916 H 640.581 1.97539 -0.56281 0
M  V30 6917 H 638.811 3.60188 1.40717 0
M  V30 6918 H 640.5 3.90267 1.11565 0
M  V30 6919 H 641.266 4.68879 -1.24008 0
M  V30 6920 H 637.145 4.60997 -0.0163971 0
M  V30 6921 H 640.689 6.27983 -3.03782 0
M  V30 6922 H 636.586 6.19723 -1.80593 0
M  V30 6923 H 637.354 7.39996 -3.49784 0
M  V30 6924 N 640.017 0.126909 1.57088 0
M  V30 6925 C 641.263 -0.529952 1.95753 0
M  V30 6926 C 641.596 -1.65823 1.01077 0
M  V30 6927 O 640.871 -1.94437 0.0494162 0
M  V30 6928 C 641.154 -1.05517 3.44294 0
M  V30 6929 C 641.007 0.0702253 4.49745 0
M  V30 6930 C 642.326 -1.9435 3.94862 0
M  V30 6931 H 639.445 -0.191168 0.711775 0
M  V30 6932 H 642.087 0.204071 1.88901 0
M  V30 6933 H 640.237 -1.68069 3.50264 0
M  V30 6934 H 641.909 0.705834 4.55868 0
M  V30 6935 H 640.152 0.732259 4.27575 0
M  V30 6936 H 640.823 -0.338642 5.5096 0
M  V30 6937 H 643.299 -1.41658 3.91244 0
M  V30 6938 H 642.175 -2.28015 4.993 0
M  V30 6939 H 642.436 -2.87299 3.36024 0
M  V30 6940 N 641.495 -1.56914 -0.146875 0
M  V30 6941 C 642.72 -1.87881 -0.878386 0
M  V30 6942 C 643.145 -0.715945 -1.73942 0
M  V30 6943 O 642.503 0.334447 -1.78189 0
M  V30 6944 C 642.551 -3.17431 -1.71084 0
M  V30 6945 O 641.655 -3.01374 -2.81509 0
M  V30 6946 H 640.996 -0.617289 -0.244644 0
M  V30 6947 H 643.526 -2.04136 -0.137654 0
M  V30 6948 H 643.536 -3.49455 -2.10582 0
M  V30 6949 H 642.211 -4.01671 -1.07856 0
M  V30 6950 H 640.788 -2.80758 -2.45416 0
M  V30 6951 N 642.974 0.416227 -1.52004 0
M  V30 6952 C 644.222 1.16153 -1.65387 0
M  V30 6953 C 644.543 1.91208 -0.382669 0
M  V30 6954 O 643.813 1.86413 0.602231 0
M  V30 6955 H 642.393 0.431765 -0.60958 0
M  V30 6956 H 645.055 0.475151 -1.89019 0
M  V30 6957 H 644.151 1.87952 -2.4916 0
M  V30 6958 N 644.452 1.42507 0.673017 0
M  V30 6959 C 645.382 1.48916 1.79851 0
M  V30 6960 C 646.363 0.345566 1.66553 0
M  V30 6961 O 647.548 0.560116 1.85947 0
M  V30 6962 C 644.678 1.39258 3.18158 0
M  V30 6963 C 643.632 2.51662 3.46194 0
M  V30 6964 C 642.958 2.27062 4.84094 0
M  V30 6965 C 644.258 3.93968 3.42909 0
M  V30 6966 H 645.952 2.43114 1.74745 0
M  V30 6967 H 643.498 1.17013 0.839288 0
M  V30 6968 H 645.451 1.42349 3.96629 0
M  V30 6969 H 644.175 0.415542 3.23946 0
M  V30 6970 H 642.834 2.47891 2.70084 0
M  V30 6971 H 642.482 1.27648 4.86534 0
M  V30 6972 H 642.182 3.02398 5.03815 0
M  V30 6973 H 643.706 2.31905 5.64847 0
M  V30 6974 H 645.12 3.99332 4.11347 0
M  V30 6975 H 643.517 4.6917 3.74165 0
M  V30 6976 H 644.587 4.20512 2.41449 0
M  V30 6977 N 645.93 -0.909495 1.28709 0
M  V30 6978 C 646.877 -2.01245 1.13 0
M  V30 6979 C 647.847 -1.6608 0.0259684 0
M  V30 6980 O 649.032 -1.89835 0.191687 0
M  V30 6981 C 646.172 -3.35644 0.802315 0
M  V30 6982 C 645.285 -3.83653 1.98582 0
M  V30 6983 C 644.42 -5.06582 1.59837 0
M  V30 6984 C 643.459 -5.46934 2.74827 0
M  V30 6985 N 642.596 -6.61053 2.36546 0
M  V30 6986 H 647.436 -2.14013 2.0737 0
M  V30 6987 H 644.973 -1.0482 1.03205 0
M  V30 6988 H 646.931 -4.12963 0.593057 0
M  V30 6989 H 645.561 -3.22631 -0.104457 0
M  V30 6990 H 644.613 -3.02454 2.30708 0
M  V30 6991 H 645.925 -4.09515 2.84779 0
M  V30 6992 H 645.079 -5.91457 1.35143 0
M  V30 6993 H 643.818 -4.82537 0.707753 0
M  V30 6994 H 642.823 -4.60599 3.00215 0
M  V30 6995 H 644.048 -5.72965 3.64538 0
M  V30 6996 H 641.994 -6.3863 1.49959 0
M  V30 6997 H 641.911 -6.86662 3.16277 0
M  V30 6998 H 643.179 -7.49221 2.15146 0
M  V30 6999 N 647.408 -1.11026 -1.11852 0
M  V30 7000 C 648.318 -0.777252 -2.2135 0
M  V30 7001 C 649.334 0.227821 -1.72502 0
M  V30 7002 O 650.51 0.0650587 -2.01295 0
M  V30 7003 C 647.575 -0.220668 -3.45997 0
M  V30 7004 C 646.636 -1.2838 -4.09655 0
M  V30 7005 C 645.869 -0.753678 -5.28352 0
M  V30 7006 O 646.092 0.417779 -5.68868 0
M  V30 7007 O 645.026 -1.51647 -5.82483 0
M  V30 7008 H 648.852 -1.69141 -2.5224 0
M  V30 7009 H 646.437 -0.885836 -1.20305 0
M  V30 7010 H 648.319 0.0855756 -4.21313 0
M  V30 7011 H 646.994 0.666262 -3.16769 0
M  V30 7012 H 645.901 -1.64299 -3.3609 0
M  V30 7013 H 647.234 -2.14396 -4.43052 0
M  V30 7014 N 648.886 1.2938 -0.899927 0
M  V30 7015 C 650.163 1.9046 -0.445443 0
M  V30 7016 C 650.543 1.81683 1.07492 0
M  V30 7017 O 649.891 1.24371 1.91688 0
M  V30 7018 C 650.101 3.35529 -0.960279 0
M  V30 7019 C 651.449 4.12556 -1.00412 0
M  V30 7020 O 652.473 3.44434 -0.907965 0
M  V30 7021 O 651.332 5.34294 -1.14857 0
M  V30 7022 H 648.426 0.815253 -0.138893 0
M  V30 7023 H 650.972 1.37844 -0.989808 0
M  V30 7024 H 649.744 3.36074 -2.00425 0
M  V30 7025 H 649.367 3.95624 -0.395939 0
M  V30 7026 N 650.364 0.662433 1.43002 0
M  V30 7027 C 651.594 0.187343 2.05749 0
M  V30 7028 C 652.002 -1.15582 1.49791 0
M  V30 7029 O 651.345 -1.72651 0.627487 0
M  V30 7030 C 651.407 0.0316493 3.59486 0
M  V30 7031 C 651.071 1.30156 4.38073 0
M  V30 7032 C 652.068 2.23234 4.69535 0
M  V30 7033 C 649.753 1.54572 4.77926 0
M  V30 7034 C 651.747 3.39012 5.39768 0
M  V30 7035 C 649.434 2.70641 5.47902 0
M  V30 7036 C 650.432 3.62687 5.78746 0
M  V30 7037 O 650.12 4.76728 6.47291 0
M  V30 7038 H 649.852 0.0915214 0.669776 0
M  V30 7039 H 652.406 0.905982 1.8434 0
M  V30 7040 H 650.636 -0.742451 3.79506 0
M  V30 7041 H 652.325 -0.401977 4.03905 0
M  V30 7042 H 653.091 2.05616 4.39257 0
M  V30 7043 H 648.97 0.83804 4.53319 0
M  V30 7044 H 652.514 4.10877 5.63761 0
M  V30 7045 H 648.411 2.88189 5.77596 0
M  V30 7046 H 649.179 4.76113 6.65777 0
M  V30 7047 N 651.842 -1.52309 0.404946 0
M  V30 7048 C 653.067 -2.06666 -0.1743 0
M  V30 7049 C 653.492 -1.27341 -1.38441 0
M  V30 7050 O 652.85 -0.302539 -1.78758 0
M  V30 7051 C 652.898 -3.57014 -0.507262 0
M  V30 7052 O 652.002 -3.80144 -1.59889 0
M  V30 7053 H 651.343 -0.663807 -0.0160273 0
M  V30 7054 H 653.873 -1.96297 0.576937 0
M  V30 7055 H 653.883 -4.00724 -0.767098 0
M  V30 7056 H 652.558 -4.14184 0.377368 0
M  V30 7057 H 651.135 -3.48316 -1.33155 0
M  V30 7058 N 653.32 -0.135238 -1.57019 0
M  V30 7059 C 654.736 0.221262 -1.58059 0
M  V30 7060 C 654.936 1.65538 -1.14889 0
M  V30 7061 O 653.992 2.37985 -0.843751 0
M  V30 7062 C 655.305 -0.0268114 -3.00688 0
M  V30 7063 C 656.853 0.0378206 -3.12977 0
M  V30 7064 C 657.328 -0.182769 -4.57635 0
M  V30 7065 N 658.819 -0.129292 -4.6302 0
M  V30 7066 C 659.554 -0.274648 -5.72742 0
M  V30 7067 N 659.05 -0.477075 -6.91155 0
M  V30 7068 N 660.843 -0.213077 -5.61696 0
M  V30 7069 H 652.994 -1.07177 -1.83376 0
M  V30 7070 H 655.257 -0.423338 -0.848227 0
M  V30 7071 H 654.963 -1.01889 -3.36618 0
M  V30 7072 H 654.837 0.697863 -3.70688 0
M  V30 7073 H 657.224 1.02043 -2.76896 0
M  V30 7074 H 657.305 -0.718996 -2.45487 0
M  V30 7075 H 656.949 -1.16243 -4.94419 0
M  V30 7076 H 656.879 0.59423 -5.23237 0
M  V30 7077 H 659.37 0.0229896 -3.77893 0
M  V30 7078 H 659.683 -0.578413 -7.70632 0
M  V30 7079 H 658.028 -0.513252 -6.93102 0
M  V30 7080 H 661.219 -0.0557796 -4.68067 0
M  V30 7081 H 661.392 -0.329796 -6.4716 0
M  V30 7082 N 654.798 1.5699 0.138552 0
M  V30 7083 C 655.728 2.01933 1.17241 0
M  V30 7084 C 656.709 0.90033 1.44319 0
M  V30 7085 O 657.894 1.16872 1.55095 0
M  V30 7086 C 655.024 2.40711 2.50351 0
M  V30 7087 C 653.978 3.55874 2.37776 0
M  V30 7088 C 653.304 3.80491 3.75674 0
M  V30 7089 C 654.604 4.8826 1.85472 0
M  V30 7090 H 656.298 2.88551 0.798672 0
M  V30 7091 H 653.844 1.3882 0.382743 0
M  V30 7092 H 655.797 2.70754 3.22909 0
M  V30 7093 H 654.521 1.5104 2.89576 0
M  V30 7094 H 653.18 3.2601 1.67669 0
M  V30 7095 H 652.828 2.88057 4.12349 0
M  V30 7096 H 652.528 4.57998 3.68119 0
M  V30 7097 H 654.052 4.12967 4.49767 0
M  V30 7098 H 655.466 5.16965 2.4783 0
M  V30 7099 H 653.863 5.69631 1.88787 0
M  V30 7100 H 654.933 4.78071 0.810935 0
M  V30 7101 N 656.276 -0.40816 1.52223 0
M  V30 7102 C 657.523 -1.15502 1.66329 0
M  V30 7103 C 657.851 -1.90474 0.393701 0
M  V30 7104 O 657.106 -1.85507 -0.623356 0
M  V30 7105 C 657.405 -2.17422 2.83659 0
M  V30 7106 C 657.071 -1.5925 4.21841 0
M  V30 7107 C 655.733 -1.4311 4.59427 0
M  V30 7108 C 658.085 -1.16776 5.0795 0
M  V30 7109 C 655.413 -0.830148 5.80797 0
M  V30 7110 C 657.765 -0.580988 6.29926 0
M  V30 7111 C 656.429 -0.406729 6.6626 0
M  V30 7112 H 655.699 -0.422653 0.608642 0
M  V30 7113 H 658.346 -0.442114 1.86327 0
M  V30 7114 H 656.651 -2.94861 2.58001 0
M  V30 7115 H 658.348 -2.75084 2.9177 0
M  V30 7116 H 654.938 -1.72796 3.92224 0
M  V30 7117 H 659.122 -1.28055 4.79495 0
M  V30 7118 H 654.378 -0.68316 6.07571 0
M  V30 7119 H 658.552 -0.243488 6.95974 0
M  V30 7120 H 656.179 0.0610366 7.60175 0
M  V30 7121 N 657.755 -1.42862 -0.66545 0
M  V30 7122 C 658.687 -1.43026 -1.79098 0
M  V30 7123 C 659.7 -0.32803 -1.59461 0
M  V30 7124 O 660.889 -0.591709 -1.68407 0
M  V30 7125 C 657.989 -1.21566 -3.16346 0
M  V30 7126 C 657.162 -2.44399 -3.62751 0
M  V30 7127 C 656.221 -2.18344 -4.78761 0
M  V30 7128 O 655.247 -2.91611 -4.88827 0
M  V30 7129 N 656.449 -1.1924 -5.68122 0
M  V30 7130 H 659.214 -2.40045 -1.79439 0
M  V30 7131 H 656.775 -1.37861 -0.848872 0
M  V30 7132 H 658.767 -1.02037 -3.91625 0
M  V30 7133 H 657.337 -0.330368 -3.10849 0
M  V30 7134 H 656.557 -2.79433 -2.78048 0
M  V30 7135 H 657.845 -3.26173 -3.90498 0
M  V30 7136 H 657.243 -0.586603 -5.6265 0
M  V30 7137 H 655.8 -1.05698 -6.43173 0
M  V30 7138 N 659.233 0.902656 -1.29189 0
M  V30 7139 C 660.481 1.6496 -1.16758 0
M  V30 7140 C 660.802 1.92952 0.28188 0
M  V30 7141 O 660.072 1.55351 1.19344 0
M  V30 7142 H 658.652 0.611447 -0.429118 0
M  V30 7143 H 661.314 1.0825 -1.62074 0
M  V30 7144 H 660.41 2.60728 -1.71544 0
M  V30 7145 N 660.711 1.11618 1.11262 0
M  V30 7146 C 661.643 0.734015 2.17129 0
M  V30 7147 C 662.656 -0.235243 1.61091 0
M  V30 7148 O 663.845 -0.0178597 1.78491 0
M  V30 7149 C 660.945 0.0643682 3.38839 0
M  V30 7150 C 660.118 1.06092 4.24339 0
M  V30 7151 C 659.177 0.420482 5.24517 0
M  V30 7152 O 658.203 1.07495 5.58957 0
M  V30 7153 N 659.405 -0.815828 5.74739 0
M  V30 7154 H 662.17 1.64492 2.50524 0
M  V30 7155 H 659.731 1.00664 1.26801 0
M  V30 7156 H 661.723 -0.375851 4.02951 0
M  V30 7157 H 660.293 -0.749147 3.03491 0
M  V30 7158 H 659.513 1.67903 3.56654 0
M  V30 7159 H 660.801 1.73507 4.78302 0
M  V30 7160 H 660.199 -1.36668 5.48943 0
M  V30 7161 H 658.756 -1.199 6.40677 0
M  V30 7162 N 662.189 -1.289 0.906776 0
M  V30 7163 C 663.605 -1.47733 0.603902 0
M  V30 7164 C 663.805 -1.82568 -0.852702 0
M  V30 7165 O 662.861 -1.92642 -1.63234 0
M  V30 7166 C 664.174 -2.58522 1.53581 0
M  V30 7167 C 665.722 -2.72394 1.54177 0
M  V30 7168 C 666.197 -3.86318 2.46013 0
M  V30 7169 N 667.688 -3.93661 2.441 0
M  V30 7170 C 668.423 -4.81177 3.11859 0
M  V30 7171 N 667.919 -5.73333 3.88923 0
M  V30 7172 N 669.712 -4.74728 3.00981 0
M  V30 7173 H 661.863 -1.04567 1.84877 0
M  V30 7174 H 664.126 -0.520118 0.792579 0
M  V30 7175 H 663.832 -2.39667 2.57396 0
M  V30 7176 H 663.706 -3.55475 1.26165 0
M  V30 7177 H 666.093 -2.90641 0.511034 0
M  V30 7178 H 666.174 -1.75993 1.85634 0
M  V30 7179 H 665.818 -3.68826 3.49185 0
M  V30 7180 H 665.748 -4.82102 2.11862 0
M  V30 7181 H 668.239 -3.27751 1.88115 0
M  V30 7182 H 668.552 -6.36923 4.37663 0
M  V30 7183 H 666.897 -5.73196 3.93029 0
M  V30 7184 H 670.088 -4.01722 2.40286 0
M  V30 7185 H 670.261 -5.42719 3.54062 0
M  V30 7186 N 663.667 -0.670007 -1.42649 0
M  V30 7187 C 664.63 0.00204659 -2.292 0
M  V30 7188 C 665.63 0.733817 -1.4308 0
M  V30 7189 O 666.82 0.57254 -1.64522 0
M  V30 7190 C 663.952 1.01359 -3.25483 0
M  V30 7191 H 665.145 -0.759696 -2.90118 0
M  V30 7192 H 662.698 -0.432105 -1.50208 0
M  V30 7193 H 663.433 1.80399 -2.69493 0
M  V30 7194 H 663.218 0.492323 -3.88997 0
M  V30 7195 H 664.708 1.4824 -3.90403 0
M  V30 7196 N 665.145 1.52092 -0.413018 0
M  V30 7197 C 666.108 2.25706 0.398687 0
M  V30 7198 C 667.108 1.28221 0.970368 0
M  V30 7199 O 668.298 1.52131 0.848635 0
M  V30 7200 C 665.43 3.03029 1.5616 0
M  V30 7201 H 666.623 2.98888 -0.246131 0
M  V30 7202 H 664.176 1.5542 -0.165622 0
M  V30 7203 H 664.911 2.34205 2.24317 0
M  V30 7204 H 664.696 3.74606 1.15812 0
M  V30 7205 H 666.186 3.58857 2.13569 0
M  V30 7206 N 666.623 0.143563 1.56945 0
M  V30 7207 C 667.556 -0.835367 2.1236 0
M  V30 7208 C 668.534 -1.24466 1.04627 0
M  V30 7209 O 669.718 -1.34138 1.32436 0
M  V30 7210 C 666.845 -2.12123 2.64048 0
M  V30 7211 C 665.891 -1.85812 3.83896 0
M  V30 7212 S 666.724 -1.05222 5.25061 0
M  V30 7213 C 667.88 -2.34935 5.80135 0
M  V30 7214 H 668.113 -0.364109 2.95062 0
M  V30 7215 H 665.646 -0.0706601 1.54238 0
M  V30 7216 H 667.604 -2.85993 2.94479 0
M  V30 7217 H 666.265 -2.56364 1.81483 0
M  V30 7218 H 665.458 -2.81151 4.18294 0
M  V30 7219 H 665.06 -1.20052 3.54208 0
M  V30 7220 H 667.352 -3.3061 5.91357 0
M  V30 7221 H 668.295 -2.05046 6.77762 0
M  V30 7222 H 668.703 -2.45426 5.08356 0
M  V30 7223 N 668.101 -1.57061 -0.130224 0
M  V30 7224 C 669.031 -2.02552 -1.16168 0
M  V30 7225 C 670.012 -0.907971 -1.4384 0
M  V30 7226 O 671.197 -1.17693 -1.54473 0
M  V30 7227 C 668.327 -2.42035 -2.49071 0
M  V30 7228 C 667.281 -3.5713 -2.35886 0
M  V30 7229 C 666.607 -3.82478 -3.7365 0
M  V30 7230 C 667.907 -4.89236 -1.8288 0
M  V30 7231 H 669.601 -2.8897 -0.783359 0
M  V30 7232 H 667.147 -1.39021 -0.375376 0
M  V30 7233 H 669.1 -2.72462 -3.21469 0
M  V30 7234 H 667.824 -1.52573 -2.88771 0
M  V30 7235 H 666.483 -3.26895 -1.65938 0
M  V30 7236 H 666.131 -2.9024 -4.10816 0
M  V30 7237 H 665.831 -4.59944 -3.65685 0
M  V30 7238 H 667.355 -4.15347 -4.47571 0
M  V30 7239 H 668.769 -5.18272 -2.45085 0
M  V30 7240 H 667.166 -5.70624 -1.85763 0
M  V30 7241 H 668.236 -4.78494 -0.785571 0
M  V30 7242 N 669.579 0.400081 -1.52437 0
M  V30 7243 C 670.804 1.17221 -1.71096 0
M  V30 7244 C 671.229 1.83269 -0.423565 0
M  V30 7245 O 670.587 1.70378 0.619751 0
M  V30 7246 C 670.635 2.20425 -2.85386 0
M  V30 7247 O 669.739 3.26769 -2.51586 0
M  V30 7248 H 669.08 0.341766 -0.569291 0
M  V30 7249 H 671.61 0.467772 -1.99181 0
M  V30 7250 H 671.62 2.64605 -3.10561 0
M  V30 7251 H 670.295 1.71737 -3.78786 0
M  V30 7252 H 668.872 2.87804 -2.37114 0
M  V30 7253 N 671.057 1.43213 0.657864 0
M  V30 7254 C 671.987 1.50815 1.78262 0
M  V30 7255 C 672.968 0.363211 1.66177 0
M  V30 7256 O 674.153 0.579806 1.85343 0
M  V30 7257 C 671.283 1.42625 3.16663 0
M  V30 7258 C 670.237 2.5532 3.43505 0
M  V30 7259 C 669.563 2.32184 4.81658 0
M  V30 7260 C 670.863 3.97583 3.38711 0
M  V30 7261 H 672.557 2.44954 1.72157 0
M  V30 7262 H 670.103 1.17896 0.82683 0
M  V30 7263 H 672.056 1.46548 3.95097 0
M  V30 7264 H 670.78 0.449877 3.23487 0
M  V30 7265 H 669.439 2.50742 2.6744 0
M  V30 7266 H 669.087 1.32801 4.85153 0
M  V30 7267 H 668.787 3.07724 5.00579 0
M  V30 7268 H 670.311 2.37883 5.62356 0
M  V30 7269 H 671.725 4.03673 4.07089 0
M  V30 7270 H 670.122 4.73112 3.69168 0
M  V30 7271 H 671.192 4.23049 2.36976 0
M  V30 7272 N 672.536 -0.895792 1.29666 0
M  V30 7273 C 673.466 -2.01673 1.17688 0
M  V30 7274 C 674.447 -1.69955 0.0701317 0
M  V30 7275 O 675.632 -1.9258 0.250289 0
M  V30 7276 C 672.762 -3.36568 0.856681 0
M  V30 7277 C 671.716 -3.82509 1.92017 0
M  V30 7278 C 671.042 -5.14574 1.4532 0
M  V30 7279 C 672.342 -4.02409 3.32963 0
M  V30 7280 H 674.036 -2.11953 2.11463 0
M  V30 7281 H 671.582 -1.01839 1.01807 0
M  V30 7282 H 673.535 -4.14498 0.759577 0
M  V30 7283 H 672.259 -3.26391 -0.116763 0
M  V30 7284 H 670.918 -3.068 2.00673 0
M  V30 7285 H 670.566 -5.00815 0.468325 0
M  V30 7286 H 670.266 -5.46283 2.16447 0
M  V30 7287 H 671.79 -5.9504 1.36968 0
M  V30 7288 H 673.204 -4.70808 3.27127 0
M  V30 7289 H 671.601 -4.45478 4.02082 0
M  V30 7290 H 672.671 -3.06616 3.75652 0
M  V30 7291 N 674.014 -1.12206 -1.10668 0
M  V30 7292 C 675.43 -0.857619 -1.346 0
M  V30 7293 C 675.63 0.513542 -1.94846 0
M  V30 7294 O 674.686 1.26273 -2.18658 0
M  V30 7295 C 675.999 -1.97212 -2.26998 0
M  V30 7296 C 677.547 -2.00272 -2.40542 0
M  V30 7297 C 678.022 -3.10948 -3.36267 0
M  V30 7298 N 679.513 -3.10375 -3.43834 0
M  V30 7299 C 680.248 -3.92651 -4.17867 0
M  V30 7300 N 679.744 -4.84911 -4.94807 0
M  V30 7301 N 681.537 -3.80798 -4.1346 0
M  V30 7302 H 673.688 -2.00558 -0.699306 0
M  V30 7303 H 675.951 -0.872612 -0.370477 0
M  V30 7304 H 675.657 -2.96002 -1.89936 0
M  V30 7305 H 675.531 -1.87521 -3.27286 0
M  V30 7306 H 677.918 -1.02103 -2.76874 0
M  V30 7307 H 677.999 -2.14037 -1.40077 0
M  V30 7308 H 677.643 -4.09348 -3.00661 0
M  V30 7309 H 677.573 -2.94421 -4.36605 0
M  V30 7310 H 680.064 -2.43536 -2.88961 0
M  V30 7311 H 680.377 -5.44207 -5.48688 0
M  V30 7312 H 678.722 -4.88926 -4.93939 0
M  V30 7313 H 681.913 -3.08058 -3.52445 0
M  V30 7314 H 682.086 -4.4515 -4.70898 0
M  V30 7315 N 675.492 1.28418 -0.913599 0
M  V30 7316 C 676.722 1.98817 -0.56172 0
M  V30 7317 C 677.13 1.68457 0.861321 0
M  V30 7318 O 676.473 0.933653 1.58204 0
M  V30 7319 C 676.535 3.52801 -0.690785 0
M  V30 7320 C 676.199 4.0675 -2.08334 0
M  V30 7321 C 677.196 4.20597 -3.05604 0
M  V30 7322 C 674.881 4.41445 -2.39648 0
M  V30 7323 C 676.875 4.68392 -4.32305 0
M  V30 7324 C 674.562 4.88934 -3.66588 0
M  V30 7325 C 675.56 5.02364 -4.6273 0
M  V30 7326 O 675.248 5.48817 -5.87414 0
M  V30 7327 H 674.98 0.641608 -0.212874 0
M  V30 7328 H 677.534 1.64584 -1.22887 0
M  V30 7329 H 675.764 3.86686 0.0334336 0
M  V30 7330 H 677.453 4.04422 -0.346031 0
M  V30 7331 H 678.219 3.94067 -2.8273 0
M  V30 7332 H 674.098 4.30242 -1.65567 0
M  V30 7333 H 677.642 4.7879 -5.07352 0
M  V30 7334 H 673.539 5.14904 -3.89287 0
M  V30 7335 H 674.307 5.67103 -5.90201 0
M  V30 7336 N 676.97 0.677563 1.42291 0
M  V30 7337 C 677.918 -0.0106755 2.32598 0
M  V30 7338 C 678.912 -0.787643 1.49975 0
M  V30 7339 O 680.118 -0.695295 1.66029 0
M  V30 7340 H 676.493 -0.0222482 0.751671 0
M  V30 7341 H 678.464 0.768312 2.88339 0
M  V30 7342 C 677.213 -0.946142 3.3458 0
M  V30 7343 H 676.536 -0.357701 3.98197 0
M  V30 7344 H 677.976 -1.39634 4.00348 0
M  V30 7345 C 676.435 -2.05383 2.67057 0
M  V30 7346 O 676.965 -3.1406 2.50458 0
M  V30 7347 N 675.171 -1.82635 2.26038 0
M  V30 7348 H 674.718 -0.942534 2.39737 0
M  V30 7349 H 674.676 -2.56937 1.81192 0
M  V30 7350 N 678.448 -1.51871 0.421078 0
M  V30 7351 C 679.411 -2.25914 -0.386712 0
M  V30 7352 C 680.411 -1.28733 -0.963555 0
M  V30 7353 O 681.601 -1.52579 -0.840556 0
M  V30 7354 C 678.733 -3.03853 -1.54551 0
M  V30 7355 H 679.926 -2.98754 0.261978 0
M  V30 7356 H 677.479 -1.5533 0.173862 0
M  V30 7357 H 678.214 -2.35392 -2.23072 0
M  V30 7358 H 677.999 -3.75215 -1.13824 0
M  V30 7359 H 679.489 -3.59984 -2.11663 0
M  V30 7360 N 679.926 -0.151884 -1.56866 0
M  V30 7361 C 680.874 0.80299 -2.183 0
M  V30 7362 C 681.868 1.25174 -1.14139 0
M  V30 7363 O 683.074 1.21966 -1.3238 0
M  V30 7364 H 679.449 0.277169 -0.699057 0
M  V30 7365 H 681.42 0.260699 -2.97259 0
M  V30 7366 C 680.169 2.03009 -2.82281 0
M  V30 7367 H 679.492 1.69377 -3.62148 0
M  V30 7368 H 680.932 2.67753 -3.28762 0
M  V30 7369 C 679.391 2.84123 -1.81041 0
M  V30 7370 O 679.921 3.8063 -1.28388 0
M  V30 7371 N 678.127 2.48753 -1.50234 0
M  V30 7372 H 677.674 1.70337 -1.93244 0
M  V30 7373 H 677.632 3.03316 -0.827445 0
M  V30 7374 N 681.404 1.57128 0.121893 0
M  V30 7375 C 682.334 2.03165 1.15092 0
M  V30 7376 C 683.315 0.915587 1.43356 0
M  V30 7377 O 684.5 1.1851 1.53847 0
M  V30 7378 C 681.63 2.43352 2.47784 0
M  V30 7379 C 680.584 3.58376 2.33989 0
M  V30 7380 C 679.91 3.84454 3.71617 0
M  V30 7381 C 681.21 4.90199 1.80283 0
M  V30 7382 H 682.904 2.89382 0.768023 0
M  V30 7383 H 680.45 1.39218 0.367998 0
M  V30 7384 H 682.403 2.74163 3.20019 0
M  V30 7385 H 681.127 1.54103 2.87958 0
M  V30 7386 H 679.786 3.2777 1.64202 0
M  V30 7387 H 679.434 2.92414 4.09271 0
M  V30 7388 H 679.134 4.61877 3.6324 0
M  V30 7389 H 680.658 4.17714 4.45362 0
M  V30 7390 H 682.072 5.19565 2.42333 0
M  V30 7391 H 680.469 5.71601 1.82735 0
M  V30 7392 H 681.539 4.78904 0.760184 0
M  V30 7393 N 682.882 -0.391992 1.52647 0
M  V30 7394 C 684.11 -1.1586 1.71418 0
M  V30 7395 C 684.525 -1.8381 0.431216 0
M  V30 7396 O 683.882 -1.7256 -0.594085 0
M  V30 7397 C 683.933 -2.20888 2.86165 0
M  V30 7398 O 683.654 -1.5571 4.09495 0
M  V30 7399 C 685.155 -3.103 3.1659 0
M  V30 7400 H 682.375 -0.347494 0.574011 0
M  V30 7401 H 684.919 -0.458972 1.99283 0
M  V30 7402 H 683.074 -2.86492 2.6077 0
M  V30 7403 H 683.488 -2.25474 4.73563 0
M  V30 7404 H 684.962 -3.8003 4.00351 0
M  V30 7405 H 685.439 -3.73639 2.30848 0
M  V30 7406 H 686.045 -2.50345 3.43813 0
M  V30 7407 N 684.36 -1.4356 -0.65026 0
M  V30 7408 C 685.307 -1.48948 -1.76304 0
M  V30 7409 C 686.277 -0.338919 -1.62605 0
M  V30 7410 O 687.462 -0.54649 -1.82806 0
M  V30 7411 C 684.602 -1.42131 -3.14472 0
M  V30 7412 C 683.715 -2.67415 -3.39284 0
M  V30 7413 C 682.85 -2.52565 -4.67316 0
M  V30 7414 C 681.889 -3.73103 -4.85243 0
M  V30 7415 N 681.026 -3.57046 -6.04535 0
M  V30 7416 H 685.866 -2.44032 -1.71034 0
M  V30 7417 H 683.403 -1.21131 -0.834601 0
M  V30 7418 H 685.361 -1.36172 -3.94351 0
M  V30 7419 H 683.991 -0.506273 -3.18805 0
M  V30 7420 H 683.043 -2.8364 -2.53481 0
M  V30 7421 H 684.355 -3.56943 -3.48415 0
M  V30 7422 H 683.509 -2.44331 -5.55326 0
M  V30 7423 H 682.248 -1.60566 -4.60511 0
M  V30 7424 H 681.253 -3.81743 -3.95667 0
M  V30 7425 H 682.478 -4.66115 -4.93876 0
M  V30 7426 H 680.424 -2.67783 -5.98856 0
M  V30 7427 H 680.341 -4.40178 -6.14638 0
M  V30 7428 H 681.609 -3.52669 -6.95158 0
M  V30 7429 N 685.838 0.888903 -1.30139 0
M  V30 7430 C 686.771 1.99655 -1.10514 0
M  V30 7431 C 687.749 1.62594 -0.0138934 0
M  V30 7432 O 688.933 1.87762 -0.166689 0
M  V30 7433 C 686.06 3.31708 -0.684655 0
M  V30 7434 C 685.106 3.87755 -1.77619 0
M  V30 7435 S 685.939 4.15532 -3.37777 0
M  V30 7436 C 687.095 5.5061 -2.97622 0
M  V30 7437 H 687.328 2.15996 -2.04287 0
M  V30 7438 H 684.861 1.03682 -1.14409 0
M  V30 7439 H 686.819 4.08039 -0.448782 0
M  V30 7440 H 685.48 3.1323 0.233648 0
M  V30 7441 H 684.673 4.83164 -1.43417 0
M  V30 7442 H 684.275 3.18149 -1.96614 0
M  V30 7443 H 686.567 6.31518 -2.45338 0
M  V30 7444 H 687.51 5.89747 -3.91924 0
M  V30 7445 H 687.918 5.12983 -2.35603 0
M  V30 7446 N 687.317 1.12792 1.10072 0
M  V30 7447 C 688.264 0.79921 2.16521 0
M  V30 7448 C 689.234 -0.235726 1.64419 0
M  V30 7449 O 690.419 -0.109457 1.90486 0
M  V30 7450 C 687.559 0.264091 3.44088 0
M  V30 7451 C 686.672 1.35729 4.10124 0
M  V30 7452 C 685.807 0.781212 5.25424 0
M  V30 7453 C 684.846 1.85327 5.8337 0
M  V30 7454 N 683.983 1.29564 6.90042 0
M  V30 7455 H 688.823 1.71105 2.43981 0
M  V30 7456 H 686.36 0.854225 1.19756 0
M  V30 7457 H 688.318 -0.0642423 4.17151 0
M  V30 7458 H 686.948 -0.610901 3.16967 0
M  V30 7459 H 686 1.80234 3.34993 0
M  V30 7460 H 687.312 2.16782 4.4923 0
M  V30 7461 H 686.466 0.403769 6.05355 0
M  V30 7462 H 685.205 -0.0604686 4.87663 0
M  V30 7463 H 684.21 2.23986 5.02106 0
M  V30 7464 H 685.435 2.69824 6.23195 0
M  V30 7465 H 683.381 0.475844 6.54272 0
M  V30 7466 H 683.298 2.04271 7.2788 0
M  V30 7467 H 684.566 0.945545 7.73744 0
M  V30 7468 N 688.795 -1.27931 0.920396 0
M  V30 7469 C 689.743 -2.29061 0.404191 0
M  V30 7470 C 690.737 -1.61615 -0.507634 0
M  V30 7471 O 691.943 -1.75765 -0.388144 0
M  V30 7472 H 688.318 -0.743594 0.112123 0
M  V30 7473 H 690.289 -2.70021 1.27008 0
M  V30 7474 C 689.038 -3.46088 -0.334466 0
M  V30 7475 H 688.361 -3.98194 0.35797 0
M  V30 7476 H 689.801 -4.18829 -0.660196 0
M  V30 7477 C 688.26 -2.99396 -1.54479 0
M  V30 7478 O 688.79 -3.02439 -2.64374 0
M  V30 7479 N 686.996 -2.54978 -1.39408 0
M  V30 7480 H 686.543 -2.52701 -0.500009 0
M  V30 7481 H 686.501 -2.24098 -2.20516 0
M  V30 7482 N 690.273 -0.685099 -1.4193 0
M  V30 7483 C 691.501 -0.220372 -2.05723 0
M  V30 7484 C 691.916 1.12642 -1.51516 0
M  V30 7485 O 691.273 1.70182 -0.659114 0
M  V30 7486 C 691.324 -0.157974 -3.61155 0
M  V30 7487 O 691.045 -1.45156 -4.13354 0
M  V30 7488 C 692.546 0.329009 -4.42077 0
M  V30 7489 H 689.766 -0.104725 -0.662777 0
M  V30 7490 H 692.31 -0.934736 -1.81887 0
M  V30 7491 H 690.465 0.507144 -3.84066 0
M  V30 7492 H 690.879 -1.33172 -5.07312 0
M  V30 7493 H 692.353 0.321559 -5.51063 0
M  V30 7494 H 692.83 1.36608 -4.17414 0
M  V30 7495 H 693.436 -0.304737 -4.24207 0
M  V30 7496 N 691.751 1.51645 -0.429126 0
M  V30 7497 C 692.681 2.30434 0.377148 0
M  V30 7498 C 693.662 1.35493 1.02838 0
M  V30 7499 O 694.847 1.6441 1.03359 0
M  V30 7500 C 691.977 3.14038 1.48315 0
M  V30 7501 C 690.931 4.1719 0.955855 0
M  V30 7502 C 690.257 4.89263 2.15698 0
M  V30 7503 C 691.557 5.223 -0.00402136 0
M  V30 7504 H 693.251 2.98085 -0.280336 0
M  V30 7505 H 690.797 1.43354 -0.136265 0
M  V30 7506 H 692.75 3.67933 2.05435 0
M  V30 7507 H 691.474 2.44193 2.16881 0
M  V30 7508 H 690.133 3.64335 0.406929 0
M  V30 7509 H 689.781 4.15929 2.82864 0
M  V30 7510 H 689.481 5.59009 1.81059 0
M  V30 7511 H 691.005 5.45978 2.73387 0
M  V30 7512 H 692.419 5.71315 0.476607 0
M  V30 7513 H 690.816 5.99525 -0.26258 0
M  V30 7514 H 691.886 4.75638 -0.943236 0
M  V30 7515 N 693.229 0.160201 1.56784 0
M  V30 7516 C 694.478 -0.487619 1.95717 0
M  V30 7517 C 694.791 -1.65136 1.0483 0
M  V30 7518 O 695.997 -2.36468 1.33398 0
M  V30 7519 C 694.453 -0.91888 3.47972 0
M  V30 7520 C 694.061 0.218655 4.47466 0
M  V30 7521 C 695.805 -1.53575 3.95746 0
M  V30 7522 C 693.712 -0.231614 5.90946 0
M  V30 7523 H 692.642 -0.185939 0.730714 0
M  V30 7524 H 695.293 0.246657 1.81835 0
M  V30 7525 H 693.675 -1.70881 3.57234 0
M  V30 7526 H 694.849 0.995825 4.49911 0
M  V30 7527 H 693.164 0.744767 4.09685 0
M  V30 7528 H 695.761 -1.88448 5.00391 0
M  V30 7529 H 696.104 -2.42959 3.38048 0
M  V30 7530 H 696.637 -0.810467 3.89456 0
M  V30 7531 H 693.376 0.62718 6.52493 0
M  V30 7532 H 692.896 -0.974379 5.91833 0
M  V30 7533 H 694.575 -0.67922 6.43425 0
M  V30 7534 N 694.707 -1.5719 -0.113559 0
M  V30 7535 C 695.932 -1.89702 -0.838336 0
M  V30 7536 C 696.357 -0.752679 -1.72384 0
M  V30 7537 O 695.715 0.296575 -1.78858 0
M  V30 7538 C 695.763 -3.20989 -1.64312 0
M  V30 7539 O 694.867 -3.07278 -2.75053 0
M  V30 7540 H 694.208 -0.622339 -0.231496 0
M  V30 7541 H 696.738 -2.04382 -0.0943228 0
M  V30 7542 H 696.748 -3.53843 -2.03123 0
M  V30 7543 H 695.423 -4.03869 -0.993119 0
M  V30 7544 H 694 -2.85901 -2.39406 0
M  V30 7545 N 696.185 0.383891 -1.52853 0
M  V30 7546 C 697.148 1.45197 -1.77343 0
M  V30 7547 C 698.148 1.47362 -0.643522 0
M  V30 7548 O 699.338 1.48443 -0.911613 0
M  V30 7549 C 696.47 2.8445 -1.87885 0
M  V30 7550 H 697.663 1.24764 -2.72716 0
M  V30 7551 H 695.216 0.615939 -1.43652 0
M  V30 7552 H 695.951 3.10222 -0.94515 0
M  V30 7553 H 695.736 2.8428 -2.70051 0
M  V30 7554 H 697.226 3.61832 -2.08488 0
M  V30 7555 N 697.663 1.43903 0.642637 0
M  V30 7556 C 698.888 1.49758 1.43483 0
M  V30 7557 C 699.313 0.119911 1.87717 0
M  V30 7558 O 698.671 -0.888558 1.58033 0
M  V30 7559 C 698.719 2.45744 2.63898 0
M  V30 7560 O 697.823 1.95101 3.63331 0
M  V30 7561 H 697.164 0.506138 0.429791 0
M  V30 7562 H 699.694 1.88923 0.785438 0
M  V30 7563 H 699.704 2.63399 3.11584 0
M  V30 7564 H 698.379 3.45818 2.31046 0
M  V30 7565 H 696.956 1.87158 3.22531 0
M  V30 7566 N 699.141 -0.881989 1.30609 0
M  V30 7567 C 700.073 -1.99375 1.13058 0
M  V30 7568 C 701.086 -1.62636 0.0729879 0
M  V30 7569 O 702.275 -1.75621 0.319301 0
M  V30 7570 C 699.375 -3.31536 0.702651 0
M  V30 7571 C 698.548 -3.96693 1.84265 0
M  V30 7572 C 697.607 -5.07158 1.40277 0
M  V30 7573 O 696.633 -5.28628 2.11048 0
M  V30 7574 N 697.835 -5.79808 0.283449 0
M  V30 7575 H 700.6 -2.14981 2.08814 0
M  V30 7576 H 698.161 -1.05526 1.22784 0
M  V30 7577 H 700.153 -4.02804 0.391331 0
M  V30 7578 H 698.723 -3.12175 -0.162954 0
M  V30 7579 H 697.943 -3.1856 2.32192 0
M  V30 7580 H 699.231 -4.36964 2.60653 0
M  V30 7581 H 698.629 -5.64871 -0.306189 0
M  V30 7582 H 697.186 -6.51792 0.0315985 0
M  V30 7583 N 700.619 -1.13374 -1.09472 0
M  V30 7584 C 701.551 -0.768466 -2.15933 0
M  V30 7585 C 702.564 0.209585 -1.61445 0
M  V30 7586 O 703.753 -0.010539 -1.78497 0
M  V30 7587 C 700.853 -0.118266 -3.38694 0
M  V30 7588 C 700.026 -1.12829 -4.22597 0
M  V30 7589 C 699.085 -0.503875 -5.23782 0
M  V30 7590 O 698.111 -1.16374 -5.57177 0
M  V30 7591 N 699.313 0.724288 -5.75964 0
M  V30 7592 H 702.078 -1.68457 -2.47876 0
M  V30 7593 H 699.639 -1.02668 -1.25183 0
M  V30 7594 H 701.631 0.311698 -4.03498 0
M  V30 7595 H 700.201 0.700769 -3.04644 0
M  V30 7596 H 699.421 -1.73556 -3.53938 0
M  V30 7597 H 700.709 -1.81095 -4.75481 0
M  V30 7598 H 700.107 1.27918 -5.51048 0
M  V30 7599 H 698.664 1.09692 -6.42504 0
M  V30 7600 N 702.098 1.27442 -0.927168 0
M  V30 7601 C 703.028 2.29256 -0.443188 0
M  V30 7602 C 704.009 1.62701 0.49624 0
M  V30 7603 O 705.194 1.90013 0.401105 0
M  V30 7604 C 702.324 3.45955 0.305366 0
M  V30 7605 C 701.278 4.24501 -0.546178 0
M  V30 7606 C 700.604 5.33671 0.331512 0
M  V30 7607 C 701.904 4.89921 -1.81037 0
M  V30 7608 H 703.598 2.69988 -1.29409 0
M  V30 7609 H 701.144 1.29792 -0.623705 0
M  V30 7610 H 703.097 4.1628 0.654885 0
M  V30 7611 H 701.821 3.04138 1.19029 0
M  V30 7612 H 700.48 3.55921 -0.878398 0
M  V30 7613 H 700.128 4.88096 1.21537 0
M  V30 7614 H 699.828 5.87131 -0.234746 0
M  V30 7615 H 701.352 6.0684 0.676614 0
M  V30 7616 H 702.766 5.52536 -1.52895 0
M  V30 7617 H 701.163 5.53436 -2.32009 0
M  V30 7618 H 702.233 4.13652 -2.53021 0
M  V30 7619 N 703.576 0.692616 1.41565 0
M  V30 7620 C 704.523 0.0254264 2.30786 0
M  V30 7621 C 705.493 -0.774347 1.46946 0
M  V30 7622 O 706.678 -0.742981 1.7574 0
M  V30 7623 C 703.818 -0.907123 3.32964 0
M  V30 7624 C 702.931 -0.0992784 4.31886 0
M  V30 7625 C 702.066 -1.0292 5.21134 0
M  V30 7626 C 701.105 -0.214088 6.11725 0
M  V30 7627 N 700.242 -1.09766 6.93467 0
M  V30 7628 H 705.082 0.792036 2.87282 0
M  V30 7629 H 702.619 0.4023 1.41492 0
M  V30 7630 H 704.577 -1.46181 3.90752 0
M  V30 7631 H 703.207 -1.64016 2.78026 0
M  V30 7632 H 702.259 0.572287 3.76071 0
M  V30 7633 H 703.571 0.532782 4.95946 0
M  V30 7634 H 702.725 -1.65321 5.83741 0
M  V30 7635 H 701.464 -1.69512 4.57293 0
M  V30 7636 H 700.469 0.42302 5.4817 0
M  V30 7637 H 701.694 0.447995 6.77621 0
M  V30 7638 H 699.64 -1.74965 6.32237 0
M  V30 7639 H 699.557 -0.521099 7.54202 0
M  V30 7640 H 700.825 -1.70858 7.60544 0
M  V30 7641 N 705.054 -1.51416 0.437162 0
M  V30 7642 C 706.017 -2.26312 -0.362729 0
M  V30 7643 C 707.017 -1.29748 -0.949847 0
M  V30 7644 O 708.207 -1.53462 -0.824325 0
M  V30 7645 C 705.339 -3.05475 -1.5132 0
M  V30 7646 H 706.532 -2.98459 0.29365 0
M  V30 7647 H 704.085 -1.55137 0.190327 0
M  V30 7648 H 704.82 -2.37744 -2.20563 0
M  V30 7649 H 704.605 -3.76401 -1.09838 0
M  V30 7650 H 706.095 -3.62209 -2.07833 0
M  V30 7651 N 706.532 -0.168513 -1.56696 0
M  V30 7652 C 707.479 0.762875 -2.17828 0
M  V30 7653 C 708.449 1.22892 -1.11745 0
M  V30 7654 O 709.634 1.29759 -1.39883 0
M  V30 7655 C 706.774 1.9879 -2.82093 0
M  V30 7656 C 705.887 1.56568 -4.02629 0
M  V30 7657 C 705.022 2.74416 -4.54829 0
M  V30 7658 C 704.061 2.28671 -5.67782 0
M  V30 7659 N 703.198 3.39602 -6.14504 0
M  V30 7660 H 708.038 0.23479 -2.97074 0
M  V30 7661 H 705.575 0.104163 -1.46731 0
M  V30 7662 H 707.533 2.70636 -3.17509 0
M  V30 7663 H 706.163 2.48973 -2.05456 0
M  V30 7664 H 705.215 0.744067 -3.73052 0
M  V30 7665 H 706.527 1.18988 -4.844 0
M  V30 7666 H 705.681 3.54423 -4.92412 0
M  V30 7667 H 704.42 3.15254 -3.7211 0
M  V30 7668 H 703.425 1.4711 -5.29753 0
M  V30 7669 H 704.65 1.88894 -6.52301 0
M  V30 7670 H 702.596 3.80021 -5.34715 0
M  V30 7671 H 702.513 3.06105 -6.91257 0
M  V30 7672 H 703.781 4.19902 -6.56737 0
M  V30 7673 N 708.01 1.57248 0.105221 0
M  V30 7674 C 708.94 2.04374 1.12931 0
M  V30 7675 C 709.921 0.93074 1.42377 0
M  V30 7676 O 711.106 1.20136 1.52581 0
M  V30 7677 C 708.236 2.45967 2.45189 0
M  V30 7678 C 707.19 3.60838 2.30174 0
M  V30 7679 C 706.516 3.88374 3.67518 0
M  V30 7680 C 707.816 4.92084 1.75073 0
M  V30 7681 H 709.51 2.9018 0.737287 0
M  V30 7682 H 707.056 1.39601 0.353211 0
M  V30 7683 H 709.009 2.77542 3.17094 0
M  V30 7684 H 707.733 1.57148 2.86308 0
M  V30 7685 H 706.392 3.29493 1.60716 0
M  V30 7686 H 706.04 2.96739 4.06147 0
M  V30 7687 H 705.74 4.65703 3.58321 0
M  V30 7688 H 707.264 4.22415 4.40906 0
M  V30 7689 H 708.678 5.22106 2.36809 0
M  V30 7690 H 707.075 5.73507 1.76662 0
M  V30 7691 H 708.145 4.79684 0.709347 0
M  V30 7692 N 709.488 -0.375779 1.53054 0
M  V30 7693 C 710.398 -1.48381 1.81715 0
M  V30 7694 C 711.414 -1.59087 0.704795 0
M  V30 7695 O 712.59 -1.75174 0.993785 0
M  V30 7696 C 709.655 -2.83767 1.99192 0
M  V30 7697 C 708.716 -2.82673 3.23102 0
M  V30 7698 C 707.949 -4.11601 3.39736 0
M  V30 7699 O 708.172 -5.07243 2.60885 0
M  V30 7700 O 707.106 -4.18034 4.33049 0
M  V30 7701 H 710.932 -1.27089 2.7583 0
M  V30 7702 H 708.517 -0.564902 1.38308 0
M  V30 7703 H 710.399 -3.64004 2.12318 0
M  V30 7704 H 709.074 -3.05057 1.08267 0
M  V30 7705 H 707.981 -2.0117 3.15407 0
M  V30 7706 H 709.314 -2.66335 4.13916 0
M  V30 7707 N 710.966 -1.44241 -0.634997 0
M  V30 7708 C 712.213 -1.46821 -1.39463 0
M  V30 7709 C 712.541 -0.0993362 -1.94246 0
M  V30 7710 O 711.796 0.898325 -1.73864 0
M  V30 7711 C 712.095 -2.47279 -2.58046 0
M  V30 7712 C 711.761 -3.92703 -2.21574 0
M  V30 7713 C 710.423 -4.32306 -2.1134 0
M  V30 7714 C 712.775 -4.84271 -1.92695 0
M  V30 7715 C 710.103 -5.61407 -1.70409 0
M  V30 7716 C 712.455 -6.13755 -1.53258 0
M  V30 7717 C 711.119 -6.52316 -1.41562 0
M  V30 7718 H 710.389 -0.537256 -0.51033 0
M  V30 7719 H 713.036 -1.77431 -0.720441 0
M  V30 7720 H 711.341 -2.10138 -3.3068 0
M  V30 7721 H 713.038 -2.46523 -3.16271 0
M  V30 7722 H 709.628 -3.61369 -2.30456 0
M  V30 7723 H 713.812 -4.54432 -1.99513 0
M  V30 7724 H 709.068 -5.90105 -1.59955 0
M  V30 7725 H 713.242 -6.84168 -1.29949 0
M  V30 7726 H 710.869 -7.52255 -1.09619 0
M  V30 7727 N 712.444 0.87505 -1.31075 0
M  V30 7728 C 713.691 1.62768 -1.20469 0
M  V30 7729 C 714.019 1.93034 0.23834 0
M  V30 7730 O 713.274 1.55693 1.18567 0
M  V30 7731 C 713.573 2.96948 -1.98888 0
M  V30 7732 C 713.239 2.86195 -3.4843 0
M  V30 7733 C 711.901 2.82969 -3.89207 0
M  V30 7734 C 714.253 2.73599 -4.43614 0
M  V30 7735 C 711.581 2.64999 -5.23443 0
M  V30 7736 C 713.933 2.57166 -5.77969 0
M  V30 7737 C 712.597 2.52321 -6.17973 0
M  V30 7738 H 711.867 0.595611 -0.440827 0
M  V30 7739 H 714.514 1.01665 -1.62285 0
M  V30 7740 H 712.819 3.62058 -1.49737 0
M  V30 7741 H 714.516 3.54164 -1.88067 0
M  V30 7742 H 711.106 2.8952 -3.16032 0
M  V30 7743 H 715.29 2.7515 -4.13045 0
M  V30 7744 H 710.546 2.5967 -5.53517 0
M  V30 7745 H 714.72 2.46396 -6.51354 0
M  V30 7746 H 712.347 2.38156 -7.21932 0
M  V30 7747 N 713.922 1.13953 1.08869 0
M  V30 7748 C 714.872 0.790812 2.13846 0
M  V30 7749 C 715.856 -0.217819 1.59419 0
M  V30 7750 O 717.048 -0.0208723 1.76988 0
M  V30 7751 C 714.177 0.26479 3.42277 0
M  V30 7752 C 713.263 1.30267 4.03598 0
M  V30 7753 N 713.654 2.50535 4.39393 0
M  V30 7754 C 711.952 1.15178 4.30871 0
M  V30 7755 C 712.653 3.16938 4.87776 0
M  V30 7756 N 711.629 2.44349 4.85587 0
M  V30 7757 H 715.431 1.70577 2.39334 0
M  V30 7758 H 712.945 1.02268 1.26154 0
M  V30 7759 H 714.942 -0.00330398 4.169 0
M  V30 7760 H 713.602 -0.644419 3.18241 0
M  V30 7761 H 714.613 2.87798 4.30572 0
M  V30 7762 H 711.29 0.301204 4.16412 0
M  V30 7763 H 712.68 4.19453 5.2489 0
M  V30 7764 N 715.4 -1.26948 0.933913 0
M  V30 7765 C 716.347 -2.26635 0.436484 0
M  V30 7766 C 717.317 -1.58397 -0.499953 0
M  V30 7767 O 718.502 -1.86171 -0.417753 0
M  V30 7768 C 715.642 -3.43803 -0.298951 0
M  V30 7769 C 714.755 -4.26736 0.672316 0
M  V30 7770 C 713.89 -5.31134 -0.0835872 0
M  V30 7771 C 712.929 -6.05742 0.879979 0
M  V30 7772 N 712.066 -7.01926 0.156301 0
M  V30 7773 H 716.906 -2.68558 1.29154 0
M  V30 7774 H 714.443 -1.32052 0.648118 0
M  V30 7775 H 716.401 -4.10554 -0.741723 0
M  V30 7776 H 715.031 -3.02814 -1.1182 0
M  V30 7777 H 714.083 -3.59842 1.23361 0
M  V30 7778 H 715.395 -4.78502 1.40846 0
M  V30 7779 H 714.549 -6.03863 -0.585984 0
M  V30 7780 H 713.288 -4.80188 -0.852661 0
M  V30 7781 H 712.293 -5.31846 1.39357 0
M  V30 7782 H 713.518 -6.58777 1.64894 0
M  V30 7783 H 711.464 -6.53301 -0.594413 0
M  V30 7784 H 711.381 -7.51409 0.831906 0
M  V30 7785 H 712.649 -7.78821 -0.325239 0
M  V30 7786 N 716.879 -0.700114 -1.41195 0
M  V30 7787 C 718.104 -0.240704 -2.05998 0
M  V30 7788 C 718.529 1.10313 -1.52357 0
M  V30 7789 O 717.887 1.69154 -0.652424 0
M  V30 7790 C 717.935 -0.213783 -3.59966 0
M  V30 7791 O 717.039 0.809933 -4.04368 0
M  V30 7792 H 716.38 -0.116471 -0.653705 0
M  V30 7793 H 718.91 -0.956251 -1.80878 0
M  V30 7794 H 718.92 -0.0461852 -4.07974 0
M  V30 7795 H 717.595 -1.19454 -3.98376 0
M  V30 7796 H 716.172 0.611319 -3.67855 0
M  V30 7797 N 718.357 1.51182 -0.445186 0
M  V30 7798 C 719.606 2.01342 0.120189 0
M  V30 7799 C 719.919 1.33353 1.43095 0
M  V30 7800 O 721.125 1.74525 2.07974 0
M  V30 7801 C 719.581 3.58925 0.264732 0
M  V30 7802 C 719.189 4.35855 -1.03606 0
M  V30 7803 C 720.933 4.17208 0.783455 0
M  V30 7804 C 718.84 5.85162 -0.856731 0
M  V30 7805 H 717.77 0.752426 0.0486922 0
M  V30 7806 H 720.421 1.74221 -0.576143 0
M  V30 7807 H 718.803 3.82525 1.02425 0
M  V30 7808 H 719.977 4.23997 -1.80452 0
M  V30 7809 H 718.292 3.89062 -1.48391 0
M  V30 7810 H 720.889 5.26475 0.934239 0
M  V30 7811 H 721.232 3.76892 1.768 0
M  V30 7812 H 721.765 3.97715 0.0820346 0
M  V30 7813 H 718.504 6.29904 -1.81388 0
M  V30 7814 H 718.024 5.99663 -0.128206 0
M  V30 7815 H 719.703 6.44963 -0.513027 0
M  V30 7816 N 719.835 0.176821 1.56605 0
M  V30 7817 C 720.767 -0.782836 2.15417 0
M  V30 7818 C 721.78 -1.18982 1.11117 0
M  V30 7819 O 722.969 -1.12872 1.38283 0
M  V30 7820 C 720.069 -2.06596 2.68647 0
M  V30 7821 C 719.242 -1.82167 3.9766 0
M  V30 7822 C 718.301 -2.94751 4.35899 0
M  V30 7823 O 717.327 -2.65148 5.03672 0
M  V30 7824 N 718.529 -4.2267 3.97907 0
M  V30 7825 H 721.294 -0.280012 2.98389 0
M  V30 7826 H 718.855 -0.00577529 1.61899 0
M  V30 7827 H 720.847 -2.81018 2.91223 0
M  V30 7828 H 719.417 -2.48054 1.90232 0
M  V30 7829 H 718.637 -0.916208 3.83405 0
M  V30 7830 H 719.925 -1.6322 4.81909 0
M  V30 7831 H 719.323 -4.4958 3.43357 0
M  V30 7832 H 717.88 -4.93778 4.25472 0
M  V30 7833 N 721.313 -1.57302 -0.09688 0
M  V30 7834 C 722.243 -2.0497 -1.11846 0
M  V30 7835 C 723.224 -0.938278 -1.41882 0
M  V30 7836 O 724.409 -1.20943 -1.51942 0
M  V30 7837 C 721.539 -2.47264 -2.43881 0
M  V30 7838 C 720.493 -3.62053 -2.28257 0
M  V30 7839 C 719.819 -3.90318 -3.65453 0
M  V30 7840 C 721.119 -4.93005 -1.72461 0
M  V30 7841 H 722.813 -2.90567 -0.721888 0
M  V30 7842 H 720.359 -1.39786 -0.345803 0
M  V30 7843 H 722.312 -2.7922 -3.15617 0
M  V30 7844 H 721.036 -1.58664 -2.8547 0
M  V30 7845 H 719.695 -3.30341 -1.58967 0
M  V30 7846 H 719.343 -2.98889 -4.04567 0
M  V30 7847 H 719.043 -4.67597 -3.55846 0
M  V30 7848 H 720.567 -4.24747 -4.3866 0
M  V30 7849 H 721.981 -5.23354 -2.34036 0
M  V30 7850 H 720.378 -5.74436 -1.73618 0
M  V30 7851 H 721.448 -4.80053 -0.683898 0
M  V30 7852 N 722.791 0.367657 -1.53252 0
M  V30 7853 C 724.068 1.12606 -1.59935 0
M  V30 7854 C 724.448 2.07167 -0.405606 0
M  V30 7855 O 723.796 2.20364 0.604323 0
M  V30 7856 C 724.006 1.86699 -2.94863 0
M  V30 7857 C 725.354 2.41306 -3.49366 0
M  V30 7858 O 726.378 1.96828 -2.96879 0
M  V30 7859 O 725.237 3.2261 -4.41118 0
M  V30 7860 H 722.331 0.516438 -0.645926 0
M  V30 7861 H 724.877 0.371088 -1.65593 0
M  V30 7862 H 723.649 1.17674 -3.73187 0
M  V30 7863 H 723.272 2.6911 -2.92687 0
M  V30 7864 N 724.269 1.44576 0.627338 0
M  V30 7865 C 725.199 1.54562 1.75022 0
M  V30 7866 C 726.18 0.398378 1.65369 0
M  V30 7867 O 727.365 0.61899 1.84071 0
M  V30 7868 C 724.495 1.49309 3.13567 0
M  V30 7869 C 723.449 2.62549 3.38012 0
M  V30 7870 C 722.775 2.42348 4.76625 0
M  V30 7871 C 724.075 4.04678 3.30202 0
M  V30 7872 H 725.769 2.4855 1.66922 0
M  V30 7873 H 723.315 1.19624 0.801636 0
M  V30 7874 H 725.268 1.54895 3.919 0
M  V30 7875 H 723.992 0.518392 3.2246 0
M  V30 7876 H 722.651 2.56358 2.62061 0
M  V30 7877 H 722.299 1.43062 4.82226 0
M  V30 7878 H 721.999 3.18273 4.93939 0
M  V30 7879 H 723.523 2.49758 5.57183 0
M  V30 7880 H 724.937 4.12217 3.98435 0
M  V30 7881 H 723.334 4.80836 3.5905 0
M  V30 7882 H 724.404 4.2798 2.27949 0
M  V30 7883 N 725.747 -0.868086 1.31537 0
M  V30 7884 C 726.657 -2.00801 1.21311 0
M  V30 7885 C 727.673 -1.73518 0.129431 0
M  V30 7886 O 728.849 -1.98378 0.347588 0
M  V30 7887 C 725.914 -3.3419 0.922935 0
M  V30 7888 C 724.975 -3.74783 2.0937 0
M  V30 7889 C 724.208 -5.01807 1.81728 0
M  V30 7890 O 724.431 -5.65404 0.753313 0
M  V30 7891 O 723.365 -5.39213 2.67457 0
M  V30 7892 H 727.191 -2.12361 2.17109 0
M  V30 7893 H 724.776 -0.996684 1.11295 0
M  V30 7894 H 726.658 -4.14174 0.777033 0
M  V30 7895 H 725.333 -3.237 -0.00500301 0
M  V30 7896 H 724.24 -2.95432 2.29501 0
M  V30 7897 H 725.573 -3.89902 3.00396 0
M  V30 7898 N 727.225 -1.14528 -1.08264 0
M  V30 7899 C 728.641 -0.885976 -1.3275 0
M  V30 7900 C 728.841 0.472096 -1.95892 0
M  V30 7901 O 727.897 1.21606 -2.21288 0
M  V30 7902 C 729.21 -2.01982 -2.22764 0
M  V30 7903 C 730.758 -2.05329 -2.36239 0
M  V30 7904 C 731.233 -3.1801 -3.29596 0
M  V30 7905 N 732.724 -3.17598 -3.37173 0
M  V30 7906 C 733.459 -4.01426 -4.09444 0
M  V30 7907 N 732.955 -4.95297 -4.8441 0
M  V30 7908 N 734.748 -3.89482 -4.0529 0
M  V30 7909 H 726.899 -2.01996 -0.656607 0
M  V30 7910 H 729.162 -0.880274 -0.351884 0
M  V30 7911 H 728.868 -2.99964 -1.83615 0
M  V30 7912 H 728.742 -1.94421 -3.23234 0
M  V30 7913 H 731.129 -1.07953 -2.74646 0
M  V30 7914 H 731.21 -2.1696 -1.35506 0
M  V30 7915 H 730.854 -4.15633 -2.9191 0
M  V30 7916 H 730.784 -3.03616 -4.30261 0
M  V30 7917 H 733.275 -2.4961 -2.83731 0
M  V30 7918 H 733.588 -5.55723 -5.37021 0
M  V30 7919 H 731.933 -4.99293 -4.83457 0
M  V30 7920 H 735.124 -3.15465 -3.45832 0
M  V30 7921 H 735.297 -4.55039 -4.6135 0
M  V30 7922 N 728.703 1.26451 -0.940633 0
M  V30 7923 C 729.933 1.97581 -0.603766 0
M  V30 7924 C 730.341 1.70246 0.825395 0
M  V30 7925 O 729.684 0.967001 1.56188 0
M  V30 7926 C 729.746 3.51256 -0.765463 0
M  V30 7927 C 729.41 4.0224 -2.16915 0
M  V30 7928 C 730.407 4.1402 -3.14457 0
M  V30 7929 C 728.092 4.36263 -2.48958 0
M  V30 7930 C 730.086 4.59117 -4.42143 0
M  V30 7931 C 727.773 4.81048 -3.76877 0
M  V30 7932 C 728.771 4.92436 -4.73282 0
M  V30 7933 O 728.459 5.36234 -5.98923 0
M  V30 7934 H 728.191 0.636948 -0.226436 0
M  V30 7935 H 730.745 1.61941 -1.2635 0
M  V30 7936 H 728.975 3.86669 -0.0485956 0
M  V30 7937 H 730.664 4.03597 -0.431738 0
M  V30 7938 H 731.43 3.87981 -2.91026 0
M  V30 7939 H 727.309 4.26634 -1.74656 0
M  V30 7940 H 730.853 4.6792 -5.17394 0
M  V30 7941 H 726.75 5.06531 -4.00121 0
M  V30 7942 H 727.518 5.54456 -6.02097 0
M  V30 7943 N 730.181 0.707592 1.40822 0
M  V30 7944 C 731.406 0.251626 2.05868 0
M  V30 7945 C 731.831 -1.09503 1.5294 0
M  V30 7946 O 731.189 -1.68806 0.661385 0
M  V30 7947 C 731.237 0.23287 3.59847 0
M  V30 7948 O 730.341 -0.788477 4.04792 0
M  V30 7949 H 729.682 0.119936 0.653078 0
M  V30 7950 H 732.212 0.96583 1.80369 0
M  V30 7951 H 732.222 0.0678204 4.07944 0
M  V30 7952 H 730.897 1.21565 3.97737 0
M  V30 7953 H 729.474 -0.591802 3.68174 0
M  V30 7954 N 731.66 -1.50943 0.453197 0
M  V30 7955 C 732.57 -2.31884 -0.355963 0
M  V30 7956 C 733.586 -1.41481 -1.01287 0
M  V30 7957 O 734.762 -1.74546 -1.00477 0
M  V30 7958 C 731.827 -3.15668 -1.43369 0
M  V30 7959 C 730.888 -4.2187 -0.795253 0
M  V30 7960 C 730.121 -5.0165 -1.82162 0
M  V30 7961 O 730.344 -4.82266 -3.04592 0
M  V30 7962 O 729.278 -5.85311 -1.40336 0
M  V30 7963 H 733.104 -3.02162 0.305248 0
M  V30 7964 H 730.689 -1.47839 0.215398 0
M  V30 7965 H 732.571 -3.67709 -2.05836 0
M  V30 7966 H 731.246 -2.48137 -2.07869 0
M  V30 7967 H 730.153 -3.73867 -0.132106 0
M  V30 7968 H 731.486 -4.9182 -0.193484 0
M  V30 7969 N 733.138 -0.185124 -1.56509 0
M  V30 7970 C 734.07 0.771401 -2.15829 0
M  V30 7971 C 735.083 1.18392 -1.11747 0
M  V30 7972 O 736.272 1.12137 -1.38879 0
M  V30 7973 C 733.372 2.05169 -2.69739 0
M  V30 7974 C 732.545 1.80056 -3.98621 0
M  V30 7975 C 731.604 2.92435 -4.37456 0
M  V30 7976 O 730.63 2.62473 -5.05071 0
M  V30 7977 N 731.832 4.20554 -4.00143 0
M  V30 7978 H 734.597 0.264184 -2.98533 0
M  V30 7979 H 732.158 -0.00281069 -1.619 0
M  V30 7980 H 734.15 2.7947 -2.92709 0
M  V30 7981 H 732.72 2.47041 -1.91545 0
M  V30 7982 H 731.94 0.895862 -3.83885 0
M  V30 7983 H 733.228 1.60662 -4.82768 0
M  V30 7984 H 732.626 4.47753 -3.45736 0
M  V30 7985 H 731.183 4.91514 -4.28085 0
M  V30 7986 N 734.616 1.57351 0.0885366 0
M  V30 7987 C 735.549 1.97786 1.13825 0
M  V30 7988 C 736.527 0.852091 1.38485 0
M  V30 7989 O 737.711 1.11296 1.52137 0
M  V30 7990 C 734.838 2.30024 2.48609 0
M  V30 7991 C 733.884 3.52437 2.40189 0
M  V30 7992 S 734.717 5.03908 1.81209 0
M  V30 7993 C 735.873 5.39331 3.17605 0
M  V30 7994 H 736.106 2.86513 0.793587 0
M  V30 7995 H 733.639 1.51527 0.29646 0
M  V30 7996 H 735.597 2.49274 3.26148 0
M  V30 7997 H 734.258 1.41856 2.80242 0
M  V30 7998 H 733.451 3.72457 3.39546 0
M  V30 7999 H 733.053 3.32731 1.70781 0
M  V30 8000 H 735.345 5.36378 4.13891 0
M  V30 8001 H 736.288 6.4029 3.02381 0
M  V30 8002 H 736.696 4.6679 3.17438 0
M  V30 8003 N 736.094 -0.359525 1.53444 0
M  V30 8004 C 737.322 -1.12198 1.73837 0
M  V30 8005 C 737.737 -1.82854 0.470107 0
M  V30 8006 O 737.094 -1.73781 -0.557349 0
M  V30 8007 C 737.145 -2.14769 2.90786 0
M  V30 8008 O 736.866 -1.46989 4.12706 0
M  V30 8009 C 738.367 -3.03514 3.231 0
M  V30 8010 H 735.587 -0.33524 0.581253 0
M  V30 8011 H 738.131 -0.416598 2.00212 0
M  V30 8012 H 736.286 -2.80896 2.66788 0
M  V30 8013 H 736.7 -2.15378 4.78239 0
M  V30 8014 H 738.174 -3.71453 4.08322 0
M  V30 8015 H 738.651 -3.68658 2.38721 0
M  V30 8016 H 739.257 -2.42996 3.49046 0
M  V30 8017 N 737.572 -1.44907 -0.619662 0
M  V30 8018 C 738.802 -1.51575 -1.40387 0
M  V30 8019 C 739.21 -0.14309 -1.88658 0
M  V30 8020 O 738.553 0.863403 -1.62145 0
M  V30 8021 C 738.615 -2.42858 -2.65067 0
M  V30 8022 C 738.279 -3.8982 -2.38515 0
M  V30 8023 C 739.276 -4.80047 -1.99627 0
M  V30 8024 C 736.961 -4.34628 -2.51801 0
M  V30 8025 C 738.955 -6.13086 -1.74369 0
M  V30 8026 C 736.642 -5.67712 -2.26156 0
M  V30 8027 C 737.64 -6.56759 -1.875 0
M  V30 8028 O 737.328 -7.87377 -1.62148 0
M  V30 8029 H 737.06 -0.51612 -0.436573 0
M  V30 8030 H 739.614 -1.90664 -0.763959 0
M  V30 8031 H 737.844 -1.98717 -3.31735 0
M  V30 8032 H 739.533 -2.40346 -3.27091 0
M  V30 8033 H 740.299 -4.46697 -1.8891 0
M  V30 8034 H 736.178 -3.65568 -2.80857 0
M  V30 8035 H 739.722 -6.8255 -1.44122 0
M  V30 8036 H 735.619 -6.0062 -2.36486 0
M  V30 8037 H 736.387 -7.99288 -1.763 0
M  V30 8038 N 739.05 0.861098 -1.31996 0
M  V30 8039 C 740.298 1.61162 -1.21947 0
M  V30 8040 C 740.619 1.93751 0.220351 0
M  V30 8041 O 739.889 1.59069 1.14341 0
M  V30 8042 H 738.469 0.597485 -0.448353 0
M  V30 8043 H 741.131 1.03039 -1.65436 0
M  V30 8044 H 740.227 2.55138 -1.79752 0
M  V30 8045 N 740.528 1.15101 1.07655 0
M  V30 8046 C 741.777 0.918528 1.79572 0
M  V30 8047 C 742.09 -0.555922 1.87534 0
M  V30 8048 O 743.296 -0.905893 2.55941 0
M  V30 8049 C 741.752 1.59394 3.22679 0
M  V30 8050 C 741.36 3.1052 3.22927 0
M  V30 8051 C 743.104 1.44289 3.99225 0
M  V30 8052 C 741.011 3.70862 4.60668 0
M  V30 8053 H 739.941 0.340006 0.672987 0
M  V30 8054 H 742.592 1.38079 1.20857 0
M  V30 8055 H 740.974 1.05936 3.81567 0
M  V30 8056 H 742.148 3.70708 2.737 0
M  V30 8057 H 740.463 3.25351 2.59876 0
M  V30 8058 H 743.06 1.86766 5.01022 0
M  V30 8059 H 743.403 0.389975 4.14469 0
M  V30 8060 H 743.936 1.94826 3.46825 0
M  V30 8061 H 740.675 4.7604 4.50628 0
M  V30 8062 H 740.195 3.15456 5.10145 0
M  V30 8063 H 741.874 3.71607 5.29639 0
M  V30 8064 N 742.006 -1.2595 0.947325 0
M  V30 8065 C 743.231 -1.98083 0.614633 0
M  V30 8066 C 743.656 -1.70013 -0.804815 0
M  V30 8067 O 743.014 -0.95175 -1.54309 0
M  V30 8068 C 743.062 -3.4993 0.870706 0
M  V30 8069 O 742.166 -4.12364 -0.0541451 0
M  V30 8070 H 741.507 -0.621232 0.234451 0
M  V30 8071 H 744.037 -1.60259 1.27193 0
M  V30 8072 H 744.047 -4.00198 0.794051 0
M  V30 8073 H 742.722 -3.69691 1.90529 0
M  V30 8074 H 741.299 -3.72826 0.0740917 0
M  V30 8075 N 743.484 -0.715051 -1.40445 0
M  V30 8076 C 744.709 -0.26254 -2.05732 0
M  V30 8077 C 745.134 1.08691 -1.53519 0
M  V30 8078 O 744.492 1.68453 -0.670328 0
M  V30 8079 C 744.54 -0.25195 -3.59719 0
M  V30 8080 O 743.644 0.766998 -4.05205 0
M  V30 8081 H 742.985 -0.123398 -0.652433 0
M  V30 8082 H 745.515 -0.975382 -1.79854 0
M  V30 8083 H 745.525 -0.0894537 -4.07902 0
M  V30 8084 H 744.2 -1.23672 -3.97087 0
M  V30 8085 H 742.777 0.572269 -3.68483 0
M  V30 8086 N 744.962 1.50701 -0.461195 0
M  V30 8087 C 745.872 2.32069 0.343661 0
M  V30 8088 C 746.888 1.42016 1.00535 0
M  V30 8089 O 748.064 1.75077 0.995498 0
M  V30 8090 C 745.129 3.16424 1.41692 0
M  V30 8091 C 744.19 4.22286 0.772869 0
M  V30 8092 C 743.423 5.02609 1.79499 0
M  V30 8093 O 743.646 4.83874 3.0203 0
M  V30 8094 O 742.58 5.86047 1.3723 0
M  V30 8095 H 746.406 3.01996 -0.321268 0
M  V30 8096 H 743.991 1.47723 -0.223235 0
M  V30 8097 H 745.873 3.68795 2.03883 0
M  V30 8098 H 744.548 2.49236 2.0655 0
M  V30 8099 H 743.455 3.73931 0.112277 0
M  V30 8100 H 744.788 4.91915 0.167399 0
M  V30 8101 N 746.441 0.193421 1.56409 0
M  V30 8102 C 747.388 -0.728124 2.19014 0
M  V30 8103 C 748.358 -1.21098 1.13686 0
M  V30 8104 O 749.543 -1.27517 1.4193 0
M  V30 8105 C 746.683 -1.94277 2.8522 0
M  V30 8106 C 745.796 -1.50143 4.05069 0
M  V30 8107 C 744.931 -2.67145 4.59137 0
M  V30 8108 C 743.97 -2.19609 5.71348 0
M  V30 8109 N 743.107 -3.29782 6.19829 0
M  V30 8110 H 747.947 -0.187499 2.9741 0
M  V30 8111 H 745.484 -0.0808064 1.46878 0
M  V30 8112 H 747.442 -2.65551 3.21774 0
M  V30 8113 H 746.072 -2.45673 2.09391 0
M  V30 8114 H 745.124 -0.684624 3.74189 0
M  V30 8115 H 746.436 -1.11266 4.86232 0
M  V30 8116 H 745.59 -3.46544 4.97988 0
M  V30 8117 H 744.329 -3.09295 3.77078 0
M  V30 8118 H 743.334 -1.38664 5.32027 0
M  V30 8119 H 744.559 -1.78492 6.55223 0
M  V30 8120 H 742.505 -3.71466 5.40693 0
M  V30 8121 H 742.422 -2.95069 6.96039 0
M  V30 8122 H 743.69 -4.094 6.63334 0
M  V30 8123 N 747.919 -1.57396 -0.0801906 0
M  V30 8124 C 748.852 -1.98386 -1.12774 0
M  V30 8125 C 749.83 -0.859423 -1.38031 0
M  V30 8126 O 751.014 -1.12101 -1.51544 0
M  V30 8127 C 748.141 -2.3134 -2.47386 0
M  V30 8128 C 747.187 -3.53706 -2.38316 0
M  V30 8129 S 748.02 -5.04862 -1.78534 0
M  V30 8130 C 749.176 -5.41008 -3.1474 0
M  V30 8131 H 749.409 -2.86929 -0.778382 0
M  V30 8132 H 746.942 -1.51682 -0.28842 0
M  V30 8133 H 748.9 -2.51 -3.24822 0
M  V30 8134 H 747.561 -1.4334 -2.79486 0
M  V30 8135 H 746.754 -3.74253 -3.37566 0
M  V30 8136 H 746.356 -3.33632 -1.69014 0
M  V30 8137 H 748.648 -5.38565 -4.1104 0
M  V30 8138 H 749.591 -6.41885 -2.98981 0
M  V30 8139 H 749.999 -4.68467 -3.14958 0
M  V30 8140 N 749.397 0.351382 -1.53633 0
M  V30 8141 C 750.327 1.43688 -1.84055 0
M  V30 8142 C 751.308 1.55251 -0.695073 0
M  V30 8143 O 752.493 1.69587 -0.946257 0
M  V30 8144 C 749.623 2.80843 -2.04315 0
M  V30 8145 C 748.577 2.84094 -3.20117 0
M  V30 8146 C 747.903 4.2406 -3.25696 0
M  V30 8147 C 749.203 2.50334 -4.58399 0
M  V30 8148 H 750.897 1.18478 -2.74961 0
M  V30 8149 H 748.443 0.568509 -1.32303 0
M  V30 8150 H 750.396 3.56821 -2.2418 0
M  V30 8151 H 749.12 3.07471 -1.10132 0
M  V30 8152 H 747.779 2.10568 -3.00094 0
M  V30 8153 H 747.427 4.47785 -2.29123 0
M  V30 8154 H 747.127 4.27147 -4.03509 0
M  V30 8155 H 748.651 5.0189 -3.47762 0
M  V30 8156 H 750.065 3.16025 -4.78332 0
M  V30 8157 H 748.462 2.64717 -5.38558 0
M  V30 8158 H 749.532 1.45542 -4.62543 0
M  V30 8159 N 750.875 1.45233 0.611969 0
M  V30 8160 C 751.822 1.5357 1.72293 0
M  V30 8161 C 752.792 0.381912 1.6165 0
M  V30 8162 O 753.977 0.594765 1.81293 0
M  V30 8163 C 751.117 1.50419 3.10593 0
M  V30 8164 C 750.23 2.76316 3.32074 0
M  V30 8165 C 749.365 2.64866 4.60456 0
M  V30 8166 C 748.404 3.85838 4.7518 0
M  V30 8167 N 747.541 3.72949 5.94856 0
M  V30 8168 H 752.381 2.4848 1.64504 0
M  V30 8169 H 749.918 1.23302 0.802191 0
M  V30 8170 H 751.876 1.4658 3.90602 0
M  V30 8171 H 750.506 0.590621 3.17351 0
M  V30 8172 H 749.558 2.90261 2.45872 0
M  V30 8173 H 750.87 3.66055 3.38829 0
M  V30 8174 H 750.024 2.58969 5.48653 0
M  V30 8175 H 748.763 1.72719 4.56092 0
M  V30 8176 H 747.768 3.92099 3.85407 0
M  V30 8177 H 748.993 4.79045 4.81344 0
M  V30 8178 H 746.939 2.83567 5.91545 0
M  V30 8179 H 746.856 4.56319 6.02751 0
M  V30 8180 H 748.124 3.70976 6.85563 0
M  V30 8181 N 752.353 -0.854086 1.3245 0
M  V30 8182 C 753.316 -1.94427 1.21371 0
M  V30 8183 C 754.316 -1.60219 0.136613 0
M  V30 8184 O 755.506 -1.69846 0.387057 0
M  V30 8185 C 752.638 -3.29698 0.866701 0
M  V30 8186 H 753.831 -2.05679 2.18257 0
M  V30 8187 H 751.384 -1.04434 1.1629 0
M  V30 8188 H 752.119 -3.24145 -0.100319 0
M  V30 8189 H 751.904 -3.55903 1.64545 0
M  V30 8190 H 753.394 -4.09599 0.813515 0
M  V30 8191 N 753.831 -1.1567 -1.07043 0
M  V30 8192 C 755.077 -0.944878 -1.80121 0
M  V30 8193 C 755.432 0.522239 -1.85177 0
M  V30 8194 O 754.725 1.38228 -1.32678 0
M  V30 8195 C 754.919 -1.49677 -3.24548 0
M  V30 8196 C 754.748 -3.01602 -3.33566 0
M  V30 8197 C 753.518 -3.70177 -3.43943 0
M  V30 8198 C 755.716 -3.99362 -3.24059 0
M  V30 8199 N 753.698 -5.09882 -3.41896 0
M  V30 8200 C 755.069 -5.25404 -3.29167 0
M  V30 8201 C 757.124 -3.91289 -3.07891 0
M  V30 8202 C 755.827 -6.44314 -3.19769 0
M  V30 8203 C 757.853 -5.09761 -2.99829 0
M  V30 8204 C 757.215 -6.34679 -3.05552 0
M  V30 8205 H 753.314 -0.399447 -0.672284 0
M  V30 8206 H 755.898 -1.4693 -1.27749 0
M  V30 8207 H 754.069 -0.998941 -3.75334 0
M  V30 8208 H 755.801 -1.22346 -3.85764 0
M  V30 8209 H 752.556 -3.2078 -3.48421 0
M  V30 8210 H 752.98 -5.82857 -3.44393 0
M  V30 8211 H 757.622 -2.95573 -3.02318 0
M  V30 8212 H 755.34 -7.4026 -3.24101 0
M  V30 8213 H 758.926 -5.05279 -2.88418 0
M  V30 8214 H 757.806 -7.24812 -2.99361 0
M  V30 8215 N 755.309 1.25446 -0.953992 0
M  V30 8216 C 756.256 2.25912 -0.472485 0
M  V30 8217 C 757.226 1.59173 0.47469 0
M  V30 8218 O 758.411 1.86812 0.388082 0
M  V30 8219 C 755.551 3.44235 0.244218 0
M  V30 8220 C 754.664 4.25613 -0.740121 0
M  V30 8221 C 753.799 5.312 -0.000922267 0
M  V30 8222 C 752.838 6.04265 -0.976236 0
M  V30 8223 N 751.975 7.01589 -0.267952 0
M  V30 8224 H 756.815 2.66469 -1.3341 0
M  V30 8225 H 754.352 1.31005 -0.669045 0
M  V30 8226 H 756.31 4.11682 0.676314 0
M  V30 8227 H 754.94 3.04554 1.06988 0
M  V30 8228 H 753.992 3.57834 -1.2907 0
M  V30 8229 H 755.304 4.762 -1.48441 0
M  V30 8230 H 754.458 6.04719 0.48984 0
M  V30 8231 H 753.197 4.81484 0.776159 0
M  V30 8232 H 752.202 5.29561 -1.478 0
M  V30 8233 H 753.427 6.5607 -1.75354 0
M  V30 8234 H 751.373 6.54164 0.490403 0
M  V30 8235 H 751.29 7.4999 -0.951344 0
M  V30 8236 H 752.558 7.7924 0.201294 0
M  V30 8237 N 756.787 0.722489 1.40064 0
M  V30 8238 C 757.697 0.0755984 2.34478 0
M  V30 8239 C 758.713 -0.736046 1.57665 0
M  V30 8240 O 759.889 -0.667407 1.9002 0
M  V30 8241 C 756.954 -0.830075 3.36616 0
M  V30 8242 C 756.015 -0.00759884 4.29299 0
M  V30 8243 C 755.248 -0.870139 5.26559 0
M  V30 8244 O 755.471 -2.10921 5.2997 0
M  V30 8245 O 754.405 -0.305454 6.01124 0
M  V30 8246 H 758.231 0.854545 2.9143 0
M  V30 8247 H 755.816 0.483032 1.41376 0
M  V30 8248 H 757.698 -1.34864 3.99236 0
M  V30 8249 H 756.373 -1.58805 2.82069 0
M  V30 8250 H 755.28 0.556199 3.69942 0
M  V30 8251 H 756.613 0.712312 4.87018 0
M  V30 8252 N 758.265 -1.50454 0.469181 0
M  V30 8253 C 759.198 -2.25149 -0.371928 0
M  V30 8254 C 760.176 -1.28382 -0.997845 0
M  V30 8255 O 761.36 -1.57599 -1.03415 0
M  V30 8256 C 758.487 -3.02629 -1.52097 0
M  V30 8257 C 757.533 -4.14305 -1.01262 0
M  V30 8258 S 758.366 -5.35453 0.0711459 0
M  V30 8259 C 759.522 -6.1648 -1.08181 0
M  V30 8260 H 759.755 -2.96142 0.262134 0
M  V30 8261 H 757.288 -1.52296 0.254042 0
M  V30 8262 H 759.246 -3.47861 -2.17952 0
M  V30 8263 H 757.907 -2.31165 -2.12654 0
M  V30 8264 H 757.1 -4.67913 -1.87278 0
M  V30 8265 H 756.702 -3.71499 -0.431804 0
M  V30 8266 H 758.994 -6.47497 -1.99382 0
M  V30 8267 H 759.937 -7.05679 -0.585028 0
M  V30 8268 H 760.345 -5.48492 -1.33478 0
M  V30 8269 N 759.743 -0.201713 -1.56304 0
M  V30 8270 C 760.653 0.728296 -2.23009 0
M  V30 8271 C 761.669 1.22945 -1.23128 0
M  V30 8272 O 762.845 1.27523 -1.55884 0
M  V30 8273 C 759.91 1.92792 -2.88153 0
M  V30 8274 C 758.971 1.47068 -4.03323 0
M  V30 8275 C 758.204 2.61312 -4.65351 0
M  V30 8276 O 758.427 3.7896 -4.26317 0
M  V30 8277 O 757.361 2.33646 -5.54701 0
M  V30 8278 H 761.187 0.190166 -3.03104 0
M  V30 8279 H 758.772 0.0278725 -1.49374 0
M  V30 8280 H 760.654 2.6289 -3.29343 0
M  V30 8281 H 759.329 2.45452 -2.11033 0
M  V30 8282 H 758.236 0.738299 -3.66742 0
M  V30 8283 H 759.569 0.990666 -4.82127 0
M  V30 8284 N 761.222 1.57436 0.0718424 0
M  V30 8285 C 762.132 2.07039 1.10326 0
M  V30 8286 C 763.148 0.999918 1.424 0
M  V30 8287 O 764.324 1.31462 1.52577 0
M  V30 8288 C 761.389 2.50439 2.39752 0
M  V30 8289 C 760.45 3.71784 2.14651 0
M  V30 8290 C 759.683 4.13104 3.37906 0
M  V30 8291 O 759.906 3.54298 4.47023 0
M  V30 8292 O 758.84 5.05894 3.26121 0
M  V30 8293 H 762.666 2.95239 0.711872 0
M  V30 8294 H 760.251 1.46638 0.28597 0
M  V30 8295 H 762.133 2.78876 3.15921 0
M  V30 8296 H 760.808 1.65368 2.78271 0
M  V30 8297 H 759.715 3.48431 1.36187 0
M  V30 8298 H 761.048 4.57707 1.81012 0
M  V30 8299 N 762.7 -0.34323 1.53817 0
M  V30 8300 C 763.647 -1.42153 1.81827 0
M  V30 8301 C 764.617 -1.52251 0.663996 0
M  V30 8302 O 765.802 -1.67784 0.908461 0
M  V30 8303 C 762.942 -2.78799 2.03384 0
M  V30 8304 C 762.055 -2.7749 3.31094 0
M  V30 8305 C 761.19 -4.05856 3.42717 0
M  V30 8306 C 760.229 -3.98776 4.64375 0
M  V30 8307 N 759.366 -5.18833 4.73029 0
M  V30 8308 H 764.206 -1.17567 2.73829 0
M  V30 8309 H 761.743 -0.569506 1.35628 0
M  V30 8310 H 763.701 -3.58211 2.13872 0
M  V30 8311 H 762.331 -3.01736 1.14696 0
M  V30 8312 H 761.383 -1.90182 3.29446 0
M  V30 8313 H 762.695 -2.68137 4.206 0
M  V30 8314 H 761.849 -4.93691 3.52638 0
M  V30 8315 H 760.588 -4.1799 2.51267 0
M  V30 8316 H 759.593 -3.09325 4.5453 0
M  V30 8317 H 760.818 -3.88224 5.57189 0
M  V30 8318 H 758.764 -5.31511 3.84489 0
M  V30 8319 H 758.681 -5.11737 5.56472 0
M  V30 8320 H 759.949 -6.08439 4.87261 0
M  V30 8321 N 764.178 -1.45556 -0.604258 0
M  V30 8322 C 765.141 -1.54091 -1.69672 0
M  V30 8323 C 766.141 -0.420076 -1.55216 0
M  V30 8324 O 767.331 -0.683671 -1.60224 0
M  V30 8325 C 764.463 -1.44063 -3.08964 0
M  V30 8326 H 765.656 -2.51431 -1.6347 0
M  V30 8327 H 763.209 -1.33046 -0.820273 0
M  V30 8328 H 763.944 -0.479201 -3.2074 0
M  V30 8329 H 763.729 -2.25362 -3.20865 0
M  V30 8330 H 765.219 -1.53075 -3.88533 0
M  V30 8331 N 765.656 0.84705 -1.32902 0
M  V30 8332 C 766.905 1.59667 -1.23245 0
M  V30 8333 C 767.218 1.94551 0.202349 0
M  V30 8334 O 768.424 2.68218 0.420847 0
M  V30 8335 C 766.88 2.8795 -2.15901 0
M  V30 8336 C 766.488 2.60461 -3.64505 0
M  V30 8337 C 768.232 3.65968 -2.15098 0
M  V30 8338 C 766.139 3.84791 -4.49099 0
M  V30 8339 H 765.069 0.599167 -0.457728 0
M  V30 8340 H 767.72 0.934662 -1.57912 0
M  V30 8341 H 766.102 3.55648 -1.74157 0
M  V30 8342 H 767.276 2.01026 -4.14639 0
M  V30 8343 H 765.591 1.9576 -3.67515 0
M  V30 8344 H 768.188 4.58241 -2.75534 0
M  V30 8345 H 768.531 4.00275 -1.14392 0
M  V30 8346 H 769.064 3.05184 -2.55162 0
M  V30 8347 H 765.803 3.55621 -5.50649 0
M  V30 8348 H 765.323 4.43594 -4.03713 0
M  V30 8349 H 767.002 4.52454 -4.62487 0
M  V30 8350 N 767.134 1.16236 1.06428 0
M  V30 8351 C 768.084 0.835994 2.12121 0
M  V30 8352 C 769.068 -0.183955 1.59845 0
M  V30 8353 O 770.26 0.0166741 1.76992 0
M  V30 8354 C 767.389 0.337333 3.41639 0
M  V30 8355 C 766.475 1.38798 4.00744 0
M  V30 8356 N 766.866 2.59799 4.3398 0
M  V30 8357 C 765.164 1.24292 4.28331 0
M  V30 8358 C 765.865 3.27213 4.80943 0
M  V30 8359 N 764.841 2.54594 4.80294 0
M  V30 8360 H 768.643 1.75615 2.35662 0
M  V30 8361 H 766.157 1.04921 1.23957 0
M  V30 8362 H 768.154 0.0851274 4.16813 0
M  V30 8363 H 766.814 -0.57677 3.19536 0
M  V30 8364 H 767.825 2.96867 4.24371 0
M  V30 8365 H 764.502 0.389464 4.15679 0
M  V30 8366 H 765.892 4.30492 5.15874 0
M  V30 8367 N 768.612 -1.24939 0.960631 0
M  V30 8368 C 769.842 -1.96595 0.635123 0
M  V30 8369 C 770.25 -1.71538 -0.798206 0
M  V30 8370 O 769.593 -0.991727 -1.5463 0
M  V30 8371 C 769.655 -3.49994 0.821248 0
M  V30 8372 C 769.319 -3.98738 2.23287 0
M  V30 8373 C 770.316 -4.08965 3.21004 0
M  V30 8374 C 768.001 -4.32247 2.55867 0
M  V30 8375 C 769.995 -4.52025 4.49391 0
M  V30 8376 C 767.682 -4.74991 3.84482 0
M  V30 8377 C 768.68 -4.84844 4.81056 0
M  V30 8378 O 768.368 -5.26638 6.07378 0
M  V30 8379 H 768.1 -0.633265 0.23654 0
M  V30 8380 H 770.654 -1.5991 1.28911 0
M  V30 8381 H 768.884 -3.86543 0.110105 0
M  V30 8382 H 770.573 -4.02859 0.495892 0
M  V30 8383 H 771.339 -3.83302 2.97161 0
M  V30 8384 H 767.218 -4.23801 1.81421 0
M  V30 8385 H 770.762 -4.5963 5.24773 0
M  V30 8386 H 766.659 -5.00101 4.08129 0
M  V30 8387 H 767.427 -5.44807 6.10842 0
M  V30 8388 N 770.09 -0.729906 -1.39679 0
M  V30 8389 C 771.053 -0.0951668 -2.29002 0
M  V30 8390 C 772.053 0.672471 -1.46063 0
M  V30 8391 O 773.243 0.502245 -1.66803 0
M  V30 8392 C 770.375 0.874631 -3.29489 0
M  V30 8393 H 771.568 -0.882062 -2.86635 0
M  V30 8394 H 769.121 -0.495424 -1.4824 0
M  V30 8395 H 769.856 1.68807 -2.76902 0
M  V30 8396 H 769.641 0.326893 -3.90735 0
M  V30 8397 H 771.131 1.31548 -3.96339 0
M  V30 8398 N 771.568 1.50203 -0.477153 0
M  V30 8399 C 772.478 2.32421 0.319027 0
M  V30 8400 C 773.494 1.43075 0.990233 0
M  V30 8401 O 774.67 1.76123 0.976873 0
M  V30 8402 C 771.735 3.17909 1.38328 0
M  V30 8403 C 770.796 4.23082 0.728036 0
M  V30 8404 C 770.029 5.04484 1.74158 0
M  V30 8405 O 770.252 4.8705 2.96881 0
M  V30 8406 O 769.186 5.8747 1.31006 0
M  V30 8407 H 773.012 3.01638 -0.353281 0
M  V30 8408 H 770.597 1.47478 -0.238891 0
M  V30 8409 H 772.479 3.70937 1.9996 0
M  V30 8410 H 771.154 2.51413 2.03895 0
M  V30 8411 H 770.061 3.7403 0.07261 0
M  V30 8412 H 771.394 4.92065 0.115216 0
M  V30 8413 N 773.046 0.209999 1.56195 0
M  V30 8414 C 774.292 -0.425442 1.98287 0
M  V30 8415 C 774.625 -1.60232 1.09724 0
M  V30 8416 O 773.9 -1.93902 0.152414 0
M  V30 8417 C 774.183 -0.871189 3.49403 0
M  V30 8418 C 774.036 0.308527 4.48741 0
M  V30 8419 C 775.355 -1.73146 4.04609 0
M  V30 8420 H 772.474 -0.153169 0.720908 0
M  V30 8421 H 775.116 0.303916 1.87554 0
M  V30 8422 H 773.266 -1.49266 3.58681 0
M  V30 8423 H 774.938 0.946487 4.51486 0
M  V30 8424 H 773.181 0.957878 4.23092 0
M  V30 8425 H 773.852 -0.0461143 5.51981 0
M  V30 8426 H 776.328 -1.2072 3.98203 0
M  V30 8427 H 775.204 -2.01228 5.10684 0
M  V30 8428 H 775.465 -2.69083 3.5078 0
M  V30 8429 N 774.524 -1.57472 -0.0634922 0
M  V30 8430 C 775.772 -1.87283 -0.759563 0
M  V30 8431 C 776.093 -0.803135 -1.77693 0
M  V30 8432 O 775.363 0.167293 -1.95184 0
M  V30 8433 H 773.943 -0.691106 -0.283516 0
M  V30 8434 H 776.605 -1.94864 -0.0376091 0
M  V30 8435 H 775.701 -2.85064 -1.27062 0
M  V30 8436 N 776.003 0.335068 -1.53997 0
M  V30 8437 C 777.249 1.07594 -1.71905 0
M  V30 8438 C 777.582 1.88039 -0.485264 0
M  V30 8439 O 776.857 1.87482 0.517752 0
M  V30 8440 C 777.14 2.01016 -2.98772 0
M  V30 8441 C 776.993 1.23977 -4.32377 0
M  V30 8442 C 778.312 3.0071 -3.21343 0
M  V30 8443 H 775.431 0.38976 -0.625505 0
M  V30 8444 H 778.073 0.353684 -1.86679 0
M  V30 8445 H 776.223 2.62603 -2.86307 0
M  V30 8446 H 777.895 0.649383 -4.56706 0
M  V30 8447 H 776.138 0.541878 -4.30402 0
M  V30 8448 H 776.809 1.92512 -5.17342 0
M  V30 8449 H 779.285 2.4924 -3.33194 0
M  V30 8450 H 778.161 3.63272 -4.11491 0
M  V30 8451 H 778.422 3.72549 -2.38033 0
M  V30 8452 N 777.481 1.45874 0.596531 0
M  V30 8453 C 778.73 1.49737 1.35135 0
M  V30 8454 C 779.043 0.147755 1.95041 0
M  V30 8455 O 780.249 0.0640984 2.71424 0
M  V30 8456 C 778.705 2.6378 2.44843 0
M  V30 8457 C 778.313 4.05102 1.91301 0
M  V30 8458 C 780.057 2.769 3.21755 0
M  V30 8459 C 777.964 5.10508 2.98557 0
M  V30 8460 H 776.894 0.557219 0.507959 0
M  V30 8461 H 779.545 1.72046 0.638147 0
M  V30 8462 H 777.927 2.34774 3.189 0
M  V30 8463 H 779.101 4.43836 1.2388 0
M  V30 8464 H 777.416 3.96528 1.271 0
M  V30 8465 H 780.013 3.52819 4.01775 0
M  V30 8466 H 780.356 1.83924 3.73467 0
M  V30 8467 H 780.889 3.05485 2.54802 0
M  V30 8468 H 777.628 6.0523 2.51749 0
M  V30 8469 H 777.148 4.76332 3.6451 0
M  V30 8470 H 778.827 5.35745 3.62748 0
M  V30 8471 N 778.959 -0.83999 1.33349 0
M  V30 8472 C 780.207 -1.59202 1.24496 0
M  V30 8473 C 780.528 -1.94077 -0.189499 0
M  V30 8474 O 779.798 -1.60868 -1.11796 0
M  V30 8475 H 778.378 -0.590276 0.457802 0
M  V30 8476 H 781.04 -1.00394 1.67054 0
M  V30 8477 H 780.136 -2.52247 1.83788 0
M  V30 8478 N 780.437 -1.16799 -1.0581 0
M  V30 8479 C 781.667 -0.975454 -1.82122 0
M  V30 8480 C 782.075 0.479584 -1.83021 0
M  V30 8481 O 781.418 1.34471 -1.25153 0
M  V30 8482 C 781.48 -1.43209 -3.29744 0
M  V30 8483 C 781.144 -2.908 -3.5254 0
M  V30 8484 C 782.141 -3.88775 -3.45181 0
M  V30 8485 C 779.826 -3.28832 -3.79703 0
M  V30 8486 C 781.82 -5.22782 -3.64661 0
M  V30 8487 C 779.507 -4.63007 -3.98832 0
M  V30 8488 C 780.505 -5.59791 -3.91309 0
M  V30 8489 O 780.193 -6.9154 -4.09911 0
M  V30 8490 H 779.925 -0.345655 -0.580947 0
M  V30 8491 H 782.479 -1.55355 -1.34365 0
M  V30 8492 H 780.709 -0.797504 -3.78387 0
M  V30 8493 H 782.398 -1.2062 -3.87564 0
M  V30 8494 H 783.164 -3.60738 -3.2418 0
M  V30 8495 H 779.043 -2.54073 -3.84666 0
M  V30 8496 H 782.587 -5.98312 -3.58705 0
M  V30 8497 H 778.484 -4.90752 -4.19324 0
M  V30 8498 H 779.252 -6.98188 -4.27172 0
M  V30 8499 N 781.915 1.24427 -0.967243 0
M  V30 8500 C 782.845 2.2773 -0.515899 0
M  V30 8501 C 783.826 1.64197 0.444227 0
M  V30 8502 O 785.011 1.91193 0.340451 0
M  V30 8503 C 782.141 3.46751 0.195149 0
M  V30 8504 C 781.095 4.22548 -0.680953 0
M  V30 8505 C 780.421 5.34456 0.161561 0
M  V30 8506 C 781.721 4.83914 -1.96532 0
M  V30 8507 H 783.415 2.65735 -1.37933 0
M  V30 8508 H 780.961 1.27742 -0.664681 0
M  V30 8509 H 782.914 4.18153 0.522117 0
M  V30 8510 H 781.638 3.07771 1.09292 0
M  V30 8511 H 780.297 3.52946 -0.991186 0
M  V30 8512 H 779.945 4.91716 1.05947 0
M  V30 8513 H 779.645 5.86087 -0.421418 0
M  V30 8514 H 781.169 6.08685 0.483211 0
M  V30 8515 H 782.583 5.47392 -1.70396 0
M  V30 8516 H 780.98 5.45775 -2.49499 0
M  V30 8517 H 782.05 4.05393 -2.66053 0
M  V30 8518 N 783.393 0.737304 1.3929 0
M  V30 8519 C 784.303 0.100464 2.34385 0
M  V30 8520 C 785.319 -0.719282 1.58437 0
M  V30 8521 O 786.495 -0.647216 1.90717 0
M  V30 8522 C 783.56 -0.794325 3.37478 0
M  V30 8523 C 782.621 0.0379345 4.29283 0
M  V30 8524 C 781.854 -0.814241 5.27452 0
M  V30 8525 O 782.077 -2.05288 5.32177 0
M  V30 8526 O 781.011 -0.241679 6.01415 0
M  V30 8527 H 784.837 0.885407 2.90507 0
M  V30 8528 H 782.422 0.497999 1.40856 0
M  V30 8529 H 784.304 -1.30622 4.00644 0
M  V30 8530 H 782.979 -1.55804 2.83737 0
M  V30 8531 H 781.886 0.595405 3.69331 0
M  V30 8532 H 783.219 0.763926 4.86236 0
M  V30 8533 N 784.871 -1.49948 0.485112 0
M  V30 8534 C 786.148 -1.95186 -0.12726 0
M  V30 8535 C 786.528 -1.42605 -1.5565 0
M  V30 8536 O 785.876 -0.632986 -2.19558 0
M  V30 8537 C 786.086 -3.48955 -0.0562117 0
M  V30 8538 C 787.434 -4.23932 -0.238106 0
M  V30 8539 O 788.458 -3.55955 -0.132145 0
M  V30 8540 O 787.317 -5.44614 -0.453658 0
M  V30 8541 H 784.411 -0.820433 -0.104014 0
M  V30 8542 H 786.957 -1.60659 0.546517 0
M  V30 8543 H 785.729 -3.79814 0.941122 0
M  V30 8544 H 785.352 -3.90056 -0.770834 0
M  V30 8545 N 786.349 -0.21828 -1.56081 0
M  V30 8546 C 787.281 0.725447 -2.17416 0
M  V30 8547 C 788.294 1.15995 -1.14233 0
M  V30 8548 O 789.483 1.09166 -1.41227 0
M  V30 8549 C 786.583 1.99401 -2.7403 0
M  V30 8550 C 785.756 1.7156 -4.02351 0
M  V30 8551 C 784.815 2.8309 -4.43561 0
M  V30 8552 O 783.841 2.51701 -5.10525 0
M  V30 8553 N 785.043 4.11972 -4.08973 0
M  V30 8554 H 787.808 0.200801 -2.99027 0
M  V30 8555 H 785.369 -0.0371514 -1.61857 0
M  V30 8556 H 787.361 2.73198 -2.98571 0
M  V30 8557 H 785.931 2.42923 -1.96742 0
M  V30 8558 H 785.151 0.814233 -3.85699 0
M  V30 8559 H 786.439 1.50385 -4.86068 0
M  V30 8560 H 785.837 4.40319 -3.55156 0
M  V30 8561 H 784.394 4.82323 -4.38415 0
M  V30 8562 N 787.827 1.57504 0.0551401 0
M  V30 8563 C 789.076 1.87237 0.750009 0
M  V30 8564 C 789.389 0.813268 1.77891 0
M  V30 8565 O 790.595 0.99898 2.52453 0
M  V30 8566 C 789.051 3.32187 1.38491 0
M  V30 8567 C 788.659 4.46267 0.393707 0
M  V30 8568 C 790.403 3.71101 2.06117 0
M  V30 8569 C 788.31 5.82265 1.03547 0
M  V30 8570 H 787.24 0.698524 0.283866 0
M  V30 8571 H 789.891 1.835 0.00365997 0
M  V30 8572 H 788.273 3.30588 2.18008 0
M  V30 8573 H 789.447 4.59289 -0.372865 0
M  V30 8574 H 787.762 4.16015 -0.17902 0
M  V30 8575 H 790.359 4.70012 2.54937 0
M  V30 8576 H 790.702 3.01751 2.86796 0
M  V30 8577 H 791.235 3.74762 1.33409 0
M  V30 8578 H 787.974 6.54949 0.268644 0
M  V30 8579 H 787.494 5.73012 1.7725 0
M  V30 8580 H 789.173 6.28148 1.55047 0
M  V30 8581 N 789.305 -0.326896 1.54172 0
M  V30 8582 C 790.238 -1.42591 1.78166 0
M  V30 8583 C 791.216 -1.49837 0.631484 0
M  V30 8584 O 792.4 -1.67298 0.868544 0
M  V30 8585 C 789.527 -2.8071 1.89524 0
M  V30 8586 C 788.573 -2.91012 3.11792 0
M  V30 8587 S 789.406 -2.55763 4.70474 0
M  V30 8588 C 790.562 -3.9596 4.84733 0
M  V30 8589 H 790.795 -1.22024 2.71104 0
M  V30 8590 H 788.328 -0.523539 1.45253 0
M  V30 8591 H 790.286 -3.60276 1.96753 0
M  V30 8592 H 788.947 -2.98562 0.975696 0
M  V30 8593 H 788.14 -3.92258 3.16464 0
M  V30 8594 H 787.742 -2.19414 3.02876 0
M  V30 8595 H 790.034 -4.90676 4.67166 0
M  V30 8596 H 790.977 -3.96273 5.86833 0
M  V30 8597 H 791.385 -3.8476 4.13062 0
M  V30 8598 N 790.784 -1.46188 -0.588786 0
M  V30 8599 C 792.009 -1.5498 -1.37826 0
M  V30 8600 C 792.434 -0.189498 -1.87143 0
M  V30 8601 O 791.792 0.829293 -1.61222 0
M  V30 8602 C 791.84 -2.55369 -2.54596 0
M  V30 8603 O 790.944 -2.08452 -3.55839 0
M  V30 8604 H 790.285 -0.521741 -0.41071 0
M  V30 8605 H 792.815 -1.91708 -0.714779 0
M  V30 8606 H 792.825 -2.74782 -3.01594 0
M  V30 8607 H 791.5 -3.54155 -2.18052 0
M  V30 8608 H 790.077 -1.98999 -3.15363 0
M  V30 8609 N 792.262 0.832906 -1.33792 0
M  V30 8610 C 793.192 1.95828 -1.27176 0
M  V30 8611 C 794.173 1.69427 -0.15114 0
M  V30 8612 O 795.358 1.91167 -0.341886 0
M  V30 8613 C 792.488 3.32098 -1.01629 0
M  V30 8614 C 791.442 3.72912 -2.10049 0
M  V30 8615 C 790.768 5.07054 -1.69706 0
M  V30 8616 C 792.068 3.86064 -3.51783 0
M  V30 8617 H 793.762 2.01622 -2.21334 0
M  V30 8618 H 791.308 0.96866 -1.0655 0
M  V30 8619 H 793.261 4.10402 -0.956474 0
M  V30 8620 H 791.985 3.26577 -0.0390956 0
M  V30 8621 H 790.644 2.96876 -2.15082 0
M  V30 8622 H 790.292 4.9801 -0.706737 0
M  V30 8623 H 789.992 5.35333 -2.42264 0
M  V30 8624 H 791.516 5.87827 -1.65202 0
M  V30 8625 H 792.93 4.54665 -3.49218 0
M  V30 8626 H 791.327 4.25787 -4.22878 0
M  V30 8627 H 792.397 2.88344 -3.89854 0
M  V30 8628 N 793.74 1.17359 1.05189 0
M  V30 8629 C 794.69 0.858445 2.11222 0
M  V30 8630 C 795.674 -0.166991 1.60031 0
M  V30 8631 O 796.866 0.0354456 1.76965 0
M  V30 8632 C 793.995 0.373549 3.41262 0
M  V30 8633 C 793.081 1.43041 3.99249 0
M  V30 8634 N 793.472 2.64387 4.312 0
M  V30 8635 C 791.77 1.28828 4.26989 0
M  V30 8636 C 792.471 3.32296 4.77446 0
M  V30 8637 N 791.447 2.59674 4.77567 0
M  V30 8638 H 795.249 1.78104 2.33786 0
M  V30 8639 H 792.763 1.0623 1.22837 0
M  V30 8640 H 794.76 0.129331 4.16699 0
M  V30 8641 H 793.42 -0.542847 3.2013 0
M  V30 8642 H 794.431 3.01351 4.21198 0
M  V30 8643 H 791.108 0.43353 4.15243 0
M  V30 8644 H 792.498 4.35939 5.11279 0
M  V30 8645 N 795.218 -1.23913 0.973828 0
M  V30 8646 C 796.181 -2.23367 0.51378 0
M  V30 8647 C 797.181 -1.55923 -0.39302 0
M  V30 8648 O 798.371 -1.73187 -0.187626 0
M  V30 8649 C 795.503 -3.39944 -0.255152 0
M  V30 8650 H 796.696 -2.65581 1.39307 0
M  V30 8651 H 794.249 -1.36632 0.759039 0
M  V30 8652 H 794.984 -3.03177 -1.15127 0
M  V30 8653 H 794.769 -3.90098 0.395673 0
M  V30 8654 H 796.259 -4.13749 -0.565842 0
M  V30 8655 N 796.696 -0.74468 -1.38897 0
M  V30 8656 C 797.606 -0.112892 -2.34328 0
M  V30 8657 C 798.622 0.71087 -1.58816 0
M  V30 8658 O 799.798 0.637092 -1.91058 0
M  V30 8659 C 796.863 0.776417 -3.37894 0
M  V30 8660 C 795.924 -0.0606999 -4.29257 0
M  V30 8661 C 795.157 0.786258 -5.27877 0
M  V30 8662 O 795.38 2.02463 -5.33259 0
M  V30 8663 O 794.314 0.209781 -6.01534 0
M  V30 8664 H 798.14 -0.900801 -2.90033 0
M  V30 8665 H 795.725 -0.505462 -1.4059 0
M  V30 8666 H 797.607 1.28496 -4.01331 0
M  V30 8667 H 796.282 1.54297 -2.84559 0
M  V30 8668 H 795.189 -0.614984 -3.69011 0
M  V30 8669 H 796.522 -0.789702 -4.85824 0
M  V30 8670 N 798.174 1.49689 -0.493057 0
M  V30 8671 C 799.423 2.01622 0.0560733 0
M  V30 8672 C 799.736 1.37838 1.3878 0
M  V30 8673 O 800.942 1.81054 2.02316 0
M  V30 8674 C 799.398 3.59586 0.150409 0
M  V30 8675 C 799.006 4.32338 -1.1742 0
M  V30 8676 C 800.75 4.19489 0.650327 0
M  V30 8677 C 798.657 5.8214 -1.04246 0
M  V30 8678 H 797.587 0.753594 0.0247297 0
M  V30 8679 H 800.238 1.723 -0.631279 0
M  V30 8680 H 798.62 3.8559 0.902035 0
M  V30 8681 H 799.794 4.18042 -1.9385 0
M  V30 8682 H 798.109 3.84144 -1.60694 0
M  V30 8683 H 800.706 5.29181 0.766272 0
M  V30 8684 H 801.049 3.82326 1.6472 0
M  V30 8685 H 801.582 3.97775 -0.0445371 0
M  V30 8686 H 798.321 6.23814 -2.01336 0
M  V30 8687 H 797.841 5.98952 -0.31892 0
M  V30 8688 H 799.52 6.43004 -0.717957 0
M  V30 8689 N 799.652 0.226554 1.55963 0
M  V30 8690 C 800.585 -0.721625 2.1649 0
M  V30 8691 C 801.563 -1.18745 1.11078 0
M  V30 8692 O 802.747 -1.26929 1.3936 0
M  V30 8693 C 799.874 -1.97828 2.74921 0
M  V30 8694 C 798.92 -1.65202 3.93206 0
M  V30 8695 S 799.753 -0.772419 5.299 0
M  V30 8696 C 800.909 -2.03853 5.91773 0
M  V30 8697 H 801.142 -0.207192 2.96577 0
M  V30 8698 H 798.675 0.0111976 1.54396 0
M  V30 8699 H 800.633 -2.69982 3.09225 0
M  V30 8700 H 799.294 -2.46384 1.94817 0
M  V30 8701 H 798.487 -2.58583 4.32609 0
M  V30 8702 H 798.089 -1.01108 3.60074 0
M  V30 8703 H 800.381 -2.98799 6.08051 0
M  V30 8704 H 801.324 -1.68831 6.87678 0
M  V30 8705 H 801.732 -2.18134 5.20651 0
M  V30 8706 N 801.13 -1.57531 -0.0467866 0
M  V30 8707 C 802.04 -2.08768 -1.07018 0
M  V30 8708 C 803.056 -1.02245 -1.40791 0
M  V30 8709 O 804.232 -1.33873 -1.50466 0
M  V30 8710 C 801.297 -2.54221 -2.35738 0
M  V30 8711 C 800.358 -3.75152 -2.08709 0
M  V30 8712 C 799.591 -4.18428 -3.31291 0
M  V30 8713 O 799.814 -3.61365 -4.4133 0
M  V30 8714 O 798.748 -5.11018 -3.18032 0
M  V30 8715 H 802.574 -2.96334 -0.664812 0
M  V30 8716 H 800.159 -1.47074 -0.262605 0
M  V30 8717 H 802.041 -2.83866 -3.11445 0
M  V30 8718 H 800.716 -1.69774 -2.75605 0
M  V30 8719 H 799.623 -3.50553 -1.30627 0
M  V30 8720 H 800.956 -4.60528 -1.73708 0
M  V30 8721 N 802.608 0.318715 -1.54344 0
M  V30 8722 C 803.538 1.39751 -1.87061 0
M  V30 8723 C 804.519 1.53741 -0.727848 0
M  V30 8724 O 805.704 1.67541 -0.982016 0
M  V30 8725 C 802.834 2.76446 -2.10226 0
M  V30 8726 C 801.788 2.77239 -3.26071 0
M  V30 8727 C 801.114 4.17056 -3.34617 0
M  V30 8728 C 802.414 2.40555 -4.63606 0
M  V30 8729 H 804.108 1.12619 -2.77412 0
M  V30 8730 H 801.654 0.540318 -1.33479 0
M  V30 8731 H 803.607 3.51985 -2.31699 0
M  V30 8732 H 802.331 3.05066 -1.16629 0
M  V30 8733 H 800.99 2.04155 -3.04493 0
M  V30 8734 H 800.638 4.42824 -2.3857 0
M  V30 8735 H 800.338 4.18492 -4.12478 0
M  V30 8736 H 801.862 4.94401 -3.5833 0
M  V30 8737 H 803.276 3.05808 -4.84927 0
M  V30 8738 H 801.673 2.53234 -5.44052 0
M  V30 8739 H 802.743 1.35698 -4.65526 0
M  V30 8740 N 804.086 1.46499 0.581025 0
M  V30 8741 C 805.018 1.53225 1.70455 0
M  V30 8742 C 806.031 0.420443 1.57277 0
M  V30 8743 O 807.22 0.688888 1.64671 0
M  V30 8744 C 804.32 1.39803 3.08721 0
M  V30 8745 C 803.493 2.65132 3.47884 0
M  V30 8746 C 802.552 2.45886 4.65217 0
M  V30 8747 O 801.578 3.19615 4.70993 0
M  V30 8748 N 802.78 1.5216 5.60203 0
M  V30 8749 H 805.545 2.50098 1.65139 0
M  V30 8750 H 803.106 1.42576 0.76705 0
M  V30 8751 H 805.098 1.24697 3.8501 0
M  V30 8752 H 803.668 0.51104 3.08394 0
M  V30 8753 H 802.888 2.95169 2.61284 0
M  V30 8754 H 804.176 3.48385 3.70817 0
M  V30 8755 H 803.574 0.913646 5.58273 0
M  V30 8756 H 802.131 1.43017 6.35916 0
M  V30 8757 N 805.565 -0.825799 1.34232 0
M  V30 8758 C 806.512 -1.93651 1.2557 0
M  V30 8759 C 807.482 -1.65578 0.131536 0
M  V30 8760 O 808.667 -1.88231 0.312027 0
M  V30 8761 C 805.807 -3.29862 1.01415 0
M  V30 8762 C 804.92 -3.70247 2.22579 0
M  V30 8763 C 804.055 -4.95392 1.91731 0
M  V30 8764 C 803.094 -5.28349 3.09053 0
M  V30 8765 N 802.231 -6.44671 2.78107 0
M  V30 8766 H 807.071 -2.00392 2.20561 0
M  V30 8767 H 804.608 -0.980441 1.09662 0
M  V30 8768 H 806.566 -4.08356 0.854485 0
M  V30 8769 H 805.196 -3.22642 0.100936 0
M  V30 8770 H 804.248 -2.87169 2.49476 0
M  V30 8771 H 805.56 -3.90575 3.10246 0
M  V30 8772 H 804.714 -5.81665 1.72484 0
M  V30 8773 H 803.453 -4.77059 1.0132 0
M  V30 8774 H 802.458 -4.40574 3.289 0
M  V30 8775 H 803.683 -5.48622 4.00239 0
M  V30 8776 H 801.629 -6.278 1.9027 0
M  V30 8777 H 801.546 -6.65158 3.59306 0
M  V30 8778 H 802.814 -7.34022 2.62358 0
M  V30 8779 N 807.043 -1.17915 -1.04565 0
M  V30 8780 C 808.268 -0.996749 -1.81878 0
M  V30 8781 C 808.693 0.450169 -1.82634 0
M  V30 8782 O 808.051 1.32268 -1.23995 0
M  V30 8783 C 808.099 -1.55005 -3.25585 0
M  V30 8784 O 807.203 -0.76804 -4.05185 0
M  V30 8785 H 806.544 -0.353456 -0.562108 0
M  V30 8786 H 809.074 -1.56557 -1.31723 0
M  V30 8787 H 809.084 -1.57503 -3.76373 0
M  V30 8788 H 807.759 -2.60327 -3.2435 0
M  V30 8789 H 806.336 -0.81498 -3.63885 0
M  V30 8790 N 808.521 1.23394 -0.980386 0
M  V30 8791 C 809.932 1.73631 -0.686239 0
M  V30 8792 C 810.283 1.79259 0.797541 0
M  V30 8793 O 809.408 1.43046 1.62379 0
M  V30 8794 C 810.003 3.15332 -1.239 0
M  V30 8795 C 808.562 3.63024 -0.994494 0
M  V30 8796 C 807.709 2.41279 -1.36673 0
M  V30 8797 H 810.66 1.08918 -1.15423 0
M  V30 8798 H 810.681 3.75556 -0.611414 0
M  V30 8799 H 810.193 3.11204 -2.31892 0
M  V30 8800 H 808.294 3.72535 0.0693492 0
M  V30 8801 H 808.407 4.49825 -1.64906 0
M  V30 8802 H 806.771 2.42295 -0.785195 0
M  V30 8803 H 807.554 2.39822 -2.45642 0
M  V30 8804 N 809.999 0.752036 1.385 0
M  V30 8805 C 811.229 0.317812 2.04141 0
M  V30 8806 C 811.637 -1.05822 1.56839 0
M  V30 8807 O 810.98 -1.68311 0.736016 0
M  V30 8808 C 811.042 0.260205 3.58557 0
M  V30 8809 C 810.706 1.57753 4.28909 0
M  V30 8810 C 811.703 2.52642 4.54387 0
M  V30 8811 C 809.388 1.84653 4.67128 0
M  V30 8812 C 811.382 3.72653 5.17116 0
M  V30 8813 C 809.069 3.04938 5.29581 0
M  V30 8814 C 810.067 3.98759 5.54509 0
M  V30 8815 O 809.755 5.16929 6.15662 0
M  V30 8816 H 809.487 0.133931 0.6626 0
M  V30 8817 H 812.041 1.02138 1.78205 0
M  V30 8818 H 810.271 -0.499596 3.83459 0
M  V30 8819 H 811.96 -0.144295 4.05643 0
M  V30 8820 H 812.726 2.33135 4.25292 0
M  V30 8821 H 808.605 1.12464 4.47071 0
M  V30 8822 H 812.149 4.45898 5.36489 0
M  V30 8823 H 808.046 3.24339 5.58099 0
M  V30 8824 H 808.814 5.1749 6.3415 0
M  V30 8825 N 811.477 -1.49425 0.500989 0
M  V30 8826 C 812.725 -2.02053 -0.0434495 0
M  V30 8827 C 813.046 -1.38285 -1.37486 0
M  V30 8828 O 812.316 -0.538171 -1.88363 0
M  V30 8829 H 810.896 -0.746757 -0.0190469 0
M  V30 8830 H 813.558 -1.83449 0.658227 0
M  V30 8831 H 812.654 -3.11619 -0.173129 0
M  V30 8832 N 812.955 -0.234822 -1.55841 0
M  V30 8833 C 814.371 0.120295 -1.59146 0
M  V30 8834 C 814.571 1.57896 -1.25184 0
M  V30 8835 O 813.627 2.32138 -0.993393 0
M  V30 8836 C 814.94 -0.217984 -2.99909 0
M  V30 8837 C 816.488 -0.161298 -3.12584 0
M  V30 8838 C 816.963 -0.473438 -4.55546 0
M  V30 8839 N 818.454 -0.423494 -4.6126 0
M  V30 8840 C 819.189 -0.638334 -5.69836 0
M  V30 8841 N 818.685 -0.915659 -6.86722 0
M  V30 8842 N 820.478 -0.569864 -5.59204 0
M  V30 8843 H 812.629 -1.18622 -1.76189 0
M  V30 8844 H 814.892 -0.476426 -0.819587 0
M  V30 8845 H 814.598 -1.2309 -3.29457 0
M  V30 8846 H 814.472 0.460707 -3.74376 0
M  V30 8847 H 816.859 0.842274 -2.82825 0
M  V30 8848 H 816.94 -0.873661 -2.40418 0
M  V30 8849 H 816.584 -1.47451 -4.86025 0
M  V30 8850 H 816.514 0.260268 -5.25956 0
M  V30 8851 H 819.005 -0.217383 -3.77274 0
M  V30 8852 H 819.318 -1.06734 -7.65394 0
M  V30 8853 H 817.663 -0.953 -6.88435 0
M  V30 8854 H 820.854 -0.35334 -4.66765 0
M  V30 8855 H 821.027 -0.740698 -6.43753 0
M  V30 8856 N 814.433 1.57553 0.0384317 0
M  V30 8857 C 815.849 1.54663 0.39391 0
M  V30 8858 C 816.049 0.959685 1.77179 0
M  V30 8859 O 815.105 0.576647 2.45827 0
M  V30 8860 C 816.418 2.99156 0.304352 0
M  V30 8861 C 817.966 3.10659 0.382119 0
M  V30 8862 C 818.441 4.56866 0.322111 0
M  V30 8863 N 819.932 4.61629 0.38119 0
M  V30 8864 C 820.667 5.72284 0.357501 0
M  V30 8865 N 820.163 6.92207 0.286654 0
M  V30 8866 N 821.956 5.60628 0.406538 0
M  V30 8867 H 814.107 1.9406 -0.86339 0
M  V30 8868 H 816.37 0.889673 -0.327392 0
M  V30 8869 H 816.076 3.45788 -0.642141 0
M  V30 8870 H 815.95 3.60753 1.10168 0
M  V30 8871 H 818.337 2.6398 1.31904 0
M  V30 8872 H 818.418 2.5191 -0.444391 0
M  V30 8873 H 818.062 5.0421 -0.611104 0
M  V30 8874 H 817.992 5.13515 1.1666 0
M  V30 8875 H 820.483 3.75343 0.438838 0
M  V30 8876 H 820.796 7.72316 0.273421 0
M  V30 8877 H 819.141 6.9454 0.252841 0
M  V30 8878 H 822.332 4.65836 0.459812 0
M  V30 8879 H 822.505 6.46858 0.384608 0
M  V30 8880 N 815.911 -0.310526 1.54511 0
M  V30 8881 C 816.843 -1.40405 1.8116 0
M  V30 8882 C 817.856 -1.47261 0.694114 0
M  V30 8883 O 819.045 -1.49751 0.971441 0
M  V30 8884 C 816.145 -2.78849 1.92604 0
M  V30 8885 C 815.318 -2.95041 3.22908 0
M  V30 8886 C 814.377 -4.13925 3.24889 0
M  V30 8887 O 813.403 -4.06463 3.98467 0
M  V30 8888 N 814.605 -5.24099 2.496 0
M  V30 8889 H 817.37 -1.17903 2.75534 0
M  V30 8890 H 814.931 -0.500564 1.53967 0
M  V30 8891 H 816.923 -3.5661 1.91342 0
M  V30 8892 H 815.493 -2.94342 1.05268 0
M  V30 8893 H 814.713 -2.04472 3.37023 0
M  V30 8894 H 816.001 -3.02763 4.08916 0
M  V30 8895 H 815.399 -5.33039 1.89435 0
M  V30 8896 H 813.956 -6.0023 2.54102 0
M  V30 8897 N 817.389 -1.46805 -0.573248 0
M  V30 8898 C 818.637 -1.52302 -1.32847 0
M  V30 8899 C 818.958 -0.180159 -1.94166 0
M  V30 8900 O 818.228 0.794291 -1.79075 0
M  V30 8901 H 816.808 -0.56097 -0.493276 0
M  V30 8902 H 819.47 -1.82998 -0.670642 0
M  V30 8903 H 818.566 -2.28089 -2.13031 0
M  V30 8904 N 818.867 0.818669 -1.34668 0
M  V30 8905 C 820.144 1.56118 -1.17841 0
M  V30 8906 C 820.524 2.09646 0.24731 0
M  V30 8907 O 819.872 1.91329 1.24922 0
M  V30 8908 C 820.082 2.67922 -2.23649 0
M  V30 8909 C 821.43 3.36579 -2.58843 0
M  V30 8910 O 822.454 2.78182 -2.22471 0
M  V30 8911 O 821.313 4.42045 -3.21339 0
M  V30 8912 H 818.407 0.689216 -0.457067 0
M  V30 8913 H 820.953 0.859674 -1.46314 0
M  V30 8914 H 819.725 2.26153 -3.19328 0
M  V30 8915 H 819.348 3.45719 -1.96377 0
M  V30 8916 N 820.346 1.18468 1.03938 0
M  V30 8917 C 821.276 0.936389 2.13902 0
M  V30 8918 C 822.257 -0.126381 1.6963 0
M  V30 8919 O 823.442 0.0264757 1.94182 0
M  V30 8920 C 820.572 0.462729 3.44204 0
M  V30 8921 C 819.526 1.46613 4.02105 0
M  V30 8922 C 818.852 0.84994 5.27902 0
M  V30 8923 C 820.152 2.84323 4.3813 0
M  V30 8924 H 821.846 1.85602 2.3493 0
M  V30 8925 H 819.392 0.893806 1.12903 0
M  V30 8926 H 821.345 0.276382 4.20493 0
M  V30 8927 H 820.069 -0.492477 3.22866 0
M  V30 8928 H 818.728 1.63944 3.27899 0
M  V30 8929 H 818.376 -0.112493 5.02874 0
M  V30 8930 H 818.076 1.51988 5.67603 0
M  V30 8931 H 819.6 0.674152 6.06867 0
M  V30 8932 H 821.014 2.70636 5.054 0
M  V30 8933 H 819.411 3.48012 4.88884 0
M  V30 8934 H 820.481 3.37776 3.47901 0
M  V30 8935 N 821.824 -1.22873 0.986916 0
M  V30 8936 C 822.757 -2.23154 0.477245 0
M  V30 8937 C 823.735 -1.55981 -0.459206 0
M  V30 8938 O 824.919 -1.84503 -0.386141 0
M  V30 8939 C 822.046 -3.37289 -0.308838 0
M  V30 8940 C 821.092 -4.22637 0.572717 0
M  V30 8941 S 821.925 -4.95758 2.02446 0
M  V30 8942 C 823.081 -6.13338 1.2477 0
M  V30 8943 H 823.314 -2.6604 1.32702 0
M  V30 8944 H 820.847 -1.32455 0.793415 0
M  V30 8945 H 822.805 -4.03472 -0.756351 0
M  V30 8946 H 821.466 -2.92922 -1.13381 0
M  V30 8947 H 820.659 -5.0399 -0.0318024 0
M  V30 8948 H 820.261 -3.61555 0.956746 0
M  V30 8949 H 822.553 -6.7556 0.51231 0
M  V30 8950 H 823.496 -6.78189 2.03629 0
M  V30 8951 H 823.904 -5.59311 0.763622 0
M  V30 8952 N 823.302 -0.75937 -1.38099 0
M  V30 8953 C 824.212 -0.13774 -2.34195 0
M  V30 8954 C 825.228 0.693985 -1.59561 0
M  V30 8955 O 826.404 0.616792 -1.91723 0
M  V30 8956 C 823.469 0.740535 -3.38699 0
M  V30 8957 C 822.53 -0.106225 -4.29169 0
M  V30 8958 C 821.763 0.730225 -5.28681 0
M  V30 8959 O 821.986 1.96796 -5.35376 0
M  V30 8960 O 820.92 0.145969 -6.01723 0
M  V30 8961 H 824.746 -0.931512 -2.89061 0
M  V30 8962 H 822.331 -0.520345 -1.40046 0
M  V30 8963 H 824.213 1.24232 -4.02672 0
M  V30 8964 H 822.888 1.51271 -2.8618 0
M  V30 8965 H 821.795 -0.654088 -3.68337 0
M  V30 8966 H 823.128 -0.841186 -4.84959 0
M  V30 8967 N 824.78 1.49157 -0.508906 0
M  V30 8968 C 826.005 2.07376 0.0315182 0
M  V30 8969 C 826.43 1.36575 1.2934 0
M  V30 8970 O 825.788 0.424963 1.76249 0
M  V30 8971 C 825.836 3.59661 0.260118 0
M  V30 8972 O 824.94 3.90255 1.33322 0
M  V30 8973 H 824.281 0.663334 -0.029739 0
M  V30 8974 H 826.811 1.91857 -0.710791 0
M  V30 8975 H 826.821 4.05056 0.489225 0
M  V30 8976 H 825.496 4.10601 -0.661794 0
M  V30 8977 H 824.073 3.56661 1.08844 0
M  V30 8978 N 826.258 0.243083 1.55714 0
M  V30 8979 C 827.188 -0.652336 2.24203 0
M  V30 8980 C 828.169 -1.1843 1.221 0
M  V30 8981 O 829.354 -1.22435 1.50743 0
M  V30 8982 C 826.484 -1.85111 2.93856 0
M  V30 8983 C 825.438 -1.45208 4.02615 0
M  V30 8984 C 824.764 -2.73137 4.59674 0
M  V30 8985 C 826.064 -0.625988 5.18535 0
M  V30 8986 H 827.758 -0.0812504 2.9929 0
M  V30 8987 H 825.304 -0.0376388 1.43951 0
M  V30 8988 H 827.257 -2.48314 3.40468 0
M  V30 8989 H 825.981 -2.44751 2.16251 0
M  V30 8990 H 824.64 -0.843406 3.56766 0
M  V30 8991 H 824.288 -3.30967 3.78774 0
M  V30 8992 H 823.988 -2.47163 5.33089 0
M  V30 8993 H 825.512 -3.37245 5.09017 0
M  V30 8994 H 826.926 -1.16223 5.61396 0
M  V30 8995 H 825.323 -0.462465 5.98315 0
M  V30 8996 H 826.393 0.362652 4.83542 0
M  V30 8997 N 827.736 -1.57571 -0.0300757 0
M  V30 8998 C 828.646 -2.09892 -1.04798 0
M  V30 8999 C 829.662 -1.03732 -1.39698 0
M  V30 9000 O 830.838 -1.35461 -1.49038 0
M  V30 9001 C 827.903 -2.56707 -2.33028 0
M  V30 9002 C 826.964 -3.77345 -2.04718 0
M  V30 9003 C 826.197 -4.21918 -3.26834 0
M  V30 9004 O 826.42 -3.66025 -4.37472 0
M  V30 9005 O 825.354 -5.14362 -3.12594 0
M  V30 9006 H 829.18 -2.97023 -0.633344 0
M  V30 9007 H 826.765 -1.47344 -0.246991 0
M  V30 9008 H 828.647 -2.87154 -3.08417 0
M  V30 9009 H 827.322 -1.72688 -2.73789 0
M  V30 9010 H 826.229 -3.51919 -1.26901 0
M  V30 9011 H 827.562 -4.62345 -1.68813 0
M  V30 9012 N 829.214 0.302327 -1.54673 0
M  V30 9013 C 830.146 1.39443 -1.81902 0
M  V30 9014 C 831.159 1.46891 -0.701914 0
M  V30 9015 O 832.348 1.49233 -0.979369 0
M  V30 9016 C 829.448 2.77824 -1.9408 0
M  V30 9017 C 828.621 2.93324 -3.24468 0
M  V30 9018 C 827.68 4.12196 -3.27079 0
M  V30 9019 O 826.706 4.04344 -4.00617 0
M  V30 9020 N 827.908 5.22768 -2.52376 0
M  V30 9021 H 830.673 1.1644 -2.76155 0
M  V30 9022 H 828.234 0.492392 -1.54231 0
M  V30 9023 H 830.226 3.5559 -1.9323 0
M  V30 9024 H 828.796 2.9378 -1.06828 0
M  V30 9025 H 828.016 2.02682 -3.38103 0
M  V30 9026 H 829.304 3.0059 -4.10516 0
M  V30 9027 H 828.702 5.32027 -1.92259 0
M  V30 9028 H 827.259 5.98874 -2.57281 0
M  V30 9029 N 830.692 1.47107 0.565454 0
M  V30 9030 C 832.108 1.32443 0.890566 0
M  V30 9031 C 832.308 0.308735 1.99121 0
M  V30 9032 O 831.364 -0.28265 2.50913 0
M  V30 9033 C 832.677 2.71548 1.2916 0
M  V30 9034 C 834.225 2.7977 1.40349 0
M  V30 9035 C 834.7 4.19497 1.83811 0
M  V30 9036 N 836.191 4.21998 1.90975 0
M  V30 9037 C 836.926 5.2702 2.25916 0
M  V30 9038 N 836.422 6.42353 2.59527 0
M  V30 9039 N 838.215 5.14393 2.26619 0
M  V30 9040 H 830.366 2.11786 -0.161328 0
M  V30 9041 H 832.629 0.947952 -0.00950631 0
M  V30 9042 H 832.335 3.47265 0.556753 0
M  V30 9043 H 832.209 3.02782 2.24951 0
M  V30 9044 H 834.596 2.0433 2.12916 0
M  V30 9045 H 834.677 2.522 0.427655 0
M  V30 9046 H 834.321 4.95439 1.11816 0
M  V30 9047 H 834.251 4.44486 2.82382 0
M  V30 9048 H 836.742 3.38791 1.6742 0
M  V30 9049 H 837.055 7.18252 2.85191 0
M  V30 9050 H 835.4 6.45687 2.57126 0
M  V30 9051 H 838.591 4.2332 1.99794 0
M  V30 9052 H 838.764 5.96349 2.5352 0
M  V30 9053 N 832.17 -0.811516 1.35101 0
M  V30 9054 C 833.133 -1.90467 1.27495 0
M  V30 9055 C 834.133 -1.59703 0.187516 0
M  V30 9056 O 835.323 -1.68528 0.440896 0
M  V30 9057 C 832.455 -3.26774 0.971154 0
M  V30 9058 H 833.648 -1.98631 2.2469 0
M  V30 9059 H 831.201 -1.00681 1.19553 0
M  V30 9060 H 831.936 -3.243 0.0028557 0
M  V30 9061 H 831.721 -3.50488 1.75785 0
M  V30 9062 H 833.211 -4.06804 0.943414 0
M  V30 9063 N 833.648 -1.19017 -1.03309 0
M  V30 9064 C 834.897 -0.984542 -1.76039 0
M  V30 9065 C 835.21 0.485937 -1.89468 0
M  V30 9066 O 836.416 0.810278 -2.59127 0
M  V30 9067 C 834.872 -1.71261 -3.1654 0
M  V30 9068 C 834.48 -3.22291 -3.11179 0
M  V30 9069 C 836.224 -1.59007 -3.93595 0
M  V30 9070 C 834.131 -3.87704 -4.46587 0
M  V30 9071 H 833.061 -0.364749 -0.659905 0
M  V30 9072 H 835.712 -1.4247 -1.15649 0
M  V30 9073 H 834.094 -1.20025 -3.77373 0
M  V30 9074 H 835.268 -3.80611 -2.59753 0
M  V30 9075 H 833.583 -3.34772 -2.47622 0
M  V30 9076 H 836.18 -2.05232 -4.93745 0
M  V30 9077 H 836.523 -0.543534 -4.12736 0
M  V30 9078 H 837.056 -2.07564 -3.39355 0
M  V30 9079 H 833.795 -4.92437 -4.3265 0
M  V30 9080 H 833.315 -3.34172 -4.98085 0
M  V30 9081 H 834.994 -3.91008 -5.15482 0
M  V30 9082 N 835.127 1.22348 -0.993418 0
M  V30 9083 C 836.404 1.86632 -0.585495 0
M  V30 9084 C 836.784 1.89156 0.937187 0
M  V30 9085 O 836.132 1.38247 1.81934 0
M  V30 9086 C 836.342 3.27481 -1.20652 0
M  V30 9087 C 837.69 4.03971 -1.30738 0
M  V30 9088 O 838.714 3.3675 -1.16096 0
M  V30 9089 O 837.573 5.24302 -1.54173 0
M  V30 9090 H 834.667 0.802704 -0.198984 0
M  V30 9091 H 837.213 1.30122 -1.08933 0
M  V30 9092 H 835.985 3.20281 -2.24802 0
M  V30 9093 H 835.608 3.91597 -0.688312 0
M  V30 9094 N 836.605 0.766683 1.37694 0
M  V30 9095 C 837.535 0.163432 2.32927 0
M  V30 9096 C 838.516 -0.688861 1.55527 0
M  V30 9097 O 839.701 -0.627363 1.83787 0
M  V30 9098 C 836.831 -0.720416 3.39746 0
M  V30 9099 C 835.785 0.0301718 4.27989 0
M  V30 9100 C 835.111 -0.972788 5.25776 0
M  V30 9101 C 836.411 1.20623 5.0818 0
M  V30 9102 H 838.105 0.958988 2.83626 0
M  V30 9103 H 835.651 0.462601 1.36367 0
M  V30 9104 H 837.604 -1.15221 4.05342 0
M  V30 9105 H 836.328 -1.54844 2.8756 0
M  V30 9106 H 834.987 0.442685 3.63917 0
M  V30 9107 H 834.635 -1.79522 4.69873 0
M  V30 9108 H 834.335 -0.475145 5.85676 0
M  V30 9109 H 835.859 -1.40362 5.94248 0
M  V30 9110 H 837.273 0.851341 5.66944 0
M  V30 9111 H 835.67 1.63561 5.7738 0
M  V30 9112 H 836.74 2.01281 4.41151 0
M  V30 9113 N 838.083 -1.48885 0.516809 0
M  V30 9114 C 839.313 -2.06592 -0.018375 0
M  V30 9115 C 839.721 -1.37543 -1.29917 0
M  V30 9116 O 839.064 -0.452527 -1.78039 0
M  V30 9117 C 839.126 -3.58016 -0.326315 0
M  V30 9118 C 838.79 -4.48853 0.859072 0
M  V30 9119 C 839.787 -4.89422 1.75391 0
M  V30 9120 C 837.472 -4.90937 1.06235 0
M  V30 9121 C 839.466 -5.70831 2.83604 0
M  V30 9122 C 837.153 -5.72119 2.14763 0
M  V30 9123 C 838.151 -6.11972 3.03281 0
M  V30 9124 O 837.839 -6.91527 4.09934 0
M  V30 9125 H 837.571 -0.675559 0.0244023 0
M  V30 9126 H 840.125 -1.92442 0.718005 0
M  V30 9127 H 838.355 -3.70231 -1.1165 0
M  V30 9128 H 840.044 -3.97898 -0.801999 0
M  V30 9129 H 840.81 -4.57542 1.60875 0
M  V30 9130 H 836.689 -4.59409 0.382677 0
M  V30 9131 H 840.233 -6.01857 3.52724 0
M  V30 9132 H 836.13 -6.03412 2.29268 0
M  V30 9133 H 836.898 -7.0986 4.07482 0
M  V30 9134 N 839.561 -0.251338 -1.55583 0
M  V30 9135 C 840.508 0.646337 -2.21565 0
M  V30 9136 C 841.478 1.16796 -1.18102 0
M  V30 9137 O 842.663 1.22162 -1.46564 0
M  V30 9138 C 839.803 1.83557 -2.92234 0
M  V30 9139 C 838.916 1.35006 -4.10363 0
M  V30 9140 C 838.051 2.4992 -4.68736 0
M  V30 9141 C 837.09 1.98253 -5.79105 0
M  V30 9142 N 836.227 3.06551 -6.31642 0
M  V30 9143 H 841.067 0.0769881 -2.97901 0
M  V30 9144 H 838.604 0.026238 -1.47077 0
M  V30 9145 H 840.562 2.53425 -3.31408 0
M  V30 9146 H 839.192 2.37733 -2.18364 0
M  V30 9147 H 838.244 0.545274 -3.76472 0
M  V30 9148 H 839.556 0.931435 -4.90026 0
M  V30 9149 H 838.71 3.27823 -5.10507 0
M  V30 9150 H 837.449 2.95086 -3.88298 0
M  V30 9151 H 836.454 1.18822 -5.36807 0
M  V30 9152 H 837.679 1.54051 -6.61396 0
M  V30 9153 H 835.625 3.51143 -5.54107 0
M  V30 9154 H 835.542 2.69033 -7.06511 0
M  V30 9155 H 836.81 3.84499 -6.78071 0
M  V30 9156 N 841.039 1.57585 0.0217189 0
M  V30 9157 C 841.971 2.03849 1.04777 0
M  V30 9158 C 842.984 0.952558 1.32023 0
M  V30 9159 O 844.173 1.22974 1.29381 0
M  V30 9160 C 841.273 2.40504 2.3877 0
M  V30 9161 C 840.446 3.71566 2.30775 0
M  V30 9162 C 839.505 3.95329 3.47277 0
M  V30 9163 O 838.531 4.66289 3.26441 0
M  V30 9164 N 839.733 3.41536 4.69397 0
M  V30 9165 H 842.498 2.92491 0.653395 0
M  V30 9166 H 840.059 1.60538 0.209527 0
M  V30 9167 H 842.051 2.53532 3.15442 0
M  V30 9168 H 840.621 1.57494 2.70027 0
M  V30 9169 H 839.841 3.68822 1.39155 0
M  V30 9170 H 841.129 4.5753 2.22584 0
M  V30 9171 H 840.527 2.84033 4.89226 0
M  V30 9172 H 839.084 3.59932 5.43408 0
M  V30 9173 N 842.517 -0.29412 1.54831 0
M  V30 9174 C 843.447 -1.36757 1.89261 0
M  V30 9175 C 844.428 -1.52564 0.752214 0
M  V30 9176 O 845.613 -1.65958 1.00855 0
M  V30 9177 C 842.743 -2.73066 2.14597 0
M  V30 9178 C 841.697 -2.72017 3.3044 0
M  V30 9179 C 841.023 -4.11679 3.4121 0
M  V30 9180 C 842.323 -2.33149 4.67375 0
M  V30 9181 H 844.017 -1.08191 2.79169 0
M  V30 9182 H 841.563 -0.519014 1.34321 0
M  V30 9183 H 843.516 -3.48255 2.37269 0
M  V30 9184 H 842.24 -3.03172 1.21467 0
M  V30 9185 H 840.899 -1.99285 3.07703 0
M  V30 9186 H 840.547 -4.38973 2.45584 0
M  V30 9187 H 840.247 -4.11877 4.19084 0
M  V30 9188 H 841.771 -4.88637 3.6615 0
M  V30 9189 H 843.185 -2.98054 4.89731 0
M  V30 9190 H 841.582 -2.44546 5.48012 0
M  V30 9191 H 842.652 -1.28275 4.67626 0
M  V30 9192 N 843.995 -1.47404 -0.557645 0
M  V30 9193 C 844.942 -1.59859 -1.66475 0
M  V30 9194 C 845.912 -0.441644 -1.60121 0
M  V30 9195 O 847.097 -0.661641 -1.78961 0
M  V30 9196 C 844.237 -1.61843 -3.04797 0
M  V30 9197 C 843.35 -2.8845 -3.2159 0
M  V30 9198 C 842.485 -2.81773 -4.50308 0
M  V30 9199 C 841.524 -4.03208 -4.60532 0
M  V30 9200 N 840.661 -3.94769 -5.80604 0
M  V30 9201 H 845.501 -2.54415 -1.55168 0
M  V30 9202 H 843.038 -1.26194 -0.755876 0
M  V30 9203 H 844.996 -1.60976 -3.84893 0
M  V30 9204 H 843.626 -0.707997 -3.1494 0
M  V30 9205 H 842.678 -2.99186 -2.34929 0
M  V30 9206 H 843.99 -3.78379 -3.25009 0
M  V30 9207 H 843.144 -2.79153 -5.38663 0
M  V30 9208 H 841.883 -1.89527 -4.49367 0
M  V30 9209 H 840.888 -4.06133 -3.70589 0
M  V30 9210 H 842.113 -4.9658 -4.63233 0
M  V30 9211 H 840.059 -3.05326 -5.80613 0
M  V30 9212 H 839.976 -4.78375 -5.854 0
M  V30 9213 H 841.244 -3.96165 -6.71322 0
M  V30 9214 N 845.473 0.80434 -1.35529 0
M  V30 9215 C 846.423 1.90565 -1.25175 0
M  V30 9216 C 847.407 1.60232 -0.146512 0
M  V30 9217 O 848.599 1.72918 -0.377943 0
M  V30 9218 C 845.728 3.2754 -1.02823 0
M  V30 9219 C 844.814 3.63932 -2.17748 0
M  V30 9220 N 845.205 3.71744 -3.42986 0
M  V30 9221 C 843.503 3.93901 -2.09184 0
M  V30 9222 C 844.204 4.03944 -4.18574 0
M  V30 9223 N 843.18 4.18146 -3.47355 0
M  V30 9224 H 846.982 1.9481 -2.20059 0
M  V30 9225 H 844.496 0.99905 -1.28034 0
M  V30 9226 H 846.493 4.06281 -0.934941 0
M  V30 9227 H 845.153 3.2458 -0.0882551 0
M  V30 9228 H 846.164 3.54765 -3.77309 0
M  V30 9229 H 842.841 3.98954 -1.23054 0
M  V30 9230 H 844.231 4.17036 -5.26811 0
M  V30 9231 N 846.951 1.19563 1.02676 0
M  V30 9232 C 848.367 0.948304 1.28372 0
M  V30 9233 C 848.567 -0.378096 1.97921 0
M  V30 9234 O 847.623 -1.1091 2.26838 0
M  V30 9235 C 848.936 2.12381 2.12873 0
M  V30 9236 C 850.484 2.16366 2.26174 0
M  V30 9237 C 850.959 3.33374 3.14048 0
M  V30 9238 N 852.45 3.33323 3.21636 0
M  V30 9239 C 853.185 4.20504 3.89825 0
M  V30 9240 N 852.681 5.17845 4.60227 0
M  V30 9241 N 854.474 4.08375 3.86246 0
M  V30 9242 H 846.625 2.04899 0.559485 0
M  V30 9243 H 848.888 0.89606 0.309484 0
M  V30 9244 H 848.594 3.08383 1.69094 0
M  V30 9245 H 848.468 2.09621 3.1359 0
M  V30 9246 H 850.855 1.20933 2.69182 0
M  V30 9247 H 850.936 2.23179 1.25 0
M  V30 9248 H 850.58 4.29087 2.71747 0
M  V30 9249 H 850.51 3.23798 4.15286 0
M  V30 9250 H 853.001 2.62863 2.71498 0
M  V30 9251 H 853.314 5.80712 5.09896 0
M  V30 9252 H 851.659 5.21791 4.59085 0
M  V30 9253 H 854.85 3.31606 3.30386 0
M  V30 9254 H 855.023 4.76532 4.39114 0
M  V30 9255 N 848.429 -1.21819 0.999893 0
M  V30 9256 C 849.84 -1.72517 0.713775 0
M  V30 9257 C 850.191 -1.80505 -0.768922 0
M  V30 9258 O 849.316 -1.45611 -1.60083 0
M  V30 9259 C 849.911 -3.13321 1.28901 0
M  V30 9260 C 848.47 -3.61396 1.05212 0
M  V30 9261 C 847.617 -2.39074 1.40494 0
M  V30 9262 H 850.568 -1.07068 1.17141 0
M  V30 9263 H 850.589 -3.74535 0.671084 0
M  V30 9264 H 850.101 -3.07475 2.36814 0
M  V30 9265 H 848.202 -3.72599 -0.0100732 0
M  V30 9266 H 848.315 -4.47145 1.72042 0
M  V30 9267 H 846.679 -2.41015 0.823642 0
M  V30 9268 H 847.462 -2.35884 2.49427 0
M  V30 9269 N 849.908 -0.773975 -1.37286 0
M  V30 9270 C 851.133 -0.349561 -2.04433 0
M  V30 9271 C 851.558 1.02082 -1.5799 0
M  V30 9272 O 850.916 1.65458 -0.741172 0
M  V30 9273 C 850.964 -0.404292 -3.58326 0
M  V30 9274 O 850.068 0.594447 -4.08093 0
M  V30 9275 H 849.409 -0.150959 -0.646612 0
M  V30 9276 H 851.939 -1.05079 -1.75555 0
M  V30 9277 H 851.949 -0.262378 -4.07155 0
M  V30 9278 H 850.624 -1.40403 -3.91484 0
M  V30 9279 H 849.201 0.415468 -3.70578 0
M  V30 9280 N 851.386 1.48609 -0.524698 0
M  V30 9281 C 852.663 1.95454 0.075465 0
M  V30 9282 C 853.043 1.46682 1.51814 0
M  V30 9283 O 852.391 0.690975 2.17802 0
M  V30 9284 C 852.601 3.48981 -0.0363273 0
M  V30 9285 C 853.949 4.24414 0.125624 0
M  V30 9286 O 854.973 3.5618 0.0377239 0
M  V30 9287 O 853.832 5.45625 0.309104 0
M  V30 9288 H 850.926 0.822902 0.0822256 0
M  V30 9289 H 853.472 1.59153 -0.588921 0
M  V30 9290 H 852.244 3.77185 -1.04149 0
M  V30 9291 H 851.867 3.91963 0.667146 0
M  V30 9292 N 852.864 0.259585 1.55447 0
M  V30 9293 C 853.814 -0.648769 2.18575 0
M  V30 9294 C 854.798 -1.1299 1.14552 0
M  V30 9295 O 855.99 -1.07756 1.4042 0
M  V30 9296 C 853.119 -1.83963 2.89849 0
M  V30 9297 C 852.205 -1.37641 4.01143 0
M  V30 9298 N 852.596 -0.628269 5.01883 0
M  V30 9299 C 850.894 -1.66066 4.1393 0
M  V30 9300 C 851.595 -0.386746 5.80413 0
M  V30 9301 N 850.571 -0.954665 5.35151 0
M  V30 9302 H 854.373 -0.0691616 2.93819 0
M  V30 9303 H 851.887 0.0624525 1.6228 0
M  V30 9304 H 853.884 -2.50151 3.33512 0
M  V30 9305 H 852.544 -2.42334 2.16112 0
M  V30 9306 H 853.555 -0.277123 5.17158 0
M  V30 9307 H 850.232 -2.25484 3.51373 0
M  V30 9308 H 851.622 0.211382 6.71567 0
M  V30 9309 N 854.342 -1.57594 -0.0133615 0
M  V30 9310 C 855.567 -1.94649 -0.715996 0
M  V30 9311 C 855.992 -0.860786 -1.67249 0
M  V30 9312 O 855.35 0.182228 -1.80382 0
M  V30 9313 C 855.398 -3.30789 -1.43566 0
M  V30 9314 O 854.502 -3.24148 -2.54955 0
M  V30 9315 H 853.843 -0.635801 -0.191449 0
M  V30 9316 H 856.373 -2.04569 0.0358478 0
M  V30 9317 H 856.383 -3.66045 -1.80208 0
M  V30 9318 H 855.058 -4.09367 -0.734263 0
M  V30 9319 H 853.635 -3.00548 -2.20739 0
M  V30 9320 N 855.82 0.285905 -1.54985 0
M  V30 9321 C 857.05 1.03626 -1.78732 0
M  V30 9322 C 857.458 1.80896 -0.554377 0
M  V30 9323 O 856.801 1.77161 0.48578 0
M  V30 9324 C 856.863 2.05185 -2.95193 0
M  V30 9325 C 856.527 1.46973 -4.32722 0
M  V30 9326 C 857.524 0.891986 -5.12191 0
M  V30 9327 C 855.209 1.50081 -4.79355 0
M  V30 9328 C 857.203 0.353078 -6.36421 0
M  V30 9329 C 854.89 0.958037 -6.03544 0
M  V30 9330 C 855.888 0.385157 -6.81913 0
M  V30 9331 O 855.576 -0.149341 -8.03761 0
M  V30 9332 H 855.308 0.312416 -0.599477 0
M  V30 9333 H 857.862 0.326067 -2.02795 0
M  V30 9334 H 856.092 2.79928 -2.66791 0
M  V30 9335 H 857.781 2.66244 -3.0638 0
M  V30 9336 H 858.547 0.860762 -4.77301 0
M  V30 9337 H 854.426 1.9361 -4.18373 0
M  V30 9338 H 857.97 -0.0947181 -6.97536 0
M  V30 9339 H 853.867 0.986458 -6.37918 0
M  V30 9340 H 854.635 -0.0374719 -8.18491 0
M  V30 9341 N 857.298 1.47698 0.54982 0
M  V30 9342 C 858.523 1.58579 1.33669 0
M  V30 9343 C 858.948 0.239049 1.86575 0
M  V30 9344 O 858.306 -0.786256 1.63364 0
M  V30 9345 C 858.354 2.62029 2.47736 0
M  V30 9346 O 857.458 2.17813 3.50188 0
M  V30 9347 H 856.799 0.532447 0.396732 0
M  V30 9348 H 859.329 1.93536 0.6637 0
M  V30 9349 H 859.339 2.82682 2.94202 0
M  V30 9350 H 858.014 3.59812 2.08586 0
M  V30 9351 H 856.591 2.07291 3.09976 0
M  V30 9352 N 858.776 -0.797141 1.35954 0
M  V30 9353 C 860.053 -1.54224 1.2031 0
M  V30 9354 C 860.433 -2.10013 -0.213926 0
M  V30 9355 O 859.781 -1.93292 -1.21862 0
M  V30 9356 C 859.991 -2.6433 2.27883 0
M  V30 9357 C 861.339 -3.32418 2.64165 0
M  V30 9358 O 862.363 -2.74607 2.26868 0
M  V30 9359 O 861.222 -4.36876 3.28331 0
M  V30 9360 H 858.316 -0.681857 0.467974 0
M  V30 9361 H 860.862 -0.836288 1.47663 0
M  V30 9362 H 859.634 -2.21044 3.22885 0
M  V30 9363 H 859.257 -3.42551 2.01853 0
M  V30 9364 N 860.254 -1.20106 -1.0204 0
M  V30 9365 C 861.479 -1.0351 -1.79723 0
M  V30 9366 C 861.904 0.411328 -1.83548 0
M  V30 9367 O 861.262 1.29608 -1.26773 0
M  V30 9368 C 861.31 -1.61876 -3.22224 0
M  V30 9369 O 860.414 -0.853813 -4.03465 0
M  V30 9370 H 859.755 -0.365299 -0.554484 0
M  V30 9371 H 862.285 -1.59316 -1.28373 0
M  V30 9372 H 862.295 -1.65451 -3.72948 0
M  V30 9373 H 860.97 -2.67148 -3.18755 0
M  V30 9374 H 859.547 -0.891983 -3.62075 0
M  V30 9375 N 861.732 1.21287 -1.00634 0
M  V30 9376 C 862.96 1.94385 -0.708678 0
M  V30 9377 C 863.375 1.7416 0.728957 0
M  V30 9378 O 862.732 1.04906 1.49335 0
M  V30 9379 C 862.783 3.46755 -1.02193 0
M  V30 9380 O 862.504 3.6631 -2.40309 0
M  V30 9381 C 864.005 4.37014 -0.743867 0
M  V30 9382 H 861.225 0.618136 -0.261052 0
M  V30 9383 H 863.769 1.54067 -1.34475 0
M  V30 9384 H 861.924 3.8499 -0.431441 0
M  V30 9385 H 862.338 4.60393 -2.51274 0
M  V30 9386 H 863.812 5.42621 -1.01321 0
M  V30 9387 H 864.289 4.38017 0.322084 0
M  V30 9388 H 864.895 4.04426 -1.31603 0
M  V30 9389 N 863.21 0.781244 1.36873 0
M  V30 9390 C 864.12 0.174981 2.33947 0
M  V30 9391 C 865.136 -0.668512 1.60645 0
M  V30 9392 O 866.312 -0.586213 1.9268 0
M  V30 9393 C 863.377 -0.686557 3.39834 0
M  V30 9394 C 862.438 0.174489 4.28945 0
M  V30 9395 C 861.671 -0.646024 5.29776 0
M  V30 9396 O 861.894 -1.88254 5.38439 0
M  V30 9397 O 860.828 -0.0502214 6.01879 0
M  V30 9398 H 864.654 0.977382 2.87543 0
M  V30 9399 H 862.239 0.542559 1.392 0
M  V30 9400 H 864.121 -1.1781 4.04597 0
M  V30 9401 H 862.796 -1.46699 2.8855 0
M  V30 9402 H 861.703 0.712604 3.6725 0
M  V30 9403 H 863.036 0.918232 4.83559 0
M  V30 9404 N 864.689 -1.48329 0.532571 0
M  V30 9405 C 865.622 -2.26524 -0.2761 0
M  V30 9406 C 866.6 -1.32498 -0.942496 0
M  V30 9407 O 867.784 -1.61844 -0.966376 0
M  V30 9408 C 864.911 -3.08808 -1.39124 0
M  V30 9409 C 863.957 -4.18227 -0.835984 0
M  V30 9410 S 864.79 -5.34669 0.298186 0
M  V30 9411 C 865.946 -6.20514 -0.81937 0
M  V30 9412 H 866.179 -2.94764 0.387502 0
M  V30 9413 H 863.712 -1.51081 0.318407 0
M  V30 9414 H 865.67 -3.56792 -2.03002 0
M  V30 9415 H 864.331 -2.39976 -2.02658 0
M  V30 9416 H 863.524 -4.75435 -1.67264 0
M  V30 9417 H 863.126 -3.72996 -0.27385 0
M  V30 9418 H 865.418 -6.55371 -1.7174 0
M  V30 9419 H 866.361 -7.07525 -0.285199 0
M  V30 9420 H 866.769 -5.5366 -1.10094 0
M  V30 9421 N 866.167 -0.267825 -1.55308 0
M  V30 9422 C 867.413 0.351556 -1.9973 0
M  V30 9423 C 867.746 1.56049 -1.15596 0
M  V30 9424 O 867.021 1.93203 -0.224274 0
M  V30 9425 C 867.304 0.74091 -3.52395 0
M  V30 9426 C 867.157 -0.474861 -4.47286 0
M  V30 9427 C 868.476 1.5801 -4.10756 0
M  V30 9428 H 865.595 0.126308 -0.726096 0
M  V30 9429 H 868.237 -0.373316 -1.86296 0
M  V30 9430 H 866.387 1.35851 -3.63973 0
M  V30 9431 H 868.059 -1.1134 -4.47662 0
M  V30 9432 H 866.302 -1.11425 -4.19246 0
M  V30 9433 H 866.973 -0.158782 -5.51772 0
M  V30 9434 H 869.449 1.05857 -4.0241 0
M  V30 9435 H 868.325 1.82135 -5.17801 0
M  V30 9436 H 868.586 2.55878 -3.60526 0
M  V30 9437 N 867.645 1.57599 0.00500368 0
M  V30 9438 C 868.592 2.08106 0.998025 0
M  V30 9439 C 869.562 0.975374 1.34446 0
M  V30 9440 O 870.747 1.24749 1.44369 0
M  V30 9441 C 867.887 2.58496 2.28635 0
M  V30 9442 C 867 3.82947 1.99939 0
M  V30 9443 C 866.135 4.21857 3.22816 0
M  V30 9444 C 865.174 5.39159 2.89783 0
M  V30 9445 N 864.311 5.73386 4.05183 0
M  V30 9446 H 869.151 2.92684 0.560385 0
M  V30 9447 H 866.688 1.44692 0.265053 0
M  V30 9448 H 868.646 2.85787 3.03943 0
M  V30 9449 H 867.276 1.768 2.70077 0
M  V30 9450 H 866.328 3.62594 1.1502 0
M  V30 9451 H 867.64 4.68358 1.71588 0
M  V30 9452 H 866.794 4.50404 4.06474 0
M  V30 9453 H 865.533 3.35145 3.54301 0
M  V30 9454 H 864.538 5.1034 2.04532 0
M  V30 9455 H 865.763 6.27543 2.59551 0
M  V30 9456 H 863.709 4.89632 4.36574 0
M  V30 9457 H 863.626 6.53359 3.80339 0
M  V30 9458 H 864.894 6.06522 4.89644 0
M  V30 9459 N 869.123 -0.277682 1.55134 0
M  V30 9460 C 870.372 -1.00766 1.74726 0
M  V30 9461 C 870.685 -1.87617 0.553092 0
M  V30 9462 O 871.891 -2.64058 0.631318 0
M  V30 9463 C 870.347 -1.84147 3.09221 0
M  V30 9464 C 869.955 -1.02186 4.3619 0
M  V30 9465 C 871.699 -2.56604 3.38164 0
M  V30 9466 C 869.606 -1.84978 5.61727 0
M  V30 9467 H 868.536 -0.379948 0.651273 0
M  V30 9468 H 871.187 -0.263543 1.81598 0
M  V30 9469 H 869.569 -2.62637 2.96375 0
M  V30 9470 H 870.743 -0.281459 4.5994 0
M  V30 9471 H 869.058 -0.412054 4.14356 0
M  V30 9472 H 871.655 -3.18942 4.29162 0
M  V30 9473 H 871.998 -3.26647 2.58085 0
M  V30 9474 H 872.531 -1.85147 3.52087 0
M  V30 9475 H 869.27 -1.19365 6.4454 0
M  V30 9476 H 868.79 -2.56628 5.42128 0
M  V30 9477 H 870.469 -2.42458 5.99853 0
M  V30 9478 N 870.601 -1.47988 -0.541979 0
M  V30 9479 C 871.85 -1.5465 -1.29485 0
M  V30 9480 C 872.163 -0.220041 -1.94358 0
M  V30 9481 O 873.369 -0.164792 -2.70999 0
M  V30 9482 C 871.825 -2.72685 -2.34885 0
M  V30 9483 C 871.433 -4.11923 -1.76134 0
M  V30 9484 C 873.177 -2.88651 -3.11257 0
M  V30 9485 C 871.084 -5.21237 -2.79404 0
M  V30 9486 H 870.014 -0.575688 -0.486928 0
M  V30 9487 H 872.665 -1.74296 -0.573853 0
M  V30 9488 H 871.047 -2.46448 -3.09966 0
M  V30 9489 H 872.221 -4.48128 -1.07322 0
M  V30 9490 H 870.536 -4.00972 -1.12295 0
M  V30 9491 H 873.133 -3.67487 -3.88404 0
M  V30 9492 H 873.476 -1.97658 -3.66384 0
M  V30 9493 H 874.009 -3.14731 -2.43288 0
M  V30 9494 H 870.748 -6.14156 -2.29113 0
M  V30 9495 H 870.268 -4.89533 -3.4658 0
M  V30 9496 H 871.947 -5.48839 -3.42615 0
M  V30 9497 N 872.079 0.78992 -1.36375 0
M  V30 9498 C 873.325 1.55007 -1.3077 0
M  V30 9499 C 873.658 1.93871 0.112979 0
M  V30 9500 O 872.933 1.6267 1.06625 0
M  V30 9501 C 873.216 2.82748 -2.22993 0
M  V30 9502 C 873.069 2.50253 -3.73756 0
M  V30 9503 C 874.388 3.84569 -2.13998 0
M  V30 9504 H 871.507 0.562362 -0.476359 0
M  V30 9505 H 874.149 0.907582 -1.66922 0
M  V30 9506 H 872.299 3.37573 -1.92292 0
M  V30 9507 H 873.971 2.01482 -4.14973 0
M  V30 9508 H 872.214 1.83203 -3.93216 0
M  V30 9509 H 872.885 3.41487 -4.33694 0
M  V30 9510 H 875.361 3.39188 -2.4102 0
M  V30 9511 H 874.237 4.717 -2.80697 0
M  V30 9512 H 874.498 4.27491 -1.12711 0
M  V30 9513 N 873.557 1.20646 1.01402 0
M  V30 9514 C 874.507 0.925209 2.08384 0
M  V30 9515 C 875.491 -0.115994 1.60481 0
M  V30 9516 O 876.683 0.0917276 1.76762 0
M  V30 9517 C 873.812 0.48193 3.399 0
M  V30 9518 C 872.898 1.5567 3.94497 0
M  V30 9519 N 873.289 2.77971 4.2257 0
M  V30 9520 C 871.587 1.42347 4.22674 0
M  V30 9521 C 872.288 3.47317 4.66632 0
M  V30 9522 N 871.264 2.74736 4.69064 0
M  V30 9523 H 875.066 1.85452 2.28002 0
M  V30 9524 H 872.58 1.10084 1.19395 0
M  V30 9525 H 874.577 0.261835 4.16077 0
M  V30 9526 H 873.237 -0.440725 3.21695 0
M  V30 9527 H 874.248 3.14598 4.11398 0
M  V30 9528 H 870.925 0.565417 4.13654 0
M  V30 9529 H 872.315 4.51985 4.97151 0
M  V30 9530 N 875.035 -1.20752 1.01276 0
M  V30 9531 C 876.263 -1.94006 0.718976 0
M  V30 9532 C 876.678 -1.74544 -0.719711 0
M  V30 9533 O 876.035 -1.05697 -1.48776 0
M  V30 9534 C 876.086 -3.46208 1.04031 0
M  V30 9535 O 875.807 -3.65031 2.42248 0
M  V30 9536 C 877.308 -4.36614 0.767032 0
M  V30 9537 H 874.528 -0.616743 0.264327 0
M  V30 9538 H 877.072 -1.53352 1.3529 0
M  V30 9539 H 875.227 -3.84756 0.451852 0
M  V30 9540 H 875.641 -4.59054 2.53712 0
M  V30 9541 H 877.115 -5.42076 1.04198 0
M  V30 9542 H 877.592 -4.38182 -0.298851 0
M  V30 9543 H 878.198 -4.03723 1.33746 0
M  V30 9544 N 876.513 -0.788492 -1.36457 0
M  V30 9545 C 877.759 -0.360995 -1.99561 0
M  V30 9546 C 878.092 1.06433 -1.62437 0
M  V30 9547 O 877.367 1.7352 -0.878705 0
M  V30 9548 C 877.65 -0.523735 -3.56271 0
M  V30 9549 C 877.503 -1.99268 -4.03252 0
M  V30 9550 C 878.822 0.0617908 -4.40057 0
M  V30 9551 H 875.941 -0.13264 -0.724966 0
M  V30 9552 H 878.583 -0.994659 -1.61884 0
M  V30 9553 H 876.733 0.0156979 -3.88497 0
M  V30 9554 H 878.405 -2.59311 -3.81518 0
M  V30 9555 H 876.648 -2.49561 -3.54826 0
M  V30 9556 H 877.319 -2.05752 -5.12221 0
M  V30 9557 H 879.795 -0.398674 -4.14186 0
M  V30 9558 H 878.671 -0.0821089 -5.48839 0
M  V30 9559 H 878.932 1.15381 -4.26778 0
M  V30 9560 N 877.991 1.48044 -0.54043 0
M  V30 9561 C 878.923 2.2779 0.253854 0
M  V30 9562 C 879.936 1.35999 0.894883 0
M  V30 9563 O 881.125 1.60963 0.771563 0
M  V30 9564 C 878.225 3.09724 1.37566 0
M  V30 9565 C 877.398 4.29364 0.83459 0
M  V30 9566 C 876.457 4.93026 1.83881 0
M  V30 9567 O 875.483 5.51927 1.39159 0
M  V30 9568 N 876.685 4.86207 3.17149 0
M  V30 9569 H 879.45 2.96597 -0.430125 0
M  V30 9570 H 877.011 1.57487 -0.375423 0
M  V30 9571 H 879.003 3.49181 2.04584 0
M  V30 9572 H 877.573 2.43269 1.96314 0
M  V30 9573 H 876.793 3.94198 -0.0118878 0
M  V30 9574 H 878.081 5.06787 0.452155 0
M  V30 9575 H 877.479 4.39523 3.56141 0
M  V30 9576 H 876.036 5.29733 3.79771 0
M  V30 9577 N 879.47 0.276058 1.55163 0
M  V30 9578 C 880.695 -0.346648 2.04483 0
M  V30 9579 C 881.12 -1.48613 1.15308 0
M  V30 9580 O 880.478 -1.80663 0.151875 0
M  V30 9581 C 880.526 -0.804268 3.51517 0
M  V30 9582 O 879.63 -1.91143 3.65429 0
M  V30 9583 H 878.971 -0.0715251 0.660136 0
M  V30 9584 H 881.501 0.410631 2.00437 0
M  V30 9585 H 881.511 -1.09977 3.92898 0
M  V30 9586 H 880.186 0.0294123 4.1589 0
M  V30 9587 H 878.763 -1.61839 3.3595 0
M  V30 9588 N 880.948 -1.576 0.00335426 0
M  V30 9589 C 881.88 -2.0549 -1.01521 0
M  V30 9590 C 882.893 -0.973441 -1.30491 0
M  V30 9591 O 884.082 -1.25017 -1.27409 0
M  V30 9592 C 881.182 -2.44272 -2.34914 0
M  V30 9593 C 880.355 -3.75191 -2.24835 0
M  V30 9594 C 879.414 -4.00804 -3.40944 0
M  V30 9595 O 878.44 -4.71423 -3.18981 0
M  V30 9596 N 879.642 -3.48961 -4.63904 0
M  V30 9597 H 882.407 -2.93493 -0.60678 0
M  V30 9598 H 879.968 -1.60851 -0.18396 0
M  V30 9599 H 881.96 -2.58518 -3.11369 0
M  V30 9600 H 880.53 -1.6177 -2.67487 0
M  V30 9601 H 879.75 -3.70989 -1.3327 0
M  V30 9602 H 881.038 -4.61013 -2.15277 0
M  V30 9603 H 880.436 -2.9178 -4.84645 0
M  V30 9604 H 878.993 -3.68531 -5.37613 0
M  V30 9605 N 882.426 0.269451 -1.5528 0
M  V30 9606 C 883.703 1.02207 -1.66773 0
M  V30 9607 C 884.083 2.04168 -0.536536 0
M  V30 9608 O 883.431 2.23761 0.462956 0
M  V30 9609 C 883.641 1.67569 -3.0614 0
M  V30 9610 C 884.989 2.18599 -3.64005 0
M  V30 9611 O 886.013 1.7755 -3.08795 0
M  V30 9612 O 884.872 2.93903 -4.60742 0
M  V30 9613 H 881.966 0.474314 -0.677462 0
M  V30 9614 H 884.512 0.265026 -1.67618 0
M  V30 9615 H 883.284 0.937029 -3.79915 0
M  V30 9616 H 882.907 2.49951 -3.09209 0
M  V30 9617 N 883.904 1.48273 0.534124 0
M  V30 9618 C 885.32 1.34302 0.862272 0
M  V30 9619 C 885.52 0.350902 1.98421 0
M  V30 9620 O 884.576 -0.229364 2.51456 0
M  V30 9621 C 885.889 2.74227 1.23371 0
M  V30 9622 C 887.437 2.82684 1.34383 0
M  V30 9623 C 887.912 4.23301 1.74871 0
M  V30 9624 N 889.403 4.25954 1.81981 0
M  V30 9625 C 890.138 5.31693 2.14686 0
M  V30 9626 N 889.634 6.47714 2.45844 0
M  V30 9627 N 891.427 5.19084 2.15657 0
M  V30 9628 H 883.578 2.11397 -0.206215 0
M  V30 9629 H 885.841 0.947537 -0.0296116 0
M  V30 9630 H 885.547 3.48368 0.482967 0
M  V30 9631 H 885.421 3.07485 2.18478 0
M  V30 9632 H 887.808 2.08801 2.08534 0
M  V30 9633 H 887.889 2.5305 0.374063 0
M  V30 9634 H 887.533 4.97699 1.01282 0
M  V30 9635 H 887.463 4.50376 2.7289 0
M  V30 9636 H 889.954 3.42266 1.60196 0
M  V30 9637 H 890.267 7.2414 2.69892 0
M  V30 9638 H 888.612 6.50995 2.43372 0
M  V30 9639 H 891.803 4.27463 1.9077 0
M  V30 9640 H 891.976 6.01592 2.40813 0
M  V30 9641 N 885.382 -0.782676 1.36792 0
M  V30 9642 C 886.628 -1.54311 1.3159 0
M  V30 9643 C 886.961 -1.93928 -0.102696 0
M  V30 9644 O 886.236 -1.63233 -1.05761 0
M  V30 9645 C 886.519 -2.81561 2.24489 0
M  V30 9646 C 886.372 -2.48268 3.75078 0
M  V30 9647 C 887.691 -3.83428 2.16034 0
M  V30 9648 H 884.81 -0.559828 0.479335 0
M  V30 9649 H 887.452 -0.898717 1.67401 0
M  V30 9650 H 885.602 -3.36549 1.9408 0
M  V30 9651 H 887.274 -1.99279 4.16036 0
M  V30 9652 H 885.517 -1.81116 3.94182 0
M  V30 9653 H 886.188 -3.39183 4.35499 0
M  V30 9654 H 888.664 -3.37905 2.42815 0
M  V30 9655 H 887.54 -4.70204 2.83194 0
M  V30 9656 H 887.801 -4.26887 1.14976 0
M  V30 9657 N 886.86 -1.21182 -1.00761 0
M  V30 9658 C 887.79 -0.992773 -2.11344 0
M  V30 9659 C 888.771 0.0813618 -1.69905 0
M  V30 9660 O 889.956 -0.0779503 -1.94043 0
M  V30 9661 C 887.086 -0.553826 -3.42856 0
M  V30 9662 C 886.04 -1.57223 -3.98077 0
M  V30 9663 C 885.366 -0.989605 -5.25463 0
M  V30 9664 C 886.666 -2.95839 -4.30438 0
M  V30 9665 H 888.36 -1.91766 -2.29927 0
M  V30 9666 H 885.906 -0.923426 -1.10494 0
M  V30 9667 H 887.859 -0.387771 -4.19612 0
M  V30 9668 H 886.583 0.406702 -3.24058 0
M  V30 9669 H 885.242 -1.7258 -3.23437 0
M  V30 9670 H 884.89 -0.0208743 -5.02996 0
M  V30 9671 H 884.59 -1.66984 -5.63374 0
M  V30 9672 H 886.114 -0.834815 -6.04866 0
M  V30 9673 H 887.528 -2.8394 -4.98047 0
M  V30 9674 H 885.925 -3.60851 -4.79486 0
M  V30 9675 H 886.995 -3.46882 -3.38823 0
M  V30 9676 N 888.338 1.20213 -1.01915 0
M  V30 9677 C 889.285 2.2309 -0.591571 0
M  V30 9678 C 890.255 1.61465 0.389649 0
M  V30 9679 O 891.44 1.88606 0.288511 0
M  V30 9680 C 888.58 3.45045 0.0614028 0
M  V30 9681 C 887.693 4.21091 -0.964688 0
M  V30 9682 C 886.828 5.30448 -0.282499 0
M  V30 9683 C 885.867 5.98241 -1.29517 0
M  V30 9684 N 885.004 6.99182 -0.639472 0
M  V30 9685 H 889.844 2.59023 -1.47347 0
M  V30 9686 H 887.381 1.27274 -0.737547 0
M  V30 9687 H 889.339 4.14688 0.45714 0
M  V30 9688 H 887.969 3.09797 0.906937 0
M  V30 9689 H 887.021 3.50489 -1.47857 0
M  V30 9690 H 888.333 4.67662 -1.73475 0
M  V30 9691 H 887.487 6.06466 0.168603 0
M  V30 9692 H 886.226 4.84922 0.519843 0
M  V30 9693 H 885.231 5.20982 -1.75663 0
M  V30 9694 H 886.456 6.45853 -2.09884 0
M  V30 9695 H 884.402 6.55844 0.142955 0
M  V30 9696 H 884.319 7.43893 -1.34756 0
M  V30 9697 H 885.587 7.79212 -0.212047 0
M  V30 9698 N 889.816 0.795718 1.36037 0
M  V30 9699 C 890.726 0.199784 2.33748 0
M  V30 9700 C 891.742 -0.651436 1.61345 0
M  V30 9701 O 892.918 -0.565743 1.93291 0
M  V30 9702 C 889.983 -0.650475 3.40543 0
M  V30 9703 C 889.044 0.219974 4.28736 0
M  V30 9704 C 888.277 -0.589798 5.30431 0
M  V30 9705 O 888.5 -1.82532 5.40406 0
M  V30 9706 O 887.434 0.0136187 6.01898 0
M  V30 9707 H 891.26 1.00782 2.8649 0
M  V30 9708 H 888.845 0.557293 1.38617 0
M  V30 9709 H 890.727 -1.13512 4.05824 0
M  V30 9710 H 889.402 -1.4363 2.9009 0
M  V30 9711 H 888.309 0.751516 3.66474 0
M  V30 9712 H 889.642 0.969468 4.82558 0
M  V30 9713 N 891.294 -1.47756 0.548274 0
M  V30 9714 C 892.224 -2.32702 -0.19284 0
M  V30 9715 C 893.205 -1.43237 -0.917457 0
M  V30 9716 O 894.39 -1.72103 -0.89967 0
M  V30 9717 C 891.52 -3.24831 -1.22891 0
M  V30 9718 C 890.474 -4.23466 -0.621312 0
M  V30 9719 C 889.8 -5.04856 -1.76137 0
M  V30 9720 C 891.1 -5.20616 0.419055 0
M  V30 9721 H 892.794 -2.94914 0.516323 0
M  V30 9722 H 890.34 -1.41818 0.24975 0
M  V30 9723 H 892.293 -3.83094 -1.75547 0
M  V30 9724 H 891.017 -2.60656 -1.9679 0
M  V30 9725 H 889.676 -3.66416 -0.116123 0
M  V30 9726 H 889.324 -4.37091 -2.48918 0
M  V30 9727 H 889.024 -5.71629 -1.36065 0
M  V30 9728 H 890.548 -5.65976 -2.29136 0
M  V30 9729 H 891.962 -5.73296 -0.0211034 0
M  V30 9730 H 890.359 -5.95543 0.738163 0
M  V30 9731 H 891.429 -4.66638 1.31822 0
M  V30 9732 N 892.772 -0.284283 -1.55015 0
M  V30 9733 C 894.019 0.329864 -1.99795 0
M  V30 9734 C 894.347 1.55171 -1.1727 0
M  V30 9735 O 893.602 1.94312 -0.232667 0
M  V30 9736 C 893.901 0.747219 -3.49502 0
M  V30 9737 C 893.567 -0.37101 -4.49371 0
M  V30 9738 C 892.229 -0.678034 -4.76399 0
M  V30 9739 C 894.581 -1.12406 -5.08935 0
M  V30 9740 C 891.909 -1.74152 -5.60257 0
M  V30 9741 C 894.261 -2.17734 -5.93948 0
M  V30 9742 C 892.925 -2.49061 -6.19294 0
M  V30 9743 H 892.195 0.120706 -0.731103 0
M  V30 9744 H 894.842 -0.399904 -1.87278 0
M  V30 9745 H 893.147 1.55681 -3.59542 0
M  V30 9746 H 894.844 1.2333 -3.81563 0
M  V30 9747 H 891.434 -0.1216 -4.28427 0
M  V30 9748 H 895.618 -0.900119 -4.88069 0
M  V30 9749 H 890.874 -1.98915 -5.78137 0
M  V30 9750 H 895.048 -2.76553 -6.39133 0
M  V30 9751 H 892.675 -3.31602 -6.84064 0
M  V30 9752 N 894.251 1.57596 -0.0117121 0
M  V30 9753 C 895.499 1.90694 0.669342 0
M  V30 9754 C 895.82 0.886999 1.73659 0
M  V30 9755 O 895.09 -0.0739779 1.9576 0
M  V30 9756 H 893.67 0.703846 0.250219 0
M  V30 9757 H 896.332 1.94821 -0.0554057 0
M  V30 9758 H 895.428 2.90802 1.13316 0
M  V30 9759 N 895.729 -0.261212 1.5542 0
M  V30 9760 C 896.679 -1.32571 1.85496 0
M  V30 9761 C 897.663 -1.44155 0.714722 0
M  V30 9762 O 898.855 -1.47637 0.976336 0
M  V30 9763 C 895.984 -2.68384 2.14067 0
M  V30 9764 C 895.07 -2.60864 3.34381 0
M  V30 9765 N 895.461 -2.22967 4.54004 0
M  V30 9766 C 893.759 -2.91904 3.37206 0
M  V30 9767 C 894.46 -2.25727 5.36118 0
M  V30 9768 N 893.436 -2.64667 4.74818 0
M  V30 9769 H 897.238 -1.02298 2.75522 0
M  V30 9770 H 894.752 -0.469849 1.55455 0
M  V30 9771 H 896.749 -3.45189 2.33774 0
M  V30 9772 H 895.409 -2.99536 1.25332 0
M  V30 9773 H 896.42 -1.94748 4.79889 0
M  V30 9774 H 893.097 -3.2769 2.587 0
M  V30 9775 H 894.487 -1.98889 6.41789 0
M  V30 9776 N 897.207 -1.48554 -0.526253 0
M  V30 9777 C 898.137 -1.66252 -1.63959 0
M  V30 9778 C 899.118 -0.511351 -1.62232 0
M  V30 9779 O 900.303 -0.744322 -1.7937 0
M  V30 9780 C 897.433 -1.70556 -3.02536 0
M  V30 9781 C 896.387 -2.8521 -3.19123 0
M  V30 9782 C 895.713 -2.74606 -4.58798 0
M  V30 9783 C 897.013 -4.26463 -3.0154 0
M  V30 9784 H 898.707 -2.59459 -1.49404 0
M  V30 9785 H 896.253 -1.24862 -0.717326 0
M  V30 9786 H 898.206 -1.81524 -3.80298 0
M  V30 9787 H 896.93 -0.739297 -3.18123 0
M  V30 9788 H 895.589 -2.73802 -2.43779 0
M  V30 9789 H 895.237 -1.75941 -4.71226 0
M  V30 9790 H 894.937 -3.51544 -4.70841 0
M  V30 9791 H 896.461 -2.87548 -5.38655 0
M  V30 9792 H 897.875 -4.38685 -3.69091 0
M  V30 9793 H 896.272 -5.04428 -3.25073 0
M  V30 9794 H 897.342 -4.42667 -1.97925 0
M  V30 9795 N 898.685 0.775411 -1.37205 0
M  V30 9796 C 899.91 1.5696 -1.35567 0
M  V30 9797 C 900.335 1.88012 0.0575554 0
M  V30 9798 O 899.693 1.48954 1.03355 0
M  V30 9799 C 899.741 2.85886 -2.19776 0
M  V30 9800 O 898.845 3.80103 -1.59987 0
M  V30 9801 H 898.186 0.475583 -0.463375 0
M  V30 9802 H 900.716 0.96001 -1.80679 0
M  V30 9803 H 900.726 3.35024 -2.32859 0
M  V30 9804 H 899.401 2.62613 -3.22502 0
M  V30 9805 H 897.978 3.38736 -1.55924 0
M  V30 9806 N 900.163 1.21714 1.00117 0
M  V30 9807 C 901.11 0.979837 2.08968 0
M  V30 9808 C 902.08 -0.0955324 1.65825 0
M  V30 9809 O 903.265 0.0523742 1.90728 0
M  V30 9810 C 900.405 0.554758 3.40612 0
M  V30 9811 C 899.518 1.69999 3.97145 0
M  V30 9812 C 898.653 1.2237 5.16913 0
M  V30 9813 C 897.692 2.34101 5.65564 0
M  V30 9814 N 896.829 1.87579 6.76579 0
M  V30 9815 H 901.669 1.91167 2.28602 0
M  V30 9816 H 899.206 0.952645 1.12085 0
M  V30 9817 H 901.164 0.289526 4.16194 0
M  V30 9818 H 899.794 -0.340073 3.21004 0
M  V30 9819 H 898.846 2.07976 3.18512 0
M  V30 9820 H 900.158 2.54074 4.29241 0
M  V30 9821 H 899.312 0.915358 5.99755 0
M  V30 9822 H 898.051 0.353045 4.8642 0
M  V30 9823 H 897.056 2.65734 4.81316 0
M  V30 9824 H 898.281 3.21669 5.98085 0
M  V30 9825 H 896.227 1.02863 6.47885 0
M  V30 9826 H 896.144 2.65225 7.07949 0
M  V30 9827 H 897.412 1.5979 7.62947 0
M  V30 9828 N 901.641 -1.19671 1.02551 0
M  V30 9829 C 902.571 -2.25009 0.623965 0
M  V30 9830 C 903.552 -1.66129 -0.36538 0
M  V30 9831 O 904.737 -1.92599 -0.248842 0
M  V30 9832 C 901.867 -3.47287 -0.0294869 0
M  V30 9833 C 900.821 -4.18818 0.881781 0
M  V30 9834 C 900.147 -5.34618 0.0936189 0
M  V30 9835 C 901.447 -4.73986 2.19396 0
M  V30 9836 H 903.141 -2.58851 1.50454 0
M  V30 9837 H 900.687 -1.24425 0.724872 0
M  V30 9838 H 902.64 -4.20168 -0.322016 0
M  V30 9839 H 901.364 -3.12635 -0.944838 0
M  V30 9840 H 900.023 -3.47815 1.15845 0
M  V30 9841 H 899.671 -4.9621 -0.823661 0
M  V30 9842 H 899.371 -5.83409 0.700568 0
M  V30 9843 H 900.895 -6.10297 -0.192249 0
M  V30 9844 H 902.309 -5.38639 1.96319 0
M  V30 9845 H 900.706 -5.3325 2.75254 0
M  V30 9846 H 901.776 -3.92238 2.85092 0
M  V30 9847 N 903.119 -0.802921 -1.35613 0
M  V30 9848 C 904.049 -0.225131 -2.32412 0
M  V30 9849 C 905.03 0.647383 -1.57299 0
M  V30 9850 O 906.215 0.578414 -1.85386 0
M  V30 9851 C 903.345 0.630085 -3.41537 0
M  V30 9852 C 902.299 -0.143635 -4.27759 0
M  V30 9853 C 901.625 0.833046 -5.28171 0
M  V30 9854 C 902.925 -1.34054 -5.04804 0
M  V30 9855 H 904.619 -1.03385 -2.80984 0
M  V30 9856 H 902.165 -0.498593 -1.35093 0
M  V30 9857 H 904.118 1.04433 -4.08254 0
M  V30 9858 H 902.842 1.47165 -2.91565 0
M  V30 9859 H 901.501 -0.539015 -3.62616 0
M  V30 9860 H 901.149 1.67001 -4.74468 0
M  V30 9861 H 900.849 0.319697 -5.8673 0
M  V30 9862 H 902.373 1.24558 -5.97761 0
M  V30 9863 H 903.787 -1.00136 -5.64487 0
M  V30 9864 H 902.184 -1.78812 -5.72841 0
M  V30 9865 H 903.254 -2.12906 -4.35659 0
M  V30 9866 N 904.597 1.47463 -0.556102 0
M  V30 9867 C 905.845 2.02075 -0.0315712 0
M  V30 9868 C 906.166 1.43292 1.32259 0
M  V30 9869 O 905.436 0.60771 1.86236 0
M  V30 9870 H 904.016 0.74695 -0.0086816 0
M  V30 9871 H 906.678 1.80879 -0.725859 0
M  V30 9872 H 905.774 3.12047 0.0573538 0
M  V30 9873 N 906.075 0.2925 1.54862 0
M  V30 9874 C 907.315 -0.32024 2.01876 0
M  V30 9875 C 907.679 -1.5174 1.17639 0
M  V30 9876 O 908.88 -2.20094 1.54312 0
M  V30 9877 C 907.151 -0.67611 3.50947 0
M  V30 9878 S 908.71 -1.27292 4.19931 0
M  V30 9879 H 905.528 -0.0987374 0.704111 0
M  V30 9880 H 908.13 0.41839 1.90971 0
M  V30 9881 H 906.834 0.203797 4.09894 0
M  V30 9882 H 906.365 -1.44575 3.65871 0
M  V30 9883 H 908.38 -2.56102 4.25002 0
M  V30 9884 N 907.553 -1.57587 0.0200696 0
M  V30 9885 C 908.5 -2.09667 -0.964791 0
M  V30 9886 C 909.47 -0.99664 -1.32877 0
M  V30 9887 O 910.655 -1.2703 -1.42366 0
M  V30 9888 C 907.795 -2.62101 -2.24493 0
M  V30 9889 C 906.908 -3.8608 -1.93821 0
M  V30 9890 C 906.043 -4.26939 -3.16064 0
M  V30 9891 C 905.082 -5.43701 -2.81169 0
M  V30 9892 N 904.219 -5.79759 -3.9601 0
M  V30 9893 H 909.059 -2.93538 -0.513751 0
M  V30 9894 H 906.596 -1.45096 -0.242 0
M  V30 9895 H 908.554 -2.90587 -2.99358 0
M  V30 9896 H 907.184 -1.81074 -2.6723 0
M  V30 9897 H 906.236 -3.64378 -1.09237 0
M  V30 9898 H 907.548 -4.71028 -1.64115 0
M  V30 9899 H 906.702 -4.56814 -3.99257 0
M  V30 9900 H 905.441 -3.40739 -3.48924 0
M  V30 9901 H 904.446 -5.13529 -1.96387 0
M  V30 9902 H 905.671 -6.31593 -2.49535 0
M  V30 9903 H 903.617 -4.96516 -4.28729 0
M  V30 9904 H 903.534 -6.59327 -3.69896 0
M  V30 9905 H 904.802 -6.14235 -4.79933 0
M  V30 9906 N 909.032 0.252966 -1.55557 0
M  V30 9907 C 909.964 1.33585 -1.86246 0
M  V30 9908 C 910.977 1.44584 -0.748291 0
M  V30 9909 O 912.166 1.46042 -1.02635 0
M  V30 9910 C 909.266 2.71509 -2.02821 0
M  V30 9911 C 908.439 2.82853 -3.33636 0
M  V30 9912 C 907.498 4.01581 -3.40028 0
M  V30 9913 O 906.524 3.91394 -4.13278 0
M  V30 9914 N 907.726 5.14474 -2.6888 0
M  V30 9915 H 910.491 1.07596 -2.7972 0
M  V30 9916 H 908.052 0.443075 -1.55719 0
M  V30 9917 H 910.044 3.49262 -2.04445 0
M  V30 9918 H 908.614 2.90232 -1.1612 0
M  V30 9919 H 907.834 1.91823 -3.4438 0
M  V30 9920 H 909.122 2.87378 -4.19871 0
M  V30 9921 H 908.52 5.25641 -2.09087 0
M  V30 9922 H 907.077 5.90385 -2.76204 0
M  V30 9923 N 910.51 1.48831 0.518367 0
M  V30 9924 C 911.457 1.64216 1.62178 0
M  V30 9925 C 912.427 0.483942 1.58894 0
M  V30 9926 O 913.612 0.708857 1.77144 0
M  V30 9927 C 910.752 1.69867 3.00399 0
M  V30 9928 C 909.865 2.96875 3.1383 0
M  V30 9929 C 909 2.93613 4.42679 0
M  V30 9930 C 908.039 4.15276 4.4968 0
M  V30 9931 N 907.176 4.10024 5.69934 0
M  V30 9932 H 912.016 2.58439 1.48368 0
M  V30 9933 H 909.553 1.28154 0.722152 0
M  V30 9934 H 911.511 1.71124 3.8049 0
M  V30 9935 H 910.141 0.791249 3.12952 0
M  V30 9936 H 909.193 3.0531 2.26914 0
M  V30 9937 H 910.505 3.86863 3.14863 0
M  V30 9938 H 909.659 2.93337 5.31073 0
M  V30 9939 H 908.398 2.01375 4.44184 0
M  V30 9940 H 907.403 4.15816 3.59691 0
M  V30 9941 H 908.628 5.08687 4.49904 0
M  V30 9942 H 906.574 3.20613 5.72314 0
M  V30 9943 H 906.491 4.93728 5.72511 0
M  V30 9944 H 907.759 4.13824 6.60583 0
M  V30 9945 N 911.988 -0.768124 1.37614 0
M  V30 9946 C 913.237 -1.5221 1.32345 0
M  V30 9947 C 913.55 -1.95399 -0.0885761 0
M  V30 9948 O 914.756 -2.70216 -0.263752 0
M  V30 9949 C 913.212 -2.74872 2.32322 0
M  V30 9950 C 912.82 -2.38767 3.79071 0
M  V30 9951 C 914.564 -3.52805 2.36069 0
M  V30 9952 C 912.471 -3.57953 4.7077 0
M  V30 9953 H 911.401 -0.571461 0.491883 0
M  V30 9954 H 914.052 -0.841004 1.63093 0
M  V30 9955 H 912.434 -3.44889 1.94596 0
M  V30 9956 H 913.608 -1.7651 4.25654 0
M  V30 9957 H 911.923 -1.74 3.78303 0
M  V30 9958 H 914.52 -4.41397 3.01782 0
M  V30 9959 H 914.863 -3.92925 1.37535 0
M  V30 9960 H 915.396 -2.89788 2.72521 0
M  V30 9961 H 912.135 -3.22911 5.70446 0
M  V30 9962 H 911.655 -4.19302 4.28889 0
M  V30 9963 H 913.334 -4.2472 4.8808 0
M  V30 9964 N 913.466 -1.22244 -0.994698 0
M  V30 9965 C 914.715 -1.04005 -1.72817 0
M  V30 9966 C 915.028 0.425413 -1.90918 0
M  V30 9967 O 916.234 0.727429 -2.61574 0
M  V30 9968 C 914.69 -1.81244 -3.10932 0
M  V30 9969 C 914.298 -3.32028 -3.00768 0
M  V30 9970 C 916.042 -1.71448 -3.88337 0
M  V30 9971 C 913.949 -4.01716 -4.34026 0
M  V30 9972 H 912.879 -0.385559 -0.647966 0
M  V30 9973 H 915.53 -1.46077 -1.11058 0
M  V30 9974 H 913.912 -1.3197 -3.73363 0
M  V30 9975 H 915.086 -3.88682 -2.47513 0
M  V30 9976 H 913.401 -3.4248 -2.36846 0
M  V30 9977 H 915.998 -2.20836 -4.86965 0
M  V30 9978 H 916.341 -0.674568 -4.10798 0
M  V30 9979 H 916.874 -2.18256 -3.3258 0
M  V30 9980 H 913.613 -5.05952 -4.16765 0
M  V30 9981 H 913.133 -3.49849 -4.87202 0
M  V30 9982 H 914.812 -4.0721 -5.02782 0
M  V30 9983 N 914.944 1.19125 -1.03184 0
M  V30 9984 C 916.221 1.84674 -0.644574 0
M  V30 9985 C 916.601 1.92042 0.876534 0
M  V30 9986 O 915.949 1.43965 1.77444 0
M  V30 9987 C 916.159 3.23477 -1.3101 0
M  V30 9988 C 917.507 3.99608 -1.43524 0
M  V30 9989 O 918.531 3.32886 -1.2675 0
M  V30 9990 O 917.39 5.19132 -1.70776 0
M  V30 9991 H 914.484 0.795968 -0.22442 0
M  V30 9992 H 917.03 1.2659 -1.13018 0
M  V30 9993 H 915.802 3.12967 -2.34878 0
M  V30 9994 H 915.425 3.89209 -0.812547 0
M  V30 9995 N 916.422 0.810101 1.35185 0
M  V30 9996 C 917.352 0.237453 2.32289 0
M  V30 9997 C 918.333 -0.639032 1.5764 0
M  V30 9998 O 919.518 -0.568575 1.8569 0
M  V30 9999 C 916.648 -0.611964 3.41866 0
M  V30 10000 C 915.602 0.166318 4.27677 0
M  V30 10001 C 914.928 -0.805024 5.28605 0
M  V30 10002 C 916.228 1.36729 5.04086 0
M  V30 10003 H 917.922 1.04874 2.80432 0
M  V30 10004 H 915.468 0.505751 1.34826 0
M  V30 10005 H 917.421 -1.02267 4.08802 0
M  V30 10006 H 916.145 -1.45617 2.92341 0
M  V30 10007 H 914.804 0.558238 3.62325 0
M  V30 10008 H 914.452 -1.64483 4.75347 0
M  V30 10009 H 914.152 -0.288577 5.86891 0
M  V30 10010 H 915.676 -1.21386 5.98413 0
M  V30 10011 H 917.09 1.03128 5.63948 0
M  V30 10012 H 915.487 1.81848 5.71884 0
M  V30 10013 H 916.557 2.15214 4.34524 0
M  V30 10014 N 917.9 -1.47166 0.563914 0
M  V30 10015 C 918.83 -2.32894 -0.168148 0
M  V30 10016 C 919.811 -1.44202 -0.902214 0
M  V30 10017 O 920.996 -1.73048 -0.881365 0
M  V30 10018 C 918.126 -3.26116 -1.19439 0
M  V30 10019 C 917.08 -4.24101 -0.576363 0
M  V30 10020 C 916.406 -5.06696 -1.70772 0
M  V30 10021 C 917.706 -5.20142 0.47425 0
M  V30 10022 H 919.4 -2.9435 0.547573 0
M  V30 10023 H 916.946 -1.41545 0.264778 0
M  V30 10024 H 918.899 -3.84935 -1.71474 0
M  V30 10025 H 917.623 -2.62728 -1.94014 0
M  V30 10026 H 916.282 -3.66519 -0.0772534 0
M  V30 10027 H 915.93 -4.39707 -2.44268 0
M  V30 10028 H 915.63 -5.7304 -1.29994 0
M  V30 10029 H 917.154 -5.68375 -2.2312 0
M  V30 10030 H 918.568 -5.73286 0.0397035 0
M  V30 10031 H 916.965 -5.94726 0.801287 0
M  V30 10032 H 918.035 -4.65214 1.36764 0
M  V30 10033 N 919.378 -0.300708 -1.54705 0
M  V30 10034 C 920.789 0.191995 -1.8571 0
M  V30 10035 C 921.14 1.53447 -1.22264 0
M  V30 10036 O 920.265 2.10054 -0.520226 0
M  V30 10037 C 920.86 0.355148 -3.36933 0
M  V30 10038 C 919.419 0.792071 -3.67972 0
M  V30 10039 C 918.566 -0.099756 -2.77121 0
M  V30 10040 H 921.517 -0.521729 -1.49879 0
M  V30 10041 H 921.538 1.18977 -3.61421 0
M  V30 10042 H 921.05 -0.622075 -3.83082 0
M  V30 10043 H 919.151 1.77986 -3.27341 0
M  V30 10044 H 919.264 0.611661 -4.75179 0
M  V30 10045 H 917.628 0.420909 -2.51198 0
M  V30 10046 H 918.411 -1.07333 -3.2609 0
M  V30 10047 N 920.856 1.57574 -0.0284266 0
M  V30 10048 C 921.803 2.10176 0.953658 0
M  V30 10049 C 922.773 1.00367 1.32347 0
M  V30 10050 O 923.958 1.27783 1.4169 0
M  V30 10051 C 921.098 2.63287 2.231 0
M  V30 10052 C 920.211 3.87102 1.91771 0
M  V30 10053 C 919.346 4.28609 3.13795 0
M  V30 10054 C 918.385 5.45184 2.78282 0
M  V30 10055 N 917.522 5.81851 3.92929 0
M  V30 10056 H 922.362 2.93806 0.498176 0
M  V30 10057 H 919.899 1.45222 0.234302 0
M  V30 10058 H 921.857 2.9217 2.97813 0
M  V30 10059 H 920.487 1.82489 2.66266 0
M  V30 10060 H 919.539 3.64952 1.07303 0
M  V30 10061 H 920.851 4.71892 1.61615 0
M  V30 10062 H 920.005 4.58925 3.96829 0
M  V30 10063 H 918.744 3.42585 3.47112 0
M  V30 10064 H 917.749 5.14563 1.93661 0
M  V30 10065 H 918.974 6.32907 2.46182 0
M  V30 10066 H 916.92 4.98782 4.2609 0
M  V30 10067 H 916.837 6.6128 3.66395 0
M  V30 10068 H 918.105 6.16772 4.76669 0
M  V30 10069 N 922.334 -0.244713 1.55689 0
M  V30 10070 C 923.58 -0.973886 1.77886 0
M  V30 10071 C 923.913 -1.8489 0.594071 0
M  V30 10072 O 923.188 -1.90182 -0.407564 0
M  V30 10073 C 923.471 -1.83255 3.09983 0
M  V30 10074 C 923.324 -0.985571 4.3887 0
M  V30 10075 C 924.643 -2.81464 3.38329 0
M  V30 10076 H 921.762 -0.352629 0.647165 0
M  V30 10077 H 924.404 -0.244243 1.88424 0
M  V30 10078 H 922.554 -2.45464 3.01131 0
M  V30 10079 H 924.226 -0.382005 4.59716 0
M  V30 10080 H 922.469 -0.29002 4.32829 0
M  V30 10081 H 923.14 -1.62022 5.27686 0
M  V30 10082 H 925.616 -2.2939 3.47159 0
M  V30 10083 H 924.492 -3.38663 4.31971 0
M  V30 10084 H 924.753 -3.58037 2.59349 0
M  V30 10085 N 923.813 -1.49104 -0.510467 0
M  V30 10086 C 924.723 -1.67792 -1.6396 0
M  V30 10087 C 925.739 -0.560454 -1.64727 0
M  V30 10088 O 926.915 -0.833985 -1.83321 0
M  V30 10089 C 923.98 -1.73154 -3.00364 0
M  V30 10090 C 923.041 -2.9667 -3.10299 0
M  V30 10091 C 922.274 -3.01767 -4.40196 0
M  V30 10092 O 922.497 -2.1472 -5.28443 0
M  V30 10093 O 921.431 -3.94137 -4.54906 0
M  V30 10094 H 925.257 -2.63428 -1.51126 0
M  V30 10095 H 922.842 -1.32734 -0.685719 0
M  V30 10096 H 924.724 -1.79089 -3.81451 0
M  V30 10097 H 923.399 -0.806952 -3.1348 0
M  V30 10098 H 922.306 -2.96257 -2.28435 0
M  V30 10099 H 923.639 -3.88578 -3.02106 0
M  V30 10100 N 925.291 0.760815 -1.38019 0
M  V30 10101 C 926.537 1.52198 -1.34028 0
M  V30 10102 C 926.87 1.94067 0.0718309 0
M  V30 10103 O 926.145 1.64895 1.0315 0
M  V30 10104 C 926.428 2.77954 -2.2894 0
M  V30 10105 C 926.281 2.42269 -3.7898 0
M  V30 10106 C 927.6 3.79943 -2.22107 0
M  V30 10107 H 924.719 0.552131 -0.488181 0
M  V30 10108 H 927.361 0.871971 -1.6881 0
M  V30 10109 H 925.511 3.33419 -1.9941 0
M  V30 10110 H 927.183 1.92635 -4.19153 0
M  V30 10111 H 925.426 1.74822 -3.97014 0
M  V30 10112 H 926.097 3.32211 -4.4084 0
M  V30 10113 H 928.573 3.34 -2.4816 0
M  V30 10114 H 927.449 4.6564 -2.90639 0
M  V30 10115 H 927.71 4.25004 -1.21753 0
M  V30 10116 N 926.769 1.22769 0.988202 0
M  V30 10117 C 927.732 1.00325 2.06076 0
M  V30 10118 C 928.732 -0.0320618 1.60768 0
M  V30 10119 O 929.922 0.206912 1.72967 0
M  V30 10120 C 927.054 0.516376 3.36966 0
M  V30 10121 H 928.247 1.95499 2.27421 0
M  V30 10122 H 925.8 1.04704 1.16047 0
M  V30 10123 H 926.535 -0.439498 3.21308 0
M  V30 10124 H 926.32 1.26337 3.71189 0
M  V30 10125 H 927.81 0.37974 4.1587 0
M  V30 10126 N 928.247 -1.18576 1.03814 0
M  V30 10127 C 929.177 -2.24334 0.647795 0
M  V30 10128 C 930.158 -1.66508 -0.34774 0
M  V30 10129 O 931.343 -1.92852 -0.228401 0
M  V30 10130 C 928.473 -3.47299 0.00734922 0
M  V30 10131 C 927.427 -4.17859 0.926152 0
M  V30 10132 C 926.753 -5.34489 0.150317 0
M  V30 10133 C 928.053 -4.71632 2.24411 0
M  V30 10134 H 929.747 -2.57241 1.53191 0
M  V30 10135 H 927.293 -1.23649 0.738028 0
M  V30 10136 H 929.246 -4.20486 -0.277434 0
M  V30 10137 H 927.97 -3.13619 -0.911626 0
M  V30 10138 H 926.629 -3.46567 1.19528 0
M  V30 10139 H 926.277 -4.97056 -0.770985 0
M  V30 10140 H 925.977 -5.82633 0.762407 0
M  V30 10141 H 927.501 -6.10467 -0.127508 0
M  V30 10142 H 928.915 -5.36526 2.02021 0
M  V30 10143 H 927.312 -5.303 2.80894 0
M  V30 10144 H 928.382 -3.89192 2.89236 0
M  V30 10145 N 929.725 -0.817259 -1.34754 0
M  V30 10146 C 930.95 -0.414423 -2.03217 0
M  V30 10147 C 931.375 0.970037 -1.61158 0
M  V30 10148 O 930.733 1.63016 -0.793436 0
M  V30 10149 C 930.781 -0.518087 -3.56859 0
M  V30 10150 O 929.885 0.464314 -4.09778 0
M  V30 10151 H 929.226 -0.171454 -0.641482 0
M  V30 10152 H 931.756 -1.10611 -1.72123 0
M  V30 10153 H 931.766 -0.391779 -4.06115 0
M  V30 10154 H 930.441 -1.52786 -3.86819 0
M  V30 10155 H 929.018 0.297361 -3.71712 0
M  V30 10156 N 931.203 1.46865 -0.571711 0
M  V30 10157 C 932.151 2.31897 0.180714 0
M  V30 10158 C 933.145 1.43815 0.895191 0
M  V30 10159 O 934.351 1.60501 0.814828 0
M  V30 10160 H 930.726 0.748032 0.077148 0
M  V30 10161 H 932.697 2.93185 -0.555432 0
M  V30 10162 C 931.446 3.26766 1.18824 0
M  V30 10163 H 930.769 3.94515 0.64789 0
M  V30 10164 H 932.209 3.89067 1.68532 0
M  V30 10165 C 930.668 2.51325 2.2436 0
M  V30 10166 O 931.198 2.26825 3.31532 0
M  V30 10167 N 929.404 2.12079 1.98673 0
M  V30 10168 H 928.951 2.32204 1.1153 0
M  V30 10169 H 928.909 1.61921 2.69498 0
M  V30 10170 N 932.681 0.308908 1.54543 0
M  V30 10171 C 933.93 -0.298854 1.99474 0
M  V30 10172 C 934.243 -1.54393 1.20093 0
M  V30 10173 O 935.449 -2.22677 1.55329 0
M  V30 10174 C 933.905 -0.58303 3.55146 0
M  V30 10175 C 933.513 0.644157 4.43345 0
M  V30 10176 C 935.257 -1.15155 4.08582 0
M  V30 10177 C 933.164 0.332694 5.90463 0
M  V30 10178 H 932.094 -0.115445 0.74511 0
M  V30 10179 H 934.745 0.418848 1.78656 0
M  V30 10180 H 933.127 -1.36053 3.71894 0
M  V30 10181 H 934.301 1.42012 4.38371 0
M  V30 10182 H 932.616 1.13186 4.00722 0
M  V30 10183 H 935.213 -1.39896 5.16075 0
M  V30 10184 H 935.556 -2.09632 3.59667 0
M  V30 10185 H 936.089 -0.435571 3.95408 0
M  V30 10186 H 932.828 1.24624 6.43544 0
M  V30 10187 H 932.348 -0.405844 5.98425 0
M  V30 10188 H 934.027 -0.0628545 6.46969 0
M  V30 10189 N 934.159 -1.57557 0.0367827 0
M  V30 10190 C 935.106 -2.10679 -0.942499 0
M  V30 10191 C 936.076 -1.01068 -1.31812 0
M  V30 10192 O 937.261 -1.28533 -1.41011 0
M  V30 10193 C 934.401 -2.64467 -2.21701 0
M  V30 10194 C 933.514 -3.88114 -1.89715 0
M  V30 10195 C 932.649 -4.30268 -3.11518 0
M  V30 10196 C 931.688 -5.46652 -2.75387 0
M  V30 10197 N 930.825 -5.83927 -3.89838 0
M  V30 10198 H 935.665 -2.94066 -0.482588 0
M  V30 10199 H 933.202 -1.45344 -0.226597 0
M  V30 10200 H 935.16 -2.93745 -2.96259 0
M  V30 10201 H 933.79 -1.83898 -2.65295 0
M  V30 10202 H 932.842 -3.65516 -1.05366 0
M  V30 10203 H 934.154 -4.72743 -1.5911 0
M  V30 10204 H 933.308 -4.61023 -3.94389 0
M  V30 10205 H 932.047 -3.44421 -3.4529 0
M  V30 10206 H 931.052 -5.15583 -1.90929 0
M  V30 10207 H 932.277 -6.34204 -2.42822 0
M  V30 10208 H 930.223 -5.01035 -4.23438 0
M  V30 10209 H 930.14 -6.63214 -3.62883 0
M  V30 10210 H 931.408 -6.19291 -4.73391 0
M  V30 10211 N 935.637 0.236453 -1.55816 0
M  V30 10212 C 936.547 1.31418 -1.94336 0
M  V30 10213 C 937.563 1.52095 -0.845164 0
M  V30 10214 O 938.739 1.65515 -1.14746 0
M  V30 10215 C 935.804 2.6468 -2.23932 0
M  V30 10216 C 934.865 2.52435 -3.47239 0
M  V30 10217 C 934.098 3.79342 -3.75414 0
M  V30 10218 O 934.321 4.81694 -3.05495 0
M  V30 10219 O 933.255 3.77347 -4.68927 0
M  V30 10220 H 937.081 1.01739 -2.86152 0
M  V30 10221 H 934.666 0.438084 -1.42833 0
M  V30 10222 H 936.548 3.4341 -2.44228 0
M  V30 10223 H 935.223 2.94071 -1.35292 0
M  V30 10224 H 934.13 1.71955 -3.32238 0
M  V30 10225 H 935.463 2.27987 -4.36214 0
M  V30 10226 N 937.115 1.49373 0.502552 0
M  V30 10227 C 938.078 1.65413 1.58654 0
M  V30 10228 C 939.078 0.526003 1.51953 0
M  V30 10229 O 940.268 0.792421 1.55133 0
M  V30 10230 C 937.4 1.65005 2.98306 0
M  V30 10231 H 938.593 2.62095 1.45762 0
M  V30 10232 H 936.146 1.38381 0.726672 0
M  V30 10233 H 936.881 0.699014 3.16677 0
M  V30 10234 H 936.666 2.46931 3.04578 0
M  V30 10235 H 938.156 1.79477 3.77065 0
M  V30 10236 N 938.594 -0.753485 1.38421 0
M  V30 10237 C 939.871 -1.50318 1.25155 0
M  V30 10238 C 940.251 -2.10588 -0.147003 0
M  V30 10239 O 939.599 -1.97071 -1.15651 0
M  V30 10240 C 939.809 -2.56946 2.36177 0
M  V30 10241 C 941.157 -3.23846 2.74607 0
M  V30 10242 O 942.181 -2.67251 2.3549 0
M  V30 10243 O 941.04 -4.2621 3.42064 0
M  V30 10244 H 938.134 -0.666624 0.48943 0
M  V30 10245 H 940.68 -0.788887 1.50249 0
M  V30 10246 H 939.452 -2.1066 3.29754 0
M  V30 10247 H 939.075 -3.35956 2.12648 0
M  V30 10248 N 940.072 -1.23292 -0.981677 0
M  V30 10249 C 941.02 -1.0104 -2.09508 0
M  V30 10250 C 942.014 0.0501977 -1.69326 0
M  V30 10251 O 943.22 -0.103197 -1.79704 0
M  V30 10252 H 939.595 -0.309629 -0.685298 0
M  V30 10253 H 941.566 -1.95493 -2.25444 0
M  V30 10254 C 940.315 -0.616885 -3.42184 0
M  V30 10255 H 939.638 -1.4247 -3.73554 0
M  V30 10256 H 941.078 -0.500688 -4.21033 0
M  V30 10257 C 939.537 0.674721 -3.30074 0
M  V30 10258 O 940.067 1.72421 -3.62814 0
M  V30 10259 N 938.273 0.650151 -2.83234 0
M  V30 10260 H 937.82 -0.204225 -2.56789 0
M  V30 10261 H 937.778 1.51458 -2.75514 0
M  V30 10262 N 941.55 1.18024 -1.04442 0
M  V30 10263 C 942.778 1.92032 -0.770161 0
M  V30 10264 C 943.193 1.76391 0.673181 0
M  V30 10265 O 942.55 1.09604 1.45922 0
M  V30 10266 C 942.601 3.43328 -1.13173 0
M  V30 10267 O 942.322 3.5848 -2.51841 0
M  V30 10268 C 943.823 4.34427 -0.882523 0
M  V30 10269 H 941.043 0.609518 -0.280586 0
M  V30 10270 H 943.587 1.49711 -1.39308 0
M  V30 10271 H 941.742 3.83423 -0.553704 0
M  V30 10272 H 942.156 4.52166 -2.65794 0
M  V30 10273 H 943.63 5.39123 -1.18533 0
M  V30 10274 H 944.107 4.3882 0.18257 0
M  V30 10275 H 944.713 4.00035 -1.44403 0
M  V30 10276 N 943.028 0.824394 1.34319 0
M  V30 10277 C 944.274 0.413779 1.98534 0
M  V30 10278 C 944.607 -1.02089 1.65201 0
M  V30 10279 O 943.882 -1.71129 0.924402 0
M  V30 10280 C 944.165 0.61801 3.54757 0
M  V30 10281 C 944.018 2.0989 3.97827 0
M  V30 10282 C 945.337 0.0549041 4.40066 0
M  V30 10283 H 942.456 0.151815 0.721194 0
M  V30 10284 H 945.098 1.03723 1.5919 0
M  V30 10285 H 943.248 0.0873107 3.88402 0
M  V30 10286 H 944.92 2.69335 3.74508 0
M  V30 10287 H 943.163 2.58881 3.48085 0
M  V30 10288 H 943.834 2.1926 5.06586 0
M  V30 10289 H 946.31 0.508348 4.12983 0
M  V30 10290 H 945.186 0.227595 5.48428 0
M  V30 10291 H 945.447 -1.04025 4.29687 0
M  V30 10292 N 944.506 -1.46559 0.579492 0
M  V30 10293 C 945.439 -2.27287 -0.203894 0
M  V30 10294 C 946.417 -1.3543 -0.899865 0
M  V30 10295 O 947.601 -1.64836 -0.914398 0
M  V30 10296 C 944.728 -3.13077 -1.2923 0
M  V30 10297 C 943.774 -4.20675 -0.702505 0
M  V30 10298 S 944.607 -5.3345 0.468136 0
M  V30 10299 C 945.763 -6.22806 -0.621544 0
M  V30 10300 H 945.996 -2.93382 0.481083 0
M  V30 10301 H 943.529 -1.49992 0.366311 0
M  V30 10302 H 945.487 -3.63069 -1.91548 0
M  V30 10303 H 944.148 -2.46302 -1.94921 0
M  V30 10304 H 943.341 -4.80516 -1.52053 0
M  V30 10305 H 942.943 -3.73678 -0.155046 0
M  V30 10306 H 945.235 -6.60503 -1.50803 0
M  V30 10307 H 946.178 -7.08075 -0.059961 0
M  V30 10308 H 946.586 -5.56882 -0.924242 0
M  V30 10309 N 945.984 -0.3171 -1.54377 0
M  V30 10310 C 947.231 0.28741 -2.0045 0
M  V30 10311 C 947.559 1.52648 -1.20535 0
M  V30 10312 O 946.814 1.93775 -0.273831 0
M  V30 10313 C 947.113 0.672917 -3.51008 0
M  V30 10314 C 946.779 -0.466245 -4.48483 0
M  V30 10315 C 945.441 -0.778933 -4.74854 0
M  V30 10316 C 947.793 -1.23176 -5.06436 0
M  V30 10317 C 945.121 -1.85997 -5.56437 0
M  V30 10318 C 947.473 -2.30284 -5.89196 0
M  V30 10319 C 946.137 -2.62141 -6.13872 0
M  V30 10320 H 945.407 0.105171 -0.733499 0
M  V30 10321 H 948.054 -0.439538 -1.86388 0
M  V30 10322 H 946.359 1.48019 -3.62764 0
M  V30 10323 H 948.056 1.15209 -3.84094 0
M  V30 10324 H 944.646 -0.212449 -4.28073 0
M  V30 10325 H 948.83 -1.00344 -4.8605 0
M  V30 10326 H 944.086 -2.11134 -5.73788 0
M  V30 10327 H 948.26 -2.90048 -6.33123 0
M  V30 10328 H 945.887 -3.46037 -6.76877 0
M  V30 10329 N 947.462 1.57535 -0.0451378 0
M  V30 10330 C 948.395 2.06721 0.96653 0
M  V30 10331 C 949.373 0.966392 1.30766 0
M  V30 10332 O 950.557 1.23789 1.42157 0
M  V30 10333 C 947.684 2.50266 2.2822 0
M  V30 10334 C 946.73 3.71525 2.09455 0
M  V30 10335 S 947.563 5.17453 1.37851 0
M  V30 10336 C 948.719 5.64308 2.70753 0
M  V30 10337 H 948.952 2.92207 0.547911 0
M  V30 10338 H 946.485 1.53494 0.166973 0
M  V30 10339 H 948.443 2.76019 3.03849 0
M  V30 10340 H 947.104 1.65097 2.67211 0
M  V30 10341 H 946.297 3.99894 3.06759 0
M  V30 10342 H 945.899 3.46008 1.41967 0
M  V30 10343 H 948.191 5.69525 3.66943 0
M  V30 10344 H 949.134 6.63613 2.47028 0
M  V30 10345 H 949.542 4.92014 2.76736 0
M  V30 10346 N 948.94 -0.228186 1.55939 0
M  V30 10347 C 949.872 -1.30605 1.88348 0
M  V30 10348 C 950.885 -1.43375 0.771198 0
M  V30 10349 O 952.074 -1.44391 1.04945 0
M  V30 10350 C 949.174 -2.68248 2.07115 0
M  V30 10351 C 948.347 -2.77509 3.38094 0
M  V30 10352 C 947.406 -3.96121 3.46373 0
M  V30 10353 O 946.432 -3.8477 4.19453 0
M  V30 10354 N 947.634 -5.10132 2.77031 0
M  V30 10355 H 950.399 -1.03132 2.81396 0
M  V30 10356 H 947.96 -0.418245 1.56404 0
M  V30 10357 H 949.952 -3.45966 2.09976 0
M  V30 10358 H 948.522 -2.88348 1.20723 0
M  V30 10359 H 947.742 -1.8632 3.47388 0
M  V30 10360 H 949.03 -2.80662 4.2439 0
M  V30 10361 H 948.428 -5.22249 2.17424 0
M  V30 10362 H 946.985 -5.85916 2.85561 0
M  V30 10363 N 950.418 -1.49637 -0.494624 0
M  V30 10364 C 951.666 -1.5913 -1.24587 0
M  V30 10365 C 951.987 -0.282828 -1.92938 0
M  V30 10366 O 951.257 0.69825 -1.83034 0
M  V30 10367 H 949.837 -0.586329 -0.462847 0
M  V30 10368 H 952.499 -1.86296 -0.572696 0
M  V30 10369 H 951.595 -2.3906 -2.00641 0
M  V30 10370 N 951.896 0.746133 -1.38819 0
M  V30 10371 C 952.843 1.86001 -1.36647 0
M  V30 10372 C 953.813 1.6453 -0.227849 0
M  V30 10373 O 954.998 1.86092 -0.421241 0
M  V30 10374 C 952.138 3.23388 -1.20474 0
M  V30 10375 C 951.251 3.5664 -2.43786 0
M  V30 10376 C 950.386 4.8337 -2.20287 0
M  V30 10377 C 949.425 5.09431 -3.39332 0
M  V30 10378 N 948.562 6.2736 -3.1522 0
M  V30 10379 H 953.402 1.87192 -2.31869 0
M  V30 10380 H 950.939 0.914838 -1.15192 0
M  V30 10381 H 952.897 4.02679 -1.09112 0
M  V30 10382 H 951.527 3.21505 -0.288874 0
M  V30 10383 H 950.579 2.72135 -2.65794 0
M  V30 10384 H 951.891 3.71823 -3.3249 0
M  V30 10385 H 951.045 5.70619 -2.06103 0
M  V30 10386 H 949.784 4.70341 -1.28961 0
M  V30 10387 H 948.789 4.20648 -3.54027 0
M  V30 10388 H 950.014 5.24354 -4.31544 0
M  V30 10389 H 947.96 6.15639 -2.26549 0
M  V30 10390 H 947.877 6.43078 -3.97476 0
M  V30 10391 H 949.145 7.17477 -3.04707 0
M  V30 10392 N 953.375 1.23811 0.975125 0
M  V30 10393 C 954.791 1.0019 1.24234 0
M  V30 10394 C 954.991 -0.293811 1.99346 0
M  V30 10395 O 954.047 -1.01189 2.31337 0
M  V30 10396 C 955.36 2.21218 2.03674 0
M  V30 10397 C 956.908 2.25764 2.16793 0
M  V30 10398 C 957.383 3.46394 2.99626 0
M  V30 10399 N 958.874 3.46665 3.07209 0
M  V30 10400 C 959.609 4.3666 3.71639 0
M  V30 10401 N 959.105 5.36899 4.37849 0
M  V30 10402 N 960.898 4.2439 3.68578 0
M  V30 10403 H 953.049 2.07087 0.472076 0
M  V30 10404 H 955.312 0.90838 0.271201 0
M  V30 10405 H 955.018 3.15277 1.55862 0
M  V30 10406 H 954.892 2.22733 3.04417 0
M  V30 10407 H 957.279 1.32242 2.63811 0
M  V30 10408 H 957.36 2.28279 1.15422 0
M  V30 10409 H 957.004 4.40227 2.53304 0
M  V30 10410 H 956.934 3.41121 4.01178 0
M  V30 10411 H 959.425 2.74142 2.60105 0
M  V30 10412 H 959.738 6.01816 4.84807 0
M  V30 10413 H 958.083 5.40793 4.36541 0
M  V30 10414 H 961.274 3.4532 3.16025 0
M  V30 10415 H 961.447 4.94727 4.18508 0
M  V30 10416 N 954.853 -1.17469 1.05066 0
M  V30 10417 C 955.785 -2.20974 0.608526 0
M  V30 10418 C 956.798 -1.59481 -0.327066 0
M  V30 10419 O 957.987 -1.78096 -0.12 0
M  V30 10420 C 955.087 -3.38652 -0.12969 0
M  V30 10421 C 954.26 -4.29716 0.816285 0
M  V30 10422 C 953.319 -5.26064 0.119556 0
M  V30 10423 O 952.345 -5.64194 0.753241 0
M  V30 10424 N 953.547 -5.69126 -1.14347 0
M  V30 10425 H 956.312 -2.59529 1.49882 0
M  V30 10426 H 953.873 -1.32355 0.932406 0
M  V30 10427 H 955.865 -4.00139 -0.605886 0
M  V30 10428 H 954.435 -2.98705 -0.921638 0
M  V30 10429 H 953.655 -3.6568 1.47213 0
M  V30 10430 H 954.943 -4.87449 1.45845 0
M  V30 10431 H 954.341 -5.4022 -1.67866 0
M  V30 10432 H 952.898 -6.32764 -1.56376 0
M  V30 10433 N 956.331 -0.831506 -1.3388 0
M  V30 10434 C 957.278 -0.257449 -2.2936 0
M  V30 10435 C 958.248 0.622604 -1.5399 0
M  V30 10436 O 959.433 0.562432 -1.82322 0
M  V30 10437 C 956.573 0.567587 -3.404 0
M  V30 10438 C 955.686 -0.335666 -4.30694 0
M  V30 10439 C 954.821 0.499762 -5.28844 0
M  V30 10440 C 953.86 -0.402343 -6.10776 0
M  V30 10441 N 952.997 0.39452 -7.00991 0
M  V30 10442 H 957.837 -1.077 -2.77857 0
M  V30 10443 H 955.374 -0.542589 -1.36727 0
M  V30 10444 H 957.332 1.06133 -4.03474 0
M  V30 10445 H 955.962 1.35217 -2.93115 0
M  V30 10446 H 955.014 -0.94768 -3.68406 0
M  V30 10447 H 956.326 -1.02896 -4.88072 0
M  V30 10448 H 955.48 1.05763 -5.9741 0
M  V30 10449 H 954.219 1.22652 -4.72025 0
M  V30 10450 H 953.224 -0.972288 -5.41135 0
M  V30 10451 H 954.449 -1.12735 -6.69677 0
M  V30 10452 H 952.395 1.1048 -6.4663 0
M  V30 10453 H 952.312 -0.240209 -7.55618 0
M  V30 10454 H 953.58 0.934867 -7.73874 0
M  V30 10455 N 957.809 1.4625 -0.587256 0
M  V30 10456 C 958.719 2.34147 0.145744 0
M  V30 10457 C 959.735 1.50026 0.881376 0
M  V30 10458 O 960.911 1.82884 0.843539 0
M  V30 10459 C 957.976 3.27294 1.14366 0
M  V30 10460 C 957.037 4.27317 0.412199 0
M  V30 10461 C 956.27 5.16013 1.36257 0
M  V30 10462 O 956.493 5.0773 2.59934 0
M  V30 10463 O 955.427 5.95569 0.870681 0
M  V30 10464 H 959.253 2.98187 -0.576055 0
M  V30 10465 H 956.838 1.45299 -0.347628 0
M  V30 10466 H 958.72 3.84747 1.71894 0
M  V30 10467 H 957.395 2.65845 1.84684 0
M  V30 10468 H 956.302 3.73538 -0.205036 0
M  V30 10469 H 957.635 4.91564 -0.250104 0
M  V30 10470 N 959.287 0.325282 1.54207 0
M  V30 10471 C 960.536 -0.27768 1.99779 0
M  V30 10472 C 960.849 -1.5311 1.21723 0
M  V30 10473 O 962.055 -2.21017 1.57682 0
M  V30 10474 C 960.511 -0.545329 3.55745 0
M  V30 10475 C 960.119 0.691143 4.42637 0
M  V30 10476 C 961.863 -1.10815 4.09781 0
M  V30 10477 C 959.77 0.395302 5.90077 0
M  V30 10478 H 958.7 -0.107536 0.746292 0
M  V30 10479 H 961.351 0.437773 1.78202 0
M  V30 10480 H 959.733 -1.32101 3.73317 0
M  V30 10481 H 960.907 1.46653 4.3684 0
M  V30 10482 H 959.222 1.1743 3.99499 0
M  V30 10483 H 961.819 -1.34414 5.1753 0
M  V30 10484 H 962.162 -2.05806 3.6187 0
M  V30 10485 H 962.695 -0.393608 3.95848 0
M  V30 10486 H 959.434 1.31443 6.42186 0
M  V30 10487 H 958.954 -0.34235 5.98822 0
M  V30 10488 H 960.633 0.00576877 6.47 0
M  V30 10489 N 960.765 -1.57509 0.0534917 0
M  V30 10490 C 962.011 -1.93887 -0.614776 0
M  V30 10491 C 962.366 -0.932098 -1.68314 0
M  V30 10492 O 961.659 0.0483848 -1.91539 0
M  V30 10493 C 961.853 -3.34734 -1.25251 0
M  V30 10494 C 961.682 -4.49019 -0.247444 0
M  V30 10495 C 960.452 -5.05042 0.161406 0
M  V30 10496 C 962.65 -5.11784 0.508059 0
M  V30 10497 N 960.632 -6.02858 1.15909 0
M  V30 10498 C 962.003 -6.04928 1.35876 0
M  V30 10499 C 964.058 -4.94671 0.56612 0
M  V30 10500 C 962.761 -6.82797 2.26232 0
M  V30 10501 C 964.787 -5.73168 1.45712 0
M  V30 10502 C 964.149 -6.65946 2.29554 0
M  V30 10503 H 960.248 -0.756899 -0.196538 0
M  V30 10504 H 962.832 -1.94289 0.126365 0
M  V30 10505 H 961.003 -3.35104 -1.96367 0
M  V30 10506 H 962.735 -3.58395 -1.87977 0
M  V30 10507 H 959.49 -4.73098 -0.218025 0
M  V30 10508 H 959.914 -6.56462 1.6549 0
M  V30 10509 H 964.556 -4.22746 -0.0678652 0
M  V30 10510 H 962.274 -7.54012 2.90675 0
M  V30 10511 H 965.86 -5.61953 1.50664 0
M  V30 10512 H 964.74 -7.25627 2.97381 0
M  V30 10513 N 962.243 0.219913 -1.56058 0
M  V30 10514 C 963.193 1.27606 -1.88946 0
M  V30 10515 C 964.177 1.42209 -0.752691 0
M  V30 10516 O 965.369 1.44996 -1.01514 0
M  V30 10517 C 962.498 2.62614 -2.21108 0
M  V30 10518 C 961.584 2.51906 -3.4118 0
M  V30 10519 N 961.975 2.10851 -4.59756 0
M  V30 10520 C 960.273 2.82861 -3.44827 0
M  V30 10521 C 960.974 2.11434 -5.41914 0
M  V30 10522 N 959.95 2.51985 -4.81669 0
M  V30 10523 H 963.752 0.94957 -2.78137 0
M  V30 10524 H 961.266 0.428468 -1.56646 0
M  V30 10525 H 963.263 3.38869 -2.42844 0
M  V30 10526 H 961.923 2.96108 -1.3323 0
M  V30 10527 H 962.934 1.81956 -4.84884 0
M  V30 10528 H 959.611 3.20716 -2.67297 0
M  V30 10529 H 961.001 1.81803 -6.46836 0
M  V30 10530 N 963.721 1.49897 0.486681 0
M  V30 10531 C 964.651 1.7054 1.59494 0
M  V30 10532 C 965.632 0.554184 1.60819 0
M  V30 10533 O 966.817 0.791617 1.77333 0
M  V30 10534 C 963.947 1.78517 2.97908 0
M  V30 10535 C 962.901 2.93571 3.11449 0
M  V30 10536 C 962.227 2.86674 4.51356 0
M  V30 10537 C 963.527 4.34308 2.90127 0
M  V30 10538 H 965.221 2.63329 1.42472 0
M  V30 10539 H 962.767 1.2672 0.683969 0
M  V30 10540 H 964.72 1.91544 3.75352 0
M  V30 10541 H 963.444 0.823381 3.16051 0
M  V30 10542 H 962.103 2.80169 2.36433 0
M  V30 10543 H 961.751 1.88373 4.66395 0
M  V30 10544 H 961.451 3.63903 4.61355 0
M  V30 10545 H 962.975 3.01728 5.30841 0
M  V30 10546 H 964.389 4.48317 3.57331 0
M  V30 10547 H 962.786 5.12869 3.11585 0
M  V30 10548 H 963.856 4.47759 1.86119 0
M  V30 10549 N 965.199 -0.738761 1.39212 0
M  V30 10550 C 966.129 -1.86602 1.40364 0
M  V30 10551 C 967.11 -1.67984 0.267495 0
M  V30 10552 O 968.295 -1.88358 0.472765 0
M  V30 10553 C 965.425 -3.24308 1.24265 0
M  V30 10554 C 964.379 -3.57557 2.35239 0
M  V30 10555 C 963.705 -4.94159 2.04233 0
M  V30 10556 C 965.005 -3.60914 3.77543 0
M  V30 10557 H 966.699 -1.85896 2.34698 0
M  V30 10558 H 964.245 -0.892959 1.1297 0
M  V30 10559 H 966.198 -4.02838 1.23692 0
M  V30 10560 H 964.922 -3.25531 0.263974 0
M  V30 10561 H 963.581 -2.81354 2.35022 0
M  V30 10562 H 963.229 -4.91959 1.04813 0
M  V30 10563 H 962.929 -5.17373 2.78567 0
M  V30 10564 H 964.453 -5.7505 2.05303 0
M  V30 10565 H 965.867 -4.29528 3.79709 0
M  V30 10566 H 964.264 -3.95644 4.51205 0
M  V30 10567 H 965.334 -2.60803 4.08791 0
M  V30 10568 N 966.677 -1.24326 -0.968545 0
M  V30 10569 C 967.624 -1.0349 -2.06297 0
M  V30 10570 C 968.594 0.0515333 -1.6602 0
M  V30 10571 O 969.779 -0.102924 -1.90522 0
M  V30 10572 C 966.919 -0.64487 -3.39021 0
M  V30 10573 C 966.032 -1.80469 -3.92498 0
M  V30 10574 C 965.167 -1.36032 -5.13487 0
M  V30 10575 C 964.206 -2.49014 -5.59159 0
M  V30 10576 N 963.343 -2.05451 -6.71367 0
M  V30 10577 H 968.183 -1.97161 -2.23454 0
M  V30 10578 H 965.72 -0.982028 -1.0952 0
M  V30 10579 H 967.678 -0.399771 -4.1528 0
M  V30 10580 H 966.308 0.254845 -3.21792 0
M  V30 10581 H 965.36 -2.16348 -3.12886 0
M  V30 10582 H 966.672 -2.65365 -4.22354 0
M  V30 10583 H 965.826 -1.07405 -5.97117 0
M  V30 10584 H 964.565 -0.481887 -4.85313 0
M  V30 10585 H 963.57 -2.78402 -4.74102 0
M  V30 10586 H 964.795 -3.37413 -5.89346 0
M  V30 10587 H 962.741 -1.20004 -6.4493 0
M  V30 10588 H 962.658 -2.83901 -7.00668 0
M  V30 10589 H 963.926 -1.79962 -7.58442 0
M  V30 10590 N 968.156 1.1691 -1.05688 0
M  V30 10591 C 969.405 1.86629 -0.765022 0
M  V30 10592 C 969.718 1.82223 0.710918 0
M  V30 10593 O 970.924 2.47462 1.11691 0
M  V30 10594 C 969.38 3.34886 -1.3183 0
M  V30 10595 C 968.988 3.47781 -2.82404 0
M  V30 10596 C 970.732 4.099 -1.10372 0
M  V30 10597 C 968.639 4.9009 -3.31008 0
M  V30 10598 H 967.569 0.699082 -0.282491 0
M  V30 10599 H 970.22 1.31989 -1.27481 0
M  V30 10600 H 968.602 3.89094 -0.736312 0
M  V30 10601 H 969.776 3.03765 -3.46502 0
M  V30 10602 H 968.091 2.86193 -3.02461 0
M  V30 10603 H 970.688 5.14894 -1.4418 0
M  V30 10604 H 971.031 4.16279 -0.0417372 0
M  V30 10605 H 971.564 3.61913 -1.65117 0
M  V30 10606 H 968.303 4.88887 -4.36657 0
M  V30 10607 H 967.823 5.34756 -2.71655 0
M  V30 10608 H 969.502 5.58881 -3.25977 0
M  V30 10609 N 969.634 0.838594 1.33437 0
M  V30 10610 C 970.597 0.276843 2.27522 0
M  V30 10611 C 971.597 -0.554275 1.50945 0
M  V30 10612 O 972.787 -0.368107 1.70266 0
M  V30 10613 C 969.919 -0.610036 3.35397 0
M  V30 10614 H 971.112 1.10705 2.78719 0
M  V30 10615 H 968.665 0.611657 1.43835 0
M  V30 10616 H 969.4 -1.46269 2.89441 0
M  V30 10617 H 969.185 -0.0153615 3.92097 0
M  V30 10618 H 970.675 -0.996368 4.05539 0
M  V30 10619 N 971.112 -1.45937 0.595003 0
M  V30 10620 C 972.352 -2.0421 0.0881479 0
M  V30 10621 C 972.716 -1.45498 -1.25277 0
M  V30 10622 O 973.917 -1.95047 -1.8496 0
M  V30 10623 C 972.188 -3.57382 0.0362346 0
M  V30 10624 S 973.747 -4.36869 -0.41126 0
M  V30 10625 H 970.565 -0.709672 0.0434424 0
M  V30 10626 H 973.167 -1.78815 0.790273 0
M  V30 10627 H 971.871 -3.97628 1.0159 0
M  V30 10628 H 971.402 -3.87332 -0.688278 0
M  V30 10629 H 973.417 -4.67486 -1.66347 0
M  V30 10630 N 972.59 -0.333456 -1.54032 0
M  V30 10631 C 973.818 0.267813 -2.05159 0
M  V30 10632 C 974.233 1.4501 -1.20903 0
M  V30 10633 O 973.59 1.80888 -0.241994 0
M  V30 10634 C 973.641 0.69268 -3.54802 0
M  V30 10635 O 973.362 -0.442579 -4.35859 0
M  V30 10636 C 974.863 1.35572 -4.2206 0
M  V30 10637 H 972.083 0.0534924 -0.668864 0
M  V30 10638 H 974.627 -0.482515 -1.98726 0
M  V30 10639 H 972.782 1.39297 -3.6149 0
M  V30 10640 H 973.196 -0.105915 -5.24393 0
M  V30 10641 H 974.67 1.60385 -5.28186 0
M  V30 10642 H 975.147 2.30614 -3.73783 0
M  V30 10643 H 975.753 0.697748 -4.19537 0
M  V30 10644 N 974.068 1.57479 -0.061844 0
M  V30 10645 C 975 2.09116 0.938245 0
M  V30 10646 C 976.013 1.0212 1.26788 0
M  V30 10647 O 977.202 1.2966 1.22681 0
M  V30 10648 C 974.302 2.52822 2.25686 0
M  V30 10649 C 973.475 3.83277 2.10755 0
M  V30 10650 C 972.534 4.13182 3.25833 0
M  V30 10651 O 971.56 4.82937 3.01265 0
M  V30 10652 N 972.762 3.65938 4.50633 0
M  V30 10653 H 975.527 2.95543 0.497433 0
M  V30 10654 H 973.088 1.61423 0.124134 0
M  V30 10655 H 975.08 2.69896 3.01559 0
M  V30 10656 H 973.65 1.71586 2.61299 0
M  V30 10657 H 972.87 3.7568 1.19409 0
M  V30 10658 H 974.158 4.68686 1.98018 0
M  V30 10659 H 973.556 3.09566 4.73482 0
M  V30 10660 H 972.113 3.8823 5.23565 0
M  V30 10661 N 975.546 -0.211634 1.56173 0
M  V30 10662 C 976.771 -0.955324 1.84088 0
M  V30 10663 C 977.196 -1.76754 0.643407 0
M  V30 10664 O 976.554 -1.76653 -0.407842 0
M  V30 10665 C 976.602 -1.84063 3.10085 0
M  V30 10666 O 975.706 -2.9373 2.89476 0
M  V30 10667 H 975.047 -0.26996 0.606645 0
M  V30 10668 H 977.577 -0.221947 2.03393 0
M  V30 10669 H 977.587 -2.24852 3.40449 0
M  V30 10670 H 976.262 -1.24373 3.96868 0
M  V30 10671 H 974.839 -2.56816 2.7037 0
M  V30 10672 N 977.024 -1.50153 -0.478725 0
M  V30 10673 C 978.249 -1.64776 -1.2595 0
M  V30 10674 C 978.674 -0.327794 -1.85222 0
M  V30 10675 O 978.032 0.707418 -1.66929 0
M  V30 10676 C 978.08 -2.73551 -2.34952 0
M  V30 10677 O 977.184 -2.34273 -3.39397 0
M  V30 10678 H 976.525 -0.550769 -0.370877 0
M  V30 10679 H 979.055 -1.96482 -0.570605 0
M  V30 10680 H 979.065 -2.96397 -2.8038 0
M  V30 10681 H 977.74 -3.69354 -1.91181 0
M  V30 10682 H 976.317 -2.21844 -2.99733 0
M  V30 10683 N 978.502 0.731368 -1.39602 0
M  V30 10684 C 979.465 1.8271 -1.38383 0
M  V30 10685 C 980.465 1.58338 -0.280309 0
M  V30 10686 O 981.655 1.65671 -0.538402 0
M  V30 10687 C 978.787 3.20556 -1.16002 0
M  V30 10688 H 979.98 1.85193 -2.35889 0
M  V30 10689 H 977.533 0.935396 -1.2522 0
M  V30 10690 H 978.268 3.23732 -0.191927 0
M  V30 10691 H 978.053 3.39643 -1.9592 0
M  V30 10692 H 979.543 4.00612 -1.17899 0
M  V30 10693 N 979.98 1.24838 0.961938 0
M  V30 10694 C 981.396 1.01502 1.23165 0
M  V30 10695 C 981.596 -0.272651 1.99647 0
M  V30 10696 O 980.652 -0.987297 2.32398 0
M  V30 10697 C 981.965 2.23366 2.01316 0
M  V30 10698 C 983.513 2.28051 2.14387 0
M  V30 10699 C 983.988 3.49552 2.95935 0
M  V30 10700 N 985.479 3.49904 3.03515 0
M  V30 10701 C 986.214 4.40577 3.66987 0
M  V30 10702 N 985.71 5.41512 4.3213 0
M  V30 10703 N 987.503 4.28275 3.64056 0
M  V30 10704 H 979.654 2.07576 0.450086 0
M  V30 10705 H 981.917 0.911205 0.261551 0
M  V30 10706 H 981.623 3.16913 1.5251 0
M  V30 10707 H 981.497 2.25949 3.02038 0
M  V30 10708 H 983.884 1.35032 2.62393 0
M  V30 10709 H 983.965 2.29491 1.12994 0
M  V30 10710 H 983.609 4.42889 2.4862 0
M  V30 10711 H 983.539 3.45357 3.97538 0
M  V30 10712 H 986.03 2.76885 2.57183 0
M  V30 10713 H 986.343 6.06924 4.78396 0
M  V30 10714 H 984.688 5.45393 4.3078 0
M  V30 10715 H 987.879 3.48653 3.12344 0
M  V30 10716 H 988.052 4.99138 4.13237 0
M  V30 10717 N 981.458 -1.16348 1.06306 0
M  V30 10718 C 982.683 -1.91323 0.800636 0
M  V30 10719 C 983.108 -1.7691 -0.639105 0
M  V30 10720 O 982.466 -1.0945 -1.44535 0
M  V30 10721 C 982.514 -3.40038 1.20027 0
M  V30 10722 O 981.618 -4.11003 0.339142 0
M  V30 10723 H 980.959 -0.596057 0.292595 0
M  V30 10724 H 983.489 -1.47406 1.41889 0
M  V30 10725 H 983.499 -3.90808 1.17188 0
M  V30 10726 H 982.174 -3.49848 2.24898 0
M  V30 10727 H 980.751 -3.70423 0.42911 0
M  V30 10728 N 982.937 -0.845659 -1.3299 0
M  V30 10729 C 983.867 -0.298957 -2.31578 0
M  V30 10730 C 984.848 0.597012 -1.59279 0
M  V30 10731 O 986.033 0.519142 -1.87132 0
M  V30 10732 C 983.163 0.521109 -3.43368 0
M  V30 10733 C 982.117 -0.279651 -4.27085 0
M  V30 10734 C 981.443 0.664591 -5.30554 0
M  V30 10735 C 982.743 -1.50046 -5.00283 0
M  V30 10736 H 984.437 -1.12272 -2.77552 0
M  V30 10737 H 981.983 -0.54132 -1.33438 0
M  V30 10738 H 983.936 0.913921 -4.1137 0
M  V30 10739 H 982.66 1.37815 -2.96099 0
M  V30 10740 H 981.319 -0.654106 -3.60717 0
M  V30 10741 H 980.967 1.51822 -4.79541 0
M  V30 10742 H 980.667 0.132871 -5.8745 0
M  V30 10743 H 982.191 1.05477 -6.01421 0
M  V30 10744 H 983.605 -1.18044 -5.61016 0
M  V30 10745 H 982.002 -1.96946 -5.66862 0
M  V30 10746 H 983.072 -2.26659 -4.28665 0
M  V30 10747 N 984.415 1.45619 -0.602734 0
M  V30 10748 C 985.661 2.02572 -0.0961759 0
M  V30 10749 C 985.994 1.47076 1.26815 0
M  V30 10750 O 985.269 0.643566 1.83544 0
M  V30 10751 C 985.552 3.60062 -0.0520032 0
M  V30 10752 C 985.405 4.25901 -1.44665 0
M  V30 10753 C 986.724 4.35446 0.638342 0
M  V30 10754 H 983.843 0.736099 -0.0364238 0
M  V30 10755 H 986.485 1.7353 -0.773776 0
M  V30 10756 H 984.635 3.84936 0.525032 0
M  V30 10757 H 986.307 4.12228 -2.0704 0
M  V30 10758 H 984.55 3.84489 -2.00874 0
M  V30 10759 H 985.221 5.34779 -1.36803 0
M  V30 10760 H 987.697 4.15837 0.147926 0
M  V30 10761 H 986.573 5.45176 0.63834 0
M  V30 10762 H 986.834 4.07962 1.70351 0
M  V30 10763 N 985.893 0.34162 1.53853 0
M  V30 10764 C 987.141 -0.254979 2.00485 0
M  V30 10765 C 987.462 -1.51222 1.23114 0
M  V30 10766 O 986.732 -1.92966 0.337787 0
M  V30 10767 H 985.312 -0.0972084 0.740648 0
M  V30 10768 H 987.974 0.462332 1.89337 0
M  V30 10769 H 987.07 -0.498778 3.08089 0
M  V30 10770 N 987.371 -1.57444 0.0701946 0
M  V30 10771 C 988.596 -1.98171 -0.61181 0
M  V30 10772 C 989.021 -0.94823 -1.62451 0
M  V30 10773 O 988.379 0.0863553 -1.81094 0
M  V30 10774 C 988.427 -3.37934 -1.2583 0
M  V30 10775 O 987.531 -3.37207 -2.37414 0
M  V30 10776 H 986.872 -0.645056 -0.157477 0
M  V30 10777 H 989.402 -2.04091 0.144235 0
M  V30 10778 H 989.412 -3.75083 -1.60552 0
M  V30 10779 H 988.087 -4.12684 -0.516234 0
M  V30 10780 H 986.664 -3.11826 -2.04497 0
M  V30 10781 N 988.849 0.203349 -1.56283 0
M  V30 10782 C 990.074 0.945548 -1.84592 0
M  V30 10783 C 990.499 1.7641 -0.652772 0
M  V30 10784 O 989.857 1.76867 0.398468 0
M  V30 10785 C 989.905 1.82416 -3.11057 0
M  V30 10786 O 989.009 2.92191 -2.9103 0
M  V30 10787 H 988.35 0.266739 -0.608068 0
M  V30 10788 H 990.88 0.211158 -2.03507 0
M  V30 10789 H 990.89 2.23044 -3.41636 0
M  V30 10790 H 989.565 1.22267 -3.97522 0
M  V30 10791 H 988.142 2.55378 -2.71728 0
M  V30 10792 N 990.327 1.50405 0.470755 0
M  V30 10793 C 991.257 1.72222 1.57676 0
M  V30 10794 C 992.238 0.57121 1.60222 0
M  V30 10795 O 993.423 0.810381 1.76484 0
M  V30 10796 C 990.553 1.81666 2.95998 0
M  V30 10797 C 989.507 2.96857 3.08318 0
M  V30 10798 C 988.833 2.91445 4.4829 0
M  V30 10799 C 990.133 4.37361 2.85504 0
M  V30 10800 H 991.827 2.64825 1.39671 0
M  V30 10801 H 989.373 1.27438 0.67049 0
M  V30 10802 H 991.326 1.95514 3.73299 0
M  V30 10803 H 990.05 0.856856 3.1516 0
M  V30 10804 H 988.709 2.82661 2.33449 0
M  V30 10805 H 988.357 1.93309 4.64371 0
M  V30 10806 H 988.057 3.68776 4.57469 0
M  V30 10807 H 989.581 3.07341 5.27611 0
M  V30 10808 H 990.995 4.52081 3.52555 0
M  V30 10809 H 989.392 5.16145 3.06127 0
M  V30 10810 H 990.462 4.49708 1.81359 0
M  V30 10811 N 991.805 -0.723954 1.39988 0
M  V30 10812 C 992.715 -1.86829 1.41887 0
M  V30 10813 C 993.731 -1.71173 0.312401 0
M  V30 10814 O 994.907 -1.93583 0.555651 0
M  V30 10815 C 991.972 -3.22541 1.27154 0
M  V30 10816 C 991.033 -3.50512 2.47871 0
M  V30 10817 C 990.266 -4.79749 2.33831 0
M  V30 10818 O 990.489 -5.54251 1.34765 0
M  V30 10819 O 989.423 -5.07868 3.23039 0
M  V30 10820 H 993.249 -1.88183 2.38371 0
M  V30 10821 H 990.834 -0.873259 1.21221 0
M  V30 10822 H 992.716 -4.0362 1.21114 0
M  V30 10823 H 991.391 -3.21933 0.337715 0
M  V30 10824 H 990.298 -2.69475 2.59488 0
M  V30 10825 H 991.631 -3.55909 3.39985 0
M  V30 10826 N 993.283 -1.25346 -0.955304 0
M  V30 10827 C 994.531 -1.09837 -1.69647 0
M  V30 10828 C 994.852 0.361425 -1.91621 0
M  V30 10829 O 994.122 1.25666 -1.50283 0
M  V30 10830 H 992.702 -0.403467 -0.628668 0
M  V30 10831 H 995.364 -1.57459 -1.14859 0
M  V30 10832 H 994.46 -1.60616 -2.67598 0
M  V30 10833 N 994.761 1.15782 -1.06922 0
M  V30 10834 C 995.724 2.18578 -0.689654 0
M  V30 10835 C 996.724 1.58553 0.267872 0
M  V30 10836 O 997.914 1.7413 0.0494097 0
M  V30 10837 C 995.046 3.40896 -0.0157919 0
M  V30 10838 H 996.239 2.53672 -1.59971 0
M  V30 10839 H 993.792 1.30168 -0.865214 0
M  V30 10840 H 994.527 3.11367 0.906712 0
M  V30 10841 H 994.312 3.85721 -0.704415 0
M  V30 10842 H 995.802 4.16937 0.235266 0
M  V30 10843 N 996.239 0.8527 1.3254 0
M  V30 10844 C 997.485 0.455798 1.97612 0
M  V30 10845 C 997.818 -0.985616 1.6733 0
M  V30 10846 O 997.093 -1.69129 0.960493 0
M  V30 10847 C 997.376 0.69312 3.53366 0
M  V30 10848 C 997.229 2.18281 3.93285 0
M  V30 10849 C 998.548 0.148236 4.3985 0
M  V30 10850 H 995.667 0.167078 0.717812 0
M  V30 10851 H 998.309 1.07076 1.56954 0
M  V30 10852 H 996.459 0.169677 3.88129 0
M  V30 10853 H 998.131 2.77218 3.68711 0
M  V30 10854 H 996.374 2.66206 3.42515 0
M  V30 10855 H 997.045 2.29957 5.01821 0
M  V30 10856 H 999.521 0.595834 4.11812 0
M  V30 10857 H 998.397 0.343873 5.47822 0
M  V30 10858 H 998.658 -0.948872 4.31797 0
M  V30 10859 N 997.718 -1.45297 0.610449 0
M  V30 10860 C 998.946 -2.0659 0.113211 0
M  V30 10861 C 999.361 -1.4546 -1.20361 0
M  V30 10862 O 998.718 -0.569823 -1.73376 0
M  V30 10863 C 998.769 -3.61488 -0.0298411 0
M  V30 10864 O 998.49 -4.20336 1.23488 0
M  V30 10865 C 999.991 -4.39772 -0.558202 0
M  V30 10866 H 997.211 -0.667322 0.0701555 0
M  V30 10867 H 999.755 -1.86497 0.838993 0
M  V30 10868 H 997.91 -3.80913 -0.705963 0
M  V30 10869 H 998.324 -5.13545 1.0664 0
M  V30 10870 H 999.798 -5.48648 -0.607375 0
M  V30 10871 H 1000.27 -4.09755 -1.58107 0
M  V30 10872 H 1000.88 -4.25217 0.0839704 0
M  V30 10873 N 999.196 -0.349774 -1.5367 0
M  V30 10874 C 1000.61 0.132815 -1.86227 0
M  V30 10875 C 1000.96 1.49479 -1.27084 0
M  V30 10876 O 1000.08 2.08292 -0.58679 0
M  V30 10877 C 1000.68 0.247775 -3.37893 0
M  V30 10878 C 999.237 0.674603 -3.70305 0
M  V30 10879 C 998.384 -0.187869 -2.76663 0
M  V30 10880 H 1001.33 -0.569148 -1.48143 0
M  V30 10881 H 1001.36 1.07418 -3.65023 0
M  V30 10882 H 1000.87 -0.743635 -3.80909 0
M  V30 10883 H 998.969 1.67481 -3.32837 0
M  V30 10884 H 999.082 0.460177 -4.76885 0
M  V30 10885 H 997.446 0.340779 -2.5241 0
M  V30 10886 H 998.229 -1.17653 -3.2251 0
M  V30 10887 N 1000.67 1.57404 -0.0785433 0
M  V30 10888 C 1001.61 2.101 0.916013 0
M  V30 10889 C 1002.62 1.03459 1.25698 0
M  V30 10890 O 1003.81 1.30954 1.21299 0
M  V30 10891 C 1000.91 2.55202 2.22992 0
M  V30 10892 C 1000.08 3.85491 2.06678 0
M  V30 10893 C 999.14 4.16614 3.21433 0
M  V30 10894 O 998.166 4.86105 2.96126 0
M  V30 10895 N 999.368 3.70697 4.46726 0
M  V30 10896 H 1002.13 2.96054 0.466059 0
M  V30 10897 H 999.694 1.61546 0.107006 0
M  V30 10898 H 1001.69 2.7308 2.9868 0
M  V30 10899 H 1000.26 1.74348 2.59464 0
M  V30 10900 H 999.476 3.76925 1.15417 0
M  V30 10901 H 1000.76 4.70759 1.93036 0
M  V30 10902 H 1000.16 3.14571 4.70172 0
M  V30 10903 H 998.719 3.93762 5.19418 0
M  V30 10904 N 1002.15 -0.195058 1.56388 0
M  V30 10905 C 1003.38 -0.931642 1.84738 0
M  V30 10906 C 1003.79 -1.76849 0.661046 0
M  V30 10907 O 1003.15 -1.78705 -0.370241 0
M  V30 10908 C 1003.2 -1.82777 3.11889 0
M  V30 10909 O 1002.92 -1.02471 4.25948 0
M  V30 10910 C 1004.42 -2.67603 3.53417 0
M  V30 10911 H 1001.64 -0.271821 0.613477 0
M  V30 10912 H 1004.19 -0.202299 2.03497 0
M  V30 10913 H 1002.34 -2.51074 2.95027 0
M  V30 10914 H 1002.76 -1.63539 4.98353 0
M  V30 10915 H 1004.23 -3.26138 4.45352 0
M  V30 10916 H 1004.71 -3.41314 2.76408 0
M  V30 10917 H 1005.31 -2.04678 3.7281 0
M  V30 10918 N 1003.63 -1.50653 -0.462772 0
M  V30 10919 C 1004.85 -1.66103 -1.24196 0
M  V30 10920 C 1005.28 -0.347421 -1.84864 0
M  V30 10921 O 1004.64 0.689673 -1.6767 0
M  V30 10922 C 1004.69 -2.76027 -2.32037 0
M  V30 10923 O 1003.79 -2.37859 -3.36893 0
M  V30 10924 H 1003.13 -0.554672 -0.365014 0
M  V30 10925 H 1005.66 -1.97076 -0.549734 0
M  V30 10926 H 1005.67 -2.99354 -2.77221 0
M  V30 10927 H 1004.35 -3.71361 -1.87253 0
M  V30 10928 H 1002.92 -2.2501 -2.97363 0
M  V30 10929 N 1005.11 0.71652 -1.4037 0
M  V30 10930 C 1006.07 1.81231 -1.40313 0
M  V30 10931 C 1007.07 1.58032 -0.297087 0
M  V30 10932 O 1008.26 1.65091 -0.555944 0
M  V30 10933 C 1005.39 3.19308 -1.19395 0
M  V30 10934 H 1006.59 1.8268 -2.3784 0
M  V30 10935 H 1004.14 0.922062 -1.26205 0
M  V30 10936 H 1004.87 3.2351 -0.226252 0
M  V30 10937 H 1004.66 3.37546 -1.99512 0
M  V30 10938 H 1006.15 3.99339 -1.22141 0
M  V30 10939 N 1006.59 1.25851 0.948643 0
M  V30 10940 C 1007.83 1.12127 1.69703 0
M  V30 10941 C 1008.19 -0.333318 1.89491 0
M  V30 10942 O 1007.48 -1.24181 1.4591 0
M  V30 10943 C 1007.67 1.81565 3.07846 0
M  V30 10944 C 1007.5 3.33626 3.01535 0
M  V30 10945 C 1006.27 4.02897 3.04962 0
M  V30 10946 C 1008.47 4.29934 2.82243 0
M  V30 10947 N 1006.45 5.41688 2.88872 0
M  V30 10948 C 1007.82 5.5585 2.74646 0
M  V30 10949 C 1009.88 4.20276 2.66969 0
M  V30 10950 C 1008.58 6.73212 2.53335 0
M  V30 10951 C 1010.61 5.37336 2.4703 0
M  V30 10952 C 1009.97 6.62196 2.40158 0
M  V30 10953 H 1006.07 0.465047 0.628693 0
M  V30 10954 H 1008.65 1.59035 1.12321 0
M  V30 10955 H 1006.82 1.37143 3.63382 0
M  V30 10956 H 1008.56 1.6053 3.715 0
M  V30 10957 H 1005.31 3.54201 3.14386 0
M  V30 10958 H 1005.74 6.14544 2.84015 0
M  V30 10959 H 1010.38 3.24485 2.71053 0
M  V30 10960 H 1008.1 7.69107 2.47993 0
M  V30 10961 H 1011.68 5.31728 2.36128 0
M  V30 10962 H 1010.56 7.51249 2.24933 0
M  V30 10963 N 1008.06 -1.15214 1.07534 0
M  V30 10964 C 1008.99 -2.2216 0.718837 0
M  V30 10965 C 1009.98 -1.6753 -0.29459 0
M  V30 10966 O 1011.16 -1.93481 -0.166931 0
M  V30 10967 C 1008.29 -3.471 0.117836 0
M  V30 10968 C 1007.24 -4.14701 1.05862 0
M  V30 10969 C 1006.57 -5.3374 0.320284 0
M  V30 10970 C 1007.87 -4.64254 2.39302 0
M  V30 10971 H 1009.56 -2.52237 1.61297 0
M  V30 10972 H 1007.11 -1.21239 0.776992 0
M  V30 10973 H 1009.06 -4.21156 -0.143519 0
M  V30 10974 H 1007.79 -3.16361 -0.811389 0
M  V30 10975 H 1006.45 -3.42589 1.30493 0
M  V30 10976 H 1006.09 -4.99257 -0.61246 0
M  V30 10977 H 1005.79 -5.79912 0.947381 0
M  V30 10978 H 1007.32 -6.10563 0.0667721 0
M  V30 10979 H 1008.73 -5.29827 2.18988 0
M  V30 10980 H 1007.13 -5.21095 2.97623 0
M  V30 10981 H 1008.2 -3.79793 3.01472 0
M  V30 10982 N 1009.54 -0.859717 -1.32086 0
M  V30 10983 C 1010.95 -0.519529 -1.79326 0
M  V30 10984 C 1011.3 0.96295 -1.70944 0
M  V30 10985 O 1010.43 1.75139 -1.27104 0
M  V30 10986 C 1011.02 -0.936267 -3.25606 0
M  V30 10987 C 1009.58 -0.647899 -3.70782 0
M  V30 10988 C 1008.73 -1.13323 -2.53087 0
M  V30 10989 H 1011.68 -1.04643 -1.19312 0
M  V30 10990 H 1011.7 -0.254714 -3.79646 0
M  V30 10991 H 1011.21 -2.01527 -3.31675 0
M  V30 10992 H 1009.32 0.420172 -3.70223 0
M  V30 10993 H 1009.43 -1.21774 -4.63366 0
M  V30 10994 H 1007.79 -0.553325 -2.48617 0
M  V30 10995 H 1008.58 -2.21945 -2.61907 0
M  V30 10996 N 1011.02 1.44971 -0.618145 0
M  V30 10997 C 1012.43 1.85611 -0.201334 0
M  V30 10998 C 1012.78 1.51698 1.24427 0
M  V30 10999 O 1011.91 0.94875 1.94493 0
M  V30 11000 C 1012.5 3.36897 -0.358619 0
M  V30 11001 C 1011.06 3.764 0.00358196 0
M  V30 11002 C 1010.21 2.68881 -0.678118 0
M  V30 11003 H 1013.16 1.35622 -0.824152 0
M  V30 11004 H 1013.18 3.78326 0.406176 0
M  V30 11005 H 1012.69 3.61548 -1.41084 0
M  V30 11006 H 1010.79 3.57365 1.05457 0
M  V30 11007 H 1010.91 4.77449 -0.397427 0
M  V30 11008 H 1009.27 2.54442 -0.114699 0
M  V30 11009 H 1010.05 2.96367 -1.73268 0
M  V30 11010 N 1012.5 0.357919 1.53482 0
M  V30 11011 C 1013.73 -0.23514 2.05559 0
M  V30 11012 C 1014.14 -1.43068 1.23195 0
M  V30 11013 O 1013.5 -1.80481 0.270741 0
M  V30 11014 C 1013.55 -0.636147 3.55859 0
M  V30 11015 O 1013.27 0.511864 4.35099 0
M  V30 11016 C 1014.77 -1.28841 4.24164 0
M  V30 11017 H 1011.99 -0.0428446 0.669631 0
M  V30 11018 H 1014.54 0.51407 1.97933 0
M  V30 11019 H 1012.69 -1.33528 3.63661 0
M  V30 11020 H 1013.1 0.189328 5.24158 0
M  V30 11021 H 1014.58 -1.51962 5.30671 0
M  V30 11022 H 1015.06 -2.24638 3.77405 0
M  V30 11023 H 1015.66 -0.630914 4.20594 0
M  V30 11024 N 1013.98 -1.5736 0.0868897 0
M  V30 11025 C 1015.2 -1.98809 -0.590757 0
M  V30 11026 C 1015.63 -0.965407 -1.61436 0
M  V30 11027 O 1014.98 0.067143 -1.81176 0
M  V30 11028 C 1015.03 -3.39249 -1.22238 0
M  V30 11029 O 1014.14 -3.39706 -2.33824 0
M  V30 11030 H 1013.48 -0.64669 -0.150626 0
M  V30 11031 H 1016.01 -2.03927 0.165873 0
M  V30 11032 H 1016.02 -3.76765 -1.56564 0
M  V30 11033 H 1014.69 -4.13208 -0.472434 0
M  V30 11034 H 1013.27 -3.13977 -2.01178 0
M  V30 11035 N 1015.45 0.186762 -1.56489 0
M  V30 11036 C 1016.42 1.21511 -1.94339 0
M  V30 11037 C 1017.42 1.38001 -0.82537 0
M  V30 11038 O 1018.61 1.3567 -1.09266 0
M  V30 11039 C 1015.74 2.583 -2.22472 0
M  V30 11040 H 1016.93 0.891371 -2.86347 0
M  V30 11041 H 1014.49 0.428612 -1.50308 0
M  V30 11042 H 1015.22 2.95715 -1.33129 0
M  V30 11043 H 1015.01 2.47701 -3.03951 0
M  V30 11044 H 1016.5 3.32441 -2.5273 0
M  V30 11045 N 1016.93 1.50896 0.454776 0
M  V30 11046 C 1017.84 1.73762 1.5762 0
M  V30 11047 C 1018.86 0.621206 1.62533 0
M  V30 11048 O 1020.03 0.901449 1.801 0
M  V30 11049 C 1017.1 1.84183 2.9373 0
M  V30 11050 C 1016.16 3.07982 2.99075 0
M  V30 11051 C 1015.39 3.17896 4.28693 0
M  V30 11052 O 1015.62 2.34184 5.20109 0
M  V30 11053 O 1014.55 4.10749 4.39964 0
M  V30 11054 H 1018.38 2.68856 1.41245 0
M  V30 11055 H 1015.96 1.35187 0.635984 0
M  V30 11056 H 1017.84 1.93123 3.74542 0
M  V30 11057 H 1016.52 0.922742 3.10269 0
M  V30 11058 H 1015.43 3.04531 2.17282 0
M  V30 11059 H 1016.76 3.99523 2.87476 0
M  V30 11060 N 1018.41 -0.709066 1.40748 0
M  V30 11061 C 1019.36 -1.8149 1.38005 0
M  V30 11062 C 1020.34 -1.58842 0.256544 0
M  V30 11063 O 1021.54 -1.69904 0.496164 0
M  V30 11064 C 1018.67 -3.19678 1.25143 0
M  V30 11065 C 1017.75 -3.48067 2.42301 0
M  V30 11066 N 1018.14 -3.47234 3.6778 0
M  V30 11067 C 1016.44 -3.78555 2.35822 0
M  V30 11068 C 1017.14 -3.74149 4.45407 0
M  V30 11069 N 1016.12 -3.93224 3.75335 0
M  V30 11070 H 1019.92 -1.79188 2.32957 0
M  V30 11071 H 1017.43 -0.908477 1.34612 0
M  V30 11072 H 1019.43 -3.98875 1.2126 0
M  V30 11073 H 1018.09 -3.23201 0.311642 0
M  V30 11074 H 1019.1 -3.2793 4.00852 0
M  V30 11075 H 1015.78 -3.89529 1.50245 0
M  V30 11076 H 1017.17 -3.79755 5.54289 0
M  V30 11077 N 1019.89 -1.26353 -0.941956 0
M  V30 11078 C 1021.17 -1.02601 -1.6653 0
M  V30 11079 C 1021.55 0.44381 -2.06382 0
M  V30 11080 O 1020.89 1.42399 -1.78703 0
M  V30 11081 C 1021.1 -1.97401 -2.87809 0
M  V30 11082 C 1022.45 -2.25967 -3.59478 0
M  V30 11083 O 1023.48 -1.95261 -2.97912 0
M  V30 11084 O 1022.34 -2.78244 -4.70364 0
M  V30 11085 H 1019.43 -0.39007 -0.729228 0
M  V30 11086 H 1021.98 -1.37559 -0.993754 0
M  V30 11087 H 1020.75 -2.9659 -2.55245 0
M  V30 11088 H 1020.37 -1.62918 -3.62689 0
M  V30 11089 N 1021.37 1.14642 -1.08144 0
M  V30 11090 C 1022.32 2.17665 -0.678661 0
M  V30 11091 C 1023.3 1.58072 0.300336 0
M  V30 11092 O 1024.49 1.7664 0.112781 0
M  V30 11093 C 1021.62 3.43191 -0.0866362 0
M  V30 11094 C 1020.71 4.0982 -1.09126 0
M  V30 11095 N 1021.1 4.51814 -2.27372 0
M  V30 11096 C 1019.4 4.36272 -0.926411 0
M  V30 11097 C 1020.1 5.03581 -2.91172 0
M  V30 11098 N 1019.07 4.97624 -2.18795 0
M  V30 11099 H 1022.88 2.47872 -1.57914 0
M  V30 11100 H 1020.39 1.31296 -0.955772 0
M  V30 11101 H 1022.39 4.1632 0.219859 0
M  V30 11102 H 1021.05 3.14464 0.80886 0
M  V30 11103 H 1022.06 4.44941 -2.65044 0
M  V30 11104 H 1018.74 4.17414 -0.084492 0
M  V30 11105 H 1020.13 5.45969 -3.91621 0
M  V30 11106 N 1022.85 0.866709 1.31628 0
M  V30 11107 C 1024.07 0.48956 2.01539 0
M  V30 11108 C 1024.5 -0.909556 1.64647 0
M  V30 11109 O 1023.85 -1.59959 0.853391 0
M  V30 11110 C 1023.9 0.650176 3.5469 0
M  V30 11111 O 1023.01 -0.311908 4.11219 0
M  V30 11112 H 1022.35 0.195144 0.634677 0
M  V30 11113 H 1024.88 1.16923 1.679 0
M  V30 11114 H 1024.89 0.542236 4.04381 0
M  V30 11115 H 1023.56 1.67038 3.80882 0
M  V30 11116 H 1022.14 -0.159197 3.7256 0
M  V30 11117 N 1024.32 -1.44642 0.625825 0
M  V30 11118 C 1025.25 -2.33397 -0.0692188 0
M  V30 11119 C 1026.23 -1.47898 -0.840241 0
M  V30 11120 O 1027.42 -1.7663 -0.807176 0
M  V30 11121 C 1024.55 -3.30888 -1.055 0
M  V30 11122 C 1023.5 -4.26164 -0.395968 0
M  V30 11123 C 1022.83 -5.13483 -1.49128 0
M  V30 11124 C 1024.13 -5.17663 0.694433 0
M  V30 11125 H 1025.82 -2.91763 0.671925 0
M  V30 11126 H 1023.37 -1.40294 0.324573 0
M  V30 11127 H 1025.32 -3.91861 -1.54993 0
M  V30 11128 H 1024.05 -2.7072 -1.82696 0
M  V30 11129 H 1022.71 -3.66516 0.0782691 0
M  V30 11130 H 1022.35 -4.49672 -2.25399 0
M  V30 11131 H 1022.05 -5.78038 -1.05573 0
M  V30 11132 H 1023.58 -5.77327 -1.98813 0
M  V30 11133 H 1024.99 -5.72602 0.282818 0
M  V30 11134 H 1023.39 -5.90793 1.05281 0
M  V30 11135 H 1024.46 -4.58994 1.56372 0
M  V30 11136 N 1025.8 -0.366053 -1.5329 0
M  V30 11137 C 1027.03 0.226839 -2.06156 0
M  V30 11138 C 1027.45 1.41637 -1.23776 0
M  V30 11139 O 1026.81 1.7947 -0.256948 0
M  V30 11140 C 1026.86 0.597956 -3.55608 0
M  V30 11141 O 1025.96 1.69512 -3.75951 0
M  V30 11142 H 1025.3 0.0329156 -0.663184 0
M  V30 11143 H 1027.83 -0.526793 -1.97702 0
M  V30 11144 H 1027.84 0.868831 -3.98642 0
M  V30 11145 H 1026.52 -0.271838 -4.15011 0
M  V30 11146 H 1025.09 1.41976 -3.44815 0
M  V30 11147 N 1027.28 1.57312 -0.0952337 0
M  V30 11148 C 1028.52 1.96239 0.571813 0
M  V30 11149 C 1028.88 0.97602 1.65342 0
M  V30 11150 O 1030.08 1.25379 2.37768 0
M  V30 11151 C 1028.36 3.39644 1.1125 0
M  V30 11152 S 1029.91 4.00568 1.7914 0
M  V30 11153 H 1026.73 0.686081 0.186585 0
M  V30 11154 H 1029.33 1.94718 -0.174669 0
M  V30 11155 H 1028.04 4.09199 0.313796 0
M  V30 11156 H 1027.57 3.44762 1.89481 0
M  V30 11157 H 1029.58 3.89383 3.07563 0
M  V30 11158 N 1028.76 -0.17846 1.56586 0
M  V30 11159 C 1030 -0.897562 1.81856 0
M  V30 11160 C 1030.34 -1.82204 0.671955 0
M  V30 11161 O 1029.61 -1.91739 -0.326535 0
M  V30 11162 C 1029.89 -1.69942 3.17477 0
M  V30 11163 C 1029.75 -0.798545 4.42655 0
M  V30 11164 C 1031.07 -2.66861 3.49962 0
M  V30 11165 H 1028.19 -0.324863 0.661539 0
M  V30 11166 H 1030.83 -0.164106 1.8929 0
M  V30 11167 H 1028.98 -2.32471 3.11271 0
M  V30 11168 H 1030.65 -0.18668 4.60922 0
M  V30 11169 H 1028.89 -0.106181 4.3367 0
M  V30 11170 H 1029.56 -1.39496 5.34083 0
M  V30 11171 H 1032.04 -2.1446 3.56576 0
M  V30 11172 H 1030.92 -3.20037 4.45946 0
M  V30 11173 H 1031.18 -3.46715 2.74301 0
M  V30 11174 N 1030.24 -1.51135 -0.446768 0
M  V30 11175 C 1031.48 -1.63578 -1.19875 0
M  V30 11176 C 1031.81 -0.346478 -1.91084 0
M  V30 11177 O 1031.09 0.653447 -1.83195 0
M  V30 11178 C 1031.37 -2.83275 -2.22323 0
M  V30 11179 C 1031.23 -4.22155 -1.55259 0
M  V30 11180 C 1032.54 -2.98496 -3.23401 0
M  V30 11181 H 1029.66 -0.595333 -0.434452 0
M  V30 11182 H 1032.31 -1.83593 -0.48923 0
M  V30 11183 H 1030.46 -2.6634 -2.82834 0
M  V30 11184 H 1032.13 -4.50736 -0.981571 0
M  V30 11185 H 1030.37 -4.25288 -0.855122 0
M  V30 11186 H 1031.04 -5.01882 -2.29823 0
M  V30 11187 H 1033.52 -3.14079 -2.72935 0
M  V30 11188 H 1032.39 -3.83828 -3.92386 0
M  V30 11189 H 1032.65 -2.10157 -3.88956 0
M  V30 11190 N 1031.71 0.701592 -1.41122 0
M  V30 11191 C 1032.94 1.49049 -1.43499 0
M  V30 11192 C 1033.36 1.88761 -0.0385684 0
M  V30 11193 O 1032.71 1.56384 0.940755 0
M  V30 11194 C 1032.76 2.7569 -2.33832 0
M  V30 11195 O 1032.49 2.37653 -3.68039 0
M  V30 11196 C 1033.99 3.69479 -2.44949 0
M  V30 11197 H 1031.21 0.459519 -0.488961 0
M  V30 11198 H 1033.75 0.864318 -1.85337 0
M  V30 11199 H 1031.91 3.34559 -1.95318 0
M  V30 11200 H 1032.32 3.19241 -4.16156 0
M  V30 11201 H 1033.79 4.55139 -3.12334 0
M  V30 11202 H 1034.27 4.13553 -1.47887 0
M  V30 11203 H 1034.88 3.16517 -2.84072 0
M  V30 11204 N 1033.19 1.2685 0.935242 0
M  V30 11205 C 1034.6 1.11569 1.49697 0
M  V30 11206 C 1034.95 -0.301952 1.93863 0
M  V30 11207 O 1034.08 -1.19408 1.80473 0
M  V30 11208 C 1034.67 2.01918 2.72056 0
M  V30 11209 C 1033.23 1.90765 3.24477 0
M  V30 11210 C 1032.38 1.94918 1.97237 0
M  V30 11211 H 1035.33 1.39853 0.750116 0
M  V30 11212 H 1035.35 1.57056 3.46574 0
M  V30 11213 H 1034.86 3.05088 2.39881 0
M  V30 11214 H 1032.96 0.905521 3.61429 0
M  V30 11215 H 1033.08 2.76611 3.91182 0
M  V30 11216 H 1031.44 1.39046 2.13397 0
M  V30 11217 H 1032.22 2.99729 1.67385 0
M  V30 11218 N 1034.67 -1.14067 1.0875 0
M  V30 11219 C 1035.6 -2.18926 0.67852 0
M  V30 11220 C 1036.62 -1.60441 -0.276163 0
M  V30 11221 O 1037.8 -1.78388 -0.0632788 0
M  V30 11222 C 1034.9 -3.38893 -0.0218852 0
M  V30 11223 C 1034.08 -4.26901 0.952582 0
M  V30 11224 C 1033.14 -5.25418 0.286859 0
M  V30 11225 O 1032.16 -5.61512 0.932354 0
M  V30 11226 N 1033.36 -5.72476 -0.961831 0
M  V30 11227 H 1036.13 -2.54629 1.58063 0
M  V30 11228 H 1033.69 -1.29321 0.974042 0
M  V30 11229 H 1035.68 -4.01864 -0.478278 0
M  V30 11230 H 1034.25 -3.01486 -0.826141 0
M  V30 11231 H 1033.47 -3.60812 1.58772 0
M  V30 11232 H 1034.76 -4.82563 1.61279 0
M  V30 11233 H 1034.16 -5.45287 -1.50594 0
M  V30 11234 H 1032.72 -6.37418 -1.36166 0
M  V30 11235 N 1036.15 -0.873678 -1.31166 0
M  V30 11236 C 1037.43 -0.40698 -1.91319 0
M  V30 11237 C 1037.81 1.1113 -1.79481 0
M  V30 11238 O 1037.15 1.94155 -1.20483 0
M  V30 11239 C 1037.36 -0.892484 -3.37396 0
M  V30 11240 C 1038.71 -0.920795 -4.14496 0
M  V30 11241 O 1039.74 -0.838386 -3.46193 0
M  V30 11242 O 1038.59 -1.04069 -5.365 0
M  V30 11243 H 1035.69 -0.122439 -0.817886 0
M  V30 11244 H 1038.23 -0.961835 -1.3981 0
M  V30 11245 H 1037.01 -1.93613 -3.40044 0
M  V30 11246 H 1036.63 -0.31615 -3.96341 0
M  V30 11247 N 1037.63 1.44308 -0.633487 0
M  V30 11248 C 1038.87 2.01624 -0.138643 0
M  V30 11249 C 1039.2 1.50101 1.24477 0
M  V30 11250 O 1038.47 0.705575 1.82752 0
M  V30 11251 H 1037.05 0.745439 -0.0482636 0
M  V30 11252 H 1039.71 1.76777 -0.820719 0
M  V30 11253 H 1038.8 3.11913 -0.108136 0
M  V30 11254 N 1039.1 0.374177 1.53094 0
M  V30 11255 C 1040.01 -0.475935 2.29722 0
M  V30 11256 C 1041.03 -1.085 1.36029 0
M  V30 11257 O 1042.21 -1.09408 1.69091 0
M  V30 11258 C 1039.27 -1.59572 3.07795 0
M  V30 11259 C 1038.33 -1.01332 4.17169 0
M  V30 11260 C 1037.57 -2.07975 4.9151 0
M  V30 11261 O 1037.79 -3.29232 4.65793 0
M  V30 11262 O 1036.72 -1.7055 5.77232 0
M  V30 11263 H 1040.55 0.147877 3.0334 0
M  V30 11264 H 1038.13 0.138312 1.48758 0
M  V30 11265 H 1040.02 -2.24658 3.5652 0
M  V30 11266 H 1038.69 -2.20478 2.37005 0
M  V30 11267 H 1037.6 -0.326133 3.72676 0
M  V30 11268 H 1038.93 -0.4487 4.90151 0
M  V30 11269 N 1040.58 -1.57259 0.103575 0
M  V30 11270 C 1041.81 -1.99 -0.566275 0
M  V30 11271 C 1042.23 -0.982909 -1.61197 0
M  V30 11272 O 1041.58 0.026345 -1.82481 0
M  V30 11273 C 1041.63 -3.40778 -1.20635 0
M  V30 11274 O 1041.35 -4.37632 -0.202472 0
M  V30 11275 C 1042.86 -3.97567 -1.961 0
M  V30 11276 H 1040.08 -0.653751 -0.151164 0
M  V30 11277 H 1042.62 -2.03658 0.185365 0
M  V30 11278 H 1040.77 -3.37107 -1.90886 0
M  V30 11279 H 1041.19 -5.2026 -0.665535 0
M  V30 11280 H 1042.66 -4.98897 -2.36233 0
M  V30 11281 H 1043.14 -3.35853 -2.83018 0
M  V30 11282 H 1043.75 -4.04737 -1.30645 0
M  V30 11283 N 1042.06 0.170153 -1.56679 0
M  V30 11284 C 1043.29 0.90618 -1.86556 0
M  V30 11285 C 1043.71 1.74986 -0.690044 0
M  V30 11286 O 1043.07 1.77672 0.360862 0
M  V30 11287 C 1043.12 1.75777 -3.14857 0
M  V30 11288 O 1042.22 2.85952 -2.97162 0
M  V30 11289 H 1041.56 0.253781 -0.613589 0
M  V30 11290 H 1044.09 0.167943 -2.0391 0
M  V30 11291 H 1044.1 2.15747 -3.46291 0
M  V30 11292 H 1042.78 1.13807 -4.00026 0
M  V30 11293 H 1041.35 2.49557 -2.77084 0
M  V30 11294 N 1043.54 1.5137 0.438746 0
M  V30 11295 C 1044.5 1.71993 1.51496 0
M  V30 11296 C 1045.5 0.589978 1.49586 0
M  V30 11297 O 1046.69 0.857505 1.51633 0
M  V30 11298 C 1043.82 1.77508 2.91039 0
M  V30 11299 H 1045.02 2.68041 1.34514 0
M  V30 11300 H 1042.57 1.41338 0.667326 0
M  V30 11301 H 1043.3 0.832698 3.13427 0
M  V30 11302 H 1043.09 2.59627 2.9383 0
M  V30 11303 H 1044.58 1.95308 3.69113 0
M  V30 11304 N 1045.02 -0.694098 1.41492 0
M  V30 11305 C 1045.95 -1.81943 1.39389 0
M  V30 11306 C 1046.96 -1.6009 0.295836 0
M  V30 11307 O 1048.15 -1.69565 0.557658 0
M  V30 11308 C 1045.25 -3.18731 1.15167 0
M  V30 11309 C 1044.42 -3.67601 2.37041 0
M  V30 11310 C 1043.48 -4.83063 2.08654 0
M  V30 11311 O 1042.51 -4.94603 2.81704 0
M  V30 11312 N 1043.71 -5.70409 1.0777 0
M  V30 11313 H 1046.48 -1.84239 2.36381 0
M  V30 11314 H 1044.04 -0.876475 1.36123 0
M  V30 11315 H 1046.03 -3.93602 0.941264 0
M  V30 11316 H 1044.6 -3.11452 0.267673 0
M  V30 11317 H 1043.82 -2.83622 2.73774 0
M  V30 11318 H 1045.11 -3.96991 3.18239 0
M  V30 11319 H 1044.5 -5.63718 0.473123 0
M  V30 11320 H 1043.06 -6.45172 0.927177 0
M  V30 11321 N 1046.49 -1.27344 -0.928501 0
M  V30 11322 C 1047.43 -1.04322 -2.02959 0
M  V30 11323 C 1048.41 0.0361118 -1.6256 0
M  V30 11324 O 1049.59 -0.108872 -1.88185 0
M  V30 11325 C 1046.72 -0.582329 -3.33656 0
M  V30 11326 C 1045.76 -1.65611 -3.93033 0
M  V30 11327 S 1046.6 -3.2484 -4.25722 0
M  V30 11328 C 1047.75 -2.8055 -5.59502 0
M  V30 11329 H 1047.98 -1.97548 -2.22176 0
M  V30 11330 H 1045.52 -1.11167 -1.07151 0
M  V30 11331 H 1047.48 -0.323095 -4.09227 0
M  V30 11332 H 1046.14 0.329858 -3.12363 0
M  V30 11333 H 1045.33 -1.28491 -4.87346 0
M  V30 11334 H 1044.93 -1.86738 -3.24045 0
M  V30 11335 H 1047.22 -2.25803 -6.38764 0
M  V30 11336 H 1048.17 -3.73603 -6.0152 0
M  V30 11337 H 1048.57 -2.19717 -5.19985 0
M  V30 11338 N 1047.97 1.13488 -1.09353 0
M  V30 11339 C 1049.22 1.841 -0.82401 0
M  V30 11340 C 1049.53 1.84393 0.652586 0
M  V30 11341 O 1050.74 2.5089 1.03762 0
M  V30 11342 C 1049.2 3.30523 -1.42418 0
M  V30 11343 C 1048.8 3.38621 -2.93326 0
M  V30 11344 C 1050.55 4.06182 -1.23356 0
M  V30 11345 C 1048.46 4.79311 -3.46432 0
M  V30 11346 H 1047.39 0.68974 -0.304589 0
M  V30 11347 H 1050.04 1.27866 -1.31615 0
M  V30 11348 H 1048.42 3.86555 -0.859727 0
M  V30 11349 H 1049.59 2.92587 -3.5599 0
M  V30 11350 H 1047.91 2.76426 -3.11412 0
M  V30 11351 H 1050.5 5.10047 -1.60488 0
M  V30 11352 H 1050.85 4.15936 -0.174152 0
M  V30 11353 H 1051.38 3.56477 -1.76547 0
M  V30 11354 H 1048.12 4.74748 -4.5199 0
M  V30 11355 H 1047.64 5.25842 -2.8853 0
M  V30 11356 H 1049.32 5.48227 -3.43593 0
M  V30 11357 N 1049.45 0.880621 1.30701 0
M  V30 11358 C 1050.36 0.348034 2.32004 0
M  V30 11359 C 1051.38 -0.547508 1.65162 0
M  V30 11360 O 1052.55 -0.441673 1.96497 0
M  V30 11361 C 1049.62 -0.432585 3.43991 0
M  V30 11362 C 1048.68 0.492189 4.26469 0
M  V30 11363 C 1047.91 -0.25127 5.33108 0
M  V30 11364 O 1048.14 -1.47795 5.5092 0
M  V30 11365 O 1047.07 0.396376 6.00593 0
M  V30 11366 H 1050.9 1.18798 2.79501 0
M  V30 11367 H 1048.48 0.64432 1.34792 0
M  V30 11368 H 1050.36 -0.874733 4.12221 0
M  V30 11369 H 1049.04 -1.2489 2.98637 0
M  V30 11370 H 1047.94 0.983058 3.60953 0
M  V30 11371 H 1049.28 1.27439 4.75416 0
M  V30 11372 N 1050.93 -1.4397 0.641131 0
M  V30 11373 C 1051.84 -2.34526 -0.058742 0
M  V30 11374 C 1052.86 -1.53194 -0.825088 0
M  V30 11375 O 1054.03 -1.85888 -0.775081 0
M  V30 11376 C 1051.1 -3.31313 -1.02139 0
M  V30 11377 C 1050.16 -4.28552 -0.253319 0
M  V30 11378 C 1049.39 -5.20715 -1.17012 0
M  V30 11379 O 1049.61 -5.17028 -2.40911 0
M  V30 11380 O 1048.55 -5.9839 -0.649039 0
M  V30 11381 H 1052.37 -2.95843 0.686329 0
M  V30 11382 H 1049.96 -1.43909 0.401316 0
M  V30 11383 H 1051.84 -3.90862 -1.57496 0
M  V30 11384 H 1050.52 -2.72516 -1.7469 0
M  V30 11385 H 1049.42 -3.72519 0.343531 0
M  V30 11386 H 1050.76 -4.90297 0.432372 0
M  V30 11387 N 1052.41 -0.382291 -1.52893 0
M  V30 11388 C 1053.36 0.471187 -2.27778 0
M  V30 11389 C 1054.35 1.0691 -1.31402 0
M  V30 11390 O 1055.56 1.01038 -1.48967 0
M  V30 11391 H 1051.93 0.170696 -0.732371 0
M  V30 11392 H 1053.9 -0.181954 -2.97845 0
M  V30 11393 C 1052.65 1.59012 -3.09209 0
M  V30 11394 H 1051.97 1.13935 -3.83222 0
M  V30 11395 H 1053.41 2.16167 -3.64757 0
M  V30 11396 C 1051.87 2.54212 -2.21084 0
M  V30 11397 O 1052.4 3.57447 -1.83288 0
M  V30 11398 N 1050.61 2.23789 -1.85383 0
M  V30 11399 H 1050.16 1.39872 -2.16318 0
M  V30 11400 H 1050.11 2.87737 -1.26708 0
M  V30 11401 N 1053.89 1.57202 -0.111913 0
M  V30 11402 C 1054.82 2.17957 0.837683 0
M  V30 11403 C 1055.8 1.1176 1.28233 0
M  V30 11404 O 1056.98 1.39967 1.34621 0
M  V30 11405 C 1054.11 2.77333 2.09054 0
M  V30 11406 C 1053.07 3.8905 1.78393 0
M  V30 11407 C 1052.39 4.35203 3.10649 0
M  V30 11408 C 1053.69 5.11477 1.05775 0
M  V30 11409 H 1055.39 2.9756 0.331441 0
M  V30 11410 H 1052.93 1.43131 0.157979 0
M  V30 11411 H 1054.88 3.18492 2.75936 0
M  V30 11412 H 1053.61 1.95009 2.6199 0
M  V30 11413 H 1052.27 3.48456 1.13903 0
M  V30 11414 H 1051.92 3.49747 3.61506 0
M  V30 11415 H 1051.62 5.10534 2.9091 0
M  V30 11416 H 1053.14 4.79007 3.78661 0
M  V30 11417 H 1054.55 5.497 1.62798 0
M  V30 11418 H 1052.95 5.92346 0.961573 0
M  V30 11419 H 1054.02 4.84881 0.043297 0
M  V30 11420 N 1055.36 -0.161842 1.56767 0
M  V30 11421 C 1056.31 -1.21948 1.98069 0
M  V30 11422 C 1057.31 -1.45303 0.870835 0
M  V30 11423 O 1058.51 -1.45771 1.05598 0
M  V30 11424 H 1054.89 -0.410145 0.630306 0
M  V30 11425 H 1056.86 -0.844336 2.86205 0
M  V30 11426 C 1055.61 -2.549 2.36477 0
M  V30 11427 H 1054.93 -2.37755 3.21423 0
M  V30 11428 H 1056.37 -3.27568 2.69212 0
M  V30 11429 C 1054.83 -3.14353 1.21176 0
M  V30 11430 O 1055.36 -3.98519 0.504499 0
M  V30 11431 N 1053.56 -2.73582 0.979855 0
M  V30 11432 H 1053.11 -2.05239 1.55675 0
M  V30 11433 H 1053.07 -3.13696 0.21025 0
M  V30 11434 N 1056.84 -1.516 -0.430713 0
M  V30 11435 C 1058.08 -1.6626 -1.18899 0
M  V30 11436 C 1058.45 -0.373877 -1.88325 0
M  V30 11437 O 1059.65 -0.39632 -2.65862 0
M  V30 11438 C 1057.92 -2.83693 -2.17378 0
M  V30 11439 S 1059.48 -3.18717 -3.01604 0
M  V30 11440 H 1056.29 -0.585681 -0.403112 0
M  V30 11441 H 1058.9 -1.89528 -0.479538 0
M  V30 11442 H 1057.6 -3.75759 -1.65025 0
M  V30 11443 H 1057.13 -2.62634 -2.92894 0
M  V30 11444 H 1059.15 -2.65665 -4.1909 0
M  V30 11445 N 1058.32 0.686584 -1.41858 0
M  V30 11446 C 1059.25 1.81264 -1.47193 0
M  V30 11447 C 1060.23 1.66875 -0.329657 0
M  V30 11448 O 1061.42 1.86473 -0.542347 0
M  V30 11449 C 1058.55 3.19472 -1.36216 0
M  V30 11450 C 1057.5 3.4858 -2.48347 0
M  V30 11451 C 1056.83 4.86239 -2.22432 0
M  V30 11452 C 1058.13 3.46653 -3.90678 0
M  V30 11453 H 1059.82 1.77057 -2.41436 0
M  V30 11454 H 1057.37 0.850415 -1.16206 0
M  V30 11455 H 1059.32 3.97969 -1.38558 0
M  V30 11456 H 1058.04 3.24327 -0.384611 0
M  V30 11457 H 1056.7 2.72437 -2.45303 0
M  V30 11458 H 1056.35 4.8773 -1.22999 0
M  V30 11459 H 1056.05 5.06677 -2.97577 0
M  V30 11460 H 1057.57 5.67034 -2.26505 0
M  V30 11461 H 1058.99 4.15139 -3.95389 0
M  V30 11462 H 1057.38 3.78625 -4.65578 0
M  V30 11463 H 1058.45 2.45451 -4.18189 0
M  V30 11464 N 1059.8 1.27835 0.921735 0
M  V30 11465 C 1061.05 1.14296 1.66676 0
M  V30 11466 C 1061.37 -0.310493 1.92512 0
M  V30 11467 O 1060.64 -1.21637 1.53562 0
M  V30 11468 H 1059.22 0.419994 0.617749 0
M  V30 11469 H 1061.88 1.60449 1.10644 0
M  V30 11470 H 1060.97 1.67654 2.63246 0
M  V30 11471 N 1061.28 -1.12907 1.09954 0
M  V30 11472 C 1062.23 -2.16558 0.713204 0
M  V30 11473 C 1063.21 -1.5853 -0.27515 0
M  V30 11474 O 1064.4 -1.76797 -0.0846643 0
M  V30 11475 C 1061.53 -3.43009 0.141224 0
M  V30 11476 C 1060.62 -4.08032 1.15632 0
M  V30 11477 N 1061.01 -4.48139 2.34531 0
M  V30 11478 C 1059.31 -4.34743 0.995701 0
M  V30 11479 C 1060.01 -4.98885 2.99147 0
M  V30 11480 N 1058.98 -4.9408 2.26684 0
M  V30 11481 H 1062.78 -2.45328 1.61838 0
M  V30 11482 H 1060.3 -1.29759 0.976539 0
M  V30 11483 H 1062.3 -4.16617 -0.153598 0
M  V30 11484 H 1060.96 -3.15711 -0.758729 0
M  V30 11485 H 1061.97 -4.40668 2.72089 0
M  V30 11486 H 1058.64 -4.17227 0.150888 0
M  V30 11487 H 1060.03 -5.3967 4.00257 0
M  V30 11488 N 1062.75 -0.88754 -1.30232 0
M  V30 11489 C 1063.68 -0.372481 -2.3051 0
M  V30 11490 C 1064.66 0.546037 -1.61098 0
M  V30 11491 O 1065.85 0.459345 -1.88689 0
M  V30 11492 C 1062.98 0.411605 -3.44852 0
M  V30 11493 C 1061.93 -0.415383 -4.2598 0
M  V30 11494 C 1061.26 0.495463 -5.324 0
M  V30 11495 C 1062.56 -1.65886 -4.95257 0
M  V30 11496 H 1064.25 -1.21045 -2.7384 0
M  V30 11497 H 1061.8 -0.583498 -1.31648 0
M  V30 11498 H 1063.75 0.782584 -4.1407 0
M  V30 11499 H 1062.48 1.28325 -3.00334 0
M  V30 11500 H 1061.14 -0.768534 -3.58454 0
M  V30 11501 H 1060.78 1.36489 -4.84128 0
M  V30 11502 H 1060.48 -0.0540885 -5.87575 0
M  V30 11503 H 1062.01 0.862901 -6.04472 0
M  V30 11504 H 1063.42 -1.35832 -5.56976 0
M  V30 11505 H 1061.82 -2.14881 -5.60309 0
M  V30 11506 H 1062.89 -2.40181 -4.21237 0
M  V30 11507 N 1064.23 1.43628 -0.648757 0
M  V30 11508 C 1065.46 2.06732 -0.166284 0
M  V30 11509 C 1065.88 1.48281 1.15734 0
M  V30 11510 O 1065.24 0.591018 1.71396 0
M  V30 11511 C 1065.29 3.60502 -0.0838732 0
M  V30 11512 O 1064.39 4.01186 0.955185 0
M  V30 11513 H 1063.73 0.657479 -0.0928285 0
M  V30 11514 H 1066.26 1.84208 -0.890421 0
M  V30 11515 H 1066.27 4.07875 0.100923 0
M  V30 11516 H 1064.95 4.02424 -1.05014 0
M  V30 11517 H 1063.53 3.65412 0.743537 0
M  V30 11518 N 1065.71 0.390394 1.52688 0
M  V30 11519 C 1066.94 -0.191485 2.06012 0
M  V30 11520 C 1067.35 -1.40422 1.26202 0
M  V30 11521 O 1066.71 -1.79866 0.308963 0
M  V30 11522 C 1066.76 -0.560521 3.57128 0
M  V30 11523 O 1066.48 0.60404 4.33916 0
M  V30 11524 C 1067.98 -1.19814 4.26801 0
M  V30 11525 H 1065.2 -0.0286311 0.670389 0
M  V30 11526 H 1067.75 0.555939 1.96798 0
M  V30 11527 H 1065.9 -1.25784 3.66411 0
M  V30 11528 H 1066.32 0.300467 5.23639 0
M  V30 11529 H 1067.79 -1.40672 5.33775 0
M  V30 11530 H 1068.27 -2.16582 3.82085 0
M  V30 11531 H 1068.87 -0.541558 4.21838 0
M  V30 11532 N 1067.19 -1.57141 0.120249 0
M  V30 11533 C 1068.44 -1.94413 -0.53727 0
M  V30 11534 C 1068.75 -1.00594 -1.67751 0
M  V30 11535 O 1069.96 -1.27336 -2.39787 0
M  V30 11536 C 1068.41 -3.45521 -1.00714 0
M  V30 11537 C 1068.02 -4.47878 0.104706 0
M  V30 11538 C 1069.76 -3.9171 -1.63596 0
M  V30 11539 C 1067.67 -5.90165 -0.381932 0
M  V30 11540 H 1066.6 -0.725745 -0.204475 0
M  V30 11541 H 1069.25 -1.82404 0.200302 0
M  V30 11542 H 1067.63 -3.52769 -1.79917 0
M  V30 11543 H 1068.81 -4.523 0.881002 0
M  V30 11544 H 1067.12 -4.11448 0.640264 0
M  V30 11545 H 1069.72 -4.95433 -2.01122 0
M  V30 11546 H 1070.06 -3.31756 -2.51483 0
M  V30 11547 H 1070.6 -3.87268 -0.909319 0
M  V30 11548 H 1067.34 -6.53877 0.460921 0
M  V30 11549 H 1066.86 -5.89161 -1.12468 0
M  V30 11550 H 1068.53 -6.41488 -0.842748 0
M  V30 11551 N 1068.67 0.153526 -1.5685 0
M  V30 11552 C 1069.92 0.865628 -1.82181 0
M  V30 11553 C 1070.23 1.82629 -0.700434 0
M  V30 11554 O 1071.43 2.58206 -0.839155 0
M  V30 11555 C 1069.89 1.58993 -3.22877 0
M  V30 11556 C 1069.5 0.672006 -4.42931 0
M  V30 11557 C 1071.24 2.2892 -3.57486 0
M  V30 11558 C 1069.15 1.39755 -5.7465 0
M  V30 11559 H 1068.08 0.326993 -0.679406 0
M  V30 11560 H 1070.73 0.118403 -1.83118 0
M  V30 11561 H 1069.11 2.38255 -3.16308 0
M  V30 11562 H 1070.29 -0.0849226 -4.60722 0
M  V30 11563 H 1068.6 0.0814825 -4.1632 0
M  V30 11564 H 1071.2 2.8383 -4.5315 0
M  V30 11565 H 1071.54 3.05105 -2.83226 0
M  V30 11566 H 1072.07 1.56583 -3.65686 0
M  V30 11567 H 1068.81 0.677686 -6.51987 0
M  V30 11568 H 1068.33 2.12736 -5.60806 0
M  V30 11569 H 1070.01 1.94024 -6.17223 0
M  V30 11570 N 1070.14 1.51827 0.422667 0
M  V30 11571 C 1071.09 1.7058 1.51282 0
M  V30 11572 C 1072.08 0.5597 1.50851 0
M  V30 11573 O 1073.27 0.816223 1.57057 0
M  V30 11574 C 1070.4 1.84759 2.89342 0
M  V30 11575 C 1069.49 3.05199 2.94473 0
M  V30 11576 N 1069.88 4.28135 2.69322 0
M  V30 11577 C 1068.17 3.04755 3.25638 0
M  V30 11578 C 1068.88 5.09507 2.80674 0
M  V30 11579 N 1067.85 4.44464 3.12974 0
M  V30 11580 H 1071.65 2.63283 1.30611 0
M  V30 11581 H 1069.17 1.49674 0.630191 0
M  V30 11582 H 1071.16 1.96308 3.67789 0
M  V30 11583 H 1069.82 0.932478 3.11022 0
M  V30 11584 H 1070.84 4.56835 2.43972 0
M  V30 11585 H 1067.51 2.2293 3.52999 0
M  V30 11586 H 1068.9 6.17409 2.65058 0
M  V30 11587 N 1071.62 -0.679052 1.4222 0
M  V30 11588 C 1072.53 -1.82221 1.47759 0
M  V30 11589 C 1073.55 -1.70092 0.3667 0
M  V30 11590 O 1074.72 -1.91718 0.616957 0
M  V30 11591 C 1071.79 -3.18332 1.37351 0
M  V30 11592 C 1070.85 -3.42449 2.58896 0
M  V30 11593 C 1070.08 -4.72067 2.48976 0
M  V30 11594 O 1070.31 -5.49683 1.5233 0
M  V30 11595 O 1069.24 -4.97333 3.39033 0
M  V30 11596 H 1073.07 -1.80504 2.44238 0
M  V30 11597 H 1070.65 -0.834251 1.23938 0
M  V30 11598 H 1072.53 -3.99563 1.33893 0
M  V30 11599 H 1071.21 -3.20696 0.439965 0
M  V30 11600 H 1070.12 -2.61083 2.6793 0
M  V30 11601 H 1071.45 -3.44912 3.51136 0
M  V30 11602 N 1073.1 -1.28322 -0.914942 0
M  V30 11603 C 1074.06 -1.12169 -1.99877 0
M  V30 11604 C 1075.06 -0.0617252 -1.60681 0
M  V30 11605 O 1076.25 -0.307405 -1.71466 0
M  V30 11606 C 1073.39 -0.711959 -3.33383 0
M  V30 11607 H 1074.58 -2.08425 -2.15636 0
M  V30 11608 H 1072.13 -1.11291 -1.09745 0
M  V30 11609 H 1072.87 0.251418 -3.23324 0
M  V30 11610 H 1072.65 -1.47764 -3.63192 0
M  V30 11611 H 1074.14 -0.621558 -4.12948 0
M  V30 11612 N 1074.58 1.12322 -1.10551 0
M  V30 11613 C 1075.53 2.20166 -0.750317 0
M  V30 11614 C 1076.52 1.67484 0.254066 0
M  V30 11615 O 1077.73 1.79637 0.114309 0
M  V30 11616 H 1074.1 0.717642 -0.22471 0
M  V30 11617 H 1076.07 2.47378 -1.66873 0
M  V30 11618 C 1074.82 3.47126 -0.199651 0
M  V30 11619 H 1074.14 3.88011 -0.963735 0
M  V30 11620 H 1075.58 4.23999 0.0108033 0
M  V30 11621 C 1074.04 3.19526 1.06792 0
M  V30 11622 O 1074.57 3.39368 2.14923 0
M  V30 11623 N 1072.78 2.73324 0.987032 0
M  V30 11624 H 1072.33 2.57378 0.106997 0
M  V30 11625 H 1072.28 2.55234 1.83584 0
M  V30 11626 N 1076.06 0.894434 1.2976 0
M  V30 11627 C 1076.97 0.372622 2.31622 0
M  V30 11628 C 1077.98 -0.52996 1.65733 0
M  V30 11629 O 1079.16 -0.420807 1.96955 0
M  V30 11630 C 1076.22 -0.396076 3.4443 0
M  V30 11631 C 1075.28 0.537394 4.25923 0
M  V30 11632 C 1074.52 -0.194713 5.33345 0
M  V30 11633 O 1074.74 -1.41943 5.52457 0
M  V30 11634 O 1073.67 0.460055 6.00139 0
M  V30 11635 H 1077.5 1.21756 2.78225 0
M  V30 11636 H 1075.09 0.65858 1.34101 0
M  V30 11637 H 1076.97 -0.830962 4.13126 0
M  V30 11638 H 1075.64 -1.21716 2.99945 0
M  V30 11639 H 1074.55 1.02129 3.5989 0
M  V30 11640 H 1075.88 1.32475 4.74037 0
M  V30 11641 N 1077.53 -1.43282 0.656365 0
M  V30 11642 C 1078.44 -2.34576 -0.033864 0
M  V30 11643 C 1079.46 -1.5406 -0.808793 0
M  V30 11644 O 1080.64 -1.867 -0.755322 0
M  V30 11645 C 1077.7 -3.32378 -0.986197 0
M  V30 11646 C 1076.76 -4.28797 -0.207851 0
M  V30 11647 C 1076 -5.21927 -1.11482 0
M  V30 11648 O 1076.22 -5.19554 -2.35414 0
M  V30 11649 O 1075.15 -5.99045 -0.585536 0
M  V30 11650 H 1078.98 -2.95099 0.717668 0
M  V30 11651 H 1076.56 -1.43475 0.416556 0
M  V30 11652 H 1078.45 -3.9251 -1.53341 0
M  V30 11653 H 1077.12 -2.74354 -1.7179 0
M  V30 11654 H 1076.03 -3.72134 0.383022 0
M  V30 11655 H 1077.36 -4.89811 0.48435 0
M  V30 11656 N 1079.01 -0.398486 -1.52479 0
M  V30 11657 C 1079.95 0.467426 -2.24383 0
M  V30 11658 C 1080.96 1.01908 -1.26959 0
M  V30 11659 O 1082.15 0.919843 -1.52974 0
M  V30 11660 C 1079.25 1.66146 -2.95379 0
M  V30 11661 C 1078.42 1.23557 -4.19586 0
M  V30 11662 C 1077.48 2.29532 -4.73499 0
M  V30 11663 O 1076.51 1.90561 -5.36354 0
M  V30 11664 N 1077.71 3.61564 -4.5415 0
M  V30 11665 H 1080.47 -0.148653 -2.99331 0
M  V30 11666 H 1078.03 -0.225313 -1.60325 0
M  V30 11667 H 1080.03 2.36585 -3.28344 0
M  V30 11668 H 1078.6 2.18369 -2.23682 0
M  V30 11669 H 1077.82 0.359715 -3.92555 0
M  V30 11670 H 1079.1 0.927812 -5.00269 0
M  V30 11671 H 1078.5 3.95983 -4.03998 0
M  V30 11672 H 1077.06 4.2801 -4.9158 0
M  V30 11673 N 1080.49 1.57075 -0.12858 0
M  V30 11674 C 1081.74 1.95134 0.526046 0
M  V30 11675 C 1082.06 1.01337 1.66601 0
M  V30 11676 O 1081.33 0.0714361 1.9577 0
M  V30 11677 H 1079.91 0.720468 0.19732 0
M  V30 11678 H 1082.57 1.93874 -0.199767 0
M  V30 11679 H 1081.67 2.98406 0.914332 0
M  V30 11680 N 1081.97 -0.145205 1.5693 0
M  V30 11681 C 1082.92 -1.19841 1.99351 0
M  V30 11682 C 1083.91 -1.44371 0.886197 0
M  V30 11683 O 1085.12 -1.44642 1.07138 0
M  V30 11684 H 1081.49 -0.403437 0.63462 0
M  V30 11685 H 1083.46 -0.813932 2.87085 0
M  V30 11686 C 1082.21 -2.52377 2.39167 0
M  V30 11687 H 1081.54 -2.34332 3.23927 0
M  V30 11688 H 1082.98 -3.24694 2.72671 0
M  V30 11689 C 1081.43 -3.1305 1.24503 0
M  V30 11690 O 1081.96 -3.97962 0.546739 0
M  V30 11691 N 1080.17 -2.72528 1.00882 0
M  V30 11692 H 1079.72 -2.03576 1.57843 0
M  V30 11693 H 1079.68 -3.13456 0.24351 0
M  V30 11694 N 1083.45 -1.52049 -0.414609 0
M  V30 11695 C 1084.67 -1.6997 -1.18848 0
M  V30 11696 C 1085.1 -0.406058 -1.83665 0
M  V30 11697 O 1084.46 0.635981 -1.69779 0
M  V30 11698 C 1084.5 -2.8327 -2.23138 0
M  V30 11699 O 1083.61 -2.48457 -3.29155 0
M  V30 11700 H 1082.95 -0.566003 -0.347183 0
M  V30 11701 H 1085.48 -1.98726 -0.486757 0
M  V30 11702 H 1085.49 -3.08022 -2.67557 0
M  V30 11703 H 1084.16 -3.7713 -1.75344 0
M  V30 11704 H 1082.74 -2.34357 -2.90054 0
M  V30 11705 N 1084.93 0.6715 -1.42579 0
M  V30 11706 C 1085.86 1.79625 -1.40749 0
M  V30 11707 C 1086.84 1.6032 -0.271312 0
M  V30 11708 O 1088.02 1.82749 -0.46205 0
M  V30 11709 C 1085.15 3.16672 -1.20153 0
M  V30 11710 C 1084.19 3.54718 -2.36807 0
M  V30 11711 S 1085.03 3.56771 -3.99343 0
M  V30 11712 C 1086.18 4.96505 -3.81095 0
M  V30 11713 H 1086.42 1.80903 -2.35926 0
M  V30 11714 H 1083.95 0.842469 -1.2939 0
M  V30 11715 H 1085.91 3.95776 -1.08956 0
M  V30 11716 H 1084.57 3.12976 -0.265545 0
M  V30 11717 H 1083.76 4.54341 -2.18152 0
M  V30 11718 H 1083.36 2.82982 -2.44535 0
M  V30 11719 H 1085.65 5.84674 -3.4229 0
M  V30 11720 H 1086.6 5.20207 -4.80406 0
M  V30 11721 H 1087.01 4.69178 -3.13898 0
M  V30 11722 N 1086.4 1.28806 0.908124 0
M  V30 11723 C 1087.34 1.07538 2.01273 0
M  V30 11724 C 1088.31 -0.0102454 1.62597 0
M  V30 11725 O 1089.5 0.138797 1.87988 0
M  V30 11726 C 1086.63 0.635337 3.32688 0
M  V30 11727 C 1085.67 1.71843 3.90349 0
M  V30 11728 S 1086.5 3.31571 4.20501 0
M  V30 11729 C 1087.66 2.89416 5.54968 0
M  V30 11730 H 1087.89 2.01058 2.19005 0
M  V30 11731 H 1085.43 1.12857 1.05369 0
M  V30 11732 H 1087.38 0.388159 4.08661 0
M  V30 11733 H 1086.05 -0.280122 3.12848 0
M  V30 11734 H 1085.24 1.36228 4.8524 0
M  V30 11735 H 1084.84 1.91869 3.21033 0
M  V30 11736 H 1087.13 2.35936 6.35091 0
M  V30 11737 H 1088.08 3.83126 5.955 0
M  V30 11738 H 1088.48 2.27962 5.16424 0
M  V30 11739 N 1087.88 -1.11734 1.11145 0
M  V30 11740 C 1088.83 -2.19765 0.761982 0
M  V30 11741 C 1089.82 -1.67616 -0.24518 0
M  V30 11742 O 1091.03 -1.79695 -0.104781 0
M  V30 11743 H 1087.4 -0.71644 0.228513 0
M  V30 11744 H 1089.38 -2.4649 1.68183 0
M  V30 11745 C 1088.12 -3.47016 0.218057 0
M  V30 11746 H 1087.45 -3.87494 0.984299 0
M  V30 11747 H 1088.89 -4.23998 0.0116825 0
M  V30 11748 C 1087.35 -3.20088 -1.05096 0
M  V30 11749 O 1087.88 -3.40503 -2.1312 0
M  V30 11750 N 1086.08 -2.73844 -0.972523 0
M  V30 11751 H 1085.63 -2.57431 -0.0933459 0
M  V30 11752 H 1085.59 -2.56204 -1.82228 0
M  V30 11753 N 1089.36 -0.901303 -1.29284 0
M  V30 11754 C 1090.29 -0.396909 -2.30102 0
M  V30 11755 C 1091.27 0.528919 -1.61668 0
M  V30 11756 O 1092.46 0.439306 -1.89166 0
M  V30 11757 C 1089.59 0.375006 -3.45269 0
M  V30 11758 C 1088.54 -0.46054 -4.25515 0
M  V30 11759 C 1087.87 0.438967 -5.32895 0
M  V30 11760 C 1089.17 -1.7113 -4.93469 0
M  V30 11761 H 1090.86 -1.23943 -2.72541 0
M  V30 11762 H 1088.41 -0.597428 -1.31022 0
M  V30 11763 H 1090.36 0.738622 -4.14876 0
M  V30 11764 H 1089.08 1.25132 -3.01678 0
M  V30 11765 H 1087.74 -0.80651 -3.57618 0
M  V30 11766 H 1087.39 1.31346 -4.85548 0
M  V30 11767 H 1087.09 -0.116406 -5.87485 0
M  V30 11768 H 1088.61 0.79874 -6.05353 0
M  V30 11769 H 1090.03 -1.41732 -5.55504 0
M  V30 11770 H 1088.42 -2.20811 -5.57999 0
M  V30 11771 H 1089.49 -2.44636 -4.18666 0
M  V30 11772 N 1090.84 1.42931 -0.663954 0
M  V30 11773 C 1092.11 1.95284 -0.111174 0
M  V30 11774 C 1092.49 1.60484 1.37142 0
M  V30 11775 O 1091.84 0.895425 2.10225 0
M  V30 11776 C 1092.05 3.47046 -0.368789 0
M  V30 11777 C 1093.4 4.23679 -0.279473 0
M  V30 11778 O 1094.42 3.54918 -0.301937 0
M  V30 11779 O 1093.28 5.46087 -0.21236 0
M  V30 11780 H 1090.38 0.826993 0.00341718 0
M  V30 11781 H 1092.92 1.52816 -0.737935 0
M  V30 11782 H 1091.7 3.65541 -1.39626 0
M  V30 11783 H 1091.32 3.96537 0.290514 0
M  V30 11784 N 1092.32 0.406567 1.52266 0
M  V30 11785 C 1093.56 -0.1627 2.02748 0
M  V30 11786 C 1093.92 -1.43022 1.28695 0
M  V30 11787 O 1093.21 -1.87715 0.383881 0
M  V30 11788 C 1093.4 -0.467124 3.54334 0
M  V30 11789 C 1093.23 0.76934 4.4307 0
M  V30 11790 C 1092 1.29377 4.88456 0
M  V30 11791 C 1094.2 1.64671 4.87225 0
M  V30 11792 N 1092.18 2.48599 5.61313 0
M  V30 11793 C 1093.55 2.68519 5.58836 0
M  V30 11794 C 1095.61 1.66477 4.69244 0
M  V30 11795 C 1094.31 3.74081 6.14374 0
M  V30 11796 C 1096.34 2.70956 5.25677 0
M  V30 11797 C 1095.7 3.73525 5.97209 0
M  V30 11798 H 1091.8 -0.0211706 0.781713 0
M  V30 11799 H 1094.38 0.560338 1.86463 0
M  V30 11800 H 1092.55 -1.15921 3.70698 0
M  V30 11801 H 1094.29 -1.02505 3.91503 0
M  V30 11802 H 1091.04 0.85219 4.6587 0
M  V30 11803 H 1091.46 3.0897 6.02384 0
M  V30 11804 H 1096.11 0.88519 4.1343 0
M  V30 11805 H 1093.82 4.52896 6.69261 0
M  V30 11806 H 1097.41 2.73258 5.13635 0
M  V30 11807 H 1096.29 4.53043 6.40095 0
M  V30 11808 N 1093.79 -1.57004 0.136909 0
M  V30 11809 C 1095.02 -2.00587 -0.527209 0
M  V30 11810 C 1095.44 -1.01628 -1.58283 0
M  V30 11811 O 1094.8 0.00946934 -1.81298 0
M  V30 11812 C 1094.85 -3.42967 -1.11384 0
M  V30 11813 O 1093.95 -3.46973 -2.22898 0
M  V30 11814 H 1093.3 -0.651155 -0.129976 0
M  V30 11815 H 1095.83 -2.03296 0.230667 0
M  V30 11816 H 1095.84 -3.81555 -1.44499 0
M  V30 11817 H 1094.51 -4.14502 -0.340736 0
M  V30 11818 H 1093.09 -3.20219 -1.91087 0
M  V30 11819 N 1095.27 0.136881 -1.57004 0
M  V30 11820 C 1096.52 0.844147 -1.85056 0
M  V30 11821 C 1096.87 1.78328 -0.722278 0
M  V30 11822 O 1096.17 1.89557 0.279059 0
M  V30 11823 C 1096.36 1.64711 -3.17183 0
M  V30 11824 C 1096.19 0.787229 -4.42756 0
M  V30 11825 C 1094.96 0.448938 -5.03302 0
M  V30 11826 C 1097.16 0.112947 -5.14176 0
M  V30 11827 N 1095.14 -0.423481 -6.12438 0
M  V30 11828 C 1096.51 -0.619195 -6.169 0
M  V30 11829 C 1098.57 0.0346687 -4.97888 0
M  V30 11830 C 1097.27 -1.42224 -7.05099 0
M  V30 11831 C 1099.29 -0.755143 -5.86559 0
M  V30 11832 C 1098.66 -1.47553 -6.88772 0
M  V30 11833 H 1094.76 0.286398 -0.727668 0
M  V30 11834 H 1097.34 0.108903 -1.94395 0
M  V30 11835 H 1095.51 2.35352 -3.08972 0
M  V30 11836 H 1097.24 2.29833 -3.33105 0
M  V30 11837 H 1094 0.787068 -4.67014 0
M  V30 11838 H 1094.42 -0.851013 -6.7163 0
M  V30 11839 H 1099.06 0.577271 -4.18841 0
M  V30 11840 H 1096.78 -1.97606 -7.83567 0
M  V30 11841 H 1100.37 -0.817835 -5.76023 0
M  V30 11842 H 1099.25 -2.07687 -7.56198 0
M  V30 11843 N 1096.75 1.52266 0.40654 0
M  V30 11844 C 1097.68 1.78755 1.50229 0
M  V30 11845 C 1098.66 0.638652 1.57655 0
M  V30 11846 O 1099.85 0.884505 1.72888 0
M  V30 11847 C 1096.98 1.94057 2.88026 0
M  V30 11848 C 1095.93 3.09667 2.95449 0
M  V30 11849 C 1095.26 3.10196 4.35526 0
M  V30 11850 C 1096.56 4.49077 2.66697 0
M  V30 11851 H 1098.25 2.70511 1.28313 0
M  V30 11852 H 1095.8 1.30167 0.615836 0
M  V30 11853 H 1097.75 2.11171 3.64671 0
M  V30 11854 H 1096.47 0.989755 3.11242 0
M  V30 11855 H 1095.13 2.92308 2.2125 0
M  V30 11856 H 1094.78 2.12831 4.55754 0
M  V30 11857 H 1094.48 3.87847 4.41416 0
M  V30 11858 H 1096 3.29443 5.14101 0
M  V30 11859 H 1097.42 4.66628 3.33064 0
M  V30 11860 H 1095.82 5.28665 2.8396 0
M  V30 11861 H 1096.89 4.56995 1.62122 0
M  V30 11862 N 1098.23 -0.663929 1.42933 0
M  V30 11863 C 1099.46 -1.45192 1.474 0
M  V30 11864 C 1099.87 -1.88592 0.0886014 0
M  V30 11865 O 1099.23 -1.58824 -0.898962 0
M  V30 11866 C 1099.28 -2.69394 2.41059 0
M  V30 11867 O 1099 -2.27812 3.7421 0
M  V30 11868 C 1100.5 -3.62855 2.54659 0
M  V30 11869 H 1097.72 -0.446394 0.500973 0
M  V30 11870 H 1100.27 -0.814875 1.87563 0
M  V30 11871 H 1098.42 -3.29262 2.0412 0
M  V30 11872 H 1098.83 -3.08095 4.24474 0
M  V30 11873 H 1100.31 -4.46698 3.24291 0
M  V30 11874 H 1100.79 -4.09487 1.58799 0
M  V30 11875 H 1101.39 -3.08874 2.92364 0
M  V30 11876 N 1099.71 -1.29285 -0.901281 0
M  V30 11877 C 1100.62 -1.16161 -2.03823 0
M  V30 11878 C 1101.63 -0.0852298 -1.73791 0
M  V30 11879 O 1102.81 -0.29699 -1.99198 0
M  V30 11880 C 1099.87 -0.837586 -3.3643 0
M  V30 11881 C 1098.93 -1.99764 -3.7999 0
M  V30 11882 C 1098.17 -1.68898 -5.0627 0
M  V30 11883 O 1098.39 -0.609177 -5.67138 0
M  V30 11884 O 1097.32 -2.53648 -5.45845 0
M  V30 11885 H 1101.15 -2.11635 -2.17817 0
M  V30 11886 H 1098.74 -1.08722 -1.02468 0
M  V30 11887 H 1100.62 -0.671376 -4.16017 0
M  V30 11888 H 1099.29 0.0873811 -3.23582 0
M  V30 11889 H 1098.2 -2.21908 -3.01177 0
M  V30 11890 H 1099.53 -2.90376 -3.9742 0
M  V30 11891 O 1101.22 1.0367 -1.23834 0
M  V30 11892 H 1101.91 1.65154 -1.01211 0
M  V30 END ATOM
M  V30 BEGIN BOND
M  V30 END BOND
M  V30 END CTAB
M  END
$$$$
