drugbank_target|P15144 Aminopeptidase N (DB00973; DB06196)
 OpenBabel12092119473D

  0  0  0     0  0            999 V3000
M  V30 BEGIN CTAB
M  V30 COUNTS 15267 15461 0 0 0
M  V30 BEGIN ATOM
M  V30 1 H -0.908 1.98254 -0.117106 0
M  V30 2 N 0 1.576 0 0
M  V30 3 C 0.933 2.03868 1.02534 0
M  V30 4 C 1.911 0.928543 1.3348 0
M  V30 5 O 3.095 1.19667 1.45644 0
M  V30 6 C 0.222 2.43627 2.35294 0
M  V30 7 C -0.732 3.65373 2.2001 0
M  V30 8 S 0.101 5.13292 1.52614 0
M  V30 9 C 1.257 5.56322 2.86805 0
M  V30 10 H 1.49 2.90518 0.631377 0
M  V30 11 H -0.977 1.52953 0.210867 0
M  V30 12 H 0.981 2.67203 3.11629 0
M  V30 13 H -0.358 1.57376 2.7183 0
M  V30 14 H -1.165 3.90944 3.18086 0
M  V30 15 H -1.563 3.418 1.51819 0
M  V30 16 H 0.729 5.58782 3.83104 0
M  V30 17 H 1.672 6.56266 2.65933 0
M  V30 18 H 2.08 4.83886 2.90714 0
M  V30 19 N 1.4781 -0.272755 1.55222 0
M  V30 20 C 2.4411 -1.32041 1.87344 0
M  V30 21 C 3.4411 -1.42342 0.74803 0
M  V30 22 O 4.6311 -1.41488 1.0162 0
M  V30 23 C 1.7631 -2.70173 2.07893 0
M  V30 24 H 2.9561 -1.04789 2.80997 0
M  V30 25 H 0.5091 -0.51083 1.47717 0
M  V30 26 H 1.2441 -3.02605 1.16622 0
M  V30 27 H 1.0291 -2.64082 2.89833 0
M  V30 28 H 2.5191 -3.45869 2.34017 0
M  V30 29 N 2.9562 -1.48159 -0.537278 0
M  V30 30 C 3.9032 -1.62138 -1.64256 0
M  V30 31 C 4.8732 -0.463668 -1.59497 0
M  V30 32 O 6.0582 -0.686241 -1.78032 0
M  V30 33 C 3.1982 -1.66028 -3.02537 0
M  V30 34 C 2.3112 -2.92855 -3.17585 0
M  V30 35 C 1.4462 -2.87952 -4.46382 0
M  V30 36 C 0.4852 -4.09516 -4.54932 0
M  V30 37 N -0.3778 -4.02733 -5.75109 0
M  V30 38 H 4.4622 -2.56529 -1.51647 0
M  V30 39 H 1.9992 -1.27224 -0.738414 0
M  V30 40 H 3.9572 -1.66265 -3.82638 0
M  V30 41 H 2.5872 -0.751331 -3.13934 0
M  V30 42 H 1.6392 -3.02395 -2.30784 0
M  V30 43 H 2.9512 -3.82822 -3.19764 0
M  V30 44 H 2.1052 -2.8655 -5.34765 0
M  V30 45 H 0.8442 -1.95702 -4.46712 0
M  V30 46 H -0.1508 -4.11201 -3.64957 0
M  V30 47 H 1.0742 -5.02917 -4.56346 0
M  V30 48 H -0.9798 -3.13299 -5.76351 0
M  V30 49 H -1.0628 -4.86397 -5.78752 0
M  V30 50 H 0.2052 -4.05379 -6.65799 0
M  V30 51 N 4.4343 0.785586 -1.36625 0
M  V30 52 C 5.6823 1.54057 -1.30808 0
M  V30 53 C 6.0033 1.94683 0.111157 0
M  V30 54 O 5.2733 1.65241 1.05224 0
M  V30 55 H 3.8533 0.571354 -0.481211 0
M  V30 56 H 6.5153 0.935821 -1.70963 0
M  V30 57 H 5.6113 2.44637 -1.93801 0
M  V30 58 N 5.9124 1.20967 1.01018 0
M  V30 59 C 7.1594 1.02374 1.74716 0
M  V30 60 C 7.4874 -0.443375 1.89379 0
M  V30 61 O 6.7424 -1.34535 1.42123 0
M  V30 62 C 7.0414 1.65997 3.16512 0
M  V30 63 C 6.7074 3.15831 3.2181 0
M  V30 64 C 5.3694 3.56719 3.22963 0
M  V30 65 C 7.7214 4.11816 3.19464 0
M  V30 66 C 5.0494 4.92107 3.19449 0
M  V30 67 C 7.4014 5.47158 3.17491 0
M  V30 68 C 6.0654 5.87451 3.16951 0
M  V30 69 H 5.3354 0.374614 0.639332 0
M  V30 70 H 7.9824 1.50485 1.18434 0
M  V30 71 H 6.2874 1.10166 3.75993 0
M  V30 72 H 7.9844 1.49119 3.72242 0
M  V30 73 H 4.5744 2.83263 3.21652 0
M  V30 74 H 8.7584 3.81257 3.17737 0
M  V30 75 H 4.0144 5.22579 3.17366 0
M  V30 76 H 8.1884 6.21274 3.14629 0
M  V30 77 H 5.8154 6.92329 3.13983 0
M  V30 78 N 7.3905 -1.2043 1.01659 0
M  V30 79 C 8.6205 -1.93496 0.724081 0
M  V30 80 C 9.0285 -1.74998 -0.71918 0
M  V30 81 O 8.3715 -1.06118 -1.49949 0
M  V30 82 C 8.4335 -3.45886 0.97994 0
M  V30 83 C 8.0975 -3.88145 2.41232 0
M  V30 84 C 9.0945 -3.93907 3.39313 0
M  V30 85 C 6.7795 -4.20134 2.75305 0
M  V30 86 C 8.7735 -4.31069 4.6953 0
M  V30 87 C 6.4605 -4.56971 4.05735 0
M  V30 88 C 7.4585 -4.62411 5.02658 0
M  V30 89 O 7.1465 -4.98403 6.30754 0
M  V30 90 H 6.8785 -0.621824 0.265162 0
M  V30 91 H 9.4325 -1.53867 1.36066 0
M  V30 92 H 7.6625 -3.85639 0.286198 0
M  V30 93 H 9.3515 -4.0018 0.679021 0
M  V30 94 H 10.1175 -3.69357 3.14325 0
M  V30 95 H 5.9965 -4.1509 2.00551 0
M  V30 96 H 9.5405 -4.3523 5.45179 0
M  V30 97 H 5.4375 -4.80977 4.30502 0
M  V30 98 H 6.2055 -5.16395 6.35042 0
M  V30 99 N 8.8686 -0.792821 -1.36206 0
M  V30 100 C 10.1176 -0.363353 -1.984 0
M  V30 101 C 10.4306 1.07172 -1.63626 0
M  V30 102 O 11.6366 1.60362 -2.19081 0
M  V30 103 C 10.0926 -0.59872 -3.54885 0
M  V30 104 C 9.7006 -2.04543 -3.9858 0
M  V30 105 C 11.4446 -0.233926 -4.23855 0
M  V30 106 C 9.3516 -2.22727 -5.47856 0
M  V30 107 H 8.2816 -0.13212 -0.742334 0
M  V30 108 H 10.9326 -0.974935 -1.55458 0
M  V30 109 H 9.3146 0.0826222 -3.95914 0
M  V30 110 H 10.4886 -2.76345 -3.68741 0
M  V30 111 H 8.8036 -2.36879 -3.42458 0
M  V30 112 H 11.4006 -0.348027 -5.33566 0
M  V30 113 H 11.7436 0.818351 -4.08177 0
M  V30 114 H 12.2766 -0.868639 -3.882 0
M  V30 115 H 9.0156 -3.2635 -5.68486 0
M  V30 116 H 8.5356 -1.55434 -5.7931 0
M  V30 117 H 10.2146 -2.03607 -6.14128 0
M  V30 118 N 10.3467 1.47872 -0.545128 0
M  V30 119 C 11.5717 2.07391 -0.0190611 0
M  V30 120 C 11.9967 1.39688 1.25971 0
M  V30 121 O 11.3547 0.467816 1.7516 0
M  V30 122 C 11.4027 3.60188 0.172335 0
M  V30 123 O 10.5067 3.9339 1.23766 0
M  V30 124 H 9.8477 0.662411 -0.0459059 0
M  V30 125 H 12.3777 1.90066 -0.757365 0
M  V30 126 H 12.3877 4.06129 0.390305 0
M  V30 127 H 11.0627 4.08865 -0.761725 0
M  V30 128 H 9.6397 3.5921 1.00114 0
M  V30 129 N 11.8248 0.280983 1.55075 0
M  V30 130 C 12.7718 -0.603937 2.22758 0
M  V30 131 C 13.7418 -1.1452 1.20309 0
M  V30 132 O 14.9268 -1.19343 1.48869 0
M  V30 133 C 12.0668 -1.77947 2.95684 0
M  V30 134 C 11.1798 -1.2715 4.12864 0
M  V30 135 C 10.3148 -2.4093 4.7342 0
M  V30 136 C 9.3538 -1.87165 5.82783 0
M  V30 137 N 8.4908 -2.94441 6.37377 0
M  V30 138 H 13.3308 -0.020124 2.97993 0
M  V30 139 H 10.8678 0.00183425 1.471 0
M  V30 140 H 12.8258 -2.47055 3.36184 0
M  V30 141 H 11.4558 -2.33522 2.22861 0
M  V30 142 H 10.5078 -0.473331 3.77444 0
M  V30 143 H 11.8198 -0.837751 4.91715 0
M  V30 144 H 10.9738 -3.18021 5.1667 0
M  V30 145 H 9.7128 -2.87623 3.93859 0
M  V30 146 H 8.7178 -1.08556 5.38976 0
M  V30 147 H 9.9428 -1.41401 6.64216 0
M  V30 148 H 7.8888 -3.40505 5.60707 0
M  V30 149 H 7.8058 -2.55501 7.11516 0
M  V30 150 H 9.0738 -3.71489 6.85285 0
M  V30 151 N 13.3029 -1.57598 0.00835791 0
M  V30 152 C 14.5279 -1.95617 -0.689103 0
M  V30 153 C 14.9529 -0.883753 -1.66046 0
M  V30 154 O 14.3109 0.157352 -1.80616 0
M  V30 155 C 14.3589 -3.32736 -1.38994 0
M  V30 156 O 13.4629 -3.27631 -2.50463 0
M  V30 157 H 12.8039 -0.638379 -0.182668 0
M  V30 158 H 15.3339 -2.045 0.064036 0
M  V30 159 H 15.3439 -3.68494 -1.75147 0
M  V30 160 H 14.0189 -4.1034 -0.677778 0
M  V30 161 H 12.5959 -3.03561 -2.16576 0
M  V30 162 N 14.781 0.264519 -1.55364 0
M  V30 163 C 15.711 1.33121 -1.91836 0
M  V30 164 C 16.692 1.51101 -0.781192 0
M  V30 165 O 17.877 1.64003 -1.04003 0
M  V30 166 C 15.007 2.68921 -2.19769 0
M  V30 167 C 13.961 2.65661 -3.35571 0
M  V30 168 C 13.287 4.05093 -3.49004 0
M  V30 169 C 14.587 2.24187 -4.71739 0
M  V30 170 H 16.281 1.02844 -2.81182 0
M  V30 171 H 13.827 0.493286 -1.35287 0
M  V30 172 H 15.78 3.43663 -2.43872 0
M  V30 173 H 14.504 3.00799 -1.27231 0
M  V30 174 H 13.163 1.93377 -3.1145 0
M  V30 175 H 12.811 4.34206 -2.53917 0
M  V30 176 H 12.511 4.03804 -4.26868 0
M  V30 177 H 14.035 4.81561 -3.75408 0
M  V30 178 H 15.449 2.88654 -4.9533 0
M  V30 179 H 13.846 2.34044 -5.52579 0
M  V30 180 H 14.916 1.19327 -4.69988 0
M  V30 181 N 16.2591 1.48442 0.529413 0
M  V30 182 C 17.5071 1.56179 1.28267 0
M  V30 183 C 17.8281 0.237721 1.93546 0
M  V30 184 O 17.0981 -0.740779 1.81354 0
M  V30 185 H 15.6781 0.575367 0.476405 0
M  V30 186 H 18.3401 1.84909 0.61602 0
M  V30 187 H 17.4361 2.34312 2.06165 0
M  V30 188 N 17.7372 -0.778329 1.37039 0
M  V30 189 C 18.9862 -1.53189 1.3121 0
M  V30 190 C 19.2992 -1.95328 -0.103095 0
M  V30 191 O 20.5052 -2.70012 -0.283826 0
M  V30 192 C 18.9612 -2.76591 2.30272 0
M  V30 193 C 18.5692 -2.41577 3.77286 0
M  V30 194 C 20.3132 -3.5455 2.33441 0
M  V30 195 C 18.2202 -3.61441 4.68096 0
M  V30 196 H 17.1502 -0.5751 0.487622 0
M  V30 197 H 19.8012 -0.853101 1.62464 0
M  V30 198 H 18.1832 -3.46326 1.92027 0
M  V30 199 H 19.3572 -1.79668 4.2433 0
M  V30 200 H 17.6722 -1.76806 3.76999 0
M  V30 201 H 20.2692 -4.43628 2.98493 0
M  V30 202 H 20.6122 -3.93936 1.34611 0
M  V30 203 H 21.1452 -2.91805 2.7036 0
M  V30 204 H 17.8842 -3.27142 5.6803 0
M  V30 205 H 17.4042 -4.22478 4.25761 0
M  V30 206 H 19.0832 -4.28335 4.8491 0
M  V30 207 N 19.2153 -1.21501 -1.00376 0
M  V30 208 C 20.1453 -0.999478 -2.11028 0
M  V30 209 C 21.1263 0.0759671 -1.6993 0
M  V30 210 O 22.3113 -0.0841106 -1.94018 0
M  V30 211 C 19.4413 -0.564709 -3.42678 0
M  V30 212 C 18.3953 -1.58486 -3.97576 0
M  V30 213 C 17.7213 -1.00628 -5.25146 0
M  V30 214 C 19.0213 -2.97204 -4.29496 0
M  V30 215 H 20.7153 -1.92495 -2.29317 0
M  V30 216 H 18.2613 -0.92693 -1.102 0
M  V30 217 H 20.2143 -0.401091 -4.19487 0
M  V30 218 H 18.9383 0.396411 -3.24185 0
M  V30 219 H 17.5973 -1.73606 -3.22888 0
M  V30 220 H 17.2453 -0.0368439 -5.02987 0
M  V30 221 H 16.9453 -1.68771 -5.62841 0
M  V30 222 H 18.4693 -0.854015 -6.04598 0
M  V30 223 H 19.8833 -2.8552 -4.97143 0
M  V30 224 H 18.2803 -3.62372 -4.78338 0
M  V30 225 H 19.3503 -3.47956 -3.3772 0
M  V30 226 N 20.6934 1.19889 -1.02296 0
M  V30 227 C 21.9414 1.89046 -0.714558 0
M  V30 228 C 22.2624 1.79636 0.758681 0
M  V30 229 O 21.5324 1.20292 1.54618 0
M  V30 230 H 20.1124 0.699802 -0.261317 0
M  V30 231 H 22.7744 1.45574 -1.29592 0
M  V30 232 H 21.8704 2.95524 -1.0036 0
M  V30 233 N 22.1715 0.800033 1.35784 0
M  V30 234 C 23.4205 0.37387 1.98205 0
M  V30 235 C 23.7335 -1.06302 1.64193 0
M  V30 236 O 24.9395 -1.59198 2.19928 0
M  V30 237 C 23.3955 0.617532 3.54562 0
M  V30 238 C 23.0035 2.06654 3.9749 0
M  V30 239 C 24.7475 0.256401 4.23725 0
M  V30 240 C 22.6545 2.2563 5.46667 0
M  V30 241 H 21.5845 0.136055 0.741623 0
M  V30 242 H 24.2355 0.983166 1.54939 0
M  V30 243 H 22.6175 -0.0616248 3.95952 0
M  V30 244 H 23.7915 2.78296 3.67271 0
M  V30 245 H 22.1065 2.38691 3.41197 0
M  V30 246 H 24.7035 0.376318 5.33374 0
M  V30 247 H 25.0465 -0.796692 4.08606 0
M  V30 248 H 25.5795 0.889214 3.87734 0
M  V30 249 H 22.3185 3.2936 5.66747 0
M  V30 250 H 21.8385 1.58504 5.78478 0
M  V30 251 H 23.5175 2.06861 6.1304 0
M  V30 252 N 23.6496 -1.47581 0.552962 0
M  V30 253 C 24.5796 -2.32762 -0.185451 0
M  V30 254 C 25.5606 -1.43527 -0.912905 0
M  V30 255 O 26.7456 -1.72388 -0.894201 0
M  V30 256 C 23.8756 -3.25219 -1.21859 0
M  V30 257 C 22.8296 -4.23661 -0.607864 0
M  V30 258 C 22.1556 -5.05413 -1.74533 0
M  V30 259 C 23.4556 -5.20481 0.435582 0
M  V30 260 H 25.1496 -2.94749 0.525684 0
M  V30 261 H 22.6956 -1.41738 0.254251 0
M  V30 262 H 24.6486 -3.8365 -1.7433 0
M  V30 263 H 23.3726 -2.61279 -1.95961 0
M  V30 264 H 22.0316 -3.66451 -0.104489 0
M  V30 265 H 21.6796 -4.3788 -2.47529 0
M  V30 266 H 21.3796 -5.72059 -1.34249 0
M  V30 267 H 22.9036 -5.66701 -2.27338 0
M  V30 268 H 24.3176 -5.733 -0.00290157 0
M  V30 269 H 22.7146 -5.95305 0.757067 0
M  V30 270 H 23.7846 -4.66217 1.33303 0
M  V30 271 N 25.1277 -0.289203 -1.54924 0
M  V30 272 C 26.0577 0.58549 -2.2604 0
M  V30 273 C 27.0387 1.14753 -1.25562 0
M  V30 274 O 28.2237 1.17906 -1.54311 0
M  V30 275 C 25.3537 1.76305 -2.99222 0
M  V30 276 C 24.3077 1.33191 -4.06748 0
M  V30 277 C 23.6337 2.5937 -4.6758 0
M  V30 278 C 24.9337 0.471775 -5.20165 0
M  V30 279 H 26.6277 -0.00763532 -2.99399 0
M  V30 280 H 24.1737 -0.00511229 -1.43999 0
M  V30 281 H 26.1267 2.38097 -3.47689 0
M  V30 282 H 24.8507 2.38223 -2.23422 0
M  V30 283 H 23.5097 0.737121 -3.59113 0
M  V30 284 H 23.1577 3.19576 -3.88433 0
M  V30 285 H 22.8577 2.31228 -5.40192 0
M  V30 286 H 24.3817 3.21985 -5.18804 0
M  V30 287 H 25.7957 0.995056 -5.64599 0
M  V30 288 H 24.1927 0.284639 -5.99425 0
M  V30 289 H 25.2627 -0.506041 -4.82252 0
M  V30 290 N 26.6058 1.57591 -0.0167156 0
M  V30 291 C 27.8538 1.90906 0.663285 0
M  V30 292 C 28.1748 0.892509 1.73376 0
M  V30 293 O 27.4448 -0.0677623 1.95783 0
M  V30 294 H 26.0248 0.704637 0.247983 0
M  V30 295 H 28.6868 1.94803 -0.0615909 0
M  V30 296 H 27.7828 2.9116 1.12393 0
M  V30 297 N 28.0839 -0.256276 1.55502 0
M  V30 298 C 29.3299 -0.987079 1.77157 0
M  V30 299 C 29.6629 -1.85327 0.580315 0
M  V30 300 O 28.9379 -1.89874 -0.421686 0
M  V30 301 C 29.2209 -1.85553 3.08613 0
M  V30 302 C 29.0739 -1.01816 4.38125 0
M  V30 303 C 30.3929 -2.8397 3.36228 0
M  V30 304 H 27.5119 -0.357428 0.644526 0
M  V30 305 H 30.1539 -0.258239 1.88237 0
M  V30 306 H 28.3039 -2.47695 2.99298 0
M  V30 307 H 29.9759 -0.416159 4.59419 0
M  V30 308 H 28.2189 -0.322178 4.32602 0
M  V30 309 H 28.8899 -1.65939 5.26468 0
M  V30 310 H 31.3659 -2.31964 3.45445 0
M  V30 311 H 30.2419 -3.41864 4.29442 0
M  V30 312 H 30.5029 -3.59955 2.56681 0
M  V30 313 N 29.562 -1.4872 -0.521534 0
M  V30 314 C 30.525 -1.63379 -1.60748 0
M  V30 315 C 31.525 -0.50661 -1.52611 0
M  V30 316 O 32.715 -0.772601 -1.5613 0
M  V30 317 C 29.847 -1.61192 -3.00383 0
M  V30 318 H 31.04 -2.60217 -1.49087 0
M  V30 319 H 28.593 -1.37444 -0.744235 0
M  V30 320 H 29.328 -0.65863 -3.17541 0
M  V30 321 H 29.113 -2.43032 -3.07698 0
M  V30 322 H 30.603 -1.7466 -3.7932 0
M  V30 323 N 31.0401 0.771051 -1.3745 0
M  V30 324 C 32.0031 1.86598 -1.33093 0
M  V30 325 C 33.0031 1.59076 -0.234845 0
M  V30 326 O 34.1931 1.67145 -0.490732 0
M  V30 327 C 31.3251 3.23747 -1.06773 0
M  V30 328 H 32.5181 1.91873 -2.30488 0
M  V30 329 H 30.0711 0.970876 -1.2249 0
M  V30 330 H 30.8061 3.24148 -0.099129 0
M  V30 331 H 30.5911 3.45115 -1.86112 0
M  V30 332 H 32.0811 4.03824 -1.06377 0
M  V30 333 N 32.5182 1.22032 0.997298 0
M  V30 334 C 33.7642 1.04376 1.73878 0
M  V30 335 C 34.0972 -0.420716 1.89588 0
M  V30 336 O 33.3722 -1.31202 1.43583 0
M  V30 337 C 33.6552 1.75047 3.14691 0
M  V30 338 C 33.5082 3.29062 3.06656 0
M  V30 339 C 34.8272 1.49928 4.13775 0
M  V30 340 H 31.9462 0.380578 0.631133 0
M  V30 341 H 34.5882 1.50312 1.16217 0
M  V30 342 H 32.7382 1.35996 3.63919 0
M  V30 343 H 34.4102 3.7753 2.65083 0
M  V30 344 H 32.6532 3.58967 2.43568 0
M  V30 345 H 33.3242 3.73683 4.06282 0
M  V30 346 H 35.8002 1.83842 3.73285 0
M  V30 347 H 34.6762 2.01878 5.10428 0
M  V30 348 H 34.9372 0.430929 4.39995 0
M  V30 349 N 33.9963 -1.19345 1.0293 0
M  V30 350 C 35.2363 -1.90738 0.734727 0
M  V30 351 C 35.6003 -1.7785 -0.723414 0
M  V30 352 O 36.8013 -2.43844 -1.13108 0
M  V30 353 C 35.0723 -3.37569 1.17396 0
M  V30 354 S 36.6313 -4.27176 1.00329 0
M  V30 355 H 33.4493 -0.658771 0.267474 0
M  V30 356 H 36.0513 -1.4428 1.31922 0
M  V30 357 H 34.7553 -3.44475 2.23081 0
M  V30 358 H 34.2863 -3.8906 0.582772 0
M  V30 359 H 36.3013 -4.96126 -0.0859152 0
M  V30 360 N 35.4744 -0.807222 -1.35358 0
M  V30 361 C 36.7024 -0.400377 -2.02989 0
M  V30 362 C 37.1174 0.988859 -1.60832 0
M  V30 363 O 36.4744 1.63729 -0.806175 0
M  V30 364 C 36.5254 -0.474867 -3.58368 0
M  V30 365 O 36.2464 -1.80933 -3.98992 0
M  V30 366 C 37.7474 -0.0609112 -4.43258 0
M  V30 367 H 34.9674 -0.162587 -0.651004 0
M  V30 368 H 37.5114 -1.09102 -1.72965 0
M  V30 369 H 35.6664 0.167534 -3.87038 0
M  V30 370 H 36.0804 -1.77256 -4.9364 0
M  V30 371 H 37.5544 -0.164145 -5.51756 0
M  V30 372 H 38.0314 0.993831 -4.27808 0
M  V30 373 H 38.6374 -0.676492 -4.19885 0
M  V30 374 N 36.9525 1.47285 -0.560781 0
M  V30 375 C 38.2015 2.01668 -0.035895 0
M  V30 376 C 38.5145 1.44021 1.32353 0
M  V30 377 O 39.7205 1.90088 1.93853 0
M  V30 378 C 38.1765 3.59897 -0.0136659 0
M  V30 379 C 37.7845 4.26536 -1.37006 0
M  V30 380 C 39.5285 4.22017 0.458425 0
M  V30 381 C 37.4355 5.76782 -1.30675 0
M  V30 382 H 36.3655 0.753938 -0.00964879 0
M  V30 383 H 39.0165 1.69243 -0.709166 0
M  V30 384 H 37.3985 3.89301 0.725325 0
M  V30 385 H 38.5725 4.0877 -2.12705 0
M  V30 386 H 36.8875 3.76419 -1.78038 0
M  V30 387 H 39.4845 5.32124 0.524247 0
M  V30 388 H 39.8275 3.89437 1.4712 0
M  V30 389 H 40.3605 3.97159 -0.225818 0
M  V30 390 H 37.0995 6.13988 -2.29564 0
M  V30 391 H 36.6195 5.96875 -0.591622 0
M  V30 392 H 38.2985 6.39063 -1.01033 0
M  V30 393 N 38.4306 0.297415 1.54768 0
M  V30 394 C 39.6796 -0.313669 1.99246 0
M  V30 395 C 39.9926 -1.55281 1.18942 0
M  V30 396 O 41.1986 -2.23825 1.5367 0
M  V30 397 C 39.6546 -0.609407 3.54703 0
M  V30 398 C 39.2626 0.611192 4.43811 0
M  V30 399 C 41.0066 -1.18188 4.07715 0
M  V30 400 C 38.9136 0.288805 5.90694 0
M  V30 401 H 37.8436 -0.120979 0.744231 0
M  V30 402 H 40.4946 0.40556 1.78962 0
M  V30 403 H 38.8766 -1.38813 3.70873 0
M  V30 404 H 40.0506 1.3875 4.39414 0
M  V30 405 H 38.3656 1.10205 4.01552 0
M  V30 406 H 40.9626 -1.43727 5.15021 0
M  V30 407 H 41.3056 -2.12299 3.58099 0
M  V30 408 H 41.8386 -0.464944 3.95074 0
M  V30 409 H 38.5776 1.19838 6.44453 0
M  V30 410 H 38.0976 -0.450305 5.98107 0
M  V30 411 H 39.7766 -0.110933 6.46905 0
M  V30 412 N 39.9087 -1.5758 0.0250728 0
M  V30 413 C 40.8717 -2.08896 -0.943139 0
M  V30 414 C 41.8717 -1.00321 -1.25668 0
M  V30 415 O 43.0617 -1.26495 -1.19769 0
M  V30 416 C 40.1937 -2.55143 -2.26086 0
M  V30 417 H 41.3867 -2.95723 -0.498775 0
M  V30 418 H 38.9397 -1.54703 -0.222888 0
M  V30 419 H 39.6747 -1.71633 -2.75159 0
M  V30 420 H 39.4597 -3.34461 -2.04641 0
M  V30 421 H 40.9497 -2.95083 -2.95492 0
M  V30 422 N 41.3868 0.248026 -1.55636 0
M  V30 423 C 42.3168 1.31079 -1.93237 0
M  V30 424 C 43.2978 1.50264 -0.797174 0
M  V30 425 O 44.4828 1.62891 -1.05737 0
M  V30 426 C 41.6128 2.66575 -2.22609 0
M  V30 427 C 40.5668 2.62087 -3.3837 0
M  V30 428 C 39.8928 4.01369 -3.53281 0
M  V30 429 C 41.1928 2.19171 -4.7409 0
M  V30 430 H 42.8868 0.998556 -2.82257 0
M  V30 431 H 40.4328 0.47891 -1.35803 0
M  V30 432 H 42.3858 3.41057 -2.47503 0
M  V30 433 H 41.1098 2.99432 -1.30414 0
M  V30 434 H 39.7688 1.90063 -3.13483 0
M  V30 435 H 39.4168 4.31489 -2.58508 0
M  V30 436 H 39.1168 3.99254 -4.31127 0
M  V30 437 H 40.6408 4.77552 -3.80495 0
M  V30 438 H 42.0548 2.83384 -4.98363 0
M  V30 439 H 40.4518 2.2817 -5.5503 0
M  V30 440 H 41.5218 1.14336 -4.71227 0
M  V30 441 N 42.8649 1.48995 0.513639 0
M  V30 442 C 44.0899 1.61792 1.29762 0
M  V30 443 C 44.5149 0.284475 1.85936 0
M  V30 444 O 43.8729 -0.746185 1.65232 0
M  V30 445 C 43.9209 2.67993 2.41272 0
M  V30 446 O 43.0249 2.26287 3.44772 0
M  V30 447 H 42.3659 0.541963 0.38363 0
M  V30 448 H 44.8959 1.95097 0.616307 0
M  V30 449 H 44.9059 2.89772 2.87221 0
M  V30 450 H 43.5809 3.64791 1.9975 0
M  V30 451 H 42.1579 2.14788 3.04829 0
M  V30 452 N 44.343 -0.763751 1.37857 0
M  V30 453 C 45.589 -1.52483 1.33704 0
M  V30 454 C 45.922 -1.94051 -0.0759612 0
M  V30 455 O 45.197 -1.64675 -1.03501 0
M  V30 456 C 45.48 -2.78441 2.28348 0
M  V30 457 C 45.333 -2.43075 3.78463 0
M  V30 458 C 46.652 -3.80415 2.21298 0
M  V30 459 H 43.771 -0.553169 0.487005 0
M  V30 460 H 46.413 -0.875562 1.68624 0
M  V30 461 H 44.563 -3.33842 1.987 0
M  V30 462 H 46.235 -1.93527 4.18742 0
M  V30 463 H 44.478 -1.75666 3.96641 0
M  V30 464 H 45.149 -3.33149 4.40132 0
M  V30 465 H 47.625 -3.34527 2.47449 0
M  V30 466 H 46.501 -4.66257 2.89647 0
M  V30 467 H 46.762 -4.25262 1.20849 0
M  V30 468 N 45.8211 -1.22559 -0.990812 0
M  V30 469 C 47.0671 -1.05297 -1.73322 0
M  V30 470 C 47.4001 0.410655 -1.89808 0
M  V30 471 O 46.6751 1.30439 -1.44277 0
M  V30 472 C 46.9581 -1.76713 -3.13759 0
M  V30 473 C 46.8111 -3.30684 -3.04907 0
M  V30 474 C 48.1301 -1.52121 -4.12974 0
M  V30 475 H 45.2491 -0.38392 -0.629106 0
M  V30 476 H 47.8911 -1.50926 -1.15418 0
M  V30 477 H 46.0411 -1.37924 -3.63193 0
M  V30 478 H 47.7131 -3.7893 -2.63077 0
M  V30 479 H 45.9561 -3.60253 -2.41661 0
M  V30 480 H 46.6271 -3.75833 -4.04294 0
M  V30 481 H 49.1031 -1.85819 -3.72304 0
M  V30 482 H 47.9791 -2.04582 -5.0935 0
M  V30 483 H 48.2401 -0.454257 -4.3976 0
M  V30 484 N 47.2992 1.18797 -1.03562 0
M  V30 485 C 48.5292 1.92319 -0.754773 0
M  V30 486 C 48.9372 1.7612 0.691248 0
M  V30 487 O 48.2802 1.08491 1.48241 0
M  V30 488 C 48.3422 3.44284 -1.03484 0
M  V30 489 C 48.0062 3.84258 -2.47376 0
M  V30 490 C 49.0032 3.88459 -3.45537 0
M  V30 491 C 46.6882 4.15701 -2.81954 0
M  V30 492 C 48.6822 4.23545 -4.76328 0
M  V30 493 C 46.3692 4.50458 -4.12954 0
M  V30 494 C 47.3672 4.54356 -5.09951 0
M  V30 495 O 47.0552 4.88305 -6.38603 0
M  V30 496 H 46.7872 0.617527 -0.275021 0
M  V30 497 H 49.3412 1.51683 -1.38497 0
M  V30 498 H 47.5712 3.85135 -0.347513 0
M  V30 499 H 49.2602 3.99049 -0.7426 0
M  V30 500 H 50.0262 3.6431 -3.20162 0
M  V30 501 H 45.9052 4.11847 -2.0713 0
M  V30 502 H 49.4492 4.26502 -5.52035 0
M  V30 503 H 45.3462 4.74067 -4.38099 0
M  V30 504 H 46.1142 5.06227 -6.43177 0
M  V30 505 N 48.7773 0.814389 1.34928 0
M  V30 506 C 50.0023 0.410097 2.03305 0
M  V30 507 C 50.4273 -0.973464 1.60951 0
M  V30 508 O 49.7853 -1.63185 0.789964 0
M  V30 509 C 49.8333 0.51049 3.56968 0
M  V30 510 O 48.9373 -0.473035 4.09678 0
M  V30 511 H 48.2783 0.170088 0.641846 0
M  V30 512 H 50.8083 1.10244 1.72358 0
M  V30 513 H 50.8183 0.383135 4.06197 0
M  V30 514 H 49.4933 1.51963 3.87144 0
M  V30 515 H 48.0703 -0.305272 3.71648 0
M  V30 516 N 50.2554 -1.46986 0.568584 0
M  V30 517 C 51.1874 -2.28233 -0.210337 0
M  V30 518 C 52.2004 -1.37682 -0.868767 0
M  V30 519 O 53.3894 -1.62406 -0.740705 0
M  V30 520 C 50.4894 -3.12293 -1.3163 0
M  V30 521 C 49.6624 -4.30878 -0.7525 0
M  V30 522 C 48.7214 -4.96445 -1.74439 0
M  V30 523 O 47.7474 -5.54482 -1.286 0
M  V30 524 N 48.9494 -4.92171 -3.07812 0
M  V30 525 H 51.7144 -2.95723 0.486648 0
M  V30 526 H 49.2754 -1.56742 0.405409 0
M  V30 527 H 51.2674 -3.53022 -1.97883 0
M  V30 528 H 49.8374 -2.46971 -1.91636 0
M  V30 529 H 49.0574 -3.94104 0.0871128 0
M  V30 530 H 50.3454 -5.07558 -0.35536 0
M  V30 531 H 49.7434 -4.46239 -3.47688 0
M  V30 532 H 48.3004 -5.36884 -3.69592 0
M  V30 533 N 51.7335 -0.305618 -1.54608 0
M  V30 534 C 52.6435 0.57778 -2.27374 0
M  V30 535 C 53.6595 1.14451 -1.31061 0
M  V30 536 O 54.8355 1.16831 -1.6405 0
M  V30 537 C 51.9005 1.73123 -3.00382 0
M  V30 538 C 50.9615 1.19812 -4.12242 0
M  V30 539 C 50.1945 2.2966 -4.81759 0
M  V30 540 O 50.4175 3.49651 -4.50666 0
M  V30 541 O 49.3515 1.96091 -5.69062 0
M  V30 542 H 53.1775 -0.012624 -3.03697 0
M  V30 543 H 50.7625 -0.0719184 -1.49227 0
M  V30 544 H 52.6445 2.40315 -3.4616 0
M  V30 545 H 51.3195 2.30815 -2.26949 0
M  V30 546 H 50.2265 0.491798 -3.70853 0
M  V30 547 H 51.5595 0.666566 -4.87666 0
M  V30 548 N 53.2116 1.57565 -0.0334293 0
M  V30 549 C 54.1586 2.10478 0.946981 0
M  V30 550 C 55.1286 1.00787 1.32027 0
M  V30 551 O 56.3136 1.28232 1.41284 0
M  V30 552 C 53.4536 2.63994 2.22263 0
M  V30 553 C 52.5666 3.87709 1.90541 0
M  V30 554 C 51.7016 4.29604 3.12433 0
M  V30 555 C 50.7406 5.46065 2.76549 0
M  V30 556 N 49.8776 5.83096 3.9108 0
M  V30 557 H 54.7176 2.93963 0.488846 0
M  V30 558 H 52.2546 1.45296 0.22969 0
M  V30 559 H 54.2126 2.93114 2.96884 0
M  V30 560 H 52.8426 1.83333 2.65685 0
M  V30 561 H 51.8946 3.65291 1.06144 0
M  V30 562 H 53.2066 4.72403 1.60116 0
M  V30 563 H 52.3606 4.60182 3.9537 0
M  V30 564 H 51.0996 3.43685 3.46023 0
M  V30 565 H 50.1046 5.15176 1.92026 0
M  V30 566 H 51.3296 6.33685 2.44171 0
M  V30 567 H 49.2756 5.00132 4.24504 0
M  V30 568 H 49.1926 6.6244 3.64293 0
M  V30 569 H 50.4606 6.18282 4.74708 0
M  V30 570 N 54.6897 -0.239769 1.55765 0
M  V30 571 C 55.6377 -1.31668 1.91745 0
M  V30 572 C 56.6317 -1.49462 0.797338 0
M  V30 573 O 57.8377 -1.50852 0.982021 0
M  V30 574 H 54.2127 -0.441048 0.609082 0
M  V30 575 H 56.1837 -0.985923 2.81642 0
M  V30 576 C 54.9327 -2.66368 2.2348 0
M  V30 577 H 54.2557 -2.53478 3.09175 0
M  V30 578 H 55.6957 -3.40578 2.52553 0
M  V30 579 C 54.1547 -3.20002 1.05359 0
M  V30 580 O 54.6847 -4.00538 0.305261 0
M  V30 581 N 52.8907 -2.78126 0.842292 0
M  V30 582 H 52.4377 -2.12742 1.45253 0
M  V30 583 H 52.3957 -3.14354 0.053652 0
M  V30 584 N 56.1678 -1.49265 -0.50573 0
M  V30 585 C 57.1148 -1.65585 -1.6078 0
M  V30 586 C 58.0848 -0.497396 -1.58478 0
M  V30 587 O 59.2698 -0.72385 -1.76536 0
M  V30 588 C 56.4098 -1.72408 -2.98948 0
M  V30 589 C 55.5228 -2.99525 -3.11301 0
M  V30 590 C 54.6578 -2.97356 -4.40174 0
M  V30 591 C 53.6968 -4.19074 -4.46143 0
M  V30 592 N 52.8338 -4.14841 -5.66437 0
M  V30 593 H 57.6738 -2.59688 -1.46172 0
M  V30 594 H 55.2108 -1.28761 -0.711261 0
M  V30 595 H 57.1688 -1.74344 -3.79025 0
M  V30 596 H 55.7988 -0.817753 -3.1227 0
M  V30 597 H 54.8508 -3.07222 -2.24318 0
M  V30 598 H 56.1628 -3.89518 -3.11572 0
M  V30 599 H 55.3168 -2.97829 -5.28567 0
M  V30 600 H 54.0558 -2.05133 -4.42461 0
M  V30 601 H 53.0608 -4.1885 -3.56153 0
M  V30 602 H 54.2858 -5.12483 -4.45575 0
M  V30 603 H 52.2318 -3.25453 -5.69575 0
M  V30 604 H 52.1488 -4.98564 -5.68304 0
M  V30 605 H 53.4168 -4.1941 -6.57051 0
M  V30 606 N 57.6459 0.756429 -1.3826 0
M  V30 607 C 58.5939 1.89149 -1.35372 0
M  V30 608 C 59.5879 1.67691 -0.24004 0
M  V30 609 O 60.7939 1.75294 -0.408919 0
M  V30 610 H 57.1689 0.622271 -0.422236 0
M  V30 611 H 59.1399 1.88701 -2.31159 0
M  V30 612 C 57.8889 3.26599 -1.19284 0
M  V30 613 H 57.2119 3.43695 -2.0424 0
M  V30 614 H 58.6519 4.06274 -1.21316 0
M  V30 615 C 57.1109 3.3675 0.100454 0
M  V30 616 O 57.6409 3.86951 1.07851 0
M  V30 617 N 55.8469 2.90179 0.15633 0
M  V30 618 H 55.3939 2.49517 -0.640253 0
M  V30 619 H 55.3519 2.97352 1.02123 0
M  V30 620 N 59.124 1.23083 0.984299 0
M  V30 621 C 60.087 1.00979 2.05757 0
M  V30 622 C 61.087 -0.0269573 1.60777 0
M  V30 623 O 62.277 0.212403 1.729 0
M  V30 624 C 59.409 0.527072 3.36801 0
M  V30 625 H 60.602 1.9622 2.26799 0
M  V30 626 H 58.155 1.05072 1.15714 0
M  V30 627 H 58.89 -0.429294 3.21446 0
M  V30 628 H 58.675 1.27515 3.70786 0
M  V30 629 H 60.165 0.392942 4.15747 0
M  V30 630 N 60.6021 -1.18246 1.0419 0
M  V30 631 C 61.5501 -2.23968 0.627792 0
M  V30 632 C 62.5441 -1.65828 -0.346019 0
M  V30 633 O 63.7501 -1.78733 -0.213175 0
M  V30 634 H 60.1251 -0.728939 0.184802 0
M  V30 635 H 62.0961 -2.56202 1.52981 0
M  V30 636 C 60.8451 -3.47699 0.00796591 0
M  V30 637 H 60.1681 -3.92734 0.748347 0
M  V30 638 H 61.6081 -4.23294 -0.24455 0
M  V30 639 C 60.0671 -3.13153 -1.24246 0
M  V30 640 O 60.5971 -3.27003 -2.33307 0
M  V30 641 N 58.8031 -2.67467 -1.13622 0
M  V30 642 H 58.3501 -2.56396 -0.248734 0
M  V30 643 H 58.3081 -2.44724 -1.97377 0
M  V30 644 N 62.0802 -0.821533 -1.34494 0
M  V30 645 C 63.3052 -0.420873 -2.03085 0
M  V30 646 C 63.7302 0.964915 -1.61465 0
M  V30 647 O 63.0882 1.62763 -0.798607 0
M  V30 648 C 63.1362 -0.529414 -3.56693 0
M  V30 649 O 62.2402 0.451302 -4.09923 0
M  V30 650 H 61.5812 -0.173489 -0.640935 0
M  V30 651 H 64.1112 -1.11157 -1.71771 0
M  V30 652 H 64.1212 -0.404671 -4.05988 0
M  V30 653 H 62.7962 -1.54014 -3.86332 0
M  V30 654 H 61.3732 0.285558 -3.71805 0
M  V30 655 N 63.5583 1.46682 -0.576371 0
M  V30 656 C 64.7833 2.07304 -0.0630475 0
M  V30 657 C 65.2083 1.42329 1.2298 0
M  V30 658 O 64.5663 0.504865 1.74129 0
M  V30 659 C 64.6143 3.60472 0.095895 0
M  V30 660 O 63.7183 3.95927 1.15394 0
M  V30 661 H 63.0593 0.661288 -0.0599463 0
M  V30 662 H 65.5893 1.88417 -0.797511 0
M  V30 663 H 65.5993 4.06865 0.304071 0
M  V30 664 H 64.2743 4.07157 -0.84828 0
M  V30 665 H 62.8513 3.61252 0.924724 0
M  V30 666 N 65.0364 0.313813 1.54444 0
M  V30 667 C 66.4474 -0.176243 1.85866 0
M  V30 668 C 66.7984 -1.52405 1.23561 0
M  V30 669 O 65.9234 -2.09605 0.538016 0
M  V30 670 C 66.5184 -0.32657 3.37222 0
M  V30 671 C 65.0774 -0.760846 3.6863 0
M  V30 672 C 64.2244 0.123247 2.77026 0
M  V30 673 H 67.1754 0.534418 1.49431 0
M  V30 674 H 67.1964 -1.15908 3.62416 0
M  V30 675 H 66.7084 0.654531 3.82541 0
M  V30 676 H 64.8094 -1.75204 3.28838 0
M  V30 677 H 64.9224 -0.571353 4.75681 0
M  V30 678 H 63.2864 -0.399597 2.51546 0
M  V30 679 H 64.0694 1.10094 3.25168 0
M  V30 680 N 66.5145 -1.57545 0.0417849 0
M  V30 681 C 67.7605 -1.92601 -0.635021 0
M  V30 682 C 68.0935 -0.919627 -1.71045 0
M  V30 683 O 67.3685 0.0557892 -1.9442 0
M  V30 684 C 67.6515 -3.38085 -1.23979 0
M  V30 685 C 67.5045 -4.49467 -0.173057 0
M  V30 686 C 68.8235 -3.83776 -2.15416 0
M  V30 687 H 65.9425 -0.700397 -0.229374 0
M  V30 688 H 68.5845 -1.89728 0.101633 0
M  V30 689 H 66.7345 -3.40664 -1.86762 0
M  V30 690 H 68.4065 -4.59018 0.458312 0
M  V30 691 H 66.6495 -4.30909 0.499996 0
M  V30 692 H 67.3205 -5.48323 -0.636054 0
M  V30 693 H 69.7965 -3.83013 -1.62605 0
M  V30 694 H 68.6725 -4.8624 -2.54679 0
M  V30 695 H 68.9335 -3.19998 -3.05047 0
M  V30 696 N 67.9926 0.231505 -1.5589 0
M  V30 697 C 68.9556 1.27028 -1.90779 0
M  V30 698 C 69.9556 1.40308 -0.785507 0
M  V30 699 O 71.1456 1.38744 -1.05336 0
M  V30 700 C 68.2776 2.64566 -2.14983 0
M  V30 701 H 69.4706 0.973017 -2.83677 0
M  V30 702 H 67.0236 0.471486 -1.49019 0
M  V30 703 H 67.7586 2.99406 -1.24604 0
M  V30 704 H 67.5436 2.56305 -2.96732 0
M  V30 705 H 69.0336 3.39543 -2.43105 0
M  V30 706 N 69.4707 1.49531 0.497807 0
M  V30 707 C 70.6957 1.63159 1.28039 0
M  V30 708 C 71.1207 0.30418 1.85624 0
M  V30 709 O 70.4787 -0.728618 1.66015 0
M  V30 710 C 70.5267 2.70537 2.38416 0
M  V30 711 O 69.6307 2.29931 3.42353 0
M  V30 712 H 68.9717 0.546001 0.377861 0
M  V30 713 H 71.5017 1.9574 0.59558 0
M  V30 714 H 71.5117 2.92802 2.84132 0
M  V30 715 H 70.1867 3.6689 1.95869 0
M  V30 716 H 68.7637 2.18009 3.02533 0
M  V30 717 N 70.9488 -0.749086 1.3866 0
M  V30 718 C 72.1768 -1.53834 1.38358 0
M  V30 719 C 72.5918 -1.88783 -0.0255219 0
M  V30 720 O 71.9488 -1.53101 -0.993292 0
M  V30 721 C 71.9998 -2.83468 2.2434 0
M  V30 722 O 71.7208 -2.50008 3.5976 0
M  V30 723 C 73.2218 -3.7758 2.32267 0
M  V30 724 H 70.4418 -0.47585 0.473083 0
M  V30 725 H 72.9858 -0.926726 1.82297 0
M  V30 726 H 71.1408 -3.40995 1.83851 0
M  V30 727 H 71.5548 -3.33182 4.05081 0
M  V30 728 H 73.0288 -4.65478 2.96706 0
M  V30 729 H 73.5058 -4.18334 1.33765 0
M  V30 730 H 74.1118 -3.25976 2.73166 0
M  V30 731 N 72.4269 -1.23603 -0.977757 0
M  V30 732 C 73.6549 -1.09646 -1.75458 0
M  V30 733 C 74.0699 0.351859 -1.85492 0
M  V30 734 O 73.4269 1.24327 -1.336 0
M  V30 735 C 73.4779 -1.71895 -3.18016 0
M  V30 736 O 73.1989 -3.11063 -3.08498 0
M  V30 737 C 74.6999 -1.63415 -4.12081 0
M  V30 738 H 71.9199 -0.38359 -0.550545 0
M  V30 739 H 74.4639 -1.63507 -1.22824 0
M  V30 740 H 72.6189 -1.22061 -3.67668 0
M  V30 741 H 73.0329 -3.41305 -3.9826 0
M  V30 742 H 74.5069 -2.11669 -5.09804 0
M  V30 743 H 74.9839 -0.593462 -4.35172 0
M  V30 744 H 75.5899 -2.12628 -3.68334 0
M  V30 745 N 73.905 1.17692 -1.04816 0
M  V30 746 C 75.316 1.69501 -0.782698 0
M  V30 747 C 75.667 1.83456 0.695577 0
M  V30 748 O 74.792 1.51942 1.54086 0
M  V30 749 C 75.387 3.07874 -1.41419 0
M  V30 750 C 73.946 3.56864 -1.19686 0
M  V30 751 C 73.093 2.3322 -1.50012 0
M  V30 752 H 76.044 1.02262 -1.2136 0
M  V30 753 H 76.065 3.71528 -0.821428 0
M  V30 754 H 75.577 2.97685 -2.49009 0
M  V30 755 H 73.678 3.72337 -0.140043 0
M  V30 756 H 73.791 4.39851 -1.89916 0
M  V30 757 H 72.155 2.37501 -0.920071 0
M  V30 758 H 72.938 2.25644 -2.58727 0
M  V30 759 N 75.3831 0.828654 1.34056 0
M  V30 760 C 76.6081 0.431637 2.02859 0
M  V30 761 C 77.0331 -0.956339 1.61975 0
M  V30 762 O 76.3911 -1.62338 0.807228 0
M  V30 763 C 76.4391 0.548323 3.56407 0
M  V30 764 O 75.5431 -0.429556 4.10157 0
M  V30 765 H 74.8841 0.176886 0.640006 0
M  V30 766 H 77.4141 1.12066 1.71179 0
M  V30 767 H 77.4241 0.426196 4.05768 0
M  V30 768 H 76.0991 1.5606 3.8551 0
M  V30 769 H 74.6761 -0.265836 3.71951 0
M  V30 770 N 76.8612 -1.46375 0.584142 0
M  V30 771 C 77.8242 -2.28784 -0.138108 0
M  V30 772 C 78.8242 -1.38471 -0.817462 0
M  V30 773 O 80.0142 -1.60833 -0.669199 0
M  V30 774 C 77.1462 -3.18892 -1.20503 0
M  V30 775 H 78.3392 -2.94117 0.586127 0
M  V30 776 H 75.8922 -1.52509 0.342171 0
M  V30 777 H 76.6272 -2.58309 -1.96079 0
M  V30 778 H 76.4122 -3.85388 -0.722384 0
M  V30 779 H 77.9022 -3.80914 -1.71155 0
M  V30 780 N 78.3393 -0.321999 -1.54275 0
M  V30 781 C 79.5643 0.285791 -2.05422 0
M  V30 782 C 79.9893 1.45124 -1.19669 0
M  V30 783 O 79.3473 1.80132 -0.205441 0
M  V30 784 C 79.3953 0.69956 -3.53749 0
M  V30 785 O 78.4993 1.8021 -3.70942 0
M  V30 786 H 77.8403 0.0518962 -0.661969 0
M  V30 787 H 80.3703 -0.469954 -1.9913 0
M  V30 788 H 80.3803 0.982649 -3.9599 0
M  V30 789 H 79.0553 -0.152864 -4.15619 0
M  V30 790 H 77.6323 1.51794 -3.40607 0
M  V30 791 N 79.8174 1.5752 -0.0501392 0
M  V30 792 C 80.7804 2.1037 0.909786 0
M  V30 793 C 81.7804 1.02308 1.24056 0
M  V30 794 O 82.9704 1.28385 1.17741 0
M  V30 795 C 80.1024 2.58708 2.21998 0
M  V30 796 H 81.2954 2.96479 0.451665 0
M  V30 797 H 78.8484 1.55038 0.198248 0
M  V30 798 H 79.5834 1.75989 2.72394 0
M  V30 799 H 79.3684 3.37675 1.99295 0
M  V30 800 H 80.8584 2.99747 2.9076 0
M  V30 801 N 81.2955 -0.223234 1.56011 0
M  V30 802 C 82.5235 -0.964812 1.83027 0
M  V30 803 C 82.9385 -1.78013 0.62904 0
M  V30 804 O 82.2955 -1.78008 -0.402414 0
M  V30 805 C 82.3465 -1.88373 3.08542 0
M  V30 806 O 82.0675 -1.10137 4.2403 0
M  V30 807 C 83.5685 -2.73934 3.48533 0
M  V30 808 H 80.7885 -0.282842 0.608475 0
M  V30 809 H 83.3325 -0.238971 2.03099 0
M  V30 810 H 81.4875 -2.56354 2.9045 0
M  V30 811 H 81.9015 -1.72501 4.95322 0
M  V30 812 H 83.3755 -3.34117 4.39397 0
M  V30 813 H 83.8525 -3.46244 2.70207 0
M  V30 814 H 84.4585 -2.11369 3.69057 0
M  V30 815 N 82.7736 -1.49793 -0.48987 0
M  V30 816 C 84.0016 -1.63568 -1.26701 0
M  V30 817 C 84.4166 -0.311465 -1.86213 0
M  V30 818 O 83.7736 0.704416 -1.68357 0
M  V30 819 C 83.8246 -2.71284 -2.38929 0
M  V30 820 O 83.5456 -3.9857 -1.81861 0
M  V30 821 C 85.0466 -2.95864 -3.3012 0
M  V30 822 H 82.2666 -0.550342 -0.383881 0
M  V30 823 H 84.8106 -1.95898 -0.586864 0
M  V30 824 H 82.9656 -2.417 -3.02753 0
M  V30 825 H 83.3796 -4.57993 -2.55622 0
M  V30 826 H 84.8536 -3.74941 -4.05121 0
M  V30 827 H 85.3306 -2.06206 -3.87783 0
M  V30 828 H 85.9366 -3.26907 -2.72051 0
M  V30 829 N 84.2517 0.741722 -1.39055 0
M  V30 830 C 85.1997 1.87702 -1.3737 0
M  V30 831 C 86.1937 1.67427 -0.257812 0
M  V30 832 O 87.3997 1.7485 -0.427489 0
M  V30 833 H 83.7747 0.617757 -0.428812 0
M  V30 834 H 85.7457 1.86239 -2.33147 0
M  V30 835 C 84.4947 3.25315 -1.22741 0
M  V30 836 H 83.8177 3.41509 -2.07873 0
M  V30 837 H 85.2577 4.04964 -1.25618 0
M  V30 838 C 83.7167 3.36838 0.0647316 0
M  V30 839 O 84.2467 3.88073 1.03741 0
M  V30 840 N 82.4527 2.90329 0.125544 0
M  V30 841 H 81.9997 2.48823 -0.666682 0
M  V30 842 H 81.9577 2.98418 0.989639 0
M  V30 843 N 85.7298 1.2412 0.971189 0
M  V30 844 C 87.1408 1.07236 1.52831 0
M  V30 845 C 87.4918 -0.357352 1.92918 0
M  V30 846 O 86.6168 -1.24528 1.76979 0
M  V30 847 C 87.2118 1.94043 2.77728 0
M  V30 848 C 85.7708 1.81394 3.29808 0
M  V30 849 C 84.9178 1.89189 2.02738 0
M  V30 850 H 87.8688 1.37648 0.789864 0
M  V30 851 H 87.8898 1.47066 3.5093 0
M  V30 852 H 87.4018 2.98093 2.4852 0
M  V30 853 H 85.5028 0.801634 3.63874 0
M  V30 854 H 85.6158 2.65294 3.98944 0
M  V30 855 H 83.9798 1.32877 2.17292 0
M  V30 856 H 84.7628 2.94812 1.759 0
M  V30 857 N 87.2079 -1.17134 1.05439 0
M  V30 858 C 88.1709 -2.19439 0.661764 0
M  V30 859 C 89.1709 -1.58199 -0.288042 0
M  V30 860 O 90.3609 -1.74053 -0.0715803 0
M  V30 861 C 87.4929 -3.40889 -0.0276209 0
M  V30 862 H 88.6859 -2.55688 1.56728 0
M  V30 863 H 86.2389 -1.31259 0.848567 0
M  V30 864 H 86.9739 -3.10187 -0.94629 0
M  V30 865 H 86.7589 -3.86586 0.655238 0
M  V30 866 H 88.2489 -4.16603 -0.288342 0
M  V30 867 N 88.686 -0.835752 -1.33615 0
M  V30 868 C 89.911 -0.442389 -2.02627 0
M  V30 869 C 90.336 0.947735 -1.62479 0
M  V30 870 O 89.694 1.61907 -0.815826 0
M  V30 871 C 89.742 -0.567216 -3.56111 0
M  V30 872 O 88.846 0.407799 -4.10379 0
M  V30 873 H 88.187 -0.180278 -0.639059 0
M  V30 874 H 90.717 -1.12972 -1.70583 0
M  V30 875 H 90.727 -0.447708 -4.05536 0
M  V30 876 H 89.402 -1.58103 -3.84677 0
M  V30 877 H 87.979 0.246107 -3.72087 0
M  V30 878 N 90.1641 1.46063 -0.591896 0
M  V30 879 C 91.1271 2.28854 0.125973 0
M  V30 880 C 92.1271 1.38903 0.810107 0
M  V30 881 O 93.3171 1.61186 0.66066 0
M  V30 882 C 90.4491 3.19526 1.1881 0
M  V30 883 H 91.6421 2.93802 -0.601717 0
M  V30 884 H 89.1951 1.52325 -0.350254 0
M  V30 885 H 89.9301 2.59345 1.94707 0
M  V30 886 H 89.7151 3.85766 0.701936 0
M  V30 887 H 91.2051 3.81817 1.69132 0
M  V30 888 N 91.6422 0.330177 1.54103 0
M  V30 889 C 92.8702 -0.272179 2.05102 0
M  V30 890 C 93.2852 -1.45267 1.20595 0
M  V30 891 O 92.6422 -1.8094 0.238144 0
M  V30 892 C 92.6932 -0.70023 3.54653 0
M  V30 893 O 92.4142 0.433301 4.35952 0
M  V30 894 C 93.9152 -1.3647 4.21771 0
M  V30 895 H 91.1352 -0.0549159 0.668749 0
M  V30 896 H 93.6792 0.478285 1.98828 0
M  V30 897 H 91.8342 -1.40066 3.61193 0
M  V30 898 H 92.2482 0.0947539 5.24414 0
M  V30 899 H 93.7222 -1.61509 5.27843 0
M  V30 900 H 94.1992 -2.31409 3.73292 0
M  V30 901 H 94.8052 -0.706675 4.19388 0
M  V30 902 N 93.1203 -1.57491 0.0584922 0
M  V30 903 C 94.3483 -1.97296 -0.623037 0
M  V30 904 C 94.7633 -0.936338 -1.63946 0
M  V30 905 O 94.1203 0.0785981 -1.82331 0
M  V30 906 C 94.1713 -3.37183 -1.30345 0
M  V30 907 O 93.8923 -4.36872 -0.32773 0
M  V30 908 C 95.3933 -3.91788 -2.07406 0
M  V30 909 H 92.6133 -0.649153 -0.169826 0
M  V30 910 H 95.1573 -2.04106 0.12696 0
M  V30 911 H 93.3123 -3.31502 -2.00463 0
M  V30 912 H 93.7263 -5.18141 -0.814269 0
M  V30 913 H 95.2003 -4.91926 -2.50425 0
M  V30 914 H 95.6773 -3.27609 -2.92521 0
M  V30 915 H 96.2833 -4.00829 -1.42184 0
M  V30 916 N 94.5984 0.214957 -1.56127 0
M  V30 917 C 95.5284 1.2695 -1.95974 0
M  V30 918 C 96.5094 1.48539 -0.828868 0
M  V30 919 O 97.6944 1.60611 -1.09168 0
M  V30 920 C 94.8244 2.61794 -2.28214 0
M  V30 921 C 93.7784 2.54851 -3.43853 0
M  V30 922 C 93.1044 3.93785 -3.61715 0
M  V30 923 C 94.4044 2.09065 -4.78632 0
M  V30 924 H 96.0984 0.93846 -2.84312 0
M  V30 925 H 93.6444 0.449996 -1.36788 0
M  V30 926 H 95.5974 3.35731 -2.54682 0
M  V30 927 H 94.3214 2.96599 -1.36736 0
M  V30 928 H 92.9804 1.8337 -3.17444 0
M  V30 929 H 92.6284 4.25908 -2.67602 0
M  V30 930 H 92.3284 3.90019 -4.39498 0
M  V30 931 H 93.8524 4.69374 -3.90539 0
M  V30 932 H 95.2664 2.7275 -5.04262 0
M  V30 933 H 93.6634 2.16346 -5.59745 0
M  V30 934 H 94.7334 1.04315 -4.73547 0
M  V30 935 N 96.0765 1.50051 0.48192 0
M  V30 936 C 97.3535 1.51009 1.2432 0
M  V30 937 C 97.7335 0.248587 2.09631 0
M  V30 938 O 97.0815 -0.768409 2.15192 0
M  V30 939 C 97.2915 2.79981 2.08355 0
M  V30 940 C 98.6395 3.3022 2.66908 0
M  V30 941 O 99.6635 2.81228 2.18607 0
M  V30 942 O 98.5225 4.15595 3.54884 0
M  V30 943 H 95.6165 0.605239 0.563573 0
M  V30 944 H 98.1625 1.62332 0.494627 0
M  V30 945 H 96.9345 3.63275 1.45419 0
M  V30 946 H 96.5575 2.7161 2.90368 0
M  V30 947 N 97.5546 -0.734337 1.39446 0
M  V30 948 C 98.4866 -1.85861 1.34121 0
M  V30 949 C 99.4996 -1.60871 0.249864 0
M  V30 950 O 100.689 -1.71093 0.508865 0
M  V30 951 C 97.7886 -3.21899 1.05991 0
M  V30 952 C 96.9616 -3.74239 2.26415 0
M  V30 953 C 96.0206 -4.88841 1.94733 0
M  V30 954 O 95.0466 -5.02468 2.67422 0
M  V30 955 N 96.2486 -5.73261 0.913884 0
M  V30 956 H 99.0136 -1.90934 2.31007 0
M  V30 957 H 96.5746 -0.915102 1.33557 0
M  V30 958 H 98.5666 -3.96136 0.828147 0
M  V30 959 H 97.1366 -3.12091 0.178361 0
M  V30 960 H 96.3566 -2.91347 2.65539 0
M  V30 961 H 97.6446 -4.05942 3.06738 0
M  V30 962 H 97.0426 -5.64842 0.311476 0
M  V30 963 H 95.5996 -6.47563 0.742015 0
M  V30 964 N 99.0327 -1.24633 -0.964593 0
M  V30 965 C 100.258 -1.11596 -1.74818 0
M  V30 966 C 100.683 0.32723 -1.85232 0
M  V30 967 O 100.041 1.23695 -1.32549 0
M  V30 968 C 100.089 -1.76397 -3.1451 0
M  V30 969 O 99.1927 -1.03685 -3.99153 0
M  V30 970 H 98.5337 -0.390196 -0.537255 0
M  V30 971 H 101.064 -1.65002 -1.20977 0
M  V30 972 H 101.074 -1.8228 -3.65018 0
M  V30 973 H 99.7487 -2.81401 -3.06246 0
M  V30 974 H 98.3257 -1.05611 -3.57632 0
M  V30 975 N 100.511 1.16574 -1.06058 0
M  V30 976 C 101.458 2.20883 -0.669263 0
M  V30 977 C 102.428 1.62729 0.332918 0
M  V30 978 O 103.613 1.895 0.222346 0
M  V30 979 C 100.753 3.45049 -0.0593572 0
M  V30 980 C 99.8658 4.17458 -1.11143 0
M  V30 981 C 99.0008 5.29135 -0.467916 0
M  V30 982 C 98.0398 5.93343 -1.50369 0
M  V30 983 N 97.1768 6.96516 -0.883706 0
M  V30 984 H 102.017 2.53709 -1.5632 0
M  V30 985 H 99.5538 1.24616 -0.781625 0
M  V30 986 H 101.512 4.16033 0.311771 0
M  V30 987 H 100.142 3.12781 0.797992 0
M  V30 988 H 99.1938 3.45101 -1.60029 0
M  V30 989 H 100.506 4.61307 -1.89731 0
M  V30 990 H 99.6598 6.06684 -0.0436871 0
M  V30 991 H 98.3988 4.86443 0.349864 0
M  V30 992 H 97.4038 5.14517 -1.93784 0
M  V30 993 H 98.6288 6.38114 -2.32352 0
M  V30 994 H 96.5748 6.55943 -0.086595 0
M  V30 995 H 96.4918 7.38723 -1.607 0
M  V30 996 H 97.7598 7.77993 -0.484543 0
M  V30 997 N 101.989 0.842826 1.3317 0
M  V30 998 C 102.952 0.284065 2.27433 0
M  V30 999 C 103.952 -0.54948 1.5112 0
M  V30 1000 O 105.142 -0.362699 1.70382 0
M  V30 1001 C 102.274 -0.599384 3.35589 0
M  V30 1002 H 103.467 1.11589 2.78366 0
M  V30 1003 H 101.02 0.616221 1.4364 0
M  V30 1004 H 101.755 -1.45349 2.89904 0
M  V30 1005 H 101.54 -0.00291266 3.921 0
M  V30 1006 H 103.03 -0.983488 4.05854 0
M  V30 1007 N 103.467 -1.45747 0.599634 0
M  V30 1008 C 104.713 -2.03153 0.100263 0
M  V30 1009 C 105.068 -1.46073 -1.25221 0
M  V30 1010 O 104.361 -0.622878 -1.81193 0
M  V30 1011 C 104.555 -3.57399 -0.00602758 0
M  V30 1012 C 104.384 -4.2944 1.3346 0
M  V30 1013 C 103.154 -4.6768 1.91321 0
M  V30 1014 C 105.352 -4.61905 2.2616 0
M  V30 1015 N 103.334 -5.24544 3.18946 0
M  V30 1016 C 104.705 -5.19518 3.3838 0
M  V30 1017 C 106.76 -4.43841 2.25631 0
M  V30 1018 C 105.463 -5.60972 4.50226 0
M  V30 1019 C 107.489 -4.86322 3.36518 0
M  V30 1020 C 106.851 -5.44021 4.4746 0
M  V30 1021 H 102.95 -0.777911 0.0798696 0
M  V30 1022 H 105.534 -1.77674 0.796244 0
M  V30 1023 H 103.705 -3.82556 -0.671212 0
M  V30 1024 H 105.437 -4.01457 -0.51133 0
M  V30 1025 H 102.192 -4.5098 1.44617 0
M  V30 1026 H 102.616 -5.57483 3.84112 0
M  V30 1027 H 107.258 -3.98552 1.41123 0
M  V30 1028 H 104.976 -6.0523 5.35464 0
M  V30 1029 H 108.562 -4.74084 3.37247 0
M  V30 1030 H 107.442 -5.76289 5.31846 0
M  V30 1031 N 104.945 -0.338344 -1.53925 0
M  V30 1032 C 105.893 0.536231 -2.26335 0
M  V30 1033 C 106.887 1.1063 -1.28286 0
M  V30 1034 O 108.093 1.05264 -1.46012 0
M  V30 1035 H 104.468 0.191602 -0.727181 0
M  V30 1036 H 106.439 -0.0965747 -2.98244 0
M  V30 1037 C 105.188 1.67803 -3.04528 0
M  V30 1038 H 104.511 1.24864 -3.79801 0
M  V30 1039 H 105.951 2.26526 -3.58416 0
M  V30 1040 C 104.41 2.60439 -2.13712 0
M  V30 1041 O 104.94 3.6255 -1.72975 0
M  V30 1042 N 103.146 2.29006 -1.78898 0
M  V30 1043 H 102.693 1.46011 -2.12223 0
M  V30 1044 H 102.651 2.91248 -1.18416 0
M  V30 1045 N 106.423 1.57458 -0.0668435 0
M  V30 1046 C 107.839 1.56947 0.289772 0
M  V30 1047 C 108.039 1.07584 1.70376 0
M  V30 1048 O 107.095 0.739486 2.41429 0
M  V30 1049 C 108.408 3.0052 0.103943 0
M  V30 1050 C 109.956 3.12517 0.173857 0
M  V30 1051 C 110.431 4.57997 0.0163682 0
M  V30 1052 N 111.922 4.63144 0.0721352 0
M  V30 1053 C 112.657 5.73394 -0.0253794 0
M  V30 1054 N 112.153 6.92576 -0.176133 0
M  V30 1055 N 113.946 5.62091 0.0313305 0
M  V30 1056 H 106.097 1.87863 -0.991027 0
M  V30 1057 H 108.36 0.86583 -0.38606 0
M  V30 1058 H 108.066 3.40729 -0.871572 0
M  V30 1059 H 107.94 3.67304 0.858366 0
M  V30 1060 H 110.327 2.72197 1.13985 0
M  V30 1061 H 110.408 2.48381 -0.611586 0
M  V30 1062 H 110.052 4.99005 -0.946374 0
M  V30 1063 H 109.982 5.20158 0.821153 0
M  V30 1064 H 112.473 3.77436 0.187263 0
M  V30 1065 H 112.786 7.72418 -0.242821 0
M  V30 1066 H 111.131 6.94678 -0.211429 0
M  V30 1067 H 114.322 4.67867 0.147773 0
M  V30 1068 H 114.495 6.47982 -0.048121 0
M  V30 1069 N 107.901 -0.206675 1.56239 0
M  V30 1070 C 109.131 -0.943975 1.83773 0
M  V30 1071 C 109.539 -1.77841 0.645703 0
M  V30 1072 O 108.882 -1.79403 -0.395008 0
M  V30 1073 C 108.944 -1.899 3.05251 0
M  V30 1074 C 108.608 -1.24764 4.39639 0
M  V30 1075 C 109.605 -0.630216 5.16066 0
M  V30 1076 C 107.29 -1.25496 4.8637 0
M  V30 1077 C 109.284 -0.0287946 6.37393 0
M  V30 1078 C 106.971 -0.649698 6.07637 0
M  V30 1079 C 107.969 -0.0376845 6.8299 0
M  V30 1080 O 107.657 0.55812 8.0196 0
M  V30 1081 H 107.389 -0.281508 0.614597 0
M  V30 1082 H 109.943 -0.222458 2.04192 0
M  V30 1083 H 108.173 -2.6599 2.80689 0
M  V30 1084 H 109.862 -2.5031 3.1953 0
M  V30 1085 H 110.628 -0.616785 4.81062 0
M  V30 1086 H 106.507 -1.72072 4.27683 0
M  V30 1087 H 110.051 0.449518 6.9615 0
M  V30 1088 H 105.948 -0.660592 6.42111 0
M  V30 1089 H 106.716 0.453891 8.17241 0
M  V30 1090 N 109.379 -1.50304 -0.473955 0
M  V30 1091 C 110.795 -1.37667 -0.807466 0
M  V30 1092 C 110.995 -0.430555 -1.96846 0
M  V30 1093 O 110.051 0.127874 -2.52176 0
M  V30 1094 C 111.364 -2.78974 -1.12223 0
M  V30 1095 C 112.912 -2.87868 -1.22885 0
M  V30 1096 C 113.387 -4.30003 -1.57676 0
M  V30 1097 N 114.878 -4.3294 -1.64673 0
M  V30 1098 C 115.613 -5.3991 -1.93091 0
M  V30 1099 N 115.109 -6.57092 -2.1955 0
M  V30 1100 N 116.902 -5.27351 -1.94569 0
M  V30 1101 H 109.053 -2.10394 0.291212 0
M  V30 1102 H 111.316 -0.945575 0.0677609 0
M  V30 1103 H 111.022 -3.50031 -0.342229 0
M  V30 1104 H 110.896 -3.16038 -2.05913 0
M  V30 1105 H 113.283 -2.17032 -1.99953 0
M  V30 1106 H 113.364 -2.54352 -0.271814 0
M  V30 1107 H 113.008 -5.01375 -0.81149 0
M  V30 1108 H 112.938 -4.61004 -2.54525 0
M  V30 1109 H 115.429 -3.48441 -1.46277 0
M  V30 1110 H 115.742 -7.34425 -2.405 0
M  V30 1111 H 114.087 -6.60272 -2.16948 0
M  V30 1112 H 117.278 -4.34801 -1.73394 0
M  V30 1113 H 117.451 -6.10805 -2.16381 0
M  V30 1114 N 110.857 0.726932 -1.39834 0
M  V30 1115 C 111.787 1.85405 -1.41941 0
M  V30 1116 C 112.768 1.67751 -0.281728 0
M  V30 1117 O 113.953 1.8795 -0.488717 0
M  V30 1118 C 111.083 3.23243 -1.2701 0
M  V30 1119 C 110.037 3.55549 -2.38262 0
M  V30 1120 C 109.363 4.9241 -2.08415 0
M  V30 1121 C 110.663 3.577 -3.80589 0
M  V30 1122 H 112.357 1.83899 -2.36266 0
M  V30 1123 H 109.903 0.883349 -1.13723 0
M  V30 1124 H 111.856 4.01775 -1.27103 0
M  V30 1125 H 110.58 3.25296 -0.291564 0
M  V30 1126 H 109.239 2.79351 -2.37399 0
M  V30 1127 H 108.887 4.91052 -1.0898 0
M  V30 1128 H 108.587 5.14992 -2.82943 0
M  V30 1129 H 110.111 5.73289 -2.10171 0
M  V30 1130 H 111.525 4.26293 -3.83337 0
M  V30 1131 H 109.922 3.91804 -4.54543 0
M  V30 1132 H 110.992 2.57328 -4.10987 0
M  V30 1133 N 112.336 1.25143 0.95797 0
M  V30 1134 C 113.747 1.08851 1.51685 0
M  V30 1135 C 114.098 -0.33687 1.93286 0
M  V30 1136 O 113.223 -1.22644 1.7829 0
M  V30 1137 C 113.818 1.96978 2.75654 0
M  V30 1138 C 112.377 1.84881 3.27866 0
M  V30 1139 C 111.524 1.91329 2.0072 0
M  V30 1140 H 114.475 1.38478 0.77522 0
M  V30 1141 H 114.496 1.5078 3.4935 0
M  V30 1142 H 114.008 3.00712 2.45345 0
M  V30 1143 H 112.109 0.840182 3.63004 0
M  V30 1144 H 112.222 2.6951 3.96107 0
M  V30 1145 H 110.586 1.35174 2.15871 0
M  V30 1146 H 111.369 2.96661 1.72764 0
M  V30 1147 N 113.814 -1.1601 1.06675 0
M  V30 1148 C 114.762 -2.22586 0.675157 0
M  V30 1149 C 115.756 -1.66525 -0.310766 0
M  V30 1150 O 116.962 -1.79145 -0.175215 0
M  V30 1151 H 113.337 -0.724855 0.200223 0
M  V30 1152 H 115.308 -2.52899 1.58381 0
M  V30 1153 C 114.057 -3.47604 0.0817162 0
M  V30 1154 H 113.38 -3.91058 0.831484 0
M  V30 1155 H 114.82 -4.23718 -0.154708 0
M  V30 1156 C 113.279 -3.15718 -1.17576 0
M  V30 1157 O 113.809 -3.31878 -2.26318 0
M  V30 1158 N 112.015 -2.69816 -1.07923 0
M  V30 1159 H 111.562 -2.56866 -0.194293 0
M  V30 1160 H 111.52 -2.48855 -1.92141 0
M  V30 1161 N 115.292 -0.849877 -1.32721 0
M  V30 1162 C 116.52 -0.464754 -2.01613 0
M  V30 1163 C 116.935 0.937191 -1.63897 0
M  V30 1164 O 116.292 1.61081 -0.857856 0
M  V30 1165 C 116.343 -0.588638 -3.56675 0
M  V30 1166 O 116.064 -1.93535 -3.93034 0
M  V30 1167 C 117.565 -0.2019 -4.4284 0
M  V30 1168 H 114.785 -0.183215 -0.645502 0
M  V30 1169 H 117.329 -1.1455 -1.69407 0
M  V30 1170 H 115.484 0.0443159 -3.87375 0
M  V30 1171 H 115.898 -1.92871 -4.87751 0
M  V30 1172 H 117.372 -0.339599 -5.50954 0
M  V30 1173 H 117.849 0.857224 -4.30753 0
M  V30 1174 H 118.455 -0.809733 -4.17521 0
M  V30 1175 N 116.77 1.45427 -0.607355 0
M  V30 1176 C 117.7 2.3329 0.0989352 0
M  V30 1177 C 118.681 1.46816 0.859007 0
M  V30 1178 O 119.866 1.75588 0.829604 0
M  V30 1179 C 116.996 3.29518 1.09705 0
M  V30 1180 C 115.95 4.25626 0.450206 0
M  V30 1181 C 115.276 5.11542 1.55655 0
M  V30 1182 C 116.576 5.18505 -0.628455 0
M  V30 1183 H 118.27 2.92595 -0.634716 0
M  V30 1184 H 115.816 1.40696 -0.306681 0
M  V30 1185 H 117.769 3.89855 1.59971 0
M  V30 1186 H 116.493 2.68372 1.86129 0
M  V30 1187 H 115.152 3.66586 -0.0315886 0
M  V30 1188 H 114.8 4.46765 2.31107 0
M  V30 1189 H 114.5 5.76647 1.12925 0
M  V30 1190 H 116.024 5.74748 2.06148 0
M  V30 1191 H 117.438 5.72916 -0.209877 0
M  V30 1192 H 115.835 5.92085 -0.977489 0
M  V30 1193 H 116.905 4.60948 -1.50514 0
M  V30 1194 N 118.248 0.346503 1.53744 0
M  V30 1195 C 119.195 -0.508914 2.25119 0
M  V30 1196 C 120.165 -1.09315 1.25058 0
M  V30 1197 O 121.35 -1.12921 1.53797 0
M  V30 1198 C 118.49 -1.65246 3.02965 0
M  V30 1199 C 117.603 -1.09525 4.17886 0
M  V30 1200 C 116.738 -2.20634 4.83212 0
M  V30 1201 C 115.777 -1.62279 5.90196 0
M  V30 1202 N 114.914 -2.67143 6.49291 0
M  V30 1203 H 119.754 0.106283 2.9781 0
M  V30 1204 H 117.291 0.0642227 1.4696 0
M  V30 1205 H 119.249 -2.32574 3.4636 0
M  V30 1206 H 117.879 -2.2386 2.32565 0
M  V30 1207 H 116.931 -0.312818 3.79112 0
M  V30 1208 H 118.243 -0.628444 4.94825 0
M  V30 1209 H 117.397 -2.95821 5.29693 0
M  V30 1210 H 116.136 -2.70659 4.05703 0
M  V30 1211 H 115.141 -0.855989 5.43096 0
M  V30 1212 H 116.366 -1.13102 6.69615 0
M  V30 1213 H 114.312 -3.16417 5.74645 0
M  V30 1214 H 114.229 -2.25093 7.21713 0
M  V30 1215 H 115.497 -3.4209 7.00425 0
M  V30 1216 N 119.726 -1.57421 0.075193 0
M  V30 1217 C 121.137 -1.81021 -0.456964 0
M  V30 1218 C 121.488 -0.98936 -1.69429 0
M  V30 1219 O 120.613 -0.212865 -2.15351 0
M  V30 1220 C 121.208 -3.28329 -0.83581 0
M  V30 1221 C 119.767 -3.52764 -1.31281 0
M  V30 1222 C 118.914 -2.75676 -0.299648 0
M  V30 1223 H 121.865 -1.55822 0.300856 0
M  V30 1224 H 121.886 -3.40564 -1.69696 0
M  V30 1225 H 121.398 -3.88046 0.0649238 0
M  V30 1226 H 119.499 -2.98355 -2.23193 0
M  V30 1227 H 119.612 -4.61451 -1.28839 0
M  V30 1228 H 117.976 -2.42538 -0.777641 0
M  V30 1229 H 118.759 -3.38132 0.593417 0
M  V30 1230 N 121.204 0.198386 -1.56346 0
M  V30 1231 C 122.481 0.944982 -1.71258 0
M  V30 1232 C 122.861 2.0151 -0.629048 0
M  V30 1233 O 122.209 2.25639 0.360473 0
M  V30 1234 C 122.419 1.5344 -3.1346 0
M  V30 1235 C 123.767 2.01778 -3.73591 0
M  V30 1236 O 124.791 1.63288 -3.16568 0
M  V30 1237 O 123.65 2.72594 -4.73661 0
M  V30 1238 H 120.744 0.442939 -0.69838 0
M  V30 1239 H 123.29 0.188342 -1.68652 0
M  V30 1240 H 122.062 0.762869 -3.83792 0
M  V30 1241 H 121.685 2.35596 -3.20282 0
M  V30 1242 N 122.682 1.50554 0.465978 0
M  V30 1243 C 123.907 1.65838 1.24549 0
M  V30 1244 C 124.332 0.343486 1.84937 0
M  V30 1245 O 123.69 -0.69324 1.67523 0
M  V30 1246 C 123.738 2.75533 2.32624 0
M  V30 1247 O 122.842 2.37142 3.37398 0
M  V30 1248 H 122.183 0.553893 0.366194 0
M  V30 1249 H 124.713 1.96959 0.553927 0
M  V30 1250 H 124.723 2.98763 2.77857 0
M  V30 1251 H 123.398 3.70962 1.88043 0
M  V30 1252 H 121.975 2.24377 2.97841 0
M  V30 1253 N 124.16 -0.719506 1.40217 0
M  V30 1254 C 125.39 -1.50646 1.41384 0
M  V30 1255 C 125.798 -1.89197 0.0107743 0
M  V30 1256 O 125.141 -1.55709 -0.974708 0
M  V30 1257 C 125.203 -2.81405 2.23722 0
M  V30 1258 C 124.867 -2.65199 3.72181 0
M  V30 1259 C 125.864 -2.32717 4.64907 0
M  V30 1260 C 123.549 -2.81586 4.1595 0
M  V30 1261 C 125.543 -2.16827 5.99387 0
M  V30 1262 C 123.23 -2.65313 5.50502 0
M  V30 1263 C 124.228 -2.32981 6.42035 0
M  V30 1264 O 123.916 -2.16827 7.74107 0
M  V30 1265 H 123.648 -0.471606 0.484318 0
M  V30 1266 H 126.202 -0.895456 1.84853 0
M  V30 1267 H 124.432 -3.44823 1.75026 0
M  V30 1268 H 126.121 -3.43102 2.16878 0
M  V30 1269 H 126.887 -2.19694 4.32388 0
M  V30 1270 H 122.766 -3.0574 3.45027 0
M  V30 1271 H 126.31 -1.91513 6.70797 0
M  V30 1272 H 122.207 -2.7792 5.82607 0
M  V30 1273 H 122.975 -2.31778 7.84998 0
M  V30 1274 N 125.638 -1.25649 -0.95132 0
M  V30 1275 C 127.054 -1.02542 -1.223 0
M  V30 1276 C 127.254 0.255715 -1.99871 0
M  V30 1277 O 126.31 0.967558 -2.33226 0
M  V30 1278 C 127.623 -2.25065 -1.99415 0
M  V30 1279 C 129.171 -2.29861 -2.12446 0
M  V30 1280 C 129.646 -3.52048 -2.92961 0
M  V30 1281 N 131.137 -3.52465 -3.00538 0
M  V30 1282 C 131.872 -4.43672 -3.63239 0
M  V30 1283 N 131.368 -5.45157 -4.27523 0
M  V30 1284 N 133.161 -4.31346 -3.60412 0
M  V30 1285 H 125.312 -2.07951 -0.432471 0
M  V30 1286 H 127.575 -0.91339 -0.253816 0
M  V30 1287 H 127.281 -3.18194 -1.49817 0
M  V30 1288 H 127.155 -2.28502 -3.00111 0
M  V30 1289 H 129.542 -1.37252 -2.61239 0
M  V30 1290 H 129.623 -2.3044 -1.11044 0
M  V30 1291 H 129.267 -4.44981 -2.44856 0
M  V30 1292 H 129.197 -3.48715 -3.94596 0
M  V30 1293 H 131.688 -2.79056 -2.54826 0
M  V30 1294 H 132.001 -6.10958 -4.73234 0
M  V30 1295 H 130.346 -5.49025 -4.26141 0
M  V30 1296 H 133.537 -3.51288 -3.09377 0
M  V30 1297 H 133.71 -5.02624 -4.0899 0
M  V30 1298 N 127.117 1.15442 -1.07289 0
M  V30 1299 C 128.363 1.86489 -0.796846 0
M  V30 1300 C 128.696 1.82078 0.675371 0
M  V30 1301 O 127.971 1.24346 1.4956 0
M  V30 1302 C 128.254 3.35626 -1.30489 0
M  V30 1303 C 128.107 3.48673 -2.84161 0
M  V30 1304 C 129.426 4.30357 -0.920907 0
M  V30 1305 H 126.545 0.677144 -0.290939 0
M  V30 1306 H 129.187 1.35633 -1.33056 0
M  V30 1307 H 127.337 3.79068 -0.850883 0
M  V30 1308 H 129.009 3.14099 -3.37846 0
M  V30 1309 H 127.252 2.90253 -3.22391 0
M  V30 1310 H 127.923 4.53453 -3.14777 0
M  V30 1311 H 130.399 3.94871 -1.3121 0
M  V30 1312 H 129.275 5.33193 -1.30372 0
M  V30 1313 H 129.536 4.4176 0.173226 0
M  V30 1314 N 128.595 0.856903 1.32268 0
M  V30 1315 C 129.823 0.475439 2.01363 0
M  V30 1316 C 130.238 -0.928486 1.64392 0
M  V30 1317 O 129.595 -1.60624 0.866387 0
M  V30 1318 C 129.646 0.607545 3.56358 0
M  V30 1319 O 129.367 1.95617 3.92002 0
M  V30 1320 C 130.868 0.225382 4.42727 0
M  V30 1321 H 128.088 0.186636 0.644521 0
M  V30 1322 H 130.632 1.15446 1.68797 0
M  V30 1323 H 128.787 -0.0237719 3.87393 0
M  V30 1324 H 129.201 1.95455 4.86721 0
M  V30 1325 H 130.675 0.368813 5.50767 0
M  V30 1326 H 131.152 -0.834369 4.31202 0
M  V30 1327 H 131.758 0.831864 4.17085 0
M  V30 1328 N 130.073 -1.45103 0.615059 0
M  V30 1329 C 131.003 -2.33339 -0.0865619 0
M  V30 1330 C 131.984 -1.4727 -0.851209 0
M  V30 1331 O 133.169 -1.76026 -0.820281 0
M  V30 1332 C 130.299 -3.30095 -1.07956 0
M  V30 1333 C 129.253 -4.25858 -0.427628 0
M  V30 1334 C 128.579 -5.12361 -1.5294 0
M  V30 1335 C 129.879 -5.18165 0.655944 0
M  V30 1336 H 131.573 -2.92254 0.650224 0
M  V30 1337 H 129.119 -1.40532 0.314138 0
M  V30 1338 H 131.072 -3.90698 -1.57901 0
M  V30 1339 H 129.796 -2.69355 -1.84703 0
M  V30 1340 H 128.455 -3.66564 0.0510292 0
M  V30 1341 H 128.103 -4.47984 -2.28734 0
M  V30 1342 H 127.803 -5.77238 -1.09865 0
M  V30 1343 H 129.327 -5.75833 -2.03098 0
M  V30 1344 H 130.741 -5.72796 0.240257 0
M  V30 1345 H 129.138 -5.91559 1.00888 0
M  V30 1346 H 130.208 -4.60144 1.52957 0
M  V30 1347 N 131.551 -0.354651 -1.53558 0
M  V30 1348 C 132.967 -0.00315426 -1.596 0
M  V30 1349 C 133.167 1.47741 -1.37021 0
M  V30 1350 O 132.223 2.23759 -1.16996 0
M  V30 1351 C 133.536 -0.44929 -2.97325 0
M  V30 1352 C 135.084 -0.402578 -3.104 0
M  V30 1353 C 135.559 -0.824355 -4.5052 0
M  V30 1354 N 137.05 -0.778979 -4.56603 0
M  V30 1355 C 137.785 -1.07715 -5.63192 0
M  V30 1356 N 137.281 -1.44405 -6.77583 0
M  V30 1357 N 139.074 -1.00066 -5.53121 0
M  V30 1358 H 131.225 -1.31893 -1.66487 0
M  V30 1359 H 133.488 -0.538388 -0.780284 0
M  V30 1360 H 133.194 -1.48202 -3.1895 0
M  V30 1361 H 133.068 0.169772 -3.76818 0
M  V30 1362 H 135.455 0.621004 -2.88492 0
M  V30 1363 H 135.536 -1.05699 -2.32941 0
M  V30 1364 H 135.18 -1.846 -4.73165 0
M  V30 1365 H 135.11 -0.147304 -5.26394 0
M  V30 1366 H 137.601 -0.508528 -3.74463 0
M  V30 1367 H 137.914 -1.65612 -7.54846 0
M  V30 1368 H 136.259 -1.4826 -6.79002 0
M  V30 1369 H 139.45 -0.713293 -4.62633 0
M  V30 1370 H 139.623 -1.23638 -6.36096 0
M  V30 1371 N 133.029 1.57378 -0.0835403 0
M  V30 1372 C 134.44 1.81261 0.447358 0
M  V30 1373 C 134.791 0.998331 1.68902 0
M  V30 1374 O 133.916 0.224282 2.15235 0
M  V30 1375 C 134.511 3.28767 0.818386 0
M  V30 1376 C 133.07 3.53455 1.29409 0
M  V30 1377 C 132.217 2.75831 0.285024 0
M  V30 1378 H 135.168 1.5566 -0.309115 0
M  V30 1379 H 135.189 3.41459 1.67887 0
M  V30 1380 H 134.701 3.88006 -0.0855019 0
M  V30 1381 H 132.802 2.99534 2.21608 0
M  V30 1382 H 132.915 4.62128 1.2639 0
M  V30 1383 H 131.279 2.42947 0.764767 0
M  V30 1384 H 132.062 3.37813 -0.611341 0
M  V30 1385 N 134.507 -0.190092 1.56449 0
M  V30 1386 C 135.737 -0.92443 1.84764 0
M  V30 1387 C 136.145 -1.77146 0.664529 0
M  V30 1388 O 135.488 -1.79812 -0.375957 0
M  V30 1389 C 135.55 -1.86651 3.07248 0
M  V30 1390 C 135.214 -1.20094 4.40938 0
M  V30 1391 C 136.211 -0.575445 5.16706 0
M  V30 1392 C 133.896 -1.2033 4.87674 0
M  V30 1393 C 135.89 0.0388111 6.37388 0
M  V30 1394 C 133.577 -0.585214 6.08291 0
M  V30 1395 C 134.575 0.0347578 6.82991 0
M  V30 1396 O 134.263 0.643147 8.01323 0
M  V30 1397 H 133.995 -0.274974 0.617548 0
M  V30 1398 H 136.549 -0.200788 2.04416 0
M  V30 1399 H 134.779 -2.62998 2.83494 0
M  V30 1400 H 136.468 -2.46907 3.22167 0
M  V30 1401 H 137.234 -0.565728 4.81689 0
M  V30 1402 H 133.113 -1.67526 4.29484 0
M  V30 1403 H 136.657 0.523329 6.95634 0
M  V30 1404 H 132.554 -0.592451 6.42775 0
M  V30 1405 H 133.322 0.540545 8.16713 0
M  V30 1406 N 135.985 -1.50799 -0.457987 0
M  V30 1407 C 136.915 -1.73553 -1.5621 0
M  V30 1408 C 137.896 -0.584774 -1.59732 0
M  V30 1409 O 139.081 -0.825314 -1.7579 0
M  V30 1410 C 136.211 -1.84169 -2.94447 0
M  V30 1411 C 135.165 -2.99461 -3.0579 0
M  V30 1412 C 134.491 -2.95235 -4.45803 0
M  V30 1413 C 135.791 -4.39766 -2.81786 0
M  V30 1414 H 137.485 -2.66 -1.37421 0
M  V30 1415 H 135.031 -1.28002 -0.659662 0
M  V30 1416 H 136.984 -1.98672 -3.71628 0
M  V30 1417 H 135.708 -0.883545 -3.14422 0
M  V30 1418 H 134.367 -2.8463 -2.31044 0
M  V30 1419 H 134.015 -1.97239 -4.62715 0
M  V30 1420 H 133.715 -3.72642 -4.54326 0
M  V30 1421 H 135.239 -3.11803 -5.24987 0
M  V30 1422 H 136.653 -4.55054 -3.4871 0
M  V30 1423 H 135.05 -5.18722 -3.0174 0
M  V30 1424 H 136.12 -4.51229 -1.7754 0
M  V30 1425 N 137.463 0.71206 -1.40597 0
M  V30 1426 C 138.691 1.50111 -1.42388 0
M  V30 1427 C 139.106 1.88784 -0.0245395 0
M  V30 1428 O 138.463 1.55681 0.952351 0
M  V30 1429 C 138.514 2.7742 -2.31776 0
M  V30 1430 O 138.235 2.40382 -3.66262 0
M  V30 1431 C 139.736 3.7129 -2.42196 0
M  V30 1432 H 136.956 0.46314 -0.485533 0
M  V30 1433 H 139.5 0.878068 -1.8469 0
M  V30 1434 H 137.655 3.36001 -1.92827 0
M  V30 1435 H 138.069 3.22324 -4.13772 0
M  V30 1436 H 139.543 4.57448 -3.08943 0
M  V30 1437 H 140.02 4.14641 -1.44809 0
M  V30 1438 H 140.626 3.18619 -2.81712 0
M  V30 1439 N 138.941 1.26152 0.944643 0
M  V30 1440 C 140.352 1.10454 1.50522 0
M  V30 1441 C 140.703 -0.31635 1.93633 0
M  V30 1442 O 139.828 -1.20746 1.79581 0
M  V30 1443 C 140.423 1.99891 2.73549 0
M  V30 1444 C 138.982 1.88348 3.25886 0
M  V30 1445 C 138.129 1.93447 1.9868 0
M  V30 1446 H 141.08 1.39292 0.760489 0
M  V30 1447 H 141.101 1.54477 3.47732 0
M  V30 1448 H 140.613 3.03297 2.42141 0
M  V30 1449 H 138.714 0.878636 3.62092 0
M  V30 1450 H 138.827 2.73696 3.93227 0
M  V30 1451 H 137.191 1.37456 2.14425 0
M  V30 1452 H 137.974 2.98476 1.69607 0
M  V30 1453 N 140.419 -1.14872 1.07899 0
M  V30 1454 C 141.367 -2.21857 0.698727 0
M  V30 1455 C 142.361 -1.66845 -0.293086 0
M  V30 1456 O 143.567 -1.79321 -0.156204 0
M  V30 1457 H 139.942 -0.722691 0.207899 0
M  V30 1458 H 141.913 -2.51205 1.61054 0
M  V30 1459 C 140.662 -3.47498 0.11858 0
M  V30 1460 H 139.985 -3.90154 0.872914 0
M  V30 1461 H 141.425 -4.23858 -0.109759 0
M  V30 1462 C 139.884 -3.16947 -1.1422 0
M  V30 1463 O 140.414 -3.3426 -2.22785 0
M  V30 1464 N 138.62 -2.70946 -1.05055 0
M  V30 1465 H 138.167 -2.57058 -0.167038 0
M  V30 1466 H 138.125 -2.50879 -1.89491 0
M  V30 1467 N 141.898 -0.863906 -1.31812 0
M  V30 1468 C 143.175 -0.39275 -1.91616 0
M  V30 1469 C 143.555 1.12461 -1.7865 0
M  V30 1470 O 142.903 1.95045 -1.19037 0
M  V30 1471 C 143.113 -0.867385 -3.38049 0
M  V30 1472 C 144.461 -0.889966 -4.15168 0
M  V30 1473 O 145.485 -0.812635 -3.46806 0
M  V30 1474 O 144.344 -1.00079 -5.37258 0
M  V30 1475 H 141.438 -0.116358 -0.818773 0
M  V30 1476 H 143.984 -0.951418 -1.40521 0
M  V30 1477 H 142.756 -1.91081 -3.41473 0
M  V30 1478 H 142.379 -0.286687 -3.96565 0
M  V30 1479 N 143.376 1.44774 -0.622745 0
M  V30 1480 C 144.792 1.56986 -0.287652 0
M  V30 1481 C 144.992 1.61167 1.20944 0
M  V30 1482 O 144.048 1.55015 1.99315 0
M  V30 1483 C 145.361 2.84551 -0.972188 0
M  V30 1484 C 146.909 2.9825 -0.949536 0
M  V30 1485 C 147.384 4.28605 -1.61437 0
M  V30 1486 N 148.875 4.35399 -1.58057 0
M  V30 1487 C 149.61 5.34964 -2.064 0
M  V30 1488 N 149.106 6.40981 -2.62897 0
M  V30 1489 N 150.899 5.26419 -1.97078 0
M  V30 1490 H 143.05 1.40304 -1.59463 0
M  V30 1491 H 145.313 0.671794 -0.668878 0
M  V30 1492 H 145.019 2.87417 -2.02693 0
M  V30 1493 H 144.893 3.73807 -0.504771 0
M  V30 1494 H 147.28 2.94941 0.0967067 0
M  V30 1495 H 147.361 2.10364 -1.45536 0
M  V30 1496 H 147.005 4.32672 -2.66002 0
M  V30 1497 H 146.935 5.15334 -1.08344 0
M  V30 1498 H 149.426 3.59397 -1.16801 0
M  V30 1499 H 149.739 7.13225 -2.97539 0
M  V30 1500 H 148.084 6.4169 -2.66943 0
M  V30 1501 H 151.275 4.42504 -1.52669 0
M  V30 1502 H 151.448 6.03861 -2.35066 0
M  V30 1503 N 144.854 0.36279 1.53368 0
M  V30 1504 C 146.102 -0.227326 2.00817 0
M  V30 1505 C 146.423 -1.49511 1.25186 0
M  V30 1506 O 145.693 -1.92482 0.364348 0
M  V30 1507 H 144.273 -0.0869923 0.741917 0
M  V30 1508 H 146.935 0.488381 1.88682 0
M  V30 1509 H 146.031 -0.456273 3.08747 0
M  V30 1510 N 146.332 -1.57332 0.0918853 0
M  V30 1511 C 147.262 -2.16872 -0.865371 0
M  V30 1512 C 148.243 -1.10118 -1.29646 0
M  V30 1513 O 149.428 -1.38242 -1.36392 0
M  V30 1514 C 146.558 -2.74649 -2.12569 0
M  V30 1515 C 145.512 -3.86747 -1.83333 0
M  V30 1516 C 144.838 -4.31212 -3.16166 0
M  V30 1517 C 146.138 -5.10089 -1.1228 0
M  V30 1518 H 147.832 -2.97114 -0.369307 0
M  V30 1519 H 145.378 -1.42918 -0.176194 0
M  V30 1520 H 147.331 -3.14952 -2.7997 0
M  V30 1521 H 146.055 -1.91657 -2.64452 0
M  V30 1522 H 144.714 -3.46978 -1.18331 0
M  V30 1523 H 144.362 -3.45115 -3.6593 0
M  V30 1524 H 144.062 -5.06788 -2.97388 0
M  V30 1525 H 145.586 -4.74146 -3.84731 0
M  V30 1526 H 147 -5.47582 -1.69785 0
M  V30 1527 H 145.397 -5.91073 -1.03693 0
M  V30 1528 H 146.467 -4.84786 -0.105041 0
M  V30 1529 N 147.81 0.181792 -1.56548 0
M  V30 1530 C 149.04 0.914618 -1.85252 0
M  V30 1531 C 149.448 1.76791 -0.673914 0
M  V30 1532 O 148.791 1.80009 0.366416 0
M  V30 1533 C 148.853 1.85019 -3.08234 0
M  V30 1534 C 148.517 1.17754 -4.41569 0
M  V30 1535 C 149.514 0.548035 -5.17003 0
M  V30 1536 C 147.199 1.17742 -4.88305 0
M  V30 1537 C 149.193 -0.0726128 -6.37359 0
M  V30 1538 C 146.88 0.552946 -6.08593 0
M  V30 1539 C 147.878 -0.070978 -6.82963 0
M  V30 1540 O 147.566 -0.685635 -8.00971 0
M  V30 1541 H 147.298 0.271695 -0.618998 0
M  V30 1542 H 149.852 0.189944 -2.0452 0
M  V30 1543 H 148.082 2.61491 -2.84885 0
M  V30 1544 H 149.771 2.45195 -3.23472 0
M  V30 1545 H 150.537 0.540174 -4.81982 0
M  V30 1546 H 146.416 1.65246 -4.30366 0
M  V30 1547 H 149.96 -0.560213 -6.95347 0
M  V30 1548 H 145.857 0.558354 -6.43081 0
M  V30 1549 H 146.625 -0.58385 -8.16415 0
M  V30 1550 N 149.288 1.51039 0.449983 0
M  V30 1551 C 150.534 1.63322 1.20223 0
M  V30 1552 C 150.867 0.34241 1.91158 0
M  V30 1553 O 150.142 -0.657344 1.83055 0
M  V30 1554 C 150.425 2.82801 2.22925 0
M  V30 1555 C 150.278 4.21823 1.56157 0
M  V30 1556 C 151.597 2.97807 3.24035 0
M  V30 1557 H 148.716 0.594407 0.435718 0
M  V30 1558 H 151.358 1.83489 0.493136 0
M  V30 1559 H 149.508 2.65738 2.834 0
M  V30 1560 H 151.18 4.50526 0.991162 0
M  V30 1561 H 149.423 4.25105 0.864172 0
M  V30 1562 H 150.094 5.01391 2.30891 0
M  V30 1563 H 152.57 3.13497 2.73603 0
M  V30 1564 H 151.446 3.82992 3.93202 0
M  V30 1565 H 151.707 2.09328 3.89402 0
M  V30 1566 N 150.766 -0.704594 1.40972 0
M  V30 1567 C 152.013 -1.46458 1.39844 0
M  V30 1568 C 152.341 -1.94499 0.00447594 0
M  V30 1569 O 151.596 -1.69275 -0.982057 0
M  V30 1570 C 151.895 -2.698 2.34399 0
M  V30 1571 C 151.561 -2.40464 3.81429 0
M  V30 1572 C 150.223 -2.32174 4.21484 0
M  V30 1573 C 152.575 -2.16086 4.74296 0
M  V30 1574 C 149.903 -1.97589 5.52427 0
M  V30 1575 C 152.255 -1.83011 6.05549 0
M  V30 1576 C 150.919 -1.7321 6.44635 0
M  V30 1577 H 150.189 -0.535927 0.511725 0
M  V30 1578 H 152.836 -0.806124 1.73706 0
M  V30 1579 H 151.141 -3.40536 1.93759 0
M  V30 1580 H 152.838 -3.27919 2.30804 0
M  V30 1581 H 149.428 -2.47808 3.49699 0
M  V30 1582 H 153.612 -2.2144 4.4416 0
M  V30 1583 H 148.868 -1.88547 5.81601 0
M  V30 1584 H 153.042 -1.63164 6.77016 0
M  V30 1585 H 150.669 -1.46179 7.46013 0
M  V30 1586 N 152.244 -1.26651 -0.937939 0
M  V30 1587 C 153.191 -1.0849 -2.03712 0
M  V30 1588 C 154.161 0.011033 -1.66096 0
M  V30 1589 O 155.346 -0.149353 -1.90215 0
M  V30 1590 C 152.486 -0.72735 -3.37348 0
M  V30 1591 C 151.599 -1.89986 -3.87981 0
M  V30 1592 C 150.734 -1.48513 -5.10017 0
M  V30 1593 C 149.773 -2.62575 -5.5292 0
M  V30 1594 N 148.91 -2.21762 -6.66158 0
M  V30 1595 H 153.75 -2.02551 -2.18579 0
M  V30 1596 H 151.287 -1.00844 -1.07093 0
M  V30 1597 H 153.245 -0.50092 -4.14182 0
M  V30 1598 H 151.875 0.176298 -3.22318 0
M  V30 1599 H 150.927 -2.23913 -3.07518 0
M  V30 1600 H 152.239 -2.75586 -4.15757 0
M  V30 1601 H 151.393 -1.21934 -5.94321 0
M  V30 1602 H 150.132 -0.60009 -4.83994 0
M  V30 1603 H 149.137 -2.8988 -4.67172 0
M  V30 1604 H 150.362 -3.51685 -5.80943 0
M  V30 1605 H 148.308 -1.35696 -6.41812 0
M  V30 1606 H 148.225 -3.00903 -6.93537 0
M  V30 1607 H 149.493 -1.98403 -7.53828 0
M  V30 1608 N 153.722 1.14298 -1.08507 0
M  V30 1609 C 154.97 1.84993 -0.813763 0
M  V30 1610 C 155.291 1.83405 0.662393 0
M  V30 1611 O 154.561 1.28319 1.48024 0
M  V30 1612 H 153.141 0.684966 -0.298045 0
M  V30 1613 H 155.803 1.385 -1.37126 0
M  V30 1614 H 154.899 2.89788 -1.15884 0
M  V30 1615 N 155.201 0.870884 1.31352 0
M  V30 1616 C 156.426 0.495957 2.01383 0
M  V30 1617 C 156.851 -0.904324 1.64935 0
M  V30 1618 O 156.209 -1.59687 0.858466 0
M  V30 1619 C 156.257 0.661433 3.54482 0
M  V30 1620 O 155.361 -0.298851 4.11316 0
M  V30 1621 H 154.702 0.197158 0.634054 0
M  V30 1622 H 157.232 1.17455 1.67527 0
M  V30 1623 H 157.242 0.555072 4.04207 0
M  V30 1624 H 155.917 1.68246 3.8035 0
M  V30 1625 H 154.494 -0.147368 3.72609 0
M  V30 1626 N 156.679 -1.44442 0.630414 0
M  V30 1627 C 157.904 -2.06927 0.139944 0
M  V30 1628 C 158.329 -1.46795 -1.17613 0
M  V30 1629 O 157.687 -0.569144 -1.72135 0
M  V30 1630 C 157.735 -3.6058 0.0379581 0
M  V30 1631 O 156.839 -3.99937 -1.0062 0
M  V30 1632 H 156.18 -0.658608 0.0844483 0
M  V30 1633 H 158.71 -1.85327 0.866891 0
M  V30 1634 H 158.72 -4.07714 -0.152856 0
M  V30 1635 H 157.395 -4.03728 0.998809 0
M  V30 1636 H 155.972 -3.64436 -0.79001 0
M  V30 1637 N 158.157 -0.370918 -1.53173 0
M  V30 1638 C 159.385 0.217704 -2.05751 0
M  V30 1639 C 159.8 1.42018 -1.24404 0
M  V30 1640 O 159.157 1.80245 -0.286033 0
M  V30 1641 C 159.208 0.605954 -3.56385 0
M  V30 1642 O 158.929 -0.548734 -4.3465 0
M  V30 1643 C 160.43 1.2524 -4.25241 0
M  V30 1644 H 157.65 0.0371659 -0.66997 0
M  V30 1645 H 160.194 -0.530832 -1.9749 0
M  V30 1646 H 158.349 1.3044 -3.6478 0
M  V30 1647 H 158.763 -0.23376 -5.23979 0
M  V30 1648 H 160.237 1.47458 -5.3194 0
M  V30 1649 H 160.714 2.2143 -3.79296 0
M  V30 1650 H 161.32 0.595233 -4.21114 0
M  V30 1651 N 159.635 1.57281 -0.100228 0
M  V30 1652 C 160.881 1.94826 0.563101 0
M  V30 1653 C 161.214 0.982475 1.67514 0
M  V30 1654 O 160.489 0.0164069 1.94493 0
M  V30 1655 C 160.772 3.42453 1.11346 0
M  V30 1656 C 160.625 4.498 0.00612081 0
M  V30 1657 C 161.944 3.91506 2.01024 0
M  V30 1658 H 159.063 0.708428 0.203221 0
M  V30 1659 H 161.705 1.8922 -0.171979 0
M  V30 1660 H 159.855 3.47361 1.7399 0
M  V30 1661 H 161.527 4.57 -0.628357 0
M  V30 1662 H 159.77 4.28756 -0.659581 0
M  V30 1663 H 160.441 5.50306 0.432109 0
M  V30 1664 H 162.917 3.88784 1.48278 0
M  V30 1665 H 161.793 4.95358 2.36457 0
M  V30 1666 H 162.054 3.31099 2.92961 0
M  V30 1667 N 161.113 -0.173488 1.56642 0
M  V30 1668 C 162.529 -0.525174 1.50712 0
M  V30 1669 C 162.729 -1.8476 0.804107 0
M  V30 1670 O 161.785 -2.49869 0.363574 0
M  V30 1671 C 163.098 -0.559937 2.95441 0
M  V30 1672 C 164.646 -0.647288 3.06234 0
M  V30 1673 C 165.121 -0.712963 4.52417 0
M  V30 1674 N 166.612 -0.775911 4.56655 0
M  V30 1675 C 167.347 -0.847264 5.67106 0
M  V30 1676 N 166.843 -0.879585 6.87194 0
M  V30 1677 N 168.636 -0.886117 5.55071 0
M  V30 1678 H 160.787 0.693681 2.00753 0
M  V30 1679 H 163.05 0.249841 0.914485 0
M  V30 1680 H 162.756 0.343049 3.50023 0
M  V30 1681 H 162.63 -1.40718 3.49969 0
M  V30 1682 H 165.017 -1.5407 2.51687 0
M  V30 1683 H 165.098 0.226586 2.54794 0
M  V30 1684 H 164.742 0.176183 5.07594 0
M  V30 1685 H 164.672 -1.60295 5.0161 0
M  V30 1686 H 167.163 -0.759304 3.70193 0
M  V30 1687 H 167.476 -0.935144 7.67121 0
M  V30 1688 H 165.821 -0.847898 6.89808 0
M  V30 1689 H 169.012 -0.857853 4.60172 0
M  V30 1690 H 169.185 -0.938263 6.41171 0
M  V30 1691 N 162.591 -1.51276 -0.441967 0
M  V30 1692 C 163.838 -1.63715 -1.19179 0
M  V30 1693 C 164.166 -0.351175 -1.91303 0
M  V30 1694 O 163.421 0.664524 -1.84072 0
M  V30 1695 C 163.72 -2.78746 -2.23686 0
M  V30 1696 C 163.386 -4.18189 -1.68607 0
M  V30 1697 C 162.048 -4.56125 -1.53308 0
M  V30 1698 C 164.4 -5.05222 -1.28062 0
M  V30 1699 C 161.728 -5.78804 -0.959317 0
M  V30 1700 C 164.08 -6.28476 -0.721162 0
M  V30 1701 C 162.744 -6.65188 -0.55504 0
M  V30 1702 H 162.014 -0.599076 -0.436106 0
M  V30 1703 H 164.661 -1.85296 -0.48351 0
M  V30 1704 H 162.966 -2.51369 -3.00535 0
M  V30 1705 H 164.663 -2.8557 -2.81515 0
M  V30 1706 H 161.253 -3.88277 -1.8149 0
M  V30 1707 H 165.437 -4.76524 -1.38704 0
M  V30 1708 H 160.693 -6.05899 -0.81833 0
M  V30 1709 H 164.867 -6.95259 -0.398458 0
M  V30 1710 H 162.494 -7.60123 -0.108311 0
M  V30 1711 N 164.069 0.697108 -1.41344 0
M  V30 1712 C 165.297 1.48593 -1.43972 0
M  V30 1713 C 165.712 1.88747 -0.0445612 0
M  V30 1714 O 165.069 1.56682 0.935785 0
M  V30 1715 C 165.12 2.74946 -2.34706 0
M  V30 1716 O 164.841 2.36484 -3.68791 0
M  V30 1717 C 166.342 3.687 -2.46121 0
M  V30 1718 H 163.562 0.457964 -0.490418 0
M  V30 1719 H 166.106 0.858429 -1.8561 0
M  V30 1720 H 164.261 3.33937 -1.9638 0
M  V30 1721 H 164.675 3.17918 -4.17167 0
M  V30 1722 H 166.149 4.54145 -3.13777 0
M  V30 1723 H 166.626 4.13081 -1.49199 0
M  V30 1724 H 167.232 3.15613 -2.85076 0
M  V30 1725 N 165.547 1.27147 0.931209 0
M  V30 1726 C 166.787 1.14511 1.69312 0
M  V30 1727 C 167.151 -0.304638 1.89568 0
M  V30 1728 O 168.352 -0.553343 2.63043 0
M  V30 1729 C 166.623 1.90349 3.02493 0
M  V30 1730 S 168.182 1.93884 3.93642 0
M  V30 1731 H 165 0.408858 0.581684 0
M  V30 1732 H 167.602 1.61006 1.10893 0
M  V30 1733 H 166.306 2.94877 2.85439 0
M  V30 1734 H 165.837 1.44333 3.65966 0
M  V30 1735 H 167.852 1.03273 4.85334 0
M  V30 1736 N 167.025 -1.13721 1.09112 0
M  V30 1737 C 167.972 -2.19031 0.727591 0
M  V30 1738 C 168.942 -1.63555 -0.289656 0
M  V30 1739 O 170.127 -1.90023 -0.172026 0
M  V30 1740 C 167.267 -3.4477 0.15082 0
M  V30 1741 C 166.38 -4.14365 1.22172 0
M  V30 1742 C 165.515 -5.27709 0.608042 0
M  V30 1743 C 164.554 -5.89147 1.66047 0
M  V30 1744 N 163.691 -6.93929 1.06806 0
M  V30 1745 H 168.531 -2.49475 1.62991 0
M  V30 1746 H 166.068 -1.22499 0.81439 0
M  V30 1747 H 168.026 -4.16714 -0.201358 0
M  V30 1748 H 166.656 -3.14787 -0.714783 0
M  V30 1749 H 165.708 -3.40737 1.69122 0
M  V30 1750 H 167.02 -4.56114 2.01895 0
M  V30 1751 H 166.174 -6.06355 0.204523 0
M  V30 1752 H 164.913 -4.872 -0.220769 0
M  V30 1753 H 163.918 -5.09198 2.07357 0
M  V30 1754 H 165.143 -6.31729 2.49189 0
M  V30 1755 H 163.089 -6.55483 0.260476 0
M  V30 1756 H 163.006 -7.34202 1.8023 0
M  V30 1757 H 164.274 -7.76434 0.690644 0
M  V30 1758 N 168.503 -0.877838 -1.30888 0
M  V30 1759 C 169.413 -0.343096 -2.32078 0
M  V30 1760 C 170.429 0.551022 -1.65045 0
M  V30 1761 O 171.605 0.445854 -1.96403 0
M  V30 1762 C 168.67 0.439905 -3.43898 0
M  V30 1763 C 167.731 -0.483111 -4.26573 0
M  V30 1764 C 166.964 0.262616 -5.33053 0
M  V30 1765 O 167.187 1.48967 -5.50604 0
M  V30 1766 O 166.121 -0.383593 -6.00676 0
M  V30 1767 H 169.947 -1.18203 -2.79753 0
M  V30 1768 H 167.532 -0.64145 -1.34929 0
M  V30 1769 H 169.414 0.883504 -4.12034 0
M  V30 1770 H 168.089 1.25526 -2.98371 0
M  V30 1771 H 166.996 -0.975374 -3.61161 0
M  V30 1772 H 168.329 -1.26427 -4.75686 0
M  V30 1773 N 169.982 1.44106 -0.638065 0
M  V30 1774 C 170.945 2.29138 0.0531013 0
M  V30 1775 C 171.945 1.41409 0.765506 0
M  V30 1776 O 173.135 1.63206 0.609046 0
M  V30 1777 C 170.267 3.23144 1.08584 0
M  V30 1778 H 171.46 2.91739 -0.694883 0
M  V30 1779 H 169.013 1.51134 -0.398538 0
M  V30 1780 H 169.748 2.65408 1.86357 0
M  V30 1781 H 169.533 3.87804 0.578852 0
M  V30 1782 H 171.023 3.87004 1.56899 0
M  V30 1783 N 171.46 0.379036 1.52974 0
M  V30 1784 C 172.688 -0.20679 2.05864 0
M  V30 1785 C 173.103 -1.41356 1.25155 0
M  V30 1786 O 172.46 -1.8009 0.295588 0
M  V30 1787 C 172.511 -0.587045 3.56702 0
M  V30 1788 O 172.232 0.571776 4.34353 0
M  V30 1789 C 173.733 -1.22983 4.25899 0
M  V30 1790 H 170.953 -0.0336123 0.670158 0
M  V30 1791 H 173.497 0.541298 1.97206 0
M  V30 1792 H 171.652 -1.28504 3.65466 0
M  V30 1793 H 172.066 0.261544 5.23847 0
M  V30 1794 H 173.54 -1.44635 5.32715 0
M  V30 1795 H 174.017 -2.19416 3.80465 0
M  V30 1796 H 174.623 -0.572892 4.21424 0
M  V30 1797 N 172.938 -1.57226 0.108567 0
M  V30 1798 C 174.215 -1.86333 -0.594939 0
M  V30 1799 C 174.595 -1.00788 -1.85486 0
M  V30 1800 O 173.943 -0.0839293 -2.28346 0
M  V30 1801 C 174.153 -3.37265 -0.897405 0
M  V30 1802 C 175.501 -4.05629 -1.25501 0
M  V30 1803 O 176.525 -3.42224 -0.987998 0
M  V30 1804 O 175.384 -5.17531 -1.75567 0
M  V30 1805 H 172.478 -0.771018 -0.2991 0
M  V30 1806 H 175.024 -1.69102 0.142283 0
M  V30 1807 H 173.796 -3.913 -0.00413806 0
M  V30 1808 H 173.419 -3.59889 -1.69014 0
M  V30 1809 N 174.416 0.165178 -1.56732 0
M  V30 1810 C 175.662 0.882112 -1.82611 0
M  V30 1811 C 175.995 1.81628 -0.687378 0
M  V30 1812 O 175.27 1.92009 0.310267 0
M  V30 1813 C 175.553 1.67245 -3.18906 0
M  V30 1814 C 175.406 0.760987 -4.43316 0
M  V30 1815 C 176.725 2.63884 -3.52212 0
M  V30 1816 H 173.844 0.319242 -0.664269 0
M  V30 1817 H 176.486 0.148052 -1.89422 0
M  V30 1818 H 174.636 2.29824 -3.1323 0
M  V30 1819 H 176.308 0.147596 -4.61064 0
M  V30 1820 H 174.551 0.0694102 -4.33744 0
M  V30 1821 H 175.222 1.34962 -5.35247 0
M  V30 1822 H 177.698 2.11429 -3.58381 0
M  V30 1823 H 176.574 3.16245 -4.48643 0
M  V30 1824 H 176.835 3.44377 -2.77231 0
M  V30 1825 N 175.894 1.51508 0.433938 0
M  V30 1826 C 177.143 1.63578 1.18005 0
M  V30 1827 C 177.456 0.359514 1.92268 0
M  V30 1828 O 178.662 0.359632 2.69108 0
M  V30 1829 C 177.118 2.88901 2.14626 0
M  V30 1830 C 176.726 4.23544 1.45995 0
M  V30 1831 C 178.47 3.10328 2.89649 0
M  V30 1832 C 176.377 5.40014 2.4112 0
M  V30 1833 H 175.307 0.609277 0.444182 0
M  V30 1834 H 177.958 1.77978 0.446773 0
M  V30 1835 H 176.34 2.68142 2.91403 0
M  V30 1836 H 177.514 4.54696 0.747532 0
M  V30 1837 H 175.829 4.08021 0.831115 0
M  V30 1838 H 178.426 3.94518 3.60915 0
M  V30 1839 H 178.769 2.23544 3.51189 0
M  V30 1840 H 179.302 3.31443 2.19978 0
M  V30 1841 H 176.041 6.29068 1.84264 0
M  V30 1842 H 175.561 5.13233 3.10406 0
M  V30 1843 H 177.24 5.72099 3.02177 0
M  V30 1844 N 177.372 -0.689602 1.41712 0
M  V30 1845 C 178.621 -1.44534 1.40686 0
M  V30 1846 C 178.934 -1.95588 0.0213352 0
M  V30 1847 O 180.14 -2.71271 -0.111534 0
M  V30 1848 C 178.596 -2.61387 2.47396 0
M  V30 1849 C 178.204 -2.17094 3.91885 0
M  V30 1850 C 179.948 -3.38986 2.55517 0
M  V30 1851 C 177.855 -3.3094 4.90135 0
M  V30 1852 H 176.785 -0.542925 0.52321 0
M  V30 1853 H 179.436 -0.748054 1.6756 0
M  V30 1854 H 177.818 -3.33412 2.13664 0
M  V30 1855 H 178.992 -1.52318 4.34897 0
M  V30 1856 H 177.307 -1.52473 3.8748 0
M  V30 1857 H 179.904 -4.23747 3.26102 0
M  V30 1858 H 180.247 -3.84578 1.59391 0
M  V30 1859 H 180.78 -2.74021 2.8837 0
M  V30 1860 H 177.519 -2.90355 5.87685 0
M  V30 1861 H 177.039 -3.94546 4.51767 0
M  V30 1862 H 178.718 -3.9663 5.11169 0
M  V30 1863 N 178.85 -1.27639 -0.924453 0
M  V30 1864 C 180.099 -1.13549 -1.66702 0
M  V30 1865 C 180.412 0.317487 -1.93006 0
M  V30 1866 O 181.618 0.579333 -2.65247 0
M  V30 1867 C 180.074 -1.98426 -3.00259 0
M  V30 1868 C 179.682 -3.484 -2.81641 0
M  V30 1869 C 181.426 -1.92993 -3.78092 0
M  V30 1870 C 179.333 -4.25464 -4.10773 0
M  V30 1871 H 178.263 -0.421351 -0.625283 0
M  V30 1872 H 180.914 -1.52085 -1.02676 0
M  V30 1873 H 179.296 -1.52736 -3.6536 0
M  V30 1874 H 180.47 -4.01973 -2.25287 0
M  V30 1875 H 178.785 -3.55245 -2.17232 0
M  V30 1876 H 181.382 -2.47844 -4.7379 0
M  V30 1877 H 181.725 -0.904281 -4.0636 0
M  V30 1878 H 182.258 -2.36595 -3.19793 0
M  V30 1879 H 178.997 -5.28566 -3.87683 0
M  V30 1880 H 178.517 -3.76667 -4.66779 0
M  V30 1881 H 180.196 -4.34812 -4.79111 0
M  V30 1882 N 180.328 1.1314 -1.09713 0
M  V30 1883 C 181.278 2.16709 -0.708593 0
M  V30 1884 C 182.262 1.58471 0.278523 0
M  V30 1885 O 183.454 1.76779 0.088427 0
M  V30 1886 C 180.583 3.43039 -0.133923 0
M  V30 1887 C 179.669 4.08277 -1.14763 0
M  V30 1888 N 180.06 4.48637 -2.33577 0
M  V30 1889 C 178.358 4.34954 -0.986446 0
M  V30 1890 C 179.059 4.9952 -2.98085 0
M  V30 1891 N 178.035 4.94561 -2.25632 0
M  V30 1892 H 181.837 2.45672 -1.61315 0
M  V30 1893 H 179.351 1.29967 -0.973775 0
M  V30 1894 H 181.348 4.16583 0.162465 0
M  V30 1895 H 180.008 3.15549 0.765447 0
M  V30 1896 H 181.019 4.41246 -2.7115 0
M  V30 1897 H 177.696 4.17258 -0.142008 0
M  V30 1898 H 179.086 5.40521 -3.99108 0
M  V30 1899 N 181.806 0.884767 1.30421 0
M  V30 1900 C 183.031 0.517288 2.00845 0
M  V30 1901 C 183.456 -0.886779 1.65885 0
M  V30 1902 O 182.814 -1.58768 0.875354 0
M  V30 1903 C 182.862 0.698994 3.5376 0
M  V30 1904 O 181.966 -0.255208 4.1161 0
M  V30 1905 H 181.307 0.203872 0.631927 0
M  V30 1906 H 183.837 1.19225 1.66272 0
M  V30 1907 H 183.847 0.597912 4.03595 0
M  V30 1908 H 182.522 1.72271 3.78544 0
M  V30 1909 H 181.099 -0.10784 3.72744 0
M  V30 1910 N 183.284 -1.43765 0.645699 0
M  V30 1911 C 184.231 -2.30745 -0.0504648 0
M  V30 1912 C 185.201 -1.4432 -0.822241 0
M  V30 1913 O 186.386 -1.73202 -0.800358 0
M  V30 1914 C 183.526 -3.29802 -1.0161 0
M  V30 1915 C 182.639 -4.31326 -0.241219 0
M  V30 1916 C 181.774 -5.17469 -1.19998 0
M  V30 1917 C 180.813 -6.10691 -0.415094 0
M  V30 1918 N 179.95 -6.89483 -1.32506 0
M  V30 1919 H 184.79 -2.8973 0.697155 0
M  V30 1920 H 182.327 -1.42738 0.355563 0
M  V30 1921 H 184.285 -3.85734 -1.58949 0
M  V30 1922 H 182.915 -2.72483 -1.73069 0
M  V30 1923 H 181.967 -3.77749 0.448334 0
M  V30 1924 H 183.279 -4.9743 0.369437 0
M  V30 1925 H 182.433 -5.7799 -1.84424 0
M  V30 1926 H 181.172 -4.51473 -1.84455 0
M  V30 1927 H 180.177 -5.49265 0.242565 0
M  V30 1928 H 181.402 -6.78727 0.224966 0
M  V30 1929 H 179.348 -6.26142 -1.95657 0
M  V30 1930 H 179.265 -7.52081 -0.768783 0
M  V30 1931 H 180.533 -7.54516 -1.9577 0
M  V30 1932 N 184.763 -0.387143 -1.52771 0
M  V30 1933 C 185.71 0.449048 -2.26389 0
M  V30 1934 C 186.68 1.05961 -1.27912 0
M  V30 1935 O 187.865 1.08804 -1.56737 0
M  V30 1936 C 185.005 1.57155 -3.0724 0
M  V30 1937 C 184.118 0.984066 -4.20643 0
M  V30 1938 C 183.253 2.07745 -4.88892 0
M  V30 1939 C 182.292 1.46574 -5.94292 0
M  V30 1940 N 181.429 2.49834 -6.56146 0
M  V30 1941 H 186.269 -0.185205 -2.97424 0
M  V30 1942 H 183.806 -0.103164 -1.46738 0
M  V30 1943 H 185.764 2.23309 -3.52405 0
M  V30 1944 H 184.394 2.17615 -2.38419 0
M  V30 1945 H 183.446 0.212193 -3.79808 0
M  V30 1946 H 184.758 0.497029 -4.96318 0
M  V30 1947 H 183.912 2.81673 -5.3735 0
M  V30 1948 H 182.651 2.59807 -4.12737 0
M  V30 1949 H 181.656 0.711696 -5.45174 0
M  V30 1950 H 182.881 0.953088 -6.72379 0
M  V30 1951 H 180.827 3.0107 -5.82832 0
M  V30 1952 H 180.744 2.05879 -7.27427 0
M  V30 1953 H 182.012 3.23399 -7.09249 0
M  V30 1954 N 186.241 1.57166 -0.116904 0
M  V30 1955 C 187.171 2.18222 0.830759 0
M  V30 1956 C 188.152 1.12167 1.27877 0
M  V30 1957 O 189.337 1.40394 1.34176 0
M  V30 1958 C 186.467 2.77996 2.08172 0
M  V30 1959 C 185.421 3.89614 1.77157 0
M  V30 1960 C 184.747 4.36187 3.09265 0
M  V30 1961 C 186.047 5.1181 1.04151 0
M  V30 1962 H 187.741 2.97664 0.321992 0
M  V30 1963 H 185.287 1.4318 0.153434 0
M  V30 1964 H 187.24 3.19366 2.74924 0
M  V30 1965 H 185.964 1.9584 2.6137 0
M  V30 1966 H 184.623 3.48816 1.12796 0
M  V30 1967 H 184.271 3.50893 3.60393 0
M  V30 1968 H 183.971 5.11455 2.89288 0
M  V30 1969 H 185.495 4.80207 3.77139 0
M  V30 1970 H 186.909 5.50214 1.61052 0
M  V30 1971 H 185.306 5.92648 0.942762 0
M  V30 1972 H 186.376 4.84892 0.0279022 0
M  V30 1973 N 187.719 -0.156864 1.56817 0
M  V30 1974 C 188.667 -1.21319 1.98455 0
M  V30 1975 C 189.661 -1.45025 0.875444 0
M  V30 1976 O 190.867 -1.45435 1.0606 0
M  V30 1977 H 187.242 -0.408142 0.631605 0
M  V30 1978 H 189.213 -0.835244 2.86472 0
M  V30 1979 C 187.962 -2.54148 2.37285 0
M  V30 1980 H 187.285 -2.36733 3.22176 0
M  V30 1981 H 188.725 -3.26712 2.70251 0
M  V30 1982 C 187.184 -3.13967 1.22173 0
M  V30 1983 O 187.714 -3.98357 0.517149 0
M  V30 1984 N 185.92 -2.7327 0.988536 0
M  V30 1985 H 185.467 -2.04744 1.56326 0
M  V30 1986 H 185.425 -3.13628 0.220209 0
M  V30 1987 N 189.197 -1.51736 -0.425897 0
M  V30 1988 C 190.427 -1.68549 -1.19476 0
M  V30 1989 C 190.835 -0.387288 -1.85194 0
M  V30 1990 O 190.178 0.645142 -1.71999 0
M  V30 1991 C 190.24 -2.75275 -2.31223 0
M  V30 1992 C 189.904 -4.17534 -1.8578 0
M  V30 1993 C 190.901 -5.01936 -1.35485 0
M  V30 1994 C 188.586 -4.6369 -1.93123 0
M  V30 1995 C 190.58 -6.30559 -0.931347 0
M  V30 1996 C 188.267 -5.92307 -1.50384 0
M  V30 1997 C 189.265 -6.75569 -1.00473 0
M  V30 1998 O 188.953 -8.0178 -0.583452 0
M  V30 1999 H 188.685 -0.568525 -0.365725 0
M  V30 2000 H 191.239 -1.98982 -0.509444 0
M  V30 2001 H 189.469 -2.40182 -3.03067 0
M  V30 2002 H 191.158 -2.80853 -2.93047 0
M  V30 2003 H 191.924 -4.67475 -1.29197 0
M  V30 2004 H 187.803 -3.98997 -2.30916 0
M  V30 2005 H 191.347 -6.95498 -0.541084 0
M  V30 2006 H 187.244 -6.2628 -1.56346 0
M  V30 2007 H 188.012 -8.1543 -0.708275 0
M  V30 2008 N 190.675 0.682077 -1.42076 0
M  V30 2009 C 191.903 1.47057 -1.4554 0
M  V30 2010 C 192.318 1.8869 -0.0645779 0
M  V30 2011 O 191.675 1.57666 0.919115 0
M  V30 2012 C 191.726 2.72442 -2.37609 0
M  V30 2013 O 191.447 2.32559 -3.71279 0
M  V30 2014 C 192.948 3.66069 -2.50017 0
M  V30 2015 H 190.168 0.452737 -0.495248 0
M  V30 2016 H 192.712 0.838695 -1.8651 0
M  V30 2017 H 190.867 3.31835 -1.9991 0
M  V30 2018 H 191.281 3.13475 -4.20516 0
M  V30 2019 H 192.755 4.50792 -3.18576 0
M  V30 2020 H 193.232 4.11476 -1.53572 0
M  V30 2021 H 193.838 3.12572 -2.88407 0
M  V30 2022 N 192.153 1.28127 0.917671 0
M  V30 2023 C 193.083 1.14248 2.03641 0
M  V30 2024 C 194.064 0.0412748 1.7005 0
M  V30 2025 O 195.249 0.217566 1.92977 0
M  V30 2026 C 192.379 0.799431 3.37974 0
M  V30 2027 C 191.333 1.85497 3.85713 0
M  V30 2028 C 190.659 1.36565 5.16966 0
M  V30 2029 C 191.959 3.26085 4.08002 0
M  V30 2030 H 193.653 2.07835 2.15511 0
M  V30 2031 H 191.199 1.00064 1.03553 0
M  V30 2032 H 193.152 0.689114 4.15727 0
M  V30 2033 H 191.876 -0.172145 3.26146 0
M  V30 2034 H 190.535 1.95437 3.10161 0
M  V30 2035 H 190.183 0.383253 5.01538 0
M  V30 2036 H 189.883 2.07143 5.49878 0
M  V30 2037 H 191.407 1.26848 5.97279 0
M  V30 2038 H 192.821 3.19089 4.76293 0
M  V30 2039 H 191.218 3.94462 4.52238 0
M  V30 2040 H 192.288 3.70394 3.12948 0
M  V30 2041 N 193.631 -1.12557 1.10312 0
M  V30 2042 C 194.856 -1.88405 0.867085 0
M  V30 2043 C 195.281 -1.79038 -0.576817 0
M  V30 2044 O 194.639 -1.14439 -1.40618 0
M  V30 2045 C 194.687 -3.3563 1.31851 0
M  V30 2046 O 193.791 -4.09565 0.482734 0
M  V30 2047 H 193.132 -0.585455 0.313271 0
M  V30 2048 H 195.662 -1.42352 1.4696 0
M  V30 2049 H 195.672 -3.86469 1.3079 0
M  V30 2050 H 194.347 -3.41765 2.37001 0
M  V30 2051 H 192.924 -3.68695 0.558448 0
M  V30 2052 N 195.109 -0.891671 -1.2995 0
M  V30 2053 C 196.041 -0.320695 -2.26945 0
M  V30 2054 C 197.054 0.528497 -1.53983 0
M  V30 2055 O 198.243 0.346959 -1.75096 0
M  V30 2056 C 195.343 0.562066 -3.34207 0
M  V30 2057 C 194.516 -0.259576 -4.36629 0
M  V30 2058 C 193.575 0.554739 -5.23268 0
M  V30 2059 O 192.601 -0.0249311 -5.69195 0
M  V30 2060 N 193.803 1.8625 -5.4981 0
M  V30 2061 H 196.568 -1.15432 -2.76578 0
M  V30 2062 H 194.129 -0.755336 -1.432 0
M  V30 2063 H 196.121 1.11304 -3.89093 0
M  V30 2064 H 194.691 1.29637 -2.84452 0
M  V30 2065 H 193.911 -0.991986 -3.81514 0
M  V30 2066 H 195.199 -0.822564 -5.02107 0
M  V30 2067 H 194.597 2.35628 -5.14292 0
M  V30 2068 H 193.154 2.36078 -6.07545 0
M  V30 2069 N 196.587 1.43421 -0.653314 0
M  V30 2070 C 197.835 2.01414 -0.166415 0
M  V30 2071 C 198.156 1.51803 1.22397 0
M  V30 2072 O 197.426 0.730693 1.81763 0
M  V30 2073 H 196.006 0.744703 -0.0585319 0
M  V30 2074 H 198.668 1.75629 -0.845003 0
M  V30 2075 H 197.764 3.11734 -0.151111 0
M  V30 2076 N 198.065 0.39524 1.52563 0
M  V30 2077 C 199.015 -0.4541 2.23432 0
M  V30 2078 C 199.999 -1.02482 1.24042 0
M  V30 2079 O 201.191 -0.949938 1.49349 0
M  V30 2080 C 198.32 -1.57769 3.049 0
M  V30 2081 C 197.406 -1.01842 4.1169 0
M  V30 2082 N 197.797 -0.184613 5.05463 0
M  V30 2083 C 196.095 -1.29033 4.26927 0
M  V30 2084 C 196.796 0.125013 5.81566 0
M  V30 2085 N 195.772 -0.480498 5.41472 0
M  V30 2086 H 199.574 0.189413 2.93289 0
M  V30 2087 H 197.088 0.204877 1.61102 0
M  V30 2088 H 199.085 -2.19862 3.54212 0
M  V30 2089 H 197.745 -2.22397 2.36579 0
M  V30 2090 H 198.756 0.178602 5.17592 0
M  V30 2091 H 195.433 -1.93721 3.69836 0
M  V30 2092 H 196.823 0.800962 6.67109 0
M  V30 2093 N 199.544 -1.57102 0.125237 0
M  V30 2094 C 200.96 -1.57915 -0.231322 0
M  V30 2095 C 201.16 -1.13833 -1.66266 0
M  V30 2096 O 200.216 -0.828581 -2.38518 0
M  V30 2097 C 201.529 -3.00699 0.00766489 0
M  V30 2098 C 203.077 -3.12947 -0.0577483 0
M  V30 2099 C 203.552 -4.57742 0.153626 0
M  V30 2100 N 205.043 -4.63092 0.0998073 0
M  V30 2101 C 205.778 -5.72905 0.238174 0
M  V30 2102 N 205.274 -6.91445 0.433057 0
M  V30 2103 N 207.067 -5.6182 0.177308 0
M  V30 2104 H 199.218 -1.84055 1.06007 0
M  V30 2105 H 201.481 -0.850905 0.417929 0
M  V30 2106 H 201.187 -3.3726 0.997431 0
M  V30 2107 H 201.061 -3.70236 -0.721452 0
M  V30 2108 H 203.448 -2.7624 -1.03804 0
M  V30 2109 H 203.529 -2.4594 0.70335 0
M  V30 2110 H 203.173 -4.95149 1.13092 0
M  V30 2111 H 203.103 -5.22848 -0.627534 0
M  V30 2112 H 205.594 -3.77871 -0.047051 0
M  V30 2113 H 205.907 -7.70985 0.529332 0
M  V30 2114 H 204.252 -6.93415 0.469109 0
M  V30 2115 H 207.443 -4.68093 0.0259748 0
M  V30 2116 H 207.616 -6.47357 0.288582 0
M  V30 2117 N 201.022 0.148545 -1.56898 0
M  V30 2118 C 202.268 0.862694 -1.83536 0
M  V30 2119 C 202.601 1.80889 -0.706604 0
M  V30 2120 O 201.876 1.92328 0.289885 0
M  V30 2121 C 202.159 1.63853 -3.20662 0
M  V30 2122 C 202.012 0.713925 -4.44098 0
M  V30 2123 C 203.331 2.60133 -3.54991 0
M  V30 2124 H 200.45 0.312179 -0.667618 0
M  V30 2125 H 203.092 0.127953 -1.89569 0
M  V30 2126 H 201.242 2.26489 -3.1565 0
M  V30 2127 H 202.914 0.098686 -4.61194 0
M  V30 2128 H 201.157 0.0234019 -4.33794 0
M  V30 2129 H 201.828 1.29278 -5.36648 0
M  V30 2130 H 204.304 2.07616 -3.60603 0
M  V30 2131 H 203.18 3.11468 -4.51972 0
M  V30 2132 H 203.441 3.41417 -2.80868 0
M  V30 2133 N 202.5 1.5196 0.417844 0
M  V30 2134 C 203.746 1.65836 1.16732 0
M  V30 2135 C 204.079 0.382881 1.90388 0
M  V30 2136 O 203.354 -0.618368 1.84408 0
M  V30 2137 C 203.637 2.87466 2.16876 0
M  V30 2138 C 203.49 4.25041 1.47174 0
M  V30 2139 C 204.809 3.04613 3.17646 0
M  V30 2140 H 201.928 0.603515 0.423011 0
M  V30 2141 H 204.57 1.84494 0.454105 0
M  V30 2142 H 202.72 2.71689 2.777 0
M  V30 2143 H 204.392 4.52527 0.895376 0
M  V30 2144 H 202.635 4.26843 0.773806 0
M  V30 2145 H 203.306 5.06176 2.20204 0
M  V30 2146 H 205.782 3.1923 2.66892 0
M  V30 2147 H 204.658 3.91247 3.8499 0
M  V30 2148 H 204.919 2.17541 3.84874 0
M  V30 2149 N 203.978 -0.674533 1.42435 0
M  V30 2150 C 204.908 -1.80009 1.48724 0
M  V30 2151 C 205.889 -1.6659 0.343793 0
M  V30 2152 O 207.074 -1.86007 0.558137 0
M  V30 2153 C 204.204 -3.18306 1.38919 0
M  V30 2154 C 203.158 -3.46461 2.51294 0
M  V30 2155 C 202.484 -4.84335 2.26547 0
M  V30 2156 C 203.784 -3.43328 3.93603 0
M  V30 2157 H 205.478 -1.75004 2.42928 0
M  V30 2158 H 203.024 -0.840533 1.16923 0
M  V30 2159 H 204.977 -3.9678 1.41927 0
M  V30 2160 H 203.701 -3.2399 0.412094 0
M  V30 2161 H 202.36 -2.70348 2.47604 0
M  V30 2162 H 202.008 -4.86669 1.2713 0
M  V30 2163 H 201.708 -5.04136 3.01861 0
M  V30 2164 H 203.232 -5.65094 2.31304 0
M  V30 2165 H 204.646 -4.11772 3.98894 0
M  V30 2166 H 203.043 -3.74664 4.68771 0
M  V30 2167 H 204.113 -2.41897 4.20255 0
M  V30 2168 N 205.456 -1.28612 -0.910864 0
M  V30 2169 C 206.872 -1.06381 -1.18976 0
M  V30 2170 C 207.072 0.191998 -2.00583 0
M  V30 2171 O 206.128 0.892869 -2.36187 0
M  V30 2172 C 207.441 -2.31295 -1.92154 0
M  V30 2173 C 208.989 -2.36503 -2.05025 0
M  V30 2174 C 209.464 -3.61191 -2.81612 0
M  V30 2175 N 210.955 -3.61847 -2.89172 0
M  V30 2176 C 211.69 -4.55004 -3.4894 0
M  V30 2177 N 211.186 -5.58482 -4.09963 0
M  V30 2178 N 212.979 -4.42594 -3.46506 0
M  V30 2179 H 205.13 -2.09221 -0.366094 0
M  V30 2180 H 207.393 -0.921003 -0.224629 0
M  V30 2181 H 207.099 -3.228 -1.39618 0
M  V30 2182 H 206.973 -2.37934 -2.9269 0
M  V30 2183 H 209.36 -1.45494 -2.5674 0
M  V30 2184 H 209.441 -2.33857 -1.03657 0
M  V30 2185 H 209.085 -4.52545 -2.30576 0
M  V30 2186 H 209.015 -3.61092 -3.83302 0
M  V30 2187 H 211.506 -2.87022 -2.45819 0
M  V30 2188 H 211.819 -6.25704 -4.53557 0
M  V30 2189 H 210.164 -5.62305 -4.08459 0
M  V30 2190 H 213.355 -3.60953 -2.98045 0
M  V30 2191 H 213.528 -5.15381 -3.92793 0
M  V30 2192 N 206.934 1.1197 -1.10907 0
M  V30 2193 C 208.182 1.83225 -0.852819 0
M  V30 2194 C 208.503 1.84769 0.623341 0
M  V30 2195 O 207.773 1.3143 1.45269 0
M  V30 2196 H 206.353 0.67849 -0.312507 0
M  V30 2197 H 209.015 1.3556 -1.40033 0
M  V30 2198 H 208.111 2.87265 -1.22005 0
M  V30 2199 N 208.412 0.89855 1.29475 0
M  V30 2200 C 209.658 0.524658 1.95896 0
M  V30 2201 C 209.991 -0.926468 1.70676 0
M  V30 2202 O 209.266 -1.65665 1.01908 0
M  V30 2203 C 209.549 0.81633 3.50725 0
M  V30 2204 C 209.402 2.31907 3.85408 0
M  V30 2205 C 210.721 0.302038 4.39062 0
M  V30 2206 H 207.84 0.19209 0.711527 0
M  V30 2207 H 210.482 1.12502 1.53112 0
M  V30 2208 H 208.632 0.305369 3.87298 0
M  V30 2209 H 210.304 2.89949 3.58786 0
M  V30 2210 H 208.547 2.78027 3.32992 0
M  V30 2211 H 209.218 2.47373 4.93468 0
M  V30 2212 H 211.694 0.739551 4.09475 0
M  V30 2213 H 210.57 0.535331 5.46283 0
M  V30 2214 H 210.831 -0.797216 4.34853 0
M  V30 2215 N 209.89 -1.43072 0.660911 0
M  V30 2216 C 211.138 -2.01323 0.177094 0
M  V30 2217 C 211.459 -1.5245 -1.2159 0
M  V30 2218 O 210.729 -0.740322 -1.81373 0
M  V30 2219 H 209.309 -0.744382 0.0624804 0
M  V30 2220 H 211.971 -1.75179 0.854305 0
M  V30 2221 H 211.067 -3.11649 0.167641 0
M  V30 2222 N 211.368 -0.403325 -1.52352 0
M  V30 2223 C 212.616 0.174003 -2.0135 0
M  V30 2224 C 212.937 1.46139 -1.29106 0
M  V30 2225 O 212.207 1.91448 -0.415253 0
M  V30 2226 H 210.787 0.0672911 -0.743963 0
M  V30 2227 H 213.449 -0.538235 -1.87321 0
M  V30 2228 H 212.545 0.374254 -3.09848 0
M  V30 2229 N 212.846 1.57033 -0.133567 0
M  V30 2230 C 214.071 2.00475 0.531477 0
M  V30 2231 C 214.496 1.01291 1.58499 0
M  V30 2232 O 213.854 -0.0133279 1.81295 0
M  V30 2233 C 213.902 3.42729 1.12113 0
M  V30 2234 O 213.006 3.46498 2.23636 0
M  V30 2235 H 212.347 0.650876 0.131362 0
M  V30 2236 H 214.877 2.03344 -0.22634 0
M  V30 2237 H 214.887 3.81246 1.4531 0
M  V30 2238 H 213.562 4.14428 0.349557 0
M  V30 2239 H 212.139 3.19811 1.91769 0
M  V30 2240 N 214.325 -0.140222 1.56975 0
M  V30 2241 C 215.257 -1.19818 1.95388 0
M  V30 2242 C 216.27 -1.38816 0.850525 0
M  V30 2243 O 217.459 -1.38267 1.12891 0
M  V30 2244 C 214.559 -2.56189 2.21857 0
M  V30 2245 C 213.732 -2.58077 3.5315 0
M  V30 2246 C 212.791 -3.76037 3.6808 0
M  V30 2247 O 211.817 -3.60598 4.40406 0
M  V30 2248 N 213.019 -4.93763 3.05251 0
M  V30 2249 H 215.784 -0.871609 2.86746 0
M  V30 2250 H 213.345 -0.32972 1.58507 0
M  V30 2251 H 215.337 -3.33623 2.2908 0
M  V30 2252 H 213.907 -2.81111 1.36731 0
M  V30 2253 H 213.127 -1.6651 3.57307 0
M  V30 2254 H 214.415 -2.56377 4.39486 0
M  V30 2255 H 213.813 -5.09209 2.46419 0
M  V30 2256 H 212.37 -5.68949 3.18026 0
M  V30 2257 N 215.803 -1.52179 -0.40978 0
M  V30 2258 C 217.214 -1.58377 -0.988615 0
M  V30 2259 C 217.565 -0.423879 -1.91566 0
M  V30 2260 O 216.69 0.455844 -2.11544 0
M  V30 2261 C 217.285 -2.87044 -1.79976 0
M  V30 2262 C 215.844 -2.95722 -2.32863 0
M  V30 2263 C 214.991 -2.53309 -1.12828 0
M  V30 2264 H 217.942 -1.57558 -0.190039 0
M  V30 2265 H 217.963 -2.7236 -2.65707 0
M  V30 2266 H 217.475 -3.71444 -1.12478 0
M  V30 2267 H 215.576 -2.15814 -3.03735 0
M  V30 2268 H 215.689 -3.99951 -2.63773 0
M  V30 2269 H 214.053 -2.07142 -1.48204 0
M  V30 2270 H 214.836 -3.40082 -0.46897 0
M  V30 2271 N 217.281 0.66697 -1.42791 0
M  V30 2272 C 218.692 1.2478 -1.38877 0
M  V30 2273 C 219.043 1.96012 -0.0859426 0
M  V30 2274 O 218.168 2.00463 0.815081 0
M  V30 2275 C 218.763 2.26938 -2.51564 0
M  V30 2276 C 217.322 2.80529 -2.50959 0
M  V30 2277 C 216.469 1.54965 -2.29959 0
M  V30 2278 H 219.42 0.459853 -1.51892 0
M  V30 2279 H 219.441 3.08834 -2.22265 0
M  V30 2280 H 218.953 1.75065 -3.46372 0
M  V30 2281 H 217.054 3.36502 -1.59991 0
M  V30 2282 H 217.167 3.29012 -3.48265 0
M  V30 2283 H 215.531 1.81817 -1.78366 0
M  V30 2284 H 216.314 1.05047 -3.26833 0
M  V30 2285 N 218.759 1.29093 0.90403 0
M  V30 2286 C 220.036 1.075 1.63411 0
M  V30 2287 C 220.416 -0.382346 2.07609 0
M  V30 2288 O 219.764 -1.37031 1.82851 0
M  V30 2289 C 219.974 2.05858 2.81822 0
M  V30 2290 C 221.322 2.36539 3.52611 0
M  V30 2291 O 222.346 2.04019 2.91984 0
M  V30 2292 O 221.205 2.92085 4.61897 0
M  V30 2293 H 218.299 0.411547 0.717327 0
M  V30 2294 H 220.845 1.40449 0.952479 0
M  V30 2295 H 219.617 3.04037 2.46327 0
M  V30 2296 H 219.24 1.73613 3.57693 0
M  V30 2297 N 220.237 -1.11381 1.11499 0
M  V30 2298 C 221.486 -1.82494 0.858993 0
M  V30 2299 C 221.799 -1.85605 -0.617278 0
M  V30 2300 O 223.005 -2.52824 -0.989552 0
M  V30 2301 C 221.461 -3.27745 1.48699 0
M  V30 2302 C 221.069 -3.32961 2.99735 0
M  V30 2303 C 222.813 -4.03754 1.31085 0
M  V30 2304 C 220.72 -4.72612 3.55516 0
M  V30 2305 H 219.65 -0.683802 0.317696 0
M  V30 2306 H 222.301 -1.25331 1.34031 0
M  V30 2307 H 220.683 -3.84844 0.933339 0
M  V30 2308 H 221.857 -2.85741 3.61509 0
M  V30 2309 H 220.172 -2.70433 3.16631 0
M  V30 2310 H 222.769 -5.06891 1.70192 0
M  V30 2311 H 223.112 -4.15527 0.253496 0
M  V30 2312 H 223.645 -3.53043 1.83318 0
M  V30 2313 H 220.384 -4.66036 4.60967 0
M  V30 2314 H 219.904 -5.2024 2.98513 0
M  V30 2315 H 221.583 -5.4157 3.53992 0
M  V30 2316 N 221.715 -0.905404 -1.28997 0
M  V30 2317 C 222.992 -0.453513 -1.9027 0
M  V30 2318 C 223.372 1.06721 -1.82137 0
M  V30 2319 O 222.72 1.91159 -1.25182 0
M  V30 2320 C 222.93 -0.974494 -3.35119 0
M  V30 2321 C 224.278 -1.0216 -4.12127 0
M  V30 2322 O 225.302 -0.922557 -3.44046 0
M  V30 2323 O 224.161 -1.17121 -5.33802 0
M  V30 2324 H 221.255 -0.142347 -0.814657 0
M  V30 2325 H 223.801 -0.995642 -1.37423 0
M  V30 2326 H 222.573 -2.01848 -3.35221 0
M  V30 2327 H 222.196 -0.412706 -3.95452 0
M  V30 2328 N 223.193 1.4272 -0.668489 0
M  V30 2329 C 224.14 2.30796 0.0137489 0
M  V30 2330 C 225.11 1.4561 0.799177 0
M  V30 2331 O 226.295 1.74453 0.772702 0
M  V30 2332 C 223.435 3.31377 0.963507 0
M  V30 2333 C 222.548 4.31655 0.172569 0
M  V30 2334 C 221.683 5.19312 1.1175 0
M  V30 2335 C 220.722 6.11274 0.317886 0
M  V30 2336 N 219.859 6.91504 1.2152 0
M  V30 2337 H 224.699 2.88585 -0.743161 0
M  V30 2338 H 222.236 1.42154 -0.378226 0
M  V30 2339 H 224.194 3.88214 1.52792 0
M  V30 2340 H 222.824 2.75202 1.68712 0
M  V30 2341 H 221.876 3.76988 -0.508374 0
M  V30 2342 H 223.188 4.96779 -0.448527 0
M  V30 2343 H 222.342 5.80851 1.75206 0
M  V30 2344 H 221.081 4.5435 1.77249 0
M  V30 2345 H 220.086 5.48809 -0.329918 0
M  V30 2346 H 221.311 6.78283 -0.332917 0
M  V30 2347 H 219.257 6.29176 1.85671 0
M  V30 2348 H 219.174 7.53209 0.649036 0
M  V30 2349 H 220.442 7.57535 1.83742 0
M  V30 2350 N 224.671 0.411399 1.52136 0
M  V30 2351 C 225.899 -0.163076 2.06256 0
M  V30 2352 C 226.314 -1.3867 1.28125 0
M  V30 2353 O 225.671 -1.79423 0.333721 0
M  V30 2354 C 225.722 -0.511252 3.57867 0
M  V30 2355 O 225.443 0.66378 4.33042 0
M  V30 2356 C 226.944 -1.13921 4.28412 0
M  V30 2357 H 224.164 -0.0193897 0.67072 0
M  V30 2358 H 226.708 0.583007 1.96013 0
M  V30 2359 H 224.863 -1.20723 3.6811 0
M  V30 2360 H 225.277 0.372601 5.23175 0
M  V30 2361 H 226.751 -1.33302 5.35663 0
M  V30 2362 H 227.228 -2.11296 3.85033 0
M  V30 2363 H 227.834 -0.483373 4.22544 0
M  V30 2364 N 226.149 -1.5696 0.141893 0
M  V30 2365 C 227.059 -2.20066 -0.812905 0
M  V30 2366 C 228.075 -1.18344 -1.27557 0
M  V30 2367 O 229.251 -1.50902 -1.33381 0
M  V30 2368 C 226.316 -2.80583 -2.03652 0
M  V30 2369 C 225.377 -3.97414 -1.62359 0
M  V30 2370 C 224.61 -4.55036 -2.78887 0
M  V30 2371 O 224.833 -4.11538 -3.94959 0
M  V30 2372 O 223.767 -5.45376 -2.54653 0
M  V30 2373 H 227.593 -3.02157 -0.305746 0
M  V30 2374 H 225.178 -1.49159 -0.0848799 0
M  V30 2375 H 227.06 -3.19067 -2.75272 0
M  V30 2376 H 225.735 -2.01508 -2.5333 0
M  V30 2377 H 224.642 -3.63656 -0.877775 0
M  V30 2378 H 225.975 -4.77994 -1.17401 0
M  V30 2379 N 227.627 0.131896 -1.57047 0
M  V30 2380 C 228.557 1.16384 -2.02428 0
M  V30 2381 C 229.538 1.43936 -0.90644 0
M  V30 2382 O 230.723 1.54599 -1.17528 0
M  V30 2383 C 227.853 2.49328 -2.4177 0
M  V30 2384 C 226.807 2.36266 -3.56879 0
M  V30 2385 C 226.133 3.74057 -3.8208 0
M  V30 2386 C 227.433 1.834 -4.89042 0
M  V30 2387 H 229.127 0.786433 -2.88887 0
M  V30 2388 H 226.673 0.376855 -1.38981 0
M  V30 2389 H 228.626 3.21759 -2.7212 0
M  V30 2390 H 227.35 2.88934 -1.52266 0
M  V30 2391 H 226.009 1.66286 -3.26718 0
M  V30 2392 H 225.657 4.11125 -2.89803 0
M  V30 2393 H 225.357 3.66174 -4.59554 0
M  V30 2394 H 226.881 4.48012 -4.1487 0
M  V30 2395 H 228.295 2.45636 -5.18011 0
M  V30 2396 H 226.692 1.8637 -5.70426 0
M  V30 2397 H 227.762 0.790662 -4.7841 0
M  V30 2398 N 229.106 1.52395 0.401703 0
M  V30 2399 C 230.352 1.67065 1.14966 0
M  V30 2400 C 230.685 0.403052 1.89971 0
M  V30 2401 O 229.96 -0.598774 1.85054 0
M  V30 2402 C 230.243 2.8975 2.13815 0
M  V30 2403 C 230.096 4.26578 1.42658 0
M  V30 2404 C 231.415 3.07965 3.14397 0
M  V30 2405 H 228.534 0.607968 0.416587 0
M  V30 2406 H 231.176 1.84965 0.434511 0
M  V30 2407 H 229.326 2.74619 2.74803 0
M  V30 2408 H 230.998 4.53451 0.847329 0
M  V30 2409 H 229.241 4.27639 0.72849 0
M  V30 2410 H 229.912 5.08483 2.14823 0
M  V30 2411 H 232.388 3.22043 2.63491 0
M  V30 2412 H 231.264 3.95308 3.80819 0
M  V30 2413 H 231.525 2.21611 3.82545 0
M  V30 2414 N 230.584 -0.659388 1.43143 0
M  V30 2415 C 231.494 -1.80167 1.50256 0
M  V30 2416 C 232.51 -1.69571 0.390106 0
M  V30 2417 O 233.686 -1.90849 0.643319 0
M  V30 2418 C 230.751 -3.16409 1.41725 0
M  V30 2419 C 229.812 -3.38848 2.63591 0
M  V30 2420 C 229.045 -4.68591 2.55458 0
M  V30 2421 O 229.268 -5.47532 1.59891 0
M  V30 2422 O 228.202 -4.92614 3.45854 0
M  V30 2423 H 232.028 -1.77121 2.46702 0
M  V30 2424 H 229.613 -0.817092 1.25076 0
M  V30 2425 H 231.495 -3.9768 1.39387 0
M  V30 2426 H 230.17 -3.20059 0.484118 0
M  V30 2427 H 229.077 -2.57366 2.71502 0
M  V30 2428 H 230.41 -3.4004 3.55856 0
M  V30 2429 N 232.062 -1.29571 -0.897171 0
M  V30 2430 C 233.473 -1.15964 -1.46319 0
M  V30 2431 C 233.824 0.244267 -1.94674 0
M  V30 2432 O 232.949 1.13998 -1.83939 0
M  V30 2433 C 233.544 -2.09906 -2.65942 0
M  V30 2434 C 232.103 -2.00314 -3.18671 0
M  V30 2435 C 231.25 -2.00687 -1.91363 0
M  V30 2436 H 234.201 -1.42019 -0.708268 0
M  V30 2437 H 234.222 -1.67276 -3.41759 0
M  V30 2438 H 233.734 -3.12075 -2.30718 0
M  V30 2439 H 231.835 -1.01242 -3.58582 0
M  V30 2440 H 231.948 -2.88102 -3.82798 0
M  V30 2441 H 230.312 -1.45319 -2.09175 0
M  V30 2442 H 231.095 -3.04566 -1.58413 0
M  V30 2443 N 233.54 1.10788 -1.12088 0
M  V30 2444 C 234.768 1.86461 -0.896651 0
M  V30 2445 C 235.183 1.80492 0.553912 0
M  V30 2446 O 234.54 1.19102 1.38278 0
M  V30 2447 C 234.591 3.35006 -1.35843 0
M  V30 2448 O 234.312 3.40866 -2.75213 0
M  V30 2449 C 235.813 4.27565 -1.1706 0
M  V30 2450 H 233.033 0.589425 -0.320654 0
M  V30 2451 H 235.577 1.40076 -1.48993 0
M  V30 2452 H 233.732 3.7887 -0.808458 0
M  V30 2453 H 234.146 4.33411 -2.9539 0
M  V30 2454 H 235.62 5.30007 -1.54263 0
M  V30 2455 H 236.097 4.3906 -0.110814 0
M  V30 2456 H 236.703 3.89501 -1.70789 0
M  V30 2457 N 235.018 0.912232 1.28515 0
M  V30 2458 C 235.928 0.404506 2.31086 0
M  V30 2459 C 236.944 -0.50707 1.66448 0
M  V30 2460 O 238.12 -0.393624 1.97516 0
M  V30 2461 C 235.185 -0.348572 3.44943 0
M  V30 2462 C 234.246 0.59604 4.25142 0
M  V30 2463 C 233.479 -0.121194 5.33562 0
M  V30 2464 O 233.702 -1.34317 5.5436 0
M  V30 2465 O 232.636 0.542716 5.99448 0
M  V30 2466 H 236.462 1.25579 2.76521 0
M  V30 2467 H 234.047 0.676998 1.33181 0
M  V30 2468 H 235.929 -0.77395 4.14232 0
M  V30 2469 H 234.604 -1.17571 3.01594 0
M  V30 2470 H 233.511 1.07079 3.58448 0
M  V30 2471 H 234.844 1.38995 4.72167 0
M  V30 2472 N 236.496 -1.42363 0.676048 0
M  V30 2473 C 237.726 -2.05561 0.206967 0
M  V30 2474 C 238.134 -1.50887 -1.14148 0
M  V30 2475 O 237.477 -0.643933 -1.72044 0
M  V30 2476 C 237.539 -3.5944 0.0659508 0
M  V30 2477 C 237.203 -4.36812 1.34331 0
M  V30 2478 C 238.2 -4.67383 2.27704 0
M  V30 2479 C 235.885 -4.76429 1.59125 0
M  V30 2480 C 237.879 -5.36509 3.44147 0
M  V30 2481 C 235.566 -5.45294 2.75857 0
M  V30 2482 C 236.564 -5.75259 3.68193 0
M  V30 2483 O 236.252 -6.42712 4.82883 0
M  V30 2484 H 235.984 -0.668872 0.0979084 0
M  V30 2485 H 238.538 -1.83467 0.923531 0
M  V30 2486 H 236.768 -3.80197 -0.706204 0
M  V30 2487 H 238.457 -4.0427 -0.363418 0
M  V30 2488 H 239.223 -4.37275 2.09799 0
M  V30 2489 H 235.102 -4.52498 0.881258 0
M  V30 2490 H 238.646 -5.59814 4.16238 0
M  V30 2491 H 234.543 -5.7482 2.93688 0
M  V30 2492 H 235.311 -6.61204 4.82444 0
M  V30 2493 N 237.974 -0.419461 -1.51915 0
M  V30 2494 C 238.904 0.391813 -2.30189 0
M  V30 2495 C 239.885 1.03699 -1.34836 0
M  V30 2496 O 241.07 1.04403 -1.63748 0
M  V30 2497 C 238.2 1.50312 -3.13087 0
M  V30 2498 C 237.154 0.9824 -4.16573 0
M  V30 2499 C 236.48 2.18809 -4.8788 0
M  V30 2500 C 237.78 0.0292356 -5.22292 0
M  V30 2501 H 239.474 -0.26135 -2.98257 0
M  V30 2502 H 237.02 -0.127134 -1.43438 0
M  V30 2503 H 238.973 2.07773 -3.66617 0
M  V30 2504 H 237.697 2.18431 -2.42807 0
M  V30 2505 H 236.356 0.430119 -3.64068 0
M  V30 2506 H 236.004 2.85507 -4.14119 0
M  V30 2507 H 235.704 1.84615 -5.57845 0
M  V30 2508 H 237.228 2.76858 -5.44226 0
M  V30 2509 H 238.642 0.512976 -5.71 0
M  V30 2510 H 237.039 -0.2244 -5.9968 0
M  V30 2511 H 238.109 -0.912931 -4.76228 0
M  V30 2512 N 239.452 1.56882 -0.150215 0
M  V30 2513 C 240.698 1.96518 0.500834 0
M  V30 2514 C 241.031 1.03527 1.64304 0
M  V30 2515 O 240.306 0.0782751 1.94342 0
M  V30 2516 C 240.589 3.45822 1.00395 0
M  V30 2517 C 240.442 4.49591 -0.136983 0
M  V30 2518 C 241.761 3.97704 1.88467 0
M  V30 2519 H 238.88 0.714535 0.18058 0
M  V30 2520 H 241.522 1.88577 -0.232091 0
M  V30 2521 H 239.672 3.5272 1.62851 0
M  V30 2522 H 241.344 4.5477 -0.77343 0
M  V30 2523 H 239.587 4.26441 -0.795652 0
M  V30 2524 H 240.258 5.51402 0.256815 0
M  V30 2525 H 242.734 3.93304 1.35834 0
M  V30 2526 H 241.61 5.0263 2.20578 0
M  V30 2527 H 241.871 3.40252 2.82279 0
M  V30 2528 N 240.93 -0.123565 1.57115 0
M  V30 2529 C 242.176 -0.833386 1.84885 0
M  V30 2530 C 242.509 -1.79742 0.735292 0
M  V30 2531 O 241.784 -1.92764 -0.25925 0
M  V30 2532 C 242.067 -1.5873 3.23228 0
M  V30 2533 C 241.92 -0.643183 4.45178 0
M  V30 2534 C 243.239 -2.54453 3.59085 0
M  V30 2535 H 240.358 -0.301518 0.6725 0
M  V30 2536 H 243 -0.097778 1.89748 0
M  V30 2537 H 241.15 -2.21438 3.19214 0
M  V30 2538 H 242.822 -0.0253015 4.61293 0
M  V30 2539 H 241.065 0.0456139 4.33776 0
M  V30 2540 H 241.736 -1.20724 5.38637 0
M  V30 2541 H 244.212 -2.01853 3.63861 0
M  V30 2542 H 243.088 -3.04238 4.5687 0
M  V30 2543 H 243.349 -3.36906 2.86264 0
M  V30 2544 N 242.408 -1.52605 -0.393616 0
M  V30 2545 C 243.358 -1.73436 -1.48 0
M  V30 2546 C 244.342 -0.588386 -1.49756 0
M  V30 2547 O 245.534 -0.846047 -1.5547 0
M  V30 2548 C 242.663 -1.90247 -2.85764 0
M  V30 2549 C 241.749 -3.10763 -2.88595 0
M  V30 2550 N 242.14 -4.33196 -2.61103 0
M  V30 2551 C 240.438 -3.10914 -3.19763 0
M  V30 2552 C 241.139 -5.1477 -2.70899 0
M  V30 2553 N 240.115 -4.50356 -3.04435 0
M  V30 2554 H 243.917 -2.65727 -1.25563 0
M  V30 2555 H 241.431 -1.5085 -0.601513 0
M  V30 2556 H 243.428 -2.03291 -3.63976 0
M  V30 2557 H 242.088 -0.991663 -3.09186 0
M  V30 2558 H 243.099 -4.61408 -2.35209 0
M  V30 2559 H 239.776 -2.29626 -3.4868 0
M  V30 2560 H 241.166 -6.22355 -2.53227 0
M  V30 2561 N 243.887 0.651787 -1.4349 0
M  V30 2562 C 244.817 1.77621 -1.51569 0
M  V30 2563 C 245.798 1.66022 -0.370253 0
M  V30 2564 O 246.983 1.85095 -0.587658 0
M  V30 2565 C 244.113 3.16056 -1.43966 0
M  V30 2566 C 243.067 3.4242 -2.56774 0
M  V30 2567 C 242.393 4.8067 -2.34223 0
M  V30 2568 C 243.693 3.37023 -3.99015 0
M  V30 2569 H 245.387 1.71117 -2.45681 0
M  V30 2570 H 242.933 0.821825 -1.18246 0
M  V30 2571 H 244.886 3.94472 -1.48221 0
M  V30 2572 H 243.61 3.23293 -0.463586 0
M  V30 2573 H 242.269 2.66375 -2.51873 0
M  V30 2574 H 241.917 4.84585 -1.34856 0
M  V30 2575 H 241.617 4.9927 -3.09844 0
M  V30 2576 H 243.141 5.61342 -2.40265 0
M  V30 2577 H 244.555 4.05374 -4.05395 0
M  V30 2578 H 242.952 3.67159 -4.74673 0
M  V30 2579 H 244.022 2.3518 -4.2405 0
M  V30 2580 N 245.365 1.30045 0.890287 0
M  V30 2581 C 246.312 1.15976 1.99545 0
M  V30 2582 C 247.282 0.0506202 1.66023 0
M  V30 2583 O 248.467 0.219847 1.89529 0
M  V30 2584 C 245.607 0.852054 3.34416 0
M  V30 2585 C 244.72 2.04255 3.80662 0
M  V30 2586 C 243.855 1.6734 5.04154 0
M  V30 2587 C 242.894 2.82916 5.42794 0
M  V30 2588 N 242.031 2.46333 6.57468 0
M  V30 2589 H 246.871 2.10524 2.10911 0
M  V30 2590 H 244.408 1.04749 1.03276 0
M  V30 2591 H 246.366 0.654296 4.12037 0
M  V30 2592 H 244.996 -0.0565502 3.2275 0
M  V30 2593 H 244.048 2.35172 2.98995 0
M  V30 2594 H 245.36 2.90826 4.05242 0
M  V30 2595 H 244.514 1.43908 5.89386 0
M  V30 2596 H 243.253 0.779308 4.81433 0
M  V30 2597 H 242.258 3.0702 4.56091 0
M  V30 2598 H 243.483 3.73004 5.6749 0
M  V30 2599 H 241.429 1.59423 6.36334 0
M  V30 2600 H 241.346 3.26436 6.81891 0
M  V30 2601 H 242.614 2.26244 7.45945 0
M  V30 2602 N 246.843 -1.10192 1.12674 0
M  V30 2603 C 248.091 -1.81845 0.881861 0
M  V30 2604 C 248.412 -1.85737 -0.593867 0
M  V30 2605 O 247.682 -1.33724 -1.4316 0
M  V30 2606 H 246.262 -0.673432 0.323261 0
M  V30 2607 H 248.924 -1.33316 1.42172 0
M  V30 2608 H 248.02 -2.85288 1.2656 0
M  V30 2609 N 248.321 -0.919034 -1.28029 0
M  V30 2610 C 249.546 -0.570357 -1.99403 0
M  V30 2611 C 249.971 0.842486 -1.68178 0
M  V30 2612 O 249.329 1.56391 -0.917141 0
M  V30 2613 C 249.377 -0.792541 -3.51783 0
M  V30 2614 O 248.481 0.145988 -4.12142 0
M  V30 2615 H 247.822 -0.220555 -0.6263 0
M  V30 2616 H 250.352 -1.23592 -1.63053 0
M  V30 2617 H 250.362 -0.704708 -4.01868 0
M  V30 2618 H 249.037 -1.82247 -3.73844 0
M  V30 2619 H 247.614 0.00897528 -3.72899 0
M  V30 2620 N 249.799 1.42003 -0.683588 0
M  V30 2621 C 250.729 2.33487 -0.024866 0
M  V30 2622 C 251.71 1.51163 0.779975 0
M  V30 2623 O 252.895 1.79739 0.735362 0
M  V30 2624 C 250.025 3.3487 0.920836 0
M  V30 2625 C 248.979 4.27414 0.223958 0
M  V30 2626 C 248.305 5.19074 1.2832 0
M  V30 2627 C 249.605 5.14445 -0.90242 0
M  V30 2628 H 251.299 2.88819 -0.788921 0
M  V30 2629 H 248.845 1.38873 -0.38083 0
M  V30 2630 H 250.798 3.97787 1.39081 0
M  V30 2631 H 249.522 2.77861 1.71642 0
M  V30 2632 H 248.181 3.65904 -0.225864 0
M  V30 2633 H 247.829 4.58387 2.071 0
M  V30 2634 H 247.529 5.81822 0.821995 0
M  V30 2635 H 249.053 5.84867 1.75392 0
M  V30 2636 H 250.467 5.70998 -0.513272 0
M  V30 2637 H 248.864 5.86072 -1.28997 0
M  V30 2638 H 249.934 4.52322 -1.74737 0
M  V30 2639 N 251.277 0.427512 1.51691 0
M  V30 2640 C 252.523 -0.142439 2.02299 0
M  V30 2641 C 252.856 -1.43214 1.31162 0
M  V30 2642 O 252.131 -1.89833 0.423511 0
M  V30 2643 C 252.414 -0.371301 3.58181 0
M  V30 2644 C 252.267 0.936358 4.39946 0
M  V30 2645 C 253.586 -1.14542 4.24933 0
M  V30 2646 H 250.705 -0.0502937 0.735282 0
M  V30 2647 H 253.347 0.564584 1.81418 0
M  V30 2648 H 251.497 -0.973559 3.76104 0
M  V30 2649 H 253.169 1.57184 4.33694 0
M  V30 2650 H 251.412 1.5432 4.05423 0
M  V30 2651 H 252.083 0.730388 5.47147 0
M  V30 2652 H 254.559 -0.635362 4.11221 0
M  V30 2653 H 253.435 -1.27431 5.33903 0
M  V30 2654 H 253.696 -2.17093 3.85127 0
M  V30 2655 N 252.755 -1.56801 0.158532 0
M  V30 2656 C 253.702 -2.17337 -0.776729 0
M  V30 2657 C 254.672 -1.1096 -1.23601 0
M  V30 2658 O 255.857 -1.39054 -1.30647 0
M  V30 2659 C 252.997 -2.80822 -2.00582 0
M  V30 2660 C 252.11 -4.01624 -1.59129 0
M  V30 2661 C 251.245 -4.53072 -2.77306 0
M  V30 2662 C 250.284 -5.66314 -2.32282 0
M  V30 2663 N 249.421 -6.12329 -3.43508 0
M  V30 2664 H 254.261 -2.96918 -0.253701 0
M  V30 2665 H 251.798 -1.46661 -0.113504 0
M  V30 2666 H 253.756 -3.15779 -2.72652 0
M  V30 2667 H 252.386 -2.03866 -2.50277 0
M  V30 2668 H 251.438 -3.72571 -0.767806 0
M  V30 2669 H 252.75 -4.83633 -1.2207 0
M  V30 2670 H 251.904 -4.90145 -3.57551 0
M  V30 2671 H 250.643 -3.70095 -3.17617 0
M  V30 2672 H 249.648 -5.28806 -1.5048 0
M  V30 2673 H 250.873 -6.51085 -1.93043 0
M  V30 2674 H 248.819 -5.32284 -3.83418 0
M  V30 2675 H 248.736 -6.89293 -3.105 0
M  V30 2676 H 250.004 -6.5405 -4.24075 0
M  V30 2677 N 254.233 0.115231 -1.57178 0
M  V30 2678 C 255.51 0.852873 -1.76027 0
M  V30 2679 C 255.89 1.97892 -0.73498 0
M  V30 2680 O 255.238 2.27232 0.24036 0
M  V30 2681 C 255.448 1.36608 -3.21153 0
M  V30 2682 C 256.796 1.81692 -3.83762 0
M  V30 2683 O 257.82 1.46278 -3.24779 0
M  V30 2684 O 256.679 2.47104 -4.87444 0
M  V30 2685 H 253.773 0.405296 -0.720877 0
M  V30 2686 H 256.319 0.0986785 -1.69413 0
M  V30 2687 H 255.091 0.558357 -3.87296 0
M  V30 2688 H 254.714 2.18287 -3.3232 0
M  V30 2689 N 255.711 1.52812 0.385517 0
M  V30 2690 C 256.936 1.72207 1.15583 0
M  V30 2691 C 257.361 0.441034 1.82857 0
M  V30 2692 O 256.719 -0.603465 1.70962 0
M  V30 2693 C 256.767 2.87476 2.17692 0
M  V30 2694 O 255.871 2.54693 3.24354 0
M  V30 2695 H 255.212 0.572526 0.336319 0
M  V30 2696 H 257.742 1.99618 0.448744 0
M  V30 2697 H 257.752 3.13072 2.6163 0
M  V30 2698 H 256.427 3.80408 1.68115 0
M  V30 2699 H 255.004 2.3985 2.85529 0
M  V30 2700 N 257.189 -0.644168 1.43834 0
M  V30 2701 C 258.121 -1.76955 1.45669 0
M  V30 2702 C 259.134 -1.58956 0.351666 0
M  V30 2703 O 260.323 -1.6751 0.616644 0
M  V30 2704 C 257.423 -3.14507 1.26248 0
M  V30 2705 C 256.596 -3.59083 2.49757 0
M  V30 2706 C 255.655 -4.75467 2.25427 0
M  V30 2707 O 254.681 -4.84444 2.98836 0
M  V30 2708 N 255.883 -5.66289 1.27661 0
M  V30 2709 H 258.648 -1.75856 2.42682 0
M  V30 2710 H 256.209 -0.828312 1.39106 0
M  V30 2711 H 258.201 -3.90067 1.0784 0
M  V30 2712 H 256.771 -3.10325 0.376478 0
M  V30 2713 H 255.991 -2.7387 2.8353 0
M  V30 2714 H 257.279 -3.85613 3.31934 0
M  V30 2715 H 256.677 -5.61718 0.670064 0
M  V30 2716 H 255.234 -6.41533 1.15234 0
M  V30 2717 N 258.668 -1.30515 -0.883378 0
M  V30 2718 C 259.898 -1.22182 -1.66599 0
M  V30 2719 C 260.306 0.217507 -1.87946 0
M  V30 2720 O 259.649 1.1554 -1.42815 0
M  V30 2721 C 259.711 -1.88146 -3.06335 0
M  V30 2722 C 259.375 -3.37476 -3.08154 0
M  V30 2723 C 260.372 -4.33443 -2.87094 0
M  V30 2724 C 258.057 -3.7895 -3.29701 0
M  V30 2725 C 260.051 -5.68858 -2.8754 0
M  V30 2726 C 257.738 -5.14482 -3.29776 0
M  V30 2727 C 258.736 -6.09246 -3.0872 0
M  V30 2728 O 258.424 -7.42302 -3.08615 0
M  V30 2729 H 258.156 -0.423898 -0.52658 0
M  V30 2730 H 260.71 -1.72703 -1.11188 0
M  V30 2731 H 258.94 -1.32157 -3.63416 0
M  V30 2732 H 260.629 -1.7391 -3.66756 0
M  V30 2733 H 261.395 -4.02733 -2.70243 0
M  V30 2734 H 257.274 -3.05631 -3.45124 0
M  V30 2735 H 260.818 -6.428 -2.71024 0
M  V30 2736 H 256.715 -5.44832 -3.46163 0
M  V30 2737 H 257.483 -7.5131 -3.24769 0
M  V30 2738 N 260.146 1.09593 -1.13257 0
M  V30 2739 C 261.056 2.19739 -0.821691 0
M  V30 2740 C 262.072 1.72926 0.19302 0
M  V30 2741 O 263.248 2.01385 0.0244895 0
M  V30 2742 C 260.313 3.45482 -0.290333 0
M  V30 2743 C 259.374 4.06985 -1.36607 0
M  V30 2744 C 258.607 5.26726 -0.859975 0
M  V30 2745 O 258.83 5.69594 0.303082 0
M  V30 2746 O 257.764 5.7931 -1.63351 0
M  V30 2747 H 261.59 2.48781 -1.74189 0
M  V30 2748 H 259.175 1.18496 -0.909894 0
M  V30 2749 H 261.057 4.214 0.000674022 0
M  V30 2750 H 259.732 3.18047 0.602306 0
M  V30 2751 H 258.639 3.32712 -1.71037 0
M  V30 2752 H 259.972 4.38643 -2.23279 0
M  V30 2753 N 261.624 0.925811 1.2754 0
M  V30 2754 C 262.557 0.367836 2.25216 0
M  V30 2755 C 263.535 -0.534738 1.53556 0
M  V30 2756 O 264.719 -0.475672 1.824 0
M  V30 2757 C 261.846 -0.47298 3.35381 0
M  V30 2758 C 260.892 0.365898 4.24928 0
M  V30 2759 S 261.725 1.78025 5.05042 0
M  V30 2760 C 262.881 0.947068 6.18693 0
M  V30 2761 H 263.114 1.19568 2.72196 0
M  V30 2762 H 260.647 0.727867 1.36167 0
M  V30 2763 H 262.605 -0.952242 3.99303 0
M  V30 2764 H 261.266 -1.27533 2.87044 0
M  V30 2765 H 260.459 -0.277582 5.03235 0
M  V30 2766 H 260.061 0.779261 3.65792 0
M  V30 2767 H 262.353 0.182201 6.77255 0
M  V30 2768 H 263.296 1.70309 6.87314 0
M  V30 2769 H 263.704 0.489913 5.6237 0
M  V30 2770 N 263.102 -1.41638 0.69111 0
M  V30 2771 C 264.379 -1.95036 0.148421 0
M  V30 2772 C 264.759 -1.63072 -1.34055 0
M  V30 2773 O 264.107 -0.93538 -2.08478 0
M  V30 2774 C 264.317 -3.46279 0.434951 0
M  V30 2775 C 265.665 -4.23069 0.360275 0
M  V30 2776 O 266.689 -3.54277 0.369613 0
M  V30 2777 O 265.548 -5.45583 0.316534 0
M  V30 2778 H 262.642 -0.826908 0.0123654 0
M  V30 2779 H 265.188 -1.5138 0.766963 0
M  V30 2780 H 263.96 -3.6281 1.46576 0
M  V30 2781 H 263.583 -3.97019 -0.214787 0
M  V30 2782 N 264.58 -0.43555 -1.51462 0
M  V30 2783 C 265.805 0.132627 -2.06976 0
M  V30 2784 C 266.23 1.35848 -1.30104 0
M  V30 2785 O 265.588 1.78112 -0.338493 0
M  V30 2786 C 265.636 0.43523 -3.57964 0
M  V30 2787 O 264.74 1.52198 -3.83288 0
M  V30 2788 H 264.081 0.00265 -0.663995 0
M  V30 2789 H 266.611 -0.616369 -1.95095 0
M  V30 2790 H 266.621 0.686206 -4.02188 0
M  V30 2791 H 265.296 -0.460739 -4.1334 0
M  V30 2792 H 263.873 1.2611 -3.50928 0
M  V30 2793 N 266.058 1.56714 -0.166846 0
M  V30 2794 C 266.968 2.21331 0.777791 0
M  V30 2795 C 267.984 1.20358 1.25658 0
M  V30 2796 O 269.16 1.53005 1.30964 0
M  V30 2797 C 266.225 2.83787 1.99163 0
M  V30 2798 C 265.286 3.99947 1.56016 0
M  V30 2799 C 264.519 4.59415 2.71613 0
M  V30 2800 O 264.742 4.17769 3.88362 0
M  V30 2801 O 263.676 5.49359 2.45945 0
M  V30 2802 H 267.502 3.02605 0.257636 0
M  V30 2803 H 265.087 1.49275 0.0611393 0
M  V30 2804 H 266.969 3.23405 2.70161 0
M  V30 2805 H 265.644 2.05513 2.50092 0
M  V30 2806 H 264.551 3.65007 0.819809 0
M  V30 2807 H 265.884 4.79801 1.09782 0
M  V30 2808 N 267.536 -0.106894 1.57237 0
M  V30 2809 C 268.783 -0.812526 1.85484 0
M  V30 2810 C 269.111 -1.79304 0.753687 0
M  V30 2811 O 268.366 -1.94047 -0.253853 0
M  V30 2812 C 268.665 -1.58628 3.20268 0
M  V30 2813 C 268.331 -0.748967 4.44636 0
M  V30 2814 C 266.993 -0.518104 4.78403 0
M  V30 2815 C 269.345 -0.166122 5.20935 0
M  V30 2816 C 266.673 0.305659 5.85903 0
M  V30 2817 C 269.025 0.644899 6.29304 0
M  V30 2818 C 267.689 0.885965 6.61594 0
M  V30 2819 H 266.959 -0.297324 0.678734 0
M  V30 2820 H 269.606 -0.0744332 1.91355 0
M  V30 2821 H 267.911 -2.39562 3.10028 0
M  V30 2822 H 269.608 -2.13643 3.39349 0
M  V30 2823 H 266.198 -0.939006 4.18187 0
M  V30 2824 H 270.382 -0.33167 4.95191 0
M  V30 2825 H 265.638 0.501528 6.0934 0
M  V30 2826 H 269.812 1.10345 6.87602 0
M  V30 2827 H 267.439 1.52609 7.44725 0
M  V30 2828 N 269.014 -1.53014 -0.377408 0
M  V30 2829 C 269.924 -1.81557 -1.48574 0
M  V30 2830 C 270.94 -0.703102 -1.59162 0
M  V30 2831 O 272.116 -0.99192 -1.75279 0
M  V30 2832 C 269.181 -1.9889 -2.83978 0
M  V30 2833 C 268.242 -3.22801 -2.83016 0
M  V30 2834 C 267.475 -3.39298 -4.11962 0
M  V30 2835 O 267.698 -2.60345 -5.0752 0
M  V30 2836 O 266.632 -4.32604 -4.18494 0
M  V30 2837 H 270.458 -2.75695 -1.27382 0
M  V30 2838 H 268.043 -1.38248 -0.566373 0
M  V30 2839 H 269.925 -2.11931 -3.6423 0
M  V30 2840 H 268.6 -1.07942 -3.05172 0
M  V30 2841 H 267.507 -3.15193 -2.01505 0
M  V30 2842 H 268.84 -4.13632 -2.66775 0
M  V30 2843 N 270.492 0.636531 -1.44174 0
M  V30 2844 C 271.74 1.39343 -1.46383 0
M  V30 2845 C 272.061 1.94766 -0.0955715 0
M  V30 2846 O 271.331 1.75452 0.871395 0
M  V30 2847 H 269.911 0.517199 -0.538994 0
M  V30 2848 H 272.573 0.74957 -1.7991 0
M  V30 2849 H 271.669 2.22746 -2.18611 0
M  V30 2850 N 271.97 1.30982 0.876444 0
M  V30 2851 C 272.88 1.2003 2.01569 0
M  V30 2852 C 273.896 0.11838 1.73597 0
M  V30 2853 O 275.072 0.33495 1.98595 0
M  V30 2854 C 272.137 0.901637 3.34771 0
M  V30 2855 C 271.198 2.06979 3.76109 0
M  V30 2856 C 270.431 1.78529 5.02954 0
M  V30 2857 O 270.654 0.717296 5.65872 0
M  V30 2858 O 269.588 2.64019 5.40905 0
M  V30 2859 H 273.414 2.15753 2.13739 0
M  V30 2860 H 270.999 1.10658 1.00375 0
M  V30 2861 H 272.881 0.750645 4.1466 0
M  V30 2862 H 271.556 -0.0256141 3.2369 0
M  V30 2863 H 270.463 2.27616 2.96887 0
M  V30 2864 H 271.796 2.97907 3.91807 0
M  V30 2865 N 273.449 -1.08991 1.13837 0
M  V30 2866 C 274.379 -2.17771 0.842507 0
M  V30 2867 C 275.36 -1.6892 -0.20001 0
M  V30 2868 O 276.545 -1.94113 -0.0579731 0
M  V30 2869 C 273.675 -3.4589 0.312644 0
M  V30 2870 C 272.629 -4.08099 1.28992 0
M  V30 2871 C 271.955 -5.31098 0.619623 0
M  V30 2872 C 273.255 -4.50077 2.65005 0
M  V30 2873 H 274.949 -2.42777 1.75213 0
M  V30 2874 H 272.495 -1.16682 0.843875 0
M  V30 2875 H 274.448 -4.21297 0.0933043 0
M  V30 2876 H 273.172 -3.20419 -0.632382 0
M  V30 2877 H 271.831 -3.34717 1.49533 0
M  V30 2878 H 271.479 -5.0191 -0.33102 0
M  V30 2879 H 271.179 -5.73674 1.27167 0
M  V30 2880 H 272.703 -6.09224 0.409669 0
M  V30 2881 H 274.117 -5.16688 2.48407 0
M  V30 2882 H 272.514 -5.03553 3.26427 0
M  V30 2883 H 273.584 -3.62257 3.22332 0
M  V30 2884 N 274.927 -0.932562 -1.27047 0
M  V30 2885 C 275.89 -0.440064 -2.24936 0
M  V30 2886 C 276.89 0.444071 -1.54547 0
M  V30 2887 O 278.08 0.244465 -1.72476 0
M  V30 2888 C 275.212 0.36678 -3.38921 0
M  V30 2889 H 276.405 -1.305 -2.70018 0
M  V30 2890 H 273.958 -0.713707 -1.39054 0
M  V30 2891 H 274.693 1.25033 -2.99228 0
M  V30 2892 H 274.478 -0.267204 -3.91188 0
M  V30 2893 H 275.968 0.701567 -4.11665 0
M  V30 2894 N 276.405 1.4127 -0.698611 0
M  V30 2895 C 277.682 1.94955 -0.158762 0
M  V30 2896 C 278.062 1.63781 1.33188 0
M  V30 2897 O 277.41 0.946423 2.07979 0
M  V30 2898 C 277.62 3.46044 -0.453309 0
M  V30 2899 C 278.968 4.22872 -0.382707 0
M  V30 2900 O 279.992 3.54076 -0.388396 0
M  V30 2901 O 278.851 5.45407 -0.345463 0
M  V30 2902 H 275.945 0.82683 -0.0167505 0
M  V30 2903 H 278.491 1.50971 -0.77498 0
M  V30 2904 H 277.263 3.62028 -1.48498 0
M  V30 2905 H 276.886 3.97128 0.19373 0
M  V30 2906 N 277.883 0.443576 1.51229 0
M  V30 2907 C 279.16 -0.181038 1.9476 0
M  V30 2908 C 279.54 -1.59523 1.38259 0
M  V30 2909 O 278.888 -2.2122 0.572198 0
M  V30 2910 C 279.098 -0.152422 3.48667 0
M  V30 2911 C 280.446 -0.354923 4.23114 0
M  V30 2912 O 281.47 -0.230257 3.55455 0
M  V30 2913 O 280.329 -0.603674 5.43156 0
M  V30 2914 H 277.423 -0.1266 0.817252 0
M  V30 2915 H 279.969 0.502004 1.62105 0
M  V30 2916 H 278.741 0.836022 3.82265 0
M  V30 2917 H 278.364 -0.878107 3.87782 0
M  V30 2918 N 279.361 -1.56624 0.175154 0
M  V30 2919 C 280.291 -2.21155 -0.749195 0
M  V30 2920 C 281.272 -1.16836 -1.23626 0
M  V30 2921 O 282.457 -1.45277 -1.28873 0
M  V30 2922 C 279.587 -2.8553 -1.97711 0
M  V30 2923 C 278.541 -3.95921 -1.62575 0
M  V30 2924 C 277.867 -4.47365 -2.92864 0
M  V30 2925 C 279.167 -5.15323 -0.850838 0
M  V30 2926 H 280.861 -2.98653 -0.211295 0
M  V30 2927 H 278.407 -1.43651 -0.100188 0
M  V30 2928 H 280.36 -3.2935 -2.62881 0
M  V30 2929 H 279.084 -2.05406 -2.53921 0
M  V30 2930 H 277.743 -3.52762 -0.997719 0
M  V30 2931 H 277.391 -3.64027 -3.47122 0
M  V30 2932 H 277.091 -5.21839 -2.70106 0
M  V30 2933 H 278.615 -4.93873 -3.59056 0
M  V30 2934 H 280.029 -5.55812 -1.40521 0
M  V30 2935 H 278.426 -5.95739 -0.722154 0
M  V30 2936 H 279.496 -4.84661 0.152082 0
M  V30 2937 N 280.839 0.0985539 -1.57292 0
M  V30 2938 C 281.802 1.10402 -2.00858 0
M  V30 2939 C 282.802 1.33146 -0.901593 0
M  V30 2940 O 283.992 1.29318 -1.16716 0
M  V30 2941 C 281.124 2.45394 -2.36632 0
M  V30 2942 H 282.317 0.729099 -2.90902 0
M  V30 2943 H 279.87 0.343495 -1.52479 0
M  V30 2944 H 280.605 2.87769 -1.49531 0
M  V30 2945 H 280.39 2.30235 -3.17387 0
M  V30 2946 H 281.88 3.17718 -2.71007 0
M  V30 2947 N 282.317 1.53212 0.369288 0
M  V30 2948 C 283.565 1.68881 1.11012 0
M  V30 2949 C 283.886 0.441285 1.89941 0
M  V30 2950 O 283.156 -0.544623 1.88177 0
M  V30 2951 H 281.736 0.622569 0.412816 0
M  V30 2952 H 284.398 1.90391 0.416802 0
M  V30 2953 H 283.494 2.54822 1.80201 0
M  V30 2954 N 283.795 -0.628877 1.44509 0
M  V30 2955 C 285.042 -1.38839 1.47411 0
M  V30 2956 C 285.37 -1.94202 0.10757 0
M  V30 2957 O 284.625 -1.74243 -0.890947 0
M  V30 2958 C 284.924 -2.56995 2.48371 0
M  V30 2959 C 284.59 -2.19908 3.93639 0
M  V30 2960 C 283.252 -2.09506 4.33198 0
M  V30 2961 C 285.604 -1.9064 4.85083 0
M  V30 2962 C 282.932 -1.68028 5.62124 0
M  V30 2963 C 285.284 -1.50655 6.14399 0
M  V30 2964 C 283.948 -1.38796 6.5291 0
M  V30 2965 H 283.218 -0.508048 0.539414 0
M  V30 2966 H 285.865 -0.712913 1.77735 0
M  V30 2967 H 284.17 -3.29786 2.11538 0
M  V30 2968 H 285.867 -3.15223 2.47861 0
M  V30 2969 H 282.457 -2.28922 3.62343 0
M  V30 2970 H 286.641 -1.97585 4.55273 0
M  V30 2971 H 281.897 -1.57452 5.90778 0
M  V30 2972 H 286.071 -1.27048 6.84713 0
M  V30 2973 H 283.698 -1.06429 7.52713 0
M  V30 2974 N 285.273 -1.31445 -0.869486 0
M  V30 2975 C 286.503 -1.23942 -1.65294 0
M  V30 2976 C 286.911 0.197561 -1.88166 0
M  V30 2977 O 286.254 1.14019 -1.44033 0
M  V30 2978 C 286.316 -1.91385 -3.04322 0
M  V30 2979 C 285.98 -3.40726 -3.04557 0
M  V30 2980 C 286.977 -4.36464 -2.82481 0
M  V30 2981 C 284.662 -3.82425 -3.25663 0
M  V30 2982 C 286.656 -5.71876 -2.8149 0
M  V30 2983 C 284.343 -5.1795 -3.243 0
M  V30 2984 C 285.341 -6.12486 -3.02241 0
M  V30 2985 O 285.029 -7.45534 -3.00724 0
M  V30 2986 H 284.761 -0.429459 -0.522054 0
M  V30 2987 H 287.315 -1.73873 -1.0935 0
M  V30 2988 H 285.545 -1.36004 -3.61994 0
M  V30 2989 H 287.234 -1.77791 -3.64891 0
M  V30 2990 H 288 -4.05576 -2.65956 0
M  V30 2991 H 283.879 -3.09274 -3.41863 0
M  V30 2992 H 287.423 -6.45638 -2.64191 0
M  V30 2993 H 283.32 -5.48473 -3.40365 0
M  V30 2994 H 284.088 -7.54713 -3.16782 0
M  V30 2995 N 286.751 1.08385 -1.14413 0
M  V30 2996 C 288.167 1.32844 -0.884563 0
M  V30 2997 C 288.367 1.95841 0.474181 0
M  V30 2998 O 287.423 2.21158 1.21842 0
M  V30 2999 C 288.736 2.22978 -2.01745 0
M  V30 3000 C 290.284 2.36458 -2.05077 0
M  V30 3001 C 290.759 3.29934 -3.1766 0
M  V30 3002 N 292.25 3.37511 -3.17239 0
M  V30 3003 C 292.985 4.09871 -4.0099 0
M  V30 3004 N 292.481 4.84936 -4.94781 0
M  V30 3005 N 294.274 4.05704 -3.89051 0
M  V30 3006 H 286.425 0.658756 -2.01926 0
M  V30 3007 H 288.688 0.352821 -0.879899 0
M  V30 3008 H 288.394 1.83934 -2.99769 0
M  V30 3009 H 288.268 3.23441 -1.94077 0
M  V30 3010 H 290.655 2.7476 -1.0766 0
M  V30 3011 H 290.736 1.35736 -2.16816 0
M  V30 3012 H 290.38 2.92352 -4.15322 0
M  V30 3013 H 290.31 4.30584 -3.03158 0
M  V30 3014 H 292.801 2.83996 -2.49308 0
M  V30 3015 H 293.114 5.37612 -5.55151 0
M  V30 3016 H 291.459 4.83988 -4.98779 0
M  V30 3017 H 294.65 3.46167 -3.15097 0
M  V30 3018 H 294.823 4.61834 -4.54547 0
M  V30 3019 N 288.23 0.939286 1.26551 0
M  V30 3020 C 289.455 0.602008 1.98471 0
M  V30 3021 C 289.88 -0.815624 1.69497 0
M  V30 3022 O 289.238 -1.54912 0.941905 0
M  V30 3023 C 289.286 0.848407 3.50477 0
M  V30 3024 O 288.39 -0.0804009 4.12322 0
M  V30 3025 H 287.731 0.23049 0.622712 0
M  V30 3026 H 290.261 1.2617 1.61066 0
M  V30 3027 H 290.271 0.768553 4.00696 0
M  V30 3028 H 288.946 1.88171 3.70897 0
M  V30 3029 H 287.523 0.0503508 3.72866 0
M  V30 3030 N 289.708 -1.40897 0.706093 0
M  V30 3031 C 290.618 -2.3455 0.0482286 0
M  V30 3032 C 291.634 -1.56796 -0.754396 0
M  V30 3033 O 292.81 -1.89228 -0.689538 0
M  V30 3034 C 289.875 -3.35625 -0.869303 0
M  V30 3035 C 288.936 -4.29261 -0.0576994 0
M  V30 3036 C 288.169 -5.25508 -0.931531 0
M  V30 3037 O 288.392 -5.27472 -2.17092 0
M  V30 3038 O 287.326 -6.00727 -0.375587 0
M  V30 3039 H 291.152 -2.92407 0.820476 0
M  V30 3040 H 288.737 -1.4193 0.4665 0
M  V30 3041 H 290.619 -3.97635 -1.39514 0
M  V30 3042 H 289.294 -2.80196 -1.62086 0
M  V30 3043 H 288.201 -3.70566 0.512988 0
M  V30 3044 H 289.534 -4.87817 0.655426 0
M  V30 3045 N 291.186 -0.45159 -1.50991 0
M  V30 3046 C 292.416 0.108177 -2.06317 0
M  V30 3047 C 292.824 1.35774 -1.31765 0
M  V30 3048 O 292.167 1.79838 -0.374694 0
M  V30 3049 C 292.229 0.481659 -3.56259 0
M  V30 3050 C 291.893 -0.663114 -4.52163 0
M  V30 3051 C 292.89 -1.53947 -4.96585 0
M  V30 3052 C 290.575 -0.8479 -4.95092 0
M  V30 3053 C 292.569 -2.58518 -5.82621 0
M  V30 3054 C 290.256 -1.89686 -5.80915 0
M  V30 3055 C 291.254 -2.76388 -6.24579 0
M  V30 3056 O 290.942 -3.79482 -7.08695 0
M  V30 3057 H 290.674 0.00499183 -0.675982 0
M  V30 3058 H 293.228 -0.633659 -1.95381 0
M  V30 3059 H 291.458 1.27641 -3.65027 0
M  V30 3060 H 293.147 0.974233 -3.94035 0
M  V30 3061 H 293.913 -1.4083 -4.64103 0
M  V30 3062 H 289.792 -0.18258 -4.60638 0
M  V30 3063 H 293.336 -3.26224 -6.16623 0
M  V30 3064 H 289.233 -2.02817 -6.12809 0
M  V30 3065 H 290.001 -3.76234 -7.26905 0
M  V30 3066 N 292.664 1.56529 -0.183458 0
M  V30 3067 C 293.597 2.14417 0.781052 0
M  V30 3068 C 294.575 1.07761 1.21763 0
M  V30 3069 O 295.759 1.35807 1.30724 0
M  V30 3070 C 292.886 2.69361 2.05335 0
M  V30 3071 C 291.932 3.885 1.75982 0
M  V30 3072 S 292.765 5.27568 0.918256 0
M  V30 3073 C 293.921 5.85926 2.20095 0
M  V30 3074 H 294.154 2.95893 0.2889 0
M  V30 3075 H 291.687 1.54368 0.0313844 0
M  V30 3076 H 293.645 3.01662 2.78406 0
M  V30 3077 H 292.306 1.87949 2.51663 0
M  V30 3078 H 291.499 4.25314 2.70415 0
M  V30 3079 H 291.101 3.57149 1.10999 0
M  V30 3080 H 293.393 5.99579 3.15453 0
M  V30 3081 H 294.336 6.82761 1.87731 0
M  V30 3082 H 294.744 5.14438 2.32409 0
M  V30 3083 N 294.142 -0.090211 1.57342 0
M  V30 3084 C 295.052 -1.12735 2.05738 0
M  V30 3085 C 296.068 -1.43557 0.983231 0
M  V30 3086 O 297.244 -1.54101 1.29672 0
M  V30 3087 C 294.309 -2.42659 2.47624 0
M  V30 3088 C 293.37 -2.18975 3.69254 0
M  V30 3089 C 292.603 -3.42704 4.09133 0
M  V30 3090 O 292.826 -4.51127 3.49057 0
M  V30 3091 O 291.76 -3.32003 5.02053 0
M  V30 3092 H 295.586 -0.746279 2.94388 0
M  V30 3093 H 293.171 -0.303064 1.46294 0
M  V30 3094 H 295.053 -3.19155 2.7517 0
M  V30 3095 H 293.728 -2.80182 1.62109 0
M  V30 3096 H 292.635 -1.40244 3.46818 0
M  V30 3097 H 293.968 -1.86342 4.55563 0
M  V30 3098 N 295.62 -1.53406 -0.361157 0
M  V30 3099 C 296.868 -1.69467 -1.10115 0
M  V30 3100 C 297.189 -0.451352 -1.89705 0
M  V30 3101 O 296.459 0.534636 -1.88463 0
M  V30 3102 H 295.039 -0.624749 -0.409508 0
M  V30 3103 H 297.701 -1.90609 -0.406699 0
M  V30 3104 H 296.797 -2.55774 -1.78847 0
M  V30 3105 N 297.098 0.621204 -1.44841 0
M  V30 3106 C 298.046 1.75385 -1.52784 0
M  V30 3107 C 299.04 1.64639 -0.398779 0
M  V30 3108 O 300.246 1.70598 -0.574137 0
M  V30 3109 H 296.621 0.579193 -0.479625 0
M  V30 3110 H 298.592 1.6581 -2.48092 0
M  V30 3111 C 297.341 3.13742 -1.4987 0
M  V30 3112 H 296.664 3.22663 -2.36069 0
M  V30 3113 H 298.104 3.92861 -1.59487 0
M  V30 3114 C 296.563 3.36175 -0.220973 0
M  V30 3115 O 297.093 3.95469 0.704782 0
M  V30 3116 N 295.299 2.90348 -0.120963 0
M  V30 3117 H 294.846 2.42278 -0.875162 0
M  V30 3118 H 294.804 3.05732 0.733168 0
M  V30 3119 N 298.576 1.31904 0.862503 0
M  V30 3120 C 299.822 1.22197 1.61851 0
M  V30 3121 C 300.155 -0.217641 1.92977 0
M  V30 3122 O 299.43 -1.15264 1.56666 0
M  V30 3123 C 299.713 2.07378 2.94391 0
M  V30 3124 C 299.566 3.59678 2.70096 0
M  V30 3125 C 300.885 1.92891 3.95577 0
M  V30 3126 H 298.004 0.445255 0.587296 0
M  V30 3127 H 300.646 1.6177 0.99651 0
M  V30 3128 H 298.796 1.73758 3.47477 0
M  V30 3129 H 300.468 4.03472 2.23625 0
M  V30 3130 H 298.711 3.82735 2.04197 0
M  V30 3131 H 299.382 4.14595 3.64438 0
M  V30 3132 H 301.858 2.22327 3.51724 0
M  V30 3133 H 300.734 2.54781 4.86187 0
M  V30 3134 H 300.995 0.894315 4.3296 0
M  V30 3135 N 300.054 -1.07777 1.14986 0
M  V30 3136 C 301.47 -1.32373 0.891596 0
M  V30 3137 C 301.67 -1.9609 -0.463788 0
M  V30 3138 O 300.726 -2.21801 -1.20667 0
M  V30 3139 C 302.039 -2.21905 2.02925 0
M  V30 3140 C 303.587 -2.35367 2.06329 0
M  V30 3141 C 304.062 -3.28245 3.19405 0
M  V30 3142 N 305.553 -3.35824 3.19024 0
M  V30 3143 C 306.288 -4.07739 4.03158 0
M  V30 3144 N 305.784 -4.82306 4.97346 0
M  V30 3145 N 307.577 -4.03635 3.91197 0
M  V30 3146 H 299.728 -0.648039 2.02273 0
M  V30 3147 H 301.991 -0.348149 0.881757 0
M  V30 3148 H 301.697 -1.82342 3.0074 0
M  V30 3149 H 301.571 -3.22407 1.95789 0
M  V30 3150 H 303.958 -2.74186 1.09116 0
M  V30 3151 H 304.039 -1.34585 2.17533 0
M  V30 3152 H 303.683 -2.90146 4.16867 0
M  V30 3153 H 303.613 -4.28971 3.05437 0
M  V30 3154 H 306.104 -2.8267 2.50811 0
M  V30 3155 H 306.417 -5.34661 5.57994 0
M  V30 3156 H 304.762 -4.81337 5.01338 0
M  V30 3157 H 307.953 -3.44491 3.16928 0
M  V30 3158 H 308.126 -4.59417 4.5699 0
M  V30 3159 N 301.532 -0.945985 -1.26051 0
M  V30 3160 C 302.479 -0.45809 -2.26208 0
M  V30 3161 C 303.449 0.484816 -1.58867 0
M  V30 3162 O 304.634 0.399969 -1.86561 0
M  V30 3163 C 301.774 0.266131 -3.44072 0
M  V30 3164 C 300.887 -0.713005 -4.26075 0
M  V30 3165 C 300.022 0.0329013 -5.3119 0
M  V30 3166 C 299.061 -0.93774 -6.04874 0
M  V30 3167 N 298.198 -0.223274 -7.01745 0
M  V30 3168 H 303.038 -1.3171 -2.67313 0
M  V30 3169 H 300.575 -0.66069 -1.31428 0
M  V30 3170 H 302.533 0.702514 -4.11243 0
M  V30 3171 H 301.163 1.08925 -3.03867 0
M  V30 3172 H 300.215 -1.26789 -3.58648 0
M  V30 3173 H 301.527 -1.45406 -4.77136 0
M  V30 3174 H 300.681 0.528335 -6.04395 0
M  V30 3175 H 299.42 0.806801 -4.8098 0
M  V30 3176 H 298.425 -1.44425 -5.30492 0
M  V30 3177 H 299.65 -1.71172 -6.57173 0
M  V30 3178 H 297.596 0.532046 -6.53839 0
M  V30 3179 H 297.513 -0.90357 -7.50581 0
M  V30 3180 H 298.781 0.250907 -7.79096 0
M  V30 3181 N 303.011 1.40521 -0.713556 0
M  V30 3182 C 304.257 2.01221 -0.252564 0
M  V30 3183 C 304.59 1.56444 1.1506 0
M  V30 3184 O 303.865 0.783597 1.78017 0
M  V30 3185 C 304.148 3.58582 -0.330332 0
M  V30 3186 C 304.001 4.13437 -1.77173 0
M  V30 3187 C 305.32 4.39079 0.299641 0
M  V30 3188 H 302.439 0.731077 -0.0932471 0
M  V30 3189 H 305.081 1.67026 -0.905673 0
M  V30 3190 H 303.231 3.87844 0.225737 0
M  V30 3191 H 304.903 3.9498 -2.38303 0
M  V30 3192 H 303.146 3.67801 -2.3001 0
M  V30 3193 H 303.817 5.22597 -1.77755 0
M  V30 3194 H 306.293 4.15735 -0.174139 0
M  V30 3195 H 305.169 5.4848 0.214771 0
M  V30 3196 H 305.43 4.19915 1.38288 0
M  V30 3197 N 304.489 0.459591 1.5075 0
M  V30 3198 C 305.735 -0.0994966 2.02556 0
M  V30 3199 C 306.068 -1.40399 1.3417 0
M  V30 3200 O 305.343 -1.88892 0.463683 0
M  V30 3201 C 305.626 -0.295242 3.58888 0
M  V30 3202 C 305.479 1.02947 4.37861 0
M  V30 3203 C 306.798 -1.05502 4.27267 0
M  V30 3204 H 303.917 -0.034686 0.736183 0
M  V30 3205 H 306.559 0.602938 1.8018 0
M  V30 3206 H 304.709 -0.893563 3.78084 0
M  V30 3207 H 306.381 1.66348 4.30263 0
M  V30 3208 H 304.624 1.62885 4.02058 0
M  V30 3209 H 305.295 0.846281 5.45474 0
M  V30 3210 H 307.771 -0.547993 4.12476 0
M  V30 3211 H 306.647 -1.16077 5.36486 0
M  V30 3212 H 306.908 -2.08875 3.89645 0
M  V30 3213 N 305.967 -1.56429 0.191757 0
M  V30 3214 C 306.93 -2.17707 -0.716688 0
M  V30 3215 C 307.93 -1.13061 -1.14341 0
M  V30 3216 O 309.12 -1.38464 -1.05704 0
M  V30 3217 C 306.252 -2.77644 -1.97804 0
M  V30 3218 H 307.445 -2.99342 -0.1829 0
M  V30 3219 H 304.998 -1.56193 -0.0578566 0
M  V30 3220 H 305.733 -1.99799 -2.55443 0
M  V30 3221 H 305.518 -3.54246 -1.68083 0
M  V30 3222 H 307.008 -3.24708 -2.62592 0
M  V30 3223 N 307.445 0.0818655 -1.57387 0
M  V30 3224 C 308.673 0.796108 -1.9097 0
M  V30 3225 C 309.088 1.71626 -0.786757 0
M  V30 3226 O 308.445 1.80908 0.240513 0
M  V30 3227 C 308.496 1.59829 -3.24248 0
M  V30 3228 O 308.217 0.715131 -4.32224 0
M  V30 3229 C 309.718 2.41442 -3.7178 0
M  V30 3230 H 306.938 0.22691 -0.631469 0
M  V30 3231 H 309.482 0.0551439 -2.04426 0
M  V30 3232 H 307.637 2.29163 -3.12351 0
M  V30 3233 H 308.051 1.27205 -5.08841 0
M  V30 3234 H 309.525 2.932 -4.67694 0
M  V30 3235 H 310.002 3.2051 -3.00283 0
M  V30 3236 H 310.608 1.77283 -3.86589 0
M  V30 3237 N 308.923 1.53595 0.353017 0
M  V30 3238 C 310.151 1.74311 1.1146 0
M  V30 3239 C 310.566 0.477854 1.82653 0
M  V30 3240 O 309.923 -0.549977 1.74016 0
M  V30 3241 C 309.974 2.91694 2.13534 0
M  V30 3242 O 309.695 4.13325 1.45238 0
M  V30 3243 C 311.196 3.24384 3.02142 0
M  V30 3244 H 308.416 0.582669 0.332773 0
M  V30 3245 H 310.96 2.00386 0.408107 0
M  V30 3246 H 309.115 2.67977 2.79763 0
M  V30 3247 H 309.529 4.79148 2.13349 0
M  V30 3248 H 311.003 4.09893 3.69718 0
M  V30 3249 H 311.48 2.40282 3.67643 0
M  V30 3250 H 312.086 3.50073 2.41514 0
M  V30 3251 N 310.401 -0.613514 1.45168 0
M  V30 3252 C 311.333 -1.73825 1.4939 0
M  V30 3253 C 312.346 -1.58175 0.385304 0
M  V30 3254 O 313.535 -1.66165 0.652036 0
M  V30 3255 C 310.635 -3.11758 1.32891 0
M  V30 3256 C 309.808 -3.53704 2.57317 0
M  V30 3257 C 308.867 -4.70579 2.35462 0
M  V30 3258 O 307.893 -4.77996 3.09044 0
M  V30 3259 N 309.095 -5.63454 1.39644 0
M  V30 3260 H 311.86 -1.70669 2.46358 0
M  V30 3261 H 309.421 -0.79862 1.40832 0
M  V30 3262 H 311.413 -3.87692 1.1609 0
M  V30 3263 H 309.983 -3.09456 0.442218 0
M  V30 3264 H 309.203 -2.67794 2.89275 0
M  V30 3265 H 310.491 -3.78486 3.40038 0
M  V30 3266 H 309.889 -5.6017 0.789062 0
M  V30 3267 H 308.446 -6.38944 1.28816 0
M  V30 3268 N 311.879 -1.3236 -0.855495 0
M  V30 3269 C 312.812 -1.15559 -1.96777 0
M  V30 3270 C 313.79 -0.0552681 -1.62506 0
M  V30 3271 O 314.974 -0.214419 -1.87277 0
M  V30 3272 C 312.101 -0.768851 -3.29858 0
M  V30 3273 C 311.147 -1.87429 -3.83109 0
M  V30 3274 S 311.98 -3.48243 -4.06801 0
M  V30 3275 C 313.136 -3.11539 -5.42858 0
M  V30 3276 H 313.369 -2.09717 -2.10727 0
M  V30 3277 H 310.902 -1.17011 -1.00737 0
M  V30 3278 H 312.86 -0.55248 -4.06765 0
M  V30 3279 H 311.521 0.153857 -3.13723 0
M  V30 3280 H 310.714 -1.55667 -4.79358 0
M  V30 3281 H 310.316 -2.04647 -3.13042 0
M  V30 3282 H 312.608 -2.61331 -6.2507 0
M  V30 3283 H 313.551 -4.06806 -5.79582 0
M  V30 3284 H 313.959 -2.48582 -5.06821 0
M  V30 3285 N 313.357 1.07166 -1.15556 0
M  V30 3286 C 314.289 2.14341 -0.811815 0
M  V30 3287 C 315.302 1.61835 0.177015 0
M  V30 3288 O 316.491 1.78439 -0.0464996 0
M  V30 3289 C 313.591 3.38387 -0.186481 0
M  V30 3290 C 312.764 4.20238 -1.21321 0
M  V30 3291 C 311.823 5.2266 -0.609302 0
M  V30 3292 O 310.849 5.54719 -1.27576 0
M  V30 3293 N 312.051 5.77306 0.608099 0
M  V30 3294 H 314.816 2.44431 -1.73417 0
M  V30 3295 H 312.377 1.23089 -1.0517 0
M  V30 3296 H 314.369 4.04044 0.230339 0
M  V30 3297 H 312.939 3.05994 0.639249 0
M  V30 3298 H 312.159 3.50369 -1.80652 0
M  V30 3299 H 313.447 4.71736 -1.90638 0
M  V30 3300 H 312.845 5.53513 1.1679 0
M  V30 3301 H 311.402 6.44583 0.96725 0
M  V30 3302 N 314.835 0.952656 1.25548 0
M  V30 3303 C 315.798 0.475794 2.24207 0
M  V30 3304 C 316.798 -0.419428 1.55234 0
M  V30 3305 O 317.988 -0.216994 1.72843 0
M  V30 3306 C 315.12 -0.312814 3.39462 0
M  V30 3307 H 316.313 1.34779 2.67908 0
M  V30 3308 H 313.866 0.735739 1.37901 0
M  V30 3309 H 314.601 -1.20257 3.01179 0
M  V30 3310 H 314.386 0.329404 3.90714 0
M  V30 3311 H 315.876 -0.635986 4.12729 0
M  V30 3312 N 316.313 -1.40141 0.720998 0
M  V30 3313 C 317.276 -2.29058 0.0805834 0
M  V30 3314 C 318.276 -1.45632 -0.681758 0
M  V30 3315 O 319.466 -1.6648 -0.512856 0
M  V30 3316 C 316.598 -3.28925 -0.895593 0
M  V30 3317 H 317.791 -2.87191 0.863793 0
M  V30 3318 H 315.344 -1.48553 0.485975 0
M  V30 3319 H 316.079 -2.75822 -1.70566 0
M  V30 3320 H 315.864 -3.90519 -0.351766 0
M  V30 3321 H 317.354 -3.95494 -1.34069 0
M  V30 3322 N 317.792 -0.46758 -1.50504 0
M  V30 3323 C 319.069 0.15003 -1.95024 0
M  V30 3324 C 319.449 1.57304 -1.40779 0
M  V30 3325 O 318.797 2.20281 -0.607319 0
M  V30 3326 C 319.007 0.0969324 -3.48865 0
M  V30 3327 C 320.355 0.287565 -4.23625 0
M  V30 3328 O 321.379 0.173678 -3.55776 0
M  V30 3329 O 320.238 0.517186 -5.44047 0
M  V30 3330 H 317.332 0.113582 -0.819163 0
M  V30 3331 H 319.878 -0.52773 -1.61286 0
M  V30 3332 H 318.65 -0.896732 -3.80886 0
M  V30 3333 H 318.273 0.816303 -3.8913 0
M  V30 3334 N 319.27 1.56325 -0.20005 0
M  V30 3335 C 320.233 2.18084 0.705132 0
M  V30 3336 C 321.233 1.13666 1.1374 0
M  V30 3337 O 322.423 1.39023 1.04968 0
M  V30 3338 C 319.555 2.78689 1.96329 0
M  V30 3339 H 320.748 2.99435 0.167023 0
M  V30 3340 H 318.301 1.56221 0.0495725 0
M  V30 3341 H 319.036 2.0115 2.5438 0
M  V30 3342 H 318.821 3.55133 1.66202 0
M  V30 3343 H 320.311 3.26096 2.60866 0
M  V30 3344 N 320.748 -0.0735177 1.57428 0
M  V30 3345 C 322.164 -0.428264 1.53747 0
M  V30 3346 C 322.364 -1.79272 0.91998 0
M  V30 3347 O 321.42 -2.47051 0.521745 0
M  V30 3348 C 322.733 -0.370914 2.98404 0
M  V30 3349 C 324.281 -0.451224 3.0973 0
M  V30 3350 C 324.756 -0.4238 4.56035 0
M  V30 3351 N 326.247 -0.483925 4.60665 0
M  V30 3352 C 326.982 -0.484891 5.71346 0
M  V30 3353 N 326.478 -0.440775 6.91396 0
M  V30 3354 N 328.271 -0.531319 5.59583 0
M  V30 3355 H 320.422 0.819949 1.95935 0
M  V30 3356 H 322.685 0.307493 0.896745 0
M  V30 3357 H 322.391 0.564956 3.47133 0
M  V30 3358 H 322.265 -1.18176 3.5821 0
M  V30 3359 H 324.652 -1.37752 2.60976 0
M  V30 3360 H 324.733 0.388167 2.52838 0
M  V30 3361 H 324.377 0.498638 5.05446 0
M  V30 3362 H 324.307 -1.2807 5.10789 0
M  V30 3363 H 326.798 -0.522338 3.74273 0
M  V30 3364 H 327.111 -0.44539 7.71515 0
M  V30 3365 H 325.456 -0.40749 6.93804 0
M  V30 3366 H 328.647 -0.563464 4.64696 0
M  V30 3367 H 328.82 -0.528603 6.4584 0
M  V30 3368 N 322.226 -1.5378 -0.344866 0
M  V30 3369 C 323.173 -1.81676 -1.42346 0
M  V30 3370 C 324.143 -0.662376 -1.52321 0
M  V30 3371 O 325.328 -0.906675 -1.67881 0
M  V30 3372 C 322.468 -2.03087 -2.79015 0
M  V30 3373 C 321.581 -3.30799 -2.77842 0
M  V30 3374 C 320.716 -3.42285 -4.0622 0
M  V30 3375 C 319.755 -4.6395 -3.9927 0
M  V30 3376 N 318.892 -4.72477 -5.19336 0
M  V30 3377 H 323.732 -2.73703 -1.17858 0
M  V30 3378 H 321.269 -1.35568 -0.570949 0
M  V30 3379 H 323.227 -2.1349 -3.58438 0
M  V30 3380 H 321.857 -1.14375 -3.01858 0
M  V30 3381 H 320.909 -3.29244 -1.90533 0
M  V30 3382 H 322.221 -4.20314 -2.68584 0
M  V30 3383 H 321.375 -3.52113 -4.94066 0
M  V30 3384 H 320.114 -2.50823 -4.18258 0
M  V30 3385 H 319.119 -4.54201 -3.09809 0
M  V30 3386 H 320.344 -5.56775 -3.88817 0
M  V30 3387 H 318.29 -3.83924 -5.3192 0
M  V30 3388 H 318.207 -5.55927 -5.12329 0
M  V30 3389 H 319.475 -4.86613 -6.08957 0
M  V30 3390 N 323.704 0.605807 -1.45491 0
M  V30 3391 C 324.929 1.39625 -1.53361 0
M  V30 3392 C 325.354 1.87351 -0.167645 0
M  V30 3393 O 324.712 1.60243 0.848051 0
M  V30 3394 C 324.76 2.57559 -2.5238 0
M  V30 3395 O 323.864 3.58248 -2.04285 0
M  V30 3396 H 323.205 0.416771 -0.516912 0
M  V30 3397 H 325.735 0.737103 -1.90861 0
M  V30 3398 H 325.745 3.0478 -2.71244 0
M  V30 3399 H 324.42 2.22171 -3.51586 0
M  V30 3400 H 322.997 3.17664 -1.95305 0
M  V30 3401 N 325.182 1.32811 0.848464 0
M  V30 3402 C 326.429 1.23724 1.60308 0
M  V30 3403 C 326.757 -0.1994 1.93475 0
M  V30 3404 O 326.012 -1.15406 1.5805 0
M  V30 3405 C 326.311 2.04831 2.92881 0
M  V30 3406 C 325.977 3.54125 2.79117 0
M  V30 3407 C 324.639 3.94829 2.7507 0
M  V30 3408 C 326.991 4.49036 2.64606 0
M  V30 3409 C 324.319 5.28675 2.544 0
M  V30 3410 C 326.671 5.83033 2.4547 0
M  V30 3411 C 325.335 6.22931 2.39819 0
M  V30 3412 H 324.605 0.452737 0.586609 0
M  V30 3413 H 327.252 1.64301 0.983743 0
M  V30 3414 H 325.557 1.57001 3.58968 0
M  V30 3415 H 327.254 1.95164 3.50303 0
M  V30 3416 H 323.844 3.21801 2.83094 0
M  V30 3417 H 328.028 4.18505 2.66772 0
M  V30 3418 H 323.284 5.58637 2.48465 0
M  V30 3419 H 327.458 6.56186 2.33222 0
M  V30 3420 H 325.085 7.26584 2.23562 0
M  V30 3421 N 326.66 -1.06551 1.16123 0
M  V30 3422 C 328.071 -1.60768 0.949232 0
M  V30 3423 C 328.422 -1.89523 -0.507508 0
M  V30 3424 O 327.547 -1.66671 -1.38021 0
M  V30 3425 C 328.142 -2.92086 1.71671 0
M  V30 3426 C 326.701 -3.43015 1.54977 0
M  V30 3427 C 325.848 -2.16947 1.72711 0
M  V30 3428 H 328.799 -0.895354 1.31031 0
M  V30 3429 H 328.82 -3.6138 1.19099 0
M  V30 3430 H 328.332 -2.71127 2.7769 0
M  V30 3431 H 326.433 -3.69039 0.513873 0
M  V30 3432 H 326.546 -4.18516 2.33198 0
M  V30 3433 H 324.91 -2.27041 1.15431 0
M  V30 3434 H 325.693 -1.98473 2.80113 0
M  V30 3435 N 328.138 -0.959301 -1.25041 0
M  V30 3436 C 329.378 -0.624343 -1.94631 0
M  V30 3437 C 329.742 0.82403 -1.73418 0
M  V30 3438 O 330.943 1.26881 -2.3697 0
M  V30 3439 C 329.214 -0.978805 -3.43736 0
M  V30 3440 S 330.773 -0.757127 -4.32219 0
M  V30 3441 H 327.591 -0.229327 -0.673001 0
M  V30 3442 H 330.193 -1.23447 -1.51595 0
M  V30 3443 H 328.897 -2.02997 -3.56679 0
M  V30 3444 H 328.428 -0.359117 -3.91757 0
M  V30 3445 H 330.443 0.369759 -4.9482 0
M  V30 3446 N 329.616 1.39756 -0.72842 0
M  V30 3447 C 330.863 2.00645 -0.273487 0
M  V30 3448 C 331.191 1.57786 1.13727 0
M  V30 3449 O 330.446 0.794886 1.7883 0
M  V30 3450 C 330.745 3.56002 -0.315776 0
M  V30 3451 C 330.411 4.18489 -1.67863 0
M  V30 3452 C 329.073 4.3527 -2.05166 0
M  V30 3453 C 331.425 4.53219 -2.57375 0
M  V30 3454 C 328.753 4.84069 -3.31503 0
M  V30 3455 C 331.105 5.03423 -3.83077 0
M  V30 3456 C 329.769 5.18413 -4.20481 0
M  V30 3457 H 329.039 0.734211 -0.100076 0
M  V30 3458 H 331.686 1.6718 -0.933972 0
M  V30 3459 H 329.991 3.89452 0.428285 0
M  V30 3460 H 331.688 4.00963 0.0542575 0
M  V30 3461 H 328.278 4.05824 -1.37858 0
M  V30 3462 H 332.462 4.39878 -2.29827 0
M  V30 3463 H 327.718 4.93859 -3.60435 0
M  V30 3464 H 331.892 5.2927 -4.52599 0
M  V30 3465 H 329.519 5.55987 -5.18443 0
M  V30 3466 N 331.094 0.475555 1.50254 0
M  V30 3467 C 332.371 -0.139685 1.95101 0
M  V30 3468 C 332.751 -1.56555 1.41611 0
M  V30 3469 O 332.099 -2.19956 0.618993 0
M  V30 3470 C 332.309 -0.0784298 3.48912 0
M  V30 3471 C 333.657 -0.265095 4.23772 0
M  V30 3472 O 334.681 -0.154808 3.55863 0
M  V30 3473 O 333.54 -0.488327 5.44314 0
M  V30 3474 H 330.634 -0.109236 0.819754 0
M  V30 3475 H 333.18 0.536276 1.61004 0
M  V30 3476 H 331.952 0.916918 3.80405 0
M  V30 3477 H 331.575 -0.795655 3.89558 0
M  V30 3478 N 332.573 -1.56217 0.208337 0
M  V30 3479 C 333.483 -2.23316 -0.718836 0
M  V30 3480 C 334.499 -1.23648 -1.22422 0
M  V30 3481 O 335.675 -1.56423 -1.26861 0
M  V30 3482 C 332.74 -2.88968 -1.91568 0
M  V30 3483 C 331.801 -4.03943 -1.45357 0
M  V30 3484 C 331.034 -4.66455 -2.59337 0
M  V30 3485 O 331.257 -4.27919 -3.77149 0
M  V30 3486 O 330.191 -5.55686 -2.31293 0
M  V30 3487 H 334.017 -3.03182 -0.177315 0
M  V30 3488 H 331.602 -1.49384 -0.0215402 0
M  V30 3489 H 333.484 -3.30455 -2.61491 0
M  V30 3490 H 332.159 -2.12071 -2.44556 0
M  V30 3491 H 331.066 -3.67052 -0.722746 0
M  V30 3492 H 332.399 -4.82543 -0.970219 0
M  V30 3493 N 334.051 0.0651679 -1.57465 0
M  V30 3494 C 335.462 0.616213 -1.76238 0
M  V30 3495 C 335.813 1.7756 -0.834689 0
M  V30 3496 O 334.938 2.1639 -0.0204156 0
M  V30 3497 C 335.533 1.12462 -3.1959 0
M  V30 3498 C 334.092 1.62147 -3.39684 0
M  V30 3499 C 333.239 0.543739 -2.71917 0
M  V30 3500 H 336.19 -0.161022 -1.57881 0
M  V30 3501 H 336.211 1.99324 -3.24114 0
M  V30 3502 H 335.723 0.280592 -3.87084 0
M  V30 3503 H 333.824 2.48854 -2.77313 0
M  V30 3504 H 333.937 1.69385 -4.48158 0
M  V30 3505 H 332.301 0.990352 -2.34657 0
M  V30 3506 H 333.084 -0.290216 -3.42071 0
M  V30 3507 N 335.529 1.53961 0.336706 0
M  V30 3508 C 336.492 1.81724 1.39675 0
M  V30 3509 C 337.492 0.688532 1.45313 0
M  V30 3510 O 338.682 0.956829 1.45569 0
M  V30 3511 C 335.814 1.96543 2.78538 0
M  V30 3512 H 337.007 2.76424 1.16318 0
M  V30 3513 H 334.56 1.45478 0.571474 0
M  V30 3514 H 335.295 1.0401 3.07168 0
M  V30 3515 H 335.08 2.78665 2.75841 0
M  V30 3516 H 336.57 2.19516 3.5525 0
M  V30 3517 N 337.007 -0.598083 1.45811 0
M  V30 3518 C 337.94 -1.7223 1.49706 0
M  V30 3519 C 338.918 -1.58732 0.352535 0
M  V30 3520 O 340.102 -1.80162 0.554438 0
M  V30 3521 C 337.229 -3.10148 1.3611 0
M  V30 3522 C 336.275 -3.42209 2.54549 0
M  V30 3523 S 337.108 -3.35989 4.16979 0
M  V30 3524 C 338.264 -4.76471 4.05865 0
M  V30 3525 H 338.497 -1.68665 2.44826 0
M  V30 3526 H 336.03 -0.775541 1.33509 0
M  V30 3527 H 337.988 -3.8972 1.28953 0
M  V30 3528 H 336.649 -3.11219 0.424451 0
M  V30 3529 H 335.842 -4.42652 2.40988 0
M  V30 3530 H 335.444 -2.70173 2.58617 0
M  V30 3531 H 337.736 -5.665 3.71596 0
M  V30 3532 H 338.679 -4.95089 5.06253 0
M  V30 3533 H 339.087 -4.52599 3.37364 0
M  V30 3534 N 338.485 -1.33259 -0.841409 0
M  V30 3535 C 339.432 -1.23302 -1.95103 0
M  V30 3536 C 340.402 -0.112204 -1.65721 0
M  V30 3537 O 341.587 -0.290038 -1.88583 0
M  V30 3538 C 338.727 -0.975583 -3.31023 0
M  V30 3539 C 337.84 -2.18243 -3.72819 0
M  V30 3540 C 336.975 -1.85936 -4.97595 0
M  V30 3541 C 336.014 -3.02866 -5.3192 0
M  V30 3542 N 335.151 -2.70565 -6.47873 0
M  V30 3543 H 339.991 -2.18207 -2.02952 0
M  V30 3544 H 337.528 -1.0851 -0.993173 0
M  V30 3545 H 339.486 -0.80677 -4.09325 0
M  V30 3546 H 338.116 -0.0632755 -3.22738 0
M  V30 3547 H 337.168 -2.46107 -2.90061 0
M  V30 3548 H 338.48 -3.05666 -3.94169 0
M  V30 3549 H 337.634 -1.65684 -5.83638 0
M  V30 3550 H 336.373 -0.957452 -4.78209 0
M  V30 3551 H 335.378 -3.23736 -4.44382 0
M  V30 3552 H 336.603 -3.93809 -5.53255 0
M  V30 3553 H 334.549 -1.8293 -6.29978 0
M  V30 3554 H 334.466 -3.51519 -6.69306 0
M  V30 3555 H 335.734 -2.53774 -7.37034 0
M  V30 3556 N 339.963 1.05934 -1.16686 0
M  V30 3557 C 340.926 2.11669 -0.879144 0
M  V30 3558 C 341.926 1.60294 0.127445 0
M  V30 3559 O 343.116 1.7389 -0.103865 0
M  V30 3560 C 340.248 3.39438 -0.315425 0
M  V30 3561 H 341.441 2.38626 -1.81653 0
M  V30 3562 H 338.994 1.22058 -0.976299 0
M  V30 3563 H 339.729 3.18132 0.629468 0
M  V30 3564 H 339.514 3.78034 -1.04079 0
M  V30 3565 H 341.004 4.17391 -0.132189 0
M  V30 3566 N 341.441 0.965919 1.2453 0
M  V30 3567 C 342.351 0.502154 2.29163 0
M  V30 3568 C 343.367 -0.436017 1.68448 0
M  V30 3569 O 344.543 -0.309497 1.99008 0
M  V30 3570 C 341.608 -0.201956 3.46111 0
M  V30 3571 C 340.669 0.775821 4.22232 0
M  V30 3572 C 339.902 0.105217 5.33596 0
M  V30 3573 O 340.125 -1.10683 5.59558 0
M  V30 3574 O 339.059 0.796475 5.96607 0
M  V30 3575 H 342.885 1.37194 2.70946 0
M  V30 3576 H 340.47 0.732875 1.30189 0
M  V30 3577 H 342.352 -0.597564 4.17142 0
M  V30 3578 H 341.027 -1.04673 3.06309 0
M  V30 3579 H 339.934 1.22185 3.53584 0
M  V30 3580 H 341.267 1.58896 4.65846 0
M  V30 3581 N 342.919 -1.39368 0.735821 0
M  V30 3582 C 344.166 -2.00497 0.284123 0
M  V30 3583 C 344.494 -1.58387 -1.12889 0
M  V30 3584 O 343.749 -0.804359 -1.78406 0
M  V30 3585 C 344.048 -3.5583 0.334651 0
M  V30 3586 C 343.714 -4.17593 1.7008 0
M  V30 3587 C 342.376 -4.34176 2.07472 0
M  V30 3588 C 344.728 -4.51848 2.59775 0
M  V30 3589 C 342.056 -4.82304 3.34065 0
M  V30 3590 C 344.408 -5.01384 3.85741 0
M  V30 3591 C 343.072 -5.16175 4.23225 0
M  V30 3592 H 342.342 -0.73367 0.103968 0
M  V30 3593 H 344.989 -1.66683 0.942825 0
M  V30 3594 H 343.294 -3.89674 -0.407625 0
M  V30 3595 H 344.991 -4.00986 -0.0329927 0
M  V30 3596 H 341.581 -4.05087 1.40008 0
M  V30 3597 H 345.765 -4.38653 2.32157 0
M  V30 3598 H 341.021 -4.91941 3.63049 0
M  V30 3599 H 345.195 -5.26863 4.55399 0
M  V30 3600 H 342.822 -5.5323 5.21384 0
M  V30 3601 N 344.397 -0.483516 -1.5 0
M  V30 3602 C 345.345 0.318061 -2.30415 0
M  V30 3603 C 346.339 0.978988 -1.38247 0
M  V30 3604 O 347.545 0.908673 -1.55381 0
M  V30 3605 H 343.92 0.121419 -0.742133 0
M  V30 3606 H 345.891 -0.380403 -2.95965 0
M  V30 3607 C 344.64 1.38013 -3.19136 0
M  V30 3608 H 343.963 0.880952 -3.89973 0
M  V30 3609 H 345.403 1.91332 -3.78375 0
M  V30 3610 C 343.862 2.38884 -2.37563 0
M  V30 3611 O 344.392 3.44412 -2.06744 0
M  V30 3612 N 342.598 2.10912 -1.99911 0
M  V30 3613 H 342.145 1.25118 -2.25174 0
M  V30 3614 H 342.103 2.78635 -1.45636 0
M  V30 3615 N 345.875 1.56104 -0.216619 0
M  V30 3616 C 347.124 1.97348 0.416744 0
M  V30 3617 C 347.437 1.10715 1.6125 0
M  V30 3618 O 348.643 1.41836 2.31506 0
M  V30 3619 C 347.099 3.51059 0.792835 0
M  V30 3620 C 346.707 4.46387 -0.379828 0
M  V30 3621 C 348.451 4.01026 1.39208 0
M  V30 3622 C 346.358 5.91397 0.0184223 0
M  V30 3623 H 345.288 0.736942 0.159475 0
M  V30 3624 H 347.939 1.80827 -0.31205 0
M  V30 3625 H 346.321 3.63162 1.57891 0
M  V30 3626 H 347.495 4.46029 -1.15737 0
M  V30 3627 H 345.81 4.06734 -0.891979 0
M  V30 3628 H 348.407 5.0686 1.70286 0
M  V30 3629 H 348.75 3.46587 2.30614 0
M  V30 3630 H 349.283 3.92125 0.669537 0
M  V30 3631 H 346.022 6.49807 -0.862002 0
M  V30 3632 H 345.542 5.94961 0.760384 0
M  V30 3633 H 347.221 6.45455 0.446818 0
M  V30 3634 N 347.353 -0.0568162 1.57498 0
M  V30 3635 C 348.581 -0.765626 1.92213 0
M  V30 3636 C 348.996 -1.70353 0.813961 0
M  V30 3637 O 348.353 -1.81268 -0.211701 0
M  V30 3638 C 348.404 -1.5465 3.2675 0
M  V30 3639 O 348.125 -0.646278 4.33307 0
M  V30 3640 C 349.626 -2.35497 3.75574 0
M  V30 3641 H 346.846 -0.216835 0.634999 0
M  V30 3642 H 349.39 -0.0226146 2.04487 0
M  V30 3643 H 347.545 -2.24165 3.15957 0
M  V30 3644 H 347.959 -1.19093 5.108 0
M  V30 3645 H 349.433 -2.85722 4.72299 0
M  V30 3646 H 349.91 -3.15692 3.05344 0
M  V30 3647 H 350.516 -1.7111 3.8936 0
M  V30 3648 N 348.832 -1.54138 -0.328536 0
M  V30 3649 C 349.762 -1.86167 -1.40939 0
M  V30 3650 C 350.743 -0.718044 -1.54202 0
M  V30 3651 O 351.928 -0.971328 -1.68163 0
M  V30 3652 C 349.058 -2.08461 -2.77779 0
M  V30 3653 C 348.012 -3.24299 -2.7931 0
M  V30 3654 C 347.338 -3.31955 -4.19178 0
M  V30 3655 C 348.638 -4.62065 -2.43502 0
M  V30 3656 H 350.332 -2.76689 -1.14383 0
M  V30 3657 H 347.878 -1.33132 -0.548806 0
M  V30 3658 H 349.831 -2.29453 -3.53454 0
M  V30 3659 H 348.555 -1.14684 -3.05802 0
M  V30 3660 H 347.214 -3.03187 -2.0609 0
M  V30 3661 H 346.862 -2.35745 -4.44335 0
M  V30 3662 H 346.562 -4.09805 -4.2111 0
M  V30 3663 H 348.086 -3.55175 -4.96672 0
M  V30 3664 H 349.5 -4.8297 -3.08889 0
M  V30 3665 H 347.897 -5.42429 -2.56693 0
M  V30 3666 H 348.967 -4.64652 -1.38659 0
M  V30 3667 N 350.31 0.590341 -1.46126 0
M  V30 3668 C 351.559 1.34499 -1.50309 0
M  V30 3669 C 351.872 1.94977 -0.156021 0
M  V30 3670 O 353.078 2.71395 -0.0756037 0
M  V30 3671 C 351.534 2.43723 -2.64815 0
M  V30 3672 C 351.142 1.89582 -4.0591 0
M  V30 3673 C 352.886 3.20579 -2.78262 0
M  V30 3674 C 350.793 2.9639 -5.11769 0
M  V30 3675 H 349.723 0.505593 -0.559368 0
M  V30 3676 H 352.374 0.630848 -1.72315 0
M  V30 3677 H 350.756 3.17902 -2.36124 0
M  V30 3678 H 351.93 1.21997 -4.44357 0
M  V30 3679 H 350.245 1.25418 -3.97063 0
M  V30 3680 H 352.842 4.00276 -3.54519 0
M  V30 3681 H 353.185 3.72684 -1.85505 0
M  V30 3682 H 353.718 2.53505 -3.06562 0
M  V30 3683 H 350.457 2.49181 -6.06291 0
M  V30 3684 H 349.977 3.62487 -4.77873 0
M  V30 3685 H 351.656 3.60474 -5.37278 0
M  V30 3686 N 351.788 1.33704 0.83433 0
M  V30 3687 C 352.738 1.20899 1.93306 0
M  V30 3688 C 353.722 0.110783 1.60518 0
M  V30 3689 O 354.914 0.339331 1.73717 0
M  V30 3690 C 352.043 0.955018 3.29749 0
M  V30 3691 C 351.129 2.09587 3.68692 0
M  V30 3692 N 351.52 3.34621 3.79292 0
M  V30 3693 C 349.818 2.00358 3.98463 0
M  V30 3694 C 350.519 4.09472 4.13167 0
M  V30 3695 N 349.495 3.37954 4.25779 0
M  V30 3696 H 353.297 2.15665 1.99664 0
M  V30 3697 H 350.811 1.25777 1.02732 0
M  V30 3698 H 352.808 0.844208 4.08263 0
M  V30 3699 H 351.468 0.0159317 3.24696 0
M  V30 3700 H 352.479 3.69313 3.63082 0
M  V30 3701 H 349.156 1.14137 4.01596 0
M  V30 3702 H 350.546 5.17391 4.28668 0
M  V30 3703 N 353.266 -1.05314 1.17247 0
M  V30 3704 C 354.677 -1.59753 0.96623 0
M  V30 3705 C 355.028 -1.9005 -0.487378 0
M  V30 3706 O 354.153 -1.68126 -1.36245 0
M  V30 3707 C 354.748 -2.90249 1.74759 0
M  V30 3708 C 353.307 -3.41352 1.58606 0
M  V30 3709 C 352.454 -2.15103 1.75002 0
M  V30 3710 H 355.405 -0.881406 1.31973 0
M  V30 3711 H 355.426 -3.60097 1.22925 0
M  V30 3712 H 354.938 -2.68166 2.8055 0
M  V30 3713 H 353.039 -3.68474 0.552985 0
M  V30 3714 H 353.152 -4.16019 2.37624 0
M  V30 3715 H 351.516 -2.25804 1.17833 0
M  V30 3716 H 352.299 -1.95491 2.82202 0
M  V30 3717 N 354.744 -0.972509 -1.24016 0
M  V30 3718 C 355.691 -0.505969 -2.25186 0
M  V30 3719 C 356.661 0.451009 -1.5986 0
M  V30 3720 O 357.846 0.360307 -1.87367 0
M  V30 3721 C 354.986 0.193089 -3.44559 0
M  V30 3722 C 354.099 -0.803222 -4.24467 0
M  V30 3723 C 353.234 -0.0797793 -5.3114 0
M  V30 3724 C 352.273 -1.06583 -6.02749 0
M  V30 3725 N 351.41 -0.372074 -7.01113 0
M  V30 3726 H 356.25 -1.37351 -2.64459 0
M  V30 3727 H 353.787 -0.688419 -1.29997 0
M  V30 3728 H 355.745 0.615125 -4.1264 0
M  V30 3729 H 354.375 1.02455 -3.06109 0
M  V30 3730 H 353.427 -1.34368 -3.55878 0
M  V30 3731 H 354.739 -1.55494 -4.73944 0
M  V30 3732 H 353.893 0.400015 -6.0538 0
M  V30 3733 H 352.632 0.704597 -4.82583 0
M  V30 3734 H 351.637 -1.55645 -5.27309 0
M  V30 3735 H 352.862 -1.85074 -6.53395 0
M  V30 3736 H 350.808 0.393238 -6.5482 0
M  V30 3737 H 350.725 -1.06258 -7.48495 0
M  V30 3738 H 351.993 0.0855932 -7.79453 0
M  V30 3739 N 356.222 1.38976 -0.743202 0
M  V30 3740 C 357.499 1.94351 -0.220705 0
M  V30 3741 C 357.879 1.67935 1.2791 0
M  V30 3742 O 357.227 1.01211 2.04862 0
M  V30 3743 C 357.437 3.44426 -0.563171 0
M  V30 3744 C 358.785 4.2144 -0.517046 0
M  V30 3745 O 359.809 3.52661 -0.500846 0
M  V30 3746 O 358.668 5.44032 -0.518806 0
M  V30 3747 H 355.762 0.825879 -0.043047 0
M  V30 3748 H 358.308 1.48429 -0.822618 0
M  V30 3749 H 357.08 3.5712 -1.59941 0
M  V30 3750 H 356.703 3.97543 0.0672883 0
M  V30 3751 N 357.7 0.491464 1.49741 0
M  V30 3752 C 358.63 -0.28154 2.31796 0
M  V30 3753 C 359.611 -0.971473 1.3963 0
M  V30 3754 O 360.796 -0.964719 1.68543 0
M  V30 3755 C 357.926 -1.35203 3.19902 0
M  V30 3756 C 356.88 -0.782529 4.20786 0
M  V30 3757 C 356.206 -1.95283 4.97764 0
M  V30 3758 C 357.506 0.21999 5.21837 0
M  V30 3759 H 359.2 0.403355 2.96671 0
M  V30 3760 H 356.746 0.195425 1.42668 0
M  V30 3761 H 358.699 -1.90045 3.76113 0
M  V30 3762 H 357.423 -2.06598 2.52953 0
M  V30 3763 H 356.082 -0.255928 3.65706 0
M  V30 3764 H 355.73 -2.65423 4.2727 0
M  V30 3765 H 355.43 -1.57789 5.66018 0
M  V30 3766 H 356.954 -2.50577 5.56816 0
M  V30 3767 H 358.368 -0.23996 5.72798 0
M  V30 3768 H 356.765 0.51026 5.97927 0
M  V30 3769 H 357.835 1.13911 4.7133 0
M  V30 3770 N 359.178 -1.55987 0.224894 0
M  V30 3771 C 360.406 -2.02784 -0.410665 0
M  V30 3772 C 360.821 -1.10464 -1.53112 0
M  V30 3773 O 360.178 -0.114871 -1.82138 0
M  V30 3774 C 360.229 -3.49087 -0.939165 0
M  V30 3775 O 359.95 -4.37887 0.136614 0
M  V30 3776 C 361.451 -4.11543 -1.64763 0
M  V30 3777 H 358.671 -0.663484 -0.100148 0
M  V30 3778 H 361.215 -2.01614 0.342326 0
M  V30 3779 H 359.37 -3.50861 -1.64242 0
M  V30 3780 H 359.784 -5.23849 -0.261155 0
M  V30 3781 H 361.258 -5.15673 -1.96939 0
M  V30 3782 H 361.735 -3.56736 -2.56195 0
M  V30 3783 H 362.341 -4.13629 -0.989503 0
M  V30 3784 N 360.656 0.0484629 -1.57525 0
M  V30 3785 C 361.619 1.03956 -2.04269 0
M  V30 3786 C 362.619 1.30211 -0.943496 0
M  V30 3787 O 363.809 1.25539 -1.20771 0
M  V30 3788 C 360.941 2.37742 -2.44319 0
M  V30 3789 H 362.134 0.636182 -2.93075 0
M  V30 3790 H 359.687 0.294811 -1.53494 0
M  V30 3791 H 360.422 2.82866 -1.5861 0
M  V30 3792 H 360.207 2.20021 -3.24551 0
M  V30 3793 H 361.697 3.08936 -2.80978 0
M  V30 3794 N 362.134 1.5431 0.320358 0
M  V30 3795 C 363.064 1.86912 1.3995 0
M  V30 3796 C 364.045 0.726211 1.53819 0
M  V30 3797 O 365.23 0.980233 1.67646 0
M  V30 3798 C 362.36 2.09932 2.7667 0
M  V30 3799 C 361.314 3.25776 2.77586 0
M  V30 3800 C 360.64 3.34173 4.17412 0
M  V30 3801 C 361.94 4.6335 2.41048 0
M  V30 3802 H 363.634 2.77292 1.12914 0
M  V30 3803 H 361.18 1.33421 0.541738 0
M  V30 3804 H 363.133 2.31324 3.52232 0
M  V30 3805 H 361.857 1.16304 3.0519 0
M  V30 3806 H 360.516 3.04276 2.04479 0
M  V30 3807 H 360.164 2.38098 4.43078 0
M  V30 3808 H 359.864 4.12033 4.18931 0
M  V30 3809 H 361.388 3.57803 4.94782 0
M  V30 3810 H 362.802 4.84602 3.06324 0
M  V30 3811 H 361.199 5.43782 2.53813 0
M  V30 3812 H 362.269 4.65381 1.36193 0
M  V30 3813 N 363.613 -0.582584 1.46437 0
M  V30 3814 C 364.838 -1.37168 1.55563 0
M  V30 3815 C 365.263 -1.87061 0.19743 0
M  V30 3816 O 364.621 -1.61572 -0.822451 0
M  V30 3817 C 364.669 -2.53511 2.56446 0
M  V30 3818 O 363.773 -3.54953 2.09958 0
M  V30 3819 H 363.114 -0.408494 0.523477 0
M  V30 3820 H 365.644 -0.706646 1.9201 0
M  V30 3821 H 365.654 -3.00426 2.76058 0
M  V30 3822 H 364.329 -2.16549 3.55076 0
M  V30 3823 H 362.906 -3.14516 2.00334 0
M  V30 3824 N 365.091 -1.34144 -0.827227 0
M  V30 3825 C 366.039 -1.25364 -1.95925 0
M  V30 3826 C 367.033 -0.152608 -1.68711 0
M  V30 3827 O 368.239 -0.317311 -1.77181 0
M  V30 3828 H 364.614 -0.389342 -0.643364 0
M  V30 3829 H 366.585 -2.21045 -2.00454 0
M  V30 3830 C 365.334 -1.02158 -3.32354 0
M  V30 3831 H 364.657 -1.86111 -3.5384 0
M  V30 3832 H 366.097 -1.00048 -4.12027 0
M  V30 3833 C 364.556 0.275244 -3.35774 0
M  V30 3834 O 365.086 1.27806 -3.80826 0
M  V30 3835 N 363.292 0.306853 -2.88975 0
M  V30 3836 H 362.839 -0.509777 -2.52506 0
M  V30 3837 H 362.797 1.17432 -2.91646 0
M  V30 3838 N 366.569 1.04691 -1.17803 0
M  V30 3839 C 367.502 2.12068 -0.842765 0
M  V30 3840 C 368.48 1.61455 0.192608 0
M  V30 3841 O 369.664 1.88359 0.072995 0
M  V30 3842 C 366.791 3.37715 -0.258063 0
M  V30 3843 C 365.837 4.07164 -1.26962 0
M  V30 3844 S 366.67 4.55047 -2.82299 0
M  V30 3845 C 367.826 5.83935 -2.25323 0
M  V30 3846 H 368.059 2.4018 -1.75217 0
M  V30 3847 H 365.592 1.17366 -1.00323 0
M  V30 3848 H 367.55 4.10435 0.0727935 0
M  V30 3849 H 366.211 3.0773 0.629357 0
M  V30 3850 H 365.404 4.9746 -0.809263 0
M  V30 3851 H 365.006 3.40533 -1.54639 0
M  V30 3852 H 367.298 6.57552 -1.63192 0
M  V30 3853 H 368.241 6.34725 -3.13894 0
M  V30 3854 H 368.649 5.3874 -1.68582 0
M  V30 3855 N 368.047 0.979072 1.23499 0
M  V30 3856 C 368.977 0.537606 2.27227 0
M  V30 3857 C 369.958 -0.428539 1.64613 0
M  V30 3858 O 371.143 -0.322191 1.91509 0
M  V30 3859 C 368.273 -0.162052 3.46922 0
M  V30 3860 C 367.227 0.721242 4.21879 0
M  V30 3861 C 366.553 -0.110555 5.34586 0
M  V30 3862 C 367.853 2.01141 4.82016 0
M  V30 3863 H 369.547 1.40462 2.64406 0
M  V30 3864 H 367.093 0.67684 1.27102 0
M  V30 3865 H 369.046 -0.482192 4.18632 0
M  V30 3866 H 367.77 -1.06351 3.08799 0
M  V30 3867 H 366.429 1.02482 3.51984 0
M  V30 3868 H 366.077 -1.0125 4.92704 0
M  V30 3869 H 365.777 0.477325 5.85658 0
M  V30 3870 H 367.301 -0.425107 6.09118 0
M  V30 3871 H 368.715 1.75612 5.45741 0
M  V30 3872 H 367.112 2.54695 5.43369 0
M  V30 3873 H 368.182 2.69909 4.02836 0
M  V30 3874 N 369.525 -1.3858 0.750561 0
M  V30 3875 C 370.936 -1.82927 0.373438 0
M  V30 3876 C 371.287 -1.62634 -1.09748 0
M  V30 3877 O 370.412 -1.12588 -1.84805 0
M  V30 3878 C 371.007 -3.32088 0.671029 0
M  V30 3879 C 369.566 -3.74795 0.34722 0
M  V30 3880 C 368.713 -2.61391 0.92575 0
M  V30 3881 H 371.664 -1.27351 0.946958 0
M  V30 3882 H 371.685 -3.80465 -0.0518269 0
M  V30 3883 H 371.197 -3.46826 1.74164 0
M  V30 3884 H 369.298 -3.65638 -0.716933 0
M  V30 3885 H 369.411 -4.71667 0.840656 0
M  V30 3886 H 367.775 -2.52265 0.351327 0
M  V30 3887 H 368.558 -2.78929 2.00133 0
M  V30 3888 N 371.003 -0.499398 -1.49478 0
M  V30 3889 C 371.95 0.279881 -2.29097 0
M  V30 3890 C 372.92 0.961805 -1.3542 0
M  V30 3891 O 374.105 0.968777 -1.64376 0
M  V30 3892 C 371.245 1.33932 -3.18051 0
M  V30 3893 C 370.358 0.669333 -4.26783 0
M  V30 3894 C 369.493 1.70907 -5.02955 0
M  V30 3895 C 368.532 1.02087 -6.03527 0
M  V30 3896 N 367.669 2.00474 -6.7287 0
M  V30 3897 H 372.509 -0.405317 -2.95231 0
M  V30 3898 H 370.046 -0.211726 -1.45568 0
M  V30 3899 H 372.004 1.96553 -3.67998 0
M  V30 3900 H 370.634 1.9933 -2.53904 0
M  V30 3901 H 369.686 -0.0701234 -3.80335 0
M  V30 3902 H 370.998 0.127503 -4.98637 0
M  V30 3903 H 370.152 2.41037 -5.56764 0
M  V30 3904 H 368.891 2.28476 -4.30871 0
M  V30 3905 H 367.896 0.305338 -5.48951 0
M  V30 3906 H 369.121 0.451708 -6.77596 0
M  V30 3907 H 367.067 2.57007 -6.03559 0
M  V30 3908 H 366.984 1.51353 -7.40694 0
M  V30 3909 H 368.252 2.69897 -7.31284 0
M  V30 3910 N 372.481 1.55866 -0.233164 0
M  V30 3911 C 373.729 1.9821 0.394593 0
M  V30 3912 C 374.05 1.12234 1.59463 0
M  V30 3913 O 373.32 0.201981 1.94856 0
M  V30 3914 H 371.9 0.732034 0.148778 0
M  V30 3915 H 374.562 1.92107 -0.32876 0
M  V30 3916 H 373.658 3.03845 0.713063 0
M  V30 3917 N 373.959 -0.0401083 1.57549 0
M  V30 3918 C 375.37 -0.588097 1.77196 0
M  V30 3919 C 375.721 -1.76209 0.862832 0
M  V30 3920 O 374.846 -2.16331 0.0548389 0
M  V30 3921 C 375.441 -1.07363 3.21339 0
M  V30 3922 C 374 -1.56723 3.42221 0
M  V30 3923 C 373.147 -0.50041 2.72747 0
M  V30 3924 H 376.098 0.186119 1.57605 0
M  V30 3925 H 376.119 -1.94143 3.27244 0
M  V30 3926 H 375.631 -0.218975 3.87482 0
M  V30 3927 H 373.732 -2.4441 2.81237 0
M  V30 3928 H 373.845 -1.62234 4.50796 0
M  V30 3929 H 372.209 -0.952894 2.36203 0
M  V30 3930 H 372.992 0.344599 3.41566 0
M  V30 3931 N 375.437 -1.54477 -0.31217 0
M  V30 3932 C 376.662 -1.77526 -1.07235 0
M  V30 3933 C 377.087 -0.527775 -1.80544 0
M  V30 3934 O 376.445 0.52121 -1.73646 0
M  V30 3935 C 376.493 -2.97535 -2.03728 0
M  V30 3936 O 375.597 -2.69878 -3.11833 0
M  V30 3937 H 374.938 -0.58792 -0.30862 0
M  V30 3938 H 377.468 -2.01532 -0.352993 0
M  V30 3939 H 377.478 -3.25198 -2.46395 0
M  V30 3940 H 376.153 -3.87996 -1.49774 0
M  V30 3941 H 374.73 -2.53199 -2.7376 0
M  V30 3942 N 376.915 0.57481 -1.46744 0
M  V30 3943 C 378.143 1.35856 -1.56047 0
M  V30 3944 C 378.558 1.87691 -0.204365 0
M  V30 3945 O 377.915 1.64049 0.79963 0
M  V30 3946 C 377.966 2.54066 -2.57163 0
M  V30 3947 O 377.687 2.04377 -3.87507 0
M  V30 3948 C 379.188 3.46514 -2.76483 0
M  V30 3949 H 376.408 0.414754 -0.527466 0
M  V30 3950 H 378.952 0.698035 -1.92218 0
M  V30 3951 H 377.107 3.16092 -2.23974 0
M  V30 3952 H 377.521 2.81419 -4.4261 0
M  V30 3953 H 378.995 4.25919 -3.51137 0
M  V30 3954 H 379.472 3.98951 -1.83671 0
M  V30 3955 H 380.078 2.90318 -3.10799 0
M  V30 3956 N 378.394 1.34581 0.820102 0
M  V30 3957 C 379.805 1.24298 1.39309 0
M  V30 3958 C 380.156 -0.130351 1.95767 0
M  V30 3959 O 379.281 -1.0308 1.90272 0
M  V30 3960 C 379.876 2.25054 2.53251 0
M  V30 3961 C 378.435 2.18552 3.0645 0
M  V30 3962 C 377.582 2.11503 1.79337 0
M  V30 3963 H 380.533 1.45906 0.624262 0
M  V30 3964 H 380.554 1.86917 3.31425 0
M  V30 3965 H 380.066 3.24996 2.1213 0
M  V30 3966 H 378.167 1.21976 3.52069 0
M  V30 3967 H 378.28 3.0993 3.65349 0
M  V30 3968 H 376.644 1.57268 2.00347 0
M  V30 3969 H 377.427 3.13284 1.40386 0
M  V30 3970 N 379.872 -1.04064 1.18357 0
M  V30 3971 C 380.802 -2.14001 0.934113 0
M  V30 3972 C 381.783 -1.69616 -0.128186 0
M  V30 3973 O 382.968 -1.94185 0.0244093 0
M  V30 3974 C 380.098 -3.44253 0.459066 0
M  V30 3975 C 379.052 -4.02261 1.46185 0
M  V30 3976 C 378.378 -5.27992 0.844322 0
M  V30 3977 C 379.678 -4.38432 2.83856 0
M  V30 3978 H 381.372 -2.35127 1.85352 0
M  V30 3979 H 378.918 -1.12998 0.892604 0
M  V30 3980 H 380.871 -4.20522 0.271907 0
M  V30 3981 H 379.595 -3.22813 -0.495912 0
M  V30 3982 H 378.254 -3.28074 1.63595 0
M  V30 3983 H 377.902 -5.02862 -0.117845 0
M  V30 3984 H 377.602 -5.67765 1.51384 0
M  V30 3985 H 379.126 -6.06938 0.667693 0
M  V30 3986 H 380.54 -5.05688 2.70098 0
M  V30 3987 H 378.937 -4.89254 3.47491 0
M  V30 3988 H 380.007 -3.4826 3.37406 0
M  V30 3989 N 381.35 -0.985608 -1.22978 0
M  V30 3990 C 382.761 -0.693593 -1.73338 0
M  V30 3991 C 383.112 0.789935 -1.79595 0
M  V30 3992 O 382.237 1.61771 -1.43733 0
M  V30 3993 C 382.832 -1.25235 -3.14804 0
M  V30 3994 C 381.391 -1.00987 -3.626 0
M  V30 3995 C 380.538 -1.37695 -2.40698 0
M  V30 3996 H 383.489 -1.15884 -1.08428 0
M  V30 3997 H 383.51 -0.627329 -3.75293 0
M  V30 3998 H 383.022 -2.33209 -3.10218 0
M  V30 3999 H 381.123 0.0535565 -3.72562 0
M  V30 4000 H 381.236 -1.66812 -4.49122 0
M  V30 4001 H 379.6 -0.795459 -2.4196 0
M  V30 4002 H 380.383 -2.46657 -2.38779 0
M  V30 4003 N 382.828 1.3818 -0.7579 0
M  V30 4004 C 383.738 2.3421 -0.135247 0
M  V30 4005 C 384.754 1.59487 0.695683 0
M  V30 4006 O 385.93 1.91657 0.618832 0
M  V30 4007 C 382.995 3.3862 0.744139 0
M  V30 4008 C 382.056 4.2918 -0.101658 0
M  V30 4009 C 381.289 5.28603 0.735851 0
M  V30 4010 O 381.512 5.35166 1.97366 0
M  V30 4011 O 380.446 6.01707 0.152372 0
M  V30 4012 H 384.272 2.8916 -0.928436 0
M  V30 4013 H 381.857 1.40101 -0.518855 0
M  V30 4014 H 383.739 4.02539 1.2466 0
M  V30 4015 H 382.414 2.86019 1.51575 0
M  V30 4016 H 381.321 3.68407 -0.650167 0
M  V30 4017 H 382.654 4.85048 -0.836024 0
M  V30 4018 N 384.306 0.507319 1.49211 0
M  V30 4019 C 385.583 -0.0982702 1.95353 0
M  V30 4020 C 385.963 -1.53516 1.449 0
M  V30 4021 O 385.311 -2.18594 0.66551 0
M  V30 4022 C 385.521 -0.00440283 3.49 0
M  V30 4023 C 386.869 -0.175147 4.24239 0
M  V30 4024 O 387.893 -0.0792891 3.56112 0
M  V30 4025 O 386.752 -0.37276 5.45227 0
M  V30 4026 H 383.846 -0.0918236 0.821887 0
M  V30 4027 H 386.392 0.570307 1.5983 0
M  V30 4028 H 385.164 0.997402 3.78375 0
M  V30 4029 H 384.787 -0.712845 3.91158 0
M  V30 4030 N 385.784 -1.5574 0.241426 0
M  V30 4031 C 387.195 -1.84842 -0.262755 0
M  V30 4032 C 387.546 -1.16317 -1.58003 0
M  V30 4033 O 386.671 -0.439653 -2.11887 0
M  V30 4034 C 387.266 -3.35332 -0.483523 0
M  V30 4035 C 385.825 -3.6468 -0.931977 0
M  V30 4036 C 384.972 -2.77299 -0.0061151 0
M  V30 4037 H 387.923 -1.51761 0.464129 0
M  V30 4038 H 387.944 -3.56615 -1.32688 0
M  V30 4039 H 387.456 -3.85178 0.47537 0
M  V30 4040 H 385.557 -3.20307 -1.90353 0
M  V30 4041 H 385.67 -4.72498 -0.792628 0
M  V30 4042 H 384.034 -2.49408 -0.516503 0
M  V30 4043 H 384.817 -3.2995 0.948052 0
M  V30 4044 N 387.262 0.0317525 -1.57568 0
M  V30 4045 C 388.21 1.05165 -2.07468 0
M  V30 4046 C 389.204 1.3761 -0.98792 0
M  V30 4047 O 390.41 1.36546 -1.17282 0
M  V30 4048 H 386.785 0.35666 -0.66204 0
M  V30 4049 H 388.756 0.604958 -2.92203 0
M  V30 4050 C 387.505 2.34488 -2.56731 0
M  V30 4051 H 386.828 2.10383 -3.39969 0
M  V30 4052 H 388.268 3.04203 -2.95358 0
M  V30 4053 C 386.727 3.03266 -1.46736 0
M  V30 4054 O 387.257 3.92988 -0.832069 0
M  V30 4055 N 385.463 2.6455 -1.20256 0
M  V30 4056 H 385.01 1.91674 -1.72102 0
M  V30 4057 H 384.968 3.10886 -0.468737 0
M  V30 4058 N 388.74 1.54641 0.303973 0
M  V30 4059 C 389.986 1.74969 1.03718 0
M  V30 4060 C 390.341 0.527461 1.85029 0
M  V30 4061 O 389.634 -0.480143 1.85486 0
M  V30 4062 C 389.828 2.97753 1.97681 0
M  V30 4063 C 389.657 4.318 1.25613 0
M  V30 4064 C 388.427 4.95616 0.984518 0
M  V30 4065 C 390.625 5.10021 0.662081 0
M  V30 4066 N 388.607 6.13455 0.233794 0
M  V30 4067 C 389.978 6.19984 0.0439736 0
M  V30 4068 C 392.033 4.94663 0.566835 0
M  V30 4069 C 390.736 7.16264 -0.66016 0
M  V30 4070 C 392.762 5.91271 -0.123637 0
M  V30 4071 C 392.124 7.00601 -0.730608 0
M  V30 4072 H 388.223 0.692873 0.362562 0
M  V30 4073 H 390.807 1.92116 0.316135 0
M  V30 4074 H 388.978 2.82036 2.6704 0
M  V30 4075 H 390.71 3.06621 2.64132 0
M  V30 4076 H 387.465 4.55921 1.28191 0
M  V30 4077 H 387.889 6.76879 -0.127996 0
M  V30 4078 H 392.531 4.10267 1.02181 0
M  V30 4079 H 390.249 8.00204 -1.12691 0
M  V30 4080 H 393.835 5.81466 -0.197236 0
M  V30 4081 H 392.715 7.7407 -1.2564 0
M  V30 4082 N 390.218 -0.567019 1.47046 0
M  V30 4083 C 391.166 -1.69593 1.59188 0
M  V30 4084 C 392.16 -1.63046 0.459609 0
M  V30 4085 O 393.366 -1.6835 0.637058 0
M  V30 4086 H 389.741 -0.560993 0.500791 0
M  V30 4087 H 391.712 -1.56488 2.54075 0
M  V30 4088 C 390.461 -3.07964 1.61411 0
M  V30 4089 H 389.784 -3.13679 2.47881 0
M  V30 4090 H 391.224 -3.86671 1.73958 0
M  V30 4091 C 389.683 -3.35123 0.34559 0
M  V30 4092 O 390.213 -3.97812 -0.557521 0
M  V30 4093 N 388.419 -2.89699 0.22864 0
M  V30 4094 H 387.966 -2.38863 0.964479 0
M  V30 4095 H 387.924 -3.08242 -0.619192 0
M  V30 4096 N 391.696 -1.35014 -0.812953 0
M  V30 4097 C 392.942 -1.2812 -1.57204 0
M  V30 4098 C 393.275 0.145869 -1.93651 0
M  V30 4099 O 392.55 1.0937 -1.60836 0
M  V30 4100 C 392.833 -2.18162 -2.86492 0
M  V30 4101 C 392.686 -3.69454 -2.56561 0
M  V30 4102 C 394.005 -2.07439 -3.88145 0
M  V30 4103 H 391.124 -0.466746 -0.570366 0
M  V30 4104 H 393.766 -1.65357 -0.935783 0
M  V30 4105 H 391.916 -1.86535 -3.40789 0
M  V30 4106 H 393.588 -4.11493 -2.08497 0
M  V30 4107 H 391.831 -3.9005 -1.89851 0
M  V30 4108 H 392.502 -4.27835 -3.48799 0
M  V30 4109 H 394.978 -2.35228 -3.4323 0
M  V30 4110 H 393.854 -2.7265 -4.76396 0
M  V30 4111 H 394.115 -1.05439 -4.29343 0
M  V30 4112 N 393.175 1.03435 -1.18907 0
M  V30 4113 C 394.403 1.80381 -1.01342 0
M  V30 4114 C 394.818 1.83649 0.438005 0
M  V30 4115 O 394.175 1.27655 1.30424 0
M  V30 4116 C 394.226 3.25689 -1.56873 0
M  V30 4117 O 393.947 3.22673 -2.96334 0
M  V30 4118 C 395.448 4.19255 -1.44014 0
M  V30 4119 H 392.668 0.56784 -0.35749 0
M  V30 4120 H 395.212 1.30317 -1.576 0
M  V30 4121 H 393.367 3.72962 -1.04777 0
M  V30 4122 H 393.781 4.13748 -3.22355 0
M  V30 4123 H 395.255 5.19123 -1.87657 0
M  V30 4124 H 395.732 4.37467 -0.389815 0
M  V30 4125 H 396.338 3.77851 -1.95214 0
M  V30 4126 N 394.653 0.992116 1.22453 0
M  V30 4127 C 395.563 0.55065 2.28046 0
M  V30 4128 C 396.579 -0.400189 1.69335 0
M  V30 4129 O 397.755 -0.267215 1.99619 0
M  V30 4130 C 394.82 -0.128496 3.46462 0
M  V30 4131 C 393.881 0.865208 4.20491 0
M  V30 4132 C 393.114 0.218377 5.33253 0
M  V30 4133 O 393.337 -0.987894 5.6178 0
M  V30 4134 O 392.271 0.922845 5.94783 0
M  V30 4135 H 396.097 1.4291 2.67975 0
M  V30 4136 H 393.682 0.760326 1.28606 0
M  V30 4137 H 395.564 -0.508947 4.18315 0
M  V30 4138 H 394.239 -0.981526 3.0846 0
M  V30 4139 H 393.146 1.29658 3.50913 0
M  V30 4140 H 394.479 1.68741 4.62371 0
M  V30 4141 N 396.131 -1.37776 0.765217 0
M  V30 4142 C 397.378 -1.99849 0.326588 0
M  V30 4143 C 397.706 -1.60746 -1.09504 0
M  V30 4144 O 396.961 -0.84202 -1.76659 0
M  V30 4145 C 397.26 -3.5504 0.410053 0
M  V30 4146 C 396.926 -4.13891 1.78899 0
M  V30 4147 C 395.588 -4.29678 2.16635 0
M  V30 4148 C 397.94 -4.46236 2.69301 0
M  V30 4149 C 395.268 -4.7511 3.44221 0
M  V30 4150 C 397.62 -4.93089 3.9629 0
M  V30 4151 C 396.284 -5.07082 4.34078 0
M  V30 4152 H 395.554 -0.7313 0.119507 0
M  V30 4153 H 398.201 -1.64645 0.977968 0
M  V30 4154 H 396.506 -3.90451 -0.324878 0
M  V30 4155 H 398.203 -4.00966 0.0520699 0
M  V30 4156 H 394.793 -4.02026 1.48569 0
M  V30 4157 H 398.977 -4.3363 2.41409 0
M  V30 4158 H 394.233 -4.84129 3.73402 0
M  V30 4159 H 398.407 -5.17084 4.66472 0
M  V30 4160 H 396.034 -5.42046 5.33001 0
M  V30 4161 N 397.609 -0.515225 -1.4894 0
M  V30 4162 C 398.559 0.275113 -2.26334 0
M  V30 4163 C 399.543 0.923007 -1.31793 0
M  V30 4164 O 400.735 0.828254 -1.56426 0
M  V30 4165 C 397.864 1.33041 -3.16473 0
M  V30 4166 C 396.95 0.688051 -4.18481 0
M  V30 4167 N 397.341 -0.217638 -5.05332 0
M  V30 4168 C 395.639 0.94699 -4.3583 0
M  V30 4169 C 396.34 -0.58676 -5.78733 0
M  V30 4170 N 395.316 0.0486966 -5.43578 0
M  V30 4171 H 399.118 -0.421876 -2.90856 0
M  V30 4172 H 396.632 -0.332249 -1.58965 0
M  V30 4173 H 398.629 1.9102 -3.70563 0
M  V30 4174 H 397.289 2.02894 -2.53504 0
M  V30 4175 H 398.3 -0.589343 -5.14536 0
M  V30 4176 H 394.977 1.63719 -3.8406 0
M  V30 4177 H 396.367 -1.32855 -6.58634 0
M  V30 4178 N 399.087 1.5561 -0.249682 0
M  V30 4179 C 400.315 2.03411 0.378352 0
M  V30 4180 C 400.73 1.12886 1.51335 0
M  V30 4181 O 400.087 0.143833 1.81932 0
M  V30 4182 C 400.138 3.50537 0.88351 0
M  V30 4183 O 399.859 4.37614 -0.20626 0
M  V30 4184 C 401.36 4.14113 1.58195 0
M  V30 4185 H 398.58 0.664994 0.08958 0
M  V30 4186 H 401.124 2.01044 -0.374357 0
M  V30 4187 H 399.279 3.5343 1.58639 0
M  V30 4188 H 399.693 5.24199 0.177782 0
M  V30 4189 H 401.167 5.18741 1.8871 0
M  V30 4190 H 401.644 3.60767 2.50487 0
M  V30 4191 H 402.25 4.15151 0.923573 0
M  V30 4192 N 400.565 -0.0233959 1.57583 0
M  V30 4193 C 401.793 -0.724682 1.93794 0
M  V30 4194 C 402.208 -1.68588 0.849912 0
M  V30 4195 O 401.565 -1.81676 -0.173204 0
M  V30 4196 C 401.616 -1.47684 3.29957 0
M  V30 4197 O 401.337 -0.554222 4.3458 0
M  V30 4198 C 402.838 -2.27477 3.80485 0
M  V30 4199 H 400.058 -0.203317 0.639455 0
M  V30 4200 H 402.602 0.0207653 2.04489 0
M  V30 4201 H 400.757 -2.17412 3.20641 0
M  V30 4202 H 401.171 -1.08232 5.13212 0
M  V30 4203 H 402.645 -2.7564 4.78254 0
M  V30 4204 H 403.122 -3.09144 3.11972 0
M  V30 4205 H 403.728 -1.62813 3.92902 0
M  V30 4206 N 402.043 -1.548 -0.295768 0
M  V30 4207 C 403.454 -1.65274 -0.868411 0
M  V30 4208 C 403.805 -0.56481 -1.87894 0
M  V30 4209 O 402.93 0.29767 -2.14343 0
M  V30 4210 C 403.525 -2.99603 -1.58188 0
M  V30 4211 C 402.084 -3.12181 -2.10286 0
M  V30 4212 C 401.231 -2.6098 -0.93727 0
M  V30 4213 H 404.182 -1.58534 -0.0726422 0
M  V30 4214 H 404.203 -2.91319 -2.44772 0
M  V30 4215 H 403.715 -3.78764 -0.846151 0
M  V30 4216 H 401.816 -2.3775 -2.8689 0
M  V30 4217 H 401.929 -4.18415 -2.33379 0
M  V30 4218 H 400.293 -2.17564 -1.32431 0
M  V30 4219 H 401.076 -3.42623 -0.215414 0
M  V30 4220 N 403.521 0.559213 -1.47345 0
M  V30 4221 C 404.468 1.66645 -1.59682 0
M  V30 4222 C 405.438 1.60168 -0.43994 0
M  V30 4223 O 406.623 1.79031 -0.659736 0
M  V30 4224 C 403.763 3.04969 -1.61518 0
M  V30 4225 C 402.876 3.21897 -2.88108 0
M  V30 4226 C 402.011 4.50608 -2.81294 0
M  V30 4227 C 401.05 4.60961 -4.02717 0
M  V30 4228 N 400.187 5.81024 -3.94151 0
M  V30 4229 H 405.027 1.55439 -2.54249 0
M  V30 4230 H 402.564 0.757219 -1.26113 0
M  V30 4231 H 404.522 3.85064 -1.60566 0
M  V30 4232 H 403.152 3.15015 -0.704645 0
M  V30 4233 H 402.204 2.35248 -2.98936 0
M  V30 4234 H 403.516 3.25412 -3.78032 0
M  V30 4235 H 402.67 5.3896 -2.7858 0
M  V30 4236 H 401.409 4.49568 -1.89049 0
M  V30 4237 H 400.414 3.71021 -4.05738 0
M  V30 4238 H 401.639 4.63761 -4.96087 0
M  V30 4239 H 399.585 5.80938 -3.04708 0
M  V30 4240 H 399.502 5.85909 -4.77752 0
M  V30 4241 H 400.77 6.71744 -3.9545 0
M  V30 4242 N 404.999 1.35443 0.805782 0
M  V30 4243 C 405.932 1.22783 1.92353 0
M  V30 4244 C 406.91 0.115543 1.62189 0
M  V30 4245 O 408.094 0.283778 1.86352 0
M  V30 4246 C 405.221 0.890746 3.26777 0
M  V30 4247 C 404.267 2.01519 3.75889 0
M  V30 4248 S 405.1 3.63101 3.93596 0
M  V30 4249 C 406.256 3.31472 5.30921 0
M  V30 4250 H 406.489 2.17394 2.02798 0
M  V30 4251 H 404.022 1.20669 0.963245 0
M  V30 4252 H 405.98 0.703068 4.04434 0
M  V30 4253 H 404.641 -0.0373152 3.14078 0
M  V30 4254 H 403.834 1.7335 4.7325 0
M  V30 4255 H 403.436 2.16124 3.05231 0
M  V30 4256 H 405.728 2.8435 6.1494 0
M  V30 4257 H 406.671 4.28036 5.64084 0
M  V30 4258 H 407.079 2.67221 4.97246 0
M  V30 4259 N 406.477 -1.02803 1.19454 0
M  V30 4260 C 407.702 -1.80378 1.02364 0
M  V30 4261 C 408.127 -1.83282 -0.423007 0
M  V30 4262 O 407.485 -1.25945 -1.30413 0
M  V30 4263 C 407.533 -3.23248 1.59821 0
M  V30 4264 O 406.637 -4.04 0.828105 0
M  V30 4265 H 405.978 -0.556799 0.361761 0
M  V30 4266 H 408.508 -1.29385 1.58495 0
M  V30 4267 H 408.518 -3.73994 1.63073 0
M  V30 4268 H 407.193 -3.2045 2.65113 0
M  V30 4269 H 405.77 -3.62635 0.86891 0
M  V30 4270 N 407.956 -0.998596 -1.21925 0
M  V30 4271 C 409.184 -0.696286 -1.94832 0
M  V30 4272 C 409.599 0.740032 -1.73692 0
M  V30 4273 O 408.956 1.5 -1.03953 0
M  V30 4274 C 409.007 -0.999833 -3.47398 0
M  V30 4275 O 408.728 -2.37972 -3.67833 0
M  V30 4276 C 410.229 -0.716025 -4.37479 0
M  V30 4277 H 407.449 -0.257111 -0.619786 0
M  V30 4278 H 409.993 -1.33491 -1.54921 0
M  V30 4279 H 408.148 -0.406918 -3.85257 0
M  V30 4280 H 408.562 -2.48338 -4.61983 0
M  V30 4281 H 410.036 -0.978642 -5.43256 0
M  V30 4282 H 410.513 0.349968 -4.37803 0
M  V30 4283 H 411.119 -1.29025 -4.05256 0
M  V30 4284 N 409.434 1.37368 -0.772513 0
M  V30 4285 C 410.664 2.03647 -0.348082 0
M  V30 4286 C 411.072 1.58392 1.03482 0
M  V30 4287 O 410.415 0.760921 1.672 0
M  V30 4288 C 410.477 3.58131 -0.313404 0
M  V30 4289 C 410.141 4.2652 -1.64102 0
M  V30 4290 C 411.138 4.50587 -2.5936 0
M  V30 4291 C 408.823 4.64335 -1.91567 0
M  V30 4292 C 410.817 5.11526 -3.80289 0
M  V30 4293 C 408.504 5.24996 -3.12766 0
M  V30 4294 C 409.502 5.48529 -4.06946 0
M  V30 4295 O 409.19 6.07921 -5.26011 0
M  V30 4296 H 408.922 0.660538 -0.143753 0
M  V30 4297 H 411.476 1.76669 -1.04772 0
M  V30 4298 H 409.706 3.84159 0.442617 0
M  V30 4299 H 411.395 4.05813 0.0840613 0
M  V30 4300 H 412.161 4.21784 -2.39423 0
M  V30 4301 H 408.04 4.45353 -1.19088 0
M  V30 4302 H 411.584 5.29811 -4.53813 0
M  V30 4303 H 407.481 5.53223 -3.32588 0
M  V30 4304 H 408.249 6.26398 -5.26847 0
M  V30 4305 N 410.912 0.523116 1.48665 0
M  V30 4306 C 411.842 -0.23231 2.32342 0
M  V30 4307 C 412.823 -0.941637 1.41659 0
M  V30 4308 O 414.008 -0.928751 1.70552 0
M  V30 4309 C 411.138 -1.28387 3.22698 0
M  V30 4310 C 410.092 -0.693098 4.22351 0
M  V30 4311 C 409.418 -1.8468 5.01794 0
M  V30 4312 C 410.718 0.33063 5.21252 0
M  V30 4313 H 412.412 0.466192 2.95748 0
M  V30 4314 H 409.958 0.225643 1.42221 0
M  V30 4315 H 411.911 -1.82024 3.80059 0
M  V30 4316 H 410.635 -2.01186 2.57278 0
M  V30 4317 H 409.294 -0.178299 3.66166 0
M  V30 4318 H 408.942 -2.56301 4.32804 0
M  V30 4319 H 408.642 -1.45747 5.69238 0
M  V30 4320 H 410.166 -2.38709 5.62006 0
M  V30 4321 H 411.58 -0.118407 5.73178 0
M  V30 4322 H 409.977 0.636974 5.9671 0
M  V30 4323 H 411.047 1.23883 4.68808 0
M  V30 4324 N 412.39 -1.55475 0.257931 0
M  V30 4325 C 413.32 -2.24815 -0.630912 0
M  V30 4326 C 414.301 -1.23224 -1.17259 0
M  V30 4327 O 415.486 -1.51904 -1.20991 0
M  V30 4328 C 412.616 -2.95609 -1.82298 0
M  V30 4329 C 411.57 -4.03982 -1.41359 0
M  V30 4330 C 410.896 -4.6226 -2.68738 0
M  V30 4331 C 412.196 -5.19109 -0.57648 0
M  V30 4332 H 413.89 -2.99354 -0.0526878 0
M  V30 4333 H 411.436 -1.4398 -0.023901 0
M  V30 4334 H 413.389 -3.42822 -2.45054 0
M  V30 4335 H 412.113 -2.18577 -2.42676 0
M  V30 4336 H 410.772 -3.57555 -0.809324 0
M  V30 4337 H 410.42 -3.81915 -3.27338 0
M  V30 4338 H 410.12 -5.35424 -2.42065 0
M  V30 4339 H 411.644 -5.12212 -3.32372 0
M  V30 4340 H 413.058 -5.62479 -1.10861 0
M  V30 4341 H 411.455 -5.98729 -0.405351 0
M  V30 4342 H 412.525 -4.83174 0.408776 0
M  V30 4343 N 413.868 0.0150385 -1.57593 0
M  V30 4344 C 414.831 0.995996 -2.06428 0
M  V30 4345 C 415.831 1.2818 -0.970903 0
M  V30 4346 O 417.021 1.22949 -1.23406 0
M  V30 4347 C 414.153 2.32506 -2.49307 0
M  V30 4348 H 415.346 0.573873 -2.94358 0
M  V30 4349 H 412.899 0.262186 -1.54085 0
M  V30 4350 H 413.634 2.79438 -1.64575 0
M  V30 4351 H 413.419 2.13087 -3.29145 0
M  V30 4352 H 414.909 3.02906 -2.87468 0
M  V30 4353 N 415.346 1.54954 0.287554 0
M  V30 4354 C 416.593 1.74873 1.02106 0
M  V30 4355 C 416.921 0.541829 1.86801 0
M  V30 4356 O 416.176 -0.475992 1.89823 0
M  V30 4357 C 416.475 2.99833 1.94512 0
M  V30 4358 C 416.141 4.33029 1.25686 0
M  V30 4359 C 414.803 4.69233 1.06649 0
M  V30 4360 C 417.155 5.15542 0.765913 0
M  V30 4361 C 414.483 5.85518 0.372222 0
M  V30 4362 C 416.835 6.32542 0.0853101 0
M  V30 4363 C 415.499 6.67398 -0.1169 0
M  V30 4364 H 414.769 0.639906 0.373632 0
M  V30 4365 H 417.416 1.89219 0.294665 0
M  V30 4366 H 415.721 2.80325 2.73725 0
M  V30 4367 H 417.418 3.1244 2.51361 0
M  V30 4368 H 414.008 4.04564 1.41512 0
M  V30 4369 H 418.192 4.88059 0.90066 0
M  V30 4370 H 413.448 6.11057 0.204695 0
M  V30 4371 H 417.622 6.95741 -0.302936 0
M  V30 4372 H 415.249 7.57357 -0.656859 0
M  V30 4373 N 416.824 -0.551391 1.4764 0
M  V30 4374 C 418.073 -1.30467 1.53822 0
M  V30 4375 C 418.386 -1.94495 0.207661 0
M  V30 4376 O 419.592 -2.71099 0.147533 0
M  V30 4377 C 418.048 -2.36616 2.71184 0
M  V30 4378 C 417.656 -1.78754 4.10793 0
M  V30 4379 C 419.4 -3.13088 2.86663 0
M  V30 4380 C 417.307 -2.82717 5.19447 0
M  V30 4381 H 416.237 -0.490584 0.572576 0
M  V30 4382 H 418.888 -0.58494 1.73927 0
M  V30 4383 H 417.27 -3.11529 2.4447 0
M  V30 4384 H 418.444 -1.10173 4.47435 0
M  V30 4385 H 416.759 -1.14846 4.00249 0
M  V30 4386 H 419.356 -3.90736 3.65007 0
M  V30 4387 H 419.699 -3.67635 1.95321 0
M  V30 4388 H 420.232 -2.45288 3.13175 0
M  V30 4389 H 416.971 -2.33018 6.12685 0
M  V30 4390 H 416.491 -3.4969 4.87316 0
M  V30 4391 H 418.17 -3.46102 5.46646 0
M  V30 4392 N 418.302 -1.35869 -0.798587 0
M  V30 4393 C 419.548 -1.2978 -1.55836 0
M  V30 4394 C 419.881 0.125322 -1.93795 0
M  V30 4395 O 419.156 1.07658 -1.61987 0
M  V30 4396 C 419.439 -2.21188 -2.84162 0
M  V30 4397 C 419.292 -3.72155 -2.52628 0
M  V30 4398 C 420.611 -2.11545 -3.85923 0
M  V30 4399 H 417.73 -0.472769 -0.565383 0
M  V30 4400 H 420.372 -1.66341 -0.918192 0
M  V30 4401 H 418.522 -1.90139 -3.38791 0
M  V30 4402 H 420.194 -4.13682 -2.04121 0
M  V30 4403 H 418.437 -3.92042 -1.85704 0
M  V30 4404 H 419.108 -4.31511 -3.44242 0
M  V30 4405 H 421.584 -2.38855 -3.40716 0
M  V30 4406 H 420.46 -2.77688 -4.73477 0
M  V30 4407 H 420.721 -1.09987 -4.282 0
M  V30 4408 N 419.78 1.02168 -1.19998 0
M  V30 4409 C 421.005 1.79833 -1.03319 0
M  V30 4410 C 421.43 1.83504 0.413281 0
M  V30 4411 O 420.788 1.26635 1.29743 0
M  V30 4412 C 420.836 3.22396 -1.61533 0
M  V30 4413 O 419.94 4.03555 -0.849519 0
M  V30 4414 H 419.281 0.554872 -0.364709 0
M  V30 4415 H 421.811 1.28542 -1.59179 0
M  V30 4416 H 421.821 3.73124 -1.65054 0
M  V30 4417 H 420.496 3.19039 -2.66809 0
M  V30 4418 H 419.073 3.62169 -0.888129 0
M  V30 4419 N 421.258 1.00505 1.21394 0
M  V30 4420 C 422.168 0.574806 2.27449 0
M  V30 4421 C 423.184 -0.382206 1.6975 0
M  V30 4422 O 424.36 -0.246027 1.99892 0
M  V30 4423 C 421.425 -0.0917414 3.46579 0
M  V30 4424 C 420.486 0.909758 4.1955 0
M  V30 4425 C 419.719 0.274924 5.32991 0
M  V30 4426 O 419.942 -0.928254 5.62796 0
M  V30 4427 O 418.876 0.985877 5.93771 0
M  V30 4428 H 422.702 1.45744 2.66444 0
M  V30 4429 H 420.287 0.773923 1.27792 0
M  V30 4430 H 422.169 -0.464551 4.18832 0
M  V30 4431 H 420.844 -0.948755 3.09484 0
M  V30 4432 H 419.751 1.33372 3.49518 0
M  V30 4433 H 421.084 1.73636 4.60555 0
M  V30 4434 N 422.737 -1.36956 0.779787 0
M  V30 4435 C 423.984 -1.99491 0.347766 0
M  V30 4436 C 424.312 -1.61898 -1.07793 0
M  V30 4437 O 423.567 -0.86071 -1.75756 0
M  V30 4438 C 423.866 -3.54585 0.447686 0
M  V30 4439 C 423.532 -4.1197 1.83279 0
M  V30 4440 C 422.194 -4.27356 2.2118 0
M  V30 4441 C 424.546 -4.43354 2.74019 0
M  V30 4442 C 421.874 -4.71432 3.4924 0
M  V30 4443 C 424.226 -4.88858 4.01497 0
M  V30 4444 C 422.89 -5.0245 4.39432 0
M  V30 4445 H 422.16 -0.729991 0.127257 0
M  V30 4446 H 424.807 -1.63599 0.995376 0
M  V30 4447 H 423.112 -3.90773 -0.283447 0
M  V30 4448 H 424.809 -4.00888 0.0945948 0
M  V30 4449 H 421.399 -4.00428 1.52825 0
M  V30 4450 H 425.583 -4.31045 2.45995 0
M  V30 4451 H 420.839 -4.80141 3.78516 0
M  V30 4452 H 425.013 -5.12108 4.71931 0
M  V30 4453 H 422.64 -5.36362 5.38721 0
M  V30 4454 N 424.215 -0.530993 -1.48385 0
M  V30 4455 C 425.492 0.0671788 -1.95485 0
M  V30 4456 C 425.872 1.51191 -1.47324 0
M  V30 4457 O 425.22 2.17507 -0.700202 0
M  V30 4458 C 425.43 -0.0511206 -3.48963 0
M  V30 4459 C 426.778 0.107632 -4.24464 0
M  V30 4460 O 427.802 0.0226248 -3.56193 0
M  V30 4461 O 426.661 0.285972 -5.45751 0
M  V30 4462 H 423.755 0.0787365 -0.823243 0
M  V30 4463 H 426.301 -0.595662 -1.58902 0
M  V30 4464 H 425.073 -1.05747 -3.7674 0
M  V30 4465 H 424.696 0.650525 -3.92242 0
M  V30 4466 N 425.693 1.55336 -0.266172 0
M  V30 4467 C 426.923 2.03506 0.356239 0
M  V30 4468 C 427.331 1.14426 1.50676 0
M  V30 4469 O 426.674 0.155043 1.83045 0
M  V30 4470 C 426.736 3.47848 0.90785 0
M  V30 4471 C 426.4 4.56861 -0.112888 0
M  V30 4472 C 427.397 5.11528 -0.929264 0
M  V30 4473 C 425.082 5.01704 -0.244546 0
M  V30 4474 C 427.076 6.09549 -1.86357 0
M  V30 4475 C 424.763 5.99553 -1.18234 0
M  V30 4476 C 425.761 6.53356 -1.99036 0
M  V30 4477 O 425.449 7.49293 -2.91231 0
M  V30 4478 H 425.181 0.670444 0.08649 0
M  V30 4479 H 427.735 2.01598 -0.39337 0
M  V30 4480 H 425.965 3.46967 1.70737 0
M  V30 4481 H 427.654 3.79407 1.44239 0
M  V30 4482 H 428.42 4.77701 -0.838237 0
M  V30 4483 H 424.299 4.59477 0.374359 0
M  V30 4484 H 427.843 6.51469 -2.49467 0
M  V30 4485 H 423.74 6.32799 -1.27421 0
M  V30 4486 H 424.508 7.66978 -2.8581 0
M  V30 4487 N 427.171 -0.0066808 1.57599 0
M  V30 4488 C 428.417 -0.693947 1.90558 0
M  V30 4489 C 428.75 -1.73792 0.866594 0
M  V30 4490 O 428.025 -1.94156 -0.115548 0
M  V30 4491 C 428.308 -1.34317 3.34112 0
M  V30 4492 C 428.161 -0.311189 4.48722 0
M  V30 4493 C 429.48 -2.27116 3.7697 0
M  V30 4494 H 426.599 -0.250803 0.693013 0
M  V30 4495 H 429.241 0.043242 1.89951 0
M  V30 4496 H 427.391 -1.9715 3.3476 0
M  V30 4497 H 429.063 0.316944 4.6021 0
M  V30 4498 H 427.306 0.367253 4.32243 0
M  V30 4499 H 427.977 -0.804366 5.46108 0
M  V30 4500 H 430.453 -1.74306 3.77831 0
M  V30 4501 H 429.329 -2.69511 4.78179 0
M  V30 4502 H 429.59 -3.14743 3.10466 0
M  V30 4503 N 428.649 -1.55105 -0.279332 0
M  V30 4504 C 429.559 -1.90638 -1.36727 0
M  V30 4505 C 430.575 -0.802899 -1.54368 0
M  V30 4506 O 431.751 -1.10138 -1.68616 0
M  V30 4507 C 428.816 -2.16547 -2.70755 0
M  V30 4508 C 427.877 -3.40146 -2.61915 0
M  V30 4509 C 427.11 -3.6481 -3.8955 0
M  V30 4510 O 427.333 -2.92095 -4.89935 0
M  V30 4511 O 426.267 -4.58343 -3.90135 0
M  V30 4512 H 430.093 -2.83237 -1.09591 0
M  V30 4513 H 427.678 -1.4157 -0.477306 0
M  V30 4514 H 429.56 -2.34665 -3.50014 0
M  V30 4515 H 428.235 -1.27131 -2.9769 0
M  V30 4516 H 427.142 -3.2737 -1.81052 0
M  V30 4517 H 428.475 -4.29761 -2.3993 0
M  V30 4518 N 430.127 0.543554 -1.4793 0
M  V30 4519 C 431.074 1.64942 -1.6144 0
M  V30 4520 C 432.044 1.59692 -0.456903 0
M  V30 4521 O 433.229 1.78321 -0.678688 0
M  V30 4522 C 430.369 3.03238 -1.64744 0
M  V30 4523 C 429.482 3.18823 -2.91506 0
M  V30 4524 C 428.617 4.47599 -2.86057 0
M  V30 4525 C 427.656 4.56664 -4.07584 0
M  V30 4526 N 426.793 5.76811 -4.00292 0
M  V30 4527 H 431.633 1.52733 -2.55884 0
M  V30 4528 H 429.17 0.7438 -1.2691 0
M  V30 4529 H 431.128 3.83339 -1.64641 0
M  V30 4530 H 429.758 3.1425 -0.738017 0
M  V30 4531 H 428.81 2.32064 -3.01414 0
M  V30 4532 H 430.122 3.21384 -3.81463 0
M  V30 4533 H 429.276 5.35975 -2.84281 0
M  V30 4534 H 428.015 4.47538 -1.93807 0
M  V30 4535 H 427.02 3.66697 -4.09651 0
M  V30 4536 H 428.245 4.58474 -5.00978 0
M  V30 4537 H 426.191 5.77673 -3.10853 0
M  V30 4538 H 426.108 5.80808 -4.8394 0
M  V30 4539 H 427.376 6.67512 -4.02553 0
M  V30 4540 N 431.605 1.3629 0.791371 0
M  V30 4541 C 432.537 1.26321 1.91248 0
M  V30 4542 C 433.55 0.18313 1.61767 0
M  V30 4543 O 434.739 0.437682 1.73051 0
M  V30 4544 C 431.839 0.925901 3.26007 0
M  V30 4545 C 431.012 2.10746 3.83281 0
M  V30 4546 C 430.071 1.74352 4.96475 0
M  V30 4547 O 429.097 2.46416 5.13096 0
M  V30 4548 N 430.299 0.676058 5.7655 0
M  V30 4549 H 433.064 2.22915 2.00323 0
M  V30 4550 H 430.625 1.29659 0.969546 0
M  V30 4551 H 432.617 0.663636 3.99222 0
M  V30 4552 H 431.187 0.0491581 3.12561 0
M  V30 4553 H 430.407 2.53264 3.02077 0
M  V30 4554 H 431.695 2.8969 4.18279 0
M  V30 4555 H 431.093 0.0776467 5.65647 0
M  V30 4556 H 429.65 0.473612 6.50077 0
M  V30 4557 N 433.083 -1.0153 1.20538 0
M  V30 4558 C 434.046 -2.0826 0.957098 0
M  V30 4559 C 435.046 -1.60657 -0.0678655 0
M  V30 4560 O 436.236 -1.73385 0.168332 0
M  V30 4561 C 433.368 -3.38033 0.441188 0
M  V30 4562 H 434.561 -2.31719 1.90384 0
M  V30 4563 H 432.114 -1.1835 1.02093 0
M  V30 4564 H 432.849 -3.20249 -0.510961 0
M  V30 4565 H 432.634 -3.73911 1.18038 0
M  V30 4566 H 434.124 -4.16613 0.287009 0
M  V30 4567 N 434.561 -1.01147 -1.20859 0
M  V30 4568 C 435.786 -0.716698 -1.94623 0
M  V30 4569 C 436.211 0.715415 -1.73964 0
M  V30 4570 O 435.569 1.49157 -1.03062 0
M  V30 4571 C 435.617 -1.0513 -3.44935 0
M  V30 4572 O 434.721 -0.160131 -4.12089 0
M  V30 4573 H 434.062 -0.266404 -0.608214 0
M  V30 4574 H 436.592 -1.35346 -1.53436 0
M  V30 4575 H 436.602 -1.00086 -3.95533 0
M  V30 4576 H 435.277 -2.09475 -3.59295 0
M  V30 4577 H 433.854 -0.267657 -3.71938 0
M  V30 4578 N 436.039 1.36541 -0.78704 0
M  V30 4579 C 436.987 2.31965 -0.171724 0
M  V30 4580 C 437.981 1.55689 0.667631 0
M  V30 4581 O 439.187 1.70969 0.562981 0
M  V30 4582 H 435.562 0.751101 -0.0367545 0
M  V30 4583 H 437.533 2.81428 -0.992017 0
M  V30 4584 C 436.282 3.40968 0.680904 0
M  V30 4585 H 435.605 3.99775 0.0443961 0
M  V30 4586 H 437.045 4.10063 1.07815 0
M  V30 4587 C 435.504 2.82338 1.83813 0
M  V30 4588 O 436.034 2.74311 2.93456 0
M  V30 4589 N 434.24 2.39661 1.6435 0
M  V30 4590 H 433.787 2.46389 0.751668 0
M  V30 4591 H 433.745 2.00779 2.4194 0
M  V30 4592 N 437.518 0.538854 1.48102 0
M  V30 4593 C 438.766 0.00798599 2.02098 0
M  V30 4594 C 439.087 -1.33922 1.41739 0
M  V30 4595 O 438.357 -1.86932 0.585934 0
M  V30 4596 H 436.937 -3.62179e-05 0.747 0
M  V30 4597 H 439.599 0.7047 1.81714 0
M  V30 4598 H 438.695 -0.0937672 3.11959 0
M  V30 4599 N 438.996 -1.55193 0.274407 0
M  V30 4600 C 440.242 -1.99877 -0.343086 0
M  V30 4601 C 440.575 -1.16256 -1.55558 0
M  V30 4602 O 439.85 -0.232462 -1.93106 0
M  V30 4603 C 440.133 -3.52706 -0.725965 0
M  V30 4604 C 439.986 -4.47081 0.493818 0
M  V30 4605 C 441.305 -4.11422 -1.56268 0
M  V30 4606 H 438.424 -0.726625 -0.123229 0
M  V30 4607 H 441.066 -1.86136 0.38121 0
M  V30 4608 H 439.216 -3.64546 -1.34307 0
M  V30 4609 H 440.888 -4.47186 1.13237 0
M  V30 4610 H 439.131 -4.1877 1.13201 0
M  V30 4611 H 439.802 -5.51699 0.18217 0
M  V30 4612 H 442.278 -4.02855 -1.04151 0
M  V30 4613 H 441.154 -5.18568 -1.79939 0
M  V30 4614 H 441.415 -3.61607 -2.54348 0
M  V30 4615 N 440.474 -0.00167713 -1.576 0
M  V30 4616 C 441.404 0.988091 -2.11563 0
M  V30 4617 C 442.385 1.35736 -1.02517 0
M  V30 4618 O 443.57 1.44082 -1.30208 0
M  V30 4619 C 440.7 2.27941 -2.62031 0
M  V30 4620 C 439.654 2.0517 -3.75619 0
M  V30 4621 C 438.98 3.4033 -4.12407 0
M  V30 4622 C 440.28 1.41294 -5.02825 0
M  V30 4623 H 441.974 0.538771 -2.94513 0
M  V30 4624 H 439.52 0.257712 -1.41675 0
M  V30 4625 H 441.473 2.97539 -2.9841 0
M  V30 4626 H 440.197 2.74989 -1.76205 0
M  V30 4627 H 438.856 1.37998 -3.39635 0
M  V30 4628 H 438.504 3.85085 -3.23603 0
M  V30 4629 H 438.204 3.25909 -4.88935 0
M  V30 4630 H 439.728 4.1124 -4.51347 0
M  V30 4631 H 441.142 2.00851 -5.36965 0
M  V30 4632 H 439.539 1.37356 -5.84169 0
M  V30 4633 H 440.609 0.382362 -4.8339 0
M  V30 4634 N 441.952 1.55251 0.271103 0
M  V30 4635 C 443.201 1.75151 1.00025 0
M  V30 4636 C 443.514 0.561041 1.87381 0
M  V30 4637 O 444.72 0.642506 2.63788 0
M  V30 4638 C 443.176 3.09999 1.82835 0
M  V30 4639 C 442.784 4.3662 1.00336 0
M  V30 4640 C 444.528 3.39249 2.55168 0
M  V30 4641 C 442.435 5.62506 1.82595 0
M  V30 4642 H 441.365 0.652877 0.377183 0
M  V30 4643 H 444.016 1.81708 0.255843 0
M  V30 4644 H 442.398 2.97485 2.61378 0
M  V30 4645 H 443.572 4.60055 0.261959 0
M  V30 4646 H 441.887 4.14527 0.394486 0
M  V30 4647 H 444.484 4.3051 3.1712 0
M  V30 4648 H 444.827 2.59467 3.2555 0
M  V30 4649 H 445.36 3.52869 1.83653 0
M  V30 4650 H 442.099 6.45041 1.16631 0
M  V30 4651 H 441.619 5.43211 2.54327 0
M  V30 4652 H 443.298 6.00875 2.39913 0
M  V30 4653 N 443.43 -0.535701 1.48216 0
M  V30 4654 C 444.846 -0.863701 1.3421 0
M  V30 4655 C 445.046 -1.98458 0.34879 0
M  V30 4656 O 444.102 -2.51432 -0.23204 0
M  V30 4657 C 445.415 -1.23662 2.74095 0
M  V30 4658 C 446.963 -1.34683 2.82541 0
M  V30 4659 C 447.438 -1.75322 4.23115 0
M  V30 4660 N 448.929 -1.82434 4.2576 0
M  V30 4661 C 449.664 -2.15252 5.31464 0
M  V30 4662 N 449.16 -2.46533 6.47452 0
M  V30 4663 N 450.953 -2.16209 5.18855 0
M  V30 4664 H 443.104 0.203965 2.11418 0
M  V30 4665 H 445.367 0.0286033 0.947568 0
M  V30 4666 H 445.073 -0.486674 3.48316 0
M  V30 4667 H 444.947 -2.18805 3.07253 0
M  V30 4668 H 447.334 -2.08756 2.08579 0
M  V30 4669 H 447.415 -0.376756 2.5301 0
M  V30 4670 H 447.059 -1.01812 4.97591 0
M  V30 4671 H 446.989 -2.7337 4.50085 0
M  V30 4672 H 449.48 -1.6056 3.42095 0
M  V30 4673 H 449.793 -2.70662 7.23852 0
M  V30 4674 H 448.138 -2.44065 6.50736 0
M  V30 4675 H 451.329 -1.91224 4.2726 0
M  V30 4676 H 451.502 -2.41453 6.01335 0
M  V30 4677 N 444.908 -1.36708 -0.784132 0
M  V30 4678 C 446.157 -1.30559 -1.53744 0
M  V30 4679 C 446.47 0.111374 -1.95283 0
M  V30 4680 O 447.676 0.29527 -2.6989 0
M  V30 4681 C 446.132 -2.29098 -2.77565 0
M  V30 4682 C 445.74 -3.76258 -2.43174 0
M  V30 4683 C 447.484 -2.31936 -3.55536 0
M  V30 4684 C 445.391 -4.6656 -3.63422 0
M  V30 4685 H 444.321 -0.48518 -0.577162 0
M  V30 4686 H 446.972 -1.62101 -0.859981 0
M  V30 4687 H 445.354 -1.90557 -3.47137 0
M  V30 4688 H 446.528 -4.23565 -1.81465 0
M  V30 4689 H 444.843 -3.76246 -1.78403 0
M  V30 4690 H 447.44 -2.9661 -4.44889 0
M  V30 4691 H 447.783 -1.3294 -3.94503 0
M  V30 4692 H 448.316 -2.6912 -2.92949 0
M  V30 4693 H 445.055 -5.66638 -3.29547 0
M  V30 4694 H 444.575 -4.23966 -4.24279 0
M  V30 4695 H 446.254 -4.8309 -4.30387 0
M  V30 4696 N 446.386 1.0089 -1.21074 0
M  V30 4697 C 447.632 1.7497 -1.03717 0
M  V30 4698 C 447.987 1.8764 0.425344 0
M  V30 4699 O 447.28 1.39679 1.3115 0
M  V30 4700 C 447.474 3.16335 -1.66334 0
M  V30 4701 C 447.303 3.17449 -3.18522 0
M  V30 4702 C 446.073 3.2425 -3.87543 0
M  V30 4703 C 448.271 3.02877 -4.15656 0
M  V30 4704 N 446.253 3.14949 -5.26954 0
M  V30 4705 C 447.624 3.0143 -5.41793 0
M  V30 4706 C 449.679 2.8715 -4.06755 0
M  V30 4707 C 448.382 2.85869 -6.60054 0
M  V30 4708 C 450.408 2.72944 -5.24648 0
M  V30 4709 C 449.77 2.72171 -6.49694 0
M  V30 4710 H 445.869 0.650627 -0.43383 0
M  V30 4711 H 448.453 1.19944 -1.53367 0
M  V30 4712 H 446.624 3.69638 -1.19256 0
M  V30 4713 H 448.356 3.78888 -1.42219 0
M  V30 4714 H 445.111 3.31288 -3.38446 0
M  V30 4715 H 445.535 3.13651 -5.9996 0
M  V30 4716 H 450.177 2.86557 -3.10878 0
M  V30 4717 H 447.895 2.8521 -7.56096 0
M  V30 4718 H 451.481 2.61782 -5.19578 0
M  V30 4719 H 450.361 2.61307 -7.39384 0
M  V30 4720 N 447.864 1.01787 1.20321 0
M  V30 4721 C 448.827 0.593972 2.2137 0
M  V30 4722 C 449.827 -0.336553 1.57239 0
M  V30 4723 O 451.017 -0.125069 1.7375 0
M  V30 4724 C 448.149 -0.132433 3.40643 0
M  V30 4725 H 449.342 1.48791 2.60387 0
M  V30 4726 H 446.895 0.807803 1.33807 0
M  V30 4727 H 447.63 -1.04123 3.0713 0
M  V30 4728 H 447.415 0.53605 3.88418 0
M  V30 4729 H 448.905 -0.416314 4.1552 0
M  V30 4730 N 449.342 -1.36122 0.79427 0
M  V30 4731 C 450.758 -1.5232 0.476525 0
M  V30 4732 C 450.958 -1.74685 -1.00436 0
M  V30 4733 O 450.014 -1.78115 -1.78973 0
M  V30 4734 C 451.327 -2.70607 1.31119 0
M  V30 4735 C 452.875 -2.8448 1.30537 0
M  V30 4736 C 453.35 -4.05778 2.12387 0
M  V30 4737 N 454.841 -4.12933 2.09859 0
M  V30 4738 C 455.576 -5.05876 2.69957 0
M  V30 4739 N 455.072 -6.04232 3.38934 0
M  V30 4740 N 456.865 -4.98528 2.59665 0
M  V30 4741 H 449.016 -1.1986 1.75349 0
M  V30 4742 H 451.279 -0.585418 0.745647 0
M  V30 4743 H 450.985 -2.60619 2.36158 0
M  V30 4744 H 450.859 -3.64888 0.955843 0
M  V30 4745 H 453.246 -2.93927 0.262876 0
M  V30 4746 H 453.327 -1.91093 1.70051 0
M  V30 4747 H 452.971 -3.97092 3.1667 0
M  V30 4748 H 452.901 -4.98323 1.70242 0
M  V30 4749 H 455.392 -3.42515 1.59662 0
M  V30 4750 H 455.705 -6.71724 3.82109 0
M  V30 4751 H 454.05 -6.04443 3.43036 0
M  V30 4752 H 457.241 -4.20641 2.05375 0
M  V30 4753 H 457.414 -5.70773 3.06793 0
M  V30 4754 N 450.82 -0.546701 -1.47814 0
M  V30 4755 C 452.231 -0.110564 -1.86372 0
M  V30 4756 C 452.582 1.31678 -1.45449 0
M  V30 4757 O 451.707 1.98889 -0.852758 0
M  V30 4758 C 452.302 -0.193873 -3.38245 0
M  V30 4759 C 450.861 0.187164 -3.75934 0
M  V30 4760 C 450.008 -0.546166 -2.71868 0
M  V30 4761 H 452.959 -0.757022 -1.39481 0
M  V30 4762 H 452.98 0.590218 -3.75895 0
M  V30 4763 H 452.492 -1.23282 -3.67999 0
M  V30 4764 H 450.593 1.22762 -3.51796 0
M  V30 4765 H 450.706 -0.164083 -4.78819 0
M  V30 4766 H 449.07 0.00953904 -2.54698 0
M  V30 4767 H 449.853 -1.58606 -3.04465 0
M  V30 4768 N 452.299 1.55045 -0.282633 0
M  V30 4769 C 453.524 2.04628 0.337977 0
M  V30 4770 C 453.949 1.15937 1.48123 0
M  V30 4771 O 453.307 0.159532 1.80597 0
M  V30 4772 C 453.355 3.51854 0.78936 0
M  V30 4773 O 452.459 3.66236 1.89592 0
M  V30 4774 H 451.8 0.660434 0.0687261 0
M  V30 4775 H 454.33 2.00261 -0.419124 0
M  V30 4776 H 454.34 3.93361 1.08311 0
M  V30 4777 H 453.015 4.15873 -0.0470419 0
M  V30 4778 H 451.592 3.36633 1.60413 0
M  V30 4779 N 453.777 0.010035 1.57597 0
M  V30 4780 C 454.74 -0.963029 2.07986 0
M  V30 4781 C 455.74 -1.26619 0.991173 0
M  V30 4782 O 456.93 -1.2097 1.25347 0
M  V30 4783 C 454.062 -2.2851 2.52974 0
M  V30 4784 H 455.255 -0.526971 2.95234 0
M  V30 4785 H 452.808 -0.237639 1.54483 0
M  V30 4786 H 453.543 -2.76784 1.69 0
M  V30 4787 H 453.328 -2.07824 3.32493 0
M  V30 4788 H 454.818 -2.98294 2.9225 0
M  V30 4789 N 455.255 -1.55392 -0.262866 0
M  V30 4790 C 456.504 -1.75679 -0.990943 0
M  V30 4791 C 456.817 -0.57097 -1.87081 0
M  V30 4792 O 458.023 -0.656486 -2.63444 0
M  V30 4793 C 456.479 -3.10964 -1.81188 0
M  V30 4794 C 456.087 -4.37146 -0.980188 0
M  V30 4795 C 457.831 -3.40597 -2.53365 0
M  V30 4796 C 455.738 -5.63466 -1.7961 0
M  V30 4797 H 454.668 -0.654868 -0.373716 0
M  V30 4798 H 457.319 -1.81841 -0.246203 0
M  V30 4799 H 455.701 -2.98867 -2.59797 0
M  V30 4800 H 456.875 -4.60187 -0.237558 0
M  V30 4801 H 455.19 -4.14731 -0.372497 0
M  V30 4802 H 457.787 -4.32186 -3.14833 0
M  V30 4803 H 458.13 -2.6119 -3.24169 0
M  V30 4804 H 458.663 -3.53838 -1.81779 0
M  V30 4805 H 455.402 -6.4565 -1.13209 0
M  V30 4806 H 454.922 -5.44552 -2.51443 0
M  V30 4807 H 456.601 -6.02139 -2.36723 0
M  V30 4808 N 456.733 0.527833 -1.48498 0
M  V30 4809 C 457.696 1.61439 -1.62696 0
M  V30 4810 C 458.696 1.52824 -0.500136 0
M  V30 4811 O 459.886 1.56456 -0.765976 0
M  V30 4812 C 457.018 3.01063 -1.59918 0
M  V30 4813 H 458.211 1.50189 -2.59583 0
M  V30 4814 H 455.764 0.750055 -1.37127 0
M  V30 4815 H 456.499 3.17818 -0.645163 0
M  V30 4816 H 456.284 3.08725 -2.41726 0
M  V30 4817 H 457.774 3.80057 -1.73051 0
M  V30 4818 N 458.211 1.37122 0.776871 0
M  V30 4819 C 459.174 1.32301 1.8716 0
M  V30 4820 C 460.174 0.228099 1.59174 0
M  V30 4821 O 461.364 0.483642 1.67352 0
M  V30 4822 C 458.496 1.054 3.24197 0
M  V30 4823 H 459.689 2.29673 1.92848 0
M  V30 4824 H 457.242 1.22077 0.97606 0
M  V30 4825 H 457.977 0.0853872 3.24188 0
M  V30 4826 H 457.762 1.84648 3.45901 0
M  V30 4827 H 459.252 1.04664 4.04271 0
M  V30 4828 N 459.689 -1.00246 1.21608 0
M  V30 4829 C 460.937 -1.73717 1.0328 0
M  V30 4830 C 461.258 -1.90102 -0.434318 0
M  V30 4831 O 460.528 -1.45376 -1.31311 0
M  V30 4832 H 459.108 -0.643613 0.379172 0
M  V30 4833 H 461.77 -1.20787 1.52959 0
M  V30 4834 H 460.866 -2.73535 1.50283 0
M  V30 4835 N 461.167 -1.02423 -1.1978 0
M  V30 4836 C 462.117 -0.571689 -2.20716 0
M  V30 4837 C 463.101 0.377077 -1.56419 0
M  V30 4838 O 464.293 0.198801 -1.7588 0
M  V30 4839 C 461.422 0.0808555 -3.43205 0
M  V30 4840 C 460.508 -0.890073 -4.14655 0
M  V30 4841 N 460.899 -2.05065 -4.62366 0
M  V30 4842 C 459.197 -0.71252 -4.40272 0
M  V30 4843 C 459.898 -2.66264 -5.17183 0
M  V30 4844 N 458.874 -1.94264 -5.07703 0
M  V30 4845 H 462.676 -1.45636 -2.55279 0
M  V30 4846 H 460.19 -0.890596 -1.35802 0
M  V30 4847 H 462.187 0.422654 -4.14752 0
M  V30 4848 H 460.847 0.961274 -3.10144 0
M  V30 4849 H 461.858 -2.43026 -4.57339 0
M  V30 4850 H 458.535 0.119199 -4.1733 0
M  V30 4851 H 459.925 -3.64526 -5.64421 0
M  V30 4852 N 462.645 1.35699 -0.801477 0
M  V30 4853 C 463.893 1.9852 -0.37871 0
M  V30 4854 C 464.214 1.63907 1.05638 0
M  V30 4855 O 463.484 0.919013 1.73006 0
M  V30 4856 H 462.064 0.734322 -0.137042 0
M  V30 4857 H 464.726 1.65697 -1.02619 0
M  V30 4858 H 463.822 3.08382 -0.480284 0
M  V30 4859 N 464.123 0.554532 1.47522 0
M  V30 4860 C 465.4 -0.0360704 1.95567 0
M  V30 4861 C 465.78 -1.48828 1.49711 0
M  V30 4862 O 465.128 -2.16366 0.734717 0
M  V30 4863 C 465.338 0.106631 3.48837 0
M  V30 4864 C 466.686 -0.0400899 4.24581 0
M  V30 4865 O 467.71 0.0340453 3.56184 0
M  V30 4866 O 466.569 -0.199111 5.46137 0
M  V30 4867 H 463.663 -0.0656294 0.824392 0
M  V30 4868 H 466.209 0.620867 1.57935 0
M  V30 4869 H 464.981 1.11727 3.7501 0
M  V30 4870 H 464.604 -0.58804 3.93227 0
M  V30 4871 N 465.601 -1.54893 0.290851 0
M  V30 4872 C 466.831 -2.04047 -0.323818 0
M  V30 4873 C 467.239 -1.16809 -1.48837 0
M  V30 4874 O 466.582 -0.184145 -1.82775 0
M  V30 4875 C 466.644 -3.49248 -0.852395 0
M  V30 4876 C 466.308 -4.56623 0.185557 0
M  V30 4877 C 467.305 -5.09985 1.01053 0
M  V30 4878 C 464.99 -5.01252 0.324332 0
M  V30 4879 C 466.984 -6.06507 1.96031 0
M  V30 4880 C 464.671 -5.97596 1.27757 0
M  V30 4881 C 465.669 -6.50107 2.09405 0
M  V30 4882 O 465.357 -7.44565 3.03114 0
M  V30 4883 H 465.089 -0.671735 -0.0758129 0
M  V30 4884 H 467.643 -2.00947 0.425393 0
M  V30 4885 H 465.873 -3.49639 -1.65195 0
M  V30 4886 H 467.562 -3.81654 -1.38185 0
M  V30 4887 H 468.328 -4.76307 0.914129 0
M  V30 4888 H 464.207 -4.60015 -0.301213 0
M  V30 4889 H 467.751 -6.47418 2.598 0
M  V30 4890 H 463.648 -6.30691 1.37473 0
M  V30 4891 H 464.416 -7.62334 2.97976 0
M  V30 4892 N 467.08 -0.0183926 -1.57589 0
M  V30 4893 C 468.043 0.951986 -2.08494 0
M  V30 4894 C 469.043 1.26092 -0.997874 0
M  V30 4895 O 470.233 1.20304 -1.25987 0
M  V30 4896 C 467.365 2.27165 -2.54182 0
M  V30 4897 H 468.558 0.511307 -2.95509 0
M  V30 4898 H 466.111 0.229444 -1.54607 0
M  V30 4899 H 466.846 2.75884 -1.70465 0
M  V30 4900 H 466.631 2.06057 -3.33591 0
M  V30 4901 H 468.121 2.9674 -2.93828 0
M  V30 4902 N 468.558 1.5553 0.254621 0
M  V30 4903 C 469.488 1.9268 1.31897 0
M  V30 4904 C 470.469 0.790797 1.506 0
M  V30 4905 O 471.654 1.05045 1.63337 0
M  V30 4906 C 468.784 2.21477 2.67517 0
M  V30 4907 C 467.738 3.37256 2.63519 0
M  V30 4908 C 467.064 3.51576 4.02862 0
M  V30 4909 C 468.364 4.73157 2.21179 0
M  V30 4910 H 470.058 2.81832 1.01051 0
M  V30 4911 H 467.604 1.35599 0.484662 0
M  V30 4912 H 469.557 2.46055 3.42104 0
M  V30 4913 H 468.281 1.29144 2.99982 0
M  V30 4914 H 466.94 3.12675 1.9139 0
M  V30 4915 H 466.588 2.56676 4.32581 0
M  V30 4916 H 466.288 4.2943 4.01078 0
M  V30 4917 H 467.812 3.78467 4.79161 0
M  V30 4918 H 469.226 4.97158 2.85494 0
M  V30 4919 H 467.623 5.54058 2.30521 0
M  V30 4920 H 468.693 4.70739 1.16332 0
M  V30 4921 N 470.036 -0.519951 1.48776 0
M  V30 4922 C 470.984 -1.64443 1.64503 0
M  V30 4923 C 471.978 -1.61501 0.511248 0
M  V30 4924 O 473.184 -1.66238 0.690294 0
M  V30 4925 H 469.559 -0.544776 0.518385 0
M  V30 4926 H 471.53 -1.48325 2.58925 0
M  V30 4927 C 470.279 -3.02673 1.71127 0
M  V30 4928 H 469.602 -3.05635 2.57735 0
M  V30 4929 H 471.042 -3.80941 1.86172 0
M  V30 4930 C 469.501 -3.33854 0.452032 0
M  V30 4931 O 470.031 -3.99385 -0.430678 0
M  V30 4932 N 468.237 -2.88825 0.32069 0
M  V30 4933 H 467.784 -2.35674 1.03998 0
M  V30 4934 H 467.742 -3.10056 -0.520814 0
M  V30 4935 N 471.514 -1.37532 -0.769588 0
M  V30 4936 C 472.76 -1.33057 -1.53048 0
M  V30 4937 C 473.093 0.0841865 -1.94017 0
M  V30 4938 O 472.368 1.04198 -1.64235 0
M  V30 4939 C 472.651 -2.27166 -2.79406 0
M  V30 4940 C 472.504 -3.77429 -2.44677 0
M  V30 4941 C 473.823 -2.19683 -3.81349 0
M  V30 4942 H 470.942 -0.484655 -0.555228 0
M  V30 4943 H 473.584 -1.68251 -0.882702 0
M  V30 4944 H 471.734 -1.97283 -3.34682 0
M  V30 4945 H 473.406 -4.17918 -1.953 0
M  V30 4946 H 471.649 -3.95892 -1.77346 0
M  V30 4947 H 472.32 -4.38716 -3.35011 0
M  V30 4948 H 474.796 -2.46029 -3.35573 0
M  V30 4949 H 473.672 -2.87668 -4.67481 0
M  V30 4950 H 473.933 -1.19045 -4.25771 0
M  V30 4951 N 472.992 0.995999 -1.22138 0
M  V30 4952 C 474.22 1.77066 -1.07029 0
M  V30 4953 C 474.635 1.8495 0.379357 0
M  V30 4954 O 473.992 1.3174 1.26297 0
M  V30 4955 C 474.043 3.20533 -1.67155 0
M  V30 4956 O 473.764 3.13082 -3.06449 0
M  V30 4957 C 475.265 4.14461 -1.5728 0
M  V30 4958 H 472.485 0.556179 -0.375374 0
M  V30 4959 H 475.029 1.25238 -1.61666 0
M  V30 4960 H 473.184 3.6944 -1.16589 0
M  V30 4961 H 473.598 4.03283 -3.35355 0
M  V30 4962 H 475.072 5.1289 -2.04078 0
M  V30 4963 H 475.549 4.36005 -0.528795 0
M  V30 4964 H 476.155 3.71449 -2.07136 0
M  V30 4965 N 474.47 1.03057 1.19235 0
M  V30 4966 C 475.718 0.726581 1.88587 0
M  V30 4967 C 476.039 -0.747227 1.80115 0
M  V30 4968 O 475.309 -1.53849 1.21274 0
M  V30 4969 H 473.889 0.265768 0.698124 0
M  V30 4970 H 476.551 1.30516 1.44746 0
M  V30 4971 H 475.647 1.0224 2.94879 0
M  V30 4972 N 475.948 -1.35272 0.808662 0
M  V30 4973 C 477.359 -1.81179 0.450688 0
M  V30 4974 C 477.71 -1.67143 -1.02751 0
M  V30 4975 O 476.835 -1.20325 -1.79864 0
M  V30 4976 C 477.43 -3.28943 0.811275 0
M  V30 4977 C 475.989 -3.72985 0.505871 0
M  V30 4978 C 475.136 -2.57229 1.03578 0
M  V30 4979 H 478.087 -1.2322 1.00012 0
M  V30 4980 H 478.108 -3.80342 0.109588 0
M  V30 4981 H 477.62 -3.39127 1.88718 0
M  V30 4982 H 475.721 -3.68349 -0.561209 0
M  V30 4983 H 475.834 -4.67677 1.03995 0
M  V30 4984 H 474.198 -2.50548 0.458005 0
M  V30 4985 H 474.981 -2.7019 2.11784 0
M  V30 4986 N 477.426 -0.562348 -1.47226 0
M  V30 4987 C 478.675 -0.038041 -2.01664 0
M  V30 4988 C 478.988 1.32199 -1.44162 0
M  V30 4989 O 480.194 1.9365 -1.90294 0
M  V30 4990 C 478.65 -0.0174958 -3.59896 0
M  V30 4991 C 478.258 -1.3746 -4.2639 0
M  V30 4992 C 480.002 0.453934 -4.22066 0
M  V30 4993 C 477.909 -1.31289 -5.76643 0
M  V30 4994 H 476.839 -0.0104511 -0.753928 0
M  V30 4995 H 479.49 -0.710966 -1.69167 0
M  V30 4996 H 477.872 0.721182 -3.89378 0
M  V30 4997 H 479.046 -2.1314 -4.08544 0
M  V30 4998 H 477.361 -1.78438 -3.7623 0
M  V30 4999 H 479.958 0.518584 -5.32179 0
M  V30 5000 H 480.301 1.46706 -3.89594 0
M  V30 5001 H 480.834 -0.230044 -3.97134 0
M  V30 5002 H 477.573 -2.30217 -6.13743 0
M  V30 5003 H 477.093 -0.597973 -5.96812 0
M  V30 5004 H 478.772 -1.01713 -6.38955 0
M  V30 5005 N 478.904 1.54736 -0.299062 0
M  V30 5006 C 479.834 2.26409 0.571085 0
M  V30 5007 C 480.815 1.2629 1.13951 0
M  V30 5008 O 482 1.55059 1.16921 0
M  V30 5009 C 479.13 3.00338 1.74396 0
M  V30 5010 C 478.084 4.07588 1.30599 0
M  V30 5011 C 477.41 4.69222 2.56387 0
M  V30 5012 C 478.71 5.20455 0.438645 0
M  V30 5013 H 480.404 2.99388 -0.0266991 0
M  V30 5014 H 477.95 1.43993 -0.0142812 0
M  V30 5015 H 479.903 3.49198 2.35878 0
M  V30 5016 H 478.627 2.24934 2.36796 0
M  V30 5017 H 477.286 3.59575 0.71424 0
M  V30 5018 H 476.934 3.9046 3.17097 0
M  V30 5019 H 476.634 5.41653 2.27784 0
M  V30 5020 H 478.158 5.20844 3.18675 0
M  V30 5021 H 479.572 5.65221 0.959085 0
M  V30 5022 H 477.969 5.99594 0.246466 0
M  V30 5023 H 479.039 4.8192 -0.536738 0
M  V30 5024 N 480.382 0.0267497 1.57577 0
M  V30 5025 C 481.33 -0.973923 2.11229 0
M  V30 5026 C 482.324 -1.33849 1.03831 0
M  V30 5027 O 483.53 -1.321 1.22269 0
M  V30 5028 H 479.905 -0.331844 0.674821 0
M  V30 5029 H 481.876 -0.496092 2.94247 0
M  V30 5030 C 480.625 -2.24798 2.65257 0
M  V30 5031 H 479.948 -1.9762 3.47543 0
M  V30 5032 H 481.388 -2.93031 3.06445 0
M  V30 5033 C 479.847 -2.97611 1.57891 0
M  V30 5034 O 480.377 -3.89629 0.97735 0
M  V30 5035 N 478.583 -2.59905 1.29992 0
M  V30 5036 H 478.13 -1.85154 1.79097 0
M  V30 5037 H 478.088 -3.08932 0.583798 0
M  V30 5038 N 481.861 -1.55662 -0.24637 0
M  V30 5039 C 483.108 -1.77519 -0.974335 0
M  V30 5040 C 483.436 -0.591165 -1.85298 0
M  V30 5041 O 482.691 0.425497 -1.91018 0
M  V30 5042 C 482.99 -3.04885 -1.86494 0
M  V30 5043 C 482.656 -4.36209 -1.14161 0
M  V30 5044 C 481.318 -4.71896 -0.941701 0
M  V30 5045 C 483.67 -5.17391 -0.628957 0
M  V30 5046 C 480.998 -5.86299 -0.216852 0
M  V30 5047 C 483.35 -6.32546 0.0824273 0
M  V30 5048 C 482.014 -6.66853 0.293807 0
M  V30 5049 H 481.284 -0.649588 -0.356535 0
M  V30 5050 H 483.931 -1.89934 -0.244394 0
M  V30 5051 H 482.236 -2.87484 -2.66196 0
M  V30 5052 H 483.933 -3.18994 -2.42989 0
M  V30 5053 H 480.523 -4.08174 -1.30736 0
M  V30 5054 H 484.707 -4.90276 -0.770943 0
M  V30 5055 H 479.963 -6.11385 -0.0426124 0
M  V30 5056 H 484.137 -6.94693 0.487292 0
M  V30 5057 H 481.764 -7.55349 0.857428 0
M  V30 5058 N 483.339 0.512053 -1.4905 0
M  V30 5059 C 484.586 1.26686 -1.57978 0
M  V30 5060 C 484.914 1.92733 -0.261553 0
M  V30 5061 O 484.169 1.80772 0.749667 0
M  V30 5062 C 484.468 2.36446 -2.68008 0
M  V30 5063 C 484.134 1.87932 -4.09869 0
M  V30 5064 C 482.796 1.74419 -4.48477 0
M  V30 5065 C 485.148 1.5149 -4.98698 0
M  V30 5066 C 482.476 1.22827 -5.73699 0
M  V30 5067 C 484.828 1.01355 -6.24428 0
M  V30 5068 C 483.492 0.864735 -6.61875 0
M  V30 5069 H 482.762 0.463577 -0.578081 0
M  V30 5070 H 485.409 0.569421 -1.82838 0
M  V30 5071 H 483.714 3.11933 -2.37076 0
M  V30 5072 H 485.411 2.9453 -2.72127 0
M  V30 5073 H 482.001 1.99405 -3.79389 0
M  V30 5074 H 486.185 1.60782 -4.69535 0
M  V30 5075 H 481.441 1.10008 -6.01422 0
M  V30 5076 H 485.615 0.722351 -6.92644 0
M  V30 5077 H 483.242 0.462777 -7.5879 0
M  V30 5078 N 484.817 1.37938 0.762283 0
M  V30 5079 C 485.78 1.34279 1.85747 0
M  V30 5080 C 486.78 0.244969 1.58923 0
M  V30 5081 O 487.97 0.501365 1.66829 0
M  V30 5082 C 485.102 1.08833 3.23061 0
M  V30 5083 H 486.295 2.31705 1.90401 0
M  V30 5084 H 483.848 1.23105 0.963057 0
M  V30 5085 H 484.583 0.119767 3.24079 0
M  V30 5086 H 484.368 1.88306 3.43923 0
M  V30 5087 H 485.858 1.08946 4.03138 0
M  V30 5088 N 486.295 -0.989507 1.22664 0
M  V30 5089 C 487.543 -1.72612 1.05117 0
M  V30 5090 C 487.864 -1.90552 -0.414131 0
M  V30 5091 O 487.134 -1.4676 -1.29762 0
M  V30 5092 H 485.714 -0.639555 0.385977 0
M  V30 5093 H 488.376 -1.19158 1.54232 0
M  V30 5094 H 487.472 -2.71926 1.53175 0
M  V30 5095 N 487.773 -1.03688 -1.18687 0
M  V30 5096 C 488.723 -0.595067 -2.20098 0
M  V30 5097 C 489.707 0.360465 -1.5681 0
M  V30 5098 O 490.899 0.180136 -1.76081 0
M  V30 5099 C 488.028 0.0444495 -3.43271 0
M  V30 5100 C 487.114 -0.934002 -4.13687 0
M  V30 5101 N 487.505 -2.09957 -4.60165 0
M  V30 5102 C 485.803 -0.759177 -4.39491 0
M  V30 5103 C 486.504 -2.71735 -5.1433 0
M  V30 5104 N 485.48 -1.99638 -5.05614 0
M  V30 5105 H 489.282 -1.48336 -2.5372 0
M  V30 5106 H 486.796 -0.904949 -1.3485 0
M  V30 5107 H 488.793 0.37864 -4.15177 0
M  V30 5108 H 487.453 0.928325 -3.11147 0
M  V30 5109 H 488.464 -2.47863 -4.54735 0
M  V30 5110 H 485.141 0.0749292 -4.17433 0
M  V30 5111 H 486.531 -3.70492 -5.60523 0
M  V30 5112 N 489.251 1.34841 -0.815825 0
M  V30 5113 C 490.481 2.02436 -0.412695 0
M  V30 5114 C 490.889 1.61604 0.983906 0
M  V30 5115 O 490.232 0.813729 1.64694 0
M  V30 5116 C 490.294 3.56953 -0.427182 0
M  V30 5117 C 489.958 4.21083 -1.77589 0
M  V30 5118 C 490.955 4.42107 -2.73564 0
M  V30 5119 C 488.64 4.58006 -2.06243 0
M  V30 5120 C 490.634 4.99169 -3.9637 0
M  V30 5121 C 488.321 5.1478 -3.2931 0
M  V30 5122 C 489.319 5.35304 -4.24191 0
M  V30 5123 O 489.007 5.90878 -5.45086 0
M  V30 5124 H 488.739 0.655631 -0.164695 0
M  V30 5125 H 491.293 1.73246 -1.1034 0
M  V30 5126 H 489.523 3.85372 0.320175 0
M  V30 5127 H 491.212 4.05875 -0.0450875 0
M  V30 5128 H 491.978 4.13953 -2.52721 0
M  V30 5129 H 487.857 4.41339 -1.33196 0
M  V30 5130 H 491.401 5.15105 -4.70439 0
M  V30 5131 H 487.298 5.42362 -3.5002 0
M  V30 5132 H 488.066 6.0932 -5.46508 0
M  V30 5133 N 490.729 0.570148 1.46925 0
M  V30 5134 C 492.006 -0.0153259 1.95594 0
M  V30 5135 C 492.386 -1.47232 1.51281 0
M  V30 5136 O 491.734 -2.15574 0.757624 0
M  V30 5137 C 491.944 0.143624 3.48704 0
M  V30 5138 C 493.292 0.00494484 4.246 0
M  V30 5139 O 494.316 0.0718214 3.56128 0
M  V30 5140 O 493.175 -0.141175 5.46318 0
M  V30 5141 H 490.269 -0.0568819 0.825041 0
M  V30 5142 H 492.815 0.637583 1.57267 0
M  V30 5143 H 491.587 1.15699 3.73804 0
M  V30 5144 H 491.21 -0.5463 3.93829 0
M  V30 5145 N 492.207 -1.54576 0.307264 0
M  V30 5146 C 493.435 -2.04675 -0.302597 0
M  V30 5147 C 493.85 -1.18425 -1.47041 0
M  V30 5148 O 493.207 -0.211257 -1.81273 0
M  V30 5149 C 493.258 -3.53575 -0.752801 0
M  V30 5150 O 492.979 -4.36547 0.368536 0
M  V30 5151 C 494.48 -4.19699 -1.42717 0
M  V30 5152 H 491.7 -0.66786 -0.0648374 0
M  V30 5153 H 494.244 -1.99516 0.448716 0
M  V30 5154 H 492.399 -3.59074 -1.45412 0
M  V30 5155 H 492.813 -5.24497 0.0168937 0
M  V30 5156 H 494.287 -5.25388 -1.69327 0
M  V30 5157 H 494.764 -3.69815 -2.36925 0
M  V30 5158 H 495.37 -4.18293 -0.768856 0
M  V30 5159 N 493.685 -0.035106 -1.57561 0
M  V30 5160 C 495.096 0.502885 -1.798 0
M  V30 5161 C 495.447 1.71892 -0.945921 0
M  V30 5162 O 494.572 2.15822 -0.157991 0
M  V30 5163 C 495.167 0.919097 -3.26095 0
M  V30 5164 C 493.726 1.40216 -3.49308 0
M  V30 5165 C 492.873 0.369709 -2.74824 0
M  V30 5166 H 495.824 -0.261102 -1.56537 0
M  V30 5167 H 495.845 1.78308 -3.36135 0
M  V30 5168 H 495.357 0.0338526 -3.88085 0
M  V30 5169 H 493.458 2.30714 -2.92578 0
M  V30 5170 H 493.571 1.40541 -4.58023 0
M  V30 5171 H 491.935 0.839113 -2.40481 0
M  V30 5172 H 492.718 -0.507173 -3.39533 0
M  V30 5173 N 495.163 1.55791 0.238111 0
M  V30 5174 C 496.393 1.81834 0.980809 0
M  V30 5175 C 496.801 0.609741 1.79106 0
M  V30 5176 O 496.144 -0.431073 1.78571 0
M  V30 5177 C 496.206 3.01363 1.96011 0
M  V30 5178 C 495.87 4.37037 1.33597 0
M  V30 5179 C 496.867 5.14692 0.734063 0
M  V30 5180 C 494.552 4.83743 1.3527 0
M  V30 5181 C 496.546 6.37206 0.157208 0
M  V30 5182 C 494.233 6.06204 0.77199 0
M  V30 5183 C 495.231 6.82775 0.175282 0
M  V30 5184 O 494.919 8.02922 -0.396432 0
M  V30 5185 H 494.651 0.6088 0.293834 0
M  V30 5186 H 497.205 2.03702 0.263552 0
M  V30 5187 H 495.435 2.75273 2.71591 0
M  V30 5188 H 497.124 3.14422 2.56697 0
M  V30 5189 H 497.89 4.79722 0.713582 0
M  V30 5190 H 493.769 4.24129 1.80653 0
M  V30 5191 H 497.313 6.96915 -0.30917 0
M  V30 5192 H 493.21 6.4065 0.789828 0
M  V30 5193 H 493.978 8.17989 -0.289145 0
M  V30 5194 N 496.642 -0.504142 1.49319 0
M  V30 5195 C 498.053 -1.08572 1.51885 0
M  V30 5196 C 498.404 -1.93842 0.303255 0
M  V30 5197 O 497.529 -2.0828 -0.58724 0
M  V30 5198 C 498.124 -1.97574 2.75227 0
M  V30 5199 C 496.683 -2.509 2.80581 0
M  V30 5200 C 495.83 -1.28447 2.45757 0
M  V30 5201 H 498.781 -0.288194 1.56061 0
M  V30 5202 H 498.802 -2.82219 2.55211 0
M  V30 5203 H 498.314 -1.35486 3.63683 0
M  V30 5204 H 496.415 -3.16636 1.96398 0
M  V30 5205 H 496.528 -2.88268 3.82673 0
M  V30 5206 H 494.892 -1.60868 1.97468 0
M  V30 5207 H 495.675 -0.68072 3.36483 0
M  V30 5208 N 498.12 -1.38341 -0.754957 0
M  V30 5209 C 499.05 -1.38176 -1.88227 0
M  V30 5210 C 500.031 -0.247873 -1.68284 0
M  V30 5211 O 501.216 -0.45075 -1.88896 0
M  V30 5212 C 498.346 -1.20471 -3.25736 0
M  V30 5213 C 497.3 -2.3105 -3.60278 0
M  V30 5214 C 496.626 -1.98452 -4.96509 0
M  V30 5215 C 497.926 -3.73305 -3.65295 0
M  V30 5216 H 499.62 -2.32512 -1.88622 0
M  V30 5217 H 497.166 -1.1192 -0.906082 0
M  V30 5218 H 499.119 -1.18982 -4.04254 0
M  V30 5219 H 497.843 -0.225965 -3.25817 0
M  V30 5220 H 496.502 -2.31723 -2.84078 0
M  V30 5221 H 496.15 -0.990641 -4.93148 0
M  V30 5222 H 495.85 -2.7251 -5.20588 0
M  V30 5223 H 497.374 -1.98578 -5.77407 0
M  V30 5224 H 498.788 -3.7467 -4.3393 0
M  V30 5225 H 497.185 -4.46557 -4.00883 0
M  V30 5226 H 498.255 -4.05719 -2.65556 0
M  V30 5227 N 499.598 0.982988 -1.23187 0
M  V30 5228 C 501.009 1.53847 -1.05773 0
M  V30 5229 C 501.36 1.92568 0.375744 0
M  V30 5230 O 500.485 1.75783 1.26211 0
M  V30 5231 C 501.08 2.79567 -1.91384 0
M  V30 5232 C 499.639 3.31524 -1.78238 0
M  V30 5233 C 498.786 2.04534 -1.87246 0
M  V30 5234 H 501.737 0.802962 -1.36888 0
M  V30 5235 H 501.758 3.52317 -1.43711 0
M  V30 5236 H 501.27 2.51353 -2.95708 0
M  V30 5237 H 499.371 3.64623 -0.766875 0
M  V30 5238 H 499.484 4.01457 -2.61475 0
M  V30 5239 H 497.848 2.1855 -1.30797 0
M  V30 5240 H 498.631 1.78706 -2.9312 0
M  V30 5241 N 501.076 1.04316 1.18135 0
M  V30 5242 C 502.023 0.636398 2.21853 0
M  V30 5243 C 502.993 -0.357039 1.62217 0
M  V30 5244 O 504.178 -0.250453 1.89149 0
M  V30 5245 C 501.318 0.00812779 3.45099 0
M  V30 5246 C 500.431 1.04933 4.19062 0
M  V30 5247 C 499.566 0.389313 5.29771 0
M  V30 5248 C 498.605 1.41544 5.9551 0
M  V30 5249 N 497.742 0.78021 6.97751 0
M  V30 5250 H 502.582 1.52536 2.56002 0
M  V30 5251 H 500.119 0.76304 1.25762 0
M  V30 5252 H 502.077 -0.373497 4.15525 0
M  V30 5253 H 500.707 -0.844336 3.11562 0
M  V30 5254 H 499.759 1.54888 3.47439 0
M  V30 5255 H 501.071 1.82862 4.64072 0
M  V30 5256 H 500.225 -0.0463805 6.06682 0
M  V30 5257 H 498.964 -0.422038 4.8587 0
M  V30 5258 H 497.969 1.86124 5.17337 0
M  V30 5259 H 499.194 2.22854 6.41493 0
M  V30 5260 H 497.14 -0.0107899 6.55999 0
M  V30 5261 H 497.057 1.49716 7.41027 0
M  V30 5262 H 498.325 0.368996 7.78626 0
M  V30 5263 N 502.554 -1.34406 0.822964 0
M  V30 5264 C 503.779 -2.0304 0.423034 0
M  V30 5265 C 504.204 -1.61568 -0.963196 0
M  V30 5266 O 503.562 -0.800339 -1.62678 0
M  V30 5267 C 503.61 -3.56636 0.53321 0
M  V30 5268 O 502.714 -4.09971 -0.446939 0
M  V30 5269 H 502.055 -0.64075 0.174171 0
M  V30 5270 H 504.585 -1.71653 1.11339 0
M  V30 5271 H 504.595 -4.05945 0.408991 0
M  V30 5272 H 503.27 -3.86168 1.54425 0
M  V30 5273 H 501.847 -3.71835 -0.281601 0
M  V30 5274 N 504.032 -0.577932 -1.46621 0
M  V30 5275 C 505.309 0.00495287 -1.95599 0
M  V30 5276 C 505.689 1.46428 -1.5206 0
M  V30 5277 O 505.037 2.1517 -0.769046 0
M  V30 5278 C 505.247 -0.162114 -3.48623 0
M  V30 5279 C 506.595 -0.0274623 -4.24591 0
M  V30 5280 O 507.619 -0.0907067 -3.56084 0
M  V30 5281 O 506.478 0.1122 -5.46385 0
M  V30 5282 H 503.572 0.0525057 -0.825332 0
M  V30 5283 H 506.118 -0.645914 -1.56927 0
M  V30 5284 H 504.89 -1.17679 -3.73185 0
M  V30 5285 H 504.513 0.525407 -3.94113 0
M  V30 5286 N 505.51 1.54411 -0.315457 0
M  V30 5287 C 506.442 2.21527 0.588067 0
M  V30 5288 C 507.455 1.21263 1.08624 0
M  V30 5289 O 508.644 1.47777 1.00121 0
M  V30 5290 C 505.744 2.85963 1.81875 0
M  V30 5291 C 504.917 4.12291 1.46063 0
M  V30 5292 C 503.976 4.60396 2.54799 0
M  V30 5293 O 503.002 5.25265 2.19283 0
M  V30 5294 N 504.204 4.33935 3.85591 0
M  V30 5295 H 506.969 2.99697 0.013414 0
M  V30 5296 H 504.53 1.61308 -0.138295 0
M  V30 5297 H 506.522 3.15071 2.53993 0
M  V30 5298 H 505.092 2.11548 2.30144 0
M  V30 5299 H 504.312 3.90036 0.571445 0
M  V30 5300 H 505.6 4.9452 1.19695 0
M  V30 5301 H 504.998 3.81996 4.17248 0
M  V30 5302 H 503.555 4.67718 4.53964 0
M  V30 5303 N 506.988 0.0434614 1.5754 0
M  V30 5304 C 508.237 -0.631454 1.91561 0
M  V30 5305 C 508.55 -1.72457 0.92292 0
M  V30 5306 O 509.756 -2.45712 1.15489 0
M  V30 5307 C 508.212 -1.17447 3.40197 0
M  V30 5308 C 507.82 -0.113867 4.47855 0
M  V30 5309 C 509.564 -1.82507 3.83264 0
M  V30 5310 C 507.471 -0.669326 5.876 0
M  V30 5311 H 506.401 -0.239629 0.714908 0
M  V30 5312 H 509.052 0.111097 1.83163 0
M  V30 5313 H 507.434 -1.96909 3.43574 0
M  V30 5314 H 508.608 0.659348 4.56058 0
M  V30 5315 H 506.923 0.438821 4.14081 0
M  V30 5316 H 509.52 -2.25047 4.85034 0
M  V30 5317 H 509.863 -2.67365 3.19095 0
M  V30 5318 H 510.396 -1.09712 3.82372 0
M  V30 5319 H 507.135 0.141449 6.55347 0
M  V30 5320 H 506.655 -1.4107 5.82974 0
M  V30 5321 H 508.334 -1.15463 6.36614 0
M  V30 5322 N 508.466 -1.55915 -0.229846 0
M  V30 5323 C 509.714 -1.7819 -0.953565 0
M  V30 5324 C 510.035 -0.610504 -1.85197 0
M  V30 5325 O 509.305 0.372988 -1.92316 0
M  V30 5326 H 507.885 -0.657208 -0.355087 0
M  V30 5327 H 510.547 -1.9337 -0.243693 0
M  V30 5328 H 509.643 -2.70011 -1.56527 0
M  V30 5329 N 509.944 0.496216 -1.49584 0
M  V30 5330 C 510.874 1.60576 -1.69521 0
M  V30 5331 C 511.855 1.61169 -0.543933 0
M  V30 5332 O 513.04 1.77834 -0.78031 0
M  V30 5333 C 510.17 2.99038 -1.76616 0
M  V30 5334 C 509.124 3.13312 -2.91581 0
M  V30 5335 C 508.45 4.53172 -2.83794 0
M  V30 5336 C 509.75 2.92886 -4.32452 0
M  V30 5337 H 511.444 1.44146 -2.62416 0
M  V30 5338 H 508.99 0.692024 -1.26282 0
M  V30 5339 H 510.943 3.76564 -1.8915 0
M  V30 5340 H 509.667 3.16568 -0.80324 0
M  V30 5341 H 508.326 2.38213 -2.78658 0
M  V30 5342 H 507.974 4.67585 -1.854 0
M  V30 5343 H 507.674 4.63662 -3.60958 0
M  V30 5344 H 509.198 5.32752 -2.98342 0
M  V30 5345 H 510.612 3.60178 -4.46032 0
M  V30 5346 H 509.009 3.14844 -5.10875 0
M  V30 5347 H 510.079 1.88966 -4.46565 0
M  V30 5348 N 511.423 1.38739 0.74761 0
M  V30 5349 C 512.834 1.31507 1.32524 0
M  V30 5350 C 513.185 -0.0263963 1.96182 0
M  V30 5351 O 512.31 -0.92849 1.95469 0
M  V30 5352 C 512.905 2.38162 2.40966 0
M  V30 5353 C 511.464 2.34489 2.94434 0
M  V30 5354 C 510.611 2.20712 1.67873 0
M  V30 5355 H 513.562 1.4901 0.546043 0
M  V30 5356 H 513.583 2.04222 3.21051 0
M  V30 5357 H 513.095 3.35783 1.94605 0
M  V30 5358 H 511.196 1.40467 3.45108 0
M  V30 5359 H 511.309 3.28861 3.48407 0
M  V30 5360 H 509.673 1.67667 1.91729 0
M  V30 5361 H 510.456 3.20285 1.23582 0
M  V30 5362 N 512.901 -0.976442 1.23707 0
M  V30 5363 C 514.178 -1.69296 0.979699 0
M  V30 5364 C 514.558 -2.0508 -0.500555 0
M  V30 5365 O 513.906 -1.74708 -1.47273 0
M  V30 5366 C 514.116 -2.93143 1.89389 0
M  V30 5367 C 515.464 -3.65572 2.15968 0
M  V30 5368 O 516.488 -3.03184 1.86971 0
M  V30 5369 O 515.347 -4.77859 2.65167 0
M  V30 5370 H 512.441 -0.739708 0.369812 0
M  V30 5371 H 514.987 -1.03131 1.34767 0
M  V30 5372 H 513.759 -2.63327 2.89439 0
M  V30 5373 H 513.382 -3.67044 1.52854 0
M  V30 5374 N 514.379 -1.04941 -1.1758 0
M  V30 5375 C 515.626 -0.757989 -1.87779 0
M  V30 5376 C 515.954 0.714827 -1.80888 0
M  V30 5377 O 515.209 1.53824 -1.20982 0
M  V30 5378 C 515.508 -1.18062 -3.37337 0
M  V30 5379 C 515.174 -2.65521 -3.6443 0
M  V30 5380 C 513.836 -3.05804 -3.71534 0
M  V30 5381 C 516.188 -3.60822 -3.76108 0
M  V30 5382 C 513.516 -4.40256 -3.87803 0
M  V30 5383 C 515.868 -4.95005 -3.93895 0
M  V30 5384 C 514.532 -5.34945 -3.99237 0
M  V30 5385 H 513.802 -0.277368 -0.68713 0
M  V30 5386 H 516.449 -1.31603 -1.39115 0
M  V30 5387 H 514.754 -0.541525 -3.8804 0
M  V30 5388 H 516.451 -0.932368 -3.9001 0
M  V30 5389 H 513.041 -2.33324 -3.59524 0
M  V30 5390 H 517.225 -3.30841 -3.69943 0
M  V30 5391 H 512.481 -4.70707 -3.90186 0
M  V30 5392 H 516.655 -5.68746 -4.01872 0
M  V30 5393 H 514.282 -6.39135 -4.11596 0
M  V30 5394 N 515.857 1.33968 -0.830081 0
M  V30 5395 C 516.805 2.31301 -0.245435 0
M  V30 5396 C 517.799 1.57734 0.617762 0
M  V30 5397 O 519.005 1.72674 0.508303 0
M  V30 5398 H 515.38 0.749552 -0.0606316 0
M  V30 5399 H 517.351 2.78129 -1.08105 0
M  V30 5400 C 516.1 3.42961 0.572084 0
M  V30 5401 H 515.423 3.99714 -0.0828118 0
M  V30 5402 H 516.863 4.13286 0.94715 0
M  V30 5403 C 515.322 2.88043 1.74737 0
M  V30 5404 O 515.852 2.83508 2.8458 0
M  V30 5405 N 514.058 2.44768 1.56642 0
M  V30 5406 H 513.605 2.48656 0.672901 0
M  V30 5407 H 513.563 2.08375 2.3543 0
M  V30 5408 N 517.335 0.585699 1.46312 0
M  V30 5409 C 518.298 -0.135673 2.28798 0
M  V30 5410 C 519.298 -0.815988 1.38558 0
M  V30 5411 O 520.488 -0.667487 1.60904 0
M  V30 5412 C 517.62 -1.20163 3.1902 0
M  V30 5413 H 518.813 0.589257 2.94054 0
M  V30 5414 H 516.366 0.343794 1.52472 0
M  V30 5415 H 517.101 -1.95804 2.58517 0
M  V30 5416 H 516.886 -0.718282 3.85465 0
M  V30 5417 H 518.376 -1.70749 3.81096 0
M  V30 5418 N 518.813 -1.54241 0.323641 0
M  V30 5419 C 520.061 -2.00174 -0.278359 0
M  V30 5420 C 520.382 -1.2134 -1.52648 0
M  V30 5421 O 519.652 -0.315244 -1.93347 0
M  V30 5422 H 518.232 -0.739463 -0.105845 0
M  V30 5423 H 520.894 -1.89864 0.440204 0
M  V30 5424 H 519.99 -3.07486 -0.5347 0
M  V30 5425 N 520.291 -0.0518155 -1.57515 0
M  V30 5426 C 521.254 0.907547 -2.10467 0
M  V30 5427 C 522.254 1.23947 -1.02439 0
M  V30 5428 O 523.444 1.17604 -1.2851 0
M  V30 5429 C 520.576 2.21723 -2.58944 0
M  V30 5430 H 521.769 0.44851 -2.96527 0
M  V30 5431 H 519.322 0.196598 -1.55059 0
M  V30 5432 H 520.057 2.72206 -1.76279 0
M  V30 5433 H 519.842 1.98935 -3.37886 0
M  V30 5434 H 521.332 2.90441 -3.00056 0
M  V30 5435 N 521.769 1.56035 0.221574 0
M  V30 5436 C 522.702 1.87427 1.30178 0
M  V30 5437 C 523.68 0.731658 1.45209 0
M  V30 5438 O 524.864 0.980016 1.61022 0
M  V30 5439 C 521.991 2.08127 2.67209 0
M  V30 5440 C 521.037 3.30813 2.69194 0
M  V30 5441 S 521.87 4.86738 2.23263 0
M  V30 5442 C 523.026 5.10474 3.62171 0
M  V30 5443 H 523.259 2.78756 1.03355 0
M  V30 5444 H 520.792 1.48469 0.423813 0
M  V30 5445 H 522.75 2.20736 3.46101 0
M  V30 5446 H 521.411 1.17595 2.91256 0
M  V30 5447 H 520.604 3.42341 3.6989 0
M  V30 5448 H 520.206 3.1706 1.98366 0
M  V30 5449 H 522.498 4.9937 4.5786 0
M  V30 5450 H 523.441 6.12359 3.55558 0
M  V30 5451 H 523.849 4.38208 3.55857 0
M  V30 5452 N 523.247 -0.488276 1.49845 0
M  V30 5453 C 524.157 -1.61451 1.70207 0
M  V30 5454 C 525.173 -1.63877 0.584846 0
M  V30 5455 O 526.349 -1.82063 0.861107 0
M  V30 5456 C 523.414 -2.9776 1.77594 0
M  V30 5457 C 522.475 -3.05861 3.01243 0
M  V30 5458 C 521.708 -4.35668 3.08268 0
M  V30 5459 O 521.931 -5.25197 2.22541 0
M  V30 5460 O 520.865 -4.49005 4.00847 0
M  V30 5461 H 524.691 -1.47199 2.65643 0
M  V30 5462 H 522.276 -0.665939 1.33737 0
M  V30 5463 H 524.158 -3.7875 1.84732 0
M  V30 5464 H 522.833 -3.12248 0.8534 0
M  V30 5465 H 521.74 -2.24012 2.99616 0
M  V30 5466 H 523.073 -2.96304 3.9302 0
M  V30 5467 N 524.725 -1.39134 -0.740242 0
M  V30 5468 C 525.673 -1.3757 -1.87556 0
M  V30 5469 C 526.667 -0.259593 -1.67399 0
M  V30 5470 O 527.873 -0.429349 -1.74804 0
M  V30 5471 H 524.248 -0.42947 -0.6173 0
M  V30 5472 H 526.219 -2.33345 -1.85991 0
M  V30 5473 C 524.968 -1.23087 -3.25184 0
M  V30 5474 H 524.291 -2.08237 -3.41288 0
M  V30 5475 H 525.731 -1.26049 -4.0483 0
M  V30 5476 C 524.19 0.0611471 -3.36845 0
M  V30 5477 O 524.72 1.03328 -3.88183 0
M  V30 5478 N 522.926 0.122454 -2.90342 0
M  V30 5479 H 522.473 -0.669329 -2.48752 0
M  V30 5480 H 522.431 0.986463 -2.98523 0
M  V30 5481 N 526.204 0.969867 -1.24223 0
M  V30 5482 C 527.45 1.71582 -1.09231 0
M  V30 5483 C 527.805 1.88898 0.365432 0
M  V30 5484 O 527.098 1.43781 1.2664 0
M  V30 5485 C 527.292 3.10883 -1.76314 0
M  V30 5486 C 527.121 3.07155 -3.2846 0
M  V30 5487 C 525.891 3.11757 -3.97663 0
M  V30 5488 C 528.089 2.895 -4.25082 0
M  V30 5489 N 526.071 2.98025 -5.36707 0
M  V30 5490 C 527.442 2.84041 -5.51109 0
M  V30 5491 C 529.497 2.74064 -4.15684 0
M  V30 5492 C 528.2 2.64725 -6.68815 0
M  V30 5493 C 530.226 2.56115 -5.33066 0
M  V30 5494 C 529.588 2.51363 -6.58024 0
M  V30 5495 H 525.687 0.636496 -0.454309 0
M  V30 5496 H 528.271 1.15004 -1.57106 0
M  V30 5497 H 526.442 3.65657 -1.30955 0
M  V30 5498 H 528.174 3.74171 -1.54201 0
M  V30 5499 H 524.929 3.20352 -3.48814 0
M  V30 5500 H 525.353 2.94405 -6.09635 0
M  V30 5501 H 529.995 2.76521 -3.19837 0
M  V30 5502 H 527.713 2.61011 -7.64787 0
M  V30 5503 H 531.299 2.45119 -5.27644 0
M  V30 5504 H 530.179 2.37651 -7.47323 0
M  V30 5505 N 527.682 1.05563 1.17022 0
M  V30 5506 C 528.93 0.76642 1.87004 0
M  V30 5507 C 529.251 -0.708854 1.8166 0
M  V30 5508 O 528.521 -1.51242 1.2451 0
M  V30 5509 H 527.101 0.280516 0.692329 0
M  V30 5510 H 529.763 1.33557 1.41945 0
M  V30 5511 H 528.859 1.08472 2.92644 0
M  V30 5512 N 529.16 -1.33526 0.837174 0
M  V30 5513 C 530.09 -2.31764 0.284206 0
M  V30 5514 C 531.071 -1.58896 -0.607142 0
M  V30 5515 O 532.256 -1.86798 -0.531047 0
M  V30 5516 C 529.386 -3.43029 -0.542962 0
M  V30 5517 C 528.34 -4.27255 0.252451 0
M  V30 5518 C 527.666 -5.3012 -0.69836 0
M  V30 5519 C 528.966 -5.01229 1.46858 0
M  V30 5520 H 530.66 -2.78262 1.10502 0
M  V30 5521 H 528.206 -1.3378 0.532812 0
M  V30 5522 H 530.159 -4.1078 -0.940096 0
M  V30 5523 H 528.883 -2.95216 -1.39697 0
M  V30 5524 H 527.542 -3.61127 0.631124 0
M  V30 5525 H 527.19 -4.78564 -1.54872 0
M  V30 5526 H 526.89 -5.87353 -0.170274 0
M  V30 5527 H 528.414 -6.00737 -1.09305 0
M  V30 5528 H 529.828 -5.61756 1.14469 0
M  V30 5529 H 528.225 -5.68104 1.93333 0
M  V30 5530 H 529.295 -4.301 2.23924 0
M  V30 5531 N 530.638 -0.59345 -1.46 0
M  V30 5532 C 531.884 -0.0832754 -2.02629 0
M  V30 5533 C 532.217 1.27749 -1.46266 0
M  V30 5534 O 531.492 1.8395 -0.631866 0
M  V30 5535 C 531.775 -0.0290756 -3.60088 0
M  V30 5536 C 531.628 -1.41951 -4.26814 0
M  V30 5537 C 532.947 0.666055 -4.35031 0
M  V30 5538 H 530.066 -0.031736 -0.736316 0
M  V30 5539 H 532.708 -0.762711 -1.74019 0
M  V30 5540 H 530.858 0.549532 -3.84594 0
M  V30 5541 H 532.53 -2.04411 -4.13538 0
M  V30 5542 H 530.773 -1.98422 -3.8576 0
M  V30 5543 H 531.444 -1.33395 -5.3564 0
M  V30 5544 H 533.92 0.174401 -4.15734 0
M  V30 5545 H 532.796 0.673041 -5.44758 0
M  V30 5546 H 533.057 1.72946 -4.06869 0
M  V30 5547 N 532.116 1.54067 -0.331816 0
M  V30 5548 C 533.344 2.05131 0.269996 0
M  V30 5549 C 533.759 1.20749 1.45138 0
M  V30 5550 O 533.116 0.240069 1.80914 0
M  V30 5551 C 533.167 3.54728 0.696456 0
M  V30 5552 O 532.888 4.35906 -0.43794 0
M  V30 5553 C 534.389 4.21916 1.36021 0
M  V30 5554 H 531.609 0.668807 0.0542042 0
M  V30 5555 H 534.153 1.98777 -0.4804 0
M  V30 5556 H 532.308 3.61342 1.39681 0
M  V30 5557 H 532.722 5.24404 -0.100334 0
M  V30 5558 H 534.196 5.28015 1.60947 0
M  V30 5559 H 534.673 3.73538 2.31011 0
M  V30 5560 H 535.279 4.19463 0.702212 0
M  V30 5561 N 533.594 0.0601682 1.57485 0
M  V30 5562 C 534.824 -0.620037 1.97076 0
M  V30 5563 C 535.232 -1.64381 0.936784 0
M  V30 5564 O 534.575 -1.83497 -0.0863377 0
M  V30 5565 C 534.637 -1.35617 3.32939 0
M  V30 5566 C 534.301 -0.487208 4.54396 0
M  V30 5567 C 535.298 0.250428 5.19297 0
M  V30 5568 C 532.983 -0.415494 5.00579 0
M  V30 5569 C 534.977 1.04812 6.28723 0
M  V30 5570 C 532.664 0.385879 6.0988 0
M  V30 5571 C 533.662 1.11637 6.73815 0
M  V30 5572 O 533.35 1.90454 7.81014 0
M  V30 5573 H 533.082 -0.173664 0.653312 0
M  V30 5574 H 535.636 0.1256 2.05016 0
M  V30 5575 H 533.866 -2.14763 3.2158 0
M  V30 5576 H 535.555 -1.92749 3.57215 0
M  V30 5577 H 536.321 0.204546 4.84568 0
M  V30 5578 H 532.2 -0.973679 4.506 0
M  V30 5579 H 535.744 1.6188 6.78558 0
M  V30 5580 H 531.641 0.433366 6.44044 0
M  V30 5581 H 532.409 1.82762 7.97835 0
M  V30 5582 N 535.072 -1.5615 -0.213296 0
M  V30 5583 C 536.488 -1.49327 -0.56336 0
M  V30 5584 C 536.688 -0.756826 -1.86747 0
M  V30 5585 O 535.744 -0.299866 -2.50713 0
M  V30 5586 C 537.057 -2.9392 -0.634944 0
M  V30 5587 C 538.605 -3.04487 -0.725013 0
M  V30 5588 C 539.08 -4.50456 -0.82787 0
M  V30 5589 N 540.571 -4.54533 -0.891876 0
M  V30 5590 C 541.306 -5.64766 -0.991315 0
M  V30 5591 N 540.802 -6.84733 -1.05419 0
M  V30 5592 N 542.595 -5.52637 -1.02709 0
M  V30 5593 H 534.746 -2.02453 0.642366 0
M  V30 5594 H 537.009 -0.920548 0.226487 0
M  V30 5595 H 536.715 -3.50783 0.253859 0
M  V30 5596 H 536.589 -3.46274 -1.49579 0
M  V30 5597 H 538.976 -2.47685 -1.60425 0
M  V30 5598 H 539.057 -2.55289 0.161669 0
M  V30 5599 H 538.701 -5.07878 0.0469464 0
M  V30 5600 H 538.631 -4.97369 -1.73009 0
M  V30 5601 H 541.122 -3.68141 -0.85327 0
M  V30 5602 H 541.435 -7.64493 -1.13007 0
M  V30 5603 H 539.78 -6.87427 -1.02318 0
M  V30 5604 H 542.971 -4.5784 -0.974687 0
M  V30 5605 H 543.144 -6.38576 -1.10113 0
M  V30 5606 N 536.55 0.480323 -1.50102 0
M  V30 5607 C 537.46 1.60547 -1.71061 0
M  V30 5608 C 538.476 1.63564 -0.593529 0
M  V30 5609 O 539.652 1.81604 -0.870751 0
M  V30 5610 C 536.717 2.96814 -1.79171 0
M  V30 5611 C 535.778 3.04259 -3.02861 0
M  V30 5612 C 535.011 4.34027 -3.10574 0
M  V30 5613 O 535.234 5.24009 -2.25323 0
M  V30 5614 O 534.168 4.46873 -4.03223 0
M  V30 5615 H 537.994 1.45788 -2.6642 0
M  V30 5616 H 535.579 0.658838 -1.34088 0
M  V30 5617 H 537.461 3.77765 -1.86738 0
M  V30 5618 H 536.136 3.11791 -0.869947 0
M  V30 5619 H 535.043 2.22419 -3.008 0
M  V30 5620 H 536.376 2.94216 -3.94586 0
M  V30 5621 N 538.028 1.39524 0.732853 0
M  V30 5622 C 538.976 1.38563 1.86824 0
M  V30 5623 C 539.97 0.268467 1.67259 0
M  V30 5624 O 541.176 0.438613 1.74574 0
M  V30 5625 H 537.551 0.432737 0.615014 0
M  V30 5626 H 539.522 2.34328 1.84751 0
M  V30 5627 C 538.271 1.2481 3.24527 0
M  V30 5628 H 537.594 2.10044 3.40179 0
M  V30 5629 H 539.034 1.28194 4.04156 0
M  V30 5630 C 537.493 -0.0432825 3.36872 0
M  V30 5631 O 538.023 -1.01268 3.88726 0
M  V30 5632 N 536.229 -0.107055 2.90403 0
M  V30 5633 H 535.776 0.682512 2.48394 0
M  V30 5634 H 535.734 -0.970618 2.99042 0
M  V30 5635 N 539.506 -0.963266 1.24736 0
M  V30 5636 C 540.731 -1.74699 1.11781 0
M  V30 5637 C 541.156 -1.85267 -0.325258 0
M  V30 5638 O 540.514 -1.32681 -1.23553 0
M  V30 5639 C 540.562 -3.14322 1.76731 0
M  V30 5640 O 539.666 -3.99043 1.04109 0
M  V30 5641 H 539.007 -0.53684 0.390767 0
M  V30 5642 H 541.537 -1.20801 1.65131 0
M  V30 5643 H 541.547 -3.64824 1.82668 0
M  V30 5644 H 540.222 -3.05946 2.81726 0
M  V30 5645 H 538.799 -3.5752 1.05991 0
M  V30 5646 N 540.985 -1.06182 -1.16461 0
M  V30 5647 C 541.915 -0.692861 -2.22984 0
M  V30 5648 C 542.896 0.314122 -1.67174 0
M  V30 5649 O 544.081 0.189499 -1.93273 0
M  V30 5650 C 541.211 -0.07732 -3.47214 0
M  V30 5651 C 540.165 -1.01015 -4.15909 0
M  V30 5652 C 539.491 -0.257973 -5.34077 0
M  V30 5653 C 540.791 -2.33868 -4.67015 0
M  V30 5654 H 542.485 -1.58343 -2.54102 0
M  V30 5655 H 540.031 -0.76279 -1.22137 0
M  V30 5656 H 541.984 0.19266 -4.20959 0
M  V30 5657 H 540.708 0.848254 -3.15392 0
M  V30 5658 H 539.367 -1.26486 -3.44088 0
M  V30 5659 H 539.015 0.670684 -4.98509 0
M  V30 5660 H 538.715 -0.879638 -5.80979 0
M  V30 5661 H 540.239 0.00448788 -6.106 0
M  V30 5662 H 541.653 -2.1279 -5.32347 0
M  V30 5663 H 540.05 -2.91522 -5.24533 0
M  V30 5664 H 541.12 -2.97019 -3.83286 0
M  V30 5665 N 542.463 1.3308 -0.844243 0
M  V30 5666 C 543.393 2.3161 -0.296493 0
M  V30 5667 C 544.374 1.59215 0.598707 0
M  V30 5668 O 545.559 1.87077 0.521134 0
M  V30 5669 C 542.689 3.43313 0.524762 0
M  V30 5670 C 541.643 4.27115 -0.275106 0
M  V30 5671 C 540.969 5.30483 0.670236 0
M  V30 5672 C 542.269 5.00443 -1.49514 0
M  V30 5673 H 543.963 2.77672 -1.11976 0
M  V30 5674 H 541.509 1.33496 -0.539899 0
M  V30 5675 H 543.462 4.11273 0.918298 0
M  V30 5676 H 542.186 2.95952 1.3813 0
M  V30 5677 H 540.845 3.60787 -0.650267 0
M  V30 5678 H 540.493 4.79379 1.52332 0
M  V30 5679 H 540.193 5.87435 0.139123 0
M  V30 5680 H 541.717 6.01308 1.06117 0
M  V30 5681 H 543.131 5.61141 -1.17447 0
M  V30 5682 H 541.528 5.67071 -1.96343 0
M  V30 5683 H 542.598 4.28906 -2.26202 0
M  V30 5684 N 543.941 0.601185 1.45683 0
M  V30 5685 C 545.188 0.0938811 2.02282 0
M  V30 5686 C 545.516 -1.27315 1.47041 0
M  V30 5687 O 544.771 -1.85193 0.632623 0
M  V30 5688 C 545.07 -0.00222425 3.574 0
M  V30 5689 C 544.736 1.29963 4.31764 0
M  V30 5690 C 543.398 1.65625 4.51798 0
M  V30 5691 C 545.75 2.1603 4.74321 0
M  V30 5692 C 543.078 2.87119 5.11644 0
M  V30 5693 C 545.43 3.36766 5.3551 0
M  V30 5694 C 544.094 3.72689 5.53768 0
M  V30 5695 H 543.364 0.0343535 0.740203 0
M  V30 5696 H 546.011 0.781522 1.74827 0
M  V30 5697 H 544.316 -0.773096 3.84097 0
M  V30 5698 H 546.013 -0.410794 3.9889 0
M  V30 5699 H 542.603 1.01204 4.1648 0
M  V30 5700 H 546.787 1.89778 4.58582 0
M  V30 5701 H 542.043 3.15065 5.2397 0
M  V30 5702 H 546.217 4.03713 5.67441 0
M  V30 5703 H 543.844 4.66918 5.99909 0
M  V30 5704 N 545.419 -1.53889 0.339982 0
M  V30 5705 C 546.696 -1.93084 -0.312719 0
M  V30 5706 C 547.076 -1.2712 -1.68534 0
M  V30 5707 O 546.424 -0.420835 -2.24591 0
M  V30 5708 C 546.634 -3.4683 -0.388558 0
M  V30 5709 C 547.982 -4.19732 -0.641088 0
M  V30 5710 O 549.006 -3.53075 -0.470818 0
M  V30 5711 O 547.865 -5.3781 -0.970685 0
M  V30 5712 H 544.959 -0.806784 -0.18174 0
M  V30 5713 H 547.505 -1.65137 0.390898 0
M  V30 5714 H 546.277 -3.87055 0.574821 0
M  V30 5715 H 545.9 -3.80933 -1.1391 0
M  V30 5716 N 546.897 -0.0685191 -1.57451 0
M  V30 5717 C 548.308 0.464634 -1.80826 0
M  V30 5718 C 548.659 1.69847 -0.982169 0
M  V30 5719 O 547.784 2.15439 -0.203734 0
M  V30 5720 C 548.379 0.849721 -3.27971 0
M  V30 5721 C 546.938 1.32776 -3.52204 0
M  V30 5722 C 546.085 0.311332 -2.75547 0
M  V30 5723 H 549.036 -0.294248 -1.55948 0
M  V30 5724 H 549.057 1.71138 -3.39841 0
M  V30 5725 H 548.569 -0.0484736 -3.8807 0
M  V30 5726 H 546.67 2.24456 -2.97406 0
M  V30 5727 H 546.783 1.30794 -4.60901 0
M  V30 5728 H 545.147 0.787915 -2.42206 0
M  V30 5729 H 545.93 -0.579078 -3.38381 0
M  V30 5730 N 548.375 1.56261 0.205012 0
M  V30 5731 C 549.305 1.96779 1.257 0
M  V30 5732 C 550.286 0.838309 1.48008 0
M  V30 5733 O 551.471 1.10189 1.59913 0
M  V30 5734 C 548.601 2.29876 2.60335 0
M  V30 5735 C 547.555 3.45469 2.52656 0
M  V30 5736 C 546.881 3.64215 3.91473 0
M  V30 5737 C 548.181 4.79954 2.06014 0
M  V30 5738 H 549.875 2.84904 0.920338 0
M  V30 5739 H 547.421 1.37072 0.441277 0
M  V30 5740 H 549.374 2.56814 3.34102 0
M  V30 5741 H 548.098 1.38622 2.95722 0
M  V30 5742 H 546.757 3.18605 1.81345 0
M  V30 5743 H 546.405 2.70309 4.24196 0
M  V30 5744 H 546.105 4.41973 3.87213 0
M  V30 5745 H 547.629 3.93519 4.66878 0
M  V30 5746 H 549.043 5.05989 2.69533 0
M  V30 5747 H 547.44 5.61111 2.12777 0
M  V30 5748 H 548.51 4.74201 1.01297 0
M  V30 5749 N 549.853 -0.472356 1.50355 0
M  V30 5750 C 551.078 -1.25251 1.65309 0
M  V30 5751 C 551.503 -1.85081 0.335643 0
M  V30 5752 O 550.861 -1.67227 -0.700335 0
M  V30 5753 C 550.909 -2.3379 2.74544 0
M  V30 5754 O 550.013 -3.38401 2.35709 0
M  V30 5755 H 549.354 -0.368539 0.552336 0
M  V30 5756 H 551.884 -0.562271 1.96722 0
M  V30 5757 H 551.894 -2.79121 2.97583 0
M  V30 5758 H 550.569 -1.89614 3.70161 0
M  V30 5759 H 549.146 -2.9879 2.23112 0
M  V30 5760 N 551.331 -1.39911 -0.725443 0
M  V30 5761 C 552.556 -1.41137 -1.5197 0
M  V30 5762 C 552.981 -0.010262 -1.88097 0
M  V30 5763 O 552.339 0.979184 -1.52583 0
M  V30 5764 C 552.387 -2.2994 -2.77777 0
M  V30 5765 O 551.491 -1.73586 -3.74088 0
M  V30 5766 H 550.832 -0.480219 -0.458569 0
M  V30 5767 H 553.362 -1.84023 -0.894249 0
M  V30 5768 H 553.372 -2.44785 -3.26411 0
M  V30 5769 H 552.047 -3.31759 -2.50816 0
M  V30 5770 H 550.624 -1.68035 -3.32894 0
M  V30 5771 N 552.809 0.956637 -1.25245 0
M  V30 5772 C 554.034 1.74104 -1.12706 0
M  V30 5773 C 554.459 1.85436 0.315429 0
M  V30 5774 O 553.817 1.33334 1.22848 0
M  V30 5775 C 553.865 3.1338 -1.78396 0
M  V30 5776 O 552.969 3.98485 -1.06224 0
M  V30 5777 H 552.31 0.53476 -0.393609 0
M  V30 5778 H 554.84 1.19924 -1.65769 0
M  V30 5779 H 554.85 3.6385 -1.846 0
M  V30 5780 H 553.525 3.04448 -2.83345 0
M  V30 5781 H 552.102 3.56952 -1.07886 0
M  V30 5782 N 554.287 1.06798 1.15896 0
M  V30 5783 C 555.512 0.808739 1.90982 0
M  V30 5784 C 555.937 -0.6316 1.77179 0
M  V30 5785 O 555.295 -1.4407 1.10061 0
M  V30 5786 C 555.343 1.21468 3.39526 0
M  V30 5787 O 554.447 0.356562 4.10856 0
M  V30 5788 H 553.788 0.29512 0.594811 0
M  V30 5789 H 556.318 1.42513 1.46804 0
M  V30 5790 H 556.328 1.18844 3.90308 0
M  V30 5791 H 555.003 2.26379 3.48891 0
M  V30 5792 H 553.58 0.444808 3.70238 0
M  V30 5793 N 555.766 -1.3263 0.851289 0
M  V30 5794 C 556.991 -2.02097 0.466006 0
M  V30 5795 C 557.416 -1.63574 -0.928709 0
M  V30 5796 O 556.774 -0.834665 -1.60944 0
M  V30 5797 C 556.822 -3.55425 0.608737 0
M  V30 5798 O 555.926 -4.10827 -0.359878 0
M  V30 5799 H 555.267 -0.636911 0.187724 0
M  V30 5800 H 557.797 -1.69253 1.14955 0
M  V30 5801 H 557.807 -4.04986 0.495006 0
M  V30 5802 H 556.482 -3.82806 1.62581 0
M  V30 5803 H 555.059 -3.72349 -0.202666 0
M  V30 5804 N 557.244 -0.608902 -1.45362 0
M  V30 5805 C 558.192 0.121639 -2.32282 0
M  V30 5806 C 559.186 0.858301 -1.46046 0
M  V30 5807 O 560.392 0.773718 -1.62523 0
M  V30 5808 H 556.767 0.058086 -0.749753 0
M  V30 5809 H 558.738 -0.629866 -2.91677 0
M  V30 5810 C 557.487 1.1047 -3.29684 0
M  V30 5811 H 556.81 0.547278 -3.96036 0
M  V30 5812 H 558.25 1.58576 -3.9323 0
M  V30 5813 C 556.709 2.17891 -2.56954 0
M  V30 5814 O 557.239 3.25652 -2.35189 0
M  V30 5815 N 555.445 1.93211 -2.17066 0
M  V30 5816 H 554.992 1.05584 -2.34967 0
M  V30 5817 H 554.95 2.6529 -1.68727 0
M  V30 5818 N 558.722 1.53707 -0.348139 0
M  V30 5819 C 559.669 2.25173 0.506518 0
M  V30 5820 C 560.639 1.25174 1.09182 0
M  V30 5821 O 561.824 1.53917 1.12757 0
M  V30 5822 C 558.964 3.03141 1.64923 0
M  V30 5823 C 558.077 4.18002 1.0908 0
M  V30 5824 C 557.212 4.83447 2.20119 0
M  V30 5825 C 556.251 5.90369 1.61651 0
M  V30 5826 N 555.388 6.49575 2.66451 0
M  V30 5827 H 560.228 2.97799 -0.109452 0
M  V30 5828 H 557.765 1.46953 -0.0657866 0
M  V30 5829 H 559.723 3.46607 2.32205 0
M  V30 5830 H 558.353 2.32803 2.23612 0
M  V30 5831 H 557.405 3.79145 0.308783 0
M  V30 5832 H 558.717 4.94892 0.623178 0
M  V30 5833 H 557.871 5.30008 2.95257 0
M  V30 5834 H 556.61 4.05991 2.70227 0
M  V30 5835 H 555.615 5.43186 0.850209 0
M  V30 5836 H 556.84 6.69735 1.1239 0
M  V30 5837 H 554.786 5.74981 3.15805 0
M  V30 5838 H 554.703 7.21952 2.24325 0
M  V30 5839 H 555.971 7.00789 3.41344 0
M  V30 5840 N 560.2 0.0768682 1.57412 0
M  V30 5841 C 561.11 -0.903207 2.16516 0
M  V30 5842 C 562.126 -1.32341 1.12968 0
M  V30 5843 O 563.302 -1.39507 1.45258 0
M  V30 5844 C 560.367 -2.1508 2.71922 0
M  V30 5845 C 559.428 -1.78653 3.90361 0
M  V30 5846 C 558.661 -2.97465 4.43114 0
M  V30 5847 O 558.884 -4.11638 3.94854 0
M  V30 5848 O 557.818 -2.76987 5.3438 0
M  V30 5849 H 561.644 -0.430427 3.00634 0
M  V30 5850 H 559.229 -0.146485 1.4868 0
M  V30 5851 H 561.111 -2.8823 3.07411 0
M  V30 5852 H 559.786 -2.61446 1.9086 0
M  V30 5853 H 558.693 -1.0274 3.59716 0
M  V30 5854 H 560.026 -1.37066 4.7273 0
M  V30 5855 N 561.678 -1.56367 -0.196722 0
M  V30 5856 C 563.094 -1.49916 -0.54749 0
M  V30 5857 C 563.294 -0.77659 -1.85934 0
M  V30 5858 O 562.35 -0.32644 -2.50381 0
M  V30 5859 C 563.663 -2.94577 -0.603734 0
M  V30 5860 C 565.211 -3.05239 -0.692677 0
M  V30 5861 C 565.686 -4.51308 -0.780046 0
M  V30 5862 N 567.177 -4.55453 -0.843616 0
M  V30 5863 C 567.912 -5.65786 -0.931358 0
M  V30 5864 N 567.408 -6.85812 -0.981503 0
M  V30 5865 N 569.201 -5.53695 -0.968421 0
M  V30 5866 H 561.352 -2.01761 0.663803 0
M  V30 5867 H 563.615 -0.918094 0.236238 0
M  V30 5868 H 563.321 -3.50494 0.29105 0
M  V30 5869 H 563.195 -3.47841 -1.45898 0
M  V30 5870 H 565.582 -2.49372 -1.57789 0
M  V30 5871 H 565.663 -2.55103 0.188736 0
M  V30 5872 H 565.307 -5.078 0.100811 0
M  V30 5873 H 565.237 -4.99176 -1.67724 0
M  V30 5874 H 567.728 -3.69025 -0.814176 0
M  V30 5875 H 568.041 -7.65648 -1.04892 0
M  V30 5876 H 566.386 -6.88474 -0.950208 0
M  V30 5877 H 569.577 -4.58848 -0.926072 0
M  V30 5878 H 569.75 -6.39708 -1.03334 0
M  V30 5879 N 563.156 0.464375 -1.50603 0
M  V30 5880 C 564.402 1.21776 -1.62168 0
M  V30 5881 C 564.735 1.91476 -0.324154 0
M  V30 5882 O 564.01 1.8242 0.674782 0
M  V30 5883 C 564.293 2.25614 -2.80661 0
M  V30 5884 C 564.146 1.60175 -4.20314 0
M  V30 5885 C 565.465 3.26862 -2.94702 0
M  V30 5886 H 562.584 0.44137 -0.590222 0
M  V30 5887 H 565.226 0.510623 -1.8301 0
M  V30 5888 H 563.376 2.85923 -2.63021 0
M  V30 5889 H 565.048 1.03411 -4.4956 0
M  V30 5890 H 563.291 0.904697 -4.24261 0
M  V30 5891 H 563.962 2.35665 -4.99165 0
M  V30 5892 H 566.438 2.76582 -3.10872 0
M  V30 5893 H 565.314 3.96839 -3.79223 0
M  V30 5894 H 565.575 3.91382 -2.05603 0
M  V30 5895 N 564.634 1.40294 0.718013 0
M  V30 5896 C 565.88 1.38645 1.48005 0
M  V30 5897 C 566.213 -0.0121202 1.94196 0
M  V30 5898 O 565.488 -0.980309 1.67989 0
M  V30 5899 C 565.771 2.37379 2.70782 0
M  V30 5900 C 565.624 3.8625 2.30501 0
M  V30 5901 C 566.943 2.33685 3.72933 0
M  V30 5902 H 564.062 0.504928 0.536858 0
M  V30 5903 H 566.704 1.71411 0.819649 0
M  V30 5904 H 564.854 2.09568 3.27129 0
M  V30 5905 H 566.526 4.24879 1.79655 0
M  V30 5906 H 564.769 4.02202 1.6253 0
M  V30 5907 H 565.44 4.50847 3.18498 0
M  V30 5908 H 567.916 2.58314 3.2621 0
M  V30 5909 H 566.792 3.0482 4.56482 0
M  V30 5910 H 567.053 1.34765 4.21059 0
M  V30 5911 N 566.112 -0.949982 1.2575 0
M  V30 5912 C 567.34 -1.72972 1.13527 0
M  V30 5913 C 567.755 -1.8623 -0.310453 0
M  V30 5914 O 567.112 -1.36336 -1.2132 0
M  V30 5915 C 567.163 -3.14108 1.78936 0
M  V30 5916 O 566.884 -3.01493 3.17858 0
M  V30 5917 C 568.385 -4.08338 1.72554 0
M  V30 5918 H 565.605 -0.541864 0.395758 0
M  V30 5919 H 568.149 -1.19151 1.66202 0
M  V30 5920 H 566.304 -3.64858 1.30221 0
M  V30 5921 H 566.718 -3.90559 3.50092 0
M  V30 5922 H 568.192 -5.04963 2.22973 0
M  V30 5923 H 568.669 -4.33742 0.690251 0
M  V30 5924 H 569.275 -3.63506 2.2078 0
M  V30 5925 N 567.59 -1.07411 -1.15328 0
M  V30 5926 C 568.836 -0.798831 -1.86404 0
M  V30 5927 C 569.169 0.673433 -1.8215 0
M  V30 5928 O 568.444 1.49428 -1.24505 0
M  V30 5929 C 568.727 -1.30846 -3.35487 0
M  V30 5930 C 568.58 -2.84532 -3.4837 0
M  V30 5931 C 569.899 -0.925486 -4.30259 0
M  V30 5932 H 567.018 -0.291659 -0.676834 0
M  V30 5933 H 569.66 -1.332 -1.35491 0
M  V30 5934 H 567.81 -0.854916 -3.78977 0
M  V30 5935 H 569.482 -3.3818 -3.13739 0
M  V30 5936 H 567.725 -3.22699 -2.8991 0
M  V30 5937 H 568.396 -3.15259 -4.53118 0
M  V30 5938 H 570.872 -1.3163 -3.94731 0
M  V30 5939 H 569.748 -1.3094 -5.33053 0
M  V30 5940 H 570.009 0.168525 -4.41779 0
M  V30 5941 N 569.068 1.32177 -0.85831 0
M  V30 5942 C 570.317 1.96392 -0.459689 0
M  V30 5943 C 570.63 1.68659 0.990632 0
M  V30 5944 O 571.836 2.26641 1.49485 0
M  V30 5945 C 570.292 3.51542 -0.7711 0
M  V30 5946 C 569.9 3.8813 -2.2374 0
M  V30 5947 C 571.644 4.2221 -0.44038 0
M  V30 5948 C 569.551 5.36341 -2.49183 0
M  V30 5949 H 568.481 0.735007 -0.168169 0
M  V30 5950 H 571.132 1.50518 -1.0496 0
M  V30 5951 H 569.514 3.95846 -0.11058 0
M  V30 5952 H 570.688 3.54824 -2.94001 0
M  V30 5953 H 569.003 3.30497 -2.533 0
M  V30 5954 H 571.6 5.31234 -0.607855 0
M  V30 5955 H 571.943 4.11683 0.618291 0
M  V30 5956 H 572.476 3.83502 -1.05695 0
M  V30 5957 H 569.215 5.51892 -3.53689 0
M  V30 5958 H 568.735 5.7104 -1.83504 0
M  V30 5959 H 570.414 6.03466 -2.33318 0
M  V30 5960 N 570.547 0.616602 1.45037 0
M  V30 5961 C 571.51 -0.0871112 2.29034 0
M  V30 5962 C 572.51 -0.786414 1.40258 0
M  V30 5963 O 573.7 -0.633207 1.62284 0
M  V30 5964 C 570.832 -1.13369 3.21497 0
M  V30 5965 H 572.025 0.651497 2.92738 0
M  V30 5966 H 569.578 0.376058 1.51709 0
M  V30 5967 H 570.313 -1.90277 2.62612 0
M  V30 5968 H 570.098 -0.636358 3.86902 0
M  V30 5969 H 571.588 -1.62627 3.84633 0
M  V30 5970 N 572.025 -1.5352 0.356285 0
M  V30 5971 C 572.975 -2.22204 -0.510815 0
M  V30 5972 C 573.959 -1.21393 -1.05605 0
M  V30 5973 O 575.151 -1.46883 -0.987639 0
M  V30 5974 C 572.28 -3.00786 -1.65478 0
M  V30 5975 C 571.366 -4.08965 -1.12287 0
M  V30 5976 N 571.757 -5.04829 -0.313191 0
M  V30 5977 C 570.055 -4.23505 -1.39856 0
M  V30 5978 C 570.756 -5.81695 -0.0230322 0
M  V30 5979 N 569.732 -5.40074 -0.618144 0
M  V30 5980 H 573.534 -2.93676 0.114711 0
M  V30 5981 H 571.048 -1.61572 0.163811 0
M  V30 5982 H 573.045 -3.48502 -2.28806 0
M  V30 5983 H 571.705 -2.30843 -2.28345 0
M  V30 5984 H 572.716 -5.17879 0.0468202 0
M  V30 5985 H 569.393 -3.64786 -2.0307 0
M  V30 5986 H 570.783 -6.68931 0.630927 0
M  V30 5987 N 573.503 -0.0852151 -1.57369 0
M  V30 5988 C 574.413 0.891712 -2.16992 0
M  V30 5989 C 575.429 1.3174 -1.13669 0
M  V30 5990 O 576.605 1.38735 -1.45995 0
M  V30 5991 C 573.67 2.13635 -2.73059 0
M  V30 5992 C 572.731 1.7658 -3.91303 0
M  V30 5993 C 571.964 2.95111 -4.44686 0
M  V30 5994 O 572.187 4.09539 -3.97032 0
M  V30 5995 O 571.121 2.74149 -5.35841 0
M  V30 5996 H 574.947 0.414477 -3.00858 0
M  V30 5997 H 572.532 0.138598 -1.48756 0
M  V30 5998 H 574.414 2.86595 -3.08935 0
M  V30 5999 H 573.089 2.6043 -1.92244 0
M  V30 6000 H 571.996 1.00831 -3.60255 0
M  V30 6001 H 573.329 1.34557 -4.7345 0
M  V30 6002 N 574.981 1.5647 0.188427 0
M  V30 6003 C 575.911 1.98101 1.23606 0
M  V30 6004 C 576.892 0.853961 1.47111 0
M  V30 6005 O 578.077 1.11879 1.58735 0
M  V30 6006 C 575.207 2.32624 2.57882 0
M  V30 6007 C 574.161 3.48129 2.48978 0
M  V30 6008 C 573.487 3.68347 3.87588 0
M  V30 6009 C 574.787 4.82112 2.00911 0
M  V30 6010 H 576.481 2.85864 0.890068 0
M  V30 6011 H 574.027 1.37532 0.426714 0
M  V30 6012 H 575.98 2.60343 3.3136 0
M  V30 6013 H 574.704 1.41751 2.94235 0
M  V30 6014 H 573.363 3.20511 1.77956 0
M  V30 6015 H 573.011 2.74793 4.21305 0
M  V30 6016 H 572.711 4.46055 3.82503 0
M  V30 6017 H 574.235 3.98449 4.62678 0
M  V30 6018 H 575.649 5.08819 2.64151 0
M  V30 6019 H 574.046 5.63337 2.06814 0
M  V30 6020 H 575.116 4.75249 0.96262 0
M  V30 6021 N 576.459 -0.456382 1.50847 0
M  V30 6022 C 577.422 -1.53493 1.70213 0
M  V30 6023 C 578.422 -1.50264 0.572481 0
M  V30 6024 O 579.612 -1.52623 0.839751 0
M  V30 6025 C 576.744 -2.93091 1.741 0
M  V30 6026 H 577.937 -1.37633 2.66453 0
M  V30 6027 H 575.49 -0.683776 1.4055 0
M  V30 6028 H 576.225 -3.14378 0.796063 0
M  V30 6029 H 576.01 -2.9684 2.5618 0
M  V30 6030 H 577.5 -3.71368 1.90987 0
M  V30 6031 N 577.937 -1.40673 -0.710563 0
M  V30 6032 C 578.887 -1.37812 -1.81636 0
M  V30 6033 C 579.871 -0.254853 -1.58869 0
M  V30 6034 O 581.063 -0.494356 -1.69956 0
M  V30 6035 C 578.192 -1.24802 -3.19811 0
M  V30 6036 C 577.278 -2.41931 -3.48325 0
M  V30 6037 N 577.669 -3.67411 -3.47625 0
M  V30 6038 C 575.967 -2.35419 -3.78806 0
M  V30 6039 C 576.668 -4.45008 -3.74623 0
M  V30 6040 N 575.644 -3.74916 -3.93623 0
M  V30 6041 H 579.446 -2.32766 -1.79436 0
M  V30 6042 H 576.96 -1.34516 -0.909909 0
M  V30 6043 H 578.957 -1.20835 -3.99004 0
M  V30 6044 H 577.617 -0.308202 -3.23234 0
M  V30 6045 H 578.628 -4.00503 -3.28356 0
M  V30 6046 H 575.305 -1.4983 -3.89689 0
M  V30 6047 H 576.695 -5.53884 -3.80344 0
M  V30 6048 N 579.415 0.9433 -1.26252 0
M  V30 6049 C 580.347 2.04542 -1.03417 0
M  V30 6050 C 581.36 1.62799 0.0046911 0
M  V30 6051 O 582.549 1.76944 -0.235146 0
M  V30 6052 C 579.649 3.34511 -0.543671 0
M  V30 6053 C 578.822 4.05033 -1.65128 0
M  V30 6054 C 577.881 5.13273 -1.1592 0
M  V30 6055 O 576.907 5.38095 -1.85586 0
M  V30 6056 N 578.109 5.805 -0.00649279 0
M  V30 6057 H 580.874 2.24699 -1.98319 0
M  V30 6058 H 578.435 1.11264 -1.1761 0
M  V30 6059 H 580.427 4.04212 -0.198703 0
M  V30 6060 H 578.997 3.11042 0.311711 0
M  V30 6061 H 578.217 3.29275 -2.16729 0
M  V30 6062 H 579.505 4.48903 -2.39508 0
M  V30 6063 H 578.903 5.62767 0.575347 0
M  V30 6064 H 577.46 6.51201 0.279416 0
M  V30 6065 N 580.893 1.08022 1.14757 0
M  V30 6066 C 582.139 0.818552 1.86202 0
M  V30 6067 C 582.494 -0.648563 1.81139 0
M  V30 6068 O 581.787 -1.4704 1.22841 0
M  V30 6069 C 581.981 1.26964 3.34088 0
M  V30 6070 C 581.81 2.77907 3.5355 0
M  V30 6071 C 580.58 3.45604 3.68627 0
M  V30 6072 C 582.778 3.7609 3.50801 0
M  V30 6073 N 580.76 4.85119 3.76209 0
M  V30 6074 C 582.131 5.0148 3.64579 0
M  V30 6075 C 584.186 3.6915 3.34115 0
M  V30 6076 C 582.889 6.20755 3.63395 0
M  V30 6077 C 584.915 4.87896 3.34233 0
M  V30 6078 C 584.277 6.12123 3.48547 0
M  V30 6079 H 580.376 0.352186 0.698204 0
M  V30 6080 H 582.96 1.37781 1.37567 0
M  V30 6081 H 581.131 0.738008 3.81324 0
M  V30 6082 H 582.863 0.954806 3.93275 0
M  V30 6083 H 579.618 2.96016 3.69691 0
M  V30 6084 H 580.042 5.57748 3.83726 0
M  V30 6085 H 584.684 2.74045 3.21961 0
M  V30 6086 H 582.402 7.16175 3.74326 0
M  V30 6087 H 585.988 4.8421 3.2254 0
M  V30 6088 H 584.868 7.02468 3.48581 0
M  V30 6089 N 582.371 -1.3172 0.865308 0
M  V30 6090 C 583.618 -1.96876 0.473931 0
M  V30 6091 C 583.946 -1.68425 -0.972786 0
M  V30 6092 O 583.201 -0.970742 -1.69927 0
M  V30 6093 C 583.5 -3.5102 0.672283 0
M  V30 6094 C 583.166 -3.9948 2.09108 0
M  V30 6095 C 581.828 -4.12425 2.4791 0
M  V30 6096 C 584.18 -4.2503 3.0166 0
M  V30 6097 C 581.508 -4.48267 3.78515 0
M  V30 6098 C 583.86 -4.62335 4.31774 0
M  V30 6099 C 582.524 -4.73486 4.70497 0
M  V30 6100 H 581.794 -0.72042 0.173424 0
M  V30 6101 H 584.441 -1.56937 1.0974 0
M  V30 6102 H 582.746 -3.91785 -0.034356 0
M  V30 6103 H 584.443 -3.99475 0.349353 0
M  V30 6104 H 581.033 -3.89898 1.77981 0
M  V30 6105 H 585.217 -4.14529 2.7291 0
M  V30 6106 H 580.473 -4.55097 4.08285 0
M  V30 6107 H 584.647 -4.81058 5.03543 0
M  V30 6108 H 582.274 -5.01016 5.71741 0
M  V30 6109 N 583.85 -0.624285 -1.44708 0
M  V30 6110 C 585.098 -0.125802 -2.01708 0
M  V30 6111 C 585.418 1.2543 -1.49306 0
M  V30 6112 O 584.689 1.83198 -0.693924 0
M  V30 6113 H 583.269 -0.0435161 -0.745731 0
M  V30 6114 H 585.931 -0.809446 -1.77296 0
M  V30 6115 H 585.027 -0.0882734 -3.11975 0
M  V30 6116 N 585.328 1.53329 -0.364422 0
M  V30 6117 C 586.276 2.27212 0.497737 0
M  V30 6118 C 587.27 1.30146 1.08437 0
M  V30 6119 O 588.476 1.47778 1.0277 0
M  V30 6120 H 584.851 0.730329 0.179232 0
M  V30 6121 H 586.822 2.98037 -0.147182 0
M  V30 6122 C 585.571 3.07333 1.6261 0
M  V30 6123 H 584.894 3.81866 1.184 0
M  V30 6124 H 586.334 3.62209 2.20409 0
M  V30 6125 C 584.793 2.18102 2.56775 0
M  V30 6126 O 585.323 1.79104 3.59562 0
M  V30 6127 N 583.529 1.82759 2.25937 0
M  V30 6128 H 583.076 2.14671 1.42387 0
M  V30 6129 H 583.034 1.23342 2.89196 0
M  V30 6130 N 586.806 0.0935595 1.57322 0
M  V30 6131 C 587.736 -0.863062 2.16964 0
M  V30 6132 C 588.717 -1.29528 1.10256 0
M  V30 6133 O 589.902 -1.36245 1.38387 0
M  V30 6134 C 587.032 -2.12276 2.74875 0
M  V30 6135 C 585.986 -1.82921 3.86942 0
M  V30 6136 C 585.312 -3.15707 4.31548 0
M  V30 6137 C 586.612 -1.11737 5.10208 0
M  V30 6138 H 588.306 -0.366145 2.97153 0
M  V30 6139 H 585.852 -0.174673 1.42937 0
M  V30 6140 H 587.805 -2.79634 3.1525 0
M  V30 6141 H 586.529 -2.64248 1.91938 0
M  V30 6142 H 585.188 -1.17961 3.47103 0
M  V30 6143 H 584.836 -3.65563 3.45504 0
M  V30 6144 H 584.536 -2.96849 5.07104 0
M  V30 6145 H 586.06 -3.84226 4.74555 0
M  V30 6146 H 587.474 -1.69203 5.47762 0
M  V30 6147 H 585.871 -1.03064 5.91183 0
M  V30 6148 H 586.941 -0.0998818 4.84797 0
M  V30 6149 N 588.284 -1.56567 -0.180126 0
M  V30 6150 C 589.53 -1.81761 -0.899497 0
M  V30 6151 C 589.863 -0.670015 -1.82276 0
M  V30 6152 O 589.138 0.328575 -1.91705 0
M  V30 6153 C 589.421 -3.17296 -1.7028 0
M  V30 6154 C 589.274 -4.4257 -0.803255 0
M  V30 6155 C 590.593 -3.49678 -2.67233 0
M  V30 6156 H 587.712 -0.661192 -0.325567 0
M  V30 6157 H 590.354 -1.89272 -0.16612 0
M  V30 6158 H 588.504 -3.11023 -2.32802 0
M  V30 6159 H 590.176 -4.60902 -0.191585 0
M  V30 6160 H 588.419 -4.33658 -0.110796 0
M  V30 6161 H 589.09 -5.33935 -1.40064 0
M  V30 6162 H 591.566 -3.56347 -2.14839 0
M  V30 6163 H 590.442 -4.45605 -3.20511 0
M  V30 6164 H 590.703 -2.73932 -3.47007 0
M  V30 6165 N 589.762 0.448376 -1.51087 0
M  V30 6166 C 590.99 1.22143 -1.66999 0
M  V30 6167 C 591.405 1.85283 -0.362699 0
M  V30 6168 O 590.762 1.70236 0.65772 0
M  V30 6169 C 590.813 2.31357 -2.7777 0
M  V30 6170 O 590.534 1.70801 -4.03434 0
M  V30 6171 C 592.035 3.21836 -3.04855 0
M  V30 6172 H 589.255 0.368558 -0.560719 0
M  V30 6173 H 591.799 0.532618 -1.97442 0
M  V30 6174 H 589.954 2.95973 -2.49958 0
M  V30 6175 H 590.368 2.42895 -4.64868 0
M  V30 6176 H 591.842 3.94627 -3.85971 0
M  V30 6177 H 592.319 3.81949 -2.16821 0
M  V30 6178 H 592.925 2.62933 -3.34285 0
M  V30 6179 N 591.24 1.41047 0.703093 0
M  V30 6180 C 592.489 1.39301 1.4587 0
M  V30 6181 C 592.802 0.00267077 1.956 0
M  V30 6182 O 594.008 -0.137414 2.71152 0
M  V30 6183 C 592.464 2.44891 2.63735 0
M  V30 6184 C 592.072 3.89796 2.20824 0
M  V30 6185 C 593.816 2.5227 3.41409 0
M  V30 6186 C 591.723 4.86955 3.35602 0
M  V30 6187 H 590.653 0.518005 0.547893 0
M  V30 6188 H 593.304 1.66839 0.764009 0
M  V30 6189 H 591.686 2.10472 3.35436 0
M  V30 6190 H 592.86 4.33424 1.56461 0
M  V30 6191 H 591.175 3.86008 1.56163 0
M  V30 6192 H 593.772 3.22044 4.26839 0
M  V30 6193 H 594.115 1.55714 3.86081 0
M  V30 6194 H 594.648 2.85742 2.7676 0
M  V30 6195 H 591.387 5.84888 2.9595 0
M  V30 6196 H 590.907 4.47982 3.98839 0
M  V30 6197 H 592.586 5.07361 4.01489 0
M  V30 6198 N 592.718 -0.936591 1.26751 0
M  V30 6199 C 593.628 -2.06949 1.10496 0
M  V30 6200 C 594.644 -1.7396 0.037271 0
M  V30 6201 O 595.82 -1.99941 0.241944 0
M  V30 6202 C 592.885 -3.38612 0.744491 0
M  V30 6203 C 591.946 -3.85355 1.89209 0
M  V30 6204 C 591.179 -5.10735 1.54873 0
M  V30 6205 O 591.402 -5.68602 0.452546 0
M  V30 6206 O 590.336 -5.52632 2.38499 0
M  V30 6207 H 594.162 -2.23571 2.05547 0
M  V30 6208 H 591.747 -1.05428 1.05855 0
M  V30 6209 H 593.629 -4.17711 0.556396 0
M  V30 6210 H 592.304 -3.23218 -0.176582 0
M  V30 6211 H 591.211 -3.07182 2.13518 0
M  V30 6212 H 592.544 -4.05277 2.79305 0
M  V30 6213 N 594.196 -1.08629 -1.14182 0
M  V30 6214 C 595.442 -0.828415 -1.85766 0
M  V30 6215 C 595.797 0.638947 -1.81481 0
M  V30 6216 O 595.09 1.46386 -1.23619 0
M  V30 6217 C 595.284 -1.28734 -3.3341 0
M  V30 6218 C 595.113 -2.79778 -3.52071 0
M  V30 6219 C 593.883 -3.47554 -3.66789 0
M  V30 6220 C 596.081 -3.77945 -3.48801 0
M  V30 6221 N 594.063 -4.87107 -3.73631 0
M  V30 6222 C 595.434 -5.03406 -3.61914 0
M  V30 6223 C 597.489 -3.70917 -3.32152 0
M  V30 6224 C 596.192 -6.22673 -3.60098 0
M  V30 6225 C 598.218 -4.89662 -3.31641 0
M  V30 6226 C 597.58 -6.13962 -3.45296 0
M  V30 6227 H 593.679 -0.355884 -0.696327 0
M  V30 6228 H 596.263 -1.38508 -1.36834 0
M  V30 6229 H 594.434 -0.75822 -3.80927 0
M  V30 6230 H 596.166 -0.975649 -3.92764 0
M  V30 6231 H 592.921 -2.97972 -3.68116 0
M  V30 6232 H 593.345 -5.59775 -3.80763 0
M  V30 6233 H 597.987 -2.75749 -3.20504 0
M  V30 6234 H 595.705 -7.1815 -3.70522 0
M  V30 6235 H 599.291 -4.85914 -3.19968 0
M  V30 6236 H 598.171 -7.04307 -3.44851 0
M  V30 6237 N 595.674 1.31259 -0.872281 0
M  V30 6238 C 596.92 1.973 -0.494414 0
M  V30 6239 C 597.275 1.67684 0.94339 0
M  V30 6240 O 596.568 0.964186 1.65572 0
M  V30 6241 C 596.762 3.50659 -0.690889 0
M  V30 6242 C 596.591 3.95179 -2.14624 0
M  V30 6243 C 595.361 4.21405 -2.7883 0
M  V30 6244 C 597.559 4.08948 -3.11875 0
M  V30 6245 N 595.541 4.52295 -4.15093 0
M  V30 6246 C 596.912 4.43576 -4.33174 0
M  V30 6247 C 598.967 3.91334 -3.07835 0
M  V30 6248 C 597.67 4.62429 -5.50956 0
M  V30 6249 C 599.696 4.11381 -4.24876 0
M  V30 6250 C 599.058 4.46343 -5.44938 0
M  V30 6251 H 595.157 0.747411 -0.230002 0
M  V30 6252 H 597.741 1.58741 -1.12736 0
M  V30 6253 H 595.912 3.88301 -0.0875162 0
M  V30 6254 H 597.644 4.03722 -0.281179 0
M  V30 6255 H 594.399 4.14131 -2.29767 0
M  V30 6256 H 594.823 4.71897 -4.8543 0
M  V30 6257 H 599.465 3.6339 -2.16119 0
M  V30 6258 H 597.183 4.8922 -6.43187 0
M  V30 6259 H 600.769 3.99235 -4.23205 0
M  V30 6260 H 599.649 4.6154 -6.33996 0
M  V30 6261 N 597.152 0.631951 1.44375 0
M  V30 6262 C 598.1 -0.0846693 2.32446 0
M  V30 6263 C 599.094 -0.834957 1.47393 0
M  V30 6264 O 600.3 -0.747764 1.63733 0
M  V30 6265 H 596.675 -0.0461508 0.750583 0
M  V30 6266 H 598.646 0.67619 2.90638 0
M  V30 6267 C 597.395 -1.05211 3.314 0
M  V30 6268 H 596.718 -0.484203 3.96857 0
M  V30 6269 H 598.158 -1.523 3.95703 0
M  V30 6270 C 596.617 -2.13776 2.60387 0
M  V30 6271 O 597.147 -3.21869 2.4034 0
M  V30 6272 N 595.353 -1.89733 2.20113 0
M  V30 6273 H 594.9 -1.01833 2.36618 0
M  V30 6274 H 594.858 -2.62572 1.72926 0
M  V30 6275 N 598.631 -1.53133 0.372548 0
M  V30 6276 C 599.908 -1.93704 -0.271693 0
M  V30 6277 C 600.288 -1.30667 -1.65799 0
M  V30 6278 O 599.636 -0.46838 -2.23648 0
M  V30 6279 C 599.846 -3.47576 -0.314903 0
M  V30 6280 C 601.194 -4.20998 -0.551912 0
M  V30 6281 O 602.218 -3.53994 -0.39582 0
M  V30 6282 O 601.077 -5.39748 -0.85639 0
M  V30 6283 H 598.171 -0.810457 -0.164586 0
M  V30 6284 H 600.717 -1.6427 0.425838 0
M  V30 6285 H 599.489 -3.85749 0.656792 0
M  V30 6286 H 599.112 -3.83264 -1.05804 0
M  V30 6287 N 600.109 -0.101901 -1.5727 0
M  V30 6288 C 601.039 0.851544 -2.17419 0
M  V30 6289 C 602.02 1.28942 -1.10941 0
M  V30 6290 O 603.205 1.35509 -1.39107 0
M  V30 6291 C 600.335 2.10816 -2.75996 0
M  V30 6292 C 599.289 1.80867 -3.87906 0
M  V30 6293 C 598.615 3.13413 -4.33216 0
M  V30 6294 C 599.915 1.0903 -5.10793 0
M  V30 6295 H 601.609 0.350381 -2.97343 0
M  V30 6296 H 599.155 0.16709 -1.43027 0
M  V30 6297 H 601.108 2.77959 -3.16729 0
M  V30 6298 H 599.832 2.63227 -1.93337 0
M  V30 6299 H 598.491 1.16119 -3.47724 0
M  V30 6300 H 598.139 3.63725 -3.47438 0
M  V30 6301 H 597.839 2.94155 -5.08671 0
M  V30 6302 H 599.363 3.81704 -4.76586 0
M  V30 6303 H 600.777 1.66295 -5.48652 0
M  V30 6304 H 599.174 0.99927 -5.91722 0
M  V30 6305 H 600.244 0.0741704 -4.84843 0
M  V30 6306 N 601.587 1.56661 0.17182 0
M  V30 6307 C 602.833 1.8313 0.88516 0
M  V30 6308 C 603.188 0.682376 1.79893 0
M  V30 6309 O 602.481 -0.321215 1.88888 0
M  V30 6310 C 602.675 3.13435 1.71736 0
M  V30 6311 C 602.504 4.40892 0.885659 0
M  V30 6312 C 601.274 5.02177 0.560939 0
M  V30 6313 C 603.472 5.13797 0.227454 0
M  V30 6314 N 601.454 6.13229 -0.286953 0
M  V30 6315 C 602.825 6.18127 -0.481625 0
M  V30 6316 C 604.88 4.97687 0.145567 0
M  V30 6317 C 603.583 7.08092 -1.26482 0
M  V30 6318 C 605.609 5.88096 -0.624298 0
M  V30 6319 C 604.971 6.91888 -1.32174 0
M  V30 6320 H 601.07 0.721107 0.302536 0
M  V30 6321 H 603.654 1.94104 0.152178 0
M  V30 6322 H 601.825 3.03653 2.42176 0
M  V30 6323 H 603.557 3.27903 2.37196 0
M  V30 6324 H 600.312 4.65145 0.890902 0
M  V30 6325 H 600.736 6.73359 -0.701193 0
M  V30 6326 H 605.378 4.17451 0.670426 0
M  V30 6327 H 603.096 7.87774 -1.80103 0
M  V30 6328 H 606.682 5.77702 -0.689321 0
M  V30 6329 H 605.562 7.60637 -1.90791 0
M  V30 6330 N 603.065 -0.440357 1.51323 0
M  V30 6331 C 603.995 -1.54174 1.75364 0
M  V30 6332 C 604.976 -1.59039 0.603375 0
M  V30 6333 O 606.161 -1.74815 0.845774 0
M  V30 6334 C 603.291 -2.92277 1.87593 0
M  V30 6335 C 602.245 -3.02274 3.03009 0
M  V30 6336 C 601.571 -4.42327 3.00418 0
M  V30 6337 C 602.871 -2.76634 4.43024 0
M  V30 6338 H 604.565 -1.34307 2.67585 0
M  V30 6339 H 602.111 -0.644678 1.28763 0
M  V30 6340 H 604.064 -3.69284 2.02995 0
M  V30 6341 H 602.788 -3.13369 0.920179 0
M  V30 6342 H 601.447 -2.27706 2.87307 0
M  V30 6343 H 601.095 -4.60382 2.02626 0
M  V30 6344 H 600.795 -4.49946 3.77918 0
M  V30 6345 H 602.319 -5.21312 3.17909 0
M  V30 6346 H 603.733 -3.43376 4.59093 0
M  V30 6347 H 602.13 -2.95666 5.22208 0
M  V30 6348 H 603.2 -1.72262 4.5327 0
M  V30 6349 N 604.543 -1.41418 -0.695603 0
M  V30 6350 C 605.491 -1.43467 -1.83084 0
M  V30 6351 C 606.485 -0.312719 -1.66489 0
M  V30 6352 O 607.691 -0.484744 -1.7335 0
M  V30 6353 H 604.066 -0.448891 -0.603325 0
M  V30 6354 H 606.037 -2.39144 -1.78473 0
M  V30 6355 C 604.786 -1.3337 -3.21104 0
M  V30 6356 H 604.109 -2.18989 -3.3449 0
M  V30 6357 H 605.549 -1.38865 -4.00615 0
M  V30 6358 C 604.008 -0.0460484 -3.36869 0
M  V30 6359 O 604.538 0.909258 -3.91274 0
M  V30 6360 N 602.744 0.0300222 -2.90584 0
M  V30 6361 H 602.291 -0.748129 -2.46497 0
M  V30 6362 H 602.249 0.890991 -3.01511 0
M  V30 6363 N 606.021 0.929856 -1.27246 0
M  V30 6364 C 606.931 2.0636 -1.11592 0
M  V30 6365 C 607.947 1.73938 -0.046496 0
M  V30 6366 O 609.123 1.9981 -0.252544 0
M  V30 6367 C 606.188 3.38213 -0.762437 0
M  V30 6368 C 605.249 3.84346 -1.9125 0
M  V30 6369 C 604.482 5.09906 -1.57579 0
M  V30 6370 O 604.705 5.68354 -0.482694 0
M  V30 6371 O 603.639 5.51359 -2.41426 0
M  V30 6372 H 607.465 2.22478 -2.0673 0
M  V30 6373 H 605.05 1.04865 -1.06413 0
M  V30 6374 H 606.932 4.1741 -0.57854 0
M  V30 6375 H 605.607 3.23307 0.159439 0
M  V30 6376 H 604.514 3.06045 -2.15144 0
M  V30 6377 H 605.847 4.0379 -2.81451 0
M  V30 6378 N 607.499 1.09233 1.13605 0
M  V30 6379 C 608.747 0.825525 1.84471 0
M  V30 6380 C 609.068 -0.650702 1.83823 0
M  V30 6381 O 608.338 -1.47204 1.29259 0
M  V30 6382 H 606.918 0.3024 0.683054 0
M  V30 6383 H 609.58 1.38006 1.37624 0
M  V30 6384 H 608.676 1.17727 2.89045 0
M  V30 6385 N 608.977 -1.30795 0.87923 0
M  V30 6386 C 610.224 -1.96362 0.494786 0
M  V30 6387 C 610.552 -1.69448 -0.954868 0
M  V30 6388 O 609.807 -0.988711 -1.68888 0
M  V30 6389 C 610.106 -3.50287 0.709476 0
M  V30 6390 C 609.772 -3.9724 2.13333 0
M  V30 6391 C 608.434 -4.09772 2.52271 0
M  V30 6392 C 610.786 -4.21807 3.06151 0
M  V30 6393 C 608.114 -4.44227 3.83248 0
M  V30 6394 C 610.466 -4.5773 4.36654 0
M  V30 6395 C 609.13 -4.68469 4.75492 0
M  V30 6396 H 608.4 -0.71854 0.181055 0
M  V30 6397 H 611.047 -1.55764 1.11399 0
M  V30 6398 H 609.352 -3.91799 0.0072 0
M  V30 6399 H 611.049 -3.99082 0.391703 0
M  V30 6400 H 607.639 -3.87988 1.82107 0
M  V30 6401 H 611.823 -4.11611 2.77291 0
M  V30 6402 H 607.079 -4.50741 4.13089 0
M  V30 6403 H 611.253 -4.7569 5.08617 0
M  V30 6404 H 608.88 -4.94923 5.77022 0
M  V30 6405 N 610.455 -0.639598 -1.44038 0
M  V30 6406 C 611.418 0.0506628 -2.29144 0
M  V30 6407 C 612.418 0.764001 -1.41491 0
M  V30 6408 O 613.608 0.607309 -1.63271 0
M  V30 6409 C 610.74 1.0824 -3.2326 0
M  V30 6410 H 611.933 -0.697987 -2.91664 0
M  V30 6411 H 609.486 -0.400146 -1.51091 0
M  V30 6412 H 610.221 1.86075 -2.65606 0
M  V30 6413 H 610.006 0.574725 -3.87865 0
M  V30 6414 H 611.496 1.56487 -3.87171 0
M  V30 6415 N 611.933 1.52934 -0.380664 0
M  V30 6416 C 613.158 2.06363 0.207157 0
M  V30 6417 C 613.583 1.25122 1.4045 0
M  V30 6418 O 612.941 0.274062 1.79217 0
M  V30 6419 C 612.989 3.56162 0.563996 0
M  V30 6420 O 612.093 3.77552 1.65917 0
M  V30 6421 H 611.434 0.663468 0.0265859 0
M  V30 6422 H 613.964 1.9719 -0.545635 0
M  V30 6423 H 613.974 3.99453 0.830752 0
M  V30 6424 H 612.649 4.14732 -0.311427 0
M  V30 6425 H 611.226 3.46154 1.3868 0
M  V30 6426 N 613.412 0.11024 1.57214 0
M  V30 6427 C 614.642 -0.557025 1.98949 0
M  V30 6428 C 615.05 -1.61317 0.988606 0
M  V30 6429 O 614.393 -1.83679 -0.0279159 0
M  V30 6430 C 614.455 -1.24956 3.37085 0
M  V30 6431 C 614.119 -0.342398 4.55716 0
M  V30 6432 C 615.116 0.415511 5.18237 0
M  V30 6433 C 612.801 -0.256029 5.01647 0
M  V30 6434 C 614.795 1.24761 6.25071 0
M  V30 6435 C 612.482 0.579713 6.08344 0
M  V30 6436 C 613.48 1.33017 6.69922 0
M  V30 6437 O 613.168 2.15205 7.74559 0
M  V30 6438 H 612.9 -0.152792 0.658506 0
M  V30 6439 H 615.454 0.19076 2.04512 0
M  V30 6440 H 613.684 -2.04424 3.2825 0
M  V30 6441 H 615.373 -1.81286 3.63167 0
M  V30 6442 H 616.139 0.358605 4.83672 0
M  V30 6443 H 612.018 -0.829831 4.5347 0
M  V30 6444 H 615.562 1.83386 6.73064 0
M  V30 6445 H 611.459 0.638044 6.42339 0
M  V30 6446 H 612.227 2.08052 7.91617 0
M  V30 6447 N 614.89 -1.56749 -0.16351 0
M  V30 6448 C 616.136 -1.82704 -0.880168 0
M  V30 6449 C 616.469 -0.689311 -1.81555 0
M  V30 6450 O 615.744 0.308224 -1.92042 0
M  V30 6451 C 616.027 -3.19084 -1.66905 0
M  V30 6452 C 615.88 -4.43397 -0.756269 0
M  V30 6453 C 617.199 -3.52493 -2.63509 0
M  V30 6454 H 614.318 -0.664608 -0.318535 0
M  V30 6455 H 616.96 -1.89438 -0.146036 0
M  V30 6456 H 615.11 -3.13475 -2.2949 0
M  V30 6457 H 616.782 -4.61079 -0.14269 0
M  V30 6458 H 615.025 -4.33752 -0.0647944 0
M  V30 6459 H 615.696 -5.3539 -1.34393 0
M  V30 6460 H 618.172 -3.58606 -2.11047 0
M  V30 6461 H 617.048 -4.48979 -3.15767 0
M  V30 6462 H 617.309 -2.77597 -3.44082 0
M  V30 6463 N 616.368 0.432326 -1.51554 0
M  V30 6464 C 617.278 1.55023 -1.76082 0
M  V30 6465 C 618.294 1.61593 -0.645265 0
M  V30 6466 O 619.47 1.78742 -0.928086 0
M  V30 6467 C 616.535 2.90964 -1.88523 0
M  V30 6468 C 615.596 2.9447 -3.12388 0
M  V30 6469 C 614.829 4.23926 -3.24225 0
M  V30 6470 O 615.052 5.16576 -2.4188 0
M  V30 6471 O 613.986 4.33818 -4.17235 0
M  V30 6472 H 617.812 1.37238 -2.70923 0
M  V30 6473 H 615.397 0.615845 -1.36117 0
M  V30 6474 H 617.279 3.71633 -1.98662 0
M  V30 6475 H 615.954 3.08865 -0.9687 0
M  V30 6476 H 614.861 2.12737 -3.07723 0
M  V30 6477 H 616.194 2.81514 -4.03746 0
M  V30 6478 N 617.846 1.41785 0.688094 0
M  V30 6479 C 619.076 1.44705 1.47459 0
M  V30 6480 C 619.484 0.052916 1.89126 0
M  V30 6481 O 618.827 -0.939781 1.57841 0
M  V30 6482 C 618.889 2.29935 2.76352 0
M  V30 6483 C 618.553 3.77996 2.56843 0
M  V30 6484 C 619.55 4.69976 2.22304 0
M  V30 6485 C 617.235 4.2212 2.7225 0
M  V30 6486 C 619.229 6.04068 2.03421 0
M  V30 6487 C 616.916 5.56275 2.52985 0
M  V30 6488 C 617.914 6.47065 2.18621 0
M  V30 6489 O 617.602 7.78744 1.9953 0
M  V30 6490 H 617.334 0.494703 0.460701 0
M  V30 6491 H 619.888 1.86802 0.854057 0
M  V30 6492 H 618.118 1.82664 3.40839 0
M  V30 6493 H 619.807 2.24467 3.38186 0
M  V30 6494 H 620.573 4.37175 2.10008 0
M  V30 6495 H 616.452 3.51752 2.97979 0
M  V30 6496 H 619.996 6.74897 1.76523 0
M  V30 6497 H 615.893 5.88653 2.64873 0
M  V30 6498 H 616.661 7.89966 2.14234 0
M  V30 6499 N 619.324 -0.923095 1.27737 0
M  V30 6500 C 620.254 -2.04124 1.13383 0
M  V30 6501 C 621.235 -1.70066 0.0340658 0
M  V30 6502 O 622.42 -1.93068 0.209383 0
M  V30 6503 C 619.55 -3.3831 0.785097 0
M  V30 6504 C 618.504 -3.86496 1.8386 0
M  V30 6505 C 617.83 -5.1754 1.34373 0
M  V30 6506 C 619.13 -4.09381 3.24353 0
M  V30 6507 H 620.824 -2.1639 2.06919 0
M  V30 6508 H 618.37 -1.03976 0.996243 0
M  V30 6509 H 620.323 -4.16016 0.671485 0
M  V30 6510 H 619.047 -3.2607 -0.185969 0
M  V30 6511 H 617.706 -3.10987 1.9412 0
M  V30 6512 H 617.354 -5.01696 0.361989 0
M  V30 6513 H 617.054 -5.50751 2.04811 0
M  V30 6514 H 618.578 -5.97811 1.24315 0
M  V30 6515 H 619.992 -4.77641 3.17067 0
M  V30 6516 H 618.389 -4.53906 3.92542 0
M  V30 6517 H 619.459 -3.14515 3.69064 0
M  V30 6518 N 620.802 -1.09834 -1.13024 0
M  V30 6519 C 622.05 -0.835297 -1.8403 0
M  V30 6520 C 622.371 0.640944 -1.84165 0
M  V30 6521 O 621.641 1.46517 -1.30037 0
M  V30 6522 H 620.221 -0.306018 -0.681441 0
M  V30 6523 H 622.883 -1.38734 -1.36891 0
M  V30 6524 H 621.979 -1.19258 -2.88416 0
M  V30 6525 N 622.28 1.30327 -0.886154 0
M  V30 6526 C 623.243 2.26376 -0.358687 0
M  V30 6527 C 624.243 1.52845 0.499498 0
M  V30 6528 O 625.433 1.71483 0.306485 0
M  V30 6529 C 622.565 3.37379 0.488726 0
M  V30 6530 H 623.758 2.74547 -1.20681 0
M  V30 6531 H 621.311 1.41536 -0.663113 0
M  V30 6532 H 622.046 2.94526 1.35739 0
M  V30 6533 H 621.831 3.91897 -0.126003 0
M  V30 6534 H 623.321 4.08868 0.84952 0
M  V30 6535 N 623.758 0.647228 1.43697 0
M  V30 6536 C 625.035 0.0883758 1.954 0
M  V30 6537 C 625.415 -1.39006 1.58873 0
M  V30 6538 O 624.763 -2.11255 0.87083 0
M  V30 6539 C 624.973 0.328263 3.47453 0
M  V30 6540 C 626.321 0.230009 4.23977 0
M  V30 6541 O 627.345 0.260496 3.55246 0
M  V30 6542 O 626.204 0.148615 5.46298 0
M  V30 6543 H 623.298 -0.0130683 0.826897 0
M  V30 6544 H 625.844 0.72005 1.53666 0
M  V30 6545 H 624.616 1.3535 3.67146 0
M  V30 6546 H 624.239 -0.336772 3.96171 0
M  V30 6547 N 625.236 -1.5273 0.388769 0
M  V30 6548 C 626.466 -2.05693 -0.193397 0
M  V30 6549 C 626.874 -1.26038 -1.41107 0
M  V30 6550 O 626.217 -0.30001 -1.81234 0
M  V30 6551 C 626.279 -3.53962 -0.628561 0
M  V30 6552 C 625.943 -4.54519 0.475576 0
M  V30 6553 C 626.94 -5.02526 1.33281 0
M  V30 6554 C 624.625 -4.98174 0.642453 0
M  V30 6555 C 626.619 -5.92812 2.34205 0
M  V30 6556 C 624.306 -5.88262 1.65503 0
M  V30 6557 C 625.304 -6.35473 2.50325 0
M  V30 6558 O 624.992 -7.23781 3.49852 0
M  V30 6559 H 624.724 -0.675197 -0.0329395 0
M  V30 6560 H 627.278 -1.97835 0.552326 0
M  V30 6561 H 625.508 -3.59437 -1.42625 0
M  V30 6562 H 627.197 -3.89669 -1.13633 0
M  V30 6563 H 627.963 -4.6953 1.21519 0
M  V30 6564 H 623.842 -4.60999 -0.00805093 0
M  V30 6565 H 627.386 -6.29585 3.00447 0
M  V30 6566 H 623.283 -6.20672 1.77304 0
M  V30 6567 H 624.051 -7.4184 3.45855 0
M  V30 6568 N 626.714 -0.118576 -1.57153 0
M  V30 6569 C 627.677 0.817464 -2.14127 0
M  V30 6570 C 628.677 1.1949 -1.07604 0
M  V30 6571 O 629.867 1.12048 -1.33382 0
M  V30 6572 C 626.999 2.10541 -2.68115 0
M  V30 6573 H 628.192 0.322339 -2.98163 0
M  V30 6574 H 625.745 0.130655 -1.55753 0
M  V30 6575 H 626.48 2.64485 -1.87665 0
M  V30 6576 H 626.265 1.84425 -3.4602 0
M  V30 6577 H 627.755 2.77453 -3.12105 0
M  V30 6578 N 628.193 1.56834 0.155195 0
M  V30 6579 C 629.103 2.009 1.21146 0
M  V30 6580 C 630.119 0.923029 1.475 0
M  V30 6581 O 631.295 1.23189 1.59331 0
M  V30 6582 C 628.36 2.37378 2.52691 0
M  V30 6583 C 627.421 3.59883 2.34057 0
M  V30 6584 C 626.654 3.94612 3.59329 0
M  V30 6585 O 626.877 3.30104 4.65175 0
M  V30 6586 O 625.811 4.87895 3.52479 0
M  V30 6587 H 629.637 2.9105 0.867371 0
M  V30 6588 H 627.222 1.44916 0.363298 0
M  V30 6589 H 629.104 2.61737 3.3026 0
M  V30 6590 H 627.779 1.50385 2.86646 0
M  V30 6591 H 626.686 3.40722 1.54465 0
M  V30 6592 H 628.019 4.47468 2.0502 0
M  V30 6593 N 629.671 -0.424282 1.51781 0
M  V30 6594 C 631.082 -1.00368 1.57427 0
M  V30 6595 C 631.433 -1.91962 0.40558 0
M  V30 6596 O 630.558 -2.111 -0.47601 0
M  V30 6597 C 631.153 -1.82707 2.85313 0
M  V30 6598 C 629.712 -2.35675 2.93487 0
M  V30 6599 C 628.859 -1.1524 2.5222 0
M  V30 6600 H 631.81 -0.205064 1.5737 0
M  V30 6601 H 631.831 -2.68294 2.69812 0
M  V30 6602 H 631.343 -1.16017 3.70353 0
M  V30 6603 H 629.444 -3.05781 2.12906 0
M  V30 6604 H 629.557 -2.67578 3.97415 0
M  V30 6605 H 627.921 -1.50174 2.05718 0
M  V30 6606 H 628.704 -0.5014 3.39619 0
M  V30 6607 N 631.149 -1.42148 -0.680565 0
M  V30 6608 C 632.377 -1.45696 -1.46902 0
M  V30 6609 C 632.792 -0.0665858 -1.88683 0
M  V30 6610 O 632.149 0.917436 -1.57764 0
M  V30 6611 C 632.2 -2.37898 -2.72188 0
M  V30 6612 O 631.921 -3.71526 -2.32163 0
M  V30 6613 C 633.422 -2.50407 -3.65802 0
M  V30 6614 H 630.642 -0.495729 -0.45221 0
M  V30 6615 H 633.186 -1.866 -0.836709 0
M  V30 6616 H 631.341 -2.00263 -3.31622 0
M  V30 6617 H 631.755 -4.20849 -3.13027 0
M  V30 6618 H 633.229 -3.19056 -4.50452 0
M  V30 6619 H 633.706 -1.5401 -4.11312 0
M  V30 6620 H 634.312 -2.8874 -3.12265 0
M  V30 6621 N 632.627 0.916307 -1.28225 0
M  V30 6622 C 633.873 1.66794 -1.1641 0
M  V30 6623 C 634.228 1.90278 0.284986 0
M  V30 6624 O 633.521 1.49023 1.20427 0
M  V30 6625 C 633.715 3.03125 -1.8934 0
M  V30 6626 C 633.544 2.92947 -3.41192 0
M  V30 6627 C 632.314 2.9461 -4.10528 0
M  V30 6628 C 634.512 2.7121 -4.36978 0
M  V30 6629 N 632.494 2.74993 -5.48864 0
M  V30 6630 C 633.865 2.60411 -5.6266 0
M  V30 6631 C 635.92 2.56187 -4.26934 0
M  V30 6632 C 634.623 2.3612 -6.79441 0
M  V30 6633 C 636.649 2.33275 -5.43449 0
M  V30 6634 C 636.011 2.23228 -6.68093 0
M  V30 6635 H 632.11 0.616654 -0.480896 0
M  V30 6636 H 634.694 1.08237 -1.61842 0
M  V30 6637 H 632.865 3.59774 -1.46346 0
M  V30 6638 H 634.597 3.67294 -1.69932 0
M  V30 6639 H 631.352 3.0527 -3.62087 0
M  V30 6640 H 631.776 2.68284 -6.21573 0
M  V30 6641 H 636.418 2.62707 -3.31278 0
M  V30 6642 H 634.136 2.28339 -7.75169 0
M  V30 6643 H 637.722 2.22519 -5.37565 0
M  V30 6644 H 636.602 2.05741 -7.5673 0
M  V30 6645 N 634.105 1.10431 1.1244 0
M  V30 6646 C 635.053 0.747974 2.20246 0
M  V30 6647 C 636.047 -0.255848 1.67457 0
M  V30 6648 O 637.253 -0.116221 1.79624 0
M  V30 6649 H 633.628 0.223946 0.71788 0
M  V30 6650 H 635.599 1.6661 2.47556 0
M  V30 6651 C 634.348 0.195957 3.47147 0
M  V30 6652 H 633.671 0.959606 3.88113 0
M  V30 6653 H 635.111 -0.0153154 4.23997 0
M  V30 6654 C 633.57 -1.07132 3.19413 0
M  V30 6655 O 634.1 -2.15284 3.3914 0
M  V30 6656 N 632.306 -0.98994 2.73219 0
M  V30 6657 H 631.853 -0.109736 2.57366 0
M  V30 6658 H 631.811 -1.83856 2.55038 0
M  V30 6659 N 635.583 -1.29855 0.893053 0
M  V30 6660 C 636.513 -2.3035 0.382249 0
M  V30 6661 C 637.494 -1.61328 -0.539203 0
M  V30 6662 O 638.679 -1.88882 -0.451342 0
M  V30 6663 C 635.809 -3.45024 -0.396983 0
M  V30 6664 C 634.763 -4.258 0.433437 0
M  V30 6665 C 634.089 -5.32605 -0.472889 0
M  V30 6666 C 635.389 -4.94549 1.67984 0
M  V30 6667 H 637.083 -2.73325 1.22205 0
M  V30 6668 H 634.629 -1.314 0.589073 0
M  V30 6669 H 636.582 -4.14398 -0.765024 0
M  V30 6670 H 635.306 -3.00875 -1.2705 0
M  V30 6671 H 633.965 -3.58125 0.783723 0
M  V30 6672 H 633.613 -4.84702 -1.34435 0
M  V30 6673 H 633.313 -5.87547 0.0789958 0
M  V30 6674 H 634.837 -6.04832 -0.837269 0
M  V30 6675 H 636.251 -5.56395 1.38192 0
M  V30 6676 H 634.648 -5.59393 2.17254 0
M  V30 6677 H 635.718 -4.20215 2.41965 0
M  V30 6678 N 637.061 -0.65484 -1.43351 0
M  V30 6679 C 638.008 0.0357713 -2.30772 0
M  V30 6680 C 638.978 0.813035 -1.44841 0
M  V30 6681 O 640.163 0.789314 -1.73708 0
M  V30 6682 C 637.303 0.995084 -3.30442 0
M  V30 6683 C 636.416 0.21375 -4.31471 0
M  V30 6684 C 635.551 1.16701 -5.18222 0
M  V30 6685 C 634.59 0.376201 -6.10943 0
M  V30 6686 N 633.727 1.28113 -6.90313 0
M  V30 6687 H 638.567 -0.71559 -2.89281 0
M  V30 6688 H 636.104 -0.364645 -1.42509 0
M  V30 6689 H 638.062 1.5649 -3.86739 0
M  V30 6690 H 636.692 1.7133 -2.7358 0
M  V30 6691 H 635.744 -0.472377 -3.77456 0
M  V30 6692 H 637.056 -0.401103 -4.97185 0
M  V30 6693 H 636.21 1.8074 -5.79153 0
M  V30 6694 H 634.949 1.81577 -4.52638 0
M  V30 6695 H 633.954 -0.277534 -5.49099 0
M  V30 6696 H 635.179 -0.268178 -6.7857 0
M  V30 6697 H 633.125 1.91666 -6.27376 0
M  V30 6698 H 633.042 0.720879 -7.52555 0
M  V30 6699 H 634.31 1.90962 -7.55747 0
M  V30 6700 N 638.539 1.52521 -0.396863 0
M  V30 6701 C 639.816 1.94112 0.240842 0
M  V30 6702 C 640.196 1.33288 1.637 0
M  V30 6703 O 639.544 0.503901 2.22875 0
M  V30 6704 C 639.754 3.48033 0.259567 0
M  V30 6705 C 641.102 4.21822 0.484866 0
M  V30 6706 O 642.126 3.54579 0.339453 0
M  V30 6707 O 640.985 5.41042 0.770412 0
M  V30 6708 H 638.079 0.812973 0.151671 0
M  V30 6709 H 640.625 1.63572 -0.451918 0
M  V30 6710 H 639.397 3.84655 -0.718078 0
M  V30 6711 H 639.02 3.84899 0.996937 0
M  V30 6712 N 640.017 0.126909 1.57088 0
M  V30 6713 C 640.947 -0.816847 2.18746 0
M  V30 6714 C 641.928 -1.27161 1.12979 0
M  V30 6715 O 643.113 -1.33279 1.41246 0
M  V30 6716 C 640.243 -2.06398 2.79315 0
M  V30 6717 C 639.197 -1.74673 3.90735 0
M  V30 6718 C 638.523 -3.06482 4.38147 0
M  V30 6719 C 639.823 -1.0089 5.12463 0
M  V30 6720 H 641.517 -0.303032 2.97863 0
M  V30 6721 H 639.063 -0.144314 1.43275 0
M  V30 6722 H 641.016 -2.72885 3.2111 0
M  V30 6723 H 639.74 -2.60118 1.975 0
M  V30 6724 H 638.399 -1.10572 3.49527 0
M  V30 6725 H 638.047 -3.58152 3.5318 0
M  V30 6726 H 637.747 -2.86025 5.13287 0
M  V30 6727 H 639.271 -3.74073 4.82599 0
M  V30 6728 H 640.685 -1.57546 5.51228 0
M  V30 6729 H 639.082 -0.905006 5.93237 0
M  V30 6730 H 640.152 0.00297335 4.849 0
M  V30 6731 N 641.495 -1.56914 -0.146875 0
M  V30 6732 C 642.428 -1.93425 -1.21087 0
M  V30 6733 C 643.406 -0.800106 -1.41552 0
M  V30 6734 O 644.59 -1.05572 -1.56162 0
M  V30 6735 C 641.717 -2.20639 -2.56975 0
M  V30 6736 C 640.763 -3.43279 -2.53104 0
M  V30 6737 S 641.596 -4.96836 -1.99786 0
M  V30 6738 C 642.752 -5.27172 -3.37403 0
M  V30 6739 H 642.985 -2.8337 -0.899378 0
M  V30 6740 H 640.518 -1.50322 -0.352494 0
M  V30 6741 H 642.476 -2.36998 -3.35175 0
M  V30 6742 H 641.137 -1.31357 -2.85314 0
M  V30 6743 H 640.33 -3.59599 -3.53136 0
M  V30 6744 H 639.932 -3.26163 -1.83012 0
M  V30 6745 H 642.224 -5.20647 -4.33513 0
M  V30 6746 H 643.167 -6.28626 -3.25937 0
M  V30 6747 H 643.575 -4.54687 -3.34544 0
M  V30 6748 N 642.974 0.416227 -1.52004 0
M  V30 6749 C 644.22 1.16555 -1.6596 0
M  V30 6750 C 644.553 1.90347 -0.384906 0
M  V30 6751 O 643.828 1.84474 0.616405 0
M  V30 6752 C 644.111 2.1657 -2.87696 0
M  V30 6753 C 643.964 1.46722 -4.25197 0
M  V30 6754 C 645.283 3.17321 -3.04951 0
M  V30 6755 H 642.402 0.422369 -0.603965 0
M  V30 6756 H 645.044 0.452141 -1.84542 0
M  V30 6757 H 643.194 2.77411 -2.71985 0
M  V30 6758 H 644.866 0.89056 -4.52622 0
M  V30 6759 H 643.109 0.769263 -4.26925 0
M  V30 6760 H 643.78 2.19665 -5.0641 0
M  V30 6761 H 646.256 2.66552 -3.19514 0
M  V30 6762 H 645.132 3.84573 -3.91656 0
M  V30 6763 H 645.393 3.84643 -2.17951 0
M  V30 6764 N 644.452 1.42507 0.673017 0
M  V30 6765 C 645.382 1.48916 1.79851 0
M  V30 6766 C 646.363 0.345566 1.66553 0
M  V30 6767 O 647.548 0.560116 1.85947 0
M  V30 6768 C 644.678 1.39258 3.18158 0
M  V30 6769 C 643.632 2.51662 3.46194 0
M  V30 6770 C 642.958 2.27062 4.84094 0
M  V30 6771 C 644.258 3.93968 3.42909 0
M  V30 6772 H 645.952 2.43114 1.74745 0
M  V30 6773 H 643.498 1.17013 0.839288 0
M  V30 6774 H 645.451 1.42349 3.96629 0
M  V30 6775 H 644.175 0.415542 3.23946 0
M  V30 6776 H 642.834 2.47891 2.70084 0
M  V30 6777 H 642.482 1.27648 4.86534 0
M  V30 6778 H 642.182 3.02398 5.03815 0
M  V30 6779 H 643.706 2.31905 5.64847 0
M  V30 6780 H 645.12 3.99332 4.11347 0
M  V30 6781 H 643.517 4.6917 3.74165 0
M  V30 6782 H 644.587 4.20512 2.41449 0
M  V30 6783 N 645.93 -0.909495 1.28709 0
M  V30 6784 C 646.878 -2.03381 1.12866 0
M  V30 6785 C 647.872 -1.69335 0.0468074 0
M  V30 6786 O 649.078 -1.78819 0.205891 0
M  V30 6787 H 645.453 -0.666452 0.348348 0
M  V30 6788 H 647.424 -2.13885 2.08077 0
M  V30 6789 C 646.173 -3.38092 0.811742 0
M  V30 6790 H 645.496 -3.64786 1.63619 0
M  V30 6791 H 646.936 -4.17477 0.740869 0
M  V30 6792 C 645.395 -3.33395 -0.484679 0
M  V30 6793 O 645.925 -3.72089 -1.5137 0
M  V30 6794 N 644.131 -2.86491 -0.486961 0
M  V30 6795 H 643.678 -2.55199 0.350877 0
M  V30 6796 H 643.636 -2.83731 -1.3544 0
M  V30 6797 N 647.408 -1.11026 -1.11852 0
M  V30 6798 C 648.685 -0.768347 -1.79877 0
M  V30 6799 C 649.065 0.744261 -1.97545 0
M  V30 6800 O 648.413 1.67271 -1.55669 0
M  V30 6801 C 648.623 -1.52648 -3.13846 0
M  V30 6802 C 649.971 -1.70297 -3.88953 0
M  V30 6803 O 650.995 -1.49037 -3.23522 0
M  V30 6804 O 649.854 -2.05593 -5.06353 0
M  V30 6805 H 646.948 -0.277891 -0.778913 0
M  V30 6806 H 649.494 -1.21343 -1.18633 0
M  V30 6807 H 648.266 -2.55564 -2.96315 0
M  V30 6808 H 647.889 -1.07466 -3.82801 0
M  V30 6809 N 648.886 1.2938 -0.899927 0
M  V30 6810 C 650.132 1.9584 -0.526742 0
M  V30 6811 C 650.465 1.70774 0.924651 0
M  V30 6812 O 649.74 1.02084 1.65557 0
M  V30 6813 C 650.023 3.50638 -0.820062 0
M  V30 6814 C 649.876 3.85161 -2.32317 0
M  V30 6815 C 651.195 4.3903 -0.30671 0
M  V30 6816 H 648.314 0.711322 -0.192848 0
M  V30 6817 H 650.956 1.52992 -1.12665 0
M  V30 6818 H 649.106 3.87265 -0.309491 0
M  V30 6819 H 650.778 3.58477 -2.9033 0
M  V30 6820 H 649.021 3.32696 -2.78381 0
M  V30 6821 H 649.692 4.93204 -2.47898 0
M  V30 6822 H 652.168 4.09396 -0.743908 0
M  V30 6823 H 651.044 5.46226 -0.541144 0
M  V30 6824 H 651.305 4.34937 0.792588 0
M  V30 6825 N 650.364 0.662433 1.43002 0
M  V30 6826 C 651.594 0.187343 2.05749 0
M  V30 6827 C 652.002 -1.15582 1.49791 0
M  V30 6828 O 651.345 -1.72651 0.627487 0
M  V30 6829 C 651.407 0.0316493 3.59486 0
M  V30 6830 C 651.071 1.30156 4.38073 0
M  V30 6831 C 652.068 2.23234 4.69535 0
M  V30 6832 C 649.753 1.54572 4.77926 0
M  V30 6833 C 651.747 3.39012 5.39768 0
M  V30 6834 C 649.434 2.70641 5.47902 0
M  V30 6835 C 650.432 3.62687 5.78746 0
M  V30 6836 O 650.12 4.76728 6.47291 0
M  V30 6837 H 649.852 0.0915214 0.669776 0
M  V30 6838 H 652.406 0.905982 1.8434 0
M  V30 6839 H 650.636 -0.742451 3.79506 0
M  V30 6840 H 652.325 -0.401977 4.03905 0
M  V30 6841 H 653.091 2.05616 4.39257 0
M  V30 6842 H 648.97 0.83804 4.53319 0
M  V30 6843 H 652.514 4.10877 5.63761 0
M  V30 6844 H 648.411 2.88189 5.77596 0
M  V30 6845 H 649.179 4.76113 6.65777 0
M  V30 6846 N 651.842 -1.52309 0.404946 0
M  V30 6847 C 653.258 -1.59503 0.0556255 0
M  V30 6848 C 653.458 -1.41805 -1.43156 0
M  V30 6849 O 652.514 -1.2429 -2.19792 0
M  V30 6850 C 653.827 -2.95687 0.546801 0
M  V30 6851 C 655.375 -3.08909 0.504413 0
M  V30 6852 C 655.85 -4.47566 0.97203 0
M  V30 6853 N 657.341 -4.53795 0.928679 0
M  V30 6854 C 658.076 -5.59346 1.26174 0
M  V30 6855 N 657.572 -6.72469 1.66604 0
M  V30 6856 N 659.365 -5.49532 1.18198 0
M  V30 6857 H 651.516 -1.6206 1.37296 0
M  V30 6858 H 653.779 -0.762161 0.563751 0
M  V30 6859 H 653.485 -3.13905 1.58609 0
M  V30 6860 H 653.359 -3.77172 -0.0457905 0
M  V30 6861 H 655.746 -2.90378 -0.525819 0
M  V30 6862 H 655.827 -2.2934 1.13301 0
M  V30 6863 H 655.471 -4.6684 2.00057 0
M  V30 6864 H 655.401 -5.25625 0.320292 0
M  V30 6865 H 657.892 -3.72588 0.631369 0
M  V30 6866 H 658.205 -7.48993 1.9034 0
M  V30 6867 H 656.55 -6.73761 1.70504 0
M  V30 6868 H 659.741 -4.60038 0.865011 0
M  V30 6869 H 659.914 -6.31687 1.44485 0
M  V30 6870 N 653.32 -0.135238 -1.57019 0
M  V30 6871 C 654.566 0.519563 -1.96032 0
M  V30 6872 C 654.899 1.65284 -1.01955 0
M  V30 6873 O 654.174 1.94408 -0.059727 0
M  V30 6874 C 654.457 1.0369 -3.44848 0
M  V30 6875 C 654.31 -0.0940754 -4.49702 0
M  V30 6876 C 655.629 1.92254 -3.95887 0
M  V30 6877 H 652.748 0.18739 -0.712779 0
M  V30 6878 H 655.39 -0.214086 -1.8879 0
M  V30 6879 H 653.54 1.66209 -3.5115 0
M  V30 6880 H 655.212 -0.73 -4.55487 0
M  V30 6881 H 653.455 -0.754924 -4.27181 0
M  V30 6882 H 654.126 0.309419 -5.51132 0
M  V30 6883 H 656.602 1.39581 -3.9199 0
M  V30 6884 H 655.478 2.25364 -5.00502 0
M  V30 6885 H 655.739 2.85513 -3.37543 0
M  V30 6886 N 654.798 1.5699 0.138552 0
M  V30 6887 C 655.731 1.94064 1.2006 0
M  V30 6888 C 656.709 0.807601 1.41126 0
M  V30 6889 O 657.893 1.06399 1.556 0
M  V30 6890 C 655.02 2.21999 2.55801 0
M  V30 6891 C 654.066 3.44617 2.5128 0
M  V30 6892 S 654.899 4.97888 1.97149 0
M  V30 6893 C 656.055 5.28954 3.34602 0
M  V30 6894 H 656.288 2.83843 0.884337 0
M  V30 6895 H 653.821 1.50507 0.344517 0
M  V30 6896 H 655.779 2.38772 3.33914 0
M  V30 6897 H 654.44 1.32869 2.84613 0
M  V30 6898 H 653.633 3.61466 3.51224 0
M  V30 6899 H 653.235 3.27129 1.8128 0
M  V30 6900 H 655.527 5.22938 4.30745 0
M  V30 6901 H 656.47 6.30346 3.22598 0
M  V30 6902 H 656.878 4.56455 3.32128 0
M  V30 6903 N 656.276 -0.40816 1.52223 0
M  V30 6904 C 657.239 -1.48 1.7501 0
M  V30 6905 C 658.239 -1.48367 0.619996 0
M  V30 6906 O 659.429 -1.49874 0.887881 0
M  V30 6907 C 656.561 -2.87403 1.83336 0
M  V30 6908 H 657.754 -1.29086 2.70697 0
M  V30 6909 H 655.307 -0.638715 1.42654 0
M  V30 6910 H 656.042 -3.11686 0.895677 0
M  V30 6911 H 655.827 -2.8854 2.65494 0
M  V30 6912 H 657.317 -3.65103 2.02705 0
M  V30 6913 N 657.755 -1.42862 -0.66545 0
M  V30 6914 C 659.001 -1.44043 -1.42757 0
M  V30 6915 C 659.334 -0.0599629 -1.94107 0
M  V30 6916 O 658.609 0.917286 -1.71511 0
M  V30 6917 C 658.892 -2.47266 -2.61786 0
M  V30 6918 C 658.745 -3.94539 -2.16007 0
M  V30 6919 C 660.064 -2.47365 -3.64003 0
M  V30 6920 H 657.183 -0.524506 -0.517748 0
M  V30 6921 H 659.825 -1.74335 -0.755466 0
M  V30 6922 H 657.975 -2.21565 -3.19126 0
M  V30 6923 H 659.647 -4.31254 -1.63762 0
M  V30 6924 H 657.89 -4.07957 -1.47491 0
M  V30 6925 H 658.561 -4.62357 -3.01546 0
M  V30 6926 H 661.037 -2.70243 -3.16399 0
M  V30 6927 H 659.913 -3.21552 -4.44854 0
M  V30 6928 H 660.174 -1.50299 -4.15767 0
M  V30 6929 N 659.233 0.902656 -1.29189 0
M  V30 6930 C 660.51 1.63296 -1.07674 0
M  V30 6931 C 660.89 2.07649 0.380137 0
M  V30 6932 O 660.238 1.82997 1.36837 0
M  V30 6933 C 660.448 2.81603 -2.06158 0
M  V30 6934 C 661.796 3.52359 -2.36914 0
M  V30 6935 O 662.82 2.91767 -2.04329 0
M  V30 6936 O 661.679 4.61586 -2.92576 0
M  V30 6937 H 658.773 0.716889 -0.41231 0
M  V30 6938 H 661.319 0.950984 -1.4055 0
M  V30 6939 H 660.091 2.46004 -3.04299 0
M  V30 6940 H 659.714 3.57508 -1.73993 0
M  V30 6941 N 660.711 1.11618 1.11262 0
M  V30 6942 C 661.674 0.779447 2.15539 0
M  V30 6943 C 662.674 -0.202081 1.59525 0
M  V30 6944 O 663.864 0.0226356 1.74185 0
M  V30 6945 C 660.996 0.15674 3.40539 0
M  V30 6946 H 662.189 1.70324 2.4684 0
M  V30 6947 H 659.742 0.918298 1.26479 0
M  V30 6948 H 660.477 -0.777186 3.1485 0
M  V30 6949 H 660.262 0.863308 3.82478 0
M  V30 6950 H 661.752 -0.062661 4.17553 0
M  V30 6951 N 662.189 -1.289 0.906776 0
M  V30 6952 C 663.119 -2.29932 0.406659 0
M  V30 6953 C 664.1 -1.6189 -0.522061 0
M  V30 6954 O 665.285 -1.8935 -0.431283 0
M  V30 6955 C 662.415 -3.45425 -0.360366 0
M  V30 6956 C 661.369 -4.25316 0.478574 0
M  V30 6957 C 660.695 -5.33076 -0.416373 0
M  V30 6958 C 661.995 -4.92739 1.7322 0
M  V30 6959 H 663.689 -2.72013 1.25097 0
M  V30 6960 H 661.235 -1.30768 0.602977 0
M  V30 6961 H 663.188 -4.15186 -0.721029 0
M  V30 6962 H 661.912 -3.02206 -1.23852 0
M  V30 6963 H 660.571 -3.57273 0.821662 0
M  V30 6964 H 660.219 -4.86101 -1.29287 0
M  V30 6965 H 659.919 -5.8743 0.141309 0
M  V30 6966 H 661.443 -6.05686 -0.773072 0
M  V30 6967 H 662.857 -5.54898 1.44086 0
M  V30 6968 H 661.254 -5.57057 2.23175 0
M  V30 6969 H 662.324 -4.17625 2.46408 0
M  V30 6970 N 663.667 -0.670007 -1.42649 0
M  V30 6971 C 664.63 0.00204659 -2.292 0
M  V30 6972 C 665.63 0.733817 -1.4308 0
M  V30 6973 O 666.82 0.57254 -1.64522 0
M  V30 6974 C 663.952 1.01359 -3.25483 0
M  V30 6975 H 665.145 -0.759696 -2.90118 0
M  V30 6976 H 662.698 -0.432105 -1.50208 0
M  V30 6977 H 663.433 1.80399 -2.69493 0
M  V30 6978 H 663.218 0.492323 -3.88997 0
M  V30 6979 H 664.708 1.4824 -3.90403 0
M  V30 6980 N 665.145 1.52092 -0.413018 0
M  V30 6981 C 666.37 2.06756 0.163338 0
M  V30 6982 C 666.795 1.28073 1.37764 0
M  V30 6983 O 666.153 0.312015 1.78595 0
M  V30 6984 C 666.201 3.57278 0.488322 0
M  V30 6985 O 665.305 3.80986 1.57871 0
M  V30 6986 H 664.646 0.663882 0.0125068 0
M  V30 6987 H 667.176 1.95988 -0.587339 0
M  V30 6988 H 667.186 4.01125 0.745836 0
M  V30 6989 H 665.861 4.13978 -0.399327 0
M  V30 6990 H 664.438 3.49017 1.31306 0
M  V30 6991 N 666.623 0.143563 1.56945 0
M  V30 6992 C 667.848 -0.518701 2.00809 0
M  V30 6993 C 668.273 -1.5785 1.02298 0
M  V30 6994 O 667.631 -1.813 -0.0017839 0
M  V30 6995 C 667.679 -1.09929 3.43436 0
M  V30 6996 O 666.783 -2.21425 3.47915 0
M  V30 6997 H 666.124 -0.127215 0.6517 0
M  V30 6998 H 668.654 0.239283 2.03196 0
M  V30 6999 H 668.664 -1.4288 3.82164 0
M  V30 7000 H 667.339 -0.323162 4.14643 0
M  V30 7001 H 665.916 -1.89728 3.21026 0
M  V30 7002 N 668.101 -1.57061 -0.130224 0
M  V30 7003 C 669.051 -1.95941 -1.16582 0
M  V30 7004 C 670.035 -0.832858 -1.37667 0
M  V30 7005 O 671.227 -1.09647 -1.38948 0
M  V30 7006 C 668.356 -2.35777 -2.49528 0
M  V30 7007 C 667.442 -3.5504 -2.31964 0
M  V30 7008 N 667.833 -4.71071 -1.84189 0
M  V30 7009 C 666.131 -3.60453 -2.62659 0
M  V30 7010 C 666.832 -5.53128 -1.80068 0
M  V30 7011 N 665.808 -4.95303 -2.24001 0
M  V30 7012 H 669.61 -2.83117 -0.788806 0
M  V30 7013 H 667.124 -1.58842 -0.3381 0
M  V30 7014 H 669.121 -2.61843 -3.24413 0
M  V30 7015 H 667.781 -1.49961 -2.87996 0
M  V30 7016 H 668.792 -4.94504 -1.53903 0
M  V30 7017 H 665.469 -2.85217 -3.0489 0
M  V30 7018 H 666.859 -6.56182 -1.4448 0
M  V30 7019 N 669.579 0.400081 -1.52437 0
M  V30 7020 C 670.99 0.97851 -1.59003 0
M  V30 7021 C 671.341 1.91293 -0.436068 0
M  V30 7022 O 670.466 2.1183 0.442365 0
M  V30 7023 C 671.061 1.78145 -2.88184 0
M  V30 7024 C 669.62 2.30976 -2.97199 0
M  V30 7025 C 668.767 1.11212 -2.54022 0
M  V30 7026 H 671.718 0.180002 -1.57676 0
M  V30 7027 H 671.739 2.63968 -2.74046 0
M  V30 7028 H 671.251 1.1011 -3.72152 0
M  V30 7029 H 669.352 3.02355 -2.17744 0
M  V30 7030 H 669.465 2.61221 -4.01622 0
M  V30 7031 H 667.829 1.46882 -2.08081 0
M  V30 7032 H 668.612 0.447307 -3.40373 0
M  V30 7033 N 671.057 1.43213 0.657864 0
M  V30 7034 C 671.987 1.50815 1.78262 0
M  V30 7035 C 672.968 0.363211 1.66177 0
M  V30 7036 O 674.153 0.579806 1.85343 0
M  V30 7037 C 671.283 1.42625 3.16663 0
M  V30 7038 C 670.237 2.5532 3.43505 0
M  V30 7039 C 669.563 2.32184 4.81658 0
M  V30 7040 C 670.863 3.97583 3.38711 0
M  V30 7041 H 672.557 2.44954 1.72157 0
M  V30 7042 H 670.103 1.17896 0.82683 0
M  V30 7043 H 672.056 1.46548 3.95097 0
M  V30 7044 H 670.78 0.449877 3.23487 0
M  V30 7045 H 669.439 2.50742 2.6744 0
M  V30 7046 H 669.087 1.32801 4.85153 0
M  V30 7047 H 668.787 3.07724 5.00579 0
M  V30 7048 H 670.311 2.37883 5.62356 0
M  V30 7049 H 671.725 4.03673 4.07089 0
M  V30 7050 H 670.122 4.73112 3.69168 0
M  V30 7051 H 671.192 4.23049 2.36976 0
M  V30 7052 N 672.536 -0.895792 1.29666 0
M  V30 7053 C 673.761 -1.68528 1.20885 0
M  V30 7054 C 674.186 -1.8673 -0.226595 0
M  V30 7055 O 673.544 -1.39044 -1.16347 0
M  V30 7056 C 673.592 -3.04512 1.93144 0
M  V30 7057 O 672.696 -3.92963 1.25115 0
M  V30 7058 H 672.037 -0.515371 0.418675 0
M  V30 7059 H 674.567 -1.11878 1.71302 0
M  V30 7060 H 674.577 -3.54628 2.0175 0
M  V30 7061 H 673.252 -2.90582 2.97548 0
M  V30 7062 H 671.829 -3.51399 1.24794 0
M  V30 7063 N 674.014 -1.12206 -1.10668 0
M  V30 7064 C 675.242 -0.898635 -1.86366 0
M  V30 7065 C 675.657 0.551991 -1.80551 0
M  V30 7066 O 675.014 1.38152 -1.19249 0
M  V30 7067 C 675.065 -1.36199 -3.34861 0
M  V30 7068 O 674.786 -2.75576 -3.40573 0
M  V30 7069 C 676.287 -1.17515 -4.2744 0
M  V30 7070 H 673.507 -0.321281 -0.589084 0
M  V30 7071 H 676.051 -1.49142 -1.39918 0
M  V30 7072 H 674.206 -0.81249 -3.78784 0
M  V30 7073 H 674.62 -2.95851 -4.33096 0
M  V30 7074 H 676.094 -1.54827 -5.29842 0
M  V30 7075 H 676.571 -0.115486 -4.39048 0
M  V30 7076 H 677.177 -1.71203 -3.89319 0
M  V30 7077 N 675.492 1.28418 -0.913599 0
M  V30 7078 C 676.903 1.77024 -0.593237 0
M  V30 7079 C 677.254 1.74779 0.891441 0
M  V30 7080 O 676.379 1.34237 1.69733 0
M  V30 7081 C 676.974 3.21456 -1.07011 0
M  V30 7082 C 675.533 3.67786 -0.800664 0
M  V30 7083 C 674.68 2.48185 -1.23691 0
M  V30 7084 H 677.631 1.14883 -1.09487 0
M  V30 7085 H 677.652 3.78269 -0.411481 0
M  V30 7086 H 677.164 3.23058 -2.1507 0
M  V30 7087 H 675.265 3.71644 0.266725 0
M  V30 7088 H 675.378 4.57934 -1.4083 0
M  V30 7089 H 673.742 2.46116 -0.655655 0
M  V30 7090 H 674.525 2.52506 -2.32585 0
M  V30 7091 N 676.97 0.677563 1.42291 0
M  V30 7092 C 677.933 0.0101085 2.29198 0
M  V30 7093 C 678.933 -0.726219 1.43467 0
M  V30 7094 O 680.123 -0.563807 1.64824 0
M  V30 7095 C 677.255 -0.996316 3.26016 0
M  V30 7096 H 678.448 0.775071 2.89711 0
M  V30 7097 H 676.001 0.440065 1.49977 0
M  V30 7098 H 676.736 -1.78967 2.70446 0
M  V30 7099 H 676.521 -0.471687 3.89253 0
M  V30 7100 H 678.011 -1.46167 3.91184 0
M  V30 7101 N 678.448 -1.51871 0.421078 0
M  V30 7102 C 679.673 -2.0684 -0.152371 0
M  V30 7103 C 680.098 -1.28802 -1.37083 0
M  V30 7104 O 679.456 -0.321482 -1.78427 0
M  V30 7105 C 679.504 -3.57532 -0.469368 0
M  V30 7106 O 678.608 -3.81818 -1.55848 0
M  V30 7107 H 677.949 -0.663939 -0.00898586 0
M  V30 7108 H 680.479 -1.95674 0.597724 0
M  V30 7109 H 680.489 -4.01515 -0.724553 0
M  V30 7110 H 679.164 -4.13761 0.421276 0
M  V30 7111 H 677.741 -3.49709 -1.29453 0
M  V30 7112 N 679.926 -0.151884 -1.56866 0
M  V30 7113 C 680.836 0.798876 -2.20579 0
M  V30 7114 C 681.852 1.268 -1.19154 0
M  V30 7115 O 683.028 1.32418 -1.51748 0
M  V30 7116 C 680.093 2.01861 -2.81874 0
M  V30 7117 C 679.154 1.59825 -3.9844 0
M  V30 7118 C 678.387 2.75984 -4.56802 0
M  V30 7119 O 678.61 3.92331 -4.14044 0
M  V30 7120 O 677.544 2.51175 -5.46987 0
M  V30 7121 H 681.37 0.2865 -3.02346 0
M  V30 7122 H 678.955 0.0753806 -1.4921 0
M  V30 7123 H 680.837 2.73235 -3.20813 0
M  V30 7124 H 679.512 2.52042 -2.03117 0
M  V30 7125 H 678.419 0.854601 -3.64208 0
M  V30 7126 H 679.752 1.14355 -4.78731 0
M  V30 7127 N 681.404 1.57128 0.121893 0
M  V30 7128 C 682.653 1.83888 0.828748 0
M  V30 7129 C 682.966 0.737087 1.81181 0
M  V30 7130 O 684.172 0.891007 2.56463 0
M  V30 7131 C 682.628 3.26014 1.52455 0
M  V30 7132 C 682.236 4.44195 0.58263 0
M  V30 7133 C 683.98 3.62025 2.21671 0
M  V30 7134 C 681.887 5.77349 1.28149 0
M  V30 7135 H 680.817 0.685856 0.313238 0
M  V30 7136 H 683.468 1.83319 0.0814851 0
M  V30 7137 H 681.85 3.21044 2.31834 0
M  V30 7138 H 683.024 4.60457 -0.177729 0
M  V30 7139 H 681.339 4.164 -0.00241228 0
M  V30 7140 H 683.936 4.58776 2.74643 0
M  V30 7141 H 684.279 2.89315 2.99337 0
M  V30 7142 H 684.812 3.68767 1.49184 0
M  V30 7143 H 681.551 6.53221 0.546189 0
M  V30 7144 H 681.071 5.64978 2.01394 0
M  V30 7145 H 682.75 6.21006 1.81549 0
M  V30 7146 N 682.882 -0.391992 1.52647 0
M  V30 7147 C 683.83 -1.4991 1.77848 0
M  V30 7148 C 684.824 -1.56587 0.646282 0
M  V30 7149 O 686.03 -1.59789 0.828698 0
M  V30 7150 H 682.405 -0.498883 0.56269 0
M  V30 7151 H 684.376 -1.25847 2.70564 0
M  V30 7152 C 683.125 -2.87081 1.96163 0
M  V30 7153 H 682.448 -2.82692 2.82711 0
M  V30 7154 H 683.888 -3.63792 2.17787 0
M  V30 7155 C 682.347 -3.28822 0.733348 0
M  V30 7156 O 682.877 -4.01598 -0.0906481 0
M  V30 7157 N 681.083 -2.85068 0.564317 0
M  V30 7158 H 680.63 -2.26012 1.23598 0
M  V30 7159 H 680.588 -3.13355 -0.256166 0
M  V30 7160 N 684.36 -1.4356 -0.65026 0
M  V30 7161 C 685.588 -1.48779 -1.43779 0
M  V30 7162 C 686.003 -0.106593 -1.88499 0
M  V30 7163 O 685.36 0.883766 -1.59674 0
M  V30 7164 C 685.411 -2.43618 -2.67081 0
M  V30 7165 O 685.132 -3.76367 -2.24231 0
M  V30 7166 C 686.633 -2.5811 -3.60409 0
M  V30 7167 H 683.853 -0.50521 -0.441593 0
M  V30 7168 H 686.397 -1.88332 -0.796941 0
M  V30 7169 H 684.552 -2.07253 -3.273 0
M  V30 7170 H 684.966 -4.27394 -3.0403 0
M  V30 7171 H 686.44 -3.28539 -4.43583 0
M  V30 7172 H 686.917 -1.627 -4.07953 0
M  V30 7173 H 687.523 -2.95298 -3.0607 0
M  V30 7174 N 685.838 0.888903 -1.30139 0
M  V30 7175 C 687.249 1.45578 -1.16893 0
M  V30 7176 C 687.6 1.94825 0.231866 0
M  V30 7177 O 686.725 1.84661 1.12824 0
M  V30 7178 C 687.32 2.646 -2.11595 0
M  V30 7179 C 685.879 3.17389 -2.02339 0
M  V30 7180 C 685.026 1.90081 -2.01902 0
M  V30 7181 H 687.977 0.69921 -1.42467 0
M  V30 7182 H 687.998 3.40687 -1.69449 0
M  V30 7183 H 687.51 2.28726 -3.13538 0
M  V30 7184 H 685.611 3.5793 -1.03523 0
M  V30 7185 H 685.724 3.80955 -2.90534 0
M  V30 7186 H 684.088 2.08246 -1.46648 0
M  V30 7187 H 684.871 1.5647 -3.05568 0
M  V30 7188 N 687.317 1.12792 1.10072 0
M  V30 7189 C 688.28 0.802264 2.14701 0
M  V30 7190 C 689.28 -0.18515 1.59731 0
M  V30 7191 O 690.47 0.041109 1.74151 0
M  V30 7192 C 687.602 0.19285 3.40354 0
M  V30 7193 H 688.795 1.72932 2.45019 0
M  V30 7194 H 686.348 0.931662 1.25498 0
M  V30 7195 H 687.083 -0.743748 3.15656 0
M  V30 7196 H 686.868 0.903827 3.81541 0
M  V30 7197 H 688.358 -0.0183704 4.17596 0
M  V30 7198 N 688.795 -1.27931 0.920396 0
M  V30 7199 C 689.727 -2.26175 0.371169 0
M  V30 7200 C 690.74 -1.55122 -0.494065 0
M  V30 7201 O 691.929 -1.75825 -0.30787 0
M  V30 7202 C 689.029 -3.35376 -0.487481 0
M  V30 7203 C 688.202 -4.35943 0.356772 0
M  V30 7204 C 687.261 -5.24374 -0.438042 0
M  V30 7205 O 686.287 -5.68998 0.151715 0
M  V30 7206 N 687.489 -5.53823 -1.73956 0
M  V30 7207 H 690.254 -2.73938 1.21564 0
M  V30 7208 H 687.815 -1.41482 0.787047 0
M  V30 7209 H 689.807 -3.91476 -1.02609 0
M  V30 7210 H 688.377 -2.87269 -1.23269 0
M  V30 7211 H 687.597 -3.7921 1.07672 0
M  V30 7212 H 688.885 -5.0015 0.934206 0
M  V30 7213 H 688.283 -5.19413 -2.24114 0
M  V30 7214 H 686.84 -6.12653 -2.22486 0
M  V30 7215 N 690.273 -0.685099 -1.4193 0
M  V30 7216 C 691.522 -0.208816 -2.00616 0
M  V30 7217 C 691.835 1.19506 -1.54847 0
M  V30 7218 O 693.041 1.76826 -2.06021 0
M  V30 7219 C 691.497 -0.322446 -3.58453 0
M  V30 7220 C 691.105 -1.73102 -4.13206 0
M  V30 7221 C 692.849 0.0945979 -4.24395 0
M  V30 7222 C 690.756 -1.79687 -5.63442 0
M  V30 7223 H 689.686 -0.0743092 -0.750329 0
M  V30 7224 H 692.337 -0.851778 -1.62533 0
M  V30 7225 H 690.719 0.388588 -3.94089 0
M  V30 7226 H 691.893 -2.46997 -3.8901 0
M  V30 7227 H 690.208 -2.09682 -3.59753 0
M  V30 7228 H 692.805 0.0656937 -5.3466 0
M  V30 7229 H 693.148 1.1316 -4.00625 0
M  V30 7230 H 693.681 -0.56579 -3.93756 0
M  V30 7231 H 690.42 -2.81404 -5.92024 0
M  V30 7232 H 689.94 -1.10162 -5.89597 0
M  V30 7233 H 691.619 -1.55498 -6.28036 0
M  V30 7234 N 691.751 1.51645 -0.429126 0
M  V30 7235 C 692.976 2.06917 0.141399 0
M  V30 7236 C 693.401 1.29527 1.36398 0
M  V30 7237 O 692.759 0.33094 1.78254 0
M  V30 7238 C 692.807 3.57776 0.4504 0
M  V30 7239 O 691.911 3.82639 1.53821 0
M  V30 7240 H 691.252 0.663978 0.0054647 0
M  V30 7241 H 693.782 1.95355 -0.608093 0
M  V30 7242 H 693.792 4.01894 0.703249 0
M  V30 7243 H 692.467 4.13532 -0.443213 0
M  V30 7244 H 691.044 3.5039 1.27597 0
M  V30 7245 N 693.229 0.160201 1.56784 0
M  V30 7246 C 694.139 -0.787167 2.21 0
M  V30 7247 C 695.155 -1.26167 1.19825 0
M  V30 7248 O 696.331 -1.31611 1.52448 0
M  V30 7249 C 693.396 -2.00364 2.8294 0
M  V30 7250 C 692.457 -1.5771 3.99282 0
M  V30 7251 C 691.69 -2.73558 4.58259 0
M  V30 7252 O 691.913 -3.90129 4.16119 0
M  V30 7253 O 690.847 -2.48271 5.48311 0
M  V30 7254 H 694.673 -0.270462 3.02493 0
M  V30 7255 H 692.258 -0.0674666 1.49248 0
M  V30 7256 H 694.14 -2.71529 3.22257 0
M  V30 7257 H 692.815 -2.50961 2.04451 0
M  V30 7258 H 691.722 -0.835274 3.64656 0
M  V30 7259 H 693.055 -1.11815 4.79331 0
M  V30 7260 N 694.707 -1.5719 -0.113559 0
M  V30 7261 C 695.637 -2.03772 -1.14013 0
M  V30 7262 C 696.618 -0.923176 -1.42869 0
M  V30 7263 O 697.803 -1.19325 -1.53216 0
M  V30 7264 C 694.933 -2.44663 -2.4649 0
M  V30 7265 C 693.887 -3.59612 -2.32085 0
M  V30 7266 C 693.213 -3.8642 -3.69573 0
M  V30 7267 C 694.513 -4.91149 -1.7768 0
M  V30 7268 H 696.207 -2.89785 -0.752665 0
M  V30 7269 H 693.753 -1.39412 -0.360609 0
M  V30 7270 H 695.706 -2.75857 -3.18561 0
M  V30 7271 H 694.43 -1.55628 -2.87137 0
M  V30 7272 H 693.089 -3.28636 -1.62461 0
M  V30 7273 H 692.737 -2.94581 -4.07715 0
M  V30 7274 H 692.437 -4.63797 -3.60786 0
M  V30 7275 H 693.961 -4.2007 -4.4314 0
M  V30 7276 H 695.375 -5.20843 -2.39574 0
M  V30 7277 H 693.772 -5.72562 -1.79701 0
M  V30 7278 H 694.842 -4.79301 -0.734776 0
M  V30 7279 N 696.185 0.383891 -1.52853 0
M  V30 7280 C 697.432 1.12842 -1.68146 0
M  V30 7281 C 697.76 1.89823 -0.423954 0
M  V30 7282 O 697.015 1.86475 0.593765 0
M  V30 7283 C 697.314 2.12881 -2.87082 0
M  V30 7284 C 696.98 1.52519 -4.24322 0
M  V30 7285 C 695.642 1.35783 -4.61645 0
M  V30 7286 C 697.994 1.0868 -5.09743 0
M  V30 7287 C 695.322 0.737643 -5.82044 0
M  V30 7288 C 697.674 0.480699 -6.30771 0
M  V30 7289 C 696.338 0.300681 -6.66822 0
M  V30 7290 H 695.608 0.412917 -0.615289 0
M  V30 7291 H 698.255 0.412416 -1.87006 0
M  V30 7292 H 696.56 2.90719 -2.62659 0
M  V30 7293 H 698.257 2.70408 -2.96109 0
M  V30 7294 H 694.847 1.66534 -3.94923 0
M  V30 7295 H 699.031 1.2041 -4.81472 0
M  V30 7296 H 694.287 0.586415 -6.08581 0
M  V30 7297 H 698.461 0.132733 -6.96273 0
M  V30 7298 H 696.088 -0.181966 -7.59982 0
M  V30 7299 N 697.663 1.43903 0.642637 0
M  V30 7300 C 698.94 1.36556 1.40043 0
M  V30 7301 C 699.32 0.0185588 2.11092 0
M  V30 7302 O 698.668 -0.998438 2.05532 0
M  V30 7303 C 698.878 2.55596 2.37638 0
M  V30 7304 C 700.226 2.99153 3.01318 0
M  V30 7305 O 701.25 2.55719 2.47965 0
M  V30 7306 O 700.109 3.74427 3.98078 0
M  V30 7307 H 697.203 0.540189 0.626198 0
M  V30 7308 H 699.749 1.55971 0.668657 0
M  V30 7309 H 698.521 3.45256 1.84158 0
M  V30 7310 H 698.144 2.38334 3.18249 0
M  V30 7311 N 699.141 -0.881989 1.30609 0
M  V30 7312 C 700.104 -1.96957 1.1722 0
M  V30 7313 C 701.104 -1.60472 0.102598 0
M  V30 7314 O 702.294 -1.70628 0.350943 0
M  V30 7315 C 699.426 -3.31463 0.796572 0
M  V30 7316 H 700.619 -2.10262 2.13846 0
M  V30 7317 H 698.172 -1.06877 1.14048 0
M  V30 7318 H 698.907 -3.23859 -0.169053 0
M  V30 7319 H 698.692 -3.59314 1.56959 0
M  V30 7320 H 700.182 -4.11233 0.72645 0
M  V30 7321 N 700.619 -1.13374 -1.09472 0
M  V30 7322 C 701.868 -0.889844 -1.8101 0
M  V30 7323 C 702.181 0.585686 -1.86625 0
M  V30 7324 O 703.387 0.946497 -2.54467 0
M  V30 7325 C 701.843 -1.54241 -3.25174 0
M  V30 7326 C 701.451 -3.05343 -3.27826 0
M  V30 7327 C 703.195 -1.37919 -4.0147 0
M  V30 7328 C 701.102 -3.63486 -4.6651 0
M  V30 7329 H 700.032 -0.329256 -0.678311 0
M  V30 7330 H 702.683 -1.36139 -1.23038 0
M  V30 7331 H 701.065 -0.998525 -3.83204 0
M  V30 7332 H 702.239 -3.66307 -2.79563 0
M  V30 7333 H 700.554 -3.21175 -2.65019 0
M  V30 7334 H 703.151 -1.78771 -5.03929 0
M  V30 7335 H 703.494 -0.323987 -4.15037 0
M  V30 7336 H 704.027 -1.89284 -3.49881 0
M  V30 7337 H 700.766 -4.68811 -4.58145 0
M  V30 7338 H 700.286 -3.073 -5.15099 0
M  V30 7339 H 701.965 -3.63134 -5.35484 0
M  V30 7340 N 702.098 1.27442 -0.927168 0
M  V30 7341 C 703.323 1.99036 -0.583042 0
M  V30 7342 C 703.748 1.68711 0.83176 0
M  V30 7343 O 703.106 0.927081 1.55804 0
M  V30 7344 C 703.154 3.51271 -0.814925 0
M  V30 7345 O 702.258 4.12226 0.119742 0
M  V30 7346 H 701.599 0.624883 -0.224538 0
M  V30 7347 H 704.129 1.62263 -1.24628 0
M  V30 7348 H 704.139 4.01411 -0.730282 0
M  V30 7349 H 702.814 3.72676 -1.84623 0
M  V30 7350 H 701.391 3.72897 -0.0147688 0
M  V30 7351 N 703.576 0.692616 1.41565 0
M  V30 7352 C 704.806 0.230943 2.05305 0
M  V30 7353 C 705.214 -1.12379 1.52209 0
M  V30 7354 O 704.557 -1.71281 0.663968 0
M  V30 7355 C 704.619 0.107894 3.59338 0
M  V30 7356 C 704.283 1.39419 4.35214 0
M  V30 7357 C 705.28 2.33143 4.64694 0
M  V30 7358 C 702.965 1.64674 4.74539 0
M  V30 7359 C 704.959 3.50385 5.32456 0
M  V30 7360 C 702.646 2.82202 5.42038 0
M  V30 7361 C 703.644 3.74881 5.70923 0
M  V30 7362 O 703.332 4.90351 6.37033 0
M  V30 7363 H 703.064 0.105708 0.667684 0
M  V30 7364 H 705.618 0.94488 1.82376 0
M  V30 7365 H 703.848 -0.661785 3.80995 0
M  V30 7366 H 705.537 -0.316213 4.04666 0
M  V30 7367 H 706.303 2.14887 4.34797 0
M  V30 7368 H 702.182 0.934007 4.51439 0
M  V30 7369 H 705.726 4.22743 5.54918 0
M  V30 7370 H 701.623 3.00376 5.71353 0
M  V30 7371 H 702.391 4.90128 6.55528 0
M  V30 7372 N 705.054 -1.51416 0.437162 0
M  V30 7373 C 706.279 -2.0699 -0.130424 0
M  V30 7374 C 706.704 -1.30249 -1.35709 0
M  V30 7375 O 706.062 -0.340388 -1.78076 0
M  V30 7376 C 706.11 -3.5801 -0.43142 0
M  V30 7377 O 705.214 -3.8345 -1.5179 0
M  V30 7378 H 704.555 -0.663997 -0.00194339 0
M  V30 7379 H 707.085 -1.95029 0.618445 0
M  V30 7380 H 707.095 -4.02261 -0.681926 0
M  V30 7381 H 705.77 -4.13291 0.465137 0
M  V30 7382 H 704.347 -3.51062 -1.25737 0
M  V30 7383 N 706.532 -0.168513 -1.56696 0
M  V30 7384 C 707.479 0.762875 -2.17828 0
M  V30 7385 C 708.449 1.22892 -1.11745 0
M  V30 7386 O 709.634 1.29759 -1.39883 0
M  V30 7387 C 706.774 1.9879 -2.82093 0
M  V30 7388 C 705.887 1.56568 -4.02629 0
M  V30 7389 C 705.022 2.74416 -4.54829 0
M  V30 7390 C 704.061 2.28671 -5.67782 0
M  V30 7391 N 703.198 3.39602 -6.14504 0
M  V30 7392 H 708.038 0.23479 -2.97074 0
M  V30 7393 H 705.575 0.104163 -1.46731 0
M  V30 7394 H 707.533 2.70636 -3.17509 0
M  V30 7395 H 706.163 2.48973 -2.05456 0
M  V30 7396 H 705.215 0.744067 -3.73052 0
M  V30 7397 H 706.527 1.18988 -4.844 0
M  V30 7398 H 705.681 3.54423 -4.92412 0
M  V30 7399 H 704.42 3.15254 -3.7211 0
M  V30 7400 H 703.425 1.4711 -5.29753 0
M  V30 7401 H 704.65 1.88894 -6.52301 0
M  V30 7402 H 702.596 3.80021 -5.34715 0
M  V30 7403 H 702.513 3.06105 -6.91257 0
M  V30 7404 H 703.781 4.19902 -6.56737 0
M  V30 7405 N 708.01 1.57248 0.105221 0
M  V30 7406 C 709.258 1.85204 0.808951 0
M  V30 7407 C 709.579 0.75574 1.7976 0
M  V30 7408 O 708.849 -0.218984 1.94672 0
M  V30 7409 H 707.429 0.683346 0.301739 0
M  V30 7410 H 710.091 1.94695 0.0892605 0
M  V30 7411 H 709.187 2.81595 1.34575 0
M  V30 7412 N 709.488 -0.375779 1.53054 0
M  V30 7413 C 710.451 -1.44254 1.7811 0
M  V30 7414 C 711.451 -1.47018 0.651328 0
M  V30 7415 O 712.641 -1.47957 0.919472 0
M  V30 7416 C 709.773 -2.8345 1.89391 0
M  V30 7417 H 710.966 -1.23316 2.73374 0
M  V30 7418 H 708.519 -0.608312 1.43977 0
M  V30 7419 H 709.254 -3.09716 0.961589 0
M  V30 7420 H 709.039 -2.82844 2.71555 0
M  V30 7421 H 710.529 -3.60722 2.10404 0
M  V30 7422 N 710.966 -1.44241 -0.634997 0
M  V30 7423 C 712.191 -1.50516 -1.42687 0
M  V30 7424 C 712.616 -0.129864 -1.87651 0
M  V30 7425 O 711.974 0.880164 -1.58502 0
M  V30 7426 C 712.022 -2.4714 -2.62591 0
M  V30 7427 O 711.126 -1.97025 -3.62291 0
M  V30 7428 H 710.467 -0.50841 -0.427101 0
M  V30 7429 H 712.997 -1.89337 -0.775408 0
M  V30 7430 H 713.007 -2.65048 -3.10183 0
M  V30 7431 H 711.682 -3.47039 -2.29209 0
M  V30 7432 H 710.259 -1.88866 -3.21534 0
M  V30 7433 N 712.444 0.87505 -1.31075 0
M  V30 7434 C 713.69 1.63009 -1.20647 0
M  V30 7435 C 714.023 1.9276 0.236045 0
M  V30 7436 O 713.298 1.55559 1.16754 0
M  V30 7437 C 713.581 2.96357 -2.0456 0
M  V30 7438 C 713.434 2.73516 -3.57084 0
M  V30 7439 C 714.753 3.974 -1.89107 0
M  V30 7440 H 711.872 0.591518 -0.439631 0
M  V30 7441 H 714.514 1.0119 -1.60812 0
M  V30 7442 H 712.664 3.49119 -1.70435 0
M  V30 7443 H 714.336 2.27465 -4.01319 0
M  V30 7444 H 712.579 2.0784 -3.80769 0
M  V30 7445 H 713.25 3.68377 -4.11099 0
M  V30 7446 H 715.726 3.5383 -2.18961 0
M  V30 7447 H 714.602 4.88596 -2.5013 0
M  V30 7448 H 714.863 4.33794 -0.85296 0
M  V30 7449 N 713.922 1.13953 1.08869 0
M  V30 7450 C 714.852 0.844824 2.17681 0
M  V30 7451 C 715.833 -0.198213 1.68941 0
M  V30 7452 O 717.018 -0.0559073 1.9412 0
M  V30 7453 C 714.148 0.316325 3.45856 0
M  V30 7454 C 713.102 1.29426 4.07962 0
M  V30 7455 C 712.428 0.625275 5.31031 0
M  V30 7456 C 713.728 2.65484 4.49795 0
M  V30 7457 H 715.422 1.75471 2.42591 0
M  V30 7458 H 712.968 0.845116 1.16592 0
M  V30 7459 H 714.921 0.0977876 4.21287 0
M  V30 7460 H 713.645 -0.628972 3.20486 0
M  V30 7461 H 712.304 1.49889 3.34558 0
M  V30 7462 H 711.952 -0.325678 5.01945 0
M  V30 7463 H 711.652 1.27777 5.73539 0
M  V30 7464 H 713.176 0.416152 6.0918 0
M  V30 7465 H 714.59 2.48957 5.16424 0
M  V30 7466 H 712.987 3.26963 5.03205 0
M  V30 7467 H 714.057 3.22717 3.61914 0
M  V30 7468 N 715.4 -1.26948 0.933913 0
M  V30 7469 C 716.816 -1.46419 0.635103 0
M  V30 7470 C 717.016 -1.84336 -0.813785 0
M  V30 7471 O 716.072 -1.96061 -1.59111 0
M  V30 7472 C 717.385 -2.55206 1.5903 0
M  V30 7473 C 718.933 -2.69062 1.5992 0
M  V30 7474 C 719.408 -3.81013 2.54152 0
M  V30 7475 N 720.899 -3.88395 2.52395 0
M  V30 7476 C 721.634 -4.74454 3.21996 0
M  V30 7477 N 721.13 -5.64954 4.00997 0
M  V30 7478 N 722.923 -4.68237 3.10983 0
M  V30 7479 H 715.074 -1.00622 1.87053 0
M  V30 7480 H 717.337 -0.503189 0.803433 0
M  V30 7481 H 717.043 -2.34153 2.62422 0
M  V30 7482 H 716.917 -3.52719 1.33677 0
M  V30 7483 H 719.304 -2.89492 0.572569 0
M  V30 7484 H 719.385 -1.72016 1.89325 0
M  V30 7485 H 719.029 -3.61336 3.5693 0
M  V30 7486 H 718.959 -4.77499 2.22041 0
M  V30 7487 H 721.45 -3.23687 1.95025 0
M  V30 7488 H 721.763 -6.27496 4.51074 0
M  V30 7489 H 720.108 -5.6473 4.05099 0
M  V30 7490 H 723.299 -3.96535 2.48753 0
M  V30 7491 H 723.472 -5.35087 3.65494 0
M  V30 7492 N 716.879 -0.700114 -1.41195 0
M  V30 7493 C 717.812 0.0129614 -2.28196 0
M  V30 7494 C 718.79 0.783367 -1.42486 0
M  V30 7495 O 719.974 0.773238 -1.71911 0
M  V30 7496 C 717.101 1.02575 -3.22794 0
M  V30 7497 C 716.147 0.347977 -4.25078 0
M  V30 7498 S 716.98 -0.912938 -5.27661 0
M  V30 7499 C 718.136 0.0981362 -6.25823 0
M  V30 7500 H 718.369 -0.724927 -2.88326 0
M  V30 7501 H 715.902 -0.490554 -1.464 0
M  V30 7502 H 717.86 1.60491 -3.77826 0
M  V30 7503 H 716.521 1.73624 -2.61751 0
M  V30 7504 H 715.714 1.11305 -4.91556 0
M  V30 7505 H 715.316 -0.15823 -3.73665 0
M  V30 7506 H 717.608 0.949965 -6.70807 0
M  V30 7507 H 718.551 -0.532838 -7.06092 0
M  V30 7508 H 718.959 0.454944 -5.62664 0
M  V30 7509 N 718.357 1.51182 -0.445186 0
M  V30 7510 C 719.287 2.30821 0.352686 0
M  V30 7511 C 720.268 1.36576 1.01395 0
M  V30 7512 O 721.453 1.65497 1.01609 0
M  V30 7513 C 718.583 3.15593 1.44976 0
M  V30 7514 C 717.537 4.1818 0.911553 0
M  V30 7515 C 716.863 4.91523 2.10497 0
M  V30 7516 C 718.163 5.22266 -0.059418 0
M  V30 7517 H 719.857 2.97771 -0.311936 0
M  V30 7518 H 717.403 1.43201 -0.151461 0
M  V30 7519 H 719.356 3.70091 2.01521 0
M  V30 7520 H 718.08 2.4648 2.14278 0
M  V30 7521 H 716.739 3.64746 0.368264 0
M  V30 7522 H 716.387 4.18906 2.78437 0
M  V30 7523 H 716.087 5.60898 1.7512 0
M  V30 7524 H 717.611 5.48847 2.6758 0
M  V30 7525 H 719.025 5.71789 0.415985 0
M  V30 7526 H 717.422 5.99213 -0.326152 0
M  V30 7527 H 718.492 4.7461 -0.993631 0
M  V30 7528 N 719.835 0.176821 1.56605 0
M  V30 7529 C 721.06 -0.47599 2.01864 0
M  V30 7530 C 721.485 -1.55645 1.05623 0
M  V30 7531 O 720.843 -1.81263 0.0366729 0
M  V30 7532 C 720.891 -1.02619 3.4569 0
M  V30 7533 O 719.995 -2.13996 3.52533 0
M  V30 7534 H 719.336 -0.113363 0.654251 0
M  V30 7535 H 721.866 0.28233 2.02643 0
M  V30 7536 H 721.876 -1.34742 3.85109 0
M  V30 7537 H 720.551 -0.235138 4.15235 0
M  V30 7538 H 719.128 -1.82876 3.24978 0
M  V30 7539 N 721.313 -1.57302 -0.09688 0
M  V30 7540 C 722.538 -1.9058 -0.818169 0
M  V30 7541 C 722.963 -0.770921 -1.71576 0
M  V30 7542 O 722.321 0.277588 -1.79162 0
M  V30 7543 C 722.369 -3.22714 -1.60898 0
M  V30 7544 O 721.473 -3.10178 -2.71779 0
M  V30 7545 H 720.814 -0.624759 -0.224882 0
M  V30 7546 H 723.344 -2.04471 -0.07264 0
M  V30 7547 H 723.354 -3.55978 -1.99358 0
M  V30 7548 H 722.029 -4.04899 -0.950227 0
M  V30 7549 H 720.606 -2.88424 -2.3636 0
M  V30 7550 N 722.791 0.367657 -1.53252 0
M  V30 7551 C 724.038 1.11052 -1.69333 0
M  V30 7552 C 724.366 1.89363 -0.444064 0
M  V30 7553 O 723.621 1.87094 0.573953 0
M  V30 7554 C 723.92 2.09825 -2.89324 0
M  V30 7555 C 723.586 1.4801 -4.25915 0
M  V30 7556 C 722.248 1.30879 -4.6306 0
M  V30 7557 C 724.6 1.03268 -5.10867 0
M  V30 7558 C 721.928 0.675868 -5.82794 0
M  V30 7559 C 724.28 0.41377 -6.31245 0
M  V30 7560 C 722.944 0.229939 -6.67104 0
M  V30 7561 H 722.214 0.406367 -0.619634 0
M  V30 7562 H 724.861 0.392558 -1.87433 0
M  V30 7563 H 723.166 2.87917 -2.65728 0
M  V30 7564 H 724.863 2.67252 -2.98961 0
M  V30 7565 H 721.453 1.62336 -3.96667 0
M  V30 7566 H 725.637 1.15297 -4.82722 0
M  V30 7567 H 720.893 0.521833 -6.09169 0
M  V30 7568 H 725.067 0.0588768 -6.96375 0
M  V30 7569 H 722.694 -0.262562 -7.59746 0
M  V30 7570 N 724.269 1.44576 0.627338 0
M  V30 7571 C 725.199 1.54562 1.75022 0
M  V30 7572 C 726.18 0.398378 1.65369 0
M  V30 7573 O 727.365 0.61899 1.84071 0
M  V30 7574 C 724.495 1.49309 3.13567 0
M  V30 7575 C 723.449 2.62549 3.38012 0
M  V30 7576 C 722.775 2.42348 4.76625 0
M  V30 7577 C 724.075 4.04678 3.30202 0
M  V30 7578 H 725.769 2.4855 1.66922 0
M  V30 7579 H 723.315 1.19624 0.801636 0
M  V30 7580 H 725.268 1.54895 3.919 0
M  V30 7581 H 723.992 0.518392 3.2246 0
M  V30 7582 H 722.651 2.56358 2.62061 0
M  V30 7583 H 722.299 1.43062 4.82226 0
M  V30 7584 H 721.999 3.18273 4.93939 0
M  V30 7585 H 723.523 2.49758 5.57183 0
M  V30 7586 H 724.937 4.12217 3.98435 0
M  V30 7587 H 723.334 4.80836 3.5905 0
M  V30 7588 H 724.404 4.2798 2.27949 0
M  V30 7589 N 725.747 -0.868086 1.31537 0
M  V30 7590 C 726.972 -1.65926 1.24432 0
M  V30 7591 C 727.397 -1.87169 -0.186936 0
M  V30 7592 O 726.755 -1.4148 -1.13371 0
M  V30 7593 C 726.803 -3.00347 1.9956 0
M  V30 7594 O 725.907 -3.90221 1.33422 0
M  V30 7595 H 725.248 -0.506375 0.429512 0
M  V30 7596 H 727.778 -1.0822 1.73637 0
M  V30 7597 H 727.788 -3.50269 2.09226 0
M  V30 7598 H 726.463 -2.84205 3.03645 0
M  V30 7599 H 725.04 -3.48672 1.32219 0
M  V30 7600 N 727.225 -1.14528 -1.08264 0
M  V30 7601 C 728.135 -0.84728 -2.18765 0
M  V30 7602 C 729.151 0.172826 -1.7314 0
M  V30 7603 O 730.327 0.000985336 -2.014 0
M  V30 7604 C 727.392 -0.330633 -3.4512 0
M  V30 7605 C 726.453 -1.41348 -4.05363 0
M  V30 7606 C 725.686 -0.921387 -5.25686 0
M  V30 7607 O 725.909 0.236587 -5.69909 0
M  V30 7608 O 724.843 -1.70101 -5.77364 0
M  V30 7609 H 728.669 -1.7708 -2.46731 0
M  V30 7610 H 726.254 -0.923661 -1.17426 0
M  V30 7611 H 728.136 -0.0485053 -4.21372 0
M  V30 7612 H 726.811 0.565147 -3.18728 0
M  V30 7613 H 725.718 -1.74908 -3.30693 0
M  V30 7614 H 727.051 -2.28383 -4.36007 0
M  V30 7615 N 728.703 1.26451 -0.940633 0
M  V30 7616 C 729.98 1.88947 -0.505811 0
M  V30 7617 C 730.36 1.85011 1.01657 0
M  V30 7618 O 729.708 1.30406 1.87634 0
M  V30 7619 C 729.918 3.32304 -1.06654 0
M  V30 7620 C 731.266 4.09153 -1.13486 0
M  V30 7621 O 732.29 3.41371 -1.01708 0
M  V30 7622 O 731.149 5.30369 -1.31797 0
M  V30 7623 H 728.243 0.810422 -0.164759 0
M  V30 7624 H 730.789 1.34625 -1.03316 0
M  V30 7625 H 729.561 3.29527 -2.11015 0
M  V30 7626 H 729.184 3.94164 -0.521603 0
M  V30 7627 N 730.181 0.707592 1.40822 0
M  V30 7628 C 731.427 0.244031 2.01326 0
M  V30 7629 C 731.76 -1.15722 1.55955 0
M  V30 7630 O 731.035 -1.78347 0.776044 0
M  V30 7631 C 731.318 0.315128 3.58718 0
M  V30 7632 C 731.171 1.75419 4.14184 0
M  V30 7633 C 732.49 -0.318251 4.38948 0
M  V30 7634 H 729.609 0.0901471 0.731466 0
M  V30 7635 H 732.251 0.898584 1.67408 0
M  V30 7636 H 730.401 -0.242176 3.87744 0
M  V30 7637 H 732.073 2.36626 3.95987 0
M  V30 7638 H 730.316 2.28449 3.68773 0
M  V30 7639 H 730.987 1.75538 5.23345 0
M  V30 7640 H 733.463 0.156514 4.15806 0
M  V30 7641 H 732.339 -0.238019 5.48384 0
M  V30 7642 H 732.6 -1.40067 4.19325 0
M  V30 7643 N 731.66 -1.50943 0.453197 0
M  V30 7644 C 732.907 -2.02212 -0.107922 0
M  V30 7645 C 733.235 -1.33639 -1.41318 0
M  V30 7646 O 732.49 -0.445154 -1.9057 0
M  V30 7647 C 732.789 -3.55603 -0.357944 0
M  V30 7648 C 732.455 -4.42556 0.863427 0
M  V30 7649 C 731.117 -4.6604 1.19834 0
M  V30 7650 C 733.469 -4.93468 1.67747 0
M  V30 7651 C 730.797 -5.37681 2.34768 0
M  V30 7652 C 733.149 -5.6637 2.81793 0
M  V30 7653 C 731.813 -5.88113 3.1572 0
M  V30 7654 H 731.083 -0.739947 -0.0394916 0
M  V30 7655 H 733.73 -1.81738 0.60363 0
M  V30 7656 H 732.035 -3.74495 -1.15156 0
M  V30 7657 H 733.732 -3.92821 -0.805781 0
M  V30 7658 H 730.322 -4.24485 0.592478 0
M  V30 7659 H 734.506 -4.75194 1.43192 0
M  V30 7660 H 729.762 -5.52727 2.61348 0
M  V30 7661 H 733.936 -6.04806 3.45229 0
M  V30 7662 H 731.563 -6.43404 4.04889 0
M  V30 7663 N 733.138 -0.185124 -1.56509 0
M  V30 7664 C 734.085 0.739729 -2.18624 0
M  V30 7665 C 735.055 1.217 -1.13042 0
M  V30 7666 O 736.24 1.28268 -1.41251 0
M  V30 7667 C 733.38 1.95787 -2.84186 0
M  V30 7668 C 732.493 1.52289 -4.04267 0
M  V30 7669 C 731.628 2.69576 -4.57714 0
M  V30 7670 C 730.667 2.22636 -5.70175 0
M  V30 7671 N 729.804 3.33065 -6.18071 0
M  V30 7672 H 734.644 0.203269 -2.97306 0
M  V30 7673 H 732.181 0.0885946 -1.46833 0
M  V30 7674 H 734.139 2.67253 -3.20361 0
M  V30 7675 H 732.769 2.4678 -2.08085 0
M  V30 7676 H 731.821 0.704458 -3.7382 0
M  V30 7677 H 733.133 1.13843 -4.85635 0
M  V30 7678 H 732.287 3.4918 -4.96143 0
M  V30 7679 H 731.026 3.1129 -3.75433 0
M  V30 7680 H 730.031 1.41483 -5.31284 0
M  V30 7681 H 731.256 1.81964 -6.54267 0
M  V30 7682 H 729.202 3.74328 -5.38715 0
M  V30 7683 H 729.119 2.98756 -6.94464 0
M  V30 7684 H 730.387 4.12912 -6.61153 0
M  V30 7685 N 734.616 1.57351 0.0885366 0
M  V30 7686 C 735.548 1.99221 1.13329 0
M  V30 7687 C 736.561 0.895705 1.35945 0
M  V30 7688 O 737.75 1.17376 1.34481 0
M  V30 7689 C 734.85 2.3016 2.48756 0
M  V30 7690 C 734.023 3.61444 2.46327 0
M  V30 7691 C 733.082 3.80244 3.63732 0
M  V30 7692 O 732.108 4.52024 3.45924 0
M  V30 7693 N 733.31 3.2132 4.8346 0
M  V30 7694 H 736.075 2.89456 0.776862 0
M  V30 7695 H 733.636 1.59505 0.277428 0
M  V30 7696 H 735.628 2.39925 3.25911 0
M  V30 7697 H 734.198 1.459 2.76464 0
M  V30 7698 H 733.418 3.62588 1.54673 0
M  V30 7699 H 734.706 4.47678 2.41789 0
M  V30 7700 H 734.104 2.63028 5.00832 0
M  V30 7701 H 732.661 3.3656 5.58185 0
M  V30 7702 N 736.094 -0.359525 1.53444 0
M  V30 7703 C 737.342 -1.09935 1.69584 0
M  V30 7704 C 737.663 -1.89656 0.453371 0
M  V30 7705 O 736.933 -1.8852 -0.53263 0
M  V30 7706 H 735.513 -0.408843 0.625185 0
M  V30 7707 H 738.175 -0.40467 1.90653 0
M  V30 7708 H 737.271 -1.78575 2.55964 0
M  V30 7709 N 737.572 -1.44907 -0.619662 0
M  V30 7710 C 738.502 -1.55488 -1.742 0
M  V30 7711 C 739.483 -0.407143 -1.65156 0
M  V30 7712 O 740.668 -0.628743 -1.8374 0
M  V30 7713 C 737.798 -1.5097 -3.1277 0
M  V30 7714 C 736.752 -2.64337 -3.36615 0
M  V30 7715 C 736.078 -2.44872 -4.75333 0
M  V30 7716 C 737.378 -4.06423 -3.28051 0
M  V30 7717 H 739.072 -2.49432 -1.65602 0
M  V30 7718 H 736.618 -1.20047 -0.795281 0
M  V30 7719 H 738.571 -1.56971 -3.91073 0
M  V30 7720 H 737.295 -0.535486 -3.2218 0
M  V30 7721 H 735.954 -2.57744 -2.60698 0
M  V30 7722 H 735.602 -1.45617 -4.81461 0
M  V30 7723 H 735.302 -3.20888 -4.92244 0
M  V30 7724 H 736.826 -2.52709 -5.55851 0
M  V30 7725 H 738.24 -4.14324 -3.96243 0
M  V30 7726 H 736.637 -4.82733 -3.56495 0
M  V30 7727 H 737.707 -4.29183 -2.25676 0
M  V30 7728 N 739.05 0.861098 -1.31996 0
M  V30 7729 C 740.013 1.95068 -1.20338 0
M  V30 7730 C 741.013 1.60289 -0.128114 0
M  V30 7731 O 742.203 1.70048 -0.378044 0
M  V30 7732 C 739.335 3.30153 -0.849205 0
M  V30 7733 H 740.528 2.06833 -2.17164 0
M  V30 7734 H 738.081 1.05049 -1.15734 0
M  V30 7735 H 738.816 3.24087 0.117508 0
M  V30 7736 H 738.601 3.56771 -1.62655 0
M  V30 7737 H 740.091 4.10025 -0.791782 0
M  V30 7738 N 740.528 1.15101 1.07655 0
M  V30 7739 C 741.753 0.948177 1.84457 0
M  V30 7740 C 742.178 -0.498432 1.81376 0
M  V30 7741 O 741.536 -1.35509 1.20445 0
M  V30 7742 C 741.584 1.46318 3.29581 0
M  V30 7743 O 740.688 0.660342 4.07079 0
M  V30 7744 H 740.029 0.338428 0.571281 0
M  V30 7745 H 742.559 1.5301 1.35828 0
M  V30 7746 H 742.569 1.47468 3.80417 0
M  V30 7747 H 741.244 2.51635 3.31138 0
M  V30 7748 H 739.821 0.718216 3.65918 0
M  V30 7749 N 742.006 -1.2595 0.947325 0
M  V30 7750 C 743.236 -1.97258 0.614235 0
M  V30 7751 C 743.644 -1.70682 -0.816355 0
M  V30 7752 O 742.987 -0.97527 -1.55673 0
M  V30 7753 C 743.049 -3.50845 0.784081 0
M  V30 7754 C 742.713 -4.01084 2.19045 0
M  V30 7755 C 743.71 -4.12347 3.16648 0
M  V30 7756 C 741.395 -4.34936 2.51268 0
M  V30 7757 C 743.389 -4.56766 4.44572 0
M  V30 7758 C 741.076 -4.79043 3.79422 0
M  V30 7759 C 742.074 -4.89919 4.75887 0
M  V30 7760 O 741.762 -5.3305 6.01758 0
M  V30 7761 H 741.494 -0.635738 0.22981 0
M  V30 7762 H 744.048 -1.61268 1.27207 0
M  V30 7763 H 742.278 -3.86638 0.069101 0
M  V30 7764 H 743.967 -4.03363 0.453135 0
M  V30 7765 H 744.733 -3.86432 2.93079 0
M  V30 7766 H 740.612 -4.25702 1.76916 0
M  V30 7767 H 744.156 -4.6517 5.19868 0
M  V30 7768 H 740.053 -5.04402 4.02802 0
M  V30 7769 H 740.821 -5.51255 6.05029 0
M  V30 7770 N 743.484 -0.715051 -1.40445 0
M  V30 7771 C 744.414 -0.0768699 -2.33373 0
M  V30 7772 C 745.395 0.746109 -1.52863 0
M  V30 7773 O 746.58 0.695142 -1.81332 0
M  V30 7774 C 743.71 0.846014 -3.36838 0
M  V30 7775 C 742.664 0.128694 -4.27806 0
M  V30 7776 C 741.99 1.16726 -5.21804 0
M  V30 7777 C 743.29 -1.01679 -5.12307 0
M  V30 7778 H 744.984 -0.853061 -2.8699 0
M  V30 7779 H 742.53 -0.41167 -1.3799 0
M  V30 7780 H 744.483 1.30185 -4.00786 0
M  V30 7781 H 743.207 1.6541 -2.81615 0
M  V30 7782 H 741.866 -0.307314 -3.6531 0
M  V30 7783 H 741.514 1.96838 -4.62887 0
M  V30 7784 H 741.214 0.692188 -5.83509 0
M  V30 7785 H 742.738 1.62321 -5.88629 0
M  V30 7786 H 744.152 -0.640337 -5.69713 0
M  V30 7787 H 742.549 -1.4202 -5.83053 0
M  V30 7788 H 743.619 -1.84769 -4.48317 0
M  V30 7789 N 744.962 1.50701 -0.461195 0
M  V30 7790 C 745.912 2.25195 0.35653 0
M  V30 7791 C 746.896 1.2838 0.96992 0
M  V30 7792 O 748.088 1.53338 0.884108 0
M  V30 7793 C 745.217 3.11471 1.44364 0
M  V30 7794 C 744.303 4.15729 0.83847 0
M  V30 7795 N 744.694 5.05788 -0.0353198 0
M  V30 7796 C 742.992 4.32133 1.1035 0
M  V30 7797 C 743.693 5.80472 -0.37774 0
M  V30 7798 N 742.669 5.43049 0.24463 0
M  V30 7799 H 746.471 2.92188 -0.316746 0
M  V30 7800 H 743.985 1.60059 -0.274725 0
M  V30 7801 H 745.982 3.63436 2.04255 0
M  V30 7802 H 744.642 2.46025 2.11901 0
M  V30 7803 H 745.653 5.16326 -0.403465 0
M  V30 7804 H 742.33 3.77908 1.77458 0
M  V30 7805 H 743.72 6.62996 -1.09024 0
M  V30 7806 N 746.441 0.193421 1.56409 0
M  V30 7807 C 747.669 -0.451438 2.01915 0
M  V30 7808 C 748.084 -1.55306 1.07357 0
M  V30 7809 O 747.441 -1.82333 0.0781512 0
M  V30 7810 C 747.492 -1.00931 3.47124 0
M  V30 7811 O 747.213 0.0483623 4.38073 0
M  V30 7812 C 748.714 -1.73021 4.0814 0
M  V30 7813 H 745.934 -0.113495 0.661332 0
M  V30 7814 H 748.478 0.301636 2.02263 0
M  V30 7815 H 746.633 -1.71277 3.47481 0
M  V30 7816 H 747.047 -0.366644 5.23217 0
M  V30 7817 H 748.521 -2.07289 5.11601 0
M  V30 7818 H 748.998 -2.6333 3.51502 0
M  V30 7819 H 749.604 -1.07264 4.11551 0
M  V30 7820 N 747.919 -1.57396 -0.0801906 0
M  V30 7821 C 749.166 -1.86836 -0.780927 0
M  V30 7822 C 749.494 -0.784012 -1.77999 0
M  V30 7823 O 748.749 0.220881 -1.94449 0
M  V30 7824 C 749.048 -3.22915 -1.53169 0
M  V30 7825 C 748.714 -4.45843 -0.67339 0
M  V30 7826 C 747.376 -4.79213 -0.436829 0
M  V30 7827 C 749.728 -5.21142 -0.0776786 0
M  V30 7828 C 747.056 -5.853 0.405062 0
M  V30 7829 C 749.408 -6.28119 0.751619 0
M  V30 7830 C 748.072 -6.59995 0.998131 0
M  V30 7831 H 747.342 -0.683682 -0.285761 0
M  V30 7832 H 749.989 -1.91454 -0.0419435 0
M  V30 7833 H 748.294 -3.14049 -2.34265 0
M  V30 7834 H 749.991 -3.42926 -2.07853 0
M  V30 7835 H 746.581 -4.19721 -0.867891 0
M  V30 7836 H 750.765 -4.95682 -0.247572 0
M  V30 7837 H 746.021 -6.084 0.60488 0
M  V30 7838 H 750.195 -6.8563 1.22 0
M  V30 7839 H 747.822 -7.42027 1.65227 0
M  V30 7840 N 749.397 0.351382 -1.53633 0
M  V30 7841 C 750.36 1.41403 -1.80383 0
M  V30 7842 C 751.36 1.45963 -0.674635 0
M  V30 7843 O 752.55 1.46476 -0.942895 0
M  V30 7844 C 749.682 2.80401 -1.93876 0
M  V30 7845 H 750.875 1.18951 -2.75301 0
M  V30 7846 H 748.428 0.58533 -1.44926 0
M  V30 7847 H 749.163 3.08147 -1.01074 0
M  V30 7848 H 748.948 2.78488 -2.7602 0
M  V30 7849 H 750.438 3.57329 -2.16116 0
M  V30 7850 N 750.875 1.45233 0.611969 0
M  V30 7851 C 752.105 1.52318 1.39581 0
M  V30 7852 C 752.513 0.153093 1.8858 0
M  V30 7853 O 751.856 -0.854792 1.62601 0
M  V30 7854 C 751.918 2.4426 2.63775 0
M  V30 7855 C 751.582 3.91079 2.36445 0
M  V30 7856 C 752.579 4.81099 1.97079 0
M  V30 7857 C 750.264 4.35958 2.49492 0
M  V30 7858 C 752.258 6.14002 1.71115 0
M  V30 7859 C 749.945 5.68903 2.23142 0
M  V30 7860 C 750.943 6.57744 1.84015 0
M  V30 7861 O 750.631 7.88226 1.5797 0
M  V30 7862 H 750.363 0.518428 0.43383 0
M  V30 7863 H 752.917 1.91067 0.753837 0
M  V30 7864 H 751.147 2.00474 3.30677 0
M  V30 7865 H 752.836 2.42077 3.25812 0
M  V30 7866 H 753.602 4.47692 1.86539 0
M  V30 7867 H 749.481 3.67053 2.78914 0
M  V30 7868 H 753.025 6.83305 1.405 0
M  V30 7869 H 748.922 6.01866 2.33297 0
M  V30 7870 H 749.69 8.00211 1.72058 0
M  V30 7871 N 752.353 -0.854086 1.3245 0
M  V30 7872 C 753.285 -1.96932 1.17262 0
M  V30 7873 C 754.298 -1.62445 0.107469 0
M  V30 7874 O 755.487 -1.74904 0.356481 0
M  V30 7875 C 752.587 -3.29971 0.772817 0
M  V30 7876 C 751.76 -3.92695 1.92638 0
M  V30 7877 C 750.819 -5.04068 1.51003 0
M  V30 7878 O 749.845 -5.24032 2.22213 0
M  V30 7879 N 751.047 -5.79076 0.406371 0
M  V30 7880 H 753.812 -2.10503 2.13327 0
M  V30 7881 H 751.373 -1.02897 1.24995 0
M  V30 7882 H 753.365 -4.01883 0.476684 0
M  V30 7883 H 751.935 -3.1245 -0.0967 0
M  V30 7884 H 751.155 -3.13563 2.38897 0
M  V30 7885 H 752.443 -4.31337 2.69863 0
M  V30 7886 H 751.841 -5.65393 -0.186302 0
M  V30 7887 H 750.398 -6.51579 0.169846 0
M  V30 7888 N 753.831 -1.1567 -1.07043 0
M  V30 7889 C 754.779 -0.852204 -2.16426 0
M  V30 7890 C 755.773 0.175661 -1.68487 0
M  V30 7891 O 756.979 0.0303874 -1.79974 0
M  V30 7892 H 753.354 -0.257942 -0.706378 0
M  V30 7893 H 755.325 -1.78231 -2.39324 0
M  V30 7894 C 754.074 -0.361362 -3.45817 0
M  V30 7895 H 753.397 -1.14369 -3.83092 0
M  V30 7896 H 754.837 -0.186997 -4.23587 0
M  V30 7897 C 753.296 0.917703 -3.2416 0
M  V30 7898 O 753.826 1.98858 -3.49025 0
M  V30 7899 N 752.032 0.858456 -2.77631 0
M  V30 7900 H 751.579 -0.0131821 -2.57597 0
M  V30 7901 H 751.537 1.71478 -2.6352 0
M  V30 7902 N 755.309 1.25446 -0.953992 0
M  V30 7903 C 756.537 1.97215 -0.625595 0
M  V30 7904 C 756.952 1.70911 0.802168 0
M  V30 7905 O 756.309 0.984782 1.5365 0
M  V30 7906 C 756.36 3.50777 -0.873943 0
M  V30 7907 O 756.081 3.76173 -2.24556 0
M  V30 7908 C 757.582 4.39776 -0.557845 0
M  V30 7909 H 754.802 0.628652 -0.2346 0
M  V30 7910 H 757.346 1.59632 -1.27819 0
M  V30 7911 H 755.501 3.86474 -0.267765 0
M  V30 7912 H 755.915 4.70636 -2.31522 0
M  V30 7913 H 757.389 5.46431 -0.782157 0
M  V30 7914 H 757.866 4.36257 0.507573 0
M  V30 7915 H 758.472 4.09644 -1.14332 0
M  V30 7916 N 756.787 0.722489 1.40064 0
M  V30 7917 C 758.036 0.261932 1.99992 0
M  V30 7918 C 758.349 -1.15358 1.57961 0
M  V30 7919 O 759.555 -1.71301 2.10637 0
M  V30 7920 C 758.011 0.41737 3.57472 0
M  V30 7921 C 757.619 1.83997 4.08472 0
M  V30 7922 C 759.363 0.0179561 4.24496 0
M  V30 7923 C 757.27 1.94563 5.5848 0
M  V30 7924 H 756.2 0.0941768 0.748095 0
M  V30 7925 H 758.851 0.894572 1.60218 0
M  V30 7926 H 757.233 -0.283965 3.94981 0
M  V30 7927 H 758.407 2.57224 3.82325 0
M  V30 7928 H 756.722 2.19147 3.54067 0
M  V30 7929 H 759.319 0.076085 5.34646 0
M  V30 7930 H 759.662 -1.02498 4.03485 0
M  V30 7931 H 760.195 0.669988 3.92117 0
M  V30 7932 H 756.934 2.97001 5.84355 0
M  V30 7933 H 756.454 1.25756 5.86469 0
M  V30 7934 H 758.133 1.72095 6.23692 0
M  V30 7935 N 758.265 -1.50454 0.469181 0
M  V30 7936 C 759.495 -2.06429 -0.0840913 0
M  V30 7937 C 759.903 -1.3334 -1.34227 0
M  V30 7938 O 759.246 -0.395656 -1.79389 0
M  V30 7939 C 759.308 -3.56797 -0.440049 0
M  V30 7940 C 758.972 -4.51359 0.715838 0
M  V30 7941 C 759.969 -4.94754 1.59732 0
M  V30 7942 C 757.654 -4.94069 0.905621 0
M  V30 7943 C 759.648 -5.79564 2.653 0
M  V30 7944 C 757.335 -5.78662 1.96453 0
M  V30 7945 C 758.333 -6.21311 2.83658 0
M  V30 7946 O 758.021 -7.04218 3.87727 0
M  V30 7947 H 757.753 -0.675994 0.00289751 0
M  V30 7948 H 760.307 -1.94629 0.656417 0
M  V30 7949 H 758.537 -3.66492 -1.23372 0
M  V30 7950 H 760.226 -3.95145 -0.928181 0
M  V30 7951 H 760.992 -4.62428 1.46237 0
M  V30 7952 H 756.871 -4.60394 0.236326 0
M  V30 7953 H 760.415 -6.12774 3.33398 0
M  V30 7954 H 756.312 -6.10401 2.09955 0
M  V30 7955 H 757.08 -7.22464 3.84692 0
M  V30 7956 N 759.743 -0.201713 -1.56304 0
M  V30 7957 C 760.673 0.71155 -2.22394 0
M  V30 7958 C 761.654 1.21625 -1.18917 0
M  V30 7959 O 762.839 1.26388 -1.47444 0
M  V30 7960 C 759.969 1.92837 -2.88845 0
M  V30 7961 C 758.923 1.55831 -3.98623 0
M  V30 7962 C 758.249 2.85228 -4.52271 0
M  V30 7963 C 759.549 0.763249 -5.16693 0
M  V30 7964 H 761.243 0.160573 -2.98969 0
M  V30 7965 H 758.789 0.0757916 -1.438 0
M  V30 7966 H 760.742 2.57253 -3.33764 0
M  V30 7967 H 759.466 2.50398 -2.09686 0
M  V30 7968 H 758.125 0.9377 -3.54405 0
M  V30 7969 H 757.773 3.40893 -3.69866 0
M  V30 7970 H 757.473 2.6121 -5.26349 0
M  V30 7971 H 758.997 3.50622 -4.99897 0
M  V30 7972 H 760.411 1.31066 -5.58117 0
M  V30 7973 H 758.808 0.620935 -5.96879 0
M  V30 7974 H 759.878 -0.234322 -4.84334 0
M  V30 7975 N 761.222 1.57436 0.0718424 0
M  V30 7976 C 762.17 2.04725 1.10411 0
M  V30 7977 C 763.164 0.952579 1.4008 0
M  V30 7978 O 764.37 1.13769 1.39487 0
M  V30 7979 H 760.745 0.652749 0.373393 0
M  V30 7980 H 762.716 2.90569 0.679126 0
M  V30 7981 C 761.465 2.5068 2.40946 0
M  V30 7982 H 760.788 3.34505 2.18967 0
M  V30 7983 H 762.228 2.87521 3.11621 0
M  V30 7984 C 760.687 1.38971 3.06902 0
M  V30 7985 O 761.217 0.731786 3.94978 0
M  V30 7986 N 759.423 1.13485 2.67525 0
M  V30 7987 H 758.97 1.67168 1.95991 0
M  V30 7988 H 758.928 0.389467 3.11978 0
M  V30 7989 N 762.7 -0.34323 1.53817 0
M  V30 7990 C 763.63 -1.42709 1.84814 0
M  V30 7991 C 764.611 -1.5488 0.703297 0
M  V30 7992 O 765.796 -1.69082 0.955237 0
M  V30 7993 C 762.926 -2.79756 2.05801 0
M  V30 7994 C 761.88 -2.82392 3.21619 0
M  V30 7995 C 761.206 -4.22326 3.2794 0
M  V30 7996 C 762.506 -2.479 4.59721 0
M  V30 7997 H 764.2 -1.17018 2.75585 0
M  V30 7998 H 761.746 -0.561485 1.32602 0
M  V30 7999 H 763.699 -3.55627 2.26069 0
M  V30 8000 H 762.423 -3.06883 1.11761 0
M  V30 8001 H 761.082 -2.08974 3.01207 0
M  V30 8002 H 760.73 -4.46564 2.31494 0
M  V30 8003 H 760.43 -4.25001 4.05768 0
M  V30 8004 H 761.954 -5.00039 3.50419 0
M  V30 8005 H 763.368 -3.13484 4.80001 0
M  V30 8006 H 761.765 -2.61857 5.39954 0
M  V30 8007 H 762.835 -1.43087 4.63308 0
M  V30 8008 N 764.178 -1.45556 -0.604258 0
M  V30 8009 C 765.424 -1.50958 -1.3632 0
M  V30 8010 C 765.779 -0.15051 -1.9181 0
M  V30 8011 O 765.072 0.838035 -1.72301 0
M  V30 8012 C 765.266 -2.52697 -2.52743 0
M  V30 8013 C 765.095 -3.98364 -2.08654 0
M  V30 8014 C 763.865 -4.66295 -1.94671 0
M  V30 8015 C 766.063 -4.86801 -1.6592 0
M  V30 8016 N 764.045 -5.96669 -1.44428 0
M  V30 8017 C 765.416 -6.06829 -1.27115 0
M  V30 8018 C 767.471 -4.73634 -1.53542 0
M  V30 8019 C 766.174 -7.15149 -0.771676 0
M  V30 8020 C 768.2 -5.82005 -1.04998 0
M  V30 8021 C 767.562 -7.01191 -0.671599 0
M  V30 8022 H 763.661 -0.607329 -0.492621 0
M  V30 8023 H 766.245 -1.82048 -0.69041 0
M  V30 8024 H 764.416 -2.23554 -3.17614 0
M  V30 8025 H 766.148 -2.48227 -3.19633 0
M  V30 8026 H 762.903 -4.21496 -2.15959 0
M  V30 8027 H 763.327 -6.66003 -1.21528 0
M  V30 8028 H 767.969 -3.81898 -1.81421 0
M  V30 8029 H 765.687 -8.06671 -0.480442 0
M  V30 8030 H 769.273 -5.73851 -0.958423 0
M  V30 8031 H 768.153 -7.83619 -0.301752 0
M  V30 8032 N 765.656 0.84705 -1.32902 0
M  V30 8033 C 766.933 1.58583 -1.14503 0
M  V30 8034 C 767.313 2.09075 0.291724 0
M  V30 8035 O 766.661 1.88636 1.28952 0
M  V30 8036 C 766.871 2.72605 -2.17916 0
M  V30 8037 C 768.219 3.41993 -2.51646 0
M  V30 8038 O 769.243 2.82838 -2.1652 0
M  V30 8039 O 768.102 4.48761 -3.1189 0
M  V30 8040 H 765.196 0.698756 -0.442345 0
M  V30 8041 H 767.742 0.890516 -1.44457 0
M  V30 8042 H 766.514 2.32876 -3.14459 0
M  V30 8043 H 766.137 3.49807 -1.89 0
M  V30 8044 N 767.134 1.16236 1.06428 0
M  V30 8045 C 768.084 0.835994 2.12121 0
M  V30 8046 C 769.068 -0.183955 1.59845 0
M  V30 8047 O 770.26 0.0166741 1.76992 0
M  V30 8048 C 767.389 0.337333 3.41639 0
M  V30 8049 C 766.475 1.38798 4.00744 0
M  V30 8050 N 766.866 2.59799 4.3398 0
M  V30 8051 C 765.164 1.24292 4.28331 0
M  V30 8052 C 765.865 3.27213 4.80943 0
M  V30 8053 N 764.841 2.54594 4.80294 0
M  V30 8054 H 768.643 1.75615 2.35662 0
M  V30 8055 H 766.157 1.04921 1.23957 0
M  V30 8056 H 768.154 0.0851274 4.16813 0
M  V30 8057 H 766.814 -0.57677 3.19536 0
M  V30 8058 H 767.825 2.96867 4.24371 0
M  V30 8059 H 764.502 0.389464 4.15679 0
M  V30 8060 H 765.892 4.30492 5.15874 0
M  V30 8061 N 768.612 -1.24939 0.960631 0
M  V30 8062 C 769.542 -2.28 0.503815 0
M  V30 8063 C 770.523 -1.63959 -0.452928 0
M  V30 8064 O 771.708 -1.91009 -0.350585 0
M  V30 8065 C 768.838 -3.46643 -0.213535 0
M  V30 8066 C 767.792 -4.22903 0.658535 0
M  V30 8067 C 767.118 -5.34363 -0.189902 0
M  V30 8068 C 768.418 -4.84949 1.93963 0
M  V30 8069 H 770.112 -2.66462 1.36521 0
M  V30 8070 H 767.658 -1.28093 0.657897 0
M  V30 8071 H 769.611 -4.1787 -0.544286 0
M  V30 8072 H 768.335 -3.07187 -1.10923 0
M  V30 8073 H 766.994 -3.53467 0.972455 0
M  V30 8074 H 766.642 -4.91147 -1.08553 0
M  V30 8075 H 766.342 -5.86302 0.390331 0
M  V30 8076 H 767.866 -6.0842 -0.515484 0
M  V30 8077 H 769.28 -5.48288 1.67491 0
M  V30 8078 H 767.677 -5.47091 2.46601 0
M  V30 8079 H 768.747 -4.06799 2.639 0
M  V30 8080 N 770.09 -0.729906 -1.39679 0
M  V30 8081 C 771.022 -0.0470588 -2.29152 0
M  V30 8082 C 772.035 0.708808 -1.4656 0
M  V30 8083 O 773.224 0.553815 -1.69691 0
M  V30 8084 C 770.324 0.957612 -3.25089 0
M  V30 8085 C 769.497 0.264321 -4.36601 0
M  V30 8086 C 768.556 1.17638 -5.12882 0
M  V30 8087 O 767.582 0.655777 -5.6541 0
M  V30 8088 N 768.784 2.50649 -5.23598 0
M  V30 8089 H 771.549 -0.815364 -2.88395 0
M  V30 8090 H 769.11 -0.578707 -1.51204 0
M  V30 8091 H 771.102 1.57026 -3.72995 0
M  V30 8092 H 769.672 1.62716 -2.66912 0
M  V30 8093 H 768.892 -0.528732 -3.90638 0
M  V30 8094 H 770.18 -0.216344 -5.0834 0
M  V30 8095 H 769.578 2.95427 -4.82431 0
M  V30 8096 H 768.135 3.07022 -5.74961 0
M  V30 8097 N 771.568 1.50203 -0.477153 0
M  V30 8098 C 772.478 2.32421 0.319027 0
M  V30 8099 C 773.494 1.43075 0.990233 0
M  V30 8100 O 774.67 1.76123 0.976873 0
M  V30 8101 C 771.735 3.17909 1.38328 0
M  V30 8102 C 770.796 4.23082 0.728036 0
M  V30 8103 C 770.029 5.04484 1.74158 0
M  V30 8104 O 770.252 4.8705 2.96881 0
M  V30 8105 O 769.186 5.8747 1.31006 0
M  V30 8106 H 773.012 3.01638 -0.353281 0
M  V30 8107 H 770.597 1.47478 -0.238891 0
M  V30 8108 H 772.479 3.70937 1.9996 0
M  V30 8109 H 771.154 2.51413 2.03895 0
M  V30 8110 H 770.061 3.7403 0.07261 0
M  V30 8111 H 771.394 4.92065 0.115216 0
M  V30 8112 N 773.046 0.209999 1.56195 0
M  V30 8113 C 774.009 -0.691232 2.18528 0
M  V30 8114 C 775.009 -1.13013 1.14388 0
M  V30 8115 O 776.199 -1.04081 1.39688 0
M  V30 8116 C 773.331 -1.94551 2.79934 0
M  V30 8117 H 774.524 -0.147953 2.99535 0
M  V30 8118 H 772.077 -0.0396243 1.5625 0
M  V30 8119 H 772.812 -2.53094 2.02766 0
M  V30 8120 H 772.597 -1.63938 3.56184 0
M  V30 8121 H 774.087 -2.58785 3.2775 0
M  V30 8122 N 774.524 -1.57472 -0.0634922 0
M  V30 8123 C 775.77 -1.87932 -0.762194 0
M  V30 8124 C 776.103 -0.803377 -1.76804 0
M  V30 8125 O 775.378 0.185468 -1.93614 0
M  V30 8126 C 775.661 -3.29053 -1.46275 0
M  V30 8127 C 775.514 -4.47309 -0.472755 0
M  V30 8128 C 776.833 -3.68537 -2.40558 0
M  V30 8129 H 773.952 -0.683521 -0.275624 0
M  V30 8130 H 776.594 -1.89983 -0.0252651 0
M  V30 8131 H 774.744 -3.27435 -2.0909 0
M  V30 8132 H 776.416 -4.61053 0.150828 0
M  V30 8133 H 774.659 -4.33286 0.211187 0
M  V30 8134 H 775.33 -5.42853 -1.00072 0
M  V30 8135 H 777.806 -3.71302 -1.87814 0
M  V30 8136 H 776.682 -4.68152 -2.86574 0
M  V30 8137 H 776.943 -2.98917 -3.25731 0
M  V30 8138 N 776.003 0.335068 -1.53997 0
M  V30 8139 C 776.951 1.43206 -1.83289 0
M  V30 8140 C 777.945 1.54081 -0.703953 0
M  V30 8141 O 779.151 1.56603 -0.887432 0
M  V30 8142 H 775.526 0.477655 -0.580818 0
M  V30 8143 H 777.497 1.15719 -2.75049 0
M  V30 8144 C 776.246 2.79602 -2.06683 0
M  V30 8145 H 775.569 2.72004 -2.93008 0
M  V30 8146 H 777.009 3.55459 -2.31139 0
M  V30 8147 C 775.468 3.25873 -0.854883 0
M  V30 8148 O 775.998 4.01657 -0.0584648 0
M  V30 8149 N 774.204 2.82777 -0.669729 0
M  V30 8150 H 773.751 2.21269 -1.31901 0
M  V30 8151 H 773.709 3.1409 0.13969 0
M  V30 8152 N 777.481 1.45874 0.596531 0
M  V30 8153 C 778.429 1.55739 1.72766 0
M  V30 8154 C 779.423 0.426666 1.63939 0
M  V30 8155 O 780.629 0.60301 1.69599 0
M  V30 8156 H 777.004 0.489386 0.570968 0
M  V30 8157 H 778.975 2.50871 1.61575 0
M  V30 8158 C 777.724 1.55174 3.11153 0
M  V30 8159 H 777.047 2.41511 3.1861 0
M  V30 8160 H 778.487 1.66133 3.90097 0
M  V30 8161 C 776.946 0.278001 3.35751 0
M  V30 8162 O 777.476 -0.637557 3.96608 0
M  V30 8163 N 775.682 0.170227 2.90101 0
M  V30 8164 H 775.229 0.916159 2.40758 0
M  V30 8165 H 775.187 -0.68117 3.06932 0
M  V30 8166 N 778.959 -0.83999 1.33349 0
M  V30 8167 C 780.375 -1.13049 1.12659 0
M  V30 8168 C 780.575 -2.01328 -0.0832613 0
M  V30 8169 O 779.631 -2.40669 -0.763856 0
M  V30 8170 C 780.944 -1.79366 2.41347 0
M  V30 8171 C 782.492 -1.91937 2.47243 0
M  V30 8172 C 782.967 -2.6167 3.75889 0
M  V30 8173 N 784.458 -2.69184 3.76954 0
M  V30 8174 C 785.193 -3.23827 4.73206 0
M  V30 8175 N 784.689 -3.79166 5.79832 0
M  V30 8176 N 786.482 -3.22068 4.60683 0
M  V30 8177 H 778.633 -0.252432 2.10895 0
M  V30 8178 H 780.896 -0.174501 0.931801 0
M  V30 8179 H 780.602 -1.2196 3.29877 0
M  V30 8180 H 780.476 -2.79396 2.53412 0
M  V30 8181 H 782.863 -2.48498 1.59163 0
M  V30 8182 H 782.944 -0.908604 2.39119 0
M  V30 8183 H 782.588 -2.05769 4.64351 0
M  V30 8184 H 782.518 -3.63217 3.81289 0
M  V30 8185 H 785.009 -2.2994 2.99893 0
M  V30 8186 H 785.322 -4.19061 6.49313 0
M  V30 8187 H 783.667 -3.77457 5.83568 0
M  V30 8188 H 786.858 -2.78092 3.7654 0
M  V30 8189 H 787.031 -3.64351 5.35866 0
M  V30 8190 N 780.437 -1.16799 -1.0581 0
M  V30 8191 C 781.662 -0.977402 -1.82925 0
M  V30 8192 C 782.087 0.469514 -1.82146 0
M  V30 8193 O 781.445 1.33576 -1.22585 0
M  V30 8194 C 781.493 -1.51543 -3.27211 0
M  V30 8195 O 780.597 -0.725021 -4.05977 0
M  V30 8196 H 779.938 -0.347474 -0.565825 0
M  V30 8197 H 782.468 -1.55151 -1.33376 0
M  V30 8198 H 782.478 -1.53502 -3.78023 0
M  V30 8199 H 781.153 -2.56872 -3.27093 0
M  V30 8200 H 779.73 -0.77634 -3.64729 0
M  V30 8201 N 781.915 1.24427 -0.967243 0
M  V30 8202 C 783.164 1.91789 -0.624478 0
M  V30 8203 C 783.477 1.76448 0.844129 0
M  V30 8204 O 784.683 2.38495 1.2974 0
M  V30 8205 C 783.139 3.43743 -1.06626 0
M  V30 8206 C 782.747 3.67771 -2.55829 0
M  V30 8207 C 784.491 4.16958 -0.79662 0
M  V30 8208 C 782.398 5.13293 -2.93742 0
M  V30 8209 H 781.328 0.71811 -0.229856 0
M  V30 8210 H 783.979 1.41081 -1.17339 0
M  V30 8211 H 782.361 3.93484 -0.445663 0
M  V30 8212 H 783.535 3.28631 -3.23015 0
M  V30 8213 H 781.85 3.07841 -2.80398 0
M  V30 8214 H 784.447 5.24171 -1.05589 0
M  V30 8215 H 784.79 4.15442 0.267163 0
M  V30 8216 H 785.323 3.73164 -1.37816 0
M  V30 8217 H 782.062 5.19931 -3.9919 0
M  V30 8218 H 781.582 5.53433 -2.3124 0
M  V30 8219 H 783.261 5.81521 -2.83623 0
M  V30 8220 N 783.393 0.737304 1.3929 0
M  V30 8221 C 784.325 0.0592106 2.29124 0
M  V30 8222 C 785.338 -0.701026 1.46934 0
M  V30 8223 O 786.527 -0.544808 1.69983 0
M  V30 8224 C 783.627 -0.940358 3.25592 0
M  V30 8225 C 782.8 -0.241163 4.36735 0
M  V30 8226 C 781.859 -1.14916 5.13498 0
M  V30 8227 O 780.885 -0.625783 5.6575 0
M  V30 8228 N 782.087 -2.47869 5.2492 0
M  V30 8229 H 784.852 0.830647 2.87959 0
M  V30 8230 H 782.413 0.586718 1.50895 0
M  V30 8231 H 784.405 -1.55046 3.73822 0
M  V30 8232 H 782.975 -1.61299 2.67771 0
M  V30 8233 H 782.195 0.549441 3.90352 0
M  V30 8234 H 783.483 0.243299 5.08218 0
M  V30 8235 H 782.881 -2.92864 4.83991 0
M  V30 8236 H 781.438 -3.03969 5.76581 0
M  V30 8237 N 784.871 -1.49948 0.485112 0
M  V30 8238 C 785.801 -2.31675 -0.291364 0
M  V30 8239 C 786.782 -1.39216 -0.977383 0
M  V30 8240 O 787.967 -1.68133 -0.971855 0
M  V30 8241 C 785.097 -3.19326 -1.36558 0
M  V30 8242 C 784.051 -4.2045 -0.800359 0
M  V30 8243 C 783.377 -4.96931 -1.97391 0
M  V30 8244 C 784.677 -5.21925 0.197867 0
M  V30 8245 H 786.371 -2.96839 0.390775 0
M  V30 8246 H 783.917 -1.42749 0.189375 0
M  V30 8247 H 785.87 -3.75304 -1.91638 0
M  V30 8248 H 784.594 -2.52074 -2.07668 0
M  V30 8249 H 783.253 -3.65594 -0.271428 0
M  V30 8250 H 782.901 -4.26141 -2.67232 0
M  V30 8251 H 782.601 -5.65344 -1.60187 0
M  V30 8252 H 784.125 -5.55749 -2.52935 0
M  V30 8253 H 785.539 -5.72691 -0.264239 0
M  V30 8254 H 783.936 -5.98138 0.484908 0
M  V30 8255 H 785.006 -4.71809 1.11912 0
M  V30 8256 N 786.349 -0.21828 -1.56081 0
M  V30 8257 C 787.76 0.290166 -1.84431 0
M  V30 8258 C 788.111 1.59712 -1.13958 0
M  V30 8259 O 787.236 2.12516 -0.40815 0
M  V30 8260 C 787.831 0.53325 -3.34577 0
M  V30 8261 C 786.39 0.986011 -3.63256 0
M  V30 8262 C 785.537 0.0472798 -2.7726 0
M  V30 8263 H 788.488 -0.441548 -1.52434 0
M  V30 8264 H 788.509 1.37967 -3.54606 0
M  V30 8265 H 788.021 -0.418137 -3.85841 0
M  V30 8266 H 786.122 1.95087 -3.17446 0
M  V30 8267 H 786.235 0.862684 -4.71269 0
M  V30 8268 H 784.599 0.553471 -2.48614 0
M  V30 8269 H 785.382 -0.898966 -3.31321 0
M  V30 8270 N 787.827 1.57504 0.0551401 0
M  V30 8271 C 789.055 1.92294 0.76358 0
M  V30 8272 C 789.47 0.815774 1.70266 0
M  V30 8273 O 788.827 -0.209772 1.8129 0
M  V30 8274 C 788.878 3.26914 1.54302 0
M  V30 8275 O 788.599 4.33375 0.641666 0
M  V30 8276 C 790.1 3.75825 2.35097 0
M  V30 8277 H 787.32 0.635229 0.216159 0
M  V30 8278 H 789.864 2.0449 0.0204385 0
M  V30 8279 H 788.019 3.16196 2.23828 0
M  V30 8280 H 788.433 5.10927 1.1855 0
M  V30 8281 H 789.907 4.72603 2.8522 0
M  V30 8282 H 790.384 3.0568 3.15367 0
M  V30 8283 H 790.99 3.89542 1.70696 0
M  V30 8284 N 789.305 -0.326896 1.54172 0
M  V30 8285 C 790.533 -1.08486 1.76177 0
M  V30 8286 C 790.948 -1.81815 0.508788 0
M  V30 8287 O 790.305 -1.74924 -0.520362 0
M  V30 8288 C 790.356 -2.08552 2.95276 0
M  V30 8289 O 790.077 -1.38202 4.15731 0
M  V30 8290 C 791.578 -2.96593 3.29466 0
M  V30 8291 H 788.798 -0.322835 0.588233 0
M  V30 8292 H 791.342 -0.374036 2.0105 0
M  V30 8293 H 789.497 -2.75174 2.72687 0
M  V30 8294 H 789.911 -2.05186 4.827 0
M  V30 8295 H 791.385 -3.62708 4.16109 0
M  V30 8296 H 791.862 -3.63511 2.46487 0
M  V30 8297 H 792.468 -2.35537 3.54122 0
M  V30 8298 N 790.784 -1.46188 -0.588786 0
M  V30 8299 C 792.03 -1.51407 -1.34921 0
M  V30 8300 C 792.363 -0.162771 -1.93517 0
M  V30 8301 O 791.638 0.825082 -1.76132 0
M  V30 8302 C 791.921 -2.60795 -2.48311 0
M  V30 8303 C 791.774 -4.05435 -1.94789 0
M  V30 8304 C 793.093 -2.66313 -3.50379 0
M  V30 8305 H 790.212 -0.551213 -0.489217 0
M  V30 8306 H 792.854 -1.78095 -0.661993 0
M  V30 8307 H 791.004 -2.3817 -3.06932 0
M  V30 8308 H 792.676 -4.39328 -1.40672 0
M  V30 8309 H 790.919 -4.15202 -1.25659 0
M  V30 8310 H 791.59 -4.77691 -2.76613 0
M  V30 8311 H 794.066 -2.86634 -3.01629 0
M  V30 8312 H 792.942 -3.44681 -4.27184 0
M  V30 8313 H 793.203 -1.72127 -4.07216 0
M  V30 8314 N 792.262 0.832906 -1.33792 0
M  V30 8315 C 793.678 1.1245 -1.13257 0
M  V30 8316 C 793.878 2.01369 0.0725832 0
M  V30 8317 O 792.934 2.41071 0.751082 0
M  V30 8318 C 794.247 1.78084 -2.42294 0
M  V30 8319 C 795.795 1.90624 -2.48257 0
M  V30 8320 C 796.27 2.59673 -3.77271 0
M  V30 8321 N 797.761 2.67181 -3.78376 0
M  V30 8322 C 798.496 3.21313 -4.74916 0
M  V30 8323 N 797.992 3.76086 -5.81835 0
M  V30 8324 N 799.785 3.19621 -4.62384 0
M  V30 8325 H 791.936 0.241244 -2.11026 0
M  V30 8326 H 794.199 0.169557 -0.932713 0
M  V30 8327 H 793.905 1.20209 -3.30519 0
M  V30 8328 H 793.779 2.78049 -2.5489 0
M  V30 8329 H 796.166 2.4765 -1.60478 0
M  V30 8330 H 796.247 0.89591 -2.39598 0
M  V30 8331 H 795.891 2.03304 -4.65435 0
M  V30 8332 H 795.821 3.61189 -3.8321 0
M  V30 8333 H 798.312 2.28346 -3.01108 0
M  V30 8334 H 798.625 4.15612 -6.51526 0
M  V30 8335 H 796.97 3.74357 -5.85561 0
M  V30 8336 H 800.161 2.76091 -3.7801 0
M  V30 8337 H 800.334 3.61504 -5.37791 0
M  V30 8338 N 793.74 1.17359 1.05189 0
M  V30 8339 C 795.017 0.871914 1.75091 0
M  V30 8340 C 795.397 -0.627821 2.01548 0
M  V30 8341 O 794.745 -1.5791 1.65156 0
M  V30 8342 C 794.955 1.70687 3.04413 0
M  V30 8343 C 796.303 1.92684 3.78362 0
M  V30 8344 O 797.327 1.67645 3.14282 0
M  V30 8345 O 796.186 2.34765 4.93505 0
M  V30 8346 H 793.28 0.322831 0.761386 0
M  V30 8347 H 795.826 1.28054 1.11357 0
M  V30 8348 H 794.598 2.72405 2.80911 0
M  V30 8349 H 794.221 1.29602 3.75884 0
M  V30 8350 N 795.218 -1.23913 0.973828 0
M  V30 8351 C 796.467 -1.91455 0.63464 0
M  V30 8352 C 796.78 -1.76893 -0.834759 0
M  V30 8353 O 797.986 -2.3918 -1.28473 0
M  V30 8354 C 796.442 -3.43172 1.08447 0
M  V30 8355 C 796.05 -3.66409 2.57776 0
M  V30 8356 C 797.794 -4.1653 0.818721 0
M  V30 8357 C 795.701 -5.11728 2.9646 0
M  V30 8358 H 794.631 -0.716881 0.233661 0
M  V30 8359 H 797.282 -1.40457 1.18085 0
M  V30 8360 H 795.664 -3.93242 0.466524 0
M  V30 8361 H 796.838 -3.26913 3.24753 0
M  V30 8362 H 795.153 -3.06349 2.82027 0
M  V30 8363 H 797.75 -5.23603 1.08367 0
M  V30 8364 H 798.093 -4.15578 -0.245128 0
M  V30 8365 H 798.626 -3.72428 1.39793 0
M  V30 8366 H 795.365 -5.17806 4.01941 0
M  V30 8367 H 794.885 -5.52199 2.34172 0
M  V30 8368 H 796.564 -5.80009 2.86703 0
M  V30 8369 N 796.696 -0.74468 -1.38897 0
M  V30 8370 C 797.629 -0.0596441 -2.28122 0
M  V30 8371 C 798.607 0.73764 -1.44906 0
M  V30 8372 O 799.791 0.718155 -1.74284 0
M  V30 8373 C 796.918 0.922533 -3.25894 0
M  V30 8374 C 795.964 0.212566 -4.2597 0
M  V30 8375 S 796.797 -1.08035 -5.24489 0
M  V30 8376 C 797.953 -0.101014 -6.25818 0
M  V30 8377 H 798.186 -0.816289 -2.85874 0
M  V30 8378 H 795.719 -0.536882 -1.44765 0
M  V30 8379 H 797.677 1.4839 -3.82741 0
M  V30 8380 H 796.338 1.65209 -2.67142 0
M  V30 8381 H 795.531 0.956106 -4.94848 0
M  V30 8382 H 795.133 -0.277029 -3.72973 0
M  V30 8383 H 797.425 0.736072 -6.7349 0
M  V30 8384 H 798.368 -0.757206 -7.0404 0
M  V30 8385 H 798.776 0.275706 -5.63826 0
M  V30 8386 N 798.174 1.49689 -0.493057 0
M  V30 8387 C 799.122 2.30613 0.303383 0
M  V30 8388 C 800.116 1.38867 0.970165 0
M  V30 8389 O 801.322 1.55956 0.898761 0
M  V30 8390 H 797.697 0.742891 0.116691 0
M  V30 8391 H 799.668 2.95717 -0.39924 0
M  V30 8392 C 798.417 3.20008 1.35978 0
M  V30 8393 H 797.74 3.90526 0.856103 0
M  V30 8394 H 799.18 3.79586 1.88919 0
M  V30 8395 C 797.639 2.39079 2.37367 0
M  V30 8396 O 798.169 2.08933 3.43089 0
M  V30 8397 N 796.375 2.0125 2.09635 0
M  V30 8398 H 795.922 2.25966 1.23682 0
M  V30 8399 H 795.88 1.47408 2.77702 0
M  V30 8400 N 799.652 0.226554 1.55963 0
M  V30 8401 C 801.068 -0.128733 1.5908 0
M  V30 8402 C 801.268 -1.58558 1.24345 0
M  V30 8403 O 800.324 -2.32661 0.981069 0
M  V30 8404 C 801.637 0.202076 3.0002 0
M  V30 8405 C 803.185 0.144718 3.12665 0
M  V30 8406 C 803.66 0.449272 4.55791 0
M  V30 8407 N 805.151 0.399026 4.61478 0
M  V30 8408 C 805.886 0.608106 5.70166 0
M  V30 8409 N 805.382 0.879227 6.87198 0
M  V30 8410 N 807.175 0.5402 5.59498 0
M  V30 8411 H 799.326 1.17686 1.76816 0
M  V30 8412 H 801.589 0.472072 0.822102 0
M  V30 8413 H 801.295 1.21341 3.30105 0
M  V30 8414 H 801.169 -0.480554 3.74126 0
M  V30 8415 H 803.556 -0.857261 2.82374 0
M  V30 8416 H 803.637 0.860899 2.40878 0
M  V30 8417 H 803.281 1.44871 4.86801 0
M  V30 8418 H 803.211 -0.288157 5.25811 0
M  V30 8419 H 805.702 0.197372 3.77384 0
M  V30 8420 H 806.015 1.02673 7.65949 0
M  V30 8421 H 804.36 0.916477 6.88931 0
M  V30 8422 H 807.551 0.328581 4.66945 0
M  V30 8423 H 807.724 0.706548 6.44137 0
M  V30 8424 N 801.13 -1.57531 -0.0467866 0
M  V30 8425 C 802.376 -1.89584 -0.736837 0
M  V30 8426 C 802.731 -0.82317 -1.73901 0
M  V30 8427 O 802.024 0.170098 -1.90843 0
M  V30 8428 C 802.218 -3.26091 -1.46285 0
M  V30 8429 C 802.047 -4.46536 -0.532502 0
M  V30 8430 C 800.817 -5.05046 -0.160109 0
M  V30 8431 C 803.015 -5.13979 0.181555 0
M  V30 8432 N 800.997 -6.09009 0.773349 0
M  V30 8433 C 802.368 -6.12345 0.971297 0
M  V30 8434 C 804.423 -4.9727 0.250382 0
M  V30 8435 C 803.126 -6.95802 1.82351 0
M  V30 8436 C 805.152 -5.81275 1.08965 0
M  V30 8437 C 804.514 -6.79197 1.86737 0
M  V30 8438 H 800.613 -0.742868 -0.244277 0
M  V30 8439 H 803.197 -1.947 0.0025481 0
M  V30 8440 H 801.368 -3.21938 -2.1728 0
M  V30 8441 H 803.1 -3.45715 -2.10389 0
M  V30 8442 H 799.855 -4.70754 -0.518457 0
M  V30 8443 H 800.279 -6.65658 1.23406 0
M  V30 8444 H 804.921 -4.21458 -0.336578 0
M  V30 8445 H 802.639 -7.70971 2.42134 0
M  V30 8446 H 806.225 -5.70397 1.14621 0
M  V30 8447 H 805.105 -7.4307 2.50631 0
M  V30 8448 N 802.608 0.318715 -1.54344 0
M  V30 8449 C 803.836 1.0755 -1.7675 0
M  V30 8450 C 804.251 1.81543 -0.518422 0
M  V30 8451 O 803.608 1.75198 0.511078 0
M  V30 8452 C 803.659 2.06983 -2.96378 0
M  V30 8453 O 803.38 1.35995 -4.16458 0
M  V30 8454 C 804.881 2.94841 -3.31034 0
M  V30 8455 H 802.101 0.319711 -0.589937 0
M  V30 8456 H 804.645 0.363369 -2.01246 0
M  V30 8457 H 802.8 2.73724 -2.74142 0
M  V30 8458 H 803.214 2.02623 -4.83781 0
M  V30 8459 H 804.688 3.60496 -4.18027 0
M  V30 8460 H 805.165 3.62199 -2.48412 0
M  V30 8461 H 805.771 2.33656 -3.55366 0
M  V30 8462 N 804.086 1.46499 0.581025 0
M  V30 8463 C 805.016 1.60052 1.70017 0
M  V30 8464 C 805.997 0.450788 1.64018 0
M  V30 8465 O 807.182 0.677237 1.82009 0
M  V30 8466 C 804.312 1.5921 3.08658 0
M  V30 8467 C 803.266 2.73169 3.29488 0
M  V30 8468 C 802.592 2.57389 4.68674 0
M  V30 8469 C 803.892 4.14978 3.1716 0
M  V30 8470 H 805.586 2.53735 1.5893 0
M  V30 8471 H 803.132 1.22113 0.763173 0
M  V30 8472 H 805.085 1.67285 3.86773 0
M  V30 8473 H 803.809 0.620718 3.20647 0
M  V30 8474 H 802.468 2.64566 2.53773 0
M  V30 8475 H 802.116 1.58331 4.77431 0
M  V30 8476 H 801.816 3.33826 4.83564 0
M  V30 8477 H 803.34 2.67358 5.48956 0
M  V30 8478 H 804.754 4.24684 3.85119 0
M  V30 8479 H 803.151 4.92016 3.4357 0
M  V30 8480 H 804.221 4.35016 2.14218 0
M  V30 8481 N 805.565 -0.825799 1.34232 0
M  V30 8482 C 806.497 -1.94401 1.21413 0
M  V30 8483 C 807.51 -1.6218 0.141902 0
M  V30 8484 O 808.699 -1.74109 0.3935 0
M  V30 8485 C 805.799 -3.28257 0.842635 0
M  V30 8486 C 804.972 -3.88521 2.00924 0
M  V30 8487 C 804.031 -5.00752 1.61661 0
M  V30 8488 O 803.057 -5.19201 2.33279 0
M  V30 8489 N 804.259 -5.78084 0.52911 0
M  V30 8490 H 807.024 -2.05931 2.17744 0
M  V30 8491 H 804.585 -1.00223 1.27149 0
M  V30 8492 H 806.577 -4.00781 0.561822 0
M  V30 8493 H 805.147 -3.12585 -0.0304029 0
M  V30 8494 H 804.367 -3.08425 2.45495 0
M  V30 8495 H 805.655 -4.25516 2.78951 0
M  V30 8496 H 805.053 -5.65661 -0.0663322 0
M  V30 8497 H 803.61 -6.51072 0.308017 0
M  V30 8498 N 807.043 -1.17915 -1.04565 0
M  V30 8499 C 807.976 -0.845021 -2.11978 0
M  V30 8500 C 808.954 0.19089 -1.61476 0
M  V30 8501 O 810.138 0.0709905 -1.88366 0
M  V30 8502 C 807.265 -0.261657 -3.37688 0
M  V30 8503 C 806.311 -1.27396 -4.07029 0
M  V30 8504 S 807.144 -2.82783 -4.54746 0
M  V30 8505 C 808.3 -2.25944 -5.83695 0
M  V30 8506 H 808.533 -1.75472 -2.39993 0
M  V30 8507 H 806.066 -1.00447 -1.17259 0
M  V30 8508 H 808.024 0.0684257 -4.10443 0
M  V30 8509 H 806.685 0.626082 -3.07797 0
M  V30 8510 H 805.878 -0.814557 -4.97374 0
M  V30 8511 H 805.48 -1.55002 -3.40368 0
M  V30 8512 H 807.772 -1.63892 -6.57378 0
M  V30 8513 H 808.715 -3.14569 -6.34391 0
M  V30 8514 H 809.123 -1.69155 -5.3856 0
M  V30 8515 N 808.521 1.23394 -0.980386 0
M  V30 8516 C 809.769 1.91431 -0.647978 0
M  V30 8517 C 810.09 1.76871 0.821066 0
M  V30 8518 O 809.36 1.14808 1.58732 0
M  V30 8519 H 807.94 0.708516 -0.236673 0
M  V30 8520 H 810.602 1.50019 -1.2442 0
M  V30 8521 H 809.698 2.98854 -0.899592 0
M  V30 8522 N 809.999 0.752036 1.385 0
M  V30 8523 C 811.246 0.307503 2.00152 0
M  V30 8524 C 811.574 -1.11033 1.59693 0
M  V30 8525 O 810.829 -1.77455 0.825125 0
M  V30 8526 C 811.128 0.376155 3.55415 0
M  V30 8527 C 810.794 1.74942 4.15579 0
M  V30 8528 C 809.456 2.12525 4.31725 0
M  V30 8529 C 811.808 2.65031 4.48785 0
M  V30 8530 C 809.136 3.39671 4.78373 0
M  V30 8531 C 811.488 3.91567 4.96848 0
M  V30 8532 C 810.152 4.2922 5.11201 0
M  V30 8533 H 809.422 0.112523 0.732407 0
M  V30 8534 H 812.069 0.962213 1.65571 0
M  V30 8535 H 810.374 -0.362121 3.90123 0
M  V30 8536 H 812.071 0.0138065 4.00998 0
M  V30 8537 H 808.661 1.44726 4.03426 0
M  V30 8538 H 812.845 2.3726 4.35914 0
M  V30 8539 H 808.101 3.68765 4.8767 0
M  V30 8540 H 812.275 4.61517 5.21512 0
M  V30 8541 H 809.902 5.27805 5.47107 0
M  V30 8542 N 811.477 -1.49425 0.500989 0
M  V30 8543 C 812.888 -1.86624 0.0532011 0
M  V30 8544 C 813.239 -1.41331 -1.36088 0
M  V30 8545 O 812.364 -0.791195 -2.01418 0
M  V30 8546 C 812.959 -3.38681 0.0897693 0
M  V30 8547 C 811.518 -3.75181 -0.302677 0
M  V30 8548 C 810.665 -2.73419 0.462307 0
M  V30 8549 H 813.616 -1.41743 0.713773 0
M  V30 8550 H 813.637 -3.73902 -0.705528 0
M  V30 8551 H 813.149 -3.71616 1.11907 0
M  V30 8552 H 811.25 -3.47855 -1.33521 0
M  V30 8553 H 811.363 -4.79097 0.0167653 0
M  V30 8554 H 809.727 -2.54548 -0.0878557 0
M  V30 8555 H 810.51 -3.09198 1.49169 0
M  V30 8556 N 812.955 -0.234822 -1.55841 0
M  V30 8557 C 814.201 0.393843 -1.98939 0
M  V30 8558 C 814.534 1.58466 -1.1226 0
M  V30 8559 O 813.809 1.93635 -0.183242 0
M  V30 8560 C 814.092 0.815492 -3.50745 0
M  V30 8561 C 813.945 -0.379878 -4.48193 0
M  V30 8562 C 815.264 1.66687 -4.07312 0
M  V30 8563 H 812.383 0.141681 -0.723253 0
M  V30 8564 H 815.025 -0.333716 -1.87046 0
M  V30 8565 H 813.175 1.43541 -3.6101 0
M  V30 8566 H 814.847 -1.0182 -4.49923 0
M  V30 8567 H 813.09 -1.02507 -4.21515 0
M  V30 8568 H 813.761 -0.0417069 -5.51984 0
M  V30 8569 H 816.237 1.14369 -4.00074 0
M  V30 8570 H 815.113 1.93078 -5.13821 0
M  V30 8571 H 815.374 2.63468 -3.55017 0
M  V30 8572 N 814.433 1.57553 0.0384317 0
M  V30 8573 C 815.682 1.88022 0.730108 0
M  V30 8574 C 815.995 0.83209 1.77019 0
M  V30 8575 O 817.201 1.0257 2.51379 0
M  V30 8576 C 815.657 3.33637 1.3496 0
M  V30 8577 C 815.265 4.46659 0.346352 0
M  V30 8578 C 817.009 3.73266 2.02169 0
M  V30 8579 C 814.916 5.8333 0.973652 0
M  V30 8580 H 813.846 0.701496 0.276442 0
M  V30 8581 H 816.497 1.83493 -0.0158028 0
M  V30 8582 H 814.879 3.32882 2.1449 0
M  V30 8583 H 816.053 4.58868 -0.421558 0
M  V30 8584 H 814.368 4.15802 -0.223133 0
M  V30 8585 H 816.965 4.72689 2.49938 0
M  V30 8586 H 817.308 3.04776 2.8358 0
M  V30 8587 H 817.841 3.76156 1.29427 0
M  V30 8588 H 814.58 6.55197 0.199163 0
M  V30 8589 H 814.1 5.7486 1.71162 0
M  V30 8590 H 815.779 6.29757 1.48376 0
M  V30 8591 N 815.911 -0.310526 1.54511 0
M  V30 8592 C 817.139 -1.06611 1.77318 0
M  V30 8593 C 817.554 -1.81265 0.528043 0
M  V30 8594 O 816.911 -1.75466 -0.50178 0
M  V30 8595 C 816.962 -2.05409 2.97472 0
M  V30 8596 O 816.683 -1.33785 4.17173 0
M  V30 8597 C 818.184 -2.93082 3.32593 0
M  V30 8598 H 815.404 -0.316578 0.591624 0
M  V30 8599 H 817.948 -0.352691 2.01436 0
M  V30 8600 H 816.103 -2.72266 2.7559 0
M  V30 8601 H 816.517 -2.00055 4.84849 0
M  V30 8602 H 817.991 -3.58274 4.19933 0
M  V30 8603 H 818.468 -3.60877 2.50329 0
M  V30 8604 H 819.074 -2.31768 3.566 0
M  V30 8605 N 817.389 -1.46805 -0.573248 0
M  V30 8606 C 818.635 -1.5283 -1.33307 0
M  V30 8607 C 818.968 -0.183287 -1.93333 0
M  V30 8608 O 818.243 0.806354 -1.76998 0
M  V30 8609 C 818.526 -2.63414 -2.45531 0
M  V30 8610 C 818.379 -4.07478 -1.90478 0
M  V30 8611 C 819.698 -2.70014 -3.47535 0
M  V30 8612 H 816.817 -0.556371 -0.483343 0
M  V30 8613 H 819.459 -1.78787 -0.643066 0
M  V30 8614 H 817.609 -2.41412 -3.04389 0
M  V30 8615 H 819.281 -4.40795 -1.36004 0
M  V30 8616 H 817.524 -4.16511 -1.21248 0
M  V30 8617 H 818.195 -4.80598 -2.71531 0
M  V30 8618 H 820.671 -2.89817 -2.98572 0
M  V30 8619 H 819.547 -3.49192 -4.23504 0
M  V30 8620 H 819.808 -1.76436 -4.05367 0
M  V30 8621 N 818.867 0.818669 -1.34668 0
M  V30 8622 C 820.144 1.56118 -1.17841 0
M  V30 8623 C 820.524 2.09646 0.24731 0
M  V30 8624 O 819.872 1.91329 1.24922 0
M  V30 8625 C 820.082 2.67922 -2.23649 0
M  V30 8626 C 821.43 3.36579 -2.58843 0
M  V30 8627 O 822.454 2.78182 -2.22471 0
M  V30 8628 O 821.313 4.42045 -3.21339 0
M  V30 8629 H 818.407 0.689216 -0.457067 0
M  V30 8630 H 820.953 0.859674 -1.46314 0
M  V30 8631 H 819.725 2.26153 -3.19328 0
M  V30 8632 H 819.348 3.45719 -1.96377 0
M  V30 8633 N 820.346 1.18468 1.03938 0
M  V30 8634 C 821.574 1.00576 1.80809 0
M  V30 8635 C 821.989 -0.445786 1.83462 0
M  V30 8636 O 821.346 -1.30964 1.27101 0
M  V30 8637 C 821.397 1.55491 3.26351 0
M  V30 8638 O 821.118 2.94963 3.23926 0
M  V30 8639 C 822.619 1.42236 4.19862 0
M  V30 8640 H 819.839 0.35508 0.56935 0
M  V30 8641 H 822.383 1.57046 1.30984 0
M  V30 8642 H 820.538 1.03195 3.73403 0
M  V30 8643 H 820.952 3.20598 4.15111 0
M  V30 8644 H 822.426 1.85455 5.19914 0
M  V30 8645 H 822.903 0.371267 4.37628 0
M  V30 8646 H 823.509 1.9361 3.78675 0
M  V30 8647 N 821.824 -1.22873 0.986916 0
M  V30 8648 C 823.049 -1.96028 0.677341 0
M  V30 8649 C 823.474 -1.72487 -0.750319 0
M  V30 8650 O 822.832 -1.00036 -1.51203 0
M  V30 8651 C 822.88 -3.46983 0.981593 0
M  V30 8652 O 821.984 -4.12328 0.0770729 0
M  V30 8653 H 821.325 -0.613458 0.254096 0
M  V30 8654 H 823.855 -1.56132 1.32227 0
M  V30 8655 H 823.865 -3.9747 0.920969 0
M  V30 8656 H 822.54 -3.63442 2.02194 0
M  V30 8657 H 821.117 -3.72402 0.192666 0
M  V30 8658 N 823.302 -0.75937 -1.38099 0
M  V30 8659 C 824.53 -0.329111 -2.04266 0
M  V30 8660 C 824.945 1.04453 -1.57274 0
M  V30 8661 O 824.302 1.66449 -0.748397 0
M  V30 8662 C 824.353 -0.349192 -3.5981 0
M  V30 8663 O 824.074 -1.66863 -4.05078 0
M  V30 8664 C 825.575 0.0942106 -4.432 0
M  V30 8665 H 822.795 -0.13971 -0.656294 0
M  V30 8666 H 825.339 -1.02984 -1.76677 0
M  V30 8667 H 823.494 0.302846 -3.86214 0
M  V30 8668 H 823.908 -1.59877 -4.9954 0
M  V30 8669 H 825.382 0.0290004 -5.51992 0
M  V30 8670 H 825.859 1.1429 -4.24069 0
M  V30 8671 H 826.465 -0.529171 -4.21995 0
M  V30 8672 N 824.78 1.49157 -0.508906 0
M  V30 8673 C 826.028 2.02073 0.0327335 0
M  V30 8674 C 826.349 1.39012 1.3675 0
M  V30 8675 O 825.619 0.548153 1.88075 0
M  V30 8676 H 824.199 0.746848 0.0150864 0
M  V30 8677 H 826.861 1.83097 -0.667946 0
M  V30 8678 H 825.957 3.11707 0.1566 0
M  V30 8679 N 826.258 0.243083 1.55714 0
M  V30 8680 C 827.486 -0.386971 2.03249 0
M  V30 8681 C 827.901 -1.51812 1.12243 0
M  V30 8682 O 827.258 -1.81992 0.136119 0
M  V30 8683 C 827.309 -0.898361 3.5016 0
M  V30 8684 O 827.03 0.187708 4.37698 0
M  V30 8685 C 828.531 -1.59949 4.13438 0
M  V30 8686 H 825.751 -0.0923981 0.664608 0
M  V30 8687 H 828.295 0.365832 2.01201 0
M  V30 8688 H 826.45 -1.60136 3.52754 0
M  V30 8689 H 826.864 -0.200001 5.24119 0
M  V30 8690 H 828.338 -1.90907 5.17937 0
M  V30 8691 H 828.815 -2.52014 3.59702 0
M  V30 8692 H 829.421 -0.941163 4.14756 0
M  V30 8693 N 827.736 -1.57571 -0.0300757 0
M  V30 8694 C 828.666 -2.0953 -1.03051 0
M  V30 8695 C 829.647 -0.99761 -1.37774 0
M  V30 8696 O 830.832 -1.27279 -1.46676 0
M  V30 8697 C 827.962 -2.57385 -2.33174 0
M  V30 8698 C 826.916 -3.71409 -2.12696 0
M  V30 8699 C 826.242 -4.05467 -3.4857 0
M  V30 8700 C 827.542 -4.99877 -1.51396 0
M  V30 8701 H 829.236 -2.93367 -0.597999 0
M  V30 8702 H 826.782 -1.41127 -0.286203 0
M  V30 8703 H 828.735 -2.92355 -3.03491 0
M  V30 8704 H 827.459 -1.70629 -2.78484 0
M  V30 8705 H 826.118 -3.36786 -1.44813 0
M  V30 8706 H 825.766 -3.15779 -3.91526 0
M  V30 8707 H 825.466 -4.82269 -3.35694 0
M  V30 8708 H 826.99 -4.4297 -4.2025 0
M  V30 8709 H 828.404 -5.3281 -2.11629 0
M  V30 8710 H 826.801 -5.81283 -1.49098 0
M  V30 8711 H 827.871 -4.82522 -0.479676 0
M  V30 8712 N 829.214 0.302327 -1.54673 0
M  V30 8713 C 830.439 1.06103 -1.78205 0
M  V30 8714 C 830.864 1.80204 -0.53926 0
M  V30 8715 O 830.222 1.73975 0.510142 0
M  V30 8716 C 830.27 2.01829 -2.98827 0
M  V30 8717 O 829.374 3.10108 -2.71858 0
M  V30 8718 H 828.715 0.30487 -0.589873 0
M  V30 8719 H 831.245 0.340153 -2.01753 0
M  V30 8720 H 831.255 2.44319 -3.2676 0
M  V30 8721 H 829.93 1.473 -3.88942 0
M  V30 8722 H 828.507 2.72142 -2.54937 0
M  V30 8723 N 830.692 1.47107 0.565454 0
M  V30 8724 C 831.624 1.55024 1.6882 0
M  V30 8725 C 832.637 0.4371 1.56822 0
M  V30 8726 O 833.826 0.706315 1.63931 0
M  V30 8727 C 830.926 1.43069 3.0722 0
M  V30 8728 C 830.099 2.68807 3.45053 0
M  V30 8729 C 829.158 2.50806 4.62583 0
M  V30 8730 O 828.184 3.24593 4.67577 0
M  V30 8731 N 829.386 1.58093 5.58558 0
M  V30 8732 H 832.151 2.51836 1.62477 0
M  V30 8733 H 829.712 1.43382 0.751885 0
M  V30 8734 H 831.704 1.28773 3.83666 0
M  V30 8735 H 830.274 0.543721 3.07835 0
M  V30 8736 H 829.494 2.97923 2.58138 0
M  V30 8737 H 830.782 3.52298 3.67101 0
M  V30 8738 H 830.18 0.972807 5.57273 0
M  V30 8739 H 828.737 1.49753 6.34364 0
M  V30 8740 N 832.17 -0.811516 1.35101 0
M  V30 8741 C 833.08 -1.95475 1.29718 0
M  V30 8742 C 834.096 -1.72813 0.202909 0
M  V30 8743 O 835.272 -1.96725 0.431414 0
M  V30 8744 C 832.337 -3.29975 1.06385 0
M  V30 8745 C 831.398 -3.65566 2.25077 0
M  V30 8746 C 830.631 -4.93648 2.02848 0
M  V30 8747 O 830.854 -5.617 0.992442 0
M  V30 8748 O 829.788 -5.27384 2.90087 0
M  V30 8749 H 833.614 -2.02961 2.25921 0
M  V30 8750 H 831.199 -0.948583 1.15422 0
M  V30 8751 H 833.081 -4.10506 0.951999 0
M  V30 8752 H 831.756 -3.2343 0.132294 0
M  V30 8753 H 830.663 -2.85432 2.41825 0
M  V30 8754 H 831.996 -3.7681 3.16662 0
M  V30 8755 N 833.648 -1.19017 -1.03309 0
M  V30 8756 C 834.598 -0.89194 -2.0983 0
M  V30 8757 C 835.582 0.14151 -1.60277 0
M  V30 8758 O 836.774 -0.0635946 -1.76886 0
M  V30 8759 C 833.903 -0.427793 -3.40624 0
M  V30 8760 C 832.989 -1.49374 -3.96923 0
M  V30 8761 N 833.38 -2.71213 -4.26939 0
M  V30 8762 C 831.678 -1.35605 -4.24885 0
M  V30 8763 C 832.379 -3.39849 -4.72099 0
M  V30 8764 N 831.355 -2.67239 -4.73375 0
M  V30 8765 H 835.157 -1.81801 -2.30923 0
M  V30 8766 H 832.671 -1.08171 -1.21131 0
M  V30 8767 H 834.668 -0.195608 -4.16441 0
M  V30 8768 H 833.328 0.491848 -3.20953 0
M  V30 8769 H 834.339 -3.08014 -4.16351 0
M  V30 8770 H 831.016 -0.499537 -4.14501 0
M  V30 8771 H 832.406 -4.44018 -5.04279 0
M  V30 8772 N 835.127 1.22348 -0.993418 0
M  V30 8773 C 836.374 1.9111 -0.669568 0
M  V30 8774 C 836.702 1.77357 0.79843 0
M  V30 8775 O 835.957 1.13675 1.593 0
M  V30 8776 C 836.256 3.42477 -1.02197 0
M  V30 8777 C 835.922 3.7642 -2.48232 0
M  V30 8778 C 834.584 3.85395 -2.88139 0
M  V30 8779 C 836.936 3.9253 -3.42884 0
M  V30 8780 C 834.264 4.07918 -4.21687 0
M  V30 8781 C 836.616 4.16557 -4.76091 0
M  V30 8782 C 835.28 4.23757 -5.15739 0
M  V30 8783 H 834.55 0.699321 -0.245012 0
M  V30 8784 H 837.197 1.45102 -1.2497 0
M  V30 8785 H 835.502 3.90143 -0.359921 0
M  V30 8786 H 837.199 3.93935 -0.74942 0
M  V30 8787 H 833.789 3.70017 -2.16299 0
M  V30 8788 H 837.973 3.84974 -3.13224 0
M  V30 8789 H 833.229 4.11719 -4.51993 0
M  V30 8790 H 837.403 4.27966 -5.4938 0
M  V30 8791 H 835.03 4.40962 -6.19239 0
M  V30 8792 N 836.605 0.766683 1.37694 0
M  V30 8793 C 837.535 0.163432 2.32927 0
M  V30 8794 C 838.516 -0.688861 1.55527 0
M  V30 8795 O 839.701 -0.627363 1.83787 0
M  V30 8796 C 836.831 -0.720416 3.39746 0
M  V30 8797 C 835.785 0.0301718 4.27989 0
M  V30 8798 C 835.111 -0.972788 5.25776 0
M  V30 8799 C 836.411 1.20623 5.0818 0
M  V30 8800 H 838.105 0.958988 2.83626 0
M  V30 8801 H 835.651 0.462601 1.36367 0
M  V30 8802 H 837.604 -1.15221 4.05342 0
M  V30 8803 H 836.328 -1.54844 2.8756 0
M  V30 8804 H 834.987 0.442685 3.63917 0
M  V30 8805 H 834.635 -1.79522 4.69873 0
M  V30 8806 H 834.335 -0.475145 5.85676 0
M  V30 8807 H 835.859 -1.40362 5.94248 0
M  V30 8808 H 837.273 0.851341 5.66944 0
M  V30 8809 H 835.67 1.63561 5.7738 0
M  V30 8810 H 836.74 2.01281 4.41151 0
M  V30 8811 N 838.083 -1.48885 0.516809 0
M  V30 8812 C 839.013 -2.32241 -0.242157 0
M  V30 8813 C 839.994 -1.41258 -0.947633 0
M  V30 8814 O 841.179 -1.70156 -0.935973 0
M  V30 8815 C 838.309 -3.22151 -1.29754 0
M  V30 8816 C 837.263 -4.22053 -0.710995 0
M  V30 8817 C 836.589 -5.01007 -1.86806 0
M  V30 8818 C 837.889 -5.21388 0.30853 0
M  V30 8819 H 839.583 -2.95943 0.453651 0
M  V30 8820 H 837.129 -1.42316 0.219612 0
M  V30 8821 H 839.082 -3.79284 -1.83634 0
M  V30 8822 H 837.806 -2.56423 -2.02274 0
M  V30 8823 H 836.465 -3.66087 -0.193819 0
M  V30 8824 H 836.113 -4.31713 -2.58133 0
M  V30 8825 H 835.813 -5.68615 -1.48159 0
M  V30 8826 H 837.337 -5.60989 -2.4109 0
M  V30 8827 H 838.751 -5.73122 -0.142703 0
M  V30 8828 H 837.148 -5.96975 0.611673 0
M  V30 8829 H 838.218 -4.69329 1.21894 0
M  V30 8830 N 839.561 -0.251338 -1.55583 0
M  V30 8831 C 840.838 0.422729 -1.90977 0
M  V30 8832 C 841.218 1.75534 -1.17265 0
M  V30 8833 O 840.566 2.26632 -0.291588 0
M  V30 8834 C 840.776 0.586448 -3.44037 0
M  V30 8835 C 842.124 0.880294 -4.15375 0
M  V30 8836 O 843.148 0.672148 -3.49801 0
M  V30 8837 O 842.007 1.27694 -5.31372 0
M  V30 8838 H 839.101 0.227622 -0.795058 0
M  V30 8839 H 841.647 -0.295733 -1.67103 0
M  V30 8840 H 840.419 -0.352327 -3.89711 0
M  V30 8841 H 840.042 1.35528 -3.73789 0
M  V30 8842 N 841.039 1.57585 0.0217189 0
M  V30 8843 C 842.45 1.7787 0.567377 0
M  V30 8844 C 842.801 0.883337 1.7519 0
M  V30 8845 O 841.926 0.0800819 2.16252 0
M  V30 8846 C 842.521 3.2257 1.03606 0
M  V30 8847 C 841.08 3.44026 1.52718 0
M  V30 8848 C 840.227 2.73313 0.468545 0
M  V30 8849 H 843.178 1.57377 -0.2045 0
M  V30 8850 H 843.199 3.29488 1.9031 0
M  V30 8851 H 842.711 3.87711 0.173739 0
M  V30 8852 H 840.812 2.8407 2.41111 0
M  V30 8853 H 840.925 4.52659 1.56962 0
M  V30 8854 H 839.289 2.37299 0.925263 0
M  V30 8855 H 840.072 3.41141 -0.384438 0
M  V30 8856 N 842.517 -0.29412 1.54831 0
M  V30 8857 C 843.794 -1.04847 1.65126 0
M  V30 8858 C 844.174 -2.04996 0.503986 0
M  V30 8859 O 843.522 -2.22996 -0.498496 0
M  V30 8860 C 843.732 -1.72418 3.03435 0
M  V30 8861 C 845.08 -2.24362 3.60481 0
M  V30 8862 O 846.104 -1.8244 3.05932 0
M  V30 8863 O 844.963 -3.01196 4.56008 0
M  V30 8864 H 842.057 -0.485032 0.669831 0
M  V30 8865 H 844.603 -0.291659 1.67175 0
M  V30 8866 H 843.375 -0.997351 3.78376 0
M  V30 8867 H 842.998 -2.54839 3.05193 0
M  V30 8868 N 843.995 -1.47404 -0.557645 0
M  V30 8869 C 845.22 -1.57868 -1.34508 0
M  V30 8870 C 845.645 -0.229151 -1.86699 0
M  V30 8871 O 845.003 0.794908 -1.62944 0
M  V30 8872 C 845.051 -2.60712 -2.49122 0
M  V30 8873 O 844.155 -2.15952 -3.51338 0
M  V30 8874 H 843.496 -0.530335 -0.399551 0
M  V30 8875 H 846.026 -1.93181 -0.673954 0
M  V30 8876 H 846.036 -2.81118 -2.95697 0
M  V30 8877 H 844.711 -3.58701 -2.10491 0
M  V30 8878 H 843.288 -2.05644 -3.11071 0
M  V30 8879 N 845.473 0.80434 -1.35529 0
M  V30 8880 C 846.421 1.93769 -1.28671 0
M  V30 8881 C 847.415 1.68428 -0.181222 0
M  V30 8882 O 848.621 1.76617 -0.347338 0
M  V30 8883 H 844.996 0.636663 -0.400206 0
M  V30 8884 H 846.967 1.96673 -2.24415 0
M  V30 8885 C 845.716 3.30572 -1.07784 0
M  V30 8886 H 845.039 3.5063 -1.9209 0
M  V30 8887 H 846.479 4.1027 -1.07027 0
M  V30 8888 C 844.938 3.36193 0.218213 0
M  V30 8889 O 845.468 3.82941 1.21323 0
M  V30 8890 N 843.674 2.89455 0.257761 0
M  V30 8891 H 843.221 2.51604 -0.552562 0
M  V30 8892 H 843.179 2.93597 1.12465 0
M  V30 8893 N 846.951 1.19563 1.02676 0
M  V30 8894 C 848.197 1.00105 1.76371 0
M  V30 8895 C 848.53 -0.466823 1.88506 0
M  V30 8896 O 847.805 -1.34665 1.40341 0
M  V30 8897 C 848.088 1.67321 3.18866 0
M  V30 8898 C 847.941 3.21486 3.1459 0
M  V30 8899 C 849.26 1.39794 4.17308 0
M  V30 8900 H 846.379 0.365075 0.640226 0
M  V30 8901 H 849.021 1.47433 1.19848 0
M  V30 8902 H 847.171 1.27081 3.67128 0
M  V30 8903 H 848.843 3.70953 2.7421 0
M  V30 8904 H 847.086 3.5292 2.52249 0
M  V30 8905 H 847.757 3.63665 4.15273 0
M  V30 8906 H 850.233 1.74685 3.77657 0
M  V30 8907 H 849.109 1.89371 5.15199 0
M  V30 8908 H 849.37 0.323505 4.40915 0
M  V30 8909 N 848.429 -1.21819 0.999893 0
M  V30 8910 C 849.657 -1.94758 0.698359 0
M  V30 8911 C 850.072 -1.73771 -0.738183 0
M  V30 8912 O 849.429 -1.04113 -1.49889 0
M  V30 8913 C 849.48 -3.47292 1.00353 0
M  V30 8914 O 849.201 -3.67579 2.38363 0
M  V30 8915 C 850.702 -4.37403 0.72068 0
M  V30 8916 H 847.922 -0.619512 0.257771 0
M  V30 8917 H 850.466 -1.54778 1.33656 0
M  V30 8918 H 848.621 -3.85213 0.411018 0
M  V30 8919 H 849.035 -4.61719 2.48829 0
M  V30 8920 H 850.509 -5.43151 0.984422 0
M  V30 8921 H 850.986 -4.3784 -0.345309 0
M  V30 8922 H 851.592 -4.05119 1.29456 0
M  V30 8923 N 849.908 -0.773975 -1.37286 0
M  V30 8924 C 851.324 -0.45386 -1.53011 0
M  V30 8925 C 851.524 1.03018 -1.73175 0
M  V30 8926 O 850.58 1.81597 -1.75438 0
M  V30 8927 C 851.893 -1.27087 -2.72524 0
M  V30 8928 C 853.441 -1.26299 -2.86387 0
M  V30 8929 C 853.916 -2.0634 -4.08886 0
M  V30 8930 N 855.407 -2.03706 -4.16003 0
M  V30 8931 C 856.142 -2.62418 -5.09828 0
M  V30 8932 N 855.638 -3.29926 -6.09197 0
M  V30 8933 N 857.431 -2.52236 -5.02328 0
M  V30 8934 H 849.582 -1.73551 -1.22449 0
M  V30 8935 H 851.845 -0.736874 -0.596423 0
M  V30 8936 H 851.551 -2.32263 -2.64096 0
M  V30 8937 H 851.425 -0.90157 -3.66267 0
M  V30 8938 H 853.812 -0.219213 -2.94285 0
M  V30 8939 H 853.893 -1.67195 -1.93596 0
M  V30 8940 H 853.537 -3.10741 -4.01749 0
M  V30 8941 H 853.467 -1.62825 -5.00795 0
M  V30 8942 H 855.958 -1.54559 -3.44848 0
M  V30 8943 H 856.271 -3.72095 -6.77322 0
M  V30 8944 H 854.616 -3.34026 -6.09469 0
M  V30 8945 H 857.807 -1.99108 -4.23643 0
M  V30 8946 H 857.98 -2.98286 -5.75265 0
M  V30 8947 N 851.386 1.48609 -0.524698 0
M  V30 8948 C 852.797 1.86516 -0.0828846 0
M  V30 8949 C 853.148 1.43478 1.33822 0
M  V30 8950 O 852.273 0.823139 2.00133 0
M  V30 8951 C 852.868 3.38495 -0.143639 0
M  V30 8952 C 851.427 3.75615 0.242951 0
M  V30 8953 C 850.574 2.72649 -0.505747 0
M  V30 8954 H 853.525 1.40589 -0.736233 0
M  V30 8955 H 853.546 3.74977 0.645955 0
M  V30 8956 H 853.058 3.69789 -1.17805 0
M  V30 8957 H 851.159 3.49935 1.27971 0
M  V30 8958 H 851.272 4.7901 -0.0929834 0
M  V30 8959 H 849.636 2.54656 0.0473482 0
M  V30 8960 H 850.419 3.06786 -1.54069 0
M  V30 8961 N 852.864 0.259585 1.55447 0
M  V30 8962 C 854.089 -0.368317 2.04103 0
M  V30 8963 C 854.514 -1.49827 1.13725 0
M  V30 8964 O 853.872 -1.80814 0.132705 0
M  V30 8965 C 853.92 -0.841506 3.50644 0
M  V30 8966 O 853.024 -1.95008 3.63381 0
M  V30 8967 H 852.365 -0.0785227 0.659341 0
M  V30 8968 H 854.895 0.389349 2.00861 0
M  V30 8969 H 854.905 -1.14138 3.9171 0
M  V30 8970 H 853.58 -0.0147001 4.15897 0
M  V30 8971 H 852.157 -1.65393 3.34215 0
M  V30 8972 N 854.342 -1.57594 -0.0133615 0
M  V30 8973 C 855.252 -2.10991 -1.02566 0
M  V30 8974 C 856.268 -1.05208 -1.3859 0
M  V30 8975 O 857.444 -1.37034 -1.47593 0
M  V30 8976 C 854.509 -2.59165 -2.30292 0
M  V30 8977 C 853.57 -3.79495 -2.00704 0
M  V30 8978 C 852.803 -4.25361 -3.22341 0
M  V30 8979 O 853.026 -3.70645 -4.33565 0
M  V30 8980 O 851.96 -5.17649 -3.07121 0
M  V30 8981 H 855.786 -2.97678 -0.601806 0
M  V30 8982 H 853.371 -1.47598 -0.23135 0
M  V30 8983 H 855.253 -2.90409 -3.05354 0
M  V30 8984 H 853.928 -1.75582 -2.71942 0
M  V30 8985 H 852.835 -3.53245 -1.23161 0
M  V30 8986 H 854.168 -4.64109 -1.639 0
M  V30 8987 N 855.82 0.285905 -1.54985 0
M  V30 8988 C 857.067 1.0192 -1.74982 0
M  V30 8989 C 857.395 1.86743 -0.543816 0
M  V30 8990 O 856.65 1.89874 0.473972 0
M  V30 8991 C 856.949 1.94193 -3.0004 0
M  V30 8992 C 856.615 1.25225 -4.33162 0
M  V30 8993 C 855.277 1.06149 -4.69346 0
M  V30 8994 C 857.629 0.760427 -5.15623 0
M  V30 8995 C 854.957 0.365991 -5.85557 0
M  V30 8996 C 857.309 0.0785787 -6.32551 0
M  V30 8997 C 855.973 -0.124002 -6.67385 0
M  V30 8998 H 855.243 0.372951 -0.640304 0
M  V30 8999 H 857.89 0.292652 -1.89251 0
M  V30 9000 H 856.195 2.73426 -2.80616 0
M  V30 9001 H 857.892 2.51029 -3.12707 0
M  V30 9002 H 854.482 1.41081 -4.04715 0
M  V30 9003 H 858.666 0.895466 -4.88155 0
M  V30 9004 H 853.922 0.198193 -6.11079 0
M  V30 9005 H 858.096 -0.310339 -6.95708 0
M  V30 9006 H 855.723 -0.664918 -7.57287 0
M  V30 9007 N 857.298 1.47698 0.54982 0
M  V30 9008 C 858.246 1.61156 1.67724 0
M  V30 9009 C 859.24 0.478606 1.62498 0
M  V30 9010 O 860.446 0.656661 1.67595 0
M  V30 9011 H 856.821 0.507304 0.55511 0
M  V30 9012 H 858.792 2.55884 1.53512 0
M  V30 9013 C 857.541 1.64994 3.06059 0
M  V30 9014 H 856.864 2.51525 3.10765 0
M  V30 9015 H 858.304 1.78459 3.84615 0
M  V30 9016 C 856.763 0.384677 3.34697 0
M  V30 9017 O 857.293 -0.511057 3.98436 0
M  V30 9018 N 855.499 0.262434 2.89413 0
M  V30 9019 H 855.046 0.99229 2.37721 0
M  V30 9020 H 855.004 -0.583177 3.08944 0
M  V30 9021 N 858.776 -0.797141 1.35954 0
M  V30 9022 C 860.006 -1.5835 1.32698 0
M  V30 9023 C 860.414 -1.88959 -0.0955298 0
M  V30 9024 O 859.757 -1.49987 -1.06064 0
M  V30 9025 C 859.819 -2.93529 2.0756 0
M  V30 9026 C 859.483 -2.85688 3.56695 0
M  V30 9027 C 860.48 -2.58467 4.51099 0
M  V30 9028 C 858.165 -3.04508 3.99475 0
M  V30 9029 C 860.159 -2.50157 5.8626 0
M  V30 9030 C 857.846 -2.9582 5.34728 0
M  V30 9031 C 858.844 -2.68681 6.27933 0
M  V30 9032 O 858.532 -2.59973 7.60703 0
M  V30 9033 H 858.264 -0.49807 0.457059 0
M  V30 9034 H 860.818 -0.997889 1.79531 0
M  V30 9035 H 859.048 -3.54111 1.55378 0
M  V30 9036 H 860.737 -3.54744 1.9726 0
M  V30 9037 H 861.503 -2.43638 4.19363 0
M  V30 9038 H 857.382 -3.24641 3.27306 0
M  V30 9039 H 860.926 -2.28894 6.58979 0
M  V30 9040 H 856.823 -3.10211 5.66074 0
M  V30 9041 H 857.591 -2.75511 7.70737 0
M  V30 9042 N 860.254 -1.20106 -1.0204 0
M  V30 9043 C 861.5 -1.01039 -1.75838 0
M  V30 9044 C 861.833 0.456819 -1.88751 0
M  V30 9045 O 861.108 1.33919 -1.41053 0
M  V30 9046 C 861.391 -1.69009 -3.17975 0
M  V30 9047 C 861.244 -3.2315 -3.1288 0
M  V30 9048 C 862.563 -1.42005 -4.16561 0
M  V30 9049 H 859.682 -0.368465 -0.638281 0
M  V30 9050 H 862.324 -1.48066 -1.19064 0
M  V30 9051 H 860.474 -1.29026 -3.66449 0
M  V30 9052 H 862.146 -3.72402 -2.72239 0
M  V30 9053 H 860.389 -3.54253 -2.50374 0
M  V30 9054 H 861.06 -3.65862 -4.13339 0
M  V30 9055 H 863.536 -1.76685 -3.76725 0
M  V30 9056 H 862.412 -1.92101 -5.14187 0
M  V30 9057 H 862.673 -0.346884 -4.40737 0
M  V30 9058 N 861.732 1.21287 -1.00634 0
M  V30 9059 C 862.978 1.90957 -0.70051 0
M  V30 9060 C 863.333 1.76729 0.760567 0
M  V30 9061 O 862.626 1.13405 1.54434 0
M  V30 9062 C 862.82 3.41374 -1.05824 0
M  V30 9063 C 862.649 3.70237 -2.55254 0
M  V30 9064 C 861.419 3.89518 -3.21876 0
M  V30 9065 C 863.617 3.73633 -3.53417 0
M  V30 9066 N 861.599 4.05809 -4.60643 0
M  V30 9067 C 862.97 3.95225 -4.777 0
M  V30 9068 C 865.025 3.56545 -3.47534 0
M  V30 9069 C 863.728 4.01502 -5.96815 0
M  V30 9070 C 865.754 3.64089 -4.6604 0
M  V30 9071 C 865.116 3.86144 -5.89128 0
M  V30 9072 H 861.215 0.718861 -0.307835 0
M  V30 9073 H 863.799 1.45913 -1.28908 0
M  V30 9074 H 861.97 3.85193 -0.498106 0
M  V30 9075 H 863.702 3.98476 -0.707006 0
M  V30 9076 H 860.457 3.87479 -2.72318 0
M  V30 9077 H 860.881 4.17854 -5.32661 0
M  V30 9078 H 865.523 3.38469 -2.53375 0
M  V30 9079 H 863.241 4.18378 -6.91365 0
M  V30 9080 H 866.827 3.52188 -4.63092 0
M  V30 9081 H 865.707 3.91827 -6.79295 0
M  V30 9082 N 863.21 0.781244 1.36873 0
M  V30 9083 C 864.459 0.34652 1.98701 0
M  V30 9084 C 864.772 -1.08555 1.62712 0
M  V30 9085 O 865.978 -1.62213 2.17713 0
M  V30 9086 C 864.434 0.568611 3.5538 0
M  V30 9087 C 864.042 2.01156 4.003 0
M  V30 9088 C 865.786 0.197983 4.24038 0
M  V30 9089 C 863.693 2.18074 5.49725 0
M  V30 9090 H 862.623 0.125821 0.743428 0
M  V30 9091 H 865.274 0.961721 1.56279 0
M  V30 9092 H 863.656 -0.116185 3.9583 0
M  V30 9093 H 864.83 2.73209 3.71071 0
M  V30 9094 H 863.145 2.33967 3.44454 0
M  V30 9095 H 865.742 0.302778 5.33842 0
M  V30 9096 H 866.085 -0.852927 4.07469 0
M  V30 9097 H 866.618 0.835696 3.88923 0
M  V30 9098 H 863.357 3.21519 5.71232 0
M  V30 9099 H 862.877 1.50517 5.80607 0
M  V30 9100 H 864.556 1.98393 6.15832 0
M  V30 9101 N 864.689 -1.48329 0.532571 0
M  V30 9102 C 865.935 -2.028 -0.000583219 0
M  V30 9103 C 866.268 -1.40858 -1.33688 0
M  V30 9104 O 865.543 -0.555261 -1.86406 0
M  V30 9105 C 865.826 -3.59901 -0.119846 0
M  V30 9106 C 865.679 -4.32318 1.2418 0
M  V30 9107 C 866.998 -4.31904 -0.845372 0
M  V30 9108 H 864.117 -0.736999 0.00126205 0
M  V30 9109 H 866.759 -1.77024 0.690102 0
M  V30 9110 H 864.909 -3.81993 -0.708092 0
M  V30 9111 H 866.581 -4.21637 1.87136 0
M  V30 9112 H 864.824 -3.93635 1.82301 0
M  V30 9113 H 865.495 -5.40697 1.11132 0
M  V30 9114 H 867.971 -4.14658 -0.346159 0
M  V30 9115 H 866.847 -5.41509 -0.897723 0
M  V30 9116 H 867.108 -3.99369 -1.89622 0
M  V30 9117 N 866.167 -0.267825 -1.55308 0
M  V30 9118 C 867.578 0.231344 -1.85261 0
M  V30 9119 C 867.929 1.56006 -1.18982 0
M  V30 9120 O 867.054 2.1111 -0.475554 0
M  V30 9121 C 867.649 0.426537 -3.36104 0
M  V30 9122 C 866.208 0.869945 -3.66209 0
M  V30 9123 C 865.355 -0.0409522 -2.7727 0
M  V30 9124 H 868.306 -0.489821 -1.50952 0
M  V30 9125 H 868.327 1.26616 -3.58816 0
M  V30 9126 H 867.839 -0.540678 -3.84315 0
M  V30 9127 H 865.94 1.84889 -3.23492 0
M  V30 9128 H 866.053 0.712316 -4.73775 0
M  V30 9129 H 864.417 0.474097 -2.50249 0
M  V30 9130 H 865.2 -1.00392 -3.28293 0
M  V30 9131 N 867.645 1.57599 0.00500368 0
M  V30 9132 C 868.894 1.89528 0.690061 0
M  V30 9133 C 869.207 0.869451 1.75214 0
M  V30 9134 O 870.413 1.07879 2.49147 0
M  V30 9135 C 868.869 3.36425 1.27852 0
M  V30 9136 C 868.477 4.47293 0.251531 0
M  V30 9137 C 870.221 3.77471 1.94206 0
M  V30 9138 C 868.128 5.85264 0.8497 0
M  V30 9139 H 867.058 0.707201 0.2615 0
M  V30 9140 H 869.709 1.83418 -0.0547209 0
M  V30 9141 H 868.091 3.37356 2.07381 0
M  V30 9142 H 869.265 4.5787 -0.518796 0
M  V30 9143 H 867.58 4.15235 -0.311281 0
M  V30 9144 H 870.177 4.77884 2.39855 0
M  V30 9145 H 870.52 3.10722 2.77051 0
M  V30 9146 H 871.053 3.78817 1.21419 0
M  V30 9147 H 867.792 6.55472 0.0601408 0
M  V30 9148 H 867.312 5.78361 1.5893 0
M  V30 9149 H 868.991 6.32762 1.34984 0
M  V30 9150 N 869.123 -0.277682 1.55134 0
M  V30 9151 C 870.351 -1.02826 1.7954 0
M  V30 9152 C 870.766 -1.80105 0.566373 0
M  V30 9153 O 870.123 -1.76491 -0.464448 0
M  V30 9154 C 870.174 -1.99053 3.01762 0
M  V30 9155 O 869.895 -1.24906 4.19917 0
M  V30 9156 C 871.396 -2.85961 3.38735 0
M  V30 9157 H 868.616 -0.303958 0.598206 0
M  V30 9158 H 871.16 -0.309884 2.02138 0
M  V30 9159 H 869.315 -2.66359 2.81303 0
M  V30 9160 H 869.729 -1.89725 4.88983 0
M  V30 9161 H 871.203 -3.49286 4.27438 0
M  V30 9162 H 871.68 -3.55486 2.57928 0
M  V30 9163 H 872.286 -2.24152 3.61436 0
M  V30 9164 N 870.601 -1.47988 -0.541979 0
M  V30 9165 C 871.826 -1.59286 -1.32826 0
M  V30 9166 C 872.251 -0.24894 -1.86445 0
M  V30 9167 O 871.609 0.777581 -1.63778 0
M  V30 9168 C 871.657 -2.6334 -2.46343 0
M  V30 9169 O 870.761 -2.19667 -3.49028 0
M  V30 9170 H 870.102 -0.534543 -0.393903 0
M  V30 9171 H 872.632 -1.93885 -0.653427 0
M  V30 9172 H 872.642 -2.84238 -2.92699 0
M  V30 9173 H 871.317 -3.60913 -2.06675 0
M  V30 9174 H 869.894 -2.08932 -3.08872 0
M  V30 9175 N 872.079 0.78992 -1.36375 0
M  V30 9176 C 873.328 1.54296 -1.29906 0
M  V30 9177 C 873.641 1.95234 0.119651 0
M  V30 9178 O 874.847 2.69762 0.306708 0
M  V30 9179 C 873.303 2.78533 -2.27919 0
M  V30 9180 C 872.911 2.44767 -3.75224 0
M  V30 9181 C 874.655 3.56516 -2.30427 0
M  V30 9182 C 872.562 3.65397 -4.65015 0
M  V30 9183 H 871.492 0.579214 -0.482729 0
M  V30 9184 H 874.143 0.866845 -1.61735 0
M  V30 9185 H 872.525 3.47941 -1.89084 0
M  V30 9186 H 873.699 1.83259 -4.22792 0
M  V30 9187 H 872.014 1.79996 -3.75487 0
M  V30 9188 H 874.611 4.46143 -2.94722 0
M  V30 9189 H 874.954 3.95063 -1.31266 0
M  V30 9190 H 875.487 2.94087 -2.67876 0
M  V30 9191 H 872.226 3.31946 -5.65236 0
M  V30 9192 H 871.746 4.26072 -4.22164 0
M  V30 9193 H 873.425 4.32431 -4.81261 0
M  V30 9194 N 873.557 1.20646 1.01402 0
M  V30 9195 C 874.973 0.961866 1.27359 0
M  V30 9196 C 875.173 -0.357083 1.98311 0
M  V30 9197 O 874.229 -1.08498 2.28001 0
M  V30 9198 C 875.542 2.14627 2.10609 0
M  V30 9199 C 877.09 2.18753 2.23866 0
M  V30 9200 C 877.565 3.36686 3.10494 0
M  V30 9201 N 879.056 3.36716 3.18083 0
M  V30 9202 C 879.791 4.24615 3.85343 0
M  V30 9203 N 879.287 5.22697 4.54708 0
M  V30 9204 N 881.08 4.12449 3.81893 0
M  V30 9205 H 873.231 2.05481 0.537721 0
M  V30 9206 H 875.494 0.899292 0.299963 0
M  V30 9207 H 875.2 3.10159 1.65814 0
M  V30 9208 H 875.074 2.12935 3.11349 0
M  V30 9209 H 877.461 1.23782 2.67885 0
M  V30 9210 H 877.542 2.24492 1.22626 0
M  V30 9211 H 877.186 4.31945 2.67181 0
M  V30 9212 H 877.116 3.28185 4.11828 0
M  V30 9213 H 879.607 2.65728 2.68695 0
M  V30 9214 H 879.92 5.86087 5.03708 0
M  V30 9215 H 878.265 5.26631 4.53525 0
M  V30 9216 H 881.456 3.35091 3.26851 0
M  V30 9217 H 881.629 4.81162 4.34035 0
M  V30 9218 N 875.035 -1.20752 1.01276 0
M  V30 9219 C 876.312 -1.85676 0.615112 0
M  V30 9220 C 876.692 -1.90623 -0.906976 0
M  V30 9221 O 876.04 -1.41124 -1.79712 0
M  V30 9222 C 876.25 -3.2552 1.25847 0
M  V30 9223 C 877.598 -4.0184 1.37148 0
M  V30 9224 O 878.622 -3.3486 1.21438 0
M  V30 9225 O 877.481 -5.21783 1.62495 0
M  V30 9226 H 874.575 -0.799437 0.211729 0
M  V30 9227 H 877.121 -1.28372 1.10989 0
M  V30 9228 H 875.893 -3.16664 2.29869 0
M  V30 9229 H 875.516 -3.90452 0.750524 0
M  V30 9230 N 876.513 -0.788492 -1.36457 0
M  V30 9231 C 877.761 -0.359749 -1.98872 0
M  V30 9232 C 878.082 1.07197 -1.62892 0
M  V30 9233 O 877.352 1.73875 -0.902463 0
M  V30 9234 H 875.932 -0.130029 -0.735596 0
M  V30 9235 H 878.594 -1.01033 -1.66668 0
M  V30 9236 H 877.69 -0.450835 -3.08827 0
M  V30 9237 N 877.991 1.48044 -0.54043 0
M  V30 9238 C 879.407 1.58354 -0.199006 0
M  V30 9239 C 879.607 1.54118 1.29807 0
M  V30 9240 O 878.663 1.43573 2.07709 0
M  V30 9241 C 879.976 2.89563 -0.810797 0
M  V30 9242 C 881.524 3.03113 -0.780486 0
M  V30 9243 C 881.999 4.36997 -1.37104 0
M  V30 9244 N 883.49 4.43591 -1.33347 0
M  V30 9245 C 884.225 5.45714 -1.76021 0
M  V30 9246 N 883.721 6.54738 -2.26473 0
M  V30 9247 N 885.514 5.36659 -1.67194 0
M  V30 9248 H 877.665 1.49041 -1.51329 0
M  V30 9249 H 879.928 0.708309 -0.630081 0
M  V30 9250 H 879.634 2.9835 -1.86227 0
M  V30 9251 H 879.508 3.76053 -0.293977 0
M  V30 9252 H 881.895 2.93932 0.262246 0
M  V30 9253 H 881.976 2.18207 -1.33489 0
M  V30 9254 H 881.62 4.46932 -2.41276 0
M  V30 9255 H 881.55 5.20607 -0.792229 0
M  V30 9256 H 884.041 3.65391 -0.964259 0
M  V30 9257 H 884.354 7.28814 -2.57002 0
M  V30 9258 H 882.699 6.55673 -2.30473 0
M  V30 9259 H 885.89 4.50382 -1.27569 0
M  V30 9260 H 886.063 6.16113 -2.00771 0
M  V30 9261 N 879.47 0.276058 1.55163 0
M  V30 9262 C 880.402 -0.644254 2.19959 0
M  V30 9263 C 881.415 -1.11675 1.18459 0
M  V30 9264 O 882.604 -1.0385 1.45181 0
M  V30 9265 C 879.704 -1.89093 2.81242 0
M  V30 9266 C 878.877 -1.56509 4.08441 0
M  V30 9267 C 877.936 -2.66433 4.53762 0
M  V30 9268 O 876.962 -2.32579 5.19515 0
M  V30 9269 N 878.164 -3.96509 4.23982 0
M  V30 9270 H 880.929 -0.0896808 2.99566 0
M  V30 9271 H 878.49 0.0971981 1.61608 0
M  V30 9272 H 880.482 -2.61929 3.08505 0
M  V30 9273 H 879.052 -2.35453 2.05622 0
M  V30 9274 H 878.272 -0.670522 3.88455 0
M  V30 9275 H 879.56 -1.32242 4.91314 0
M  V30 9276 H 878.958 -4.26834 3.71254 0
M  V30 9277 H 877.515 -4.6572 4.56014 0
M  V30 9278 N 880.948 -1.576 0.00335426 0
M  V30 9279 C 881.88 -2.0549 -1.01521 0
M  V30 9280 C 882.893 -0.973441 -1.30491 0
M  V30 9281 O 884.082 -1.25017 -1.27409 0
M  V30 9282 C 881.182 -2.44272 -2.34914 0
M  V30 9283 C 880.355 -3.75191 -2.24835 0
M  V30 9284 C 879.414 -4.00804 -3.40944 0
M  V30 9285 O 878.44 -4.71423 -3.18981 0
M  V30 9286 N 879.642 -3.48961 -4.63904 0
M  V30 9287 H 882.407 -2.93493 -0.60678 0
M  V30 9288 H 879.968 -1.60851 -0.18396 0
M  V30 9289 H 881.96 -2.58518 -3.11369 0
M  V30 9290 H 880.53 -1.6177 -2.67487 0
M  V30 9291 H 879.75 -3.70989 -1.3327 0
M  V30 9292 H 881.038 -4.61013 -2.15277 0
M  V30 9293 H 880.436 -2.9178 -4.84645 0
M  V30 9294 H 878.993 -3.68531 -5.37613 0
M  V30 9295 N 882.426 0.269451 -1.5528 0
M  V30 9296 C 883.358 1.35553 -1.84819 0
M  V30 9297 C 884.371 1.45369 -0.732914 0
M  V30 9298 O 885.56 1.47122 -1.0108 0
M  V30 9299 C 882.66 2.73645 -1.9993 0
M  V30 9300 C 881.833 2.86376 -3.30617 0
M  V30 9301 C 880.892 4.05165 -3.35749 0
M  V30 9302 O 879.918 3.95756 -4.09104 0
M  V30 9303 N 881.12 5.17297 -2.63408 0
M  V30 9304 H 883.885 1.10557 -2.78563 0
M  V30 9305 H 881.446 0.459566 -1.5524 0
M  V30 9306 H 883.438 3.51411 -2.00729 0
M  V30 9307 H 882.008 2.91448 -1.13035 0
M  V30 9308 H 881.228 1.95465 -3.42326 0
M  V30 9309 H 882.516 2.91815 -4.16799 0
M  V30 9310 H 881.914 5.2783 -2.03501 0
M  V30 9311 H 880.471 5.93281 -2.69927 0
M  V30 9312 N 883.904 1.48273 0.534124 0
M  V30 9313 C 885.181 1.46567 1.29528 0
M  V30 9314 C 885.561 0.17509 2.10373 0
M  V30 9315 O 884.909 -0.843228 2.12372 0
M  V30 9316 C 885.119 2.72519 2.18023 0
M  V30 9317 C 886.467 3.2068 2.78298 0
M  V30 9318 O 887.491 2.73408 2.28313 0
M  V30 9319 O 886.35 4.02924 3.69208 0
M  V30 9320 H 883.444 0.585151 0.584403 0
M  V30 9321 H 885.99 1.60502 0.551119 0
M  V30 9322 H 884.762 3.57965 1.5804 0
M  V30 9323 H 884.385 2.61285 2.99693 0
M  V30 9324 N 885.382 -0.782676 1.36792 0
M  V30 9325 C 886.612 -1.56934 1.3437 0
M  V30 9326 C 887.02 -1.89049 -0.0754828 0
M  V30 9327 O 886.363 -1.51103 -1.04467 0
M  V30 9328 C 886.425 -2.91311 2.10661 0
M  V30 9329 C 886.089 -2.81889 3.59705 0
M  V30 9330 C 887.086 -2.53668 4.53815 0
M  V30 9331 C 884.771 -3.00254 4.02682 0
M  V30 9332 C 886.765 -2.43925 5.8888 0
M  V30 9333 C 884.452 -2.90132 5.37835 0
M  V30 9334 C 885.45 -2.62006 6.30747 0
M  V30 9335 O 885.138 -2.5189 7.63418 0
M  V30 9336 H 884.87 -0.493194 0.462316 0
M  V30 9337 H 887.424 -0.978791 1.80579 0
M  V30 9338 H 885.654 -3.52443 1.59125 0
M  V30 9339 H 887.343 -3.52632 2.01012 0
M  V30 9340 H 888.109 -2.39176 4.21924 0
M  V30 9341 H 883.988 -3.21151 3.30731 0
M  V30 9342 H 887.532 -2.21892 6.6137 0
M  V30 9343 H 883.429 -3.04189 5.69332 0
M  V30 9344 H 884.197 -2.67321 7.73616 0
M  V30 9345 N 886.86 -1.21182 -1.00761 0
M  V30 9346 C 888.106 -1.03903 -1.74859 0
M  V30 9347 C 888.461 0.423347 -1.87685 0
M  V30 9348 O 887.754 1.31001 -1.39819 0
M  V30 9349 C 887.948 -1.6667 -3.16158 0
M  V30 9350 C 887.777 -3.1886 -3.1711 0
M  V30 9351 C 886.547 -3.87888 -3.23838 0
M  V30 9352 C 888.745 -4.15978 -3.02434 0
M  V30 9353 N 886.727 -5.27289 -3.14388 0
M  V30 9354 C 888.098 -5.42114 -3.00854 0
M  V30 9355 C 890.153 -4.0706 -2.86717 0
M  V30 9356 C 888.856 -6.60358 -2.85166 0
M  V30 9357 C 890.882 -5.24938 -2.72386 0
M  V30 9358 C 890.244 -6.49983 -2.71479 0
M  V30 9359 H 886.343 -0.434522 -0.650165 0
M  V30 9360 H 888.927 -1.53495 -1.1978 0
M  V30 9361 H 887.098 -1.19649 -3.69511 0
M  V30 9362 H 888.83 -1.42622 -3.78736 0
M  V30 9363 H 885.585 -3.38798 -3.30927 0
M  V30 9364 H 886.009 -6.00293 -3.13013 0
M  V30 9365 H 890.651 -3.11183 -2.86226 0
M  V30 9366 H 888.369 -7.56399 -2.84405 0
M  V30 9367 H 891.955 -5.19857 -2.61228 0
M  V30 9368 H 890.835 -7.39662 -2.6052 0
M  V30 9369 N 888.338 1.20213 -1.01915 0
M  V30 9370 C 889.268 2.25336 -0.612023 0
M  V30 9371 C 890.249 1.65933 0.374186 0
M  V30 9372 O 891.434 1.92464 0.259053 0
M  V30 9373 C 888.564 3.47267 0.047904 0
M  V30 9374 C 887.518 4.1928 -0.859557 0
M  V30 9375 C 886.844 5.3466 -0.0652655 0
M  V30 9376 C 888.144 4.75143 -2.1688 0
M  V30 9377 H 889.838 2.59645 -1.49079 0
M  V30 9378 H 887.384 1.24808 -0.718263 0
M  V30 9379 H 889.337 4.19991 0.344294 0
M  V30 9380 H 888.061 3.12129 0.961404 0
M  V30 9381 H 886.72 3.48425 -1.13999 0
M  V30 9382 H 886.368 4.95767 0.849964 0
M  V30 9383 H 886.068 5.83772 -0.669618 0
M  V30 9384 H 887.592 6.10187 0.224612 0
M  V30 9385 H 889.006 5.39672 -1.9346 0
M  V30 9386 H 887.403 5.34702 -2.72422 0
M  V30 9387 H 888.473 3.93744 -2.83008 0
M  V30 9388 N 889.816 0.795718 1.36037 0
M  V30 9389 C 891.065 0.367575 1.98322 0
M  V30 9390 C 891.378 -1.06823 1.63854 0
M  V30 9391 O 892.584 -1.59895 2.19421 0
M  V30 9392 C 891.04 0.606272 3.54757 0
M  V30 9393 C 890.648 2.0539 3.98144 0
M  V30 9394 C 892.392 0.242947 4.23804 0
M  V30 9395 C 890.299 2.23893 5.47381 0
M  V30 9396 H 889.229 0.133699 0.742052 0
M  V30 9397 H 891.88 0.978242 1.5525 0
M  V30 9398 H 890.262 -0.0741957 3.9593 0
M  V30 9399 H 891.436 2.77129 3.68152 0
M  V30 9400 H 889.751 2.37607 3.41953 0
M  V30 9401 H 892.348 0.359382 5.33491 0
M  V30 9402 H 892.691 -0.809661 4.08351 0
M  V30 9403 H 893.224 0.876899 3.88015 0
M  V30 9404 H 889.963 3.27559 5.6779 0
M  V30 9405 H 889.483 1.56666 5.78978 0
M  V30 9406 H 891.162 2.04914 6.13693 0
M  V30 9407 N 891.294 -1.47756 0.548274 0
M  V30 9408 C 892.571 -1.9555 -0.0443603 0
M  V30 9409 C 892.951 -1.49079 -1.49462 0
M  V30 9410 O 892.299 -0.725538 -2.16675 0
M  V30 9411 C 892.509 -3.48879 0.0918425 0
M  V30 9412 C 893.857 -4.2456 -0.0580879 0
M  V30 9413 O 894.881 -3.56195 0.018946 0
M  V30 9414 O 893.74 -5.46048 -0.222261 0
M  V30 9415 H 890.834 -0.824106 -0.0691235 0
M  V30 9416 H 893.38 -1.58196 0.614166 0
M  V30 9417 H 892.152 -3.7548 1.10137 0
M  V30 9418 H 891.775 -3.92975 -0.604704 0
M  V30 9419 N 892.772 -0.284283 -1.55015 0
M  V30 9420 C 894.018 0.330352 -2.00091 0
M  V30 9421 C 894.351 1.54814 -1.17244 0
M  V30 9422 O 893.626 1.92954 -0.244753 0
M  V30 9423 C 893.909 0.703492 -3.53161 0
M  V30 9424 C 893.762 -0.522275 -4.46758 0
M  V30 9425 C 895.081 1.53645 -4.12409 0
M  V30 9426 H 892.2 0.118599 -0.727395 0
M  V30 9427 H 894.842 -0.393054 -1.8589 0
M  V30 9428 H 892.992 1.31983 -3.65394 0
M  V30 9429 H 894.664 -1.16082 -4.46456 0
M  V30 9430 H 892.907 -1.15865 -4.1804 0
M  V30 9431 H 893.578 -0.217295 -5.51572 0
M  V30 9432 H 896.054 1.01583 -4.0351 0
M  V30 9433 H 894.93 1.76633 -5.19704 0
M  V30 9434 H 895.191 2.5204 -3.63219 0
M  V30 9435 N 894.251 1.57596 -0.0117121 0
M  V30 9436 C 895.667 1.55837 0.344506 0
M  V30 9437 C 895.867 1.01557 1.74036 0
M  V30 9438 O 894.923 0.654563 2.43868 0
M  V30 9439 C 896.236 2.99973 0.209023 0
M  V30 9440 C 897.784 3.11717 0.283092 0
M  V30 9441 C 898.259 4.57659 0.176599 0
M  V30 9442 N 899.75 4.62608 0.234133 0
M  V30 9443 C 900.485 5.73132 0.175252 0
M  V30 9444 N 899.981 6.92768 0.0662888 0
M  V30 9445 N 901.774 5.61638 0.227972 0
M  V30 9446 H 893.925 1.91215 -0.924692 0
M  V30 9447 H 896.188 0.878807 -0.355531 0
M  V30 9448 H 895.894 3.4357 -0.751826 0
M  V30 9449 H 895.768 3.64075 0.98635 0
M  V30 9450 H 898.155 2.68043 1.23439 0
M  V30 9451 H 898.236 2.50369 -0.52431 0
M  V30 9452 H 897.88 5.02011 -0.771205 0
M  V30 9453 H 897.81 5.16967 1.00264 0
M  V30 9454 H 900.301 3.76549 0.319203 0
M  V30 9455 H 900.614 7.72795 0.0275765 0
M  V30 9456 H 898.959 6.94993 0.0317502 0
M  V30 9457 H 902.15 4.67063 0.311377 0
M  V30 9458 H 902.323 6.47754 0.178621 0
M  V30 9459 N 895.729 -0.261212 1.5542 0
M  V30 9460 C 896.692 -1.30645 1.8832 0
M  V30 9461 C 897.692 -1.41782 0.758588 0
M  V30 9462 O 898.882 -1.40729 1.02669 0
M  V30 9463 C 896.014 -2.6862 2.09895 0
M  V30 9464 H 897.207 -1.02698 2.81768 0
M  V30 9465 H 894.76 -0.499838 1.48092 0
M  V30 9466 H 895.495 -3.0173 1.18868 0
M  V30 9467 H 895.28 -2.61921 2.91787 0
M  V30 9468 H 896.77 -3.44121 2.36581 0
M  V30 9469 N 897.207 -1.48554 -0.526253 0
M  V30 9470 C 898.139 -1.59446 -1.6465 0
M  V30 9471 C 899.152 -0.478525 -1.55608 0
M  V30 9472 O 900.341 -0.74953 -1.62001 0
M  V30 9473 C 897.441 -1.51164 -3.03319 0
M  V30 9474 C 896.614 -2.77861 -3.37805 0
M  V30 9475 C 895.673 -2.62982 -4.5577 0
M  V30 9476 O 894.699 -3.36876 -4.58806 0
M  V30 9477 N 895.901 -1.72847 -5.5417 0
M  V30 9478 H 898.666 -2.56055 -1.55743 0
M  V30 9479 H 896.227 -1.45325 -0.713606 0
M  V30 9480 H 898.219 -1.389 -3.80117 0
M  V30 9481 H 896.789 -0.625147 -3.06285 0
M  V30 9482 H 896.009 -3.04663 -2.50149 0
M  V30 9483 H 897.297 -3.61908 -3.57632 0
M  V30 9484 H 896.695 -1.12022 -5.54498 0
M  V30 9485 H 895.252 -1.6652 -6.3017 0
M  V30 9486 N 898.685 0.775411 -1.37205 0
M  V30 9487 C 899.633 1.90996 -1.32752 0
M  V30 9488 C 900.627 1.68006 -0.216907 0
M  V30 9489 O 901.833 1.7584 -0.384723 0
M  V30 9490 H 898.208 0.62803 -0.413621 0
M  V30 9491 H 900.179 1.91869 -2.28536 0
M  V30 9492 C 898.928 3.28211 -1.14772 0
M  V30 9493 H 898.251 3.46477 -1.99484 0
M  V30 9494 H 899.691 4.07907 -1.15706 0
M  V30 9495 C 898.15 3.3658 0.146852 0
M  V30 9496 O 898.68 3.85428 1.13173 0
M  V30 9497 N 896.886 2.89936 0.196305 0
M  V30 9498 H 896.433 2.50375 -0.605807 0
M  V30 9499 H 896.391 2.95916 1.06212 0
M  V30 9500 N 900.163 1.21714 1.00117 0
M  V30 9501 C 901.44 0.945391 1.71236 0
M  V30 9502 C 901.82 -0.541772 2.0403 0
M  V30 9503 O 901.168 -1.50763 1.71705 0
M  V30 9504 C 901.378 1.83444 2.96899 0
M  V30 9505 C 902.726 2.08558 3.69849 0
M  V30 9506 O 903.75 1.80824 3.06889 0
M  V30 9507 O 902.609 2.55485 4.83104 0
M  V30 9508 H 899.703 0.354834 0.747009 0
M  V30 9509 H 902.249 1.32661 1.05825 0
M  V30 9510 H 901.021 2.84075 2.69105 0
M  V30 9511 H 900.644 1.45428 3.70049 0
M  V30 9512 N 901.641 -1.19671 1.02551 0
M  V30 9513 C 902.571 -2.25009 0.623965 0
M  V30 9514 C 903.552 -1.66129 -0.36538 0
M  V30 9515 O 904.737 -1.92599 -0.248842 0
M  V30 9516 C 901.867 -3.47287 -0.0294869 0
M  V30 9517 C 900.821 -4.18818 0.881781 0
M  V30 9518 C 900.147 -5.34618 0.0936189 0
M  V30 9519 C 901.447 -4.73986 2.19396 0
M  V30 9520 H 903.141 -2.58851 1.50454 0
M  V30 9521 H 900.687 -1.24425 0.724872 0
M  V30 9522 H 902.64 -4.20168 -0.322016 0
M  V30 9523 H 901.364 -3.12635 -0.944838 0
M  V30 9524 H 900.023 -3.47815 1.15845 0
M  V30 9525 H 899.671 -4.9621 -0.823661 0
M  V30 9526 H 899.371 -5.83409 0.700568 0
M  V30 9527 H 900.895 -6.10297 -0.192249 0
M  V30 9528 H 902.309 -5.38639 1.96319 0
M  V30 9529 H 900.706 -5.3325 2.75254 0
M  V30 9530 H 901.776 -3.92238 2.85092 0
M  V30 9531 N 903.119 -0.802921 -1.35613 0
M  V30 9532 C 904.366 -0.381576 -1.98872 0
M  V30 9533 C 904.694 1.0503 -1.63704 0
M  V30 9534 O 903.949 1.7427 -0.890418 0
M  V30 9535 C 904.248 -0.507806 -3.53774 0
M  V30 9536 C 903.914 -1.90245 -4.088 0
M  V30 9537 C 902.576 -2.28401 -4.2354 0
M  V30 9538 C 904.928 -2.81504 -4.3864 0
M  V30 9539 C 902.256 -3.57192 -4.65436 0
M  V30 9540 C 904.608 -4.09737 -4.81973 0
M  V30 9541 C 903.272 -4.47897 -4.94919 0
M  V30 9542 H 902.542 -0.139629 -0.727726 0
M  V30 9543 H 905.189 -1.023 -1.61886 0
M  V30 9544 H 903.494 0.21708 -3.91198 0
M  V30 9545 H 905.191 -0.162625 -4.0067 0
M  V30 9546 H 901.781 -1.596 -3.97776 0
M  V30 9547 H 905.965 -2.53276 -4.26808 0
M  V30 9548 H 901.221 -3.86611 -4.73648 0
M  V30 9549 H 905.395 -4.80555 -5.04024 0
M  V30 9550 H 903.022 -5.47747 -5.27141 0
M  V30 9551 N 904.597 1.47463 -0.556102 0
M  V30 9552 C 905.822 2.07371 -0.0344729 0
M  V30 9553 C 906.247 1.40621 1.2493 0
M  V30 9554 O 905.605 0.48082 1.74808 0
M  V30 9555 C 905.653 3.60306 0.145563 0
M  V30 9556 O 904.757 3.94299 1.20839 0
M  V30 9557 H 904.098 0.662052 -0.0508274 0
M  V30 9558 H 906.628 1.89498 -0.771469 0
M  V30 9559 H 906.638 4.06408 0.360112 0
M  V30 9560 H 905.313 4.08288 -0.792089 0
M  V30 9561 H 903.89 3.59944 0.97442 0
M  V30 9562 N 906.075 0.2925 1.54862 0
M  V30 9563 C 907.303 -0.322113 2.04377 0
M  V30 9564 C 907.718 -1.48164 1.17016 0
M  V30 9565 O 907.075 -1.81466 0.19395 0
M  V30 9566 C 907.126 -0.786506 3.5284 0
M  V30 9567 O 906.847 0.326863 4.36879 0
M  V30 9568 C 908.348 -1.46715 4.18318 0
M  V30 9569 H 905.568 -0.0712074 0.667211 0
M  V30 9570 H 908.112 0.429657 1.99935 0
M  V30 9571 H 906.267 -1.48832 3.5767 0
M  V30 9572 H 906.681 -0.0331558 5.2449 0
M  V30 9573 H 908.155 -1.74333 5.23748 0
M  V30 9574 H 908.632 -2.40443 3.67538 0
M  V30 9575 H 909.238 -0.808735 4.1754 0
M  V30 9576 N 907.553 -1.57587 0.0200696 0
M  V30 9577 C 908.778 -1.96124 -0.674547 0
M  V30 9578 C 909.203 -0.896068 -1.65385 0
M  V30 9579 O 908.561 0.143925 -1.80728 0
M  V30 9580 C 908.609 -3.3376 -1.36517 0
M  V30 9581 O 907.713 -3.29483 -2.48022 0
M  V30 9582 H 907.054 -0.639719 -0.177919 0
M  V30 9583 H 909.584 -2.04447 0.0792317 0
M  V30 9584 H 909.594 -3.69785 -1.72403 0
M  V30 9585 H 908.269 -4.10832 -0.647265 0
M  V30 9586 H 906.846 -3.05162 -2.14314 0
M  V30 9587 N 909.032 0.252966 -1.55557 0
M  V30 9588 C 910.28 0.979912 -1.76754 0
M  V30 9589 C 910.601 1.86083 -0.582944 0
M  V30 9590 O 909.871 1.91742 0.401497 0
M  V30 9591 H 908.451 0.364805 -0.651864 0
M  V30 9592 H 911.113 0.272372 -1.92987 0
M  V30 9593 H 910.209 1.60518 -2.67657 0
M  V30 9594 N 910.51 1.48831 0.518367 0
M  V30 9595 C 911.458 1.64678 1.64268 0
M  V30 9596 C 912.452 0.512967 1.61447 0
M  V30 9597 O 913.658 0.692063 1.66164 0
M  V30 9598 H 910.033 0.518964 0.544224 0
M  V30 9599 H 912.004 2.59083 1.4805 0
M  V30 9600 C 910.753 1.71449 3.0249 0
M  V30 9601 H 910.076 2.58061 3.0536 0
M  V30 9602 H 911.516 1.86577 3.80743 0
M  V30 9603 C 909.975 0.455584 3.33805 0
M  V30 9604 O 910.505 -0.426428 3.9943 0
M  V30 9605 N 908.711 0.323763 2.88791 0
M  V30 9606 H 908.258 1.04249 2.35563 0
M  V30 9607 H 908.216 -0.517514 3.10112 0
M  V30 9608 N 911.988 -0.768124 1.37614 0
M  V30 9609 C 912.898 -1.91249 1.35871 0
M  V30 9610 C 913.914 -1.7208 0.257786 0
M  V30 9611 O 915.09 -1.95253 0.493782 0
M  V30 9612 C 912.155 -3.26423 1.16829 0
M  V30 9613 C 911.216 -3.5822 2.36594 0
M  V30 9614 C 910.449 -4.86945 2.1845 0
M  V30 9615 O 910.672 -5.58258 1.17064 0
M  V30 9616 O 909.606 -5.17888 3.06718 0
M  V30 9617 H 913.432 -1.95671 2.32264 0
M  V30 9618 H 911.017 -0.911382 1.18382 0
M  V30 9619 H 912.899 -4.07269 1.08212 0
M  V30 9620 H 911.574 -3.22845 0.235123 0
M  V30 9621 H 910.481 -2.77594 2.50783 0
M  V30 9622 H 911.814 -3.66545 3.2849 0
M  V30 9623 N 913.466 -1.22244 -0.994698 0
M  V30 9624 C 914.712 -1.05752 -1.73747 0
M  V30 9625 C 915.067 0.403416 -1.88123 0
M  V30 9626 O 914.36 1.29511 -1.412 0
M  V30 9627 C 914.554 -1.70014 -3.14372 0
M  V30 9628 C 914.383 -3.22205 -3.1371 0
M  V30 9629 C 913.153 -3.91301 -3.19705 0
M  V30 9630 C 915.351 -4.19163 -2.98005 0
M  V30 9631 N 913.333 -5.30594 -3.08778 0
M  V30 9632 C 914.704 -5.45274 -2.95087 0
M  V30 9633 C 916.759 -4.10078 -2.82383 0
M  V30 9634 C 915.462 -6.63345 -2.78146 0
M  V30 9635 C 917.488 -5.27797 -2.66803 0
M  V30 9636 C 916.85 -6.52826 -2.6457 0
M  V30 9637 H 912.949 -0.441393 -0.64552 0
M  V30 9638 H 915.533 -1.54757 -1.18146 0
M  V30 9639 H 913.704 -1.23562 -3.68221 0
M  V30 9640 H 915.436 -1.46631 -3.77202 0
M  V30 9641 H 912.191 -3.42289 -3.27315 0
M  V30 9642 H 912.615 -6.0358 -3.06628 0
M  V30 9643 H 917.257 -3.14201 -2.82909 0
M  V30 9644 H 914.975 -7.59373 -2.76367 0
M  V30 9645 H 918.561 -5.22598 -2.557 0
M  V30 9646 H 917.441 -7.42383 -2.5266 0
M  V30 9647 N 914.944 1.19125 -1.03184 0
M  V30 9648 C 916.19 1.89163 -0.731111 0
M  V30 9649 C 916.523 1.79604 0.738662 0
M  V30 9650 O 915.798 1.19037 1.53819 0
M  V30 9651 C 916.081 3.39986 -1.18666 0
M  V30 9652 C 915.934 3.58401 -2.71788 0
M  V30 9653 C 917.253 4.33316 -0.769772 0
M  V30 9654 H 914.372 0.686908 -0.267069 0
M  V30 9655 H 917.014 1.40205 -1.28229 0
M  V30 9656 H 915.164 3.81813 -0.717736 0
M  V30 9657 H 916.836 3.25727 -3.26649 0
M  V30 9658 H 915.079 3.01355 -3.12038 0
M  V30 9659 H 915.75 4.64189 -2.98719 0
M  V30 9660 H 918.226 3.9922 -1.17314 0
M  V30 9661 H 917.102 5.37427 -1.11637 0
M  V30 9662 H 917.363 4.40884 0.327681 0
M  V30 9663 N 916.422 0.810101 1.35185 0
M  V30 9664 C 917.352 0.237453 2.32289 0
M  V30 9665 C 918.333 -0.639032 1.5764 0
M  V30 9666 O 919.518 -0.568575 1.8569 0
M  V30 9667 C 916.648 -0.611964 3.41866 0
M  V30 9668 C 915.602 0.166318 4.27677 0
M  V30 9669 C 914.928 -0.805024 5.28605 0
M  V30 9670 C 916.228 1.36729 5.04086 0
M  V30 9671 H 917.922 1.04874 2.80432 0
M  V30 9672 H 915.468 0.505751 1.34826 0
M  V30 9673 H 917.421 -1.02267 4.08802 0
M  V30 9674 H 916.145 -1.45617 2.92341 0
M  V30 9675 H 914.804 0.558238 3.62325 0
M  V30 9676 H 914.452 -1.64483 4.75347 0
M  V30 9677 H 914.152 -0.288577 5.86891 0
M  V30 9678 H 915.676 -1.21386 5.98413 0
M  V30 9679 H 917.09 1.03128 5.63948 0
M  V30 9680 H 915.487 1.81848 5.71884 0
M  V30 9681 H 916.557 2.15214 4.34524 0
M  V30 9682 N 917.9 -1.47166 0.563914 0
M  V30 9683 C 918.83 -2.32894 -0.168148 0
M  V30 9684 C 919.811 -1.44202 -0.902214 0
M  V30 9685 O 920.996 -1.73048 -0.881365 0
M  V30 9686 C 918.126 -3.26116 -1.19439 0
M  V30 9687 C 917.08 -4.24101 -0.576363 0
M  V30 9688 C 916.406 -5.06696 -1.70772 0
M  V30 9689 C 917.706 -5.20142 0.47425 0
M  V30 9690 H 919.4 -2.9435 0.547573 0
M  V30 9691 H 916.946 -1.41545 0.264778 0
M  V30 9692 H 918.899 -3.84935 -1.71474 0
M  V30 9693 H 917.623 -2.62728 -1.94014 0
M  V30 9694 H 916.282 -3.66519 -0.0772534 0
M  V30 9695 H 915.93 -4.39707 -2.44268 0
M  V30 9696 H 915.63 -5.7304 -1.29994 0
M  V30 9697 H 917.154 -5.68375 -2.2312 0
M  V30 9698 H 918.568 -5.73286 0.0397035 0
M  V30 9699 H 916.965 -5.94726 0.801287 0
M  V30 9700 H 918.035 -4.65214 1.36764 0
M  V30 9701 N 919.378 -0.300708 -1.54705 0
M  V30 9702 C 920.326 0.591264 -2.2496 0
M  V30 9703 C 921.32 1.13725 -1.2555 0
M  V30 9704 O 922.526 1.08793 -1.43402 0
M  V30 9705 H 918.901 0.209278 -0.722293 0
M  V30 9706 H 920.872 -0.0238175 -2.9839 0
M  V30 9707 C 919.621 1.75179 -3.00346 0
M  V30 9708 H 918.944 1.34089 -3.76643 0
M  V30 9709 H 920.384 2.35198 -3.52786 0
M  V30 9710 C 918.843 2.65574 -2.07298 0
M  V30 9711 O 919.373 3.6666 -1.64083 0
M  V30 9712 N 917.579 2.33301 -1.7326 0
M  V30 9713 H 917.126 1.51142 -2.08599 0
M  V30 9714 H 917.084 2.94049 -1.11278 0
M  V30 9715 N 920.856 1.57574 -0.0284266 0
M  V30 9716 C 921.786 2.1321 0.952039 0
M  V30 9717 C 922.767 1.04806 1.33977 0
M  V30 9718 O 923.952 1.32635 1.41851 0
M  V30 9719 C 921.082 2.65862 2.23461 0
M  V30 9720 C 920.036 3.79047 1.98765 0
M  V30 9721 C 919.362 4.18124 3.33281 0
M  V30 9722 C 920.662 5.05151 1.32739 0
M  V30 9723 H 922.356 2.95385 0.488705 0
M  V30 9724 H 919.902 1.42092 0.233628 0
M  V30 9725 H 921.855 3.03417 2.92431 0
M  V30 9726 H 920.579 1.80848 2.71959 0
M  V30 9727 H 919.238 3.41929 1.32213 0
M  V30 9728 H 918.886 3.30092 3.79537 0
M  V30 9729 H 918.586 4.94396 3.17563 0
M  V30 9730 H 920.11 4.58262 4.0352 0
M  V30 9731 H 921.524 5.40297 1.91708 0
M  V30 9732 H 919.921 5.86416 1.27421 0
M  V30 9733 H 920.991 4.83969 0.300261 0
M  V30 9734 N 922.334 -0.244713 1.55689 0
M  V30 9735 C 923.282 -1.32276 1.91326 0
M  V30 9736 C 924.276 -1.49714 0.792589 0
M  V30 9737 O 925.482 -1.51163 0.977227 0
M  V30 9738 H 921.857 -0.442979 0.607679 0
M  V30 9739 H 923.828 -0.99486 2.81327 0
M  V30 9740 C 922.577 -2.67077 2.22633 0
M  V30 9741 H 921.9 -2.54458 3.08368 0
M  V30 9742 H 923.34 -3.41378 2.5147 0
M  V30 9743 C 921.799 -3.20335 1.04342 0
M  V30 9744 O 922.329 -4.00633 0.292543 0
M  V30 9745 N 920.535 -2.78392 0.833457 0
M  V30 9746 H 920.082 -2.13202 1.44577 0
M  V30 9747 H 920.04 -3.1437 0.0436713 0
M  V30 9748 N 923.813 -1.49104 -0.510467 0
M  V30 9749 C 925.059 -1.58346 -1.26705 0
M  V30 9750 C 925.392 -0.265121 -1.92382 0
M  V30 9751 O 924.667 0.730558 -1.80258 0
M  V30 9752 C 924.95 -2.7359 -2.34137 0
M  V30 9753 C 924.803 -4.1519 -1.73024 0
M  V30 9754 C 926.122 -2.84511 -3.3577 0
M  V30 9755 H 923.241 -0.57637 -0.459311 0
M  V30 9756 H 925.883 -1.81353 -0.566658 0
M  V30 9757 H 924.033 -2.54105 -2.93876 0
M  V30 9758 H 925.705 -4.46167 -1.17186 0
M  V30 9759 H 923.948 -4.21279 -1.03473 0
M  V30 9760 H 924.619 -4.91683 -2.50903 0
M  V30 9761 H 927.095 -3.0222 -2.86011 0
M  V30 9762 H 925.971 -3.6684 -4.08313 0
M  V30 9763 H 926.232 -1.93471 -3.97519 0
M  V30 9764 N 925.291 0.760815 -1.38019 0
M  V30 9765 C 926.519 1.55001 -1.37048 0
M  V30 9766 C 926.934 1.88754 0.0415261 0
M  V30 9767 O 926.291 1.52254 1.00624 0
M  V30 9768 C 926.342 2.8536 -2.21928 0
M  V30 9769 O 926.063 2.53049 -3.57628 0
M  V30 9770 C 927.564 3.79536 -2.29057 0
M  V30 9771 H 924.784 0.479844 -0.469032 0
M  V30 9772 H 927.328 0.942148 -1.81504 0
M  V30 9773 H 925.483 3.42542 -1.80953 0
M  V30 9774 H 925.897 3.36604 -4.02241 0
M  V30 9775 H 927.371 4.67977 -2.92749 0
M  V30 9776 H 927.848 4.19453 -1.30213 0
M  V30 9777 H 928.454 3.28281 -2.70392 0
M  V30 9778 N 926.769 1.22769 0.988202 0
M  V30 9779 C 928.017 1.05301 1.725 0
M  V30 9780 C 928.338 -0.412103 1.90596 0
M  V30 9781 O 927.608 -1.29606 1.46898 0
M  V30 9782 H 926.188 0.386658 0.639144 0
M  V30 9783 H 928.85 1.54359 1.18993 0
M  V30 9784 H 927.946 1.53465 2.71763 0
M  V30 9785 N 928.247 -1.18576 1.03814 0
M  V30 9786 C 929.477 -1.92158 0.758864 0
M  V30 9787 C 929.885 -1.76267 -0.687498 0
M  V30 9788 O 929.228 -1.08806 -1.4801 0
M  V30 9789 C 929.29 -3.44063 1.04217 0
M  V30 9790 C 928.954 -3.8373 2.48193 0
M  V30 9791 C 929.951 -3.87722 3.46363 0
M  V30 9792 C 927.636 -4.151 2.82838 0
M  V30 9793 C 929.63 -4.2253 4.77229 0
M  V30 9794 C 927.317 -4.49578 4.13911 0
M  V30 9795 C 928.315 -4.53269 5.10917 0
M  V30 9796 O 928.003 -4.86945 6.39641 0
M  V30 9797 H 927.735 -0.61694 0.276335 0
M  V30 9798 H 930.289 -1.51388 1.38819 0
M  V30 9799 H 928.519 -3.85061 0.355709 0
M  V30 9800 H 930.208 -3.9889 0.751091 0
M  V30 9801 H 930.974 -3.63627 3.20936 0
M  V30 9802 H 926.853 -4.11406 2.08006 0
M  V30 9803 H 930.397 -4.25326 5.52941 0
M  V30 9804 H 926.294 -4.73133 4.39107 0
M  V30 9805 H 927.062 -5.04857 6.44253 0
M  V30 9806 N 929.725 -0.817259 -1.34754 0
M  V30 9807 C 930.955 -0.414849 -2.02392 0
M  V30 9808 C 931.363 0.982186 -1.61709 0
M  V30 9809 O 930.706 1.64607 -0.815481 0
M  V30 9810 C 930.768 -0.430981 -3.56907 0
M  V30 9811 C 930.432 -1.78037 -4.20894 0
M  V30 9812 C 931.429 -2.74034 -4.41816 0
M  V30 9813 C 929.114 -2.0673 -4.57786 0
M  V30 9814 C 931.108 -3.96901 -4.98747 0
M  V30 9815 C 928.795 -3.29858 -5.14429 0
M  V30 9816 C 929.793 -4.24761 -5.34853 0
M  V30 9817 O 929.481 -5.45714 -5.90298 0
M  V30 9818 H 929.213 -0.165392 -0.655455 0
M  V30 9819 H 931.767 -1.10524 -1.73129 0
M  V30 9820 H 929.997 0.316074 -3.85406 0
M  V30 9821 H 931.686 -0.0494067 -4.0587 0
M  V30 9822 H 932.452 -2.53161 -4.13684 0
M  V30 9823 H 928.331 -1.33666 -4.41197 0
M  V30 9824 H 931.875 -4.70987 -5.14604 0
M  V30 9825 H 927.772 -3.50597 -5.41989 0
M  V30 9826 H 928.54 -5.47157 -6.08738 0
M  V30 9827 N 931.203 1.46865 -0.571711 0
M  V30 9828 C 932.619 1.57897 -0.23255 0
M  V30 9829 C 932.819 1.56836 1.26509 0
M  V30 9830 O 931.875 1.47947 2.04617 0
M  V30 9831 C 933.188 2.87778 -0.872036 0
M  V30 9832 C 934.736 3.01389 -0.844605 0
M  V30 9833 C 935.211 4.33991 -1.46343 0
M  V30 9834 N 936.702 4.40662 -1.42727 0
M  V30 9835 C 937.437 5.41858 -1.87557 0
M  V30 9836 N 936.933 6.49787 -2.4031 0
M  V30 9837 N 938.726 5.32992 -1.7854 0
M  V30 9838 H 930.877 1.45798 -1.54457 0
M  V30 9839 H 933.14 0.694785 -0.644964 0
M  V30 9840 H 932.846 2.94332 -1.92513 0
M  V30 9841 H 932.72 3.75345 -0.373677 0
M  V30 9842 H 935.107 2.94423 0.19984 0
M  V30 9843 H 935.188 2.15327 -1.38087 0
M  V30 9844 H 934.832 4.41714 -2.50701 0
M  V30 9845 H 934.762 5.18809 -0.902479 0
M  V30 9846 H 937.253 3.63263 -1.04155 0
M  V30 9847 H 937.566 7.23199 -2.72403 0
M  V30 9848 H 935.911 6.50637 -2.44329 0
M  V30 9849 H 939.102 4.47575 -1.37093 0
M  V30 9850 H 939.275 6.11716 -2.13794 0
M  V30 9851 N 932.681 0.308908 1.54543 0
M  V30 9852 C 933.927 -0.298478 2.00592 0
M  V30 9853 C 934.26 -1.52929 1.19692 0
M  V30 9854 O 933.535 -1.9254 0.27542 0
M  V30 9855 C 933.818 -0.647218 3.54236 0
M  V30 9856 C 933.671 0.593284 4.4587 0
M  V30 9857 C 934.99 -1.47064 4.14801 0
M  V30 9858 H 932.109 -0.107012 0.72919 0
M  V30 9859 H 934.751 0.422578 1.85241 0
M  V30 9860 H 932.901 -1.26153 3.67447 0
M  V30 9861 H 934.573 1.2317 4.44552 0
M  V30 9862 H 932.816 1.22501 4.16144 0
M  V30 9863 H 933.487 0.305018 5.51157 0
M  V30 9864 H 935.963 -0.951511 4.05075 0
M  V30 9865 H 934.839 -1.68343 5.22448 0
M  V30 9866 H 935.1 -2.4623 3.67183 0
M  V30 9867 N 934.159 -1.57557 0.0367827 0
M  V30 9868 C 935.107 -2.11844 -0.960454 0
M  V30 9869 C 936.101 -1.04681 -1.33185 0
M  V30 9870 O 937.307 -1.23108 -1.31318 0
M  V30 9871 H 933.682 -0.676921 -0.32754 0
M  V30 9872 H 935.653 -2.94557 -0.477346 0
M  V30 9873 C 934.402 -2.66683 -2.23105 0
M  V30 9874 H 933.725 -3.48795 -1.95403 0
M  V30 9875 H 935.165 -3.08305 -2.91074 0
M  V30 9876 C 933.624 -1.59782 -2.96599 0
M  V30 9877 O 934.154 -1.00214 -3.88999 0
M  V30 9878 N 932.36 -1.31644 -2.59072 0
M  V30 9879 H 931.907 -1.80272 -1.8401 0
M  V30 9880 H 931.865 -0.603457 -3.08554 0
M  V30 9881 N 935.637 0.236453 -1.55816 0
M  V30 9882 C 936.867 0.978873 -1.81939 0
M  V30 9883 C 937.275 1.79041 -0.611647 0
M  V30 9884 O 936.618 1.78616 0.429172 0
M  V30 9885 C 936.68 1.9569 -3.01572 0
M  V30 9886 C 936.344 1.33131 -4.37178 0
M  V30 9887 C 937.341 0.728585 -5.1477 0
M  V30 9888 C 935.026 1.34755 -4.83887 0
M  V30 9889 C 937.02 0.150427 -6.37222 0
M  V30 9890 C 934.707 0.765539 -6.06286 0
M  V30 9891 C 935.705 0.168017 -6.82793 0
M  V30 9892 O 935.393 -0.404976 -8.02879 0
M  V30 9893 H 935.125 0.293186 -0.609113 0
M  V30 9894 H 937.679 0.261384 -2.0373 0
M  V30 9895 H 935.909 2.71298 -2.75562 0
M  V30 9896 H 937.598 2.56362 -3.14695 0
M  V30 9897 H 938.364 0.708477 -4.79797 0
M  V30 9898 H 934.243 1.80202 -4.24321 0
M  V30 9899 H 937.787 -0.316586 -6.96881 0
M  V30 9900 H 933.684 0.78301 -6.40733 0
M  V30 9901 H 934.452 -0.29785 -8.17958 0
M  V30 9902 N 937.115 1.49373 0.502552 0
M  V30 9903 C 938.392 1.49282 1.26389 0
M  V30 9904 C 938.772 0.219674 2.09954 0
M  V30 9905 O 938.12 -0.797991 2.14113 0
M  V30 9906 C 938.33 2.77083 2.12194 0
M  V30 9907 C 939.678 3.26511 2.71433 0
M  V30 9908 O 940.702 2.78189 2.22462 0
M  V30 9909 O 939.561 4.10665 3.60578 0
M  V30 9910 H 936.655 0.597415 0.57186 0
M  V30 9911 H 939.201 1.61634 0.516951 0
M  V30 9912 H 937.973 3.61237 1.50411 0
M  V30 9913 H 937.596 2.67583 2.94084 0
M  V30 9914 N 938.594 -0.753485 1.38421 0
M  V30 9915 C 939.504 -1.89797 1.37892 0
M  V30 9916 C 940.52 -1.71797 0.276023 0
M  V30 9917 O 941.696 -1.94718 0.514464 0
M  V30 9918 C 938.761 -3.25166 1.20284 0
M  V30 9919 C 937.822 -3.55691 2.4038 0
M  V30 9920 C 937.055 -4.84601 2.23602 0
M  V30 9921 O 937.278 -5.56985 1.22979 0
M  V30 9922 O 936.212 -5.14605 3.12194 0
M  V30 9923 H 940.038 -1.93197 2.34326 0
M  V30 9924 H 937.623 -0.898775 1.19342 0
M  V30 9925 H 939.505 -4.06099 1.12525 0
M  V30 9926 H 938.18 -3.22577 0.269352 0
M  V30 9927 H 937.087 -2.74919 2.53714 0
M  V30 9928 H 938.42 -3.6304 3.32359 0
M  V30 9929 N 940.072 -1.23292 -0.981677 0
M  V30 9930 C 940.982 -1.02964 -2.10798 0
M  V30 9931 C 941.998 0.0254674 -1.73981 0
M  V30 9932 O 943.174 -0.169706 -2.00684 0
M  V30 9933 C 940.239 -0.621934 -3.41076 0
M  V30 9934 C 939.3 -1.75194 -3.91926 0
M  V30 9935 C 938.533 -1.36359 -5.15986 0
M  V30 9936 O 938.756 -0.247265 -5.69864 0
M  V30 9937 O 937.69 -2.18421 -5.60871 0
M  V30 9938 H 941.516 -1.97354 -2.30836 0
M  V30 9939 H 939.101 -1.01986 -1.09175 0
M  V30 9940 H 940.983 -0.405446 -4.19445 0
M  V30 9941 H 939.658 0.29299 -3.22371 0
M  V30 9942 H 938.565 -2.02305 -3.1468 0
M  V30 9943 H 939.898 -2.64513 -4.15083 0
M  V30 9944 N 941.55 1.18024 -1.04442 0
M  V30 9945 C 942.498 2.23834 -0.632557 0
M  V30 9946 C 943.492 1.65902 0.342488 0
M  V30 9947 O 944.698 1.78778 0.20937 0
M  V30 9948 H 941.073 0.728544 -0.186353 0
M  V30 9949 H 943.044 2.55876 -1.53526 0
M  V30 9950 C 941.793 3.47697 -0.0153661 0
M  V30 9951 H 941.116 3.92574 -0.756704 0
M  V30 9952 H 942.556 4.23345 0.235541 0
M  V30 9953 C 941.015 3.13416 1.23579 0
M  V30 9954 O 941.545 3.27499 2.3261 0
M  V30 9955 N 939.751 2.67708 1.13053 0
M  V30 9956 H 939.298 2.56449 0.243277 0
M  V30 9957 H 939.256 2.45143 1.96855 0
M  V30 9958 N 943.028 0.824394 1.34319 0
M  V30 9959 C 944.274 0.422964 1.98954 0
M  V30 9960 C 944.629 -1.00323 1.64174 0
M  V30 9961 O 943.922 -1.6894 0.903869 0
M  V30 9962 C 944.116 0.564024 3.52921 0
M  V30 9963 C 943.945 2.00238 4.0266 0
M  V30 9964 C 942.715 2.63457 4.31183 0
M  V30 9965 C 944.913 2.9693 4.19925 0
M  V30 9966 N 942.895 3.98518 4.66966 0
M  V30 9967 C 944.266 4.16901 4.58904 0
M  V30 9968 C 946.321 2.93527 4.02177 0
M  V30 9969 C 945.024 5.33926 4.81991 0
M  V30 9970 C 947.05 4.09769 4.26431 0
M  V30 9971 C 946.412 5.28493 4.65698 0
M  V30 9972 H 942.511 0.202907 0.755217 0
M  V30 9973 H 945.095 1.0694 1.62702 0
M  V30 9974 H 943.266 -0.0525268 3.88364 0
M  V30 9975 H 944.998 0.135451 4.04473 0
M  V30 9976 H 941.753 2.14688 4.22145 0
M  V30 9977 H 942.177 4.68103 4.8909 0
M  V30 9978 H 946.819 2.02878 3.70945 0
M  V30 9979 H 944.537 6.25132 5.12089 0
M  V30 9980 H 948.123 4.08537 4.14233 0
M  V30 9981 H 947.003 6.16945 4.84096 0
M  V30 9982 N 944.506 -1.46559 0.579492 0
M  V30 9983 C 945.922 -1.57771 0.240921 0
M  V30 9984 C 946.122 -1.57505 -1.25676 0
M  V30 9985 O 945.178 -1.4903 -2.03829 0
M  V30 9986 C 946.491 -2.87311 0.887285 0
M  V30 9987 C 948.039 -3.00937 0.860576 0
M  V30 9988 C 948.514 -4.33208 1.48642 0
M  V30 9989 N 950.005 -4.39899 1.45062 0
M  V30 9990 C 950.74 -5.40856 1.90428 0
M  V30 9991 N 950.236 -6.48503 2.43752 0
M  V30 9992 N 952.029 -5.32037 1.81364 0
M  V30 9993 H 944.18 -1.44976 1.55228 0
M  V30 9994 H 946.443 -0.691354 0.648639 0
M  V30 9995 H 946.149 -2.93307 1.94071 0
M  V30 9996 H 946.023 -3.75141 0.393577 0
M  V30 9997 H 948.41 -2.94524 -0.184223 0
M  V30 9998 H 948.491 -2.14591 1.39227 0
M  V30 9999 H 948.135 -4.40378 2.5304 0
M  V30 10000 H 948.065 -5.18323 0.92998 0
M  V30 10001 H 950.556 -3.62706 1.0608 0
M  V30 10002 H 950.869 -7.21744 2.76234 0
M  V30 10003 H 949.214 -6.49332 2.47776 0
M  V30 10004 H 952.405 -4.46841 1.39465 0
M  V30 10005 H 952.578 -6.10573 2.17035 0
M  V30 10006 N 945.984 -0.3171 -1.54377 0
M  V30 10007 C 946.931 0.551782 -2.24107 0
M  V30 10008 C 947.901 1.11681 -1.22949 0
M  V30 10009 O 949.086 1.15836 -1.51614 0
M  V30 10010 C 946.226 1.70997 -2.99756 0
M  V30 10011 C 945.339 1.17479 -4.15719 0
M  V30 10012 C 944.474 2.29815 -4.78914 0
M  V30 10013 C 943.513 1.73513 -5.86992 0
M  V30 10014 N 942.65 2.79485 -6.44075 0
M  V30 10015 H 947.49 -0.049431 -2.97959 0
M  V30 10016 H 945.027 -0.0361658 -1.47056 0
M  V30 10017 H 946.985 2.39141 -3.41859 0
M  V30 10018 H 945.615 2.28257 -2.28251 0
M  V30 10019 H 944.667 0.385109 -3.78446 0
M  V30 10020 H 945.979 0.72276 -4.93536 0
M  V30 10021 H 945.133 3.05875 -5.23952 0
M  V30 10022 H 943.872 2.78352 -4.00464 0
M  V30 10023 H 942.877 0.959475 -5.41363 0
M  V30 10024 H 944.102 1.2586 -6.67335 0
M  V30 10025 H 942.048 3.27325 -5.68502 0
M  V30 10026 H 941.965 2.38825 -7.17286 0
M  V30 10027 H 943.233 3.55394 -6.93769 0
M  V30 10028 N 947.462 1.57535 -0.0451378 0
M  V30 10029 C 948.711 1.91628 0.629415 0
M  V30 10030 C 949.024 0.924754 1.72359 0
M  V30 10031 O 950.23 1.15751 2.45589 0
M  V30 10032 C 948.686 3.40322 1.17084 0
M  V30 10033 C 948.294 4.47867 0.109101 0
M  V30 10034 C 950.038 3.83458 1.82099 0
M  V30 10035 C 947.945 5.87671 0.663072 0
M  V30 10036 H 946.875 0.715163 0.238868 0
M  V30 10037 H 949.526 1.83151 -0.113046 0
M  V30 10038 H 947.908 3.43783 1.96543 0
M  V30 10039 H 949.082 4.55988 -0.664201 0
M  V30 10040 H 947.397 4.14034 -0.443227 0
M  V30 10041 H 949.994 4.85273 2.2453 0
M  V30 10042 H 950.337 3.19379 2.67026 0
M  V30 10043 H 950.87 3.82488 1.09305 0
M  V30 10044 H 947.609 6.55332 -0.148423 0
M  V30 10045 H 947.129 5.83124 1.4045 0
M  V30 10046 H 948.808 6.36737 1.14785 0
M  V30 10047 N 948.94 -0.228186 1.55939 0
M  V30 10048 C 949.872 -1.30605 1.88348 0
M  V30 10049 C 950.885 -1.43375 0.771198 0
M  V30 10050 O 952.074 -1.44391 1.04945 0
M  V30 10051 C 949.174 -2.68248 2.07115 0
M  V30 10052 C 948.347 -2.77509 3.38094 0
M  V30 10053 C 947.406 -3.96121 3.46373 0
M  V30 10054 O 946.432 -3.8477 4.19453 0
M  V30 10055 N 947.634 -5.10132 2.77031 0
M  V30 10056 H 950.399 -1.03132 2.81396 0
M  V30 10057 H 947.96 -0.418245 1.56404 0
M  V30 10058 H 949.952 -3.45966 2.09976 0
M  V30 10059 H 948.522 -2.88348 1.20723 0
M  V30 10060 H 947.742 -1.8632 3.47388 0
M  V30 10061 H 949.03 -2.80662 4.2439 0
M  V30 10062 H 948.428 -5.22249 2.17424 0
M  V30 10063 H 946.985 -5.85916 2.85561 0
M  V30 10064 N 950.418 -1.49637 -0.494624 0
M  V30 10065 C 951.646 -1.63164 -1.2722 0
M  V30 10066 C 952.061 -0.305552 -1.86311 0
M  V30 10067 O 951.418 0.709758 -1.68133 0
M  V30 10068 C 951.469 -2.70524 -2.39789 0
M  V30 10069 O 951.19 -3.97991 -1.83126 0
M  V30 10070 C 952.691 -2.94814 -3.31058 0
M  V30 10071 H 949.911 -0.54912 -0.385627 0
M  V30 10072 H 952.455 -1.95711 -0.593081 0
M  V30 10073 H 950.61 -2.40738 -3.03519 0
M  V30 10074 H 951.024 -4.57179 -2.57075 0
M  V30 10075 H 952.498 -3.73653 -4.06309 0
M  V30 10076 H 952.975 -2.04974 -3.88436 0
M  V30 10077 H 953.581 -3.26042 -2.73088 0
M  V30 10078 N 951.896 0.746133 -1.38819 0
M  V30 10079 C 952.828 1.86991 -1.3254 0
M  V30 10080 C 953.841 1.61077 -0.236216 0
M  V30 10081 O 955.03 1.71518 -0.494341 0
M  V30 10082 C 952.13 3.22786 -1.03258 0
M  V30 10083 C 951.303 3.76145 -2.23234 0
M  V30 10084 C 950.362 4.90474 -1.90581 0
M  V30 10085 O 949.388 5.04717 -2.63153 0
M  V30 10086 N 950.59 5.74015 -0.86525 0
M  V30 10087 H 953.355 1.92885 -2.2938 0
M  V30 10088 H 950.916 0.926392 -1.32776 0
M  V30 10089 H 952.908 3.96824 -0.794533 0
M  V30 10090 H 951.478 3.12231 -0.151895 0
M  V30 10091 H 950.698 2.93587 -2.63059 0
M  V30 10092 H 951.986 4.08528 -3.03285 0
M  V30 10093 H 951.384 5.65086 -0.263577 0
M  V30 10094 H 949.941 6.48168 -0.687087 0
M  V30 10095 N 953.375 1.23811 0.975125 0
M  V30 10096 C 954.305 1.04846 2.08638 0
M  V30 10097 C 955.286 -0.0362859 1.70061 0
M  V30 10098 O 956.471 0.12937 1.93769 0
M  V30 10099 C 953.601 0.644534 3.41267 0
M  V30 10100 C 952.555 1.67722 3.93768 0
M  V30 10101 C 951.881 1.12857 5.22654 0
M  V30 10102 C 953.181 3.07147 4.22443 0
M  V30 10103 H 954.875 1.97795 2.24761 0
M  V30 10104 H 952.421 0.952397 1.08006 0
M  V30 10105 H 954.374 0.498887 4.18436 0
M  V30 10106 H 953.098 -0.320641 3.25022 0
M  V30 10107 H 951.757 1.81095 3.18748 0
M  V30 10108 H 951.405 0.154227 5.02764 0
M  V30 10109 H 951.105 1.81862 5.58749 0
M  V30 10110 H 952.629 0.994891 6.0244 0
M  V30 10111 H 954.043 2.97045 4.90344 0
M  V30 10112 H 952.44 3.73437 4.6975 0
M  V30 10113 H 953.51 3.55743 3.29507 0
M  V30 10114 N 954.853 -1.17469 1.05066 0
M  V30 10115 C 955.785 -2.20974 0.608526 0
M  V30 10116 C 956.798 -1.59481 -0.327066 0
M  V30 10117 O 957.987 -1.78096 -0.12 0
M  V30 10118 C 955.087 -3.38652 -0.12969 0
M  V30 10119 C 954.26 -4.29716 0.816285 0
M  V30 10120 C 953.319 -5.26064 0.119556 0
M  V30 10121 O 952.345 -5.64194 0.753241 0
M  V30 10122 N 953.547 -5.69126 -1.14347 0
M  V30 10123 H 956.312 -2.59529 1.49882 0
M  V30 10124 H 953.873 -1.32355 0.932406 0
M  V30 10125 H 955.865 -4.00139 -0.605886 0
M  V30 10126 H 954.435 -2.98705 -0.921638 0
M  V30 10127 H 953.655 -3.6568 1.47213 0
M  V30 10128 H 954.943 -4.87449 1.45845 0
M  V30 10129 H 954.341 -5.4022 -1.67866 0
M  V30 10130 H 952.898 -6.32764 -1.56376 0
M  V30 10131 N 956.331 -0.831506 -1.3388 0
M  V30 10132 C 957.747 -0.518349 -1.50948 0
M  V30 10133 C 957.947 0.955807 -1.77388 0
M  V30 10134 O 957.003 1.73993 -1.82983 0
M  V30 10135 C 958.316 -1.38531 -2.66889 0
M  V30 10136 C 959.864 -1.38332 -2.80772 0
M  V30 10137 C 960.339 -2.23497 -3.99766 0
M  V30 10138 N 961.83 -2.21167 -4.06988 0
M  V30 10139 C 962.565 -2.83805 -4.98239 0
M  V30 10140 N 962.061 -3.55468 -5.94655 0
M  V30 10141 N 963.854 -2.73314 -4.91178 0
M  V30 10142 H 956.005 -1.78588 -1.14978 0
M  V30 10143 H 958.268 -0.761508 -0.564633 0
M  V30 10144 H 957.974 -2.43255 -2.54007 0
M  V30 10145 H 957.848 -1.05611 -3.62114 0
M  V30 10146 H 960.235 -0.343832 -2.9309 0
M  V30 10147 H 960.316 -1.75256 -1.86331 0
M  V30 10148 H 959.96 -3.27501 -3.88208 0
M  V30 10149 H 959.89 -1.83919 -4.93438 0
M  V30 10150 H 962.381 -1.69046 -3.37982 0
M  V30 10151 H 962.694 -4.00487 -6.60931 0
M  V30 10152 H 961.039 -3.59575 -5.94753 0
M  V30 10153 H 964.23 -2.16897 -4.14817 0
M  V30 10154 H 964.403 -3.22416 -5.62096 0
M  V30 10155 N 957.809 1.4625 -0.587256 0
M  V30 10156 C 959.086 1.95599 -0.00750181 0
M  V30 10157 C 959.466 1.52989 1.45457 0
M  V30 10158 O 958.814 0.782731 2.14676 0
M  V30 10159 C 959.024 3.48513 -0.184309 0
M  V30 10160 C 960.372 4.24565 -0.0544972 0
M  V30 10161 O 961.396 3.5602 -0.113378 0
M  V30 10162 O 960.255 5.46445 0.0774075 0
M  V30 10163 H 957.349 0.825649 0.0472495 0
M  V30 10164 H 959.895 1.56512 -0.655893 0
M  V30 10165 H 958.667 3.72428 -1.20053 0
M  V30 10166 H 958.29 3.9444 0.500301 0
M  V30 10167 N 959.287 0.325282 1.54207 0
M  V30 10168 C 960.237 -0.55548 2.2113 0
M  V30 10169 C 961.221 -1.0803 1.19241 0
M  V30 10170 O 962.413 -1.01703 1.44864 0
M  V30 10171 C 959.542 -1.71504 2.97391 0
M  V30 10172 C 958.628 -1.20503 4.0662 0
M  V30 10173 N 959.019 -0.414838 5.04096 0
M  V30 10174 C 957.317 -1.4836 4.20601 0
M  V30 10175 C 958.018 -0.140225 5.81531 0
M  V30 10176 N 956.994 -0.72683 5.38719 0
M  V30 10177 H 960.796 0.0555192 2.93848 0
M  V30 10178 H 958.31 0.131225 1.61869 0
M  V30 10179 H 960.307 -2.35781 3.43821 0
M  V30 10180 H 958.967 -2.3295 2.26195 0
M  V30 10181 H 959.978 -0.0575291 5.17868 0
M  V30 10182 H 956.655 -2.10378 3.60621 0
M  V30 10183 H 958.045 0.496026 6.70067 0
M  V30 10184 N 960.765 -1.57509 0.0534917 0
M  V30 10185 C 961.99 -1.97511 -0.632794 0
M  V30 10186 C 962.415 -0.930947 -1.63447 0
M  V30 10187 O 961.773 0.105558 -1.80992 0
M  V30 10188 C 961.821 -3.3658 -1.29407 0
M  V30 10189 O 960.925 -3.3467 -2.40977 0
M  V30 10190 H 960.266 -0.643349 -0.16431 0
M  V30 10191 H 962.796 -2.04232 0.12258 0
M  V30 10192 H 962.806 -3.73359 -1.64521 0
M  V30 10193 H 961.481 -4.12113 -0.559976 0
M  V30 10194 H 960.058 -3.09639 -2.07793 0
M  V30 10195 N 962.243 0.219913 -1.56058 0
M  V30 10196 C 963.206 1.25606 -1.91718 0
M  V30 10197 C 964.206 1.39721 -0.795912 0
M  V30 10198 O 965.396 1.37958 -1.06364 0
M  V30 10199 C 962.528 2.62961 -2.16943 0
M  V30 10200 H 963.721 0.951909 -2.84392 0
M  V30 10201 H 961.274 0.460398 -1.49365 0
M  V30 10202 H 962.009 2.98472 -1.26826 0
M  V30 10203 H 961.794 2.54093 -2.98629 0
M  V30 10204 H 963.284 3.37727 -2.45622 0
M  V30 10205 N 963.721 1.49897 0.486681 0
M  V30 10206 C 964.97 1.59349 1.23656 0
M  V30 10207 C 965.283 0.292024 1.93408 0
M  V30 10208 O 966.489 0.265258 2.70201 0
M  V30 10209 C 964.945 2.81215 2.24602 0
M  V30 10210 C 964.553 4.18177 1.60725 0
M  V30 10211 C 966.297 3.00004 3.00329 0
M  V30 10212 C 964.204 5.31247 2.59866 0
M  V30 10213 H 963.134 0.593363 0.465227 0
M  V30 10214 H 965.785 1.76306 0.508769 0
M  V30 10215 H 964.167 2.57783 3.00606 0
M  V30 10216 H 965.341 4.51802 0.90616 0
M  V30 10217 H 963.656 4.04864 0.973362 0
M  V30 10218 H 966.253 3.81649 3.74497 0
M  V30 10219 H 966.596 2.1112 3.58795 0
M  V30 10220 H 967.129 3.23544 2.3144 0
M  V30 10221 H 963.868 6.22236 2.06161 0
M  V30 10222 H 963.388 5.02059 3.28172 0
M  V30 10223 H 965.067 5.61177 3.22009 0
M  V30 10224 N 965.199 -0.738761 1.39212 0
M  V30 10225 C 966.61 -1.31684 1.32348 0
M  V30 10226 C 966.961 -1.96195 -0.0139041 0
M  V30 10227 O 966.086 -1.96056 -0.916025 0
M  V30 10228 C 966.681 -2.39444 2.39691 0
M  V30 10229 C 965.24 -2.92935 2.36359 0
M  V30 10230 C 964.387 -1.66465 2.21776 0
M  V30 10231 H 967.338 -0.536543 1.49355 0
M  V30 10232 H 967.359 -3.19744 2.06262 0
M  V30 10233 H 966.871 -1.92463 3.37016 0
M  V30 10234 H 964.972 -3.44207 1.42662 0
M  V30 10235 H 965.085 -3.46306 3.31073 0
M  V30 10236 H 963.449 -1.90657 1.68884 0
M  V30 10237 H 964.232 -1.21541 3.21065 0
M  V30 10238 N 966.677 -1.24326 -0.968545 0
M  V30 10239 C 967.923 -1.08406 -1.71394 0
M  V30 10240 C 968.256 0.376353 -1.90518 0
M  V30 10241 O 967.531 1.27816 -1.46606 0
M  V30 10242 C 967.814 -1.82344 -3.1052 0
M  V30 10243 C 967.667 -3.3613 -2.98893 0
M  V30 10244 C 968.986 -1.59545 -4.10163 0
M  V30 10245 H 966.105 -0.395205 -0.622079 0
M  V30 10246 H 968.747 -1.52983 -1.12677 0
M  V30 10247 H 966.897 -1.44452 -3.60646 0
M  V30 10248 H 968.569 -3.83614 -2.56199 0
M  V30 10249 H 966.812 -3.64553 -2.35124 0
M  V30 10250 H 967.483 -3.83064 -3.97449 0
M  V30 10251 H 969.959 -1.92504 -3.68892 0
M  V30 10252 H 968.835 -2.13736 -5.05577 0
M  V30 10253 H 969.096 -0.533503 -4.38869 0
M  V30 10254 N 968.156 1.1691 -1.05688 0
M  V30 10255 C 969.405 1.86629 -0.765022 0
M  V30 10256 C 969.718 1.82223 0.710918 0
M  V30 10257 O 970.924 2.47462 1.11691 0
M  V30 10258 C 969.38 3.34886 -1.3183 0
M  V30 10259 C 968.988 3.47781 -2.82404 0
M  V30 10260 C 970.732 4.099 -1.10372 0
M  V30 10261 C 968.639 4.9009 -3.31008 0
M  V30 10262 H 967.569 0.699082 -0.282491 0
M  V30 10263 H 970.22 1.31989 -1.27481 0
M  V30 10264 H 968.602 3.89094 -0.736312 0
M  V30 10265 H 969.776 3.03765 -3.46502 0
M  V30 10266 H 968.091 2.86193 -3.02461 0
M  V30 10267 H 970.688 5.14894 -1.4418 0
M  V30 10268 H 971.031 4.16279 -0.0417372 0
M  V30 10269 H 971.564 3.61913 -1.65117 0
M  V30 10270 H 968.303 4.88887 -4.36657 0
M  V30 10271 H 967.823 5.34756 -2.71655 0
M  V30 10272 H 969.502 5.58881 -3.25977 0
M  V30 10273 N 969.634 0.838594 1.33437 0
M  V30 10274 C 970.582 0.260158 2.31141 0
M  V30 10275 C 971.576 -0.607706 1.58124 0
M  V30 10276 O 972.782 -0.497298 1.72994 0
M  V30 10277 H 969.157 0.0654031 0.74915 0
M  V30 10278 H 971.128 1.09874 2.77435 0
M  V30 10279 C 969.877 -0.550234 3.43319 0
M  V30 10280 H 969.2 0.108262 3.99653 0
M  V30 10281 H 970.64 -0.920815 4.1388 0
M  V30 10282 C 969.099 -1.729 2.89149 0
M  V30 10283 O 969.629 -2.82769 2.85315 0
M  V30 10284 N 967.835 -1.5508 2.45761 0
M  V30 10285 H 967.382 -0.657055 2.49079 0
M  V30 10286 H 967.34 -2.34099 2.0987 0
M  V30 10287 N 971.112 -1.45937 0.595003 0
M  V30 10288 C 972.528 -1.57507 0.257641 0
M  V30 10289 C 972.728 -1.58829 -1.23998 0
M  V30 10290 O 971.784 -1.51183 -2.02237 0
M  V30 10291 C 973.097 -2.86354 0.917708 0
M  V30 10292 C 974.645 -3.00007 0.892446 0
M  V30 10293 C 975.12 -4.31607 1.53229 0
M  V30 10294 N 976.611 -4.38336 1.49719 0
M  V30 10295 C 977.346 -5.38805 1.96154 0
M  V30 10296 N 976.842 -6.45882 2.50617 0
M  V30 10297 N 978.635 -5.30084 1.86997 0
M  V30 10298 H 970.786 -1.43322 1.56756 0
M  V30 10299 H 973.049 -0.684436 0.655936 0
M  V30 10300 H 972.755 -2.91233 1.97171 0
M  V30 10301 H 972.629 -3.74703 0.433344 0
M  V30 10302 H 975.016 -2.94703 -0.152975 0
M  V30 10303 H 975.097 -2.13103 1.41495 0
M  V30 10304 H 974.741 -4.3767 2.57697 0
M  V30 10305 H 974.671 -5.17308 0.984903 0
M  V30 10306 H 977.162 -3.6156 1.09921 0
M  V30 10307 H 977.475 -7.18774 2.83874 0
M  V30 10308 H 975.82 -6.46668 2.54649 0
M  V30 10309 H 979.011 -4.45337 1.44196 0
M  V30 10310 H 979.184 -6.08237 2.23499 0
M  V30 10311 N 972.59 -0.333456 -1.54032 0
M  V30 10312 C 973.553 0.515392 -2.2333 0
M  V30 10313 C 974.553 1.03566 -1.23007 0
M  V30 10314 O 975.743 0.926514 -1.47517 0
M  V30 10315 C 972.875 1.7169 -2.94508 0
M  V30 10316 H 974.068 -0.0905407 -2.99763 0
M  V30 10317 H 971.621 -0.0846651 -1.56071 0
M  V30 10318 H 972.356 2.3618 -2.22237 0
M  V30 10319 H 972.141 1.35115 -3.68085 0
M  V30 10320 H 973.631 2.31922 -3.47278 0
M  V30 10321 N 974.068 1.57479 -0.061844 0
M  V30 10322 C 975 2.09116 0.938245 0
M  V30 10323 C 976.013 1.0212 1.26788 0
M  V30 10324 O 977.202 1.2966 1.22681 0
M  V30 10325 C 974.302 2.52822 2.25686 0
M  V30 10326 C 973.475 3.83277 2.10755 0
M  V30 10327 C 972.534 4.13182 3.25833 0
M  V30 10328 O 971.56 4.82937 3.01265 0
M  V30 10329 N 972.762 3.65938 4.50633 0
M  V30 10330 H 975.527 2.95543 0.497433 0
M  V30 10331 H 973.088 1.61423 0.124134 0
M  V30 10332 H 975.08 2.69896 3.01559 0
M  V30 10333 H 973.65 1.71586 2.61299 0
M  V30 10334 H 972.87 3.7568 1.19409 0
M  V30 10335 H 974.158 4.68686 1.98018 0
M  V30 10336 H 973.556 3.09566 4.73482 0
M  V30 10337 H 972.113 3.8823 5.23565 0
M  V30 10338 N 975.546 -0.211634 1.56173 0
M  V30 10339 C 976.795 -0.932647 1.78842 0
M  V30 10340 C 977.108 -1.85103 0.63217 0
M  V30 10341 O 978.314 -2.61143 0.742746 0
M  V30 10342 C 976.77 -1.70866 3.16753 0
M  V30 10343 C 976.378 -0.835934 4.40132 0
M  V30 10344 C 978.122 -2.4203 3.48743 0
M  V30 10345 C 976.029 -1.60987 5.69067 0
M  V30 10346 H 974.959 -0.351983 0.666801 0
M  V30 10347 H 977.61 -0.186284 1.82552 0
M  V30 10348 H 975.992 -2.4983 3.07247 0
M  V30 10349 H 977.166 -0.0861298 4.60719 0
M  V30 10350 H 975.481 -0.235941 4.15731 0
M  V30 10351 H 978.078 -3.00453 4.42303 0
M  V30 10352 H 978.421 -3.15406 2.71707 0
M  V30 10353 H 978.954 -1.70048 3.59623 0
M  V30 10354 H 975.693 -0.9192 6.49023 0
M  V30 10355 H 975.213 -2.33403 5.52524 0
M  V30 10356 H 976.892 -2.16798 6.09596 0
M  V30 10357 N 977.024 -1.50153 -0.478725 0
M  V30 10358 C 978.273 -1.60002 -1.22809 0
M  V30 10359 C 978.586 -0.302277 -1.9325 0
M  V30 10360 O 979.792 -0.279583 -2.70057 0
M  V30 10361 C 978.248 -2.82402 -2.23108 0
M  V30 10362 C 977.856 -4.19023 -1.58505 0
M  V30 10363 C 979.6 -3.01593 -2.98734 0
M  V30 10364 C 977.507 -5.32618 -2.57045 0
M  V30 10365 H 976.437 -0.595822 -0.462073 0
M  V30 10366 H 979.088 -1.76573 -0.499412 0
M  V30 10367 H 977.47 -2.59373 -2.99235 0
M  V30 10368 H 978.644 -4.52277 -0.882187 0
M  V30 10369 H 976.959 -4.05374 -0.951877 0
M  V30 10370 H 979.556 -3.8363 -3.72468 0
M  V30 10371 H 979.899 -2.1302 -3.57671 0
M  V30 10372 H 980.432 -3.24766 -2.29721 0
M  V30 10373 H 977.171 -6.23321 -2.02858 0
M  V30 10374 H 976.691 -5.03792 -3.25505 0
M  V30 10375 H 978.37 -5.62877 -3.19028 0
M  V30 10376 N 978.502 0.731368 -1.39602 0
M  V30 10377 C 979.45 1.86676 -1.38761 0
M  V30 10378 C 980.444 1.6723 -0.270247 0
M  V30 10379 O 981.65 1.74528 -0.440471 0
M  V30 10380 H 978.025 0.614553 -0.433391 0
M  V30 10381 H 979.996 1.84501 -2.34525 0
M  V30 10382 C 978.745 3.24394 -1.25155 0
M  V30 10383 H 978.068 3.39955 -2.10406 0
M  V30 10384 H 979.508 4.04019 -1.28625 0
M  V30 10385 C 977.967 3.36877 0.0396976 0
M  V30 10386 O 978.497 3.88833 1.00854 0
M  V30 10387 N 976.703 2.90414 0.103965 0
M  V30 10388 H 976.25 2.48321 -0.685155 0
M  V30 10389 H 976.208 2.99146 0.967435 0
M  V30 10390 N 979.98 1.24838 0.961938 0
M  V30 10391 C 981.257 0.99939 1.68141 0
M  V30 10392 C 981.637 -0.476588 2.0565 0
M  V30 10393 O 980.985 -1.45224 1.76415 0
M  V30 10394 C 981.195 1.92797 2.90913 0
M  V30 10395 C 982.543 2.20219 3.63027 0
M  V30 10396 O 983.567 1.90496 3.00981 0
M  V30 10397 O 982.426 2.70725 4.74731 0
M  V30 10398 H 979.52 0.37842 0.735342 0
M  V30 10399 H 982.066 1.35961 1.01551 0
M  V30 10400 H 980.838 2.92492 2.59931 0
M  V30 10401 H 980.461 1.57127 3.65235 0
M  V30 10402 N 981.458 -1.16348 1.06306 0
M  V30 10403 C 982.421 -2.18941 0.678053 0
M  V30 10404 C 983.421 -1.58409 -0.276277 0
M  V30 10405 O 984.611 -1.74101 -0.0586435 0
M  V30 10406 C 981.743 -3.409 -0.00228684 0
M  V30 10407 H 982.936 -2.54516 1.58624 0
M  V30 10408 H 980.489 -1.30625 0.858298 0
M  V30 10409 H 981.224 -3.10881 -0.923212 0
M  V30 10410 H 981.009 -3.86089 0.683949 0
M  V30 10411 H 982.499 -4.16806 -0.257374 0
M  V30 10412 N 982.937 -0.845659 -1.3299 0
M  V30 10413 C 984.184 -0.444653 -1.97558 0
M  V30 10414 C 984.512 0.997682 -1.66963 0
M  V30 10415 O 983.767 1.71349 -0.94541 0
M  V30 10416 C 984.066 -0.6201 -3.51979 0
M  V30 10417 C 983.732 -2.03155 -4.02541 0
M  V30 10418 C 982.394 -2.4176 -4.16059 0
M  V30 10419 C 984.746 -2.95317 -4.29462 0
M  V30 10420 C 982.074 -3.71818 -4.53837 0
M  V30 10421 C 984.426 -4.24863 -4.68694 0
M  V30 10422 C 983.09 -4.63416 -4.80419 0
M  V30 10423 H 982.36 -0.16271 -0.722915 0
M  V30 10424 H 985.007 -1.07399 -1.58549 0
M  V30 10425 H 983.312 0.092513 -3.91691 0
M  V30 10426 H 985.009 -0.290012 -3.9995 0
M  V30 10427 H 981.599 -1.72174 -3.92497 0
M  V30 10428 H 985.783 -2.66726 -4.18534 0
M  V30 10429 H 981.039 -4.01484 -4.61108 0
M  V30 10430 H 985.213 -4.96347 -4.8848 0
M  V30 10431 H 982.84 -5.6424 -5.09448 0
M  V30 10432 N 984.415 1.45619 -0.602734 0
M  V30 10433 C 985.363 2.32228 0.131484 0
M  V30 10434 C 986.357 1.45681 0.864484 0
M  V30 10435 O 987.563 1.62193 0.7806 0
M  V30 10436 H 983.938 0.7495 0.0612638 0
M  V30 10437 H 985.909 2.91941 -0.617496 0
M  V30 10438 C 984.658 3.29213 1.11866 0
M  V30 10439 H 983.981 3.95801 0.564061 0
M  V30 10440 H 985.421 3.92554 1.60242 0
M  V30 10441 C 983.88 2.56028 2.18978 0
M  V30 10442 O 984.41 2.33806 3.26646 0
M  V30 10443 N 982.616 2.16245 1.94129 0
M  V30 10444 H 982.163 2.34518 1.06579 0
M  V30 10445 H 982.121 1.67601 2.66003 0
M  V30 10446 N 985.893 0.34162 1.53853 0
M  V30 10447 C 986.823 -0.508431 2.27897 0
M  V30 10448 C 987.804 -1.10425 1.29384 0
M  V30 10449 O 988.989 -1.126 1.58224 0
M  V30 10450 C 986.119 -1.66048 3.05034 0
M  V30 10451 C 985.073 -1.19309 4.11035 0
M  V30 10452 C 984.399 -2.4335 4.76114 0
M  V30 10453 C 985.699 -0.294952 5.21467 0
M  V30 10454 H 987.393 0.109251 2.99201 0
M  V30 10455 H 984.939 0.0539847 1.43899 0
M  V30 10456 H 986.892 -2.26158 3.5557 0
M  V30 10457 H 985.616 -2.30503 2.31379 0
M  V30 10458 H 984.275 -0.614809 3.61408 0
M  V30 10459 H 983.923 -3.06208 3.99056 0
M  V30 10460 H 983.623 -2.1276 5.47729 0
M  V30 10461 H 985.147 -3.0419 5.29434 0
M  V30 10462 H 986.561 -0.80285 5.67651 0
M  V30 10463 H 984.958 -0.0810221 6.00045 0
M  V30 10464 H 986.028 0.669433 4.80257 0
M  V30 10465 N 987.371 -1.57444 0.0701946 0
M  V30 10466 C 988.334 -2.11511 -0.882923 0
M  V30 10467 C 989.334 -1.03879 -1.22743 0
M  V30 10468 O 990.524 -1.29874 -1.16097 0
M  V30 10469 C 987.656 -2.61514 -2.18686 0
M  V30 10470 H 988.849 -2.9703 -0.413873 0
M  V30 10471 H 986.402 -1.55278 -0.178488 0
M  V30 10472 H 987.137 -1.79443 -2.70131 0
M  V30 10473 H 986.922 -3.40185 -1.94978 0
M  V30 10474 H 988.412 -3.03425 -2.86919 0
M  V30 10475 N 988.849 0.203349 -1.56283 0
M  V30 10476 C 990.074 0.945548 -1.84592 0
M  V30 10477 C 990.499 1.7641 -0.652772 0
M  V30 10478 O 989.857 1.76867 0.398468 0
M  V30 10479 C 989.905 1.82416 -3.11057 0
M  V30 10480 O 989.009 2.92191 -2.9103 0
M  V30 10481 H 988.35 0.266739 -0.608068 0
M  V30 10482 H 990.88 0.211158 -2.03507 0
M  V30 10483 H 990.89 2.23044 -3.41636 0
M  V30 10484 H 989.565 1.22267 -3.97522 0
M  V30 10485 H 988.142 2.55378 -2.71728 0
M  V30 10486 N 990.327 1.50405 0.470755 0
M  V30 10487 C 991.29 1.68741 1.5511 0
M  V30 10488 C 992.29 0.558116 1.50804 0
M  V30 10489 O 993.48 0.825149 1.53418 0
M  V30 10490 C 990.612 1.71295 2.94739 0
M  V30 10491 H 991.805 2.65127 1.40169 0
M  V30 10492 H 989.358 1.39891 0.697156 0
M  V30 10493 H 990.093 0.766029 3.15123 0
M  V30 10494 H 989.878 2.53336 2.99271 0
M  V30 10495 H 991.368 1.87434 3.73173 0
M  V30 10496 N 991.805 -0.723954 1.39988 0
M  V30 10497 C 992.755 -1.82943 1.36073 0
M  V30 10498 C 993.739 -1.59105 0.239682 0
M  V30 10499 O 994.931 -1.7042 0.478116 0
M  V30 10500 C 992.06 -3.20988 1.21745 0
M  V30 10501 C 991.146 -3.50618 2.38596 0
M  V30 10502 N 991.537 -3.51115 3.64077 0
M  V30 10503 C 989.835 -3.81035 2.31794 0
M  V30 10504 C 990.536 -3.78852 4.41413 0
M  V30 10505 N 989.512 -3.97182 3.71143 0
M  V30 10506 H 993.314 -1.81649 2.31043 0
M  V30 10507 H 990.828 -0.922703 1.33641 0
M  V30 10508 H 992.825 -4.00139 1.17022 0
M  V30 10509 H 991.485 -3.23513 0.277344 0
M  V30 10510 H 992.496 -3.32163 3.97351 0
M  V30 10511 H 989.173 -3.911 1.46105 0
M  V30 10512 H 990.563 -3.85612 5.5023 0
M  V30 10513 N 993.283 -1.25346 -0.955304 0
M  V30 10514 C 994.23 -1.05672 -2.05188 0
M  V30 10515 C 995.2 0.0339217 -1.66065 0
M  V30 10516 O 996.385 -0.123126 -1.90402 0
M  V30 10517 C 993.525 -0.680791 -3.38318 0
M  V30 10518 C 992.638 -1.84622 -3.90562 0
M  V30 10519 C 991.773 -1.41471 -5.12015 0
M  V30 10520 C 990.812 -2.54931 -5.56486 0
M  V30 10521 N 989.949 -2.1256 -6.69151 0
M  V30 10522 H 994.789 -1.9952 -2.2135 0
M  V30 10523 H 992.326 -0.993588 -1.08472 0
M  V30 10524 H 994.284 -0.443794 -4.14833 0
M  V30 10525 H 992.914 0.2207 -3.22045 0
M  V30 10526 H 991.966 -2.19654 -3.10574 0
M  V30 10527 H 993.278 -2.6983 -4.19515 0
M  V30 10528 H 992.432 -1.13732 -5.95945 0
M  V30 10529 H 991.171 -0.533334 -4.84775 0
M  V30 10530 H 990.176 -2.83415 -4.71122 0
M  V30 10531 H 991.401 -3.43645 -5.85734 0
M  V30 10532 H 989.347 -1.26838 -6.43621 0
M  V30 10533 H 989.264 -2.91317 -6.97618 0
M  V30 10534 H 990.532 -1.87996 -7.5649 0
M  V30 10535 N 994.761 1.15782 -1.06922 0
M  V30 10536 C 996.007 1.86741 -0.790922 0
M  V30 10537 C 996.34 1.81863 0.681149 0
M  V30 10538 O 995.615 1.23871 1.49954 0
M  V30 10539 C 995.898 3.36038 -1.29422 0
M  V30 10540 C 995.751 3.49573 -2.83052 0
M  V30 10541 C 997.07 4.30647 -0.907239 0
M  V30 10542 H 994.189 0.678064 -0.288787 0
M  V30 10543 H 996.831 1.36054 -1.32624 0
M  V30 10544 H 994.981 3.79336 -0.838843 0
M  V30 10545 H 996.653 3.1517 -3.36847 0
M  V30 10546 H 994.896 2.91275 -3.21467 0
M  V30 10547 H 995.567 4.5445 -3.13335 0
M  V30 10548 H 998.043 3.95286 -1.29956 0
M  V30 10549 H 996.919 5.33604 -1.28679 0
M  V30 10550 H 997.18 4.41703 0.187251 0
M  V30 10551 N 996.239 0.8527 1.3254 0
M  V30 10552 C 997.65 0.510012 1.79599 0
M  V30 10553 C 998.001 -0.972002 1.70431 0
M  V30 10554 O 997.126 -1.7581 1.26173 0
M  V30 10555 C 997.721 0.918986 3.26098 0
M  V30 10556 C 996.28 0.628227 3.7112 0
M  V30 10557 C 995.427 1.11979 2.53685 0
M  V30 10558 H 998.378 1.04009 1.19866 0
M  V30 10559 H 998.399 0.234577 3.79776 0
M  V30 10560 H 997.911 1.99765 3.32739 0
M  V30 10561 H 996.012 -0.4398 3.69995 0
M  V30 10562 H 996.125 1.19315 4.64005 0
M  V30 10563 H 994.489 0.540133 2.48907 0
M  V30 10564 H 995.272 2.20552 2.63081 0
M  V30 10565 N 997.718 -1.45297 0.610449 0
M  V30 10566 C 998.964 -2.02518 0.106917 0
M  V30 10567 C 999.297 -1.47747 -1.26034 0
M  V30 10568 O 998.572 -0.65329 -1.832 0
M  V30 10569 C 998.855 -3.6003 0.0710975 0
M  V30 10570 C 998.708 -4.25128 1.46922 0
M  V30 10571 C 1000.03 -4.35778 -0.61524 0
M  V30 10572 H 997.146 -0.735896 0.040327 0
M  V30 10573 H 999.788 -1.73117 0.782968 0
M  V30 10574 H 997.938 -3.85209 -0.504611 0
M  V30 10575 H 999.61 -4.11125 2.09223 0
M  V30 10576 H 997.853 -3.83418 2.02911 0
M  V30 10577 H 998.524 -5.34046 1.39637 0
M  V30 10578 H 1001 -4.1591 -0.125871 0
M  V30 10579 H 999.876 -5.45506 -0.609419 0
M  V30 10580 H 1000.14 -4.08859 -1.68186 0
M  V30 10581 N 999.196 -0.349774 -1.5367 0
M  V30 10582 C 1000.42 0.246038 -2.05432 0
M  V30 10583 C 1000.84 1.43719 -1.22435 0
M  V30 10584 O 1000.2 1.80622 -0.261166 0
M  V30 10585 C 1000.25 0.65501 -3.55516 0
M  V30 10586 O 999.968 -0.488782 -4.35365 0
M  V30 10587 C 1001.47 1.31088 -4.23475 0
M  V30 10588 H 998.689 0.0463952 -0.669394 0
M  V30 10589 H 1001.23 -0.503566 -1.98203 0
M  V30 10590 H 999.388 1.35455 -3.62947 0
M  V30 10591 H 999.802 -0.161528 -5.24251 0
M  V30 10592 H 1001.28 1.54774 -5.29857 0
M  V30 10593 H 1001.75 2.26636 -3.76208 0
M  V30 10594 H 1002.36 0.653211 -4.20254 0
M  V30 10595 N 1000.67 1.57404 -0.0785433 0
M  V30 10596 C 1001.6 2.16131 0.883726 0
M  V30 10597 C 1002.58 1.09015 1.30575 0
M  V30 10598 O 1003.77 1.3708 1.37559 0
M  V30 10599 C 1000.9 2.72836 2.1489 0
M  V30 10600 C 999.854 3.85178 1.86605 0
M  V30 10601 C 999.18 4.28516 3.1981 0
M  V30 10602 C 1000.48 5.09118 1.16601 0
M  V30 10603 H 1002.17 2.9679 0.394484 0
M  V30 10604 H 999.72 1.42763 0.188304 0
M  V30 10605 H 1001.67 3.12567 2.8263 0
M  V30 10606 H 1000.4 1.89408 2.66068 0
M  V30 10607 H 999.056 3.45962 1.21268 0
M  V30 10608 H 998.704 3.42 3.68843 0
M  V30 10609 H 998.404 5.04249 3.01674 0
M  V30 10610 H 999.928 4.70868 3.88737 0
M  V30 10611 H 1001.34 5.46123 1.74422 0
M  V30 10612 H 999.739 5.90173 1.087 0
M  V30 10613 H 1000.81 4.8468 0.146138 0
M  V30 10614 N 1002.15 -0.195058 1.56388 0
M  V30 10615 C 1003.11 -1.2254 1.93692 0
M  V30 10616 C 1004.11 -1.38437 0.81804 0
M  V30 10617 O 1005.3 -1.36248 1.08545 0
M  V30 10618 C 1002.44 -2.59476 2.21099 0
M  V30 10619 H 1003.63 -0.906544 2.8587 0
M  V30 10620 H 1001.18 -0.436577 1.50079 0
M  V30 10621 H 1001.92 -2.96417 1.31558 0
M  V30 10622 H 1001.7 -2.4931 3.02634 0
M  V30 10623 H 1003.19 -3.33777 2.50964 0
M  V30 10624 N 1003.63 -1.50653 -0.462772 0
M  V30 10625 C 1004.56 -1.73056 -1.5676 0
M  V30 10626 C 1005.54 -0.579699 -1.59917 0
M  V30 10627 O 1006.73 -0.819729 -1.76051 0
M  V30 10628 C 1003.86 -1.83234 -2.9503 0
M  V30 10629 C 1002.81 -2.98488 -3.06739 0
M  V30 10630 C 1002.14 -2.93818 -4.46738 0
M  V30 10631 C 1003.44 -4.38869 -2.83181 0
M  V30 10632 H 1005.13 -2.65562 -1.38265 0
M  V30 10633 H 1002.68 -1.27792 -0.663722 0
M  V30 10634 H 1004.63 -1.97491 -3.72257 0
M  V30 10635 H 1003.35 -0.873558 -3.14701 0
M  V30 10636 H 1002.01 -2.83895 -2.31946 0
M  V30 10637 H 1001.66 -1.95769 -4.63339 0
M  V30 10638 H 1001.36 -3.71197 -4.55507 0
M  V30 10639 H 1002.88 -3.10135 -5.25974 0
M  V30 10640 H 1004.3 -4.53945 -3.50153 0
M  V30 10641 H 1002.69 -5.17762 -3.03386 0
M  V30 10642 H 1003.76 -4.50663 -1.78972 0
M  V30 10643 N 1005.11 0.71652 -1.4037 0
M  V30 10644 C 1006.06 1.85194 -1.40734 0
M  V30 10645 C 1007.05 1.66934 -0.287969 0
M  V30 10646 O 1008.26 1.74051 -0.458957 0
M  V30 10647 H 1004.63 0.609922 -0.439885 0
M  V30 10648 H 1006.6 1.82003 -2.36468 0
M  V30 10649 C 1005.35 3.23048 -1.28589 0
M  V30 10650 H 1004.67 3.37704 -2.13999 0
M  V30 10651 H 1006.11 4.02633 -1.32902 0
M  V30 10652 C 1004.57 3.369 0.00396512 0
M  V30 10653 O 1005.1 3.89881 0.967243 0
M  V30 10654 N 1003.31 2.90508 0.0731565 0
M  V30 10655 H 1002.86 2.4758 -0.711454 0
M  V30 10656 H 1002.81 3.00155 0.935652 0
M  V30 10657 N 1006.59 1.25851 0.948643 0
M  V30 10658 C 1007.53 1.06559 2.06756 0
M  V30 10659 C 1008.53 -0.00528632 1.69399 0
M  V30 10660 O 1009.73 0.150806 1.79367 0
M  V30 10661 H 1006.11 0.327689 0.676848 0
M  V30 10662 H 1008.08 2.01401 2.20182 0
M  V30 10663 C 1006.83 0.707392 3.40428 0
M  V30 10664 H 1006.15 1.52324 3.69645 0
M  V30 10665 H 1007.59 0.612142 4.19558 0
M  V30 10666 C 1006.05 -0.58697 3.31747 0
M  V30 10667 O 1006.58 -1.62741 3.67258 0
M  V30 10668 N 1004.79 -0.574828 2.84858 0
M  V30 10669 H 1004.33 0.272236 2.56157 0
M  V30 10670 H 1004.29 -1.441 2.79432 0
M  V30 10671 N 1008.06 -1.15214 1.07534 0
M  V30 10672 C 1009.29 -1.89922 0.820804 0
M  V30 10673 C 1009.71 -1.78114 -0.626177 0
M  V30 10674 O 1009.06 -1.13435 -1.42964 0
M  V30 10675 C 1009.12 -3.40207 1.22236 0
M  V30 10676 O 1008.84 -3.51676 2.61257 0
M  V30 10677 C 1010.34 -4.31934 0.997393 0
M  V30 10678 H 1007.56 -0.601865 0.296647 0
M  V30 10679 H 1010.1 -1.45965 1.43229 0
M  V30 10680 H 1008.26 -3.8182 0.655167 0
M  V30 10681 H 1008.67 -4.44959 2.77689 0
M  V30 10682 H 1010.14 -5.35791 1.32785 0
M  V30 10683 H 1010.62 -4.3915 -0.0661599 0
M  V30 10684 H 1011.23 -3.96066 1.54958 0
M  V30 10685 N 1009.54 -0.859717 -1.32086 0
M  V30 10686 C 1010.47 -0.323502 -2.31248 0
M  V30 10687 C 1011.45 0.580085 -1.59903 0
M  V30 10688 O 1012.64 0.499265 -1.87673 0
M  V30 10689 C 1009.77 0.484661 -3.43902 0
M  V30 10690 C 1008.72 -0.324933 -4.26765 0
M  V30 10691 C 1008.05 0.608281 -5.31229 0
M  V30 10692 C 1009.35 -1.55344 -4.98664 0
M  V30 10693 H 1011.04 -1.15209 -2.76346 0
M  V30 10694 H 1008.59 -0.555442 -1.32856 0
M  V30 10695 H 1010.54 0.870238 -4.12316 0
M  V30 10696 H 1009.27 1.34666 -2.97544 0
M  V30 10697 H 1007.92 -0.692328 -3.60003 0
M  V30 10698 H 1007.57 1.46727 -4.81124 0
M  V30 10699 H 1007.27 0.0705571 -5.87558 0
M  V30 10700 H 1008.8 0.990925 -6.02506 0
M  V30 10701 H 1010.21 -1.23987 -5.59732 0
M  V30 10702 H 1008.61 -2.02947 -5.64741 0
M  V30 10703 H 1009.68 -2.31192 -4.26237 0
M  V30 10704 N 1011.02 1.44971 -0.618145 0
M  V30 10705 C 1012.27 2.02159 -0.117482 0
M  V30 10706 C 1012.6 1.48517 1.2559 0
M  V30 10707 O 1011.85 0.654192 1.84442 0
M  V30 10708 C 1012.15 3.57378 -0.0394861 0
M  V30 10709 C 1011.82 4.30218 -1.34993 0
M  V30 10710 C 1010.48 4.49835 -1.70886 0
M  V30 10711 C 1012.83 4.71768 -2.21551 0
M  V30 10712 C 1010.16 5.08258 -2.9307 0
M  V30 10713 C 1012.51 5.31543 -3.42993 0
M  V30 10714 C 1011.17 5.49381 -3.79126 0
M  V30 10715 H 1010.44 0.739752 -0.0429897 0
M  V30 10716 H 1013.09 1.73903 -0.801871 0
M  V30 10717 H 1011.4 3.84973 0.728217 0
M  V30 10718 H 1013.09 3.99343 0.364213 0
M  V30 10719 H 1009.68 4.15271 -1.06057 0
M  V30 10720 H 1013.87 4.56336 -1.95117 0
M  V30 10721 H 1009.12 5.20257 -3.21158 0
M  V30 10722 H 1013.3 5.62691 -4.10308 0
M  V30 10723 H 1010.92 5.94419 -4.73888 0
M  V30 10724 N 1012.5 0.357919 1.53482 0
M  V30 10725 C 1013.43 -0.484231 2.28424 0
M  V30 10726 C 1014.41 -1.09046 1.30548 0
M  V30 10727 O 1015.59 -1.10916 1.59409 0
M  V30 10728 C 1012.72 -1.62803 3.06778 0
M  V30 10729 C 1011.68 -1.14943 4.12277 0
M  V30 10730 C 1011 -2.38287 4.78669 0
M  V30 10731 C 1012.3 -0.239627 5.2175 0
M  V30 10732 H 1014 0.140979 2.99068 0
M  V30 10733 H 1011.54 0.069244 1.43833 0
M  V30 10734 H 1013.5 -2.22374 3.57949 0
M  V30 10735 H 1012.22 -2.28036 2.3381 0
M  V30 10736 H 1010.88 -0.576442 3.6204 0
M  V30 10737 H 1010.53 -3.01959 4.02281 0
M  V30 10738 H 1010.23 -2.06939 5.49955 0
M  V30 10739 H 1011.75 -2.98558 5.32631 0
M  V30 10740 H 1013.17 -0.742597 5.6847 0
M  V30 10741 H 1011.56 -0.0173747 6.00097 0
M  V30 10742 H 1012.63 0.720333 4.7952 0
M  V30 10743 N 1013.98 -1.5736 0.0868897 0
M  V30 10744 C 1015.23 -1.93229 -0.578387 0
M  V30 10745 C 1015.54 -0.970127 -1.69847 0
M  V30 10746 O 1016.74 -1.22222 -2.42434 0
M  V30 10747 C 1015.2 -3.43307 -1.0802 0
M  V30 10748 C 1014.81 -4.47999 0.00968135 0
M  V30 10749 C 1016.55 -3.88151 -1.71868 0
M  V30 10750 C 1014.46 -5.89223 -0.507029 0
M  V30 10751 H 1013.39 -0.721245 -0.219823 0
M  V30 10752 H 1016.04 -1.82787 0.161566 0
M  V30 10753 H 1014.42 -3.48873 -1.87359 0
M  V30 10754 H 1015.6 -4.54067 0.784865 0
M  V30 10755 H 1013.91 -4.12714 0.552845 0
M  V30 10756 H 1016.51 -4.91056 -2.11585 0
M  V30 10757 H 1016.85 -3.26347 -2.58464 0
M  V30 10758 H 1017.38 -3.85252 -0.991259 0
M  V30 10759 H 1014.12 -6.54708 0.322121 0
M  V30 10760 H 1013.64 -5.86643 -1.2494 0
M  V30 10761 H 1015.32 -6.39556 -0.978628 0
M  V30 10762 N 1015.45 0.186762 -1.56489 0
M  V30 10763 C 1016.36 1.25169 -1.98419 0
M  V30 10764 C 1017.38 1.49329 -0.893124 0
M  V30 10765 O 1018.56 1.61781 -1.19954 0
M  V30 10766 C 1015.62 2.57422 -2.32239 0
M  V30 10767 C 1014.68 2.4126 -3.55095 0
M  V30 10768 C 1013.92 3.67206 -3.87292 0
M  V30 10769 O 1014.14 4.71731 -3.20665 0
M  V30 10770 O 1013.07 3.62238 -4.80695 0
M  V30 10771 H 1016.9 0.925834 -2.89244 0
M  V30 10772 H 1014.48 0.392421 -1.44154 0
M  V30 10773 H 1016.37 3.35466 -2.5503 0
M  V30 10774 H 1015.04 2.89618 -1.44579 0
M  V30 10775 H 1013.95 1.61299 -3.37541 0
M  V30 10776 H 1015.28 2.13994 -4.43247 0
M  V30 10777 N 1016.93 1.50896 0.454776 0
M  V30 10778 C 1017.84 1.73762 1.5762 0
M  V30 10779 C 1018.86 0.621206 1.62533 0
M  V30 10780 O 1020.03 0.901449 1.801 0
M  V30 10781 C 1017.1 1.84183 2.9373 0
M  V30 10782 C 1016.16 3.07982 2.99075 0
M  V30 10783 C 1015.39 3.17896 4.28693 0
M  V30 10784 O 1015.62 2.34184 5.20109 0
M  V30 10785 O 1014.55 4.10749 4.39964 0
M  V30 10786 H 1018.38 2.68856 1.41245 0
M  V30 10787 H 1015.96 1.35187 0.635984 0
M  V30 10788 H 1017.84 1.93123 3.74542 0
M  V30 10789 H 1016.52 0.922742 3.10269 0
M  V30 10790 H 1015.43 3.04531 2.17282 0
M  V30 10791 H 1016.76 3.99523 2.87476 0
M  V30 10792 N 1018.41 -0.709066 1.40748 0
M  V30 10793 C 1019.83 -1.01797 1.22921 0
M  V30 10794 C 1020.03 -2.01205 0.109011 0
M  V30 10795 O 1019.08 -2.46854 -0.530987 0
M  V30 10796 C 1020.4 -1.55546 2.57344 0
M  V30 10797 C 1021.94 -1.67498 2.64412 0
M  V30 10798 C 1022.42 -2.24652 3.99119 0
M  V30 10799 N 1023.91 -2.3203 4.00895 0
M  V30 10800 C 1024.64 -2.7725 5.01917 0
M  V30 10801 N 1024.14 -3.22174 6.13332 0
M  V30 10802 N 1025.93 -2.76692 4.89283 0
M  V30 10803 H 1018.08 -0.0502704 2.12341 0
M  V30 10804 H 1020.35 -0.0848933 0.944191 0
M  V30 10805 H 1020.05 -0.899631 3.39999 0
M  V30 10806 H 1019.93 -2.53971 2.78888 0
M  V30 10807 H 1022.31 -2.32196 1.82123 0
M  V30 10808 H 1022.4 -0.676553 2.46691 0
M  V30 10809 H 1022.04 -1.60573 4.81849 0
M  V30 10810 H 1021.97 -3.25221 4.14173 0
M  V30 10811 H 1024.46 -2.00309 3.20444 0
M  V30 10812 H 1024.77 -3.55265 6.86299 0
M  V30 10813 H 1023.12 -3.20116 6.16888 0
M  V30 10814 H 1026.31 -2.40936 4.01332 0
M  V30 10815 H 1026.48 -3.11617 5.68154 0
M  V30 10816 N 1019.89 -1.26353 -0.941956 0
M  V30 10817 C 1020.82 -1.03634 -2.04432 0
M  V30 10818 C 1021.83 0.00295864 -1.628 0
M  V30 10819 O 1023.02 -0.237029 -1.76919 0
M  V30 10820 C 1020.12 -0.547231 -3.34453 0
M  V30 10821 C 1019.3 -1.65559 -4.04857 0
M  V30 10822 C 1018.36 -1.16466 -5.13149 0
M  V30 10823 O 1017.38 -1.86158 -5.37898 0
M  V30 10824 N 1018.58 -0.0126703 -5.80499 0
M  V30 10825 H 1021.35 -1.98558 -2.24488 0
M  V30 10826 H 1018.91 -1.17728 -1.11138 0
M  V30 10827 H 1020.9 -0.203004 -4.04191 0
M  V30 10828 H 1019.47 0.308401 -3.11075 0
M  V30 10829 H 1018.69 -2.17079 -3.29044 0
M  V30 10830 H 1019.98 -2.39985 -4.48647 0
M  V30 10831 H 1019.38 0.569358 -5.62828 0
M  V30 10832 H 1017.93 0.272486 -6.5123 0
M  V30 10833 N 1021.37 1.14642 -1.08144 0
M  V30 10834 C 1022.6 1.89209 -0.82966 0
M  V30 10835 C 1023.01 1.78697 0.621604 0
M  V30 10836 O 1022.35 1.14224 1.4387 0
M  V30 10837 C 1022.41 3.39958 -1.16915 0
M  V30 10838 C 1022.07 3.74254 -2.62264 0
M  V30 10839 C 1023.07 3.746 -3.60514 0
M  V30 10840 C 1020.76 4.04316 -2.9805 0
M  V30 10841 C 1022.75 4.04527 -4.92582 0
M  V30 10842 C 1020.44 4.33906 -4.30312 0
M  V30 10843 C 1021.44 4.33995 -5.27388 0
M  V30 10844 O 1021.12 4.62869 -6.57273 0
M  V30 10845 H 1020.86 0.606259 -0.299042 0
M  V30 10846 H 1023.41 1.46132 -1.44342 0
M  V30 10847 H 1021.64 3.83475 -0.498377 0
M  V30 10848 H 1023.33 3.95828 -0.89862 0
M  V30 10849 H 1024.09 3.51466 -3.34211 0
M  V30 10850 H 1019.97 4.03402 -2.23132 0
M  V30 10851 H 1023.52 4.04511 -5.68346 0
M  V30 10852 H 1019.41 4.5651 -4.56365 0
M  V30 10853 H 1020.18 4.80598 -6.62546 0
M  V30 10854 N 1022.85 0.866709 1.31628 0
M  V30 10855 C 1023.78 0.264788 2.26659 0
M  V30 10856 C 1024.76 -0.604181 1.50958 0
M  V30 10857 O 1025.94 -0.558324 1.80042 0
M  V30 10858 C 1023.07 -0.625373 3.32877 0
M  V30 10859 C 1022.11 0.171813 4.26154 0
M  V30 10860 S 1022.95 1.54818 5.12632 0
M  V30 10861 C 1024.1 0.66405 6.22367 0
M  V30 10862 H 1024.34 1.07036 2.77364 0
M  V30 10863 H 1021.87 0.665038 1.39343 0
M  V30 10864 H 1023.83 -1.13327 3.94547 0
M  V30 10865 H 1022.49 -1.40486 2.80932 0
M  V30 10866 H 1021.68 -0.506694 5.01447 0
M  V30 10867 H 1021.28 0.611704 3.68964 0
M  V30 10868 H 1023.57 -0.126717 6.77381 0
M  V30 10869 H 1024.52 1.388 6.94363 0
M  V30 10870 H 1024.93 0.233046 5.64019 0
M  V30 10871 N 1024.32 -1.44642 0.625825 0
M  V30 10872 C 1025.73 -1.85502 0.211175 0
M  V30 10873 C 1026.09 -1.52356 -1.2362 0
M  V30 10874 O 1025.21 -0.959051 -1.93988 0
M  V30 10875 C 1025.81 -3.36702 0.37648 0
M  V30 10876 C 1024.36 -3.76396 0.0163795 0
M  V30 10877 C 1023.51 -2.68517 0.692368 0
M  V30 10878 H 1026.46 -1.35183 0.831333 0
M  V30 10879 H 1026.48 -3.78536 -0.386106 0
M  V30 10880 H 1026 -3.60795 1.42999 0
M  V30 10881 H 1024.1 -3.57919 -1.0356 0
M  V30 10882 H 1024.21 -4.77231 0.422742 0
M  V30 10883 H 1022.57 -2.54377 0.128191 0
M  V30 10884 H 1023.36 -2.95444 1.74837 0
M  V30 10885 N 1025.8 -0.366053 -1.5329 0
M  V30 10886 C 1027.05 0.216398 -2.02246 0
M  V30 10887 C 1027.4 1.46384 -1.24858 0
M  V30 10888 O 1026.7 1.88667 -0.333977 0
M  V30 10889 C 1026.89 0.560906 -3.52971 0
M  V30 10890 C 1026.72 -0.651598 -4.44954 0
M  V30 10891 C 1025.49 -1.16381 -4.91715 0
M  V30 10892 C 1027.69 -1.51695 -4.91419 0
M  V30 10893 N 1025.67 -2.33629 -5.67706 0
M  V30 10894 C 1027.04 -2.53608 -5.65759 0
M  V30 10895 C 1029.09 -1.53977 -4.73493 0
M  V30 10896 C 1027.8 -3.57661 -6.24076 0
M  V30 10897 C 1029.82 -2.56923 -5.32677 0
M  V30 10898 C 1029.19 -3.5756 -6.06902 0
M  V30 10899 H 1025.28 0.0418889 -0.780877 0
M  V30 10900 H 1027.87 -0.510704 -1.87883 0
M  V30 10901 H 1026.04 1.25708 -3.67494 0
M  V30 10902 H 1027.77 1.12849 -3.88648 0
M  V30 10903 H 1024.53 -0.728374 -4.67965 0
M  V30 10904 H 1024.95 -2.92891 -6.10364 0
M  V30 10905 H 1029.59 -0.775265 -4.15631 0
M  V30 10906 H 1027.31 -4.34993 -6.81034 0
M  V30 10907 H 1030.9 -2.59544 -5.207 0
M  V30 10908 H 1029.78 -4.35912 -6.51882 0
M  V30 10909 N 1027.28 1.57312 -0.0952337 0
M  V30 10910 C 1028.19 2.17556 0.877877 0
M  V30 10911 C 1029.21 1.14505 1.31014 0
M  V30 10912 O 1030.38 1.46876 1.37802 0
M  V30 10913 C 1027.45 2.74413 2.11892 0
M  V30 10914 C 1026.51 3.92419 1.74085 0
M  V30 10915 C 1025.74 4.46556 2.92273 0
M  V30 10916 O 1025.96 3.99631 4.07002 0
M  V30 10917 O 1024.9 5.37576 2.70732 0
M  V30 10918 H 1028.72 3.01116 0.395312 0
M  V30 10919 H 1026.31 1.48841 0.129123 0
M  V30 10920 H 1028.19 3.10754 2.84622 0
M  V30 10921 H 1026.87 1.93899 2.59201 0
M  V30 10922 H 1025.77 3.6089 0.985346 0
M  V30 10923 H 1027.11 4.74298 1.31539 0
M  V30 10924 N 1028.76 -0.17846 1.56586 0
M  V30 10925 C 1029.72 -1.20479 1.94981 0
M  V30 10926 C 1030.72 -1.37561 0.832677 0
M  V30 10927 O 1031.91 -1.35089 1.09984 0
M  V30 10928 C 1029.04 -2.57117 2.23839 0
M  V30 10929 H 1030.24 -0.876173 2.86816 0
M  V30 10930 H 1027.79 -0.420635 1.50534 0
M  V30 10931 H 1028.52 -2.95005 1.34695 0
M  V30 10932 H 1028.31 -2.46086 3.05261 0
M  V30 10933 H 1029.8 -3.31096 2.5449 0
M  V30 10934 N 1030.24 -1.51135 -0.446768 0
M  V30 10935 C 1031.2 -1.71187 -1.52406 0
M  V30 10936 C 1032.2 -0.582037 -1.49897 0
M  V30 10937 O 1033.39 -0.849452 -1.52085 0
M  V30 10938 C 1030.52 -1.75962 -2.91976 0
M  V30 10939 H 1031.71 -2.67324 -1.35934 0
M  V30 10940 H 1029.27 -1.40982 -0.674813 0
M  V30 10941 H 1030 -0.816065 -3.13864 0
M  V30 10942 H 1029.79 -2.58065 -2.95203 0
M  V30 10943 H 1031.28 -1.93347 -3.70144 0
M  V30 10944 N 1031.71 0.701592 -1.41122 0
M  V30 10945 C 1032.64 1.82815 -1.45262 0
M  V30 10946 C 1033.62 1.67215 -0.311939 0
M  V30 10947 O 1034.81 1.87038 -0.522538 0
M  V30 10948 C 1031.94 3.20899 -1.32819 0
M  V30 10949 C 1030.89 3.51194 -2.44636 0
M  V30 10950 C 1030.22 4.8857 -2.17263 0
M  V30 10951 C 1031.52 3.50777 -3.86979 0
M  V30 10952 H 1033.21 1.79608 -2.39544 0
M  V30 10953 H 1030.76 0.862693 -1.15298 0
M  V30 10954 H 1032.71 3.99417 -1.34329 0
M  V30 10955 H 1031.44 3.24717 -0.350191 0
M  V30 10956 H 1030.1 2.75024 -2.42399 0
M  V30 10957 H 1029.74 4.89007 -1.17819 0
M  V30 10958 H 1029.44 5.09805 -2.92186 0
M  V30 10959 H 1030.97 5.69405 -2.20478 0
M  V30 10960 H 1032.38 4.19309 -3.90964 0
M  V30 10961 H 1030.78 3.83542 -4.61536 0
M  V30 10962 H 1031.85 2.49873 -4.15562 0
M  V30 10963 N 1033.19 1.2685 0.935242 0
M  V30 10964 C 1034.42 1.15645 1.72165 0
M  V30 10965 C 1034.84 -0.283909 1.85945 0
M  V30 10966 O 1034.2 -1.20567 1.354 0
M  V30 10967 C 1034.25 1.83689 3.10307 0
M  V30 10968 O 1033.35 1.12972 3.96625 0
M  V30 10969 H 1032.69 0.402629 0.528002 0
M  V30 10970 H 1035.22 1.67781 1.17093 0
M  V30 10971 H 1035.23 1.90749 3.60664 0
M  V30 10972 H 1033.91 2.88472 2.99595 0
M  V30 10973 H 1032.48 1.13929 3.5507 0
M  V30 10974 N 1034.67 -1.14067 1.0875 0
M  V30 10975 C 1035.9 -1.89582 0.841038 0
M  V30 10976 C 1036.32 -1.78226 -0.601436 0
M  V30 10977 O 1035.68 -1.12491 -1.42181 0
M  V30 10978 C 1035.73 -3.37415 1.27213 0
M  V30 10979 O 1034.83 -4.10191 0.426246 0
M  V30 10980 H 1034.17 -0.589716 0.305173 0
M  V30 10981 H 1036.7 -1.44364 1.44984 0
M  V30 10982 H 1036.71 -3.88234 1.25451 0
M  V30 10983 H 1035.39 -3.44999 2.32268 0
M  V30 10984 H 1033.96 -3.69429 0.507585 0
M  V30 10985 N 1036.15 -0.873678 -1.31166 0
M  V30 10986 C 1037.08 -0.348011 -2.30892 0
M  V30 10987 C 1038.06 0.563092 -1.60509 0
M  V30 10988 O 1039.24 0.479332 -1.88192 0
M  V30 10989 C 1036.37 0.448158 -3.44396 0
M  V30 10990 C 1035.33 -0.370179 -4.26396 0
M  V30 10991 C 1034.65 0.551903 -5.31844 0
M  V30 10992 C 1035.95 -1.60624 -4.96988 0
M  V30 10993 H 1037.65 -1.18134 -2.75109 0
M  V30 10994 H 1035.19 -0.569502 -1.3226 0
M  V30 10995 H 1037.15 0.826458 -4.13216 0
M  V30 10996 H 1035.87 1.31503 -2.98956 0
M  V30 10997 H 1034.53 -0.730472 -3.59249 0
M  V30 10998 H 1034.18 1.41616 -4.82653 0
M  V30 10999 H 1033.88 0.00823478 -5.87599 0
M  V30 11000 H 1035.4 0.926965 -6.03523 0
M  V30 11001 H 1036.82 -1.29917 -5.58386 0
M  V30 11002 H 1035.21 -2.08926 -5.62557 0
M  V30 11003 H 1036.28 -2.357 -4.23761 0
M  V30 11004 N 1037.63 1.44308 -0.633487 0
M  V30 11005 C 1038.85 2.06897 -0.144347 0
M  V30 11006 C 1039.28 1.47045 1.173 0
M  V30 11007 O 1038.63 0.572806 1.72013 0
M  V30 11008 C 1038.68 3.60571 -0.0456324 0
M  V30 11009 O 1037.79 4.0015 0.997682 0
M  V30 11010 H 1037.13 0.658427 -0.0858499 0
M  V30 11011 H 1039.66 1.85142 -0.870833 0
M  V30 11012 H 1039.67 4.07745 0.144178 0
M  V30 11013 H 1038.34 4.03515 -1.0074 0
M  V30 11014 H 1036.92 3.64603 0.782252 0
M  V30 11015 N 1039.1 0.374177 1.53094 0
M  V30 11016 C 1040.33 -0.213015 2.05499 0
M  V30 11017 C 1040.74 -1.42303 1.24686 0
M  V30 11018 O 1040.09 -1.81512 0.282702 0
M  V30 11019 C 1040.15 -0.662308 3.53346 0
M  V30 11020 C 1039.81 0.432183 4.54952 0
M  V30 11021 C 1040.81 1.2848 5.03775 0
M  V30 11022 C 1038.49 0.594887 4.98765 0
M  V30 11023 C 1040.49 2.28538 5.9502 0
M  V30 11024 C 1038.17 1.59882 5.89814 0
M  V30 11025 C 1039.17 2.4425 6.37833 0
M  V30 11026 O 1038.86 3.4293 7.27086 0
M  V30 11027 H 1038.59 -0.0393809 0.674852 0
M  V30 11028 H 1041.15 0.533423 1.98353 0
M  V30 11029 H 1039.38 -1.46049 3.5806 0
M  V30 11030 H 1041.07 -1.17347 3.88567 0
M  V30 11031 H 1041.83 1.17033 4.70668 0
M  V30 11032 H 1037.71 -0.0520401 4.60971 0
M  V30 11033 H 1041.25 2.94426 6.32423 0
M  V30 11034 H 1037.15 1.71373 6.22335 0
M  V30 11035 H 1037.92 3.3876 7.45107 0
M  V30 11036 N 1040.58 -1.57259 0.103575 0
M  V30 11037 C 1041.83 -1.94657 -0.558126 0
M  V30 11038 C 1042.16 -0.985886 -1.67662 0
M  V30 11039 O 1041.41 -0.0069745 -1.95699 0
M  V30 11040 C 1041.71 -3.38549 -1.14538 0
M  V30 11041 C 1041.38 -4.50651 -0.149818 0
M  V30 11042 C 1040.04 -4.8104 0.12398 0
M  V30 11043 C 1042.39 -5.18503 0.529497 0
M  V30 11044 C 1039.72 -5.76606 1.08364 0
M  V30 11045 C 1042.07 -6.15099 1.47769 0
M  V30 11046 C 1040.74 -6.43889 1.75963 0
M  V30 11047 H 1040.01 -0.712299 -0.204233 0
M  V30 11048 H 1042.65 -1.90641 0.181208 0
M  V30 11049 H 1040.96 -3.39185 -1.96115 0
M  V30 11050 H 1042.65 -3.6479 -1.66521 0
M  V30 11051 H 1039.24 -4.2697 -0.373404 0
M  V30 11052 H 1043.43 -4.95194 0.331121 0
M  V30 11053 H 1038.68 -5.97223 1.30899 0
M  V30 11054 H 1042.86 -6.66767 2.00983 0
M  V30 11055 H 1040.49 -7.17749 2.50481 0
M  V30 11056 N 1042.06 0.170153 -1.56679 0
M  V30 11057 C 1043.01 1.21064 -1.965 0
M  V30 11058 C 1043.98 1.43928 -0.829092 0
M  V30 11059 O 1045.16 1.56649 -1.08931 0
M  V30 11060 C 1042.3 2.54468 -2.33109 0
M  V30 11061 C 1041.42 2.38974 -3.59883 0
M  V30 11062 C 1040.55 3.65252 -3.857 0
M  V30 11063 C 1039.59 3.44696 -5.05817 0
M  V30 11064 N 1038.73 4.63047 -5.27761 0
M  V30 11065 H 1043.57 0.864055 -2.85198 0
M  V30 11066 H 1041.1 0.415243 -1.41117 0
M  V30 11067 H 1043.06 3.32222 -2.52358 0
M  V30 11068 H 1041.69 2.8712 -1.4752 0
M  V30 11069 H 1040.74 1.5239 -3.48542 0
M  V30 11070 H 1042.06 2.19731 -4.47794 0
M  V30 11071 H 1041.21 4.51441 -4.05322 0
M  V30 11072 H 1039.95 3.87475 -2.96166 0
M  V30 11073 H 1038.95 2.56893 -4.86092 0
M  V30 11074 H 1040.18 3.23894 -5.96883 0
M  V30 11075 H 1038.12 4.85487 -4.41179 0
M  V30 11076 H 1038.04 4.46722 -6.09898 0
M  V30 11077 H 1039.31 5.50516 -5.51863 0
M  V30 11078 N 1043.54 1.5137 0.438746 0
M  V30 11079 C 1044.47 1.75528 1.53987 0
M  V30 11080 C 1045.45 0.605067 1.58975 0
M  V30 11081 O 1046.63 0.847634 1.74725 0
M  V30 11082 C 1043.76 1.87904 2.92078 0
M  V30 11083 C 1042.72 3.0333 3.01951 0
M  V30 11084 C 1042.04 3.00888 4.42007 0
M  V30 11085 C 1043.34 4.43319 2.76163 0
M  V30 11086 H 1045.04 2.67728 1.34022 0
M  V30 11087 H 1042.58 1.28831 0.643308 0
M  V30 11088 H 1044.54 2.03388 3.69068 0
M  V30 11089 H 1043.26 0.923514 3.13271 0
M  V30 11090 H 1041.92 2.87549 2.274 0
M  V30 11091 H 1041.57 2.03116 4.60166 0
M  V30 11092 H 1041.27 3.78397 4.49544 0
M  V30 11093 H 1042.79 3.18464 5.20973 0
M  V30 11094 H 1044.21 4.59458 3.42887 0
M  V30 11095 H 1042.6 5.22523 2.9511 0
M  V30 11096 H 1043.67 4.53453 1.71779 0
M  V30 11097 N 1045.02 -0.694098 1.41492 0
M  V30 11098 C 1045.95 -1.81841 1.37873 0
M  V30 11099 C 1046.93 -1.60732 0.245772 0
M  V30 11100 O 1048.11 -1.83461 0.432917 0
M  V30 11101 C 1045.24 -3.18543 1.15099 0
M  V30 11102 C 1044.28 -3.5844 2.31133 0
M  V30 11103 S 1045.12 -3.63079 3.93617 0
M  V30 11104 C 1046.27 -5.02505 3.73148 0
M  V30 11105 H 1046.51 -1.84634 2.33018 0
M  V30 11106 H 1044.04 -0.862948 1.28033 0
M  V30 11107 H 1046 -3.9746 1.02646 0
M  V30 11108 H 1044.66 -3.13358 0.21572 0
M  V30 11109 H 1043.85 -4.57754 2.10896 0
M  V30 11110 H 1043.45 -2.86837 2.40002 0
M  V30 11111 H 1045.75 -5.90046 3.32945 0
M  V30 11112 H 1046.69 -5.27784 4.72069 0
M  V30 11113 H 1047.1 -4.74113 3.06394 0
M  V30 11114 N 1046.49 -1.27344 -0.928501 0
M  V30 11115 C 1047.74 -1.13635 -1.6761 0
M  V30 11116 C 1048.07 0.317957 -1.91884 0
M  V30 11117 O 1047.32 1.24904 -1.50657 0
M  V30 11118 C 1047.62 -1.86439 -3.04918 0
M  V30 11119 C 1047.29 -3.36298 -3.00358 0
M  V30 11120 C 1045.95 -3.77173 -2.98821 0
M  V30 11121 C 1048.3 -4.31921 -2.91708 0
M  V30 11122 C 1045.63 -5.12037 -2.86417 0
M  V30 11123 C 1047.98 -5.66841 -2.80846 0
M  V30 11124 C 1046.65 -6.07011 -2.77659 0
M  V30 11125 H 1045.92 -0.415821 -0.61333 0
M  V30 11126 H 1048.56 -1.57943 -1.08288 0
M  V30 11127 H 1046.87 -1.34638 -3.6794 0
M  V30 11128 H 1048.57 -1.73261 -3.61637 0
M  V30 11129 H 1045.16 -3.0379 -3.0234 0
M  V30 11130 H 1049.34 -4.01314 -2.91994 0
M  V30 11131 H 1044.6 -5.42307 -2.82336 0
M  V30 11132 H 1048.77 -6.40608 -2.73119 0
M  V30 11133 H 1046.4 -7.11467 -2.67804 0
M  V30 11134 N 1047.97 1.13488 -1.09353 0
M  V30 11135 C 1049.25 1.80998 -0.741559 0
M  V30 11136 C 1049.63 1.96418 0.773505 0
M  V30 11137 O 1048.98 1.53168 1.69563 0
M  V30 11138 C 1049.19 3.16078 -1.47972 0
M  V30 11139 C 1050.54 3.91438 -1.64504 0
M  V30 11140 O 1051.56 3.25699 -1.44218 0
M  V30 11141 O 1050.42 5.0935 -1.98054 0
M  V30 11142 H 1047.51 0.782953 -0.266297 0
M  V30 11143 H 1050.06 1.20422 -1.19569 0
M  V30 11144 H 1048.83 3.00076 -2.51137 0
M  V30 11145 H 1048.45 3.84354 -1.01772 0
M  V30 11146 N 1049.45 0.880621 1.30701 0
M  V30 11147 C 1050.87 0.574015 1.4892 0
M  V30 11148 C 1051.07 -0.889312 1.80813 0
M  V30 11149 O 1050.12 -1.67082 1.89314 0
M  V30 11150 C 1051.44 1.48341 2.61563 0
M  V30 11151 C 1052.98 1.48658 2.75445 0
M  V30 11152 C 1053.46 2.3818 3.91196 0
M  V30 11153 N 1054.95 2.36119 3.985 0
M  V30 11154 C 1055.69 3.02101 4.87363 0
M  V30 11155 N 1055.18 3.77293 5.81052 0
M  V30 11156 N 1056.97 2.91356 4.80696 0
M  V30 11157 H 1049.13 1.82732 1.08271 0
M  V30 11158 H 1051.39 0.781939 0.535981 0
M  V30 11159 H 1051.09 2.52515 2.44804 0
M  V30 11160 H 1050.97 1.18977 3.57944 0
M  V30 11161 H 1053.36 0.452374 2.91612 0
M  V30 11162 H 1053.44 1.8205 1.79698 0
M  V30 11163 H 1053.08 3.41683 3.75786 0
M  V30 11164 H 1053.01 2.02106 4.86272 0
M  V30 11165 H 1055.5 1.81474 3.31475 0
M  V30 11166 H 1055.81 4.24742 6.45612 0
M  V30 11167 H 1054.16 3.81401 5.80998 0
M  V30 11168 H 1057.35 2.32143 4.06481 0
M  V30 11169 H 1057.52 3.43056 5.49742 0
M  V30 11170 N 1050.93 -1.4397 0.641131 0
M  V30 11171 C 1052.15 -2.06818 0.155318 0
M  V30 11172 C 1052.58 -1.47665 -1.16519 0
M  V30 11173 O 1051.94 -0.58192 -1.71707 0
M  V30 11174 C 1051.99 -3.60542 0.0647537 0
M  V30 11175 O 1051.09 -4.00674 -0.976447 0
M  V30 11176 H 1050.43 -0.657962 0.0893404 0
M  V30 11177 H 1052.96 -1.84678 0.88064 0
M  V30 11178 H 1052.97 -4.07816 -0.122552 0
M  V30 11179 H 1051.65 -4.02975 1.02878 0
M  V30 11180 H 1050.22 -3.65013 -0.762905 0
M  V30 11181 N 1052.41 -0.382291 -1.52893 0
M  V30 11182 C 1053.32 0.463745 -2.29971 0
M  V30 11183 C 1054.33 1.07777 -1.36602 0
M  V30 11184 O 1055.51 1.0851 -1.69669 0
M  V30 11185 C 1052.57 1.57938 -3.08637 0
M  V30 11186 C 1051.64 0.991182 -4.17701 0
M  V30 11187 C 1050.87 2.05365 -4.92606 0
M  V30 11188 O 1051.09 3.26757 -4.67532 0
M  V30 11189 O 1050.03 1.67487 -5.78128 0
M  V30 11190 H 1053.85 -0.163962 -3.03257 0
M  V30 11191 H 1051.44 -0.146199 -1.48683 0
M  V30 11192 H 1053.32 2.22765 -3.57706 0
M  V30 11193 H 1051.99 2.19218 -2.3817 0
M  V30 11194 H 1050.9 0.306364 -3.72843 0
M  V30 11195 H 1052.23 0.422699 -4.90382 0
M  V30 11196 N 1053.89 1.57202 -0.111913 0
M  V30 11197 C 1055.13 1.95239 0.548607 0
M  V30 11198 C 1055.46 0.994897 1.6678 0
M  V30 11199 O 1054.74 0.0308603 1.94476 0
M  V30 11200 C 1055.02 3.43271 1.08798 0
M  V30 11201 C 1054.88 4.49792 -0.0273064 0
M  V30 11202 C 1056.19 3.92989 1.98109 0
M  V30 11203 H 1053.31 0.709919 0.197951 0
M  V30 11204 H 1055.96 1.89087 -0.186036 0
M  V30 11205 H 1054.11 3.48644 1.71404 0
M  V30 11206 H 1055.78 4.56521 -0.662302 0
M  V30 11207 H 1054.02 4.28254 -0.691426 0
M  V30 11208 H 1054.69 5.50612 0.391201 0
M  V30 11209 H 1057.17 3.89875 1.45385 0
M  V30 11210 H 1056.04 4.97101 2.32769 0
M  V30 11211 H 1056.3 3.33267 2.90492 0
M  V30 11212 N 1055.36 -0.161842 1.56767 0
M  V30 11213 C 1056.59 -0.890953 1.86402 0
M  V30 11214 C 1057 -1.75918 0.696373 0
M  V30 11215 O 1056.34 -1.80461 -0.343463 0
M  V30 11216 C 1056.41 -1.81079 3.10565 0
M  V30 11217 C 1056.07 -1.12121 4.43032 0
M  V30 11218 C 1057.07 -0.482152 5.17659 0
M  V30 11219 C 1054.75 -1.11514 4.89765 0
M  V30 11220 C 1056.75 0.153772 6.37214 0
M  V30 11221 C 1054.43 -0.4754 6.09248 0
M  V30 11222 C 1055.43 0.157944 6.82817 0
M  V30 11223 O 1055.12 0.787579 8.00033 0
M  V30 11224 H 1054.85 -0.26379 0.622407 0
M  V30 11225 H 1057.41 -0.163884 2.04745 0
M  V30 11226 H 1055.64 -2.57842 2.88192 0
M  V30 11227 H 1057.32 -2.41056 3.26568 0
M  V30 11228 H 1058.09 -0.478752 4.82631 0
M  V30 11229 H 1053.97 -1.59752 4.32435 0
M  V30 11230 H 1057.51 0.648716 6.94577 0
M  V30 11231 H 1053.41 -0.476416 6.43739 0
M  V30 11232 H 1054.18 0.687769 8.15605 0
M  V30 11233 N 1056.84 -1.516 -0.430713 0
M  V30 11234 C 1058.09 -1.64271 -1.17726 0
M  V30 11235 C 1058.41 -0.364406 -1.91565 0
M  V30 11236 O 1057.68 0.619991 -1.8583 0
M  V30 11237 H 1056.26 -0.605432 -0.437562 0
M  V30 11238 H 1058.92 -1.88557 -0.493166 0
M  V30 11239 H 1058.02 -2.47355 -1.90321 0
M  V30 11240 N 1058.32 0.686584 -1.41858 0
M  V30 11241 C 1059.73 1.26682 -1.37145 0
M  V30 11242 C 1060.08 1.96112 -0.058922 0
M  V30 11243 O 1059.21 1.99321 0.842629 0
M  V30 11244 C 1059.8 2.30383 -2.48413 0
M  V30 11245 C 1058.36 2.83961 -2.47069 0
M  V30 11246 C 1057.51 1.58119 -2.27802 0
M  V30 11247 H 1060.46 0.480742 -1.51243 0
M  V30 11248 H 1060.48 3.11868 -2.17987 0
M  V30 11249 H 1059.99 1.79822 -3.43927 0
M  V30 11250 H 1058.09 3.38675 -1.55338 0
M  V30 11251 H 1058.21 3.3378 -3.43697 0
M  V30 11252 H 1056.57 1.84258 -1.75844 0
M  V30 11253 H 1057.35 1.09541 -3.25355 0
M  V30 11254 N 1059.8 1.27835 0.921735 0
M  V30 11255 C 1060.73 1.05397 2.02402 0
M  V30 11256 C 1061.71 -0.0274904 1.62577 0
M  V30 11257 O 1062.89 0.11885 1.88125 0
M  V30 11258 C 1060.02 0.600016 3.33343 0
M  V30 11259 C 1059.07 1.67693 3.9215 0
M  V30 11260 S 1059.9 3.27093 4.23994 0
M  V30 11261 C 1061.05 2.83513 5.58006 0
M  V30 11262 H 1061.29 1.98723 2.21125 0
M  V30 11263 H 1058.82 1.11733 1.0656 0
M  V30 11264 H 1060.78 0.344793 4.09049 0
M  V30 11265 H 1059.44 -0.313288 3.12534 0
M  V30 11266 H 1058.63 1.31074 4.86658 0
M  V30 11267 H 1058.23 1.88454 3.2305 0
M  V30 11268 H 1060.53 2.29187 6.37557 0
M  V30 11269 H 1061.47 3.76788 5.9953 0
M  V30 11270 H 1061.88 2.22472 5.18813 0
M  V30 11271 N 1061.28 -1.12907 1.09954 0
M  V30 11272 C 1062.22 -2.18485 0.743848 0
M  V30 11273 C 1063.19 -1.63766 -0.277494 0
M  V30 11274 O 1064.38 -1.90146 -0.157899 0
M  V30 11275 C 1061.52 -3.44649 0.176437 0
M  V30 11276 C 1060.63 -4.13445 1.25248 0
M  V30 11277 C 1059.77 -5.27242 0.647242 0
M  V30 11278 C 1058.8 -5.87897 1.70421 0
M  V30 11279 N 1057.94 -6.93116 1.1196 0
M  V30 11280 H 1062.78 -2.48257 1.64841 0
M  V30 11281 H 1060.32 -1.21891 0.823471 0
M  V30 11282 H 1062.28 -4.16852 -0.170384 0
M  V30 11283 H 1060.91 -3.15309 -0.69137 0
M  V30 11284 H 1059.96 -3.39471 1.7165 0
M  V30 11285 H 1061.27 -4.54601 2.05279 0
M  V30 11286 H 1060.42 -6.06186 0.249579 0
M  V30 11287 H 1059.16 -4.87351 -0.184556 0
M  V30 11288 H 1058.17 -5.07643 2.11136 0
M  V30 11289 H 1059.39 -6.2986 2.53877 0
M  V30 11290 H 1057.34 -6.55271 0.309181 0
M  V30 11291 H 1057.26 -7.32843 1.85681 0
M  V30 11292 H 1058.52 -7.759 0.748326 0
M  V30 11293 N 1062.75 -0.88754 -1.30232 0
M  V30 11294 C 1063.7 -0.345765 -2.30016 0
M  V30 11295 C 1064.7 0.5486 -1.60271 0
M  V30 11296 O 1065.9 0.43275 -1.74721 0
M  V30 11297 H 1062.28 -0.0931623 -0.746207 0
M  V30 11298 H 1064.25 -1.20095 -2.73166 0
M  V30 11299 C 1063 0.422435 -3.45124 0
M  V30 11300 H 1062.32 -0.256516 -3.98976 0
M  V30 11301 H 1063.76 0.766572 -4.17013 0
M  V30 11302 C 1062.22 1.62049 -2.95367 0
M  V30 11303 O 1062.75 2.71985 -2.95613 0
M  V30 11304 N 1060.95 1.45852 -2.51347 0
M  V30 11305 H 1060.5 0.564158 -2.51346 0
M  V30 11306 H 1060.46 2.26148 -2.18413 0
M  V30 11307 N 1064.23 1.43628 -0.648757 0
M  V30 11308 C 1065.46 2.05918 -0.167701 0
M  V30 11309 C 1065.87 1.48681 1.17006 0
M  V30 11310 O 1065.21 0.610984 1.73242 0
M  V30 11311 C 1065.28 3.595 0.00265514 0
M  V30 11312 C 1064.94 4.39295 -1.2597 0
M  V30 11313 C 1065.94 4.71643 -2.18743 0
M  V30 11314 C 1063.62 4.79379 -1.50004 0
M  V30 11315 C 1065.62 5.42978 -3.33846 0
M  V30 11316 C 1063.3 5.50459 -2.65401 0
M  V30 11317 C 1064.3 5.82181 -3.57148 0
M  V30 11318 O 1063.99 6.5181 -4.7053 0
M  V30 11319 H 1063.72 0.670619 -0.0851261 0
M  V30 11320 H 1066.27 1.85196 -0.888351 0
M  V30 11321 H 1064.5 3.7878 0.77863 0
M  V30 11322 H 1066.19 4.03503 0.440501 0
M  V30 11323 H 1066.96 4.41199 -2.01416 0
M  V30 11324 H 1062.84 4.54098 -0.794745 0
M  V30 11325 H 1066.38 5.67656 -4.05479 0
M  V30 11326 H 1062.28 5.8032 -2.82664 0
M  V30 11327 H 1063.05 6.7029 -4.69738 0
M  V30 11328 N 1065.71 0.390394 1.52688 0
M  V30 11329 C 1066.64 -0.43567 2.294 0
M  V30 11330 C 1067.62 -1.06253 1.32832 0
M  V30 11331 O 1068.81 -1.07509 1.61726 0
M  V30 11332 C 1065.94 -1.56259 3.10162 0
M  V30 11333 C 1064.89 -1.06172 4.14622 0
M  V30 11334 C 1064.22 -2.2808 4.83615 0
M  V30 11335 C 1065.52 -0.128902 5.22141 0
M  V30 11336 H 1067.21 0.204384 2.98702 0
M  V30 11337 H 1064.76 0.0997377 1.43654 0
M  V30 11338 H 1066.71 -2.14732 3.62585 0
M  V30 11339 H 1065.43 -2.23025 2.38595 0
M  V30 11340 H 1064.09 -0.499518 3.63181 0
M  V30 11341 H 1063.74 -2.93358 4.08595 0
M  V30 11342 H 1063.44 -1.95227 5.5422 0
M  V30 11343 H 1064.96 -2.87193 5.38844 0
M  V30 11344 H 1066.38 -0.621849 5.69917 0
M  V30 11345 H 1064.78 0.109919 5.99999 0
M  V30 11346 H 1065.85 0.821884 4.77884 0
M  V30 11347 N 1067.19 -1.57141 0.120249 0
M  V30 11348 C 1068.14 -2.15379 -0.829497 0
M  V30 11349 C 1069.11 -1.07913 -1.2627 0
M  V30 11350 O 1070.29 -1.35827 -1.33999 0
M  V30 11351 C 1067.43 -2.75847 -2.0737 0
M  V30 11352 C 1066.54 -3.97624 -1.68875 0
M  V30 11353 C 1065.68 -4.46175 -2.88272 0
M  V30 11354 C 1064.72 -5.60481 -2.46023 0
M  V30 11355 N 1063.85 -6.0377 -3.58337 0
M  V30 11356 H 1068.69 -2.96211 -0.326031 0
M  V30 11357 H 1066.23 -1.46341 -0.149235 0
M  V30 11358 H 1068.19 -3.09037 -2.80272 0
M  V30 11359 H 1066.82 -1.97703 -2.55174 0
M  V30 11360 H 1065.87 -3.70588 -0.858431 0
M  V30 11361 H 1067.18 -4.80512 -1.33827 0
M  V30 11362 H 1066.34 -4.8128 -3.69397 0
M  V30 11363 H 1065.08 -3.6224 -3.26548 0
M  V30 11364 H 1064.08 -5.24979 -1.63331 0
M  V30 11365 H 1065.31 -6.46184 -2.08863 0
M  V30 11366 H 1063.25 -5.22776 -3.96284 0
M  V30 11367 H 1063.17 -6.81517 -3.27217 0
M  V30 11368 H 1064.44 -6.43514 -4.39898 0
M  V30 11369 N 1068.67 0.153526 -1.5685 0
M  V30 11370 C 1069.61 1.18973 -1.97773 0
M  V30 11371 C 1070.58 1.43041 -0.844311 0
M  V30 11372 O 1071.77 1.55484 -1.10586 0
M  V30 11373 C 1068.91 2.51981 -2.35795 0
M  V30 11374 C 1068.02 2.35143 -3.62397 0
M  V30 11375 C 1067.16 3.61141 -3.89552 0
M  V30 11376 C 1066.2 3.39311 -5.09445 0
M  V30 11377 N 1065.33 4.57423 -5.32643 0
M  V30 11378 H 1070.17 0.833758 -2.86099 0
M  V30 11379 H 1067.71 0.400252 -1.4155 0
M  V30 11380 H 1069.67 3.29527 -2.55867 0
M  V30 11381 H 1068.3 2.85539 -1.50557 0
M  V30 11382 H 1067.35 1.48684 -3.50139 0
M  V30 11383 H 1068.66 2.14969 -4.501 0
M  V30 11384 H 1067.82 4.47117 -4.10087 0
M  V30 11385 H 1066.55 3.84312 -3.00259 0
M  V30 11386 H 1065.56 2.51723 -4.8879 0
M  V30 11387 H 1066.78 3.17545 -6.00285 0
M  V30 11388 H 1064.73 4.8078 -4.46303 0
M  V30 11389 H 1064.65 4.40228 -6.14602 0
M  V30 11390 H 1065.92 5.44632 -5.57671 0
M  V30 11391 N 1070.14 1.51827 0.422667 0
M  V30 11392 C 1071.08 1.70409 1.53275 0
M  V30 11393 C 1072.09 0.584584 1.51942 0
M  V30 11394 O 1073.28 0.859349 1.56453 0
M  V30 11395 C 1070.38 1.717 2.92185 0
M  V30 11396 C 1069.55 3.00472 3.17861 0
M  V30 11397 C 1068.61 2.93755 4.36571 0
M  V30 11398 O 1067.64 3.67682 4.3451 0
M  V30 11399 N 1068.84 2.10612 5.40946 0
M  V30 11400 H 1071.6 2.66176 1.37734 0
M  V30 11401 H 1069.16 1.49895 0.611799 0
M  V30 11402 H 1071.16 1.64756 3.69645 0
M  V30 11403 H 1069.73 0.834655 3.01251 0
M  V30 11404 H 1068.95 3.21171 2.28567 0
M  V30 11405 H 1070.23 3.85684 3.31851 0
M  V30 11406 H 1069.63 1.49954 5.45463 0
M  V30 11407 H 1068.19 2.09535 6.17202 0
M  V30 11408 N 1071.62 -0.679052 1.4222 0
M  V30 11409 C 1072.87 -1.44125 1.42674 0
M  V30 11410 C 1073.2 -1.94156 0.041438 0
M  V30 11411 O 1072.48 -1.70628 -0.93361 0
M  V30 11412 C 1072.76 -2.64133 2.44756 0
M  V30 11413 C 1072.61 -2.19761 3.9246 0
M  V30 11414 C 1073.93 -3.66347 2.43881 0
M  V30 11415 H 1071.05 -0.522729 0.519541 0
M  V30 11416 H 1073.69 -0.772067 1.73606 0
M  V30 11417 H 1071.84 -3.21225 2.1851 0
M  V30 11418 H 1073.51 -1.67869 4.29671 0
M  V30 11419 H 1071.76 -1.51377 4.06531 0
M  V30 11420 H 1072.43 -3.05944 4.59459 0
M  V30 11421 H 1074.9 -3.18963 2.67211 0
M  V30 11422 H 1073.78 -4.47902 3.17293 0
M  V30 11423 H 1074.04 -4.17183 1.46325 0
M  V30 11424 N 1073.1 -1.28322 -0.914942 0
M  V30 11425 C 1074.33 -1.18254 -1.69775 0
M  V30 11426 C 1074.74 0.258978 -1.87015 0
M  V30 11427 O 1074.1 1.17514 -1.3963 0
M  V30 11428 C 1074.15 -1.8753 -3.09054 0
M  V30 11429 O 1073.87 -3.26051 -2.92613 0
M  V30 11430 C 1075.37 -1.83749 -4.03424 0
M  V30 11431 H 1072.59 -0.41055 -0.530744 0
M  V30 11432 H 1075.14 -1.69425 -1.14523 0
M  V30 11433 H 1073.29 -1.40233 -3.61128 0
M  V30 11434 H 1073.71 -3.60729 -3.80756 0
M  V30 11435 H 1075.18 -2.36813 -4.98622 0
M  V30 11436 H 1075.66 -0.809601 -4.31674 0
M  V30 11437 H 1076.26 -2.3072 -3.57279 0
M  V30 11438 N 1074.58 1.12322 -1.10551 0
M  V30 11439 C 1075.99 1.6539 -0.8662 0
M  V30 11440 C 1076.34 1.86695 0.603284 0
M  V30 11441 O 1075.47 1.59432 1.46323 0
M  V30 11442 C 1076.06 3.00443 -1.56587 0
M  V30 11443 C 1074.62 3.50456 -1.37323 0
M  V30 11444 C 1073.77 2.25454 -1.61449 0
M  V30 11445 H 1076.72 0.960866 -1.26305 0
M  V30 11446 H 1076.74 3.66972 -1.00557 0
M  V30 11447 H 1076.25 2.84905 -2.63535 0
M  V30 11448 H 1074.35 3.71176 -0.325431 0
M  V30 11449 H 1074.46 4.29839 -2.11601 0
M  V30 11450 H 1072.83 2.32621 -1.03729 0
M  V30 11451 H 1073.61 2.12469 -2.69651 0
M  V30 11452 N 1076.06 0.894434 1.2976 0
M  V30 11453 C 1076.99 0.3847 2.30309 0
M  V30 11454 C 1077.97 -0.537486 1.61385 0
M  V30 11455 O 1079.15 -0.449332 1.8893 0
M  V30 11456 C 1076.28 -0.393311 3.45066 0
M  V30 11457 C 1075.24 0.437968 4.25753 0
M  V30 11458 C 1074.56 -0.467221 5.32655 0
M  V30 11459 C 1075.86 1.6851 4.9437 0
M  V30 11460 H 1077.56 1.22496 2.73194 0
M  V30 11461 H 1075.1 0.590471 1.31337 0
M  V30 11462 H 1077.06 -0.760614 4.14479 0
M  V30 11463 H 1075.78 -1.2673 3.0101 0
M  V30 11464 H 1074.44 0.787533 3.58041 0
M  V30 11465 H 1074.09 -1.33919 4.84845 0
M  V30 11466 H 1073.79 0.0852482 5.87538 0
M  V30 11467 H 1075.31 -0.830833 6.04921 0
M  V30 11468 H 1076.72 1.38784 5.56248 0
M  V30 11469 H 1075.12 2.17849 5.59162 0
M  V30 11470 H 1076.19 2.42412 4.19958 0
M  V30 11471 N 1077.53 -1.43282 0.656365 0
M  V30 11472 C 1078.78 -2.01776 0.171039 0
M  V30 11473 C 1079.11 -1.51795 -1.21609 0
M  V30 11474 O 1078.36 -0.702864 -1.82643 0
M  V30 11475 C 1078.66 -3.57148 0.134225 0
M  V30 11476 C 1078.33 -4.26488 1.46352 0
M  V30 11477 C 1076.99 -4.45146 1.82753 0
M  V30 11478 C 1079.34 -4.65728 2.33981 0
M  V30 11479 C 1076.67 -5.0031 3.06443 0
M  V30 11480 C 1079.02 -5.22263 3.56966 0
M  V30 11481 C 1077.69 -5.39136 3.93559 0
M  V30 11482 H 1076.96 -0.738352 0.0625878 0
M  V30 11483 H 1079.6 -1.71716 0.847697 0
M  V30 11484 H 1077.91 -3.86768 -0.625892 0
M  V30 11485 H 1079.61 -4.00168 -0.258207 0
M  V30 11486 H 1076.2 -4.12313 1.1703 0
M  V30 11487 H 1080.38 -4.51003 2.07148 0
M  V30 11488 H 1075.64 -5.11559 3.34839 0
M  V30 11489 H 1079.81 -5.51614 4.25082 0
M  V30 11490 H 1077.44 -5.81646 4.89481 0
M  V30 11491 N 1079.01 -0.398486 -1.52479 0
M  V30 11492 C 1080.26 0.182046 -2.00877 0
M  V30 11493 C 1080.58 1.47128 -1.2889 0
M  V30 11494 O 1081.78 2.13242 -1.68048 0
M  V30 11495 C 1080.24 0.374978 -3.57941 0
M  V30 11496 C 1079.85 -0.901544 -4.38835 0
M  V30 11497 C 1081.59 0.911378 -4.14601 0
M  V30 11498 C 1079.5 -0.676385 -5.87519 0
M  V30 11499 H 1078.43 0.0718068 -0.750573 0
M  V30 11500 H 1081.08 -0.522297 -1.7591 0
M  V30 11501 H 1079.46 1.14139 -3.79194 0
M  V30 11502 H 1080.63 -1.67329 -4.29346 0
M  V30 11503 H 1078.95 -1.36357 -3.93441 0
M  V30 11504 H 1081.55 1.09569 -5.23353 0
M  V30 11505 H 1081.89 1.88306 -3.71277 0
M  V30 11506 H 1082.42 0.204296 -3.97275 0
M  V30 11507 H 1079.16 -1.61933 -6.35184 0
M  V30 11508 H 1078.68 0.0562542 -5.99774 0
M  V30 11509 H 1080.36 -0.314454 -6.46235 0
M  V30 11510 N 1080.49 1.57075 -0.12858 0
M  V30 11511 C 1081.44 2.12379 0.829418 0
M  V30 11512 C 1082.43 1.04694 1.2218 0
M  V30 11513 O 1083.62 1.30909 1.1913 0
M  V30 11514 C 1080.75 2.73436 2.07575 0
M  V30 11515 C 1079.83 3.88217 1.7073 0
M  V30 11516 N 1080.22 4.94864 1.04609 0
M  V30 11517 C 1078.52 3.9858 2.00125 0
M  V30 11518 C 1079.22 5.7514 0.871137 0
M  V30 11519 N 1078.2 5.25284 1.39918 0
M  V30 11520 H 1082 2.92209 0.314816 0
M  V30 11521 H 1079.51 1.62233 0.0735788 0
M  V30 11522 H 1081.51 3.11406 2.77185 0
M  V30 11523 H 1080.17 1.95073 2.5957 0
M  V30 11524 H 1081.18 5.13025 0.708961 0
M  V30 11525 H 1077.86 3.3127 2.541 0
M  V30 11526 H 1079.25 6.7098 0.351395 0
M  V30 11527 N 1081.97 -0.145205 1.5693 0
M  V30 11528 C 1083.22 -0.857516 1.83447 0
M  V30 11529 C 1083.54 -1.81088 0.709739 0
M  V30 11530 O 1082.8 -1.9337 -0.301097 0
M  V30 11531 C 1083.1 -1.66391 3.16305 0
M  V30 11532 C 1082.76 -0.857171 4.42678 0
M  V30 11533 C 1081.43 -0.634611 4.76997 0
M  V30 11534 C 1083.78 -0.293105 5.20375 0
M  V30 11535 C 1081.11 0.162693 5.86474 0
M  V30 11536 C 1083.46 0.491248 6.3069 0
M  V30 11537 C 1082.12 0.724368 6.63558 0
M  V30 11538 H 1081.39 -0.313787 0.671281 0
M  V30 11539 H 1084.04 -0.121074 1.91117 0
M  V30 11540 H 1082.34 -2.47051 3.04094 0
M  V30 11541 H 1084.04 -2.21855 3.34038 0
M  V30 11542 H 1080.63 -1.0407 4.15773 0
M  V30 11543 H 1084.82 -0.452326 4.94234 0
M  V30 11544 H 1080.07 0.352788 6.10381 0
M  V30 11545 H 1084.25 0.935449 6.90089 0
M  V30 11546 H 1081.87 1.34403 7.48224 0
M  V30 11547 N 1083.45 -1.52049 -0.414609 0
M  V30 11548 C 1084.86 -1.40729 -0.752822 0
M  V30 11549 C 1085.06 -0.507468 -1.95005 0
M  V30 11550 O 1084.12 0.0288189 -2.52484 0
M  V30 11551 C 1085.43 -2.83163 -1.01189 0
M  V30 11552 C 1086.98 -2.92469 -1.11494 0
M  V30 11553 C 1087.46 -4.35859 -1.4068 0
M  V30 11554 N 1088.95 -4.39069 -1.47557 0
M  V30 11555 C 1089.68 -5.47072 -1.71756 0
M  V30 11556 N 1089.18 -6.65201 -1.93595 0
M  V30 11557 N 1090.97 -5.3458 -1.73726 0
M  V30 11558 H 1083.12 -2.09089 0.373549 0
M  V30 11559 H 1085.38 -0.942188 0.104814 0
M  V30 11560 H 1085.09 -3.51104 -0.204609 0
M  V30 11561 H 1084.96 -3.23874 -1.93353 0
M  V30 11562 H 1087.35 -2.24711 -1.91282 0
M  V30 11563 H 1087.43 -2.55222 -0.171794 0
M  V30 11564 H 1087.08 -5.04174 -0.614119 0
M  V30 11565 H 1087.01 -4.70637 -2.36238 0
M  V30 11566 H 1089.5 -3.53913 -1.32491 0
M  V30 11567 H 1089.81 -7.43297 -2.11495 0
M  V30 11568 H 1088.16 -6.68276 -1.90871 0
M  V30 11569 H 1091.35 -4.41271 -1.56198 0
M  V30 11570 H 1091.52 -6.18826 -1.92246 0
M  V30 11571 N 1084.93 0.6715 -1.42579 0
M  V30 11572 C 1085.87 1.80623 -1.46554 0
M  V30 11573 C 1086.87 1.65934 -0.340932 0
M  V30 11574 O 1088.07 1.72502 -0.514098 0
M  V30 11575 H 1084.45 0.595619 -0.459067 0
M  V30 11576 H 1086.42 1.74388 -2.42139 0
M  V30 11577 C 1085.17 3.18794 -1.38801 0
M  V30 11578 H 1084.49 3.30725 -2.24635 0
M  V30 11579 H 1085.93 3.98201 -1.45645 0
M  V30 11580 C 1084.39 3.36742 -0.103219 0
M  V30 11581 O 1084.92 3.92761 0.842715 0
M  V30 11582 N 1083.13 2.90594 -0.0193034 0
M  V30 11583 H 1082.67 2.45192 -0.78986 0
M  V30 11584 H 1082.63 3.0298 0.839686 0
M  V30 11585 N 1086.4 1.28806 0.908124 0
M  V30 11586 C 1087.35 1.13083 2.03261 0
M  V30 11587 C 1088.35 0.0486094 1.6933 0
M  V30 11588 O 1089.55 0.207794 1.78797 0
M  V30 11589 H 1085.93 0.349057 0.666081 0
M  V30 11590 H 1087.9 2.08304 2.13663 0
M  V30 11591 C 1086.65 0.815339 3.38005 0
M  V30 11592 H 1085.97 1.64007 3.64612 0
M  V30 11593 H 1087.41 0.745311 4.17398 0
M  V30 11594 C 1085.87 -0.48113 3.33447 0
M  V30 11595 O 1086.4 -1.50974 3.7225 0
M  V30 11596 N 1084.6 -0.483912 2.86543 0
M  V30 11597 H 1084.15 0.353593 2.55162 0
M  V30 11598 H 1084.11 -1.35138 2.83875 0
M  V30 11599 N 1087.88 -1.11734 1.11145 0
M  V30 11600 C 1089.11 -1.87215 0.880811 0
M  V30 11601 C 1089.52 -1.80016 -0.569195 0
M  V30 11602 O 1088.88 -1.17926 -1.39283 0
M  V30 11603 C 1088.93 -3.36146 1.32998 0
M  V30 11604 O 1088.65 -3.43187 2.72313 0
M  V30 11605 C 1090.15 -4.28542 1.1343 0
M  V30 11606 H 1087.37 -0.592123 0.315645 0
M  V30 11607 H 1089.92 -1.41335 1.478 0
M  V30 11608 H 1088.07 -3.79542 0.776308 0
M  V30 11609 H 1088.49 -4.359 2.91705 0
M  V30 11610 H 1089.96 -5.31295 1.49764 0
M  V30 11611 H 1090.44 -4.39138 0.0735859 0
M  V30 11612 H 1091.04 -3.90935 1.67481 0
M  V30 11613 N 1089.36 -0.901303 -1.29284 0
M  V30 11614 C 1090.31 -0.370142 -2.29636 0
M  V30 11615 C 1091.3 0.53157 -1.60844 0
M  V30 11616 O 1092.51 0.414194 -1.7517 0
M  V30 11617 H 1088.88 -0.101072 -0.745177 0
M  V30 11618 H 1090.85 -1.22985 -2.71877 0
M  V30 11619 C 1089.6 0.385806 -3.45553 0
M  V30 11620 H 1088.93 -0.298818 -3.98682 0
M  V30 11621 H 1090.37 0.722299 -4.17802 0
M  V30 11622 C 1088.82 1.58907 -2.97069 0
M  V30 11623 O 1089.35 2.68835 -2.98481 0
M  V30 11624 N 1087.56 1.43178 -2.5288 0
M  V30 11625 H 1087.11 0.537467 -2.51931 0
M  V30 11626 H 1087.07 2.23819 -2.208 0
M  V30 11627 N 1090.84 1.42931 -0.663954 0
M  V30 11628 C 1091.79 2.32577 0.03287 0
M  V30 11629 C 1092.78 1.49217 0.801918 0
M  V30 11630 O 1093.99 1.65358 0.711106 0
M  V30 11631 H 1090.36 0.751424 0.0294198 0
M  V30 11632 H 1092.33 2.89059 -0.740763 0
M  V30 11633 C 1091.08 3.33661 0.978025 0
M  V30 11634 H 1090.4 3.97837 0.395681 0
M  V30 11635 H 1091.84 3.98997 1.43448 0
M  V30 11636 C 1090.3 2.65085 2.07922 0
M  V30 11637 O 1090.83 2.4745 3.16435 0
M  V30 11638 N 1089.04 2.24285 1.84783 0
M  V30 11639 H 1088.59 2.38827 0.965368 0
M  V30 11640 H 1088.54 1.78732 2.58655 0
M  V30 11641 N 1092.32 0.406567 1.52266 0
M  V30 11642 C 1093.56 -0.1627 2.02748 0
M  V30 11643 C 1093.92 -1.43022 1.28695 0
M  V30 11644 O 1093.21 -1.87715 0.383881 0
M  V30 11645 C 1093.4 -0.467124 3.54334 0
M  V30 11646 C 1093.23 0.76934 4.4307 0
M  V30 11647 C 1092 1.29377 4.88456 0
M  V30 11648 C 1094.2 1.64671 4.87225 0
M  V30 11649 N 1092.18 2.48599 5.61313 0
M  V30 11650 C 1093.55 2.68519 5.58836 0
M  V30 11651 C 1095.61 1.66477 4.69244 0
M  V30 11652 C 1094.31 3.74081 6.14374 0
M  V30 11653 C 1096.34 2.70956 5.25677 0
M  V30 11654 C 1095.7 3.73525 5.97209 0
M  V30 11655 H 1091.8 -0.0211706 0.781713 0
M  V30 11656 H 1094.38 0.560338 1.86463 0
M  V30 11657 H 1092.55 -1.15921 3.70698 0
M  V30 11658 H 1094.29 -1.02505 3.91503 0
M  V30 11659 H 1091.04 0.85219 4.6587 0
M  V30 11660 H 1091.46 3.0897 6.02384 0
M  V30 11661 H 1096.11 0.88519 4.1343 0
M  V30 11662 H 1093.82 4.52896 6.69261 0
M  V30 11663 H 1097.41 2.73258 5.13635 0
M  V30 11664 H 1096.29 4.53043 6.40095 0
M  V30 11665 N 1093.79 -1.57004 0.136909 0
M  V30 11666 C 1095.21 -1.58082 -0.21958 0
M  V30 11667 C 1095.41 -1.15065 -1.65415 0
M  V30 11668 O 1094.47 -0.846284 -2.37896 0
M  V30 11669 C 1095.78 -3.00685 0.0300112 0
M  V30 11670 C 1097.33 -3.12981 -0.0344899 0
M  V30 11671 C 1097.8 -4.57615 0.187639 0
M  V30 11672 N 1099.29 -4.63005 0.134219 0
M  V30 11673 C 1100.03 -5.72712 0.280743 0
M  V30 11674 N 1099.52 -6.91104 0.48443 0
M  V30 11675 N 1101.32 -5.61673 0.219055 0
M  V30 11676 H 1093.47 -1.83262 1.07372 0
M  V30 11677 H 1095.73 -0.847776 0.424241 0
M  V30 11678 H 1095.44 -3.36509 1.02247 0
M  V30 11679 H 1095.31 -3.70762 -0.693918 0
M  V30 11680 H 1097.7 -2.77004 -1.01749 0
M  V30 11681 H 1097.78 -2.45411 0.721608 0
M  V30 11682 H 1097.42 -4.94295 1.16769 0
M  V30 11683 H 1097.35 -5.23299 -0.588661 0
M  V30 11684 H 1099.84 -3.77895 -0.0189681 0
M  V30 11685 H 1100.16 -7.7057 0.586613 0
M  V30 11686 H 1098.5 -6.93047 0.520627 0
M  V30 11687 H 1101.69 -4.68061 0.0607606 0
M  V30 11688 H 1101.87 -6.47125 0.336683 0
M  V30 11689 N 1095.27 0.136881 -1.57004 0
M  V30 11690 C 1096.18 1.18793 -2.023 0
M  V30 11691 C 1097.2 1.46412 -0.94018 0
M  V30 11692 O 1098.37 1.57883 -1.2504 0
M  V30 11693 C 1095.44 2.49903 -2.40311 0
M  V30 11694 C 1094.5 2.29841 -3.6259 0
M  V30 11695 C 1093.73 3.54699 -3.98779 0
M  V30 11696 O 1093.96 4.61291 -3.3551 0
M  V30 11697 O 1092.89 3.46761 -4.91976 0
M  V30 11698 H 1096.72 0.833345 -2.92043 0
M  V30 11699 H 1094.3 0.346361 -1.4533 0
M  V30 11700 H 1096.18 3.27183 -2.65574 0
M  V30 11701 H 1094.86 2.84872 -1.5372 0
M  V30 11702 H 1093.77 1.50478 -3.42501 0
M  V30 11703 H 1095.1 1.99784 -4.4983 0
M  V30 11704 N 1096.75 1.52266 0.40654 0
M  V30 11705 C 1098 1.6568 1.15035 0
M  V30 11706 C 1098.31 0.394135 1.91588 0
M  V30 11707 O 1099.52 0.408113 2.68415 0
M  V30 11708 C 1097.97 2.92725 2.0938 0
M  V30 11709 C 1097.58 4.26108 1.38332 0
M  V30 11710 C 1099.33 3.15502 2.84004 0
M  V30 11711 C 1097.23 5.44275 2.3134 0
M  V30 11712 H 1096.16 0.61719 0.43312 0
M  V30 11713 H 1098.81 1.78755 0.414598 0
M  V30 11714 H 1097.2 2.73355 2.86519 0
M  V30 11715 H 1098.37 4.55971 0.665396 0
M  V30 11716 H 1096.69 4.09454 0.757384 0
M  V30 11717 H 1099.28 4.00964 3.5374 0
M  V30 11718 H 1099.63 2.29842 3.471 0
M  V30 11719 H 1100.16 3.35357 2.13964 0
M  V30 11720 H 1096.9 6.3229 1.72887 0
M  V30 11721 H 1096.42 5.18749 3.01098 0
M  V30 11722 H 1098.1 5.77457 2.91809 0
M  V30 11723 N 1098.23 -0.663929 1.42933 0
M  V30 11724 C 1099.64 -1.24484 1.39143 0
M  V30 11725 C 1099.99 -1.95993 0.0901142 0
M  V30 11726 O 1099.12 -2.00636 -0.810812 0
M  V30 11727 C 1099.71 -2.26402 2.52047 0
M  V30 11728 C 1098.27 -2.79995 2.51555 0
M  V30 11729 C 1097.42 -1.54475 2.30289 0
M  V30 11730 H 1100.37 -0.456619 1.51989 0
M  V30 11731 H 1100.39 -3.08361 2.22921 0
M  V30 11732 H 1099.9 -1.74328 3.46744 0
M  V30 11733 H 1098 -3.36161 1.60707 0
M  V30 11734 H 1098.11 -3.2827 3.48964 0
M  V30 11735 H 1096.48 -1.81437 1.78753 0
M  V30 11736 H 1097.26 -1.04351 3.27056 0
M  V30 11737 N 1099.71 -1.29285 -0.901281 0
M  V30 11738 C 1100.62 -1.16161 -2.03823 0
M  V30 11739 C 1101.63 -0.0852298 -1.73791 0
M  V30 11740 O 1102.81 -0.29699 -1.99198 0
M  V30 11741 C 1099.87 -0.837586 -3.3643 0
M  V30 11742 C 1098.93 -1.99764 -3.7999 0
M  V30 11743 C 1098.17 -1.68898 -5.0627 0
M  V30 11744 O 1098.39 -0.609177 -5.67138 0
M  V30 11745 O 1097.32 -2.53648 -5.45845 0
M  V30 11746 H 1101.15 -2.11635 -2.17817 0
M  V30 11747 H 1098.74 -1.08722 -1.02468 0
M  V30 11748 H 1100.62 -0.671376 -4.16017 0
M  V30 11749 H 1099.29 0.0873811 -3.23582 0
M  V30 11750 H 1098.2 -2.21908 -3.01177 0
M  V30 11751 H 1099.53 -2.90376 -3.9742 0
M  V30 11752 N 1101.18 1.11143 -1.11736 0
M  V30 11753 C 1102.13 2.19358 -0.773626 0
M  V30 11754 C 1103.13 1.67744 0.236288 0
M  V30 11755 O 1104.33 1.79748 0.09525 0
M  V30 11756 H 1100.71 0.715218 -0.232309 0
M  V30 11757 H 1102.68 2.45594 -1.69487 0
M  V30 11758 C 1101.43 3.46895 -0.236457 0
M  V30 11759 H 1100.75 3.86967 -1.00483 0
M  V30 11760 H 1102.19 4.23986 -0.034168 0
M  V30 11761 C 1100.65 3.20641 1.03397 0
M  V30 11762 O 1101.18 3.41629 2.11312 0
M  V30 11763 N 1099.39 2.74356 0.957986 0
M  V30 11764 H 1098.93 2.57477 0.0796924 0
M  V30 11765 H 1098.89 2.57166 1.80867 0
M  V30 11766 N 1102.66 0.908147 1.28804 0
M  V30 11767 C 1103.59 0.409106 2.29888 0
M  V30 11768 C 1104.57 -0.520338 1.61946 0
M  V30 11769 O 1105.76 -0.429268 1.89396 0
M  V30 11770 C 1102.89 -0.35669 3.45463 0
M  V30 11771 C 1101.84 0.4831 4.25265 0
M  V30 11772 C 1101.17 -0.4107 5.3312 0
M  V30 11773 C 1102.47 1.73744 4.92555 0
M  V30 11774 H 1104.16 1.25386 2.7188 0
M  V30 11775 H 1101.71 0.604368 1.30703 0
M  V30 11776 H 1103.66 -0.71661 4.15262 0
M  V30 11777 H 1102.39 -1.2353 3.02337 0
M  V30 11778 H 1101.04 0.825464 3.57186 0
M  V30 11779 H 1100.69 -1.28769 4.86238 0
M  V30 11780 H 1100.39 0.14756 5.87415 0
M  V30 11781 H 1101.92 -0.766626 6.05768 0
M  V30 11782 H 1103.33 1.44676 5.54745 0
M  V30 11783 H 1101.73 2.23767 5.5682 0
M  V30 11784 H 1102.8 2.46853 4.17363 0
M  V30 11785 N 1104.14 -1.42577 0.671525 0
M  V30 11786 C 1105.07 -2.28124 -0.0589347 0
M  V30 11787 C 1106.05 -1.40878 -0.811915 0
M  V30 11788 O 1107.24 -1.70318 -0.807717 0
M  V30 11789 C 1104.36 -3.20662 -1.09057 0
M  V30 11790 C 1103.41 -4.24291 -0.43355 0
M  V30 11791 S 1104.24 -5.29393 0.806442 0
M  V30 11792 C 1105.4 -6.25498 -0.224204 0
M  V30 11793 H 1105.63 -2.89728 0.666689 0
M  V30 11794 H 1103.16 -1.47359 0.460959 0
M  V30 11795 H 1105.12 -3.74516 -1.68071 0
M  V30 11796 H 1103.78 -2.582 -1.78862 0
M  V30 11797 H 1102.98 -4.89213 -1.21186 0
M  V30 11798 H 1102.58 -3.73908 0.0829136 0
M  V30 11799 H 1104.87 -6.68757 -1.08492 0
M  V30 11800 H 1105.81 -7.07023 0.390469 0
M  V30 11801 H 1106.22 -5.61633 -0.568214 0
M  V30 11802 N 1105.62 -0.414636 -1.52048 0
M  V30 11803 C 1106.9 0.218172 -1.94379 0
M  V30 11804 C 1107.28 1.62133 -1.35189 0
M  V30 11805 O 1106.62 2.22271 -0.529877 0
M  V30 11806 C 1106.83 0.218932 -3.48313 0
M  V30 11807 C 1108.18 0.435604 -4.2236 0
M  V30 11808 O 1109.21 0.298049 -3.54951 0
M  V30 11809 O 1108.06 0.707217 -5.41905 0
M  V30 11810 H 1105.16 0.142173 -0.814688 0
M  V30 11811 H 1107.7 -0.470977 -1.63033 0
M  V30 11812 H 1106.48 -0.76292 -3.83791 0
M  V30 11813 H 1106.1 0.951949 -3.86036 0
M  V30 11814 N 1107.1 1.56929 -0.145233 0
M  V30 11815 C 1108.03 2.13796 0.826078 0
M  V30 11816 C 1109.04 1.08697 1.21197 0
M  V30 11817 O 1110.23 1.3598 1.15635 0
M  V30 11818 C 1107.33 2.6443 2.11967 0
M  V30 11819 C 1106.5 3.9391 1.90142 0
M  V30 11820 C 1105.56 4.29872 3.03474 0
M  V30 11821 O 1104.59 4.98227 2.75242 0
M  V30 11822 N 1105.79 3.8931 4.30602 0
M  V30 11823 H 1108.56 2.97764 0.340073 0
M  V30 11824 H 1106.12 1.61854 0.0383928 0
M  V30 11825 H 1108.11 2.85502 2.86829 0
M  V30 11826 H 1106.68 1.85196 2.51836 0
M  V30 11827 H 1105.9 3.81481 0.993268 0
M  V30 11828 H 1107.19 4.78523 1.72896 0
M  V30 11829 H 1106.58 3.34229 4.56407 0
M  V30 11830 H 1105.14 4.15438 5.0225 0
M  V30 11831 N 1108.58 -0.128553 1.57075 0
M  V30 11832 C 1109.81 -0.851214 1.8825 0
M  V30 11833 C 1110.21 -1.74402 0.733531 0
M  V30 11834 O 1109.56 -1.81149 -0.305108 0
M  V30 11835 C 1109.62 -1.74451 3.14336 0
M  V30 11836 C 1109.28 -1.02699 4.45311 0
M  V30 11837 C 1110.28 -0.37224 5.18566 0
M  V30 11838 C 1107.96 -1.01101 4.9202 0
M  V30 11839 C 1109.96 0.2889 6.36745 0
M  V30 11840 C 1107.65 -0.346063 6.10119 0
M  V30 11841 C 1108.64 0.302744 6.82329 0
M  V30 11842 O 1108.33 0.9571 7.98182 0
M  V30 11843 H 1108.06 -0.250529 0.627863 0
M  V30 11844 H 1110.62 -0.120418 2.05047 0
M  V30 11845 H 1108.85 -2.51671 2.93596 0
M  V30 11846 H 1110.54 -2.34075 3.31608 0
M  V30 11847 H 1111.3 -0.376271 4.83538 0
M  V30 11848 H 1107.18 -1.50543 4.35727 0
M  V30 11849 H 1110.73 0.795901 6.93045 0
M  V30 11850 H 1106.62 -0.339762 6.44605 0
M  V30 11851 H 1107.39 0.860616 8.13963 0
M  V30 11852 N 1110.05 -1.5248 -0.398459 0
M  V30 11853 C 1111.28 -1.71221 -1.17039 0
M  V30 11854 C 1111.7 -0.425515 -1.83224 0
M  V30 11855 O 1111.06 0.617938 -1.70444 0
M  V30 11856 C 1111.11 -2.8562 -2.20121 0
M  V30 11857 O 1110.21 -2.51934 -3.26501 0
M  V30 11858 H 1109.55 -0.569654 -0.34116 0
M  V30 11859 H 1112.08 -1.99231 -0.465652 0
M  V30 11860 H 1112.09 -3.10842 -2.64275 0
M  V30 11861 H 1110.77 -3.78969 -1.71334 0
M  V30 11862 H 1109.35 -2.3742 -2.87552 0
M  V30 11863 N 1111.53 0.65634 -1.43283 0
M  V30 11864 C 1112.44 1.79847 -1.50639 0
M  V30 11865 C 1113.46 1.69487 -0.393714 0
M  V30 11866 O 1114.63 1.90712 -0.647379 0
M  V30 11867 C 1111.7 3.16107 -1.42398 0
M  V30 11868 C 1110.76 3.38287 -2.64312 0
M  V30 11869 C 1109.99 4.68046 -2.56454 0
M  V30 11870 O 1110.22 5.4719 -1.61056 0
M  V30 11871 O 1109.15 4.91877 -3.46902 0
M  V30 11872 H 1112.98 1.76596 -2.47078 0
M  V30 11873 H 1110.56 0.814428 -1.25249 0
M  V30 11874 H 1112.44 3.97382 -1.40233 0
M  V30 11875 H 1111.12 3.19956 -0.490929 0
M  V30 11876 H 1110.02 2.56788 -2.72049 0
M  V30 11877 H 1111.36 3.39282 -3.56579 0
M  V30 11878 N 1113.01 1.29761 0.894412 0
M  V30 11879 C 1114.26 1.18214 1.64782 0
M  V30 11880 C 1114.59 -0.264635 1.92388 0
M  V30 11881 O 1113.86 -1.19051 1.53809 0
M  V30 11882 C 1114.15 2.00138 2.99361 0
M  V30 11883 C 1114 3.52984 2.78787 0
M  V30 11884 C 1115.32 1.83187 4.00163 0
M  V30 11885 H 1112.44 0.430802 0.597979 0
M  V30 11886 H 1115.08 1.59292 1.03566 0
M  V30 11887 H 1113.23 1.65233 3.51611 0
M  V30 11888 H 1114.9 3.97898 2.33398 0
M  V30 11889 H 1113.14 3.77642 2.13469 0
M  V30 11890 H 1113.82 4.05585 3.7444 0
M  V30 11891 H 1116.29 2.13684 3.57041 0
M  V30 11892 H 1115.17 2.42849 4.92255 0
M  V30 11893 H 1115.43 0.788469 4.35012 0
M  V30 11894 N 1114.49 -1.10549 1.12324 0
M  V30 11895 C 1115.44 -2.18944 0.785248 0
M  V30 11896 C 1116.43 -1.67867 -0.227389 0
M  V30 11897 O 1117.64 -1.79796 -0.0857162 0
M  V30 11898 H 1114.01 -0.713976 0.236098 0
M  V30 11899 H 1115.98 -2.44692 1.70788 0
M  V30 11900 C 1114.73 -3.46765 0.25485 0
M  V30 11901 H 1114.05 -3.86428 1.02534 0
M  V30 11902 H 1115.49 -4.23962 0.0566526 0
M  V30 11903 C 1113.95 -3.21185 -1.01695 0
M  V30 11904 O 1114.48 -3.42745 -2.09497 0
M  V30 11905 N 1112.69 -2.7486 -0.943423 0
M  V30 11906 H 1112.24 -2.57515 -0.0660366 0
M  V30 11907 H 1112.19 -2.58122 -1.795 0
M  V30 11908 N 1115.97 -0.914965 -1.28321 0
M  V30 11909 C 1116.93 -0.409024 -2.25521 0
M  V30 11910 C 1117.93 0.465327 -1.5392 0
M  V30 11911 O 1119.12 0.26821 -1.72123 0
M  V30 11912 C 1116.25 0.413452 -3.38383 0
M  V30 11913 H 1117.44 -1.26767 -2.71791 0
M  V30 11914 H 1115 -0.694477 -1.40024 0
M  V30 11915 H 1115.73 1.29145 -2.97476 0
M  V30 11916 H 1115.52 -0.213268 -3.9152 0
M  V30 11917 H 1117.01 0.758232 -4.10659 0
M  V30 11918 N 1117.44 1.42219 -0.679077 0
M  V30 11919 C 1118.69 2.00703 -0.200309 0
M  V30 11920 C 1119.01 1.54339 1.20161 0
M  V30 11921 O 1120.21 2.0527 1.77698 0
M  V30 11922 C 1118.67 3.58586 -0.307248 0
M  V30 11923 C 1118.28 4.13937 -1.71349 0
M  V30 11924 C 1120.02 4.24351 0.112588 0
M  V30 11925 C 1117.93 5.64198 -1.77297 0
M  V30 11926 H 1116.86 0.750638 -0.0711279 0
M  V30 11927 H 1119.51 1.62893 -0.844881 0
M  V30 11928 H 1117.89 3.93921 0.40529 0
M  V30 11929 H 1119.06 3.90054 -2.45346 0
M  V30 11930 H 1117.38 3.60639 -2.08155 0
M  V30 11931 H 1119.98 5.34627 0.0883578 0
M  V30 11932 H 1120.32 4.00142 1.14857 0
M  V30 11933 H 1120.85 3.93992 -0.549093 0
M  V30 11934 H 1117.59 5.93211 -2.78892 0
M  V30 11935 H 1117.11 5.90058 -1.07662 0
M  V30 11936 H 1118.79 6.2869 -1.52835 0
M  V30 11937 N 1118.92 0.422693 1.51826 0
M  V30 11938 C 1120.15 -0.15017 2.06856 0
M  V30 11939 C 1120.57 -1.36946 1.28948 0
M  V30 11940 O 1119.93 -1.78393 0.32338 0
M  V30 11941 C 1119.98 -0.465563 3.57582 0
M  V30 11942 O 1119.08 -1.55442 3.81984 0
M  V30 11943 H 1118.42 -0.00827931 0.663948 0
M  V30 11944 H 1120.95 0.599806 1.95611 0
M  V30 11945 H 1120.96 -0.720279 4.01592 0
M  V30 11946 H 1119.64 0.425679 4.13716 0
M  V30 11947 H 1118.21 -1.29081 3.49846 0
M  V30 11948 N 1120.4 -1.5685 0.153553 0
M  V30 11949 C 1121.63 -2.00701 -0.502678 0
M  V30 11950 C 1122.04 -1.0337 -1.57988 0
M  V30 11951 O 1121.4 -0.0317233 -1.82472 0
M  V30 11952 C 1121.45 -3.44443 -1.09732 0
M  V30 11953 O 1121.17 -4.38054 -0.0631405 0
M  V30 11954 C 1122.67 -4.03605 -1.83352 0
M  V30 11955 H 1119.89 -0.658229 -0.130289 0
M  V30 11956 H 1122.44 -2.02965 0.250063 0
M  V30 11957 H 1120.59 -3.43009 -1.80065 0
M  V30 11958 H 1121.01 -5.22114 -0.499681 0
M  V30 11959 H 1122.48 -5.0616 -2.20241 0
M  V30 11960 H 1122.96 -3.44687 -2.7219 0
M  V30 11961 H 1123.56 -4.08688 -1.17703 0
M  V30 11962 N 1121.88 0.120221 -1.57141 0
M  V30 11963 C 1122.84 1.13159 -1.99318 0
M  V30 11964 C 1123.84 1.34376 -0.883158 0
M  V30 11965 O 1125.03 1.30914 -1.14922 0
M  V30 11966 C 1122.16 2.48632 -2.33227 0
M  V30 11967 H 1123.36 0.769119 -2.8987 0
M  V30 11968 H 1120.91 0.364475 -1.51991 0
M  V30 11969 H 1121.64 2.89802 -1.45551 0
M  V30 11970 H 1121.43 2.34587 -3.14184 0
M  V30 11971 H 1122.92 3.21423 -2.66603 0
M  V30 11972 N 1123.36 1.52689 0.390367 0
M  V30 11973 C 1124.6 1.69354 1.1445 0
M  V30 11974 C 1124.96 0.423677 1.87267 0
M  V30 11975 O 1126.16 0.466669 2.64718 0
M  V30 11976 C 1124.43 2.89356 2.0978 0
M  V30 11977 S 1125.99 3.26602 2.93047 0
M  V30 11978 H 1122.81 0.596162 0.387442 0
M  V30 11979 H 1125.41 1.90732 0.429119 0
M  V30 11980 H 1124.12 3.80003 1.55004 0
M  V30 11981 H 1123.65 2.70307 2.85828 0
M  V30 11982 H 1125.66 2.76683 4.11899 0
M  V30 11983 N 1124.83 -0.648732 1.43629 0
M  V30 11984 C 1126.06 -1.44117 1.49148 0
M  V30 11985 C 1126.48 -1.87767 0.111952 0
M  V30 11986 O 1125.84 -1.57655 -0.895249 0
M  V30 11987 C 1125.89 -2.64938 2.44623 0
M  V30 11988 O 1124.99 -3.64155 1.93559 0
M  V30 11989 H 1124.34 -0.431933 0.504312 0
M  V30 11990 H 1126.87 -0.793439 1.88589 0
M  V30 11991 H 1126.88 -3.12698 2.62076 0
M  V30 11992 H 1125.55 -2.3251 3.44836 0
M  V30 11993 H 1124.13 -3.23322 1.85789 0
M  V30 11994 N 1126.31 -1.30234 -0.887518 0
M  V30 11995 C 1127.26 -1.16302 -2.01436 0
M  V30 11996 C 1128.25 -0.0755422 -1.69231 0
M  V30 11997 O 1129.46 -0.236213 -1.78443 0
M  V30 11998 H 1125.84 -0.35961 -0.660443 0
M  V30 11999 H 1127.81 -2.11677 -2.10322 0
M  V30 12000 C 1126.56 -0.869009 -3.36665 0
M  V30 12001 H 1125.88 -1.69787 -3.61956 0
M  V30 12002 H 1127.32 -0.811621 -4.16159 0
M  V30 12003 C 1125.78 0.428021 -3.3417 0
M  V30 12004 O 1126.31 1.45033 -3.74604 0
M  V30 12005 N 1124.51 0.438264 -2.87276 0
M  V30 12006 H 1124.06 -0.394142 -2.54567 0
M  V30 12007 H 1124.02 1.30604 -2.85989 0
M  V30 12008 N 1127.79 1.09952 -1.12909 0
M  V30 12009 C 1129.04 1.81657 -0.885729 0
M  V30 12010 C 1129.36 1.85863 0.589913 0
M  V30 12011 O 1128.63 1.34028 1.42875 0
M  V30 12012 H 1127.21 0.672743 -0.324694 0
M  V30 12013 H 1129.87 1.33013 -1.42456 0
M  V30 12014 H 1128.97 2.85018 -1.27167 0
M  V30 12015 N 1129.27 0.921757 1.27833 0
M  V30 12016 C 1130.51 0.559906 1.94918 0
M  V30 12017 C 1130.85 -0.895532 1.72319 0
M  V30 12018 O 1130.12 -1.638 1.04879 0
M  V30 12019 C 1130.41 0.879458 3.49196 0
M  V30 12020 C 1130.26 2.38821 3.81162 0
M  V30 12021 C 1131.58 0.381183 4.38446 0
M  V30 12022 H 1128.7 0.204893 0.707946 0
M  V30 12023 H 1131.34 1.15246 1.51058 0
M  V30 12024 H 1129.49 0.375177 3.86684 0
M  V30 12025 H 1131.16 2.96373 3.53498 0
M  V30 12026 H 1129.4 2.83988 3.27923 0
M  V30 12027 H 1130.07 2.56234 4.88926 0
M  V30 12028 H 1132.55 0.813289 4.08075 0
M  V30 12029 H 1131.43 0.633778 5.45229 0
M  V30 12030 H 1131.69 -0.718651 4.3622 0
M  V30 12031 N 1130.75 -1.41857 0.686609 0
M  V30 12032 C 1132.16 -1.84439 0.289662 0
M  V30 12033 C 1132.51 -1.57462 -1.17047 0
M  V30 12034 O 1131.63 -1.04046 -1.89745 0
M  V30 12035 C 1132.23 -3.34802 0.518948 0
M  V30 12036 C 1130.79 -3.75988 0.176007 0
M  V30 12037 C 1129.93 -2.65339 0.805632 0
M  V30 12038 H 1132.89 -1.31536 0.88792 0
M  V30 12039 H 1132.91 -3.79833 -0.225209 0
M  V30 12040 H 1132.42 -3.54405 1.58173 0
M  V30 12041 H 1130.52 -3.61989 -0.882865 0
M  V30 12042 H 1130.63 -4.75009 0.624772 0
M  V30 12043 H 1129 -2.53605 0.235966 0
M  V30 12044 H 1129.78 -2.87762 1.8721 0
M  V30 12045 N 1132.22 -0.430739 -1.51599 0
M  V30 12046 C 1133.13 0.390347 -2.3133 0
M  V30 12047 C 1134.15 1.03376 -1.39962 0
M  V30 12048 O 1135.33 1.03057 -1.73035 0
M  V30 12049 C 1132.39 1.48039 -3.13505 0
M  V30 12050 C 1131.45 0.857792 -4.20643 0
M  V30 12051 C 1130.69 1.89589 -4.9889 0
M  V30 12052 O 1130.91 3.11717 -4.77691 0
M  V30 12053 O 1129.84 1.49009 -5.83164 0
M  V30 12054 H 1133.67 -0.260358 -3.02582 0
M  V30 12055 H 1131.25 -0.193428 -1.48143 0
M  V30 12056 H 1133.14 2.11272 -3.64612 0
M  V30 12057 H 1131.81 2.1153 -2.45024 0
M  V30 12058 H 1130.72 0.187592 -3.73629 0
M  V30 12059 H 1132.05 0.266474 -4.91478 0
M  V30 12060 N 1133.7 1.56767 -0.161869 0
M  V30 12061 C 1134.94 1.98487 0.488067 0
M  V30 12062 C 1135.31 1.04527 1.61053 0
M  V30 12063 O 1136.51 1.35351 2.32236 0
M  V30 12064 C 1134.78 3.44057 0.967446 0
M  V30 12065 S 1136.34 4.07805 1.61989 0
M  V30 12066 H 1133.16 0.693377 0.157318 0
M  V30 12067 H 1135.76 1.93802 -0.257099 0
M  V30 12068 H 1134.46 4.10161 0.139959 0
M  V30 12069 H 1133.99 3.52488 1.74688 0
M  V30 12070 H 1136.01 4.02078 2.90772 0
M  V30 12071 N 1135.18 -0.111886 1.57202 0
M  V30 12072 C 1136.09 -1.1556 2.04165 0
M  V30 12073 C 1137.11 -1.44898 0.963354 0
M  V30 12074 O 1138.28 -1.55873 1.27536 0
M  V30 12075 C 1135.35 -2.46048 2.44256 0
M  V30 12076 C 1134.41 -2.24043 3.66201 0
M  V30 12077 C 1133.64 -3.4831 4.04371 0
M  V30 12078 O 1133.86 -4.55895 3.42806 0
M  V30 12079 O 1132.8 -3.38891 4.9743 0
M  V30 12080 H 1136.62 -0.786778 2.93332 0
M  V30 12081 H 1134.21 -0.323196 1.45862 0
M  V30 12082 H 1136.09 -3.22916 2.70745 0
M  V30 12083 H 1134.77 -2.8239 1.58233 0
M  V30 12084 H 1133.67 -1.4501 3.44852 0
M  V30 12085 H 1135.01 -1.92602 4.52952 0
M  V30 12086 N 1136.66 -1.52894 -0.382264 0
M  V30 12087 C 1137.57 -1.81084 -1.4915 0
M  V30 12088 C 1138.58 -0.698045 -1.59384 0
M  V30 12089 O 1139.76 -0.98635 -1.75594 0
M  V30 12090 C 1136.83 -1.97987 -2.84608 0
M  V30 12091 C 1135.89 -3.219 -2.8404 0
M  V30 12092 C 1135.12 -3.37988 -4.13037 0
M  V30 12093 O 1135.34 -2.58733 -5.08344 0
M  V30 12094 O 1134.28 -4.31273 -4.19866 0
M  V30 12095 H 1138.1 -2.75289 -1.28257 0
M  V30 12096 H 1135.69 -1.38068 -0.57076 0
M  V30 12097 H 1137.57 -2.10773 -3.64901 0
M  V30 12098 H 1136.24 -1.06972 -3.05514 0
M  V30 12099 H 1135.15 -3.14551 -2.02505 0
M  V30 12100 H 1136.48 -4.12783 -2.68087 0
M  V30 12101 N 1138.14 0.641106 -1.43971 0
M  V30 12102 C 1139.07 1.76599 -1.44527 0
M  V30 12103 C 1140.05 1.59709 -0.305257 0
M  V30 12104 O 1141.23 1.81728 -0.50071 0
M  V30 12105 C 1138.36 3.14052 -1.26843 0
M  V30 12106 C 1137.41 3.49615 -2.44278 0
M  V30 12107 S 1138.24 3.4822 -4.06821 0
M  V30 12108 C 1139.39 4.8831 -3.91541 0
M  V30 12109 H 1139.63 1.75858 -2.3971 0
M  V30 12110 H 1137.16 0.814834 -1.31148 0
M  V30 12111 H 1139.12 3.93376 -1.17327 0
M  V30 12112 H 1137.78 3.12342 -0.331872 0
M  V30 12113 H 1136.97 4.49611 -2.2774 0
M  V30 12114 H 1136.57 2.77732 -2.50482 0
M  V30 12115 H 1138.87 5.77282 -3.54615 0
M  V30 12116 H 1139.81 5.099 -4.91333 0
M  V30 12117 H 1140.22 4.62414 -3.2378 0
M  V30 12118 N 1139.62 1.30703 0.880598 0
M  V30 12119 C 1140.86 1.19955 1.63519 0
M  V30 12120 C 1141.19 -0.244214 1.92658 0
M  V30 12121 O 1140.47 -1.17412 1.55063 0
M  V30 12122 C 1140.75 2.03302 2.97221 0
M  V30 12123 C 1140.61 3.55921 2.75028 0
M  V30 12124 C 1141.92 1.87421 3.98198 0
M  V30 12125 H 1139.04 0.43712 0.593376 0
M  V30 12126 H 1141.69 1.60382 1.01871 0
M  V30 12127 H 1139.84 1.68953 3.49839 0
M  V30 12128 H 1141.51 4.00352 2.29164 0
M  V30 12129 H 1139.75 3.79885 2.09452 0
M  V30 12130 H 1140.42 4.09533 3.70117 0
M  V30 12131 H 1142.9 2.17459 3.54755 0
M  V30 12132 H 1141.77 2.48057 4.89652 0
M  V30 12133 H 1142.03 0.834563 4.34151 0
M  V30 12134 N 1141.09 -1.09351 1.1349 0
M  V30 12135 C 1142.32 -1.85844 0.92069 0
M  V30 12136 C 1142.74 -1.80616 -0.525303 0
M  V30 12137 O 1142.1 -1.1842 -1.37282 0
M  V30 12138 C 1142.15 -3.31716 1.4141 0
M  V30 12139 O 1141.25 -4.08014 0.599838 0
M  V30 12140 H 1140.59 -0.576242 0.32991 0
M  V30 12141 H 1143.12 -1.38084 1.50976 0
M  V30 12142 H 1143.13 -3.82564 1.41805 0
M  V30 12143 H 1141.81 -3.34837 2.46692 0
M  V30 12144 H 1140.39 -3.66944 0.663816 0
M  V30 12145 N 1142.57 -0.928524 -1.27343 0
M  V30 12146 C 1143.82 -0.568267 -1.93946 0
M  V30 12147 C 1144.14 0.893501 -1.73325 0
M  V30 12148 O 1143.41 1.63344 -1.08147 0
M  V30 12149 H 1141.99 -0.207173 -0.717696 0
M  V30 12150 H 1144.65 -1.1811 -1.55036 0
M  V30 12151 H 1143.75 -0.775246 -3.02318 0
M  V30 12152 N 1144.05 1.41491 -0.694123 0
M  V30 12153 C 1144.98 2.33462 -0.0422169 0
M  V30 12154 C 1145.96 1.51739 0.76872 0
M  V30 12155 O 1147.15 1.8028 0.721985 0
M  V30 12156 C 1144.28 3.35545 0.895925 0
M  V30 12157 C 1143.23 4.27568 0.192188 0
M  V30 12158 C 1142.56 5.20014 1.24459 0
M  V30 12159 C 1143.86 5.1376 -0.940626 0
M  V30 12160 H 1145.55 2.88225 -0.810363 0
M  V30 12161 H 1143.1 1.38586 -0.39114 0
M  V30 12162 H 1145.05 3.9881 1.36121 0
M  V30 12163 H 1143.77 2.79129 1.69572 0
M  V30 12164 H 1142.43 3.65726 -0.25305 0
M  V30 12165 H 1142.08 4.59913 2.03687 0
M  V30 12166 H 1141.78 5.82417 0.778734 0
M  V30 12167 H 1143.3 5.86155 1.71041 0
M  V30 12168 H 1144.72 5.70601 -0.555692 0
M  V30 12169 H 1143.11 5.85097 -1.33349 0
M  V30 12170 H 1144.18 4.51011 -1.78093 0
M  V30 12171 N 1145.53 0.438773 1.51369 0
M  V30 12172 C 1146.77 -0.127213 2.021 0
M  V30 12173 C 1147.1 -1.42587 1.32284 0
M  V30 12174 O 1146.36 -1.90986 0.426949 0
M  V30 12175 C 1146.66 -0.39186 3.55245 0
M  V30 12176 C 1146.32 0.821158 4.4336 0
M  V30 12177 C 1144.98 1.15381 4.67162 0
M  V30 12178 C 1147.34 1.6303 4.95046 0
M  V30 12179 C 1144.66 2.29626 5.39897 0
M  V30 12180 C 1147.02 2.76376 5.69033 0
M  V30 12181 C 1145.68 3.10094 5.91099 0
M  V30 12182 H 1144.95 -0.0465505 0.739536 0
M  V30 12183 H 1147.6 0.586261 1.82305 0
M  V30 12184 H 1145.9 -1.18724 3.73379 0
M  V30 12185 H 1147.6 -0.843228 3.92034 0
M  V30 12186 H 1144.19 0.551946 4.25031 0
M  V30 12187 H 1148.37 1.38651 4.76539 0
M  V30 12188 H 1143.63 2.56062 5.55196 0
M  V30 12189 H 1147.8 3.39442 6.08072 0
M  V30 12190 H 1145.43 3.98731 6.47238 0
M  V30 12191 N 1147.01 -1.56678 0.170181 0
M  V30 12192 C 1147.95 -2.17909 -0.760556 0
M  V30 12193 C 1148.92 -1.11875 -1.22773 0
M  V30 12194 O 1150.11 -1.40021 -1.2961 0
M  V30 12195 C 1147.25 -2.82305 -1.9849 0
M  V30 12196 C 1146.36 -4.02796 -1.5614 0
M  V30 12197 C 1145.5 -4.55121 -2.73932 0
M  V30 12198 C 1144.53 -5.68025 -2.28067 0
M  V30 12199 N 1143.67 -6.14865 -3.38947 0
M  V30 12200 H 1148.51 -2.97098 -0.231629 0
M  V30 12201 H 1146.05 -1.46742 -0.102602 0
M  V30 12202 H 1148.01 -3.17797 -2.70298 0
M  V30 12203 H 1146.64 -2.05721 -2.48755 0
M  V30 12204 H 1145.69 -3.73131 -0.740097 0
M  V30 12205 H 1147 -4.84526 -1.18472 0
M  V30 12206 H 1146.15 -4.92789 -3.53898 0
M  V30 12207 H 1144.89 -3.72445 -3.14858 0
M  V30 12208 H 1143.9 -5.2991 -1.46546 0
M  V30 12209 H 1145.12 -6.52501 -1.88199 0
M  V30 12210 H 1143.07 -5.35119 -3.79452 0
M  V30 12211 H 1142.99 -6.91582 -3.05369 0
M  V30 12212 H 1144.25 -6.57183 -4.19203 0
M  V30 12213 N 1148.48 0.103547 -1.57259 0
M  V30 12214 C 1149.42 1.15225 -1.98131 0
M  V30 12215 C 1150.43 1.36793 -0.882692 0
M  V30 12216 O 1151.62 1.35595 -1.16088 0
M  V30 12217 C 1148.72 2.50941 -2.27776 0
M  V30 12218 C 1147.89 2.49765 -3.59077 0
M  V30 12219 C 1146.95 3.67344 -3.76756 0
M  V30 12220 O 1145.98 3.50221 -4.48702 0
M  V30 12221 N 1147.18 4.86504 -3.16692 0
M  V30 12222 H 1149.94 0.804448 -2.88702 0
M  V30 12223 H 1147.5 0.292636 -1.59233 0
M  V30 12224 H 1149.5 3.28186 -2.36804 0
M  V30 12225 H 1148.07 2.77843 -1.43255 0
M  V30 12226 H 1147.29 1.58125 -3.61096 0
M  V30 12227 H 1148.57 2.4605 -4.4535 0
M  V30 12228 H 1147.97 5.03319 -2.58236 0
M  V30 12229 H 1146.53 5.61371 -3.31218 0
M  V30 12230 N 1149.96 1.53094 0.37415 0
M  V30 12231 C 1151.21 1.70059 1.11586 0
M  V30 12232 C 1151.56 0.442567 1.87241 0
M  V30 12233 O 1150.86 -0.564198 1.83105 0
M  V30 12234 C 1151.05 2.88432 2.11049 0
M  V30 12235 C 1150.88 4.25625 1.45166 0
M  V30 12236 C 1149.65 4.90613 1.20942 0
M  V30 12237 C 1151.85 5.06472 0.893887 0
M  V30 12238 N 1149.83 6.11751 0.513196 0
M  V30 12239 C 1151.2 6.19139 0.326549 0
M  V30 12240 C 1153.25 4.91565 0.791739 0
M  V30 12241 C 1151.96 7.18529 -0.332963 0
M  V30 12242 C 1153.98 5.9122 0.146023 0
M  V30 12243 C 1153.35 7.03203 -0.410477 0
M  V30 12244 H 1149.44 0.675625 0.39377 0
M  V30 12245 H 1152.03 1.90475 0.403383 0
M  V30 12246 H 1150.2 2.6957 2.79619 0
M  V30 12247 H 1151.93 2.94261 2.77835 0
M  V30 12248 H 1148.69 4.49604 1.48841 0
M  V30 12249 H 1149.11 6.76759 0.180695 0
M  V30 12250 H 1153.75 4.05183 1.20776 0
M  V30 12251 H 1151.47 8.04509 -0.76096 0
M  V30 12252 H 1155.06 5.8176 0.0680321 0
M  V30 12253 H 1153.94 7.78993 -0.90223 0
M  V30 12254 N 1151.44 -0.633461 1.44309 0
M  V30 12255 C 1152.37 -1.7583 1.45462 0
M  V30 12256 C 1153.35 -1.59545 0.313723 0
M  V30 12257 O 1154.53 -1.8146 0.51034 0
M  V30 12258 C 1151.66 -3.13375 1.28506 0
M  V30 12259 C 1150.71 -3.48315 2.46128 0
M  V30 12260 S 1151.54 -3.46058 4.08662 0
M  V30 12261 C 1152.7 -4.86226 3.94125 0
M  V30 12262 H 1152.93 -1.74585 2.4064 0
M  V30 12263 H 1150.46 -0.807868 1.31578 0
M  V30 12264 H 1152.42 -3.92748 1.19411 0
M  V30 12265 H 1151.08 -3.12161 0.348432 0
M  V30 12266 H 1150.27 -4.48397 2.30122 0
M  V30 12267 H 1149.88 -2.76399 2.51951 0
M  V30 12268 H 1152.17 -5.75393 3.57671 0
M  V30 12269 H 1153.11 -5.07287 4.9403 0
M  V30 12270 H 1153.52 -4.60691 3.26227 0
M  V30 12271 N 1152.92 -1.31168 -0.873655 0
M  V30 12272 C 1153.83 -1.20458 -2.01313 0
M  V30 12273 C 1154.84 -0.122074 -1.73571 0
M  V30 12274 O 1156.02 -0.339176 -1.98523 0
M  V30 12275 C 1153.09 -0.90876 -3.34578 0
M  V30 12276 C 1152.15 -2.07779 -3.75668 0
M  V30 12277 C 1151.38 -1.79599 -5.02573 0
M  V30 12278 O 1151.6 -0.729338 -5.65718 0
M  V30 12279 O 1150.54 -2.65169 -5.40341 0
M  V30 12280 H 1154.36 -2.16207 -2.13279 0
M  V30 12281 H 1151.95 -1.10871 -1.00139 0
M  V30 12282 H 1153.83 -0.759469 -4.145 0
M  V30 12283 H 1152.5 0.0187249 -3.23695 0
M  V30 12284 H 1151.41 -2.28247 -2.96402 0
M  V30 12285 H 1152.74 -2.9874 -3.91172 0
M  V30 12286 N 1154.4 1.08748 -1.14068 0
M  V30 12287 C 1155.34 2.17667 -0.819981 0
M  V30 12288 C 1156.34 1.68207 0.200654 0
M  V30 12289 O 1157.54 1.79909 0.0571014 0
M  V30 12290 H 1153.92 0.710129 -0.247427 0
M  V30 12291 H 1155.89 2.41944 -1.74659 0
M  V30 12292 C 1154.64 3.46315 -0.309985 0
M  V30 12293 H 1153.96 3.84748 -1.08669 0
M  V30 12294 H 1155.4 4.23818 -0.124094 0
M  V30 12295 C 1153.86 3.22762 0.965724 0
M  V30 12296 O 1154.39 3.46034 2.04018 0
M  V30 12297 N 1152.6 2.76326 0.899576 0
M  V30 12298 H 1152.14 2.57588 0.0250598 0
M  V30 12299 H 1152.1 2.60945 1.75371 0
M  V30 12300 N 1155.87 0.935264 1.26849 0
M  V30 12301 C 1157.29 0.623198 1.75992 0
M  V30 12302 C 1157.64 -0.861647 1.76267 0
M  V30 12303 O 1156.76 -1.6743 1.37099 0
M  V30 12304 C 1157.36 1.12451 3.19594 0
M  V30 12305 C 1155.92 0.862974 3.66374 0
M  V30 12306 C 1155.06 1.27886 2.4605 0
M  V30 12307 H 1158.01 1.11422 1.13008 0
M  V30 12308 H 1158.03 0.475626 3.77516 0
M  V30 12309 H 1157.55 2.20522 3.19361 0
M  V30 12310 H 1155.65 -0.203606 3.72043 0
M  V30 12311 H 1155.76 1.48582 4.55478 0
M  V30 12312 H 1154.12 0.697335 2.44968 0
M  V30 12313 H 1154.91 2.36837 2.48522 0
M  V30 12314 N 1157.35 -1.41121 0.701616 0
M  V30 12315 C 1158.3 -2.32582 0.0288052 0
M  V30 12316 C 1159.29 -1.5129 -0.762074 0
M  V30 12317 O 1160.5 -1.67185 -0.667014 0
M  V30 12318 H 1156.88 -0.75194 -0.00948675 0
M  V30 12319 H 1158.85 -2.86994 0.817141 0
M  V30 12320 C 1157.6 -3.36137 -0.889217 0
M  V30 12321 H 1156.92 -3.98746 -0.290062 0
M  V30 12322 H 1158.36 -4.0266 -1.32819 0
M  V30 12323 C 1156.82 -2.70504 -2.00821 0
M  V30 12324 O 1157.35 -2.55753 -3.09763 0
M  V30 12325 N 1155.55 -2.29105 -1.78772 0
M  V30 12326 H 1155.1 -2.41303 -0.901708 0
M  V30 12327 H 1155.06 -1.85527 -2.53825 0
M  V30 12328 N 1158.83 -0.446794 -1.51134 0
M  V30 12329 C 1159.78 0.374154 -2.29571 0
M  V30 12330 C 1160.77 1.01241 -1.35818 0
M  V30 12331 O 1161.98 0.946293 -1.53119 0
M  V30 12332 H 1158.35 0.13948 -0.738951 0
M  V30 12333 H 1160.32 -0.308117 -2.96805 0
M  V30 12334 C 1159.07 1.45754 -3.15675 0
M  V30 12335 H 1158.4 0.975787 -3.87709 0
M  V30 12336 H 1159.84 2.00502 -3.73597 0
M  V30 12337 C 1158.3 2.44606 -2.31667 0
M  V30 12338 O 1158.83 3.49352 -1.98284 0
M  V30 12339 N 1157.03 2.15725 -1.94708 0
M  V30 12340 H 1156.58 1.30572 -2.22056 0
M  V30 12341 H 1156.54 2.82103 -1.38798 0
M  V30 12342 N 1160.31 1.56586 -0.178487 0
M  V30 12343 C 1161.26 2.19631 0.765822 0
M  V30 12344 C 1162.25 1.16247 1.23219 0
M  V30 12345 O 1163.46 1.34431 1.19701 0
M  V30 12346 H 1159.83 0.703661 0.265264 0
M  V30 12347 H 1161.8 2.97659 0.210207 0
M  V30 12348 C 1160.55 2.85686 1.98188 0
M  V30 12349 H 1159.87 3.64971 1.63206 0
M  V30 12350 H 1161.31 3.33259 2.62134 0
M  V30 12351 C 1159.77 1.85837 2.81009 0
M  V30 12352 O 1160.3 1.3483 3.78396 0
M  V30 12353 N 1158.51 1.54435 2.46167 0
M  V30 12354 H 1158.06 1.96107 1.67032 0
M  V30 12355 H 1158.01 0.878808 3.01868 0
M  V30 12356 N 1161.79 -0.095206 1.57312 0
M  V30 12357 C 1163.2 -0.649733 1.7503 0
M  V30 12358 C 1163.55 -1.7912 0.800652 0
M  V30 12359 O 1162.67 -2.1639 -0.0208831 0
M  V30 12360 C 1163.27 -1.18541 3.17386 0
M  V30 12361 C 1161.83 -1.686 3.36528 0
M  V30 12362 C 1160.97 -0.595531 2.7083 0
M  V30 12363 H 1163.93 0.130863 1.5816 0
M  V30 12364 H 1163.95 -2.05473 3.20252 0
M  V30 12365 H 1163.46 -0.35441 3.86478 0
M  V30 12366 H 1161.56 -2.541 2.72514 0
M  V30 12367 H 1161.67 -1.77907 4.44844 0
M  V30 12368 H 1160.04 -1.03495 2.32725 0
M  V30 12369 H 1160.82 0.224883 3.42563 0
M  V30 12370 N 1163.26 -1.53291 -0.366026 0
M  V30 12371 C 1164.51 -1.68671 -1.10602 0
M  V30 12372 C 1164.83 -0.444793 -1.90476 0
M  V30 12373 O 1166.03 -0.479135 -2.67239 0
M  V30 12374 C 1164.49 -2.98174 -2.01545 0
M  V30 12375 C 1164.1 -4.29626 -1.26986 0
M  V30 12376 C 1165.84 -3.22921 -2.7554 0
M  V30 12377 C 1163.75 -5.50218 -2.16828 0
M  V30 12378 H 1162.68 -0.628456 -0.416604 0
M  V30 12379 H 1165.33 -1.79791 -0.367058 0
M  V30 12380 H 1163.71 -2.80855 -2.79171 0
M  V30 12381 H 1164.88 -4.57574 -0.544269 0
M  V30 12382 H 1163.2 -4.11318 -0.648558 0
M  V30 12383 H 1165.8 -4.10202 -3.42985 0
M  V30 12384 H 1166.14 -2.38964 -3.40884 0
M  V30 12385 H 1166.67 -3.40912 -2.04997 0
M  V30 12386 H 1163.41 -6.36651 -1.56063 0
M  V30 12387 H 1162.93 -5.26549 -2.87238 0
M  V30 12388 H 1164.61 -5.84991 -2.76396 0
M  V30 12389 N 1164.74 0.6258 -1.44643 0
M  V30 12390 C 1165.69 1.73135 -1.48352 0
M  V30 12391 C 1166.68 1.57076 -0.348716 0
M  V30 12392 O 1167.87 1.66722 -0.594379 0
M  V30 12393 C 1165 3.11838 -1.43568 0
M  V30 12394 C 1164.08 3.33348 -2.62183 0
M  V30 12395 N 1164.47 3.252 -3.87399 0
M  V30 12396 C 1162.77 3.64162 -2.57492 0
M  V30 12397 C 1163.47 3.47544 -4.66463 0
M  V30 12398 N 1162.45 3.70672 -3.97622 0
M  V30 12399 H 1166.25 1.65301 -2.43008 0
M  V30 12400 H 1163.77 0.828449 -1.3968 0
M  V30 12401 H 1165.76 3.91127 -1.44309 0
M  V30 12402 H 1164.42 3.20834 -0.499547 0
M  V30 12403 H 1165.43 3.04001 -4.19289 0
M  V30 12404 H 1162.11 3.80107 -1.727 0
M  V30 12405 H 1163.5 3.46792 -5.75487 0
M  V30 12406 N 1166.22 1.31629 0.866686 0
M  V30 12407 C 1167.63 1.19347 1.43573 0
M  V30 12408 C 1167.98 -0.198765 1.95191 0
M  V30 12409 O 1167.11 -1.09674 1.86549 0
M  V30 12410 C 1167.7 2.16055 2.6097 0
M  V30 12411 C 1166.26 2.07697 3.13909 0
M  V30 12412 C 1165.41 2.05099 1.86627 0
M  V30 12413 H 1168.36 1.43633 0.674929 0
M  V30 12414 H 1168.38 1.75207 3.37761 0
M  V30 12415 H 1167.89 3.17375 2.23371 0
M  V30 12416 H 1165.99 1.09583 3.56121 0
M  V30 12417 H 1166.11 2.96958 3.75969 0
M  V30 12418 H 1164.47 1.50162 2.05727 0
M  V30 12419 H 1165.25 3.0818 1.51261 0
M  V30 12420 N 1167.7 -1.08142 1.14644 0
M  V30 12421 C 1168.65 -2.17229 0.831513 0
M  V30 12422 C 1169.64 -1.68311 -0.19173 0
M  V30 12423 O 1170.85 -1.79937 -0.0475596 0
M  V30 12424 H 1167.22 -0.708807 0.25119 0
M  V30 12425 H 1169.19 -2.41014 1.75939 0
M  V30 12426 C 1167.94 -3.46146 0.328347 0
M  V30 12427 H 1167.27 -3.84166 1.10708 0
M  V30 12428 H 1168.71 -4.23747 0.146568 0
M  V30 12429 C 1167.16 -3.2327 -0.948594 0
M  V30 12430 O 1167.69 -3.47111 -2.0218 0
M  V30 12431 N 1165.9 -2.76799 -0.884909 0
M  V30 12432 H 1165.45 -2.57597 -0.011399 0
M  V30 12433 H 1165.41 -2.61871 -1.73985 0
M  V30 12434 N 1169.18 -0.941978 -1.26351 0
M  V30 12435 C 1170.11 -0.469913 -2.28723 0
M  V30 12436 C 1171.09 0.477218 -1.63269 0
M  V30 12437 O 1172.27 0.378902 -1.90468 0
M  V30 12438 C 1169.4 0.264971 -3.46288 0
M  V30 12439 C 1168.36 -0.595682 -4.23834 0
M  V30 12440 C 1167.68 0.269208 -5.34022 0
M  V30 12441 C 1168.98 -1.86743 -4.87775 0
M  V30 12442 H 1170.68 -1.32551 -2.6846 0
M  V30 12443 H 1168.22 -0.638809 -1.29055 0
M  V30 12444 H 1170.18 0.606259 -4.17016 0
M  V30 12445 H 1168.9 1.15471 -3.05506 0
M  V30 12446 H 1167.56 -0.919875 -3.54872 0
M  V30 12447 H 1167.21 1.15832 -4.89481 0
M  V30 12448 H 1166.91 -0.30325 -5.86817 0
M  V30 12449 H 1168.43 0.605748 -6.07588 0
M  V30 12450 H 1169.85 -1.59333 -5.50714 0
M  V30 12451 H 1168.24 -2.38452 -5.50691 0
M  V30 12452 H 1169.31 -2.57831 -4.10671 0
M  V30 12453 N 1170.66 1.40747 -0.709091 0
M  V30 12454 C 1172.07 1.54961 -0.381989 0
M  V30 12455 C 1172.27 1.68181 1.10985 0
M  V30 12456 O 1171.33 1.66776 1.89584 0
M  V30 12457 C 1172.64 2.78156 -1.14236 0
M  V30 12458 C 1174.19 2.91967 -1.12803 0
M  V30 12459 C 1174.66 4.18066 -1.87042 0
M  V30 12460 N 1176.15 4.25052 -1.84078 0
M  V30 12461 C 1176.89 5.21514 -2.38349 0
M  V30 12462 N 1176.39 6.23924 -3.01149 0
M  V30 12463 N 1178.18 5.13548 -2.28528 0
M  V30 12464 H 1170.33 1.30412 -1.6765 0
M  V30 12465 H 1172.59 0.630147 -0.70825 0
M  V30 12466 H 1172.3 2.74643 -2.19691 0
M  V30 12467 H 1172.17 3.70074 -0.729731 0
M  V30 12468 H 1174.56 2.94987 -0.0816956 0
M  V30 12469 H 1174.64 2.01185 -1.57982 0
M  V30 12470 H 1174.28 4.15808 -2.91662 0
M  V30 12471 H 1174.21 5.07845 -1.39287 0
M  V30 12472 H 1176.71 3.51682 -1.38305 0
M  V30 12473 H 1177.02 6.93942 -3.40094 0
M  V30 12474 H 1175.36 6.24387 -3.05231 0
M  V30 12475 H 1178.55 4.3247 -1.79129 0
M  V30 12476 H 1178.73 5.88553 -2.71126 0
M  V30 12477 N 1172.13 0.454803 1.50895 0
M  V30 12478 C 1173.36 -0.106259 2.07128 0
M  V30 12479 C 1173.78 -1.3418 1.31823 0
M  V30 12480 O 1173.14 -1.77667 0.361147 0
M  V30 12481 C 1173.19 -0.389609 3.58489 0
M  V30 12482 O 1172.29 -1.47305 3.85195 0
M  V30 12483 H 1171.63 0.00580588 0.663975 0
M  V30 12484 H 1174.16 0.641163 1.94294 0
M  V30 12485 H 1174.17 -0.634934 4.03029 0
M  V30 12486 H 1172.85 0.513338 4.1272 0
M  V30 12487 H 1171.43 -1.21631 3.52506 0
M  V30 12488 N 1173.61 -1.56489 0.186789 0
M  V30 12489 C 1174.84 -2.01722 -0.459993 0
M  V30 12490 C 1175.25 -1.06697 -1.5576 0
M  V30 12491 O 1174.61 -0.0704212 -1.82364 0
M  V30 12492 C 1174.66 -3.46693 -1.02401 0
M  V30 12493 O 1174.38 -4.3809 0.0297916 0
M  V30 12494 C 1175.88 -4.07403 -1.7475 0
M  V30 12495 H 1173.1 -0.660845 -0.116298 0
M  V30 12496 H 1175.65 -2.02389 0.293059 0
M  V30 12497 H 1173.8 -3.46752 -1.72749 0
M  V30 12498 H 1174.22 -5.23057 -0.388821 0
M  V30 12499 H 1175.69 -5.10718 -2.09455 0
M  V30 12500 H 1176.17 -3.50383 -2.64818 0
M  V30 12501 H 1176.77 -4.11093 -1.09007 0
M  V30 12502 N 1175.09 0.086862 -1.5736 0
M  V30 12503 C 1176.34 0.790008 -1.8678 0
M  V30 12504 C 1176.67 1.77977 -0.777042 0
M  V30 12505 O 1175.94 1.93317 0.21419 0
M  V30 12506 C 1176.23 1.51143 -3.26845 0
M  V30 12507 C 1176.08 0.539106 -4.46558 0
M  V30 12508 C 1177.4 2.46003 -3.64926 0
M  V30 12509 H 1174.52 0.285741 -0.679354 0
M  V30 12510 H 1177.16 0.0534655 -1.89925 0
M  V30 12511 H 1175.31 2.13928 -3.24295 0
M  V30 12512 H 1176.98 -0.0823679 -4.61226 0
M  V30 12513 H 1175.22 -0.146842 -4.33551 0
M  V30 12514 H 1175.9 1.0812 -5.41308 0
M  V30 12515 H 1178.37 1.93306 -3.68473 0
M  V30 12516 H 1177.25 2.93493 -4.63846 0
M  V30 12517 H 1177.51 3.30133 -2.94049 0
M  V30 12518 N 1176.57 1.53483 0.357892 0
M  V30 12519 C 1177.8 1.73704 1.11851 0
M  V30 12520 C 1178.21 0.469388 1.83285 0
M  V30 12521 O 1177.55 -0.567894 1.74702 0
M  V30 12522 C 1177.61 2.85301 2.18732 0
M  V30 12523 C 1177.27 4.25395 1.66998 0
M  V30 12524 C 1178.27 5.07472 1.12994 0
M  V30 12525 C 1175.96 4.71832 1.72279 0
M  V30 12526 C 1177.95 6.34081 0.649574 0
M  V30 12527 C 1175.64 5.98417 1.23854 0
M  V30 12528 C 1176.64 6.79374 0.702839 0
M  V30 12529 O 1176.32 8.03583 0.225763 0
M  V30 12530 H 1176.06 0.584251 0.34004 0
M  V30 12531 H 1178.61 2.01054 0.420313 0
M  V30 12532 H 1176.84 2.53442 2.92068 0
M  V30 12533 H 1178.53 2.93627 2.80247 0
M  V30 12534 H 1179.29 4.72766 1.08248 0
M  V30 12535 H 1175.17 4.08886 2.12916 0
M  V30 12536 H 1178.72 6.97218 0.230774 0
M  V30 12537 H 1174.61 6.32622 1.28296 0
M  V30 12538 H 1175.38 8.17775 0.344381 0
M  V30 12539 N 1178.05 -0.61812 1.44973 0
M  V30 12540 C 1179.29 -1.38882 1.4997 0
M  V30 12541 C 1179.65 -1.91533 0.133841 0
M  V30 12542 O 1180.85 -2.68736 0.0585012 0
M  V30 12543 C 1179.12 -2.5136 2.54073 0
M  V30 12544 S 1180.68 -3.39324 2.78216 0
M  V30 12545 H 1177.5 -0.473631 0.530278 0
M  V30 12546 H 1180.1 -0.714299 1.81984 0
M  V30 12547 H 1178.8 -2.11012 3.51997 0
M  V30 12548 H 1178.34 -3.23625 2.23675 0
M  V30 12549 H 1180.35 -4.49198 2.10797 0
M  V30 12550 N 1179.52 -1.32087 -0.859693 0
M  V30 12551 C 1180.47 -1.20549 -1.98924 0
M  V30 12552 C 1181.47 -0.111422 -1.69033 0
M  V30 12553 O 1182.67 -0.27401 -1.77902 0
M  V30 12554 H 1179.05 -0.373538 -0.652667 0
M  V30 12555 H 1181.02 -2.16091 -2.05785 0
M  V30 12556 C 1179.77 -0.940226 -3.34746 0
M  V30 12557 H 1179.09 -1.77427 -3.58273 0
M  V30 12558 H 1180.53 -0.899712 -4.14344 0
M  V30 12559 C 1178.99 0.357042 -3.35003 0
M  V30 12560 O 1179.52 1.37054 -3.77596 0
M  V30 12561 N 1177.72 0.37723 -2.88141 0
M  V30 12562 H 1177.27 -0.448051 -2.53674 0
M  V30 12563 H 1177.23 1.24509 -2.88695 0
M  V30 12564 N 1181 1.07532 -1.15215 0
M  V30 12565 C 1181.96 2.1286 -0.84989 0
M  V30 12566 C 1182.96 1.60103 0.149524 0
M  V30 12567 O 1184.15 1.74017 -0.0798918 0
M  V30 12568 C 1181.29 3.3984 -0.268617 0
M  V30 12569 H 1182.48 2.41106 -1.78347 0
M  V30 12570 H 1180.03 1.23392 -0.959386 0
M  V30 12571 H 1180.77 3.17235 0.67325 0
M  V30 12572 H 1180.55 3.79433 -0.988592 0
M  V30 12573 H 1182.04 4.17533 -0.0746554 0
M  V30 12574 N 1182.48 0.948665 1.2585 0
M  V30 12575 C 1183.73 0.595938 1.92695 0
M  V30 12576 C 1184.04 -0.870229 1.75175 0
M  V30 12577 O 1185.25 -1.33266 2.36543 0
M  V30 12578 C 1183.7 1.01511 3.45288 0
M  V30 12579 C 1183.31 2.50341 3.71528 0
M  V30 12580 C 1185.06 0.734635 4.18095 0
M  V30 12581 C 1182.96 2.8609 5.17597 0
M  V30 12582 H 1181.89 0.219171 0.721443 0
M  V30 12583 H 1184.54 1.15231 1.42807 0
M  V30 12584 H 1182.93 0.387201 3.94102 0
M  V30 12585 H 1184.1 3.18101 3.3339 0
M  V30 12586 H 1182.42 2.75797 3.11969 0
M  V30 12587 H 1185.01 0.977962 5.25681 0
M  V30 12588 H 1185.36 -0.328807 4.14999 0
M  V30 12589 H 1185.89 1.32262 3.75169 0
M  V30 12590 H 1182.63 3.91427 5.25799 0
M  V30 12591 H 1182.15 2.22999 5.56805 0
M  V30 12592 H 1183.83 2.74959 5.85668 0
M  V30 12593 N 1183.96 -1.40369 0.716545 0
M  V30 12594 C 1184.92 -2.29083 0.0733105 0
M  V30 12595 C 1185.92 -1.45415 -0.686378 0
M  V30 12596 O 1187.11 -1.66316 -0.518139 0
M  V30 12597 C 1184.24 -3.28639 -0.906032 0
M  V30 12598 H 1185.44 -2.87464 0.85467 0
M  V30 12599 H 1182.99 -1.48706 0.481256 0
M  V30 12600 H 1183.72 -2.75279 -1.71441 0
M  V30 12601 H 1183.51 -3.90405 -0.364163 0
M  V30 12602 H 1185 -3.95066 -1.35324 0
M  V30 12603 N 1185.44 -0.462799 -1.50652 0
M  V30 12604 C 1186.37 0.371837 -2.26164 0
M  V30 12605 C 1187.38 0.96432 -1.31167 0
M  V30 12606 O 1188.57 0.854134 -1.56738 0
M  V30 12607 C 1185.67 1.53469 -3.0216 0
M  V30 12608 C 1184.84 1.0565 -4.24449 0
M  V30 12609 C 1183.9 2.09243 -4.82808 0
M  V30 12610 O 1182.93 1.67641 -5.43953 0
M  V30 12611 N 1184.13 3.41976 -4.69076 0
M  V30 12612 H 1186.9 -0.275476 -2.98431 0
M  V30 12613 H 1184.46 -0.293109 -1.59225 0
M  V30 12614 H 1186.45 2.22446 -3.38083 0
M  V30 12615 H 1185.02 2.08685 -2.32743 0
M  V30 12616 H 1184.24 0.192895 -3.93728 0
M  V30 12617 H 1185.53 0.714796 -5.03754 0
M  V30 12618 H 1184.92 3.78491 -4.20429 0
M  V30 12619 H 1183.48 4.06775 -5.09291 0
M  V30 12620 N 1186.91 1.56388 -0.195085 0
M  V30 12621 C 1188.16 1.97189 0.44281 0
M  V30 12622 C 1188.48 1.08312 1.62153 0
M  V30 12623 O 1187.75 0.154404 1.95291 0
M  V30 12624 H 1186.33 0.728188 0.166585 0
M  V30 12625 H 1189 1.92852 -0.281815 0
M  V30 12626 H 1188.09 3.02016 0.786945 0
M  V30 12627 N 1188.39 -0.0785156 1.57404 0
M  V30 12628 C 1189.64 -0.777399 1.8655 0
M  V30 12629 C 1189.96 -1.78451 0.786142 0
M  V30 12630 O 1189.23 -1.95016 -0.185911 0
M  V30 12631 H 1187.81 -0.290097 0.688369 0
M  V30 12632 H 1190.47 -0.0562017 1.94819 0
M  V30 12633 H 1189.57 -1.29776 2.83839 0
M  V30 12634 N 1189.87 -1.5367 -0.349747 0
M  V30 12635 C 1190.78 -1.84207 -1.45275 0
M  V30 12636 C 1191.8 -0.731695 -1.57868 0
M  V30 12637 O 1192.97 -1.02337 -1.73462 0
M  V30 12638 C 1190.04 -2.0398 -2.80345 0
M  V30 12639 C 1189.1 -3.27853 -2.77148 0
M  V30 12640 C 1188.33 -3.46673 -4.05775 0
M  V30 12641 O 1188.55 -2.69457 -5.02741 0
M  V30 12642 O 1187.49 -4.40082 -4.10623 0
M  V30 12643 H 1191.31 -2.77947 -1.22389 0
M  V30 12644 H 1188.9 -1.39247 -0.541345 0
M  V30 12645 H 1190.78 -2.18466 -3.60348 0
M  V30 12646 H 1189.46 -1.13429 -3.03176 0
M  V30 12647 H 1188.36 -3.18776 -1.95787 0
M  V30 12648 H 1189.7 -4.18377 -2.59271 0
M  V30 12649 N 1191.35 0.610423 -1.45298 0
M  V30 12650 C 1192.26 1.74964 -1.56285 0
M  V30 12651 C 1193.27 1.68149 -0.447436 0
M  V30 12652 O 1194.45 1.88556 -0.707725 0
M  V30 12653 C 1191.52 3.11417 -1.52383 0
M  V30 12654 C 1190.58 3.29707 -2.7494 0
M  V30 12655 C 1189.81 4.5965 -2.71215 0
M  V30 12656 O 1190.03 5.41789 -1.78383 0
M  V30 12657 O 1188.97 4.80591 -3.62375 0
M  V30 12658 H 1192.79 1.68646 -2.52571 0
M  V30 12659 H 1190.38 0.774168 -1.27777 0
M  V30 12660 H 1192.26 3.9272 -1.52805 0
M  V30 12661 H 1190.93 3.18232 -0.592472 0
M  V30 12662 H 1189.84 2.48003 -2.80081 0
M  V30 12663 H 1191.17 3.27766 -3.67192 0
M  V30 12664 N 1192.83 1.32541 0.852676 0
M  V30 12665 C 1193.74 1.23646 1.99371 0
M  V30 12666 C 1194.75 0.149673 1.73355 0
M  V30 12667 O 1195.93 0.370716 1.97959 0
M  V30 12668 C 1192.99 0.961873 3.3309 0
M  V30 12669 C 1192.05 2.1373 3.72315 0
M  V30 12670 C 1191.29 1.87572 4.99652 0
M  V30 12671 O 1191.51 0.819247 5.64486 0
M  V30 12672 O 1190.44 2.73732 5.36054 0
M  V30 12673 H 1194.27 2.19573 2.09813 0
M  V30 12674 H 1191.86 1.12451 0.983627 0
M  V30 12675 H 1193.74 0.825316 4.13239 0
M  V30 12676 H 1192.41 0.0327745 3.23683 0
M  V30 12677 H 1191.32 2.32933 2.92733 0
M  V30 12678 H 1192.65 3.04925 3.86369 0
M  V30 12679 N 1194.3 -1.0692 1.15784 0
M  V30 12680 C 1195.55 -1.8002 0.946795 0
M  V30 12681 C 1195.91 -1.85232 -0.520268 0
M  V30 12682 O 1195.2 -1.32825 -1.38087 0
M  V30 12683 C 1195.39 -3.24389 1.50022 0
M  V30 12684 C 1195.22 -3.33245 3.01957 0
M  V30 12685 C 1193.99 -3.43549 3.70543 0
M  V30 12686 C 1196.19 -3.23634 3.99707 0
M  V30 12687 N 1194.17 -3.41354 5.10246 0
M  V30 12688 C 1195.54 -3.28608 5.25754 0
M  V30 12689 C 1197.6 -3.07475 3.91617 0
M  V30 12690 C 1196.3 -3.19084 6.44653 0
M  V30 12691 C 1198.33 -2.99286 5.1008 0
M  V30 12692 C 1197.69 -3.04876 6.35004 0
M  V30 12693 H 1193.79 -0.671859 0.400162 0
M  V30 12694 H 1196.37 -1.27592 1.47066 0
M  V30 12695 H 1194.54 -3.75228 1.00293 0
M  V30 12696 H 1196.27 -3.85633 1.22756 0
M  V30 12697 H 1193.03 -3.48079 3.21151 0
M  V30 12698 H 1193.45 -3.43772 5.83223 0
M  V30 12699 H 1198.1 -3.02004 2.95895 0
M  V30 12700 H 1195.81 -3.23313 7.40604 0
M  V30 12701 H 1199.4 -2.8788 5.05585 0
M  V30 12702 H 1198.28 -2.9859 7.2513 0
M  V30 12703 N 1195.78 -0.955326 -1.25345 0
M  V30 12704 C 1197.06 -0.527828 -1.88344 0
M  V30 12705 C 1197.44 0.994911 -1.86185 0
M  V30 12706 O 1196.79 1.86099 -1.32587 0
M  V30 12707 C 1197 -1.10525 -3.31037 0
M  V30 12708 C 1198.35 -1.18253 -4.07801 0
M  V30 12709 O 1199.37 -1.05685 -3.4016 0
M  V30 12710 O 1198.23 -1.37978 -5.28795 0
M  V30 12711 H 1195.32 -0.174206 -0.808444 0
M  V30 12712 H 1197.87 -1.0488 -1.3341 0
M  V30 12713 H 1196.64 -2.14847 -3.27042 0
M  V30 12714 H 1196.26 -0.567568 -3.93528 0
M  V30 12715 N 1197.26 1.39987 -0.723979 0
M  V30 12716 C 1198.51 2.00731 -0.267115 0
M  V30 12717 C 1198.84 1.57424 1.14228 0
M  V30 12718 O 1198.09 0.789205 1.79081 0
M  V30 12719 C 1198.39 3.56101 -0.304472 0
M  V30 12720 C 1198.06 4.1902 -1.66533 0
M  V30 12721 C 1196.72 4.3592 -2.03783 0
M  V30 12722 C 1199.07 4.54034 -2.55935 0
M  V30 12723 C 1196.4 4.85119 -3.29964 0
M  V30 12724 C 1198.75 5.04637 -3.81477 0
M  V30 12725 C 1197.41 5.19745 -4.18833 0
M  V30 12726 H 1196.68 0.734525 -0.0977442 0
M  V30 12727 H 1199.33 1.67476 -0.928659 0
M  V30 12728 H 1197.64 3.89314 0.440647 0
M  V30 12729 H 1199.33 4.00944 0.0669875 0
M  V30 12730 H 1195.92 4.0626 -1.36569 0
M  V30 12731 H 1200.11 4.40606 -2.2843 0
M  V30 12732 H 1195.36 4.95001 -3.58865 0
M  V30 12733 H 1199.54 5.30705 -4.50916 0
M  V30 12734 H 1197.16 5.5763 -5.16675 0
M  V30 12735 N 1198.74 0.470782 1.50404 0
M  V30 12736 C 1199.7 -0.312227 2.27063 0
M  V30 12737 C 1200.7 -0.920709 1.31832 0
M  V30 12738 O 1201.89 -0.789937 1.5526 0
M  V30 12739 C 1199.02 -1.44477 3.0877 0
M  V30 12740 H 1200.22 0.36006 2.97731 0
M  V30 12741 H 1197.77 0.224837 1.54674 0
M  V30 12742 H 1198.51 -2.15212 2.42599 0
M  V30 12743 H 1198.29 -1.01426 3.78755 0
M  V30 12744 H 1199.78 -1.99713 3.66749 0
M  V30 12745 N 1200.22 -1.56282 0.203376 0
M  V30 12746 C 1201.46 -1.98864 -0.427176 0
M  V30 12747 C 1201.82 -1.08828 -1.58664 0
M  V30 12748 O 1201.11 -0.134399 -1.91128 0
M  V30 12749 C 1201.31 -3.45148 -0.927759 0
M  V30 12750 C 1201.13 -4.49333 0.18166 0
M  V30 12751 C 1199.9 -5.01204 0.642046 0
M  V30 12752 C 1202.1 -5.04612 0.993548 0
M  V30 12753 N 1200.08 -5.89066 1.72842 0
M  V30 12754 C 1201.46 -5.89223 1.92915 0
M  V30 12755 C 1203.51 -4.87023 1.03503 0
M  V30 12756 C 1202.21 -6.58125 2.90282 0
M  V30 12757 C 1204.24 -5.56671 1.99679 0
M  V30 12758 C 1203.6 -6.41035 2.91982 0
M  V30 12759 H 1199.7 -0.772186 -0.123501 0
M  V30 12760 H 1202.28 -1.92201 0.310974 0
M  V30 12761 H 1200.46 -3.52295 -1.63533 0
M  V30 12762 H 1202.19 -3.7468 -1.52961 0
M  V30 12763 H 1198.94 -4.73022 0.233895 0
M  V30 12764 H 1199.37 -6.377 2.27306 0
M  V30 12765 H 1204.01 -4.21468 0.335379 0
M  V30 12766 H 1201.73 -7.22874 3.61219 0
M  V30 12767 H 1205.31 -5.45034 2.0354 0
M  V30 12768 H 1204.19 -6.93979 3.65189 0
M  V30 12769 N 1201.7 0.070167 -1.57444 0
M  V30 12770 C 1202.61 1.10106 -2.07157 0
M  V30 12771 C 1203.62 1.42293 -1.00143 0
M  V30 12772 O 1204.8 1.52437 -1.31624 0
M  V30 12773 C 1201.86 2.39486 -2.50694 0
M  V30 12774 C 1200.92 2.14255 -3.72012 0
M  V30 12775 C 1200.16 3.37466 -4.13464 0
M  V30 12776 O 1200.38 4.46645 -3.54773 0
M  V30 12777 O 1199.31 3.25583 -5.0624 0
M  V30 12778 H 1203.14 0.70873 -2.95315 0
M  V30 12779 H 1200.72 0.28441 -1.46668 0
M  V30 12780 H 1202.61 3.15625 -2.79212 0
M  V30 12781 H 1201.28 2.78095 -1.65664 0
M  V30 12782 H 1200.19 1.35816 -3.48575 0
M  V30 12783 H 1201.52 1.80525 -4.57899 0
M  V30 12784 N 1203.17 1.53854 0.341593 0
M  V30 12785 C 1204.11 1.78295 1.44027 0
M  V30 12786 C 1205.12 0.664303 1.4863 0
M  V30 12787 O 1206.31 0.941073 1.51678 0
M  V30 12788 C 1203.41 1.86947 2.82673 0
M  V30 12789 C 1202.58 3.16898 3.01487 0
M  V30 12790 C 1201.64 3.16483 4.20386 0
M  V30 12791 O 1200.67 3.90197 4.14409 0
M  V30 12792 N 1201.87 2.3899 5.29022 0
M  V30 12793 H 1204.63 2.73102 1.23431 0
M  V30 12794 H 1202.19 1.52928 0.531483 0
M  V30 12795 H 1204.19 1.84118 3.60392 0
M  V30 12796 H 1202.76 0.993169 2.96403 0
M  V30 12797 H 1201.98 3.32835 2.11221 0
M  V30 12798 H 1203.26 4.02733 3.1094 0
M  V30 12799 H 1202.66 1.78657 5.36748 0
M  V30 12800 H 1201.22 2.41957 6.05227 0
M  V30 12801 N 1204.65 -0.602709 1.4562 0
M  V30 12802 C 1205.9 -1.36158 1.49891 0
M  V30 12803 C 1206.23 -1.93977 0.142581 0
M  V30 12804 O 1205.48 -1.75822 -0.859374 0
M  V30 12805 C 1205.78 -2.52474 2.52966 0
M  V30 12806 C 1205.45 -2.12772 3.97541 0
M  V30 12807 C 1204.11 -2.01658 4.36907 0
M  V30 12808 C 1206.46 -1.8186 4.88443 0
M  V30 12809 C 1203.79 -1.57862 5.65063 0
M  V30 12810 C 1206.14 -1.39548 6.17016 0
M  V30 12811 C 1204.8 -1.26997 6.55308 0
M  V30 12812 H 1204.07 -0.498236 0.54849 0
M  V30 12813 H 1206.72 -0.680738 1.78992 0
M  V30 12814 H 1205.03 -3.25917 2.17452 0
M  V30 12815 H 1206.72 -3.10701 2.53507 0
M  V30 12816 H 1203.31 -2.22349 3.66413 0
M  V30 12817 H 1207.5 -1.89341 4.58763 0
M  V30 12818 H 1202.75 -1.46771 5.93522 0
M  V30 12819 H 1206.93 -1.14677 6.86893 0
M  V30 12820 H 1204.55 -0.928346 7.5451 0
M  V30 12821 N 1206.13 -1.32992 -0.845635 0
M  V30 12822 C 1207.55 -1.12179 -1.13526 0
M  V30 12823 C 1207.75 0.091795 -2.01291 0
M  V30 12824 O 1206.8 0.774051 -2.40343 0
M  V30 12825 C 1208.11 -2.40584 -1.80388 0
M  V30 12826 C 1209.66 -2.46427 -1.92984 0
M  V30 12827 C 1210.14 -3.74776 -2.63261 0
M  V30 12828 N 1211.63 -3.75809 -2.7078 0
M  V30 12829 C 1212.36 -4.71829 -3.2583 0
M  V30 12830 N 1211.86 -5.78219 -3.81621 0
M  V30 12831 N 1213.65 -4.59313 -3.24018 0
M  V30 12832 H 1205.8 -2.10786 -0.261369 0
M  V30 12833 H 1208.07 -0.931053 -0.17845 0
M  V30 12834 H 1207.77 -3.29357 -1.23357 0
M  V30 12835 H 1207.65 -2.52225 -2.80468 0
M  V30 12836 H 1210.03 -1.58108 -2.4917 0
M  V30 12837 H 1210.11 -2.38732 -0.918732 0
M  V30 12838 H 1209.76 -4.63474 -2.07736 0
M  V30 12839 H 1209.69 -3.79746 -3.6483 0
M  V30 12840 H 1212.18 -2.98916 -2.31209 0
M  V30 12841 H 1212.49 -6.47531 -4.2181 0
M  V30 12842 H 1210.84 -5.81962 -3.79927 0
M  V30 12843 H 1214.03 -3.75358 -2.79685 0
M  V30 12844 H 1214.2 -5.34316 -3.6662 0
M  V30 12845 N 1207.61 1.06304 -1.1635 0
M  V30 12846 C 1208.56 2.15879 -0.865967 0
M  V30 12847 C 1209.55 1.68595 0.164929 0
M  V30 12848 O 1210.76 1.7999 0.0189271 0
M  V30 12849 H 1207.13 0.704721 -0.262435 0
M  V30 12850 H 1209.1 2.38185 -1.79751 0
M  V30 12851 C 1207.85 3.4558 -0.383374 0
M  V30 12852 H 1207.17 3.82356 -1.16806 0
M  V30 12853 H 1208.61 4.2346 -0.213964 0
M  V30 12854 C 1207.07 3.24738 0.897044 0
M  V30 12855 O 1207.6 3.50284 1.96632 0
M  V30 12856 N 1205.81 2.78172 0.840761 0
M  V30 12857 H 1205.36 2.57583 -0.029584 0
M  V30 12858 H 1205.31 2.64606 1.69797 0
M  V30 12859 N 1209.09 0.96196 1.24836 0
M  V30 12860 C 1210.05 0.492443 2.23847 0
M  V30 12861 C 1211.05 -0.40788 1.55541 0
M  V30 12862 O 1212.24 -0.204143 1.73 0
M  V30 12863 C 1209.37 -0.287578 3.39685 0
M  V30 12864 H 1210.56 1.36767 2.66899 0
M  V30 12865 H 1208.12 0.745967 1.3735 0
M  V30 12866 H 1208.85 -1.18015 3.02064 0
M  V30 12867 H 1208.64 0.358431 3.90458 0
M  V30 12868 H 1210.13 -0.605297 4.1319 0
M  V30 12869 N 1210.56 -1.39601 0.731392 0
M  V30 12870 C 1211.79 -2.04887 0.28789 0
M  V30 12871 C 1212.21 -1.55138 -1.076 0
M  V30 12872 O 1211.56 -0.71471 -1.67923 0
M  V30 12873 C 1211.61 -3.6044 0.276629 0
M  V30 12874 O 1211.34 -4.08358 1.58668 0
M  V30 12875 C 1212.84 -4.4292 -0.183485 0
M  V30 12876 H 1210.06 -0.658976 0.126459 0
M  V30 12877 H 1212.6 -1.78716 0.994031 0
M  V30 12878 H 1210.76 -3.85526 -0.380597 0
M  V30 12879 H 1211.17 -5.02659 1.4978 0
M  V30 12880 H 1212.64 -5.51822 -0.140207 0
M  V30 12881 H 1213.12 -4.2168 -1.22811 0
M  V30 12882 H 1213.73 -4.22976 0.444042 0
M  V30 12883 N 1212.04 -0.478751 -1.50152 0
M  V30 12884 C 1212.97 0.301182 -2.31549 0
M  V30 12885 C 1213.95 0.983276 -1.38801 0
M  V30 12886 O 1215.14 0.978973 -1.67719 0
M  V30 12887 C 1212.27 1.3791 -3.18745 0
M  V30 12888 C 1211.22 0.818175 -4.20107 0
M  V30 12889 C 1210.55 1.99496 -4.9609 0
M  V30 12890 C 1211.85 -0.17574 -5.22004 0
M  V30 12891 H 1213.54 -0.378188 -2.97002 0
M  V30 12892 H 1211.09 -0.183323 -1.42828 0
M  V30 12893 H 1213.04 1.93227 -3.74488 0
M  V30 12894 H 1211.77 2.08735 -2.51192 0
M  V30 12895 H 1210.42 0.286924 -3.65475 0
M  V30 12896 H 1210.07 2.69036 -4.25004 0
M  V30 12897 H 1209.77 1.62582 -5.6466 0
M  V30 12898 H 1211.3 2.55288 -5.54671 0
M  V30 12899 H 1212.71 0.288513 -5.72574 0
M  V30 12900 H 1211.11 -0.459549 -5.98338 0
M  V30 12901 H 1212.18 -1.09911 -4.72279 0
M  V30 12902 N 1213.52 1.56172 -0.211661 0
M  V30 12903 C 1214.77 1.98332 0.423332 0
M  V30 12904 C 1215.1 1.09895 1.60115 0
M  V30 12905 O 1214.37 0.154477 1.93886 0
M  V30 12906 C 1214.66 3.49495 0.86747 0
M  V30 12907 C 1214.51 4.48708 -0.313302 0
M  V30 12908 C 1215.83 4.04793 1.72716 0
M  V30 12909 H 1212.95 0.72107 0.152402 0
M  V30 12910 H 1215.59 1.87521 -0.305912 0
M  V30 12911 H 1213.74 3.58839 1.48885 0
M  V30 12912 H 1215.41 4.51385 -0.951291 0
M  V30 12913 H 1213.66 4.2299 -0.96238 0
M  V30 12914 H 1214.33 5.51985 0.0402402 0
M  V30 12915 H 1216.8 3.98332 1.20296 0
M  V30 12916 H 1215.68 5.10898 2.00684 0
M  V30 12917 H 1215.94 3.51067 2.68709 0
M  V30 12918 N 1215 -0.0618163 1.57479 0
M  V30 12919 C 1215.95 -1.09105 2.05424 0
M  V30 12920 C 1216.94 -1.3947 0.961479 0
M  V30 12921 O 1218.15 -1.3876 1.14655 0
M  V30 12922 H 1214.52 -0.36923 0.655113 0
M  V30 12923 H 1216.49 -0.66061 2.90996 0
M  V30 12924 C 1215.24 -2.39345 2.52209 0
M  V30 12925 H 1214.56 -2.16832 3.35893 0
M  V30 12926 H 1216 -3.09784 2.89499 0
M  V30 12927 C 1214.46 -3.06011 1.40922 0
M  V30 12928 O 1214.99 -3.94504 0.756921 0
M  V30 12929 N 1213.2 -2.66797 1.15186 0
M  V30 12930 H 1212.75 -1.94923 1.68412 0
M  V30 12931 H 1212.7 -3.11724 0.409324 0
M  V30 12932 N 1216.48 -1.54033 -0.333429 0
M  V30 12933 C 1217.39 -1.85737 -1.43314 0
M  V30 12934 C 1218.4 -0.748398 -1.57083 0
M  V30 12935 O 1219.58 -1.04171 -1.72367 0
M  V30 12936 C 1216.64 -2.06942 -2.78165 0
M  V30 12937 C 1215.7 -3.30774 -2.73655 0
M  V30 12938 C 1214.94 -3.50957 -4.02075 0
M  V30 12939 O 1215.16 -2.74774 -4.99855 0
M  V30 12940 O 1214.09 -4.44412 -4.05933 0
M  V30 12941 H 1217.92 -2.7923 -1.19434 0
M  V30 12942 H 1215.51 -1.39814 -0.526546 0
M  V30 12943 H 1217.39 -2.22276 -3.58011 0
M  V30 12944 H 1216.06 -1.16638 -3.01956 0
M  V30 12945 H 1214.97 -3.20835 -1.92395 0
M  V30 12946 H 1216.3 -4.21103 -2.54819 0
M  V30 12947 N 1217.95 0.594978 -1.45938 0
M  V30 12948 C 1218.92 1.68688 -1.55168 0
M  V30 12949 C 1219.92 1.54945 -0.429951 0
M  V30 12950 O 1221.11 1.59785 -0.693859 0
M  V30 12951 C 1218.24 3.0804 -1.46027 0
M  V30 12952 H 1219.43 1.61866 -2.52467 0
M  V30 12953 H 1216.99 0.811785 -1.33565 0
M  V30 12954 H 1217.72 3.20428 -0.499614 0
M  V30 12955 H 1217.51 3.19423 -2.27401 0
M  V30 12956 H 1219 3.8755 -1.55546 0
M  V30 12957 N 1219.43 1.33438 0.838571 0
M  V30 12958 C 1220.71 1.1551 1.5785 0
M  V30 12959 C 1221.09 -0.278405 2.09256 0
M  V30 12960 O 1220.44 -1.27748 1.89453 0
M  V30 12961 C 1220.65 2.19647 2.71212 0
M  V30 12962 C 1222 2.53818 3.40384 0
M  V30 12963 O 1223.02 2.18317 2.81454 0
M  V30 12964 O 1221.88 3.14741 4.46766 0
M  V30 12965 H 1218.97 0.446785 0.695925 0
M  V30 12966 H 1221.52 1.45021 0.8813 0
M  V30 12967 H 1220.29 3.15936 2.30869 0
M  V30 12968 H 1219.91 1.91224 3.48596 0
M  V30 12969 N 1220.91 -1.05686 1.16912 0
M  V30 12970 C 1221.86 -2.13312 0.88129 0
M  V30 12971 C 1222.83 -1.65199 -0.172783 0
M  V30 12972 O 1224.01 -1.90765 -0.0366542 0
M  V30 12973 C 1221.15 -3.42829 0.395264 0
M  V30 12974 C 1220.27 -4.04643 1.51288 0
M  V30 12975 C 1219.4 -5.22059 0.981238 0
M  V30 12976 C 1218.44 -5.75869 2.07464 0
M  V30 12977 N 1217.58 -6.84592 1.55813 0
M  V30 12978 H 1222.42 -2.37271 1.80295 0
M  V30 12979 H 1219.95 -1.16407 0.899322 0
M  V30 12980 H 1221.91 -4.17092 0.0950633 0
M  V30 12981 H 1220.54 -3.19068 -0.489445 0
M  V30 12982 H 1219.59 -3.27867 1.92891 0
M  V30 12983 H 1220.91 -4.40626 2.33774 0
M  V30 12984 H 1220.06 -6.03372 0.634586 0
M  V30 12985 H 1218.8 -4.87538 0.125754 0
M  V30 12986 H 1217.8 -4.93188 2.42992 0
M  V30 12987 H 1219.03 -6.12439 2.93419 0
M  V30 12988 H 1216.97 -6.51978 0.725283 0
M  V30 12989 H 1216.89 -7.19551 2.31911 0
M  V30 12990 H 1218.16 -7.6957 1.24025 0
M  V30 12991 N 1222.39 -0.968567 -1.24324 0
M  V30 12992 C 1223.32 -0.518323 -2.27674 0
M  V30 12993 C 1224.3 0.442479 -1.64244 0
M  V30 12994 O 1225.48 0.338416 -1.91229 0
M  V30 12995 C 1222.61 0.191459 -3.46772 0
M  V30 12996 C 1221.57 -0.685449 -4.22476 0
M  V30 12997 C 1220.89 0.155873 -5.34473 0
M  V30 12998 C 1222.19 -1.97047 -4.83704 0
M  V30 12999 H 1223.89 -1.38215 -2.65588 0
M  V30 13000 H 1221.43 -0.66604 -1.27671 0
M  V30 13001 H 1223.39 0.517667 -4.18208 0
M  V30 13002 H 1222.11 1.08965 -3.07887 0
M  V30 13003 H 1220.77 -0.994942 -3.52841 0
M  V30 13004 H 1220.42 1.05424 -4.91828 0
M  V30 13005 H 1220.12 -0.427655 -5.86042 0
M  V30 13006 H 1221.64 0.476733 -6.08736 0
M  V30 13007 H 1223.06 -1.70979 -5.4721 0
M  V30 13008 H 1221.45 -2.50079 -5.45509 0
M  V30 13009 H 1222.52 -2.66484 -4.0511 0
M  V30 13010 N 1223.87 1.39211 -0.738786 0
M  V30 13011 C 1225.28 1.54116 -0.414773 0
M  V30 13012 C 1225.48 1.70497 1.07392 0
M  V30 13013 O 1224.54 1.7076 1.86003 0
M  V30 13014 C 1225.85 2.7567 -1.2011 0
M  V30 13015 C 1227.4 2.89508 -1.1897 0
M  V30 13016 C 1227.87 4.14005 -1.95868 0
M  V30 13017 N 1229.37 4.21052 -1.93053 0
M  V30 13018 C 1230.1 5.16341 -2.49358 0
M  V30 13019 N 1229.6 6.17396 -3.14316 0
M  V30 13020 N 1231.39 5.08585 -2.3937 0
M  V30 13021 H 1223.54 1.26827 -1.70378 0
M  V30 13022 H 1225.8 0.614983 -0.721457 0
M  V30 13023 H 1225.51 2.69922 -2.25467 0
M  V30 13024 H 1225.38 3.68443 -0.808065 0
M  V30 13025 H 1227.77 2.94747 -0.144248 0
M  V30 13026 H 1227.85 1.97788 -1.62214 0
M  V30 13027 H 1227.5 4.09527 -3.00416 0
M  V30 13028 H 1227.43 5.04776 -1.50028 0
M  V30 13029 H 1229.92 3.48669 -1.45733 0
M  V30 13030 H 1230.23 6.86572 -3.54737 0
M  V30 13031 H 1228.57 6.17772 -3.18407 0
M  V30 13032 H 1231.77 4.28573 -1.88262 0
M  V30 13033 H 1231.94 5.8267 -2.83549 0
M  V30 13034 N 1225.34 0.486708 1.49896 0
M  V30 13035 C 1226.31 -0.288126 2.27382 0
M  V30 13036 C 1227.31 -0.906675 1.32801 0
M  V30 13037 O 1228.5 -0.773425 1.56089 0
M  V30 13038 C 1225.63 -1.41194 3.10285 0
M  V30 13039 H 1226.82 0.391618 2.97332 0
M  V30 13040 H 1224.38 0.24123 1.54427 0
M  V30 13041 H 1225.11 -2.12627 2.44868 0
M  V30 13042 H 1224.9 -0.974033 3.79809 0
M  V30 13043 H 1226.39 -1.95812 3.68846 0
M  V30 13044 N 1226.82 -1.56058 0.219941 0
M  V30 13045 C 1227.79 -2.18964 -0.677303 0
M  V30 13046 C 1228.79 -1.15105 -1.12283 0
M  V30 13047 O 1229.98 -1.40348 -1.03189 0
M  V30 13048 C 1227.11 -2.81167 -1.92764 0
M  V30 13049 H 1228.3 -2.99623 -0.128877 0
M  V30 13050 H 1225.85 -1.56272 -0.0296744 0
M  V30 13051 H 1226.59 -2.04374 -2.51797 0
M  V30 13052 H 1226.37 -3.5722 -1.61666 0
M  V30 13053 H 1227.86 -3.29391 -2.56693 0
M  V30 13054 N 1228.3 0.053464 -1.57509 0
M  V30 13055 C 1229.23 1.06151 -2.07977 0
M  V30 13056 C 1230.21 1.3924 -0.977047 0
M  V30 13057 O 1231.4 1.48549 -1.25087 0
M  V30 13058 C 1228.53 2.36969 -2.53895 0
M  V30 13059 C 1227.48 2.18186 -3.6821 0
M  V30 13060 C 1226.81 3.54551 -4.00247 0
M  V30 13061 C 1228.11 1.588 -4.97574 0
M  V30 13062 H 1229.8 0.641483 -2.92447 0
M  V30 13063 H 1227.35 0.307122 -1.40687 0
M  V30 13064 H 1229.3 3.07797 -2.87817 0
M  V30 13065 H 1228.02 2.80986 -1.66476 0
M  V30 13066 H 1226.68 1.49796 -3.34599 0
M  V30 13067 H 1226.33 3.96171 -3.09932 0
M  V30 13068 H 1226.03 3.42816 -4.77232 0
M  V30 13069 H 1227.56 4.2678 -4.36682 0
M  V30 13070 H 1228.97 2.19515 -5.29609 0
M  V30 13071 H 1227.37 1.57711 -5.79006 0
M  V30 13072 H 1228.44 0.551254 -4.81756 0
M  V30 13073 N 1229.78 1.54207 0.325255 0
M  V30 13074 C 1230.74 1.82757 1.38321 0
M  V30 13075 C 1231.74 0.699312 1.44797 0
M  V30 13076 O 1232.93 0.96762 1.44854 0
M  V30 13077 C 1230.06 1.98608 2.7707 0
M  V30 13078 H 1231.26 2.7728 1.14261 0
M  V30 13079 H 1228.81 1.45899 0.560647 0
M  V30 13080 H 1229.55 1.0629 3.06387 0
M  V30 13081 H 1229.33 2.80707 2.73763 0
M  V30 13082 H 1230.82 2.2215 3.53609 0
M  V30 13083 N 1231.26 -0.58723 1.46251 0
M  V30 13084 C 1232.5 -1.3567 1.52882 0
M  V30 13085 C 1232.86 -1.91206 0.174438 0
M  V30 13086 O 1234.06 -2.68552 0.115491 0
M  V30 13087 C 1232.33 -2.45914 2.59347 0
M  V30 13088 S 1233.89 -3.33347 2.85351 0
M  V30 13089 H 1230.71 -0.462276 0.540205 0
M  V30 13090 H 1233.31 -0.675537 1.83458 0
M  V30 13091 H 1232.02 -2.03498 3.56394 0
M  V30 13092 H 1231.55 -3.18807 2.30489 0
M  V30 13093 H 1233.56 -4.44626 2.20278 0
M  V30 13094 N 1232.74 -1.33881 -0.831482 0
M  V30 13095 C 1233.96 -1.28961 -1.62431 0
M  V30 13096 C 1234.39 0.135249 -1.87613 0
M  V30 13097 O 1233.74 1.09426 -1.44553 0
M  V30 13098 C 1233.79 -2.07767 -2.94729 0
M  V30 13099 O 1232.9 -1.44133 -3.86393 0
M  V30 13100 H 1232.24 -0.443313 -0.494337 0
M  V30 13101 H 1234.77 -1.76555 -1.0339 0
M  V30 13102 H 1234.78 -2.18806 -3.44366 0
M  V30 13103 H 1233.45 -3.11367 -2.75724 0
M  V30 13104 H 1232.03 -1.41784 -3.44894 0
M  V30 13105 N 1234.21 1.05064 -1.1747 0
M  V30 13106 C 1235.16 2.12841 -0.89259 0
M  V30 13107 C 1236.13 1.65288 0.16402 0
M  V30 13108 O 1237.32 1.90782 0.026537 0
M  V30 13109 C 1234.46 3.42614 -0.41344 0
M  V30 13110 C 1233.57 4.03835 -1.53432 0
M  V30 13111 C 1232.7 5.21531 -1.00891 0
M  V30 13112 C 1231.74 5.74761 -2.10515 0
M  V30 13113 N 1230.88 6.83756 -1.59442 0
M  V30 13114 H 1235.72 2.36312 -1.81551 0
M  V30 13115 H 1233.26 1.15929 -0.905483 0
M  V30 13116 H 1235.21 4.17035 -0.117181 0
M  V30 13117 H 1233.84 3.19323 0.472517 0
M  V30 13118 H 1232.9 3.2684 -1.94627 0
M  V30 13119 H 1234.21 4.3938 -2.36108 0
M  V30 13120 H 1233.36 6.03027 -0.666575 0
M  V30 13121 H 1232.1 4.87464 -0.151608 0
M  V30 13122 H 1231.11 4.91893 -2.45604 0
M  V30 13123 H 1232.33 6.10875 -2.96663 0
M  V30 13124 H 1230.28 6.51584 -0.759849 0
M  V30 13125 H 1230.19 7.18311 -2.35724 0
M  V30 13126 H 1231.46 7.68901 -1.28105 0
M  V30 13127 N 1235.69 0.975146 1.23809 0
M  V30 13128 C 1236.6 0.51917 2.28783 0
M  V30 13129 C 1237.62 -0.423487 1.68768 0
M  V30 13130 O 1238.79 -0.294699 1.99232 0
M  V30 13131 C 1235.86 -0.176229 3.46252 0
M  V30 13132 C 1234.92 0.807177 4.21643 0
M  V30 13133 C 1234.15 0.144869 5.33503 0
M  V30 13134 O 1234.38 -1.06522 5.60365 0
M  V30 13135 O 1233.31 0.84079 5.95999 0
M  V30 13136 H 1237.14 1.39204 2.69919 0
M  V30 13137 H 1234.72 0.74253 1.29641 0
M  V30 13138 H 1236.6 -0.566547 4.17574 0
M  V30 13139 H 1235.28 -1.02394 3.07078 0
M  V30 13140 H 1234.18 1.2481 3.52666 0
M  V30 13141 H 1235.52 1.62354 4.64653 0
M  V30 13142 N 1237.17 -1.38817 0.746158 0
M  V30 13143 C 1238.1 -2.33144 0.128836 0
M  V30 13144 C 1239.08 -1.54487 -0.711873 0
M  V30 13145 O 1240.27 -1.82836 -0.654577 0
M  V30 13146 C 1237.4 -3.38639 -0.770772 0
M  V30 13147 C 1236.35 -4.27987 -0.0333669 0
M  V30 13148 C 1235.68 -5.24274 -1.05073 0
M  V30 13149 C 1236.98 -5.09915 1.13066 0
M  V30 13150 H 1238.67 -2.85019 0.916778 0
M  V30 13151 H 1236.22 -1.37039 0.442306 0
M  V30 13152 H 1238.17 -4.03587 -1.21225 0
M  V30 13153 H 1236.89 -2.8523 -1.59095 0
M  V30 13154 H 1235.55 -3.64534 0.388612 0
M  V30 13155 H 1235.2 -4.67156 -1.86478 0
M  V30 13156 H 1234.9 -5.84906 -0.562037 0
M  V30 13157 H 1236.42 -5.92099 -1.49169 0
M  V30 13158 H 1237.84 -5.68145 0.767084 0
M  V30 13159 H 1236.23 -5.79744 1.54972 0
M  V30 13160 H 1237.3 -4.4409 1.94709 0
M  V30 13161 N 1238.65 -0.49465 -1.49636 0
M  V30 13162 C 1239.89 0.0442152 -2.03352 0
M  V30 13163 C 1240.25 1.35275 -1.36815 0
M  V30 13164 O 1239.54 1.85158 -0.492671 0
M  V30 13165 C 1239.74 0.259743 -3.56455 0
M  V30 13166 C 1239.56 -1.02635 -4.37831 0
M  V30 13167 C 1238.33 -1.57636 -4.80082 0
M  V30 13168 C 1240.53 -1.92797 -4.76795 0
M  V30 13169 N 1238.51 -2.80902 -5.45864 0
M  V30 13170 C 1239.89 -3.00644 -5.4223 0
M  V30 13171 C 1241.94 -1.93552 -4.5874 0
M  V30 13172 C 1240.64 -4.09265 -5.91519 0
M  V30 13173 C 1242.67 -3.01144 -5.08986 0
M  V30 13174 C 1242.03 -4.07709 -5.74415 0
M  V30 13175 H 1238.13 -0.0244415 -0.781618 0
M  V30 13176 H 1240.71 -0.668098 -1.82878 0
M  V30 13177 H 1238.89 0.941108 -3.76826 0
M  V30 13178 H 1240.62 0.795048 -3.96814 0
M  V30 13179 H 1237.37 -1.12236 -4.60109 0
M  V30 13180 H 1237.8 -3.43565 -5.83345 0
M  V30 13181 H 1242.44 -1.12473 -4.07566 0
M  V30 13182 H 1240.16 -4.91146 -6.41717 0
M  V30 13183 H 1243.74 -3.02739 -4.9683 0
M  V30 13184 H 1242.62 -4.89591 -6.12593 0
M  V30 13185 N 1240.13 1.55939 -0.228214 0
M  V30 13186 C 1241.37 1.97652 0.402067 0
M  V30 13187 C 1241.69 1.11911 1.60422 0
M  V30 13188 O 1242.89 1.43552 2.30445 0
M  V30 13189 C 1241.35 3.51638 0.766724 0
M  V30 13190 C 1240.96 4.46092 -0.412991 0
M  V30 13191 C 1242.7 4.02049 1.36224 0
M  V30 13192 C 1240.61 5.91394 -0.0255281 0
M  V30 13193 H 1239.54 0.738107 0.153994 0
M  V30 13194 H 1242.19 1.8059 -0.32548 0
M  V30 13195 H 1240.57 3.64325 1.55188 0
M  V30 13196 H 1241.75 4.45156 -1.19049 0
M  V30 13197 H 1240.06 4.0606 -0.92218 0
M  V30 13198 H 1242.66 5.08111 1.66514 0
M  V30 13199 H 1243 3.48292 2.28032 0
M  V30 13200 H 1243.53 3.92612 0.640378 0
M  V30 13201 H 1240.27 6.49149 -0.910269 0
M  V30 13202 H 1239.79 5.95509 0.716149 0
M  V30 13203 H 1241.47 6.4577 0.398839 0
M  V30 13204 N 1241.6 -0.0451101 1.57535 0
M  V30 13205 C 1242.53 -1.05046 2.08537 0
M  V30 13206 C 1243.52 -1.3872 0.984418 0
M  V30 13207 O 1244.7 -1.47884 1.25873 0
M  V30 13208 C 1241.83 -2.3562 2.55148 0
M  V30 13209 C 1240.78 -2.16231 3.69362 0
M  V30 13210 C 1240.11 -3.52423 4.02122 0
M  V30 13211 C 1241.41 -1.56159 4.98409 0
M  V30 13212 H 1243.1 -0.625965 2.92783 0
M  V30 13213 H 1240.65 -0.299657 1.40848 0
M  V30 13214 H 1242.6 -3.06266 2.89446 0
M  V30 13215 H 1241.33 -2.80099 1.67964 0
M  V30 13216 H 1239.99 -1.4802 3.35389 0
M  V30 13217 H 1239.63 -3.94522 3.12028 0
M  V30 13218 H 1239.33 -3.4028 4.79044 0
M  V30 13219 H 1240.86 -4.24458 4.38939 0
M  V30 13220 H 1242.27 -2.16703 5.30766 0
M  V30 13221 H 1240.67 -1.54638 5.79834 0
M  V30 13222 H 1241.74 -0.525698 4.82042 0
M  V30 13223 N 1243.08 -1.54377 -0.317073 0
M  V30 13224 C 1244.03 -1.84948 -1.41057 0
M  V30 13225 C 1245.02 -0.721887 -1.53249 0
M  V30 13226 O 1246.23 -0.905648 -1.55557 0
M  V30 13227 H 1242.61 -0.586353 -0.470844 0
M  V30 13228 H 1244.58 -2.7638 -1.12501 0
M  V30 13229 C 1243.33 -2.09932 -2.77171 0
M  V30 13230 H 1242.65 -2.96162 -2.68566 0
M  V30 13231 H 1244.09 -2.35272 -3.52737 0
M  V30 13232 C 1242.55 -0.892855 -3.24853 0
M  V30 13233 O 1243.08 -0.105336 -4.01562 0
M  V30 13234 N 1241.28 -0.702685 -2.81976 0
M  V30 13235 H 1240.83 -1.34474 -2.19715 0
M  V30 13236 H 1240.79 0.103024 -3.14231 0
M  V30 13237 N 1244.56 0.579466 -1.4656 0
M  V30 13238 C 1245.98 0.903163 -1.31587 0
M  V30 13239 C 1246.18 1.99406 -0.28972 0
M  V30 13240 O 1245.23 2.50632 0.30658 0
M  V30 13241 C 1246.55 1.31745 -2.70303 0
M  V30 13242 C 1248.09 1.43012 -2.78418 0
M  V30 13243 C 1248.57 1.87805 -4.17724 0
M  V30 13244 N 1250.06 1.94993 -4.20157 0
M  V30 13245 C 1250.79 2.30934 -5.2484 0
M  V30 13246 N 1250.29 2.65645 -6.39847 0
M  V30 13247 N 1252.08 2.31517 -5.12207 0
M  V30 13248 H 1244.23 -0.141111 -2.11931 0
M  V30 13249 H 1246.5 -0.000460304 -0.948 0
M  V30 13250 H 1246.2 0.589864 -3.46718 0
M  V30 13251 H 1246.08 2.2783 -3.00622 0
M  V30 13252 H 1248.46 2.14856 -2.02289 0
M  V30 13253 H 1248.55 0.451701 -2.5178 0
M  V30 13254 H 1248.19 1.16539 -4.94349 0
M  V30 13255 H 1248.12 2.86611 -4.41771 0
M  V30 13256 H 1250.61 1.70645 -3.37178 0
M  V30 13257 H 1250.92 2.92032 -7.15498 0
M  V30 13258 H 1249.27 2.63276 -6.43204 0
M  V30 13259 H 1252.46 2.03824 -4.21394 0
M  V30 13260 H 1252.63 2.59199 -5.93902 0
M  V30 13261 N 1246.04 1.3432 0.824371 0
M  V30 13262 C 1247.27 1.29481 1.60992 0
M  V30 13263 C 1247.68 -0.133581 1.88728 0
M  V30 13264 O 1247.02 -1.09065 1.4782 0
M  V30 13265 C 1247.08 2.01604 2.97651 0
M  V30 13266 C 1246.75 3.50866 2.92817 0
M  V30 13267 C 1247.74 4.458 2.67504 0
M  V30 13268 C 1245.43 3.93258 3.12495 0
M  V30 13269 C 1247.42 5.81101 2.61918 0
M  V30 13270 C 1245.11 5.28659 3.06533 0
M  V30 13271 C 1246.11 6.22392 2.81278 0
M  V30 13272 O 1245.79 7.55311 2.75246 0
M  V30 13273 H 1245.53 0.446931 0.507177 0
M  V30 13274 H 1248.08 1.77484 1.03386 0
M  V30 13275 H 1246.31 1.48212 3.5717 0
M  V30 13276 H 1248 1.90073 3.58646 0
M  V30 13277 H 1248.77 4.1437 2.52037 0
M  V30 13278 H 1244.64 3.20699 3.31169 0
M  V30 13279 H 1248.19 6.54233 2.42125 0
M  V30 13280 H 1244.09 5.59709 3.21553 0
M  V30 13281 H 1244.85 7.6503 2.90984 0
M  V30 13282 N 1247.52 -1.0444 1.18026 0
M  V30 13283 C 1248.45 -2.14297 0.927314 0
M  V30 13284 C 1249.43 -1.69575 -0.13357 0
M  V30 13285 O 1250.61 -1.94191 0.0182439 0
M  V30 13286 C 1247.74 -3.44397 0.448134 0
M  V30 13287 C 1246.7 -4.02723 1.44907 0
M  V30 13288 C 1246.02 -5.28257 0.827555 0
M  V30 13289 C 1247.32 -4.39331 2.82463 0
M  V30 13290 H 1249.02 -2.35715 1.84605 0
M  V30 13291 H 1246.56 -1.13281 0.889012 0
M  V30 13292 H 1248.52 -4.20606 0.258554 0
M  V30 13293 H 1247.24 -3.22654 -0.506159 0
M  V30 13294 H 1245.9 -3.28591 1.62552 0
M  V30 13295 H 1245.55 -5.02822 -0.13381 0
M  V30 13296 H 1245.25 -5.68242 1.49581 0
M  V30 13297 H 1246.77 -6.07147 0.64842 0
M  V30 13298 H 1248.18 -5.06543 2.68491 0
M  V30 13299 H 1246.58 -4.90355 3.45936 0
M  V30 13300 H 1247.65 -3.4933 3.36299 0
M  V30 13301 N 1248.99 -0.981699 -1.2329 0
M  V30 13302 C 1250.22 -0.669025 -1.96313 0
M  V30 13303 C 1250.64 0.757624 -1.72168 0
M  V30 13304 O 1250 1.51626 -0.993942 0
M  V30 13305 C 1250.05 -0.966875 -3.47396 0
M  V30 13306 O 1249.15 -0.0595933 -4.12357 0
M  V30 13307 H 1248.5 -0.251493 -0.61453 0
M  V30 13308 H 1251.03 -1.31564 -1.56691 0
M  V30 13309 H 1251.04 -0.904112 -3.97857 0
M  V30 13310 H 1249.71 -2.00651 -3.64296 0
M  V30 13311 H 1248.29 -0.176878 -3.7248 0
M  V30 13312 N 1250.47 1.3842 -0.753509 0
M  V30 13313 C 1251.7 2.04107 -0.319985 0
M  V30 13314 C 1252.11 1.56951 1.05655 0
M  V30 13315 O 1251.45 0.737807 1.68232 0
M  V30 13316 C 1251.52 3.58529 -0.26402 0
M  V30 13317 C 1251.18 4.28741 -1.58209 0
M  V30 13318 C 1252.18 4.54118 -2.53126 0
M  V30 13319 C 1249.86 4.66931 -1.8515 0
M  V30 13320 C 1251.86 5.16719 -3.73203 0
M  V30 13321 C 1249.54 5.29256 -3.05502 0
M  V30 13322 C 1250.54 5.54085 -3.99348 0
M  V30 13323 O 1250.23 6.15112 -5.17584 0
M  V30 13324 H 1249.96 0.662457 -0.134636 0
M  V30 13325 H 1252.51 1.78096 -1.02328 0
M  V30 13326 H 1250.74 3.83512 0.495516 0
M  V30 13327 H 1252.43 4.05659 0.139979 0
M  V30 13328 H 1253.2 4.25043 -2.33588 0
M  V30 13329 H 1249.08 4.46952 -1.12939 0
M  V30 13330 H 1252.62 5.36014 -4.46469 0
M  V30 13331 H 1248.52 5.57754 -3.24932 0
M  V30 13332 H 1249.29 6.33599 -5.18164 0
M  V30 13333 N 1251.95 0.502579 1.49372 0
M  V30 13334 C 1253.18 -0.0381429 2.06865 0
M  V30 13335 C 1253.59 -1.30674 1.36271 0
M  V30 13336 O 1252.95 -1.77078 0.441532 0
M  V30 13337 C 1253 -0.294068 3.60302 0
M  V30 13338 O 1252.72 0.924244 4.2824 0
M  V30 13339 C 1254.22 -0.878253 4.34513 0
M  V30 13340 H 1251.44 0.0211756 0.670666 0
M  V30 13341 H 1253.99 0.700387 1.92132 0
M  V30 13342 H 1252.14 -0.982583 3.74732 0
M  V30 13343 H 1252.56 0.688062 5.19967 0
M  V30 13344 H 1254.03 -1.0069 5.42739 0
M  V30 13345 H 1254.51 -1.87643 3.97098 0
M  V30 13346 H 1255.11 -0.227157 4.24693 0
M  V30 13347 N 1253.43 -1.55816 0.23648 0
M  V30 13348 C 1254.36 -2.23924 -0.661834 0
M  V30 13349 C 1255.34 -1.21597 -1.18946 0
M  V30 13350 O 1256.52 -1.50222 -1.23073 0
M  V30 13351 C 1253.65 -2.93069 -1.86355 0
M  V30 13352 C 1252.61 -4.01996 -1.46913 0
M  V30 13353 C 1251.93 -4.58512 -2.75083 0
M  V30 13354 C 1253.23 -5.18265 -0.647964 0
M  V30 13355 H 1254.93 -2.99253 -0.0939368 0
M  V30 13356 H 1252.47 -1.43934 -0.0437407 0
M  V30 13357 H 1254.43 -3.39412 -2.49755 0
M  V30 13358 H 1253.15 -2.15212 -2.45665 0
M  V30 13359 H 1251.81 -3.56406 -0.858522 0
M  V30 13360 H 1251.46 -3.77368 -3.3257 0
M  V30 13361 H 1251.16 -5.32037 -2.49421 0
M  V30 13362 H 1252.68 -5.07583 -3.39399 0
M  V30 13363 H 1254.1 -5.60898 -1.18602 0
M  V30 13364 H 1252.49 -5.98114 -0.487823 0
M  V30 13365 H 1253.56 -4.83691 0.342151 0
M  V30 13366 N 1254.91 0.036755 -1.57557 0
M  V30 13367 C 1255.85 1.05823 -2.07133 0
M  V30 13368 C 1256.85 1.37923 -0.983546 0
M  V30 13369 O 1258.05 1.36918 -1.16848 0
M  V30 13370 H 1254.43 0.358761 -0.660905 0
M  V30 13371 H 1256.4 0.614232 -2.9201 0
M  V30 13372 C 1255.15 2.35302 -2.55985 0
M  V30 13373 H 1254.47 2.11461 -3.393 0
M  V30 13374 H 1255.91 3.05139 -2.94391 0
M  V30 13375 C 1254.37 3.0373 -1.45773 0
M  V30 13376 O 1254.9 3.9325 -0.819587 0
M  V30 13377 N 1253.11 2.64931 -1.19416 0
M  V30 13378 H 1252.65 1.92219 -1.71492 0
M  V30 13379 H 1252.61 3.11033 -0.458865 0
M  V30 13380 N 1256.39 1.54543 0.308881 0
M  V30 13381 C 1257.8 1.64532 0.882392 0
M  V30 13382 C 1258.15 0.54886 1.88367 0
M  V30 13383 O 1257.27 -0.315832 2.14083 0
M  V30 13384 C 1257.87 2.98251 1.60722 0
M  V30 13385 C 1256.43 3.10387 2.12925 0
M  V30 13386 C 1255.57 2.60176 0.959362 0
M  V30 13387 H 1258.52 1.58466 0.0860803 0
M  V30 13388 H 1258.55 2.89233 2.47233 0
M  V30 13389 H 1258.06 3.78033 0.878233 0
M  V30 13390 H 1256.16 2.35309 2.88895 0
M  V30 13391 H 1256.27 4.16421 2.36918 0
M  V30 13392 H 1254.64 2.16434 1.3427 0
M  V30 13393 H 1255.42 3.42429 0.244454 0
M  V30 13394 N 1257.86 -0.571685 1.46866 0
M  V30 13395 C 1259.14 -1.33216 1.43223 0
M  V30 13396 C 1259.52 -2.1075 0.121495 0
M  V30 13397 O 1258.87 -2.10157 -0.897003 0
M  V30 13398 C 1259.08 -2.24888 2.66882 0
M  V30 13399 C 1260.43 -2.86369 3.13493 0
M  V30 13400 O 1261.45 -2.35197 2.67509 0
M  V30 13401 O 1260.31 -3.79342 3.93398 0
M  V30 13402 H 1257.4 -0.599106 0.570089 0
M  V30 13403 H 1259.95 -0.591788 1.59047 0
M  V30 13404 H 1258.72 -1.67099 3.53827 0
M  V30 13405 H 1258.34 -3.06246 2.53573 0
M  V30 13406 N 1259.34 -1.34755 -0.817236 0
M  V30 13407 C 1260.27 -1.29452 -1.94331 0
M  V30 13408 C 1261.25 -0.170902 -1.69239 0
M  V30 13409 O 1262.44 -0.364173 -1.90755 0
M  V30 13410 C 1259.57 -1.05497 -3.30889 0
M  V30 13411 C 1258.52 -2.14386 -3.70436 0
M  V30 13412 C 1257.85 -1.75612 -5.05039 0
M  V30 13413 C 1259.15 -3.56265 -3.81933 0
M  V30 13414 H 1260.84 -2.23672 -1.99025 0
M  V30 13415 H 1258.39 -1.07674 -0.956159 0
M  V30 13416 H 1260.34 -1.0043 -4.09257 0
M  V30 13417 H 1259.06 -0.0772059 -3.26509 0
M  V30 13418 H 1257.72 -2.18532 -2.94345 0
M  V30 13419 H 1257.37 -0.764809 -4.97152 0
M  V30 13420 H 1257.07 -2.48495 -5.3247 0
M  V30 13421 H 1258.6 -1.72051 -5.85859 0
M  V30 13422 H 1260.01 -3.545 -4.50558 0
M  V30 13423 H 1258.41 -4.27818 -4.20822 0
M  V30 13424 H 1259.48 -3.93192 -2.83775 0
M  V30 13425 N 1260.82 1.03812 -1.18578 0
M  V30 13426 C 1262.07 1.76455 -0.977071 0
M  V30 13427 C 1262.38 1.8926 0.493964 0
M  V30 13428 O 1263.59 2.58781 0.821256 0
M  V30 13429 C 1262.04 3.17264 -1.69917 0
M  V30 13430 C 1261.65 3.12543 -3.20969 0
M  V30 13431 C 1263.4 3.94266 -1.57337 0
M  V30 13432 C 1261.3 4.48226 -3.85807 0
M  V30 13433 H 1260.23 0.661445 -0.361949 0
M  V30 13434 H 1262.88 1.16252 -1.41978 0
M  V30 13435 H 1261.27 3.77878 -1.18424 0
M  V30 13436 H 1262.44 2.61364 -3.79507 0
M  V30 13437 H 1260.75 2.49039 -3.33719 0
M  V30 13438 H 1263.35 4.9461 -2.03137 0
M  V30 13439 H 1263.69 4.12963 -0.526033 0
M  V30 13440 H 1264.23 3.40232 -2.06124 0
M  V30 13441 H 1260.97 4.34734 -4.90599 0
M  V30 13442 H 1260.49 4.99497 -3.32058 0
M  V30 13443 H 1262.17 5.17135 -3.88819 0
M  V30 13444 N 1262.3 0.988223 1.22768 0
M  V30 13445 C 1263.71 0.69816 1.4352 0
M  V30 13446 C 1263.91 -0.732872 1.877 0
M  V30 13447 O 1262.97 -1.50436 2.02793 0
M  V30 13448 C 1264.28 1.69975 2.4805 0
M  V30 13449 C 1265.83 1.71467 2.61855 0
M  V30 13450 C 1266.31 2.70477 3.69603 0
M  V30 13451 N 1267.8 2.69043 3.77055 0
M  V30 13452 C 1268.53 3.42319 4.60006 0
M  V30 13453 N 1268.03 4.2518 5.46986 0
M  V30 13454 N 1269.82 3.31047 4.54274 0
M  V30 13455 H 1261.97 1.91251 0.923948 0
M  V30 13456 H 1264.23 0.82455 0.467783 0
M  V30 13457 H 1263.94 2.72354 2.22523 0
M  V30 13458 H 1263.81 1.48885 3.46573 0
M  V30 13459 H 1266.2 0.697889 2.86729 0
M  V30 13460 H 1266.28 1.96625 1.63622 0
M  V30 13461 H 1265.93 3.72302 3.45476 0
M  V30 13462 H 1265.86 2.42591 4.67394 0
M  V30 13463 H 1268.35 2.08914 3.14902 0
M  V30 13464 H 1268.66 4.77929 6.07292 0
M  V30 13465 H 1267.01 4.29268 5.46584 0
M  V30 13466 H 1270.2 2.65758 3.85345 0
M  V30 13467 H 1270.37 3.88413 5.1869 0
M  V30 13468 N 1263.78 -1.38018 0.760839 0
M  V30 13469 C 1264.72 -2.30387 0.13796 0
M  V30 13470 C 1265.69 -1.50548 -0.701754 0
M  V30 13471 O 1266.88 -1.79154 -0.656381 0
M  V30 13472 C 1264.02 -3.36993 -0.743642 0
M  V30 13473 C 1263.13 -4.31856 0.111489 0
M  V30 13474 C 1262.27 -5.25534 -0.773796 0
M  V30 13475 C 1261.3 -6.12042 0.0845311 0
M  V30 13476 N 1260.44 -6.97995 -0.758118 0
M  V30 13477 H 1265.28 -2.83077 0.931212 0
M  V30 13478 H 1262.82 -1.39361 0.470833 0
M  V30 13479 H 1264.78 -3.97417 -1.26948 0
M  V30 13480 H 1263.41 -2.85695 -1.50261 0
M  V30 13481 H 1262.46 -3.72832 0.755031 0
M  V30 13482 H 1263.77 -4.92758 0.774042 0
M  V30 13483 H 1262.92 -5.9111 -1.36653 0
M  V30 13484 H 1261.66 -4.65017 -1.47006 0
M  V30 13485 H 1260.67 -5.45455 0.689883 0
M  V30 13486 H 1261.89 -6.74629 0.777966 0
M  V30 13487 H 1259.84 -6.40018 -1.4392 0
M  V30 13488 H 1259.76 -7.55846 -0.152623 0
M  V30 13489 H 1261.02 -7.67973 -1.33559 0
M  V30 13490 N 1265.25 -0.510493 -1.49103 0
M  V30 13491 C 1266.19 0.299697 -2.27232 0
M  V30 13492 C 1267.2 0.922102 -1.34168 0
M  V30 13493 O 1268.39 0.803836 -1.59376 0
M  V30 13494 C 1265.49 1.43778 -3.06889 0
M  V30 13495 C 1264.66 0.920927 -4.27595 0
M  V30 13496 C 1263.72 1.93777 -4.89221 0
M  V30 13497 O 1262.75 1.5025 -5.49011 0
M  V30 13498 N 1263.95 3.2688 -4.79718 0
M  V30 13499 H 1266.71 -0.37028 -2.97404 0
M  V30 13500 H 1264.27 -0.343617 -1.58212 0
M  V30 13501 H 1266.27 2.11577 -3.44988 0
M  V30 13502 H 1264.84 2.01175 -2.39264 0
M  V30 13503 H 1264.06 0.0675358 -3.94142 0
M  V30 13504 H 1265.34 0.554168 -5.05773 0
M  V30 13505 H 1264.74 3.64924 -4.32258 0
M  V30 13506 H 1263.3 3.90366 -5.21974 0
M  V30 13507 N 1266.73 1.55688 -0.24474 0
M  V30 13508 C 1268.01 1.90796 0.430821 0
M  V30 13509 C 1268.39 1.1652 1.76029 0
M  V30 13510 O 1267.74 0.281978 2.26753 0
M  V30 13511 C 1267.95 3.43786 0.601027 0
M  V30 13512 C 1269.29 4.14998 0.897894 0
M  V30 13513 O 1270.32 3.49513 0.68697 0
M  V30 13514 O 1269.18 5.30826 1.29945 0
M  V30 13515 H 1266.27 0.794086 0.230991 0
M  V30 13516 H 1268.82 1.67227 -0.288646 0
M  V30 13517 H 1267.59 3.89856 -0.335804 0
M  V30 13518 H 1267.21 3.73211 1.37112 0
M  V30 13519 N 1268.21 -0.0283989 1.57574 0
M  V30 13520 C 1269.17 -1.01346 2.05576 0
M  V30 13521 C 1270.17 -1.28999 0.960001 0
M  V30 13522 O 1271.36 -1.23991 1.2236 0
M  V30 13523 C 1268.49 -2.34611 2.47327 0
M  V30 13524 H 1269.69 -0.598809 2.93861 0
M  V30 13525 H 1267.24 -0.27524 1.53857 0
M  V30 13526 H 1267.98 -2.80823 1.622 0
M  V30 13527 H 1267.76 -2.1587 3.27326 0
M  V30 13528 H 1269.25 -3.05332 2.84889 0
M  V30 13529 N 1269.69 -1.54705 -0.300681 0
M  V30 13530 C 1270.92 -1.77993 -1.0548 0
M  V30 13531 C 1271.33 -0.539574 -1.80926 0
M  V30 13532 O 1270.69 0.490597 -1.75782 0
M  V30 13533 C 1270.74 -2.98774 -2.0351 0
M  V30 13534 O 1270.46 -4.18016 -1.31126 0
M  V30 13535 C 1271.96 -3.34452 -2.90958 0
M  V30 13536 H 1269.18 -0.593628 -0.312805 0
M  V30 13537 H 1271.72 -2.01656 -0.339858 0
M  V30 13538 H 1269.88 -2.77318 -2.70506 0
M  V30 13539 H 1270.29 -4.86113 -1.96963 0
M  V30 13540 H 1271.77 -4.22206 -3.55593 0
M  V30 13541 H 1272.24 -2.52622 -3.59275 0
M  V30 13542 H 1272.85 -3.58069 -2.29493 0
M  V30 13543 N 1271.17 0.563888 -1.47167 0
M  V30 13544 C 1272.39 1.35176 -1.57297 0
M  V30 13545 C 1272.82 1.86794 -0.221235 0
M  V30 13546 O 1272.17 1.62606 0.801809 0
M  V30 13547 C 1272.22 2.50225 -2.59654 0
M  V30 13548 O 1271.33 3.5225 -2.14461 0
M  V30 13549 H 1270.67 0.401795 -0.528637 0
M  V30 13550 H 1273.2 0.682137 -1.92894 0
M  V30 13551 H 1273.21 2.96886 -2.79862 0
M  V30 13552 H 1271.88 2.1201 -3.57805 0
M  V30 13553 H 1270.46 3.1194 -2.04323 0
M  V30 13554 N 1272.64 1.35187 0.810078 0
M  V30 13555 C 1273.87 1.31371 1.59841 0
M  V30 13556 C 1274.29 -0.109547 1.88482 0
M  V30 13557 O 1273.64 -1.06047 1.48527 0
M  V30 13558 C 1273.7 2.11496 2.93175 0
M  V30 13559 O 1273.42 3.48273 2.65777 0
M  V30 13560 C 1274.92 2.15226 3.87547 0
M  V30 13561 H 1272.14 0.451428 0.496441 0
M  V30 13562 H 1274.68 1.7799 1.00697 0
M  V30 13563 H 1272.84 1.68486 3.48843 0
M  V30 13564 H 1273.25 3.89845 3.50886 0
M  V30 13565 H 1274.72 2.75687 4.78226 0
M  V30 13566 H 1275.2 1.15007 4.23875 0
M  V30 13567 H 1275.81 2.58382 3.37815 0
M  V30 13568 N 1274.12 -1.03182 1.19127 0
M  V30 13569 C 1275.37 -1.75934 0.986415 0
M  V30 13570 C 1275.68 -1.89519 -0.48392 0
M  V30 13571 O 1276.89 -2.59213 -0.80752 0
M  V30 13572 C 1275.35 -3.16358 1.71597 0
M  V30 13573 C 1274.95 -3.10836 3.22622 0
M  V30 13574 C 1276.7 -3.93426 1.59425 0
M  V30 13575 C 1274.61 -4.46174 3.88179 0
M  V30 13576 H 1273.54 -0.659516 0.365451 0
M  V30 13577 H 1276.19 -1.15497 1.42593 0
M  V30 13578 H 1274.57 -3.77245 1.20426 0
M  V30 13579 H 1275.74 -2.59348 3.80887 0
M  V30 13580 H 1274.06 -2.47266 3.35035 0
M  V30 13581 H 1276.65 -4.93526 2.05757 0
M  V30 13582 H 1277 -4.12678 0.547926 0
M  V30 13583 H 1277.53 -3.39134 2.07925 0
M  V30 13584 H 1274.27 -4.32126 4.92897 0
M  V30 13585 H 1273.79 -4.97729 3.34702 0
M  V30 13586 H 1275.47 -5.15066 3.91556 0
M  V30 13587 N 1275.6 -0.99472 -1.22242 0
M  V30 13588 C 1276.85 -0.667045 -1.90351 0
M  V30 13589 C 1277.16 0.804615 -1.78284 0
M  V30 13590 O 1278.37 1.24395 -2.41326 0
M  V30 13591 C 1276.82 -1.14256 -3.41282 0
M  V30 13592 C 1276.43 -2.63958 -3.61981 0
M  V30 13593 C 1278.18 -0.889302 -4.1508 0
M  V30 13594 C 1276.08 -3.05103 -5.06622 0
M  V30 13595 H 1275.01 -0.245795 -0.712812 0
M  V30 13596 H 1277.66 -1.20452 -1.38432 0
M  V30 13597 H 1276.05 -0.533203 -3.92394 0
M  V30 13598 H 1277.22 -3.30255 -3.21354 0
M  V30 13599 H 1275.54 -2.87186 -3.01518 0
M  V30 13600 H 1278.13 -1.17239 -5.21689 0
M  V30 13601 H 1278.48 0.174556 -4.15934 0
M  V30 13602 H 1279.01 -1.46095 -3.70002 0
M  V30 13603 H 1275.75 -4.10672 -5.1091 0
M  V30 13604 H 1275.27 -2.4351 -5.48145 0
M  V30 13605 H 1276.95 -2.96506 -5.75059 0
M  V30 13606 N 1277.08 1.37613 -0.768148 0
M  V30 13607 C 1278.3 2.04579 -0.340892 0
M  V30 13608 C 1278.73 1.57556 1.02751 0
M  V30 13609 O 1278.09 0.734151 1.65771 0
M  V30 13610 C 1278.13 3.58495 -0.389099 0
M  V30 13611 O 1277.24 4.07838 0.611741 0
M  V30 13612 H 1276.58 0.647246 -0.148216 0
M  V30 13613 H 1279.11 1.75999 -1.04333 0
M  V30 13614 H 1279.12 4.07263 -0.245116 0
M  V30 13615 H 1277.79 3.92076 -1.38742 0
M  V30 13616 H 1276.37 3.70399 0.431173 0
M  V30 13617 N 1278.56 0.518393 1.4883 0
M  V30 13618 C 1279.81 -0.0218436 2.01688 0
M  V30 13619 C 1280.12 -1.36421 1.40174 0
M  V30 13620 O 1281.32 -1.99214 1.84461 0
M  V30 13621 C 1279.78 -0.0893538 3.59789 0
M  V30 13622 C 1279.39 1.24741 4.30283 0
M  V30 13623 C 1281.13 -0.579032 4.20532 0
M  V30 13624 C 1279.04 1.14112 5.80286 0
M  V30 13625 H 1277.97 -0.0119353 0.753906 0
M  V30 13626 H 1280.62 0.660432 1.71203 0
M  V30 13627 H 1279 -0.836458 3.87065 0
M  V30 13628 H 1280.18 2.00917 4.14691 0
M  V30 13629 H 1278.49 1.67191 3.81361 0
M  V30 13630 H 1281.09 -0.676343 5.30405 0
M  V30 13631 H 1281.43 -1.58207 3.85067 0
M  V30 13632 H 1281.96 0.112046 3.97642 0
M  V30 13633 H 1278.7 2.11895 6.20307 0
M  V30 13634 H 1278.22 0.420535 5.98324 0
M  V30 13635 H 1279.9 0.826992 6.41693 0
M  V30 13636 N 1280.03 -1.55556 0.252993 0
M  V30 13637 C 1281.26 -2.03491 -0.374022 0
M  V30 13638 C 1281.68 -1.13208 -1.51094 0
M  V30 13639 O 1281.03 -0.147705 -1.81901 0
M  V30 13640 C 1281.09 -3.50724 -0.876047 0
M  V30 13641 O 1280.81 -4.37569 0.215574 0
M  V30 13642 C 1282.31 -4.14448 -1.57313 0
M  V30 13643 H 1279.53 -0.665183 -0.0881644 0
M  V30 13644 H 1282.07 -2.00964 0.378636 0
M  V30 13645 H 1280.23 -3.53766 -1.57886 0
M  V30 13646 H 1280.64 -5.24235 -0.166625 0
M  V30 13647 H 1282.11 -5.19142 -1.87606 0
M  V30 13648 H 1282.59 -3.61299 -2.49719 0
M  V30 13649 H 1283.2 -4.15346 -0.914735 0
M  V30 13650 N 1281.51 0.0200419 -1.57587 0
M  V30 13651 C 1282.46 1.0362 -2.08244 0
M  V30 13652 C 1283.45 1.36872 -0.998119 0
M  V30 13653 O 1284.66 1.35671 -1.18293 0
M  V30 13654 H 1281.04 0.351731 -0.664673 0
M  V30 13655 H 1283.01 0.583226 -2.92645 0
M  V30 13656 C 1281.76 2.32574 -2.58466 0
M  V30 13657 H 1281.08 2.0785 -3.41523 0
M  V30 13658 H 1282.52 3.02 -2.97611 0
M  V30 13659 C 1280.98 3.02167 -1.48986 0
M  V30 13660 O 1281.51 3.92359 -0.861251 0
M  V30 13661 N 1279.71 2.63649 -1.22219 0
M  V30 13662 H 1279.26 1.90389 -1.73521 0
M  V30 13663 H 1279.22 3.10529 -0.491828 0
M  V30 13664 N 1282.99 1.54862 0.292472 0
M  V30 13665 C 1283.94 1.87168 1.38097 0
M  V30 13666 C 1284.93 0.746176 1.52081 0
M  V30 13667 O 1286.14 0.930281 1.54097 0
M  V30 13668 H 1282.51 0.593769 0.461456 0
M  V30 13669 H 1284.48 2.78135 1.0809 0
M  V30 13670 C 1283.23 2.14315 2.73796 0
M  V30 13671 H 1282.56 3.00398 2.63821 0
M  V30 13672 H 1284 2.40853 3.48949 0
M  V30 13673 C 1282.46 0.944424 3.23392 0
M  V30 13674 O 1282.99 0.169208 4.01343 0
M  V30 13675 N 1281.19 0.747456 2.80823 0
M  V30 13676 H 1280.74 1.37953 2.17547 0
M  V30 13677 H 1280.7 -0.0530199 3.14355 0
M  V30 13678 N 1284.47 -0.556076 1.47464 0
M  V30 13679 C 1285.71 -1.31515 1.54375 0
M  V30 13680 C 1286.05 -1.93106 0.205837 0
M  V30 13681 O 1285.32 -1.77927 -0.785643 0
M  V30 13682 C 1285.61 -2.4244 2.66261 0
M  V30 13683 C 1285.46 -1.8571 4.09673 0
M  V30 13684 C 1286.78 -3.4436 2.74051 0
M  V30 13685 H 1283.9 -0.476817 0.561974 0
M  V30 13686 H 1286.54 -0.622157 1.79525 0
M  V30 13687 H 1284.69 -3.01551 2.44948 0
M  V30 13688 H 1286.36 -1.30851 4.42353 0
M  V30 13689 H 1284.6 -1.16379 4.17898 0
M  V30 13690 H 1285.27 -2.65904 4.83735 0
M  V30 13691 H 1287.75 -2.95169 2.93282 0
M  V30 13692 H 1286.63 -4.194 3.54111 0
M  V30 13693 H 1286.89 -4.03281 1.81155 0
M  V30 13694 N 1285.95 -1.35615 -0.802897 0
M  V30 13695 C 1287.2 -1.28428 -1.55528 0
M  V30 13696 C 1287.51 0.138275 -1.95111 0
M  V30 13697 O 1288.72 0.332435 -2.69457 0
M  V30 13698 C 1287.17 -2.25251 -2.80696 0
M  V30 13699 C 1286.78 -3.72871 -2.48336 0
M  V30 13700 C 1288.52 -2.27014 -3.58699 0
M  V30 13701 C 1286.43 -4.61507 -3.69817 0
M  V30 13702 H 1285.36 -0.47718 -0.583794 0
M  V30 13703 H 1288.01 -1.609 -0.882238 0
M  V30 13704 H 1286.39 -1.85755 -3.4973 0
M  V30 13705 H 1287.57 -4.21024 -1.87285 0
M  V30 13706 H 1285.88 -3.73752 -1.83571 0
M  V30 13707 H 1288.48 -2.90451 -4.48935 0
M  V30 13708 H 1288.82 -1.27491 -3.96298 0
M  V30 13709 H 1289.36 -2.65058 -2.9663 0
M  V30 13710 H 1286.09 -5.62043 -3.37324 0
M  V30 13711 H 1285.61 -4.18079 -4.30081 0
M  V30 13712 H 1287.29 -4.77113 -4.37004 0
M  V30 13713 N 1287.43 1.02549 -1.19673 0
M  V30 13714 C 1288.67 1.75656 -0.999463 0
M  V30 13715 C 1288.99 1.89238 0.470517 0
M  V30 13716 O 1288.26 1.42843 1.34062 0
M  V30 13717 H 1286.84 0.650732 -0.366821 0
M  V30 13718 H 1289.51 1.23684 -1.50627 0
M  V30 13719 H 1288.6 2.76353 -1.45035 0
M  V30 13720 N 1288.9 1.00119 1.21713 0
M  V30 13721 C 1289.84 0.516633 2.23301 0
M  V30 13722 C 1290.85 -0.392732 1.57992 0
M  V30 13723 O 1292.04 -0.19354 1.77448 0
M  V30 13724 C 1289.14 -0.269612 3.37826 0
M  V30 13725 C 1288.31 0.637898 4.32723 0
M  V30 13726 C 1287.37 -0.0980745 5.26109 0
M  V30 13727 O 1286.4 0.519302 5.66826 0
M  V30 13728 N 1287.6 -1.37783 5.63911 0
M  V30 13729 H 1290.36 1.39022 2.65505 0
M  V30 13730 H 1287.92 0.87688 1.36097 0
M  V30 13731 H 1289.92 -0.770826 3.97291 0
M  V30 13732 H 1288.49 -1.04436 2.94638 0
M  V30 13733 H 1287.71 1.31966 3.71455 0
M  V30 13734 H 1288.99 1.25564 4.93063 0
M  V30 13735 H 1288.39 -1.90061 5.32817 0
M  V30 13736 H 1286.95 -1.82407 6.25756 0
M  V30 13737 N 1290.38 -1.37203 0.775435 0
M  V30 13738 C 1291.63 -1.99207 0.340756 0
M  V30 13739 C 1291.95 -1.61861 -1.08747 0
M  V30 13740 O 1291.22 -0.88583 -1.74728 0
M  V30 13741 H 1289.8 -0.736803 0.123004 0
M  V30 13742 H 1292.46 -1.67625 0.994379 0
M  V30 13743 H 1291.56 -3.09243 0.421346 0
M  V30 13744 N 1291.86 -0.526279 -1.48553 0
M  V30 13745 C 1292.79 0.227364 -2.3239 0
M  V30 13746 C 1293.77 0.93862 -1.41859 0
M  V30 13747 O 1294.96 0.925119 -1.70749 0
M  V30 13748 C 1292.09 1.277 -3.22971 0
M  V30 13749 C 1291.04 0.684107 -4.22497 0
M  V30 13750 C 1290.37 1.83612 -5.02186 0
M  V30 13751 C 1291.67 -0.341723 -5.21181 0
M  V30 13752 H 1293.36 -0.472486 -2.95648 0
M  V30 13753 H 1290.91 -0.228669 -1.42173 0
M  V30 13754 H 1292.86 1.81215 -3.80446 0
M  V30 13755 H 1291.58 2.00638 -2.57705 0
M  V30 13756 H 1290.24 0.170505 -3.66203 0
M  V30 13757 H 1289.89 2.55379 -4.33348 0
M  V30 13758 H 1289.59 1.44536 -5.69547 0
M  V30 13759 H 1291.11 2.37513 -5.62512 0
M  V30 13760 H 1292.53 0.106207 -5.73202 0
M  V30 13761 H 1290.92 -0.649673 -5.96573 0
M  V30 13762 H 1291.99 -1.2488 -4.68543 0
M  V30 13763 N 1293.34 1.5542 -0.261239 0
M  V30 13764 C 1294.58 1.99579 0.36002 0
M  V30 13765 C 1294.92 1.14933 1.56538 0
M  V30 13766 O 1294.19 0.216082 1.93296 0
M  V30 13767 C 1294.47 3.52078 0.755842 0
M  V30 13768 C 1294.33 4.47484 -0.455896 0
M  V30 13769 C 1295.65 4.10083 1.5975 0
M  V30 13770 H 1292.77 0.725554 0.129385 0
M  V30 13771 H 1295.41 1.86453 -0.365415 0
M  V30 13772 H 1293.56 3.63394 1.37393 0
M  V30 13773 H 1295.23 4.4813 -1.09441 0
M  V30 13774 H 1293.47 4.19714 -1.09646 0
M  V30 13775 H 1294.14 5.51834 -0.13539 0
M  V30 13776 H 1296.62 4.01957 1.07562 0
M  V30 13777 H 1295.5 5.17024 1.84329 0
M  V30 13778 H 1295.76 3.59438 2.57404 0
M  V30 13779 N 1294.82 -0.0116844 1.57596 0
M  V30 13780 C 1296.06 -0.694423 1.91179 0
M  V30 13781 C 1296.42 -1.72025 0.861703 0
M  V30 13782 O 1295.71 -1.91175 -0.127545 0
M  V30 13783 C 1295.9 -1.38985 3.29269 0
M  V30 13784 C 1295.73 -0.432902 4.47611 0
M  V30 13785 C 1294.5 -0.0475684 5.05278 0
M  V30 13786 C 1296.7 0.296001 5.13447 0
M  V30 13787 N 1294.68 0.908817 6.07136 0
M  V30 13788 C 1296.05 1.10746 6.10029 0
M  V30 13789 C 1298.11 0.361088 4.96589 0
M  V30 13790 C 1296.81 1.97805 6.91568 0
M  V30 13791 C 1298.84 1.21887 5.78703 0
M  V30 13792 C 1298.2 2.0182 6.74869 0
M  V30 13793 H 1294.3 -0.227668 0.748125 0
M  V30 13794 H 1296.88 0.0459176 1.94646 0
M  V30 13795 H 1295.05 -2.10055 3.26698 0
M  V30 13796 H 1296.79 -2.02636 3.50315 0
M  V30 13797 H 1293.54 -0.413466 4.71792 0
M  V30 13798 H 1293.96 1.38203 6.62743 0
M  V30 13799 H 1298.61 -0.242613 4.22103 0
M  V30 13800 H 1296.32 2.59248 7.65386 0
M  V30 13801 H 1299.91 1.27299 5.67703 0
M  V30 13802 H 1298.79 2.67121 7.37303 0
M  V30 13803 N 1296.29 -1.55015 -0.284256 0
M  V30 13804 C 1297.57 -1.6579 -1.03794 0
M  V30 13805 C 1297.95 -0.517029 -2.04671 0
M  V30 13806 O 1297.3 0.484287 -2.23309 0
M  V30 13807 C 1297.51 -3.04527 -1.70483 0
M  V30 13808 C 1298.86 -3.61903 -2.22062 0
M  V30 13809 O 1299.88 -3.07087 -1.80488 0
M  V30 13810 O 1298.74 -4.57917 -2.98286 0
M  V30 13811 H 1295.83 -0.672906 -0.480757 0
M  V30 13812 H 1298.38 -1.67357 -0.281009 0
M  V30 13813 H 1297.15 -3.79004 -0.973238 0
M  V30 13814 H 1296.77 -3.0681 -2.5289 0
M  V30 13815 N 1297.77 0.548248 -1.47757 0
M  V30 13816 C 1299.02 1.30501 -1.54841 0
M  V30 13817 C 1299.35 1.93314 -0.214476 0
M  V30 13818 O 1298.6 1.7889 0.793526 0
M  V30 13819 C 1298.9 2.42911 -2.62162 0
M  V30 13820 C 1298.57 1.97871 -4.05164 0
M  V30 13821 C 1297.23 1.85304 -4.4409 0
M  V30 13822 C 1299.58 1.63606 -4.94856 0
M  V30 13823 C 1296.91 1.36781 -5.70533 0
M  V30 13824 C 1299.26 1.16552 -6.2177 0
M  V30 13825 C 1297.92 1.02588 -6.5957 0
M  V30 13826 H 1297.19 0.477536 -0.566604 0
M  V30 13827 H 1299.84 0.613837 -1.81395 0
M  V30 13828 H 1298.15 3.17622 -2.29398 0
M  V30 13829 H 1299.84 3.01078 -2.64864 0
M  V30 13830 H 1296.43 2.08597 -3.74413 0
M  V30 13831 H 1300.62 1.72184 -4.65474 0
M  V30 13832 H 1295.87 1.24641 -5.9856 0
M  V30 13833 H 1300.05 0.891041 -6.90676 0
M  V30 13834 H 1297.67 0.647675 -7.57436 0
M  V30 13835 N 1299.25 1.36039 0.795694 0
M  V30 13836 C 1300.5 1.30112 1.5556 0
M  V30 13837 C 1300.83 -0.121197 1.93821 0
M  V30 13838 O 1300.1 -1.07313 1.62216 0
M  V30 13839 C 1300.39 2.21792 2.8369 0
M  V30 13840 C 1300.24 3.72691 2.51836 0
M  V30 13841 C 1301.56 2.12365 3.85472 0
M  V30 13842 H 1298.68 0.473971 0.564376 0
M  V30 13843 H 1301.32 1.66536 0.91465 0
M  V30 13844 H 1299.47 1.9086 3.38386 0
M  V30 13845 H 1301.14 4.14115 2.0324 0
M  V30 13846 H 1299.38 3.92436 1.84869 0
M  V30 13847 H 1300.06 4.32242 3.43323 0
M  V30 13848 H 1302.53 2.3958 3.40207 0
M  V30 13849 H 1301.41 2.78695 4.72885 0
M  V30 13850 H 1301.67 1.10898 4.27965 0
M  V30 13851 N 1300.73 -1.01913 1.20215 0
M  V30 13852 C 1301.66 -2.10513 0.906476 0
M  V30 13853 C 1302.67 -1.62463 -0.104758 0
M  V30 13854 O 1303.86 -1.78055 0.12593 0
M  V30 13855 C 1300.96 -3.3722 0.337012 0
M  V30 13856 C 1300.14 -4.14417 1.39917 0
M  V30 13857 C 1299.19 -5.19428 0.841489 0
M  V30 13858 O 1298.22 -5.48486 1.52157 0
M  V30 13859 N 1299.42 -5.79442 -0.350365 0
M  V30 13860 H 1302.19 -2.36465 1.84132 0
M  V30 13861 H 1299.75 -1.18283 1.10548 0
M  V30 13862 H 1301.74 -4.04669 -0.0501507 0
M  V30 13863 H 1300.31 -3.08538 -0.502325 0
M  V30 13864 H 1299.53 -3.41975 1.96078 0
M  V30 13865 H 1300.82 -4.62777 2.1146 0
M  V30 13866 H 1300.22 -5.58166 -0.920204 0
M  V30 13867 H 1298.77 -6.48252 -0.679194 0
M  V30 13868 N 1302.21 -1.00763 -1.2118 0
M  V30 13869 C 1303.43 -0.710515 -1.9485 0
M  V30 13870 C 1303.86 0.720934 -1.73736 0
M  V30 13871 O 1303.21 1.49484 -1.02588 0
M  V30 13872 C 1303.26 -1.04035 -3.45267 0
M  V30 13873 O 1302.37 -0.147047 -4.12138 0
M  V30 13874 H 1301.71 -0.264472 -0.609057 0
M  V30 13875 H 1304.24 -1.34858 -1.53865 0
M  V30 13876 H 1304.25 -0.9883 -3.95849 0
M  V30 13877 H 1302.92 -2.08334 -3.59958 0
M  V30 13878 H 1301.5 -0.255847 -3.72021 0
M  V30 13879 N 1303.68 1.3679 -0.7827 0
M  V30 13880 C 1304.63 2.32019 -0.164358 0
M  V30 13881 C 1305.63 1.55476 0.672571 0
M  V30 13882 O 1306.83 1.7079 0.568406 0
M  V30 13883 H 1303.21 0.751214 -0.0343697 0
M  V30 13884 H 1305.18 2.81741 -0.983077 0
M  V30 13885 C 1303.93 3.4075 0.691727 0
M  V30 13886 H 1303.25 3.99759 0.0570885 0
M  V30 13887 H 1304.69 4.09719 1.09117 0
M  V30 13888 C 1303.15 2.81753 1.84708 0
M  V30 13889 O 1303.68 2.73378 2.94325 0
M  V30 13890 N 1301.89 2.39138 1.6511 0
M  V30 13891 H 1301.43 2.46149 0.759487 0
M  V30 13892 H 1301.39 2.0001 2.42576 0
M  V30 13893 N 1305.16 0.53415 1.48272 0
M  V30 13894 C 1306.41 0.00971554 2.03398 0
M  V30 13895 C 1306.76 -1.316 1.40353 0
M  V30 13896 O 1306.06 -1.83786 0.541589 0
M  V30 13897 C 1306.25 -0.165144 3.57018 0
M  V30 13898 C 1306.08 1.14208 4.34956 0
M  V30 13899 C 1304.85 1.70309 4.75734 0
M  V30 13900 C 1307.05 2.05371 4.71516 0
M  V30 13901 N 1305.03 2.95276 5.38224 0
M  V30 13902 C 1306.4 3.14915 5.34068 0
M  V30 13903 C 1308.46 2.05647 4.53447 0
M  V30 13904 C 1307.16 4.24804 5.8046 0
M  V30 13905 C 1309.18 3.14533 5.00823 0
M  V30 13906 C 1308.55 4.22795 5.63404 0
M  V30 13907 H 1304.65 0.0451562 0.780695 0
M  V30 13908 H 1307.23 0.71635 1.81043 0
M  V30 13909 H 1305.4 -0.840869 3.79189 0
M  V30 13910 H 1307.13 -0.68956 3.98782 0
M  V30 13911 H 1303.89 1.24395 4.56971 0
M  V30 13912 H 1304.31 3.58911 5.74031 0
M  V30 13913 H 1308.95 1.23239 4.0444 0
M  V30 13914 H 1306.67 5.07987 6.2847 0
M  V30 13915 H 1310.26 3.15806 4.88629 0
M  V30 13916 H 1309.14 5.05661 5.99397 0
M  V30 13917 N 1306.64 -1.55279 0.269478 0
M  V30 13918 C 1307.59 -2.22304 -0.620435 0
M  V30 13919 C 1308.56 -1.19457 -1.15409 0
M  V30 13920 O 1309.74 -1.4798 -1.20443 0
M  V30 13921 C 1306.88 -2.94356 -1.80134 0
M  V30 13922 C 1306 -4.1191 -1.30207 0
M  V30 13923 C 1305.13 -4.71621 -2.44433 0
M  V30 13924 C 1304.17 -5.81379 -1.91481 0
M  V30 13925 N 1303.31 -6.35176 -2.99158 0
M  V30 13926 H 1308.15 -2.9797 -0.0422165 0
M  V30 13927 H 1305.68 -1.47097 -0.00907173 0
M  V30 13928 H 1307.64 -3.34343 -2.4954 0
M  V30 13929 H 1306.27 -2.21124 -2.35168 0
M  V30 13930 H 1305.32 -3.77082 -0.501301 0
M  V30 13931 H 1306.64 -4.9108 -0.874183 0
M  V30 13932 H 1305.79 -5.14298 -3.21842 0
M  V30 13933 H 1304.53 -3.91715 -2.90535 0
M  V30 13934 H 1303.53 -5.38157 -1.12549 0
M  V30 13935 H 1304.76 -6.63149 -1.46322 0
M  V30 13936 H 1302.7 -5.58167 -3.44652 0
M  V30 13937 H 1302.62 -7.09602 -2.60769 0
M  V30 13938 H 1303.89 -6.82512 -3.7656 0
M  V30 13939 N 1308.12 0.00332656 -1.576 0
M  V30 13940 C 1309.07 0.99581 -2.08212 0
M  V30 13941 C 1310.04 1.34342 -0.976804 0
M  V30 13942 O 1311.22 1.44236 -1.24902 0
M  V30 13943 C 1308.36 2.2836 -2.58739 0
M  V30 13944 C 1307.47 1.99531 -3.8316 0
M  V30 13945 C 1306.61 3.22367 -4.222 0
M  V30 13946 C 1305.65 2.89209 -5.39467 0
M  V30 13947 N 1304.78 4.04572 -5.73817 0
M  V30 13948 H 1309.62 0.55727 -2.92743 0
M  V30 13949 H 1307.16 0.263513 -1.4472 0
M  V30 13950 H 1309.12 3.03639 -2.86111 0
M  V30 13951 H 1307.75 2.69889 -1.77087 0
M  V30 13952 H 1306.8 1.14634 -3.62716 0
M  V30 13953 H 1308.11 1.71089 -4.6854 0
M  V30 13954 H 1307.27 4.05994 -4.50837 0
M  V30 13955 H 1306.01 3.53944 -3.35522 0
M  V30 13956 H 1305.01 2.03989 -5.10557 0
M  V30 13957 H 1306.24 2.58883 -6.27819 0
M  V30 13958 H 1304.18 4.36052 -4.90096 0
M  V30 13959 H 1304.1 3.79643 -6.53764 0
M  V30 13960 H 1305.37 4.88998 -6.07043 0
M  V30 13961 N 1309.6 1.55164 0.276031 0
M  V30 13962 C 1310.53 1.90844 1.34539 0
M  V30 13963 C 1311.51 0.769968 1.51676 0
M  V30 13964 O 1312.69 1.02785 1.64769 0
M  V30 13965 C 1309.82 2.17769 2.70543 0
M  V30 13966 C 1308.78 3.33592 2.68142 0
M  V30 13967 C 1308.1 3.45991 4.07669 0
M  V30 13968 C 1309.4 4.70064 2.27678 0
M  V30 13969 H 1311.1 2.80412 1.04926 0
M  V30 13970 H 1308.64 1.34918 0.503303 0
M  V30 13971 H 1310.6 2.41317 3.45462 0
M  V30 13972 H 1309.32 1.24997 3.01734 0
M  V30 13973 H 1307.98 3.10007 1.95681 0
M  V30 13974 H 1307.63 2.50691 4.36077 0
M  V30 13975 H 1307.33 4.23862 4.06958 0
M  V30 13976 H 1308.85 3.71828 4.84331 0
M  V30 13977 H 1310.26 4.93176 2.92319 0
M  V30 13978 H 1308.66 5.50829 2.38134 0
M  V30 13979 H 1309.73 4.69091 1.22808 0
M  V30 13980 N 1311.07 -0.540404 1.48045 0
M  V30 13981 C 1312.32 -1.29678 1.55531 0
M  V30 13982 C 1312.65 -1.93197 0.224725 0
M  V30 13983 O 1311.9 -1.79308 -0.784028 0
M  V30 13984 C 1312.2 -2.41517 2.63447 0
M  V30 13985 C 1311.87 -1.95719 4.06208 0
M  V30 13986 C 1310.53 -1.82946 4.45067 0
M  V30 13987 C 1312.88 -1.6098 4.95717 0
M  V30 13988 C 1310.21 -1.33753 5.7125 0
M  V30 13989 C 1312.56 -1.13253 6.2238 0
M  V30 13990 C 1311.23 -0.990886 6.60104 0
M  V30 13991 H 1310.5 -0.474525 0.569129 0
M  V30 13992 H 1313.14 -0.604209 1.81718 0
M  V30 13993 H 1311.45 -3.16401 2.3108 0
M  V30 13994 H 1313.15 -2.9967 2.66457 0
M  V30 13995 H 1309.74 -2.06609 3.75514 0
M  V30 13996 H 1313.92 -1.69713 4.66381 0
M  V30 13997 H 1309.18 -1.21465 5.99213 0
M  V30 13998 H 1313.35 -0.854401 6.91139 0
M  V30 13999 H 1310.98 -0.607497 7.57769 0
M  V30 14000 N 1312.55 -1.36459 -0.788468 0
M  V30 14001 C 1313.5 -1.30924 -1.92254 0
M  V30 14002 C 1314.49 -0.200866 -1.68205 0
M  V30 14003 O 1315.7 -0.367927 -1.762 0
M  V30 14004 H 1312.08 -0.407609 -0.631949 0
M  V30 14005 H 1314.05 -2.26695 -1.94041 0
M  V30 14006 C 1312.8 -1.11635 -3.29292 0
M  V30 14007 H 1312.12 -1.96168 -3.48365 0
M  V30 14008 H 1313.56 -1.11808 -4.08993 0
M  V30 14009 C 1312.02 0.178963 -3.36424 0
M  V30 14010 O 1312.55 1.16846 -3.8433 0
M  V30 14011 N 1310.75 0.223962 -2.89736 0
M  V30 14012 H 1310.3 -0.581888 -2.50942 0
M  V30 14013 H 1310.26 1.0903 -2.94889 0
M  V30 14014 N 1314.03 1.01274 -1.20754 0
M  V30 14015 C 1315.31 1.7213 -0.929008 0
M  V30 14016 C 1315.69 2.03503 0.561217 0
M  V30 14017 O 1315.04 1.70259 1.52395 0
M  V30 14018 C 1315.25 2.98636 -1.80603 0
M  V30 14019 C 1316.59 3.71823 -2.0502 0
M  V30 14020 O 1317.62 3.08601 -1.77888 0
M  V30 14021 O 1316.48 4.8552 -2.50864 0
M  V30 14022 H 1313.57 0.750361 -0.347689 0
M  V30 14023 H 1316.12 1.07086 -1.31646 0
M  V30 14024 H 1314.89 2.71803 -2.81494 0
M  V30 14025 H 1314.51 3.7142 -1.4189 0
M  V30 14026 N 1315.51 1.01404 1.20644 0
M  V30 14027 C 1316.74 0.719995 1.93648 0
M  V30 14028 C 1317.15 -0.722872 1.74846 0
M  V30 14029 O 1316.49 -1.50172 1.05802 0
M  V30 14030 C 1316.55 0.972637 3.46092 0
M  V30 14031 C 1316.22 2.40412 3.88653 0
M  V30 14032 C 1317.21 3.38481 3.94622 0
M  V30 14033 C 1314.9 2.74418 4.20714 0
M  V30 14034 C 1316.89 4.68619 4.32059 0
M  V30 14035 C 1314.58 4.04769 4.57826 0
M  V30 14036 C 1315.58 5.01681 4.63471 0
M  V30 14037 O 1315.27 6.297 4.99733 0
M  V30 14038 H 1315 0.263849 0.622382 0
M  V30 14039 H 1317.55 1.35741 1.54154 0
M  V30 14040 H 1315.78 0.278057 3.85699 0
M  V30 14041 H 1317.47 0.670572 4.00323 0
M  V30 14042 H 1318.24 3.13545 3.7002 0
M  V30 14043 H 1314.12 1.99675 4.15513 0
M  V30 14044 H 1317.66 5.4426 4.3638 0
M  V30 14045 H 1313.56 4.29486 4.81884 0
M  V30 14046 H 1314.32 6.3395 5.17735 0
M  V30 14047 N 1316.99 -1.36373 0.789944 0
M  V30 14048 C 1318.24 -1.98834 0.361866 0
M  V30 14049 C 1318.56 -1.63006 -1.07024 0
M  V30 14050 O 1317.83 -0.904312 -1.73779 0
M  V30 14051 H 1316.41 -0.735457 0.130812 0
M  V30 14052 H 1319.07 -1.66561 1.0121 0
M  V30 14053 H 1318.16 -3.08778 0.454122 0
M  V30 14054 N 1318.47 -0.542005 -1.47987 0
M  V30 14055 C 1319.71 -0.0122873 -2.02096 0
M  V30 14056 C 1320.03 1.3362 -1.42024 0
M  V30 14057 O 1319.3 1.86807 -0.589911 0
M  V30 14058 H 1317.88 -0.00155365 -0.746998 0
M  V30 14059 H 1320.55 -0.708566 -1.81564 0
M  V30 14060 H 1319.64 0.0871275 -3.11978 0
M  V30 14061 N 1319.94 1.55134 -0.277709 0
M  V30 14062 C 1321.19 1.99259 0.337662 0
M  V30 14063 C 1321.51 1.16755 1.56183 0
M  V30 14064 O 1320.78 0.257707 1.94198 0
M  V30 14065 H 1319.36 0.735995 0.127751 0
M  V30 14066 H 1322.02 1.91087 -0.383646 0
M  V30 14067 H 1321.12 3.05763 0.625747 0
M  V30 14068 N 1321.42 0.00503138 1.57599 0
M  V30 14069 C 1322.65 -0.693231 1.95471 0
M  V30 14070 C 1323.07 -1.66233 0.880246 0
M  V30 14071 O 1322.43 -1.80582 -0.161164 0
M  V30 14072 C 1322.48 -1.39696 3.32442 0
M  V30 14073 O 1321.58 -2.51154 3.27101 0
M  V30 14074 H 1320.92 -0.184015 0.637992 0
M  V30 14075 H 1323.45 0.0597194 2.04513 0
M  V30 14076 H 1323.46 -1.75924 3.68123 0
M  V30 14077 H 1322.14 -0.686438 4.10196 0
M  V30 14078 H 1320.71 -2.17216 3.03103 0
M  V30 14079 N 1322.9 -1.55308 -0.267798 0
M  V30 14080 C 1324.15 -1.76159 -0.998707 0
M  V30 14081 C 1324.47 -0.565573 -1.86095 0
M  V30 14082 O 1323.73 0.45178 -1.90414 0
M  V30 14083 C 1324.03 -3.02286 -1.90678 0
M  V30 14084 C 1323.69 -4.34594 -1.20161 0
M  V30 14085 C 1322.36 -4.70553 -1.00664 0
M  V30 14086 C 1324.71 -5.16475 -0.7002 0
M  V30 14087 C 1322.04 -5.85945 -0.297629 0
M  V30 14088 C 1324.39 -6.326 -0.00475187 0
M  V30 14089 C 1323.05 -6.67195 0.20188 0
M  V30 14090 H 1322.32 -0.644613 -0.365453 0
M  V30 14091 H 1324.97 -1.89579 -0.270545 0
M  V30 14092 H 1323.27 -2.83788 -2.70133 0
M  V30 14093 H 1324.97 -3.15615 -2.47362 0
M  V30 14094 H 1321.56 -4.06334 -1.36348 0
M  V30 14095 H 1325.75 -4.89167 -0.838435 0
M  V30 14096 H 1321 -6.11268 -0.126864 0
M  V30 14097 H 1325.18 -6.95299 0.39151 0
M  V30 14098 H 1322.8 -7.56459 0.753252 0
M  V30 14099 N 1324.38 0.532545 -1.4833 0
M  V30 14100 C 1325.6 1.31809 -1.60129 0
M  V30 14101 C 1326.03 1.86283 -0.260807 0
M  V30 14102 O 1325.39 1.6427 0.767137 0
M  V30 14103 C 1325.43 2.44661 -2.64903 0
M  V30 14104 O 1324.54 3.47622 -2.21885 0
M  V30 14105 H 1323.88 0.390492 -0.53704 0
M  V30 14106 H 1326.41 0.641068 -1.94297 0
M  V30 14107 H 1326.42 2.90883 -2.86096 0
M  V30 14108 H 1325.09 2.04373 -3.62222 0
M  V30 14109 H 1323.67 3.07536 -2.10894 0
M  V30 14110 N 1325.86 1.36875 0.78122 0
M  V30 14111 C 1327.1 1.31559 1.53943 0
M  V30 14112 C 1327.43 -0.10273 1.94229 0
M  V30 14113 O 1326.69 -1.07386 1.63605 0
M  V30 14114 C 1326.98 2.19173 2.82309 0
M  V30 14115 C 1326.65 3.67595 2.61121 0
M  V30 14116 C 1325.31 4.08047 2.55051 0
M  V30 14117 C 1327.66 4.61665 2.41898 0
M  V30 14118 C 1324.99 5.40697 2.27736 0
M  V30 14119 C 1327.34 5.94542 2.16108 0
M  V30 14120 C 1326.01 6.34109 2.08476 0
M  V30 14121 H 1325.28 0.48141 0.563317 0
M  V30 14122 H 1327.93 1.68999 0.900638 0
M  V30 14123 H 1326.23 1.74696 3.50697 0
M  V30 14124 H 1327.93 2.12379 3.40141 0
M  V30 14125 H 1324.52 3.35509 2.66705 0
M  V30 14126 H 1328.7 4.3128 2.45584 0
M  V30 14127 H 1323.96 5.70325 2.20315 0
M  V30 14128 H 1328.13 6.66994 2.0023 0
M  V30 14129 H 1325.76 7.36823 1.87073 0
M  V30 14130 N 1327.33 -1.00632 1.21289 0
M  V30 14131 C 1328.56 -1.78503 1.05601 0
M  V30 14132 C 1328.98 -1.84015 -0.389879 0
M  V30 14133 O 1328.34 -1.28277 -1.2812 0
M  V30 14134 C 1328.39 -3.20313 1.65626 0
M  V30 14135 O 1327.49 -4.02441 0.900841 0
M  V30 14136 H 1326.83 -0.550183 0.371746 0
M  V30 14137 H 1329.36 -1.26505 1.60803 0
M  V30 14138 H 1329.37 -3.70992 1.69792 0
M  V30 14139 H 1328.05 -3.15616 2.7085 0
M  V30 14140 H 1326.63 -3.61009 0.934178 0
M  V30 14141 N 1328.81 -1.02043 -1.20104 0
M  V30 14142 C 1329.76 -0.587332 -2.25063 0
M  V30 14143 C 1330.75 0.375844 -1.65178 0
M  V30 14144 O 1331.96 0.245347 -1.7832 0
M  V30 14145 H 1328.33 -0.171637 -0.732151 0
M  V30 14146 H 1330.31 -1.48339 -2.58917 0
M  V30 14147 C 1329.05 0.0546893 -3.47657 0
M  V30 14148 H 1328.38 -0.677457 -3.94018 0
M  V30 14149 H 1329.82 0.320786 -4.22785 0
M  V30 14150 C 1328.28 1.29869 -3.10863 0
M  V30 14151 O 1328.81 2.39161 -3.22746 0
M  V30 14152 N 1327.01 1.18423 -2.65376 0
M  V30 14153 H 1326.56 0.294895 -2.55906 0
M  V30 14154 H 1326.52 2.01755 -2.41128 0
M  V30 14155 N 1330.29 1.35952 -0.797165 0
M  V30 14156 C 1331.22 2.32506 -0.215277 0
M  V30 14157 C 1332.2 1.57023 0.654046 0
M  V30 14158 O 1333.39 1.85139 0.586268 0
M  V30 14159 C 1330.52 3.41266 0.644557 0
M  V30 14160 C 1329.47 4.27816 -0.125501 0
M  V30 14161 C 1328.8 5.27813 0.855428 0
M  V30 14162 C 1330.1 5.05367 -1.31913 0
M  V30 14163 H 1331.79 2.8142 -1.02193 0
M  V30 14164 H 1329.34 1.35303 -0.492862 0
M  V30 14165 H 1331.29 4.07808 1.06163 0
M  V30 14166 H 1330.01 2.90938 1.484 0
M  V30 14167 H 1328.67 3.62841 -0.523639 0
M  V30 14168 H 1328.32 4.73755 1.69011 0
M  V30 14169 H 1328.02 5.86589 0.344566 0
M  V30 14170 H 1329.54 5.97227 1.2709 0
M  V30 14171 H 1330.96 5.64907 -0.977418 0
M  V30 14172 H 1329.36 5.73593 -1.76382 0
M  V30 14173 H 1330.43 4.36558 -2.11057 0
M  V30 14174 N 1331.77 0.549846 1.47697 0
M  V30 14175 C 1333.02 0.0209424 2.01689 0
M  V30 14176 C 1333.33 -1.33417 1.43036 0
M  V30 14177 O 1334.54 -1.95257 1.88646 0
M  V30 14178 C 1332.99 -0.0130171 3.59898 0
M  V30 14179 C 1332.6 1.3384 4.2754 0
M  V30 14180 C 1334.34 -0.489701 4.21666 0
M  V30 14181 C 1332.25 1.26395 5.77735 0
M  V30 14182 H 1331.18 0.00405885 0.753989 0
M  V30 14183 H 1333.83 0.696599 1.69764 0
M  V30 14184 H 1332.21 -0.754168 3.88752 0
M  V30 14185 H 1333.39 2.09668 4.10336 0
M  V30 14186 H 1331.7 1.75242 3.77729 0
M  V30 14187 H 1334.3 -0.563684 5.31721 0
M  V30 14188 H 1334.64 -1.50004 3.88336 0
M  V30 14189 H 1335.18 0.196366 3.97315 0
M  V30 14190 H 1331.92 2.25005 6.15673 0
M  V30 14191 H 1331.44 0.547353 5.97297 0
M  V30 14192 H 1333.11 0.962918 6.39794 0
M  V30 14193 N 1333.25 -1.54984 0.285932 0
M  V30 14194 C 1334.18 -2.20365 -0.630236 0
M  V30 14195 C 1335.19 -1.19168 -1.10918 0
M  V30 14196 O 1336.38 -1.45839 -1.02923 0
M  V30 14197 C 1333.48 -2.8244 -1.87299 0
M  V30 14198 C 1332.65 -4.09429 -1.53905 0
M  V30 14199 C 1331.71 -4.55449 -2.63538 0
M  V30 14200 O 1330.74 -5.20985 -2.29267 0
M  V30 14201 N 1331.94 -4.26498 -3.93802 0
M  V30 14202 H 1334.71 -2.99617 -0.0706044 0
M  V30 14203 H 1332.27 -1.61543 0.107486 0
M  V30 14204 H 1334.26 -3.10167 -2.59959 0
M  V30 14205 H 1332.83 -2.07117 -2.34139 0
M  V30 14206 H 1332.05 -3.88875 -0.645774 0
M  V30 14207 H 1333.34 -4.92146 -1.29111 0
M  V30 14208 H 1332.73 -3.73964 -4.24461 0
M  V30 14209 H 1331.29 -4.5897 -4.62807 0
M  V30 14210 N 1334.72 -0.0133892 -1.57594 0
M  V30 14211 C 1335.69 0.958601 -2.08191 0
M  V30 14212 C 1336.69 1.26408 -0.993865 0
M  V30 14213 O 1337.88 1.20703 -1.25604 0
M  V30 14214 C 1335.01 2.27971 -2.5346 0
M  V30 14215 H 1336.2 0.520686 -2.95345 0
M  V30 14216 H 1333.76 0.234351 -1.54533 0
M  V30 14217 H 1334.49 2.76424 -1.69588 0
M  V30 14218 H 1334.28 2.07116 -3.32935 0
M  V30 14219 H 1335.77 2.97672 -2.92884 0
M  V30 14220 N 1336.2 1.55448 0.259558 0
M  V30 14221 C 1337.45 1.76948 0.990816 0
M  V30 14222 C 1337.78 0.576401 1.85449 0
M  V30 14223 O 1337.06 -0.425693 1.89784 0
M  V30 14224 C 1337.34 3.08221 1.86204 0
M  V30 14225 C 1337.19 4.37909 1.0274 0
M  V30 14226 C 1338.51 3.35627 2.84679 0
M  V30 14227 H 1335.63 0.64377 0.358788 0
M  V30 14228 H 1338.27 1.88182 0.262211 0
M  V30 14229 H 1336.42 2.98775 2.48326 0
M  V30 14230 H 1338.09 4.5933 0.425855 0
M  V30 14231 H 1336.34 4.32533 0.331308 0
M  V30 14232 H 1337.01 5.26116 1.6705 0
M  V30 14233 H 1339.48 3.44954 2.32693 0
M  V30 14234 H 1338.36 4.28719 3.42769 0
M  V30 14235 H 1338.62 2.55921 3.60496 0
M  V30 14236 N 1337.68 -0.524672 1.4861 0
M  V30 14237 C 1338.91 -1.30482 1.60568 0
M  V30 14238 C 1339.32 -1.86889 0.267952 0
M  V30 14239 O 1338.68 -1.66669 -0.743488 0
M  V30 14240 C 1338.73 -2.45191 2.65638 0
M  V30 14241 O 1338.45 -1.91107 3.9422 0
M  V30 14242 C 1339.95 -3.36931 2.88084 0
M  V30 14243 H 1337.17 -0.396612 0.541239 0
M  V30 14244 H 1339.72 -0.632392 1.94476 0
M  V30 14245 H 1337.87 -3.08308 2.34574 0
M  V30 14246 H 1338.29 -2.66234 4.51907 0
M  V30 14247 H 1339.76 -4.13755 3.65391 0
M  V30 14248 H 1340.24 -3.92487 1.97106 0
M  V30 14249 H 1340.84 -2.79601 3.20473 0
M  V30 14250 N 1339.16 -1.37287 -0.77395 0
M  V30 14251 C 1340.57 -1.18039 -1.0742 0
M  V30 14252 C 1340.77 -0.0150339 -2.01494 0
M  V30 14253 O 1339.83 0.645562 -2.44108 0
M  V30 14254 C 1341.14 -2.49808 -1.67382 0
M  V30 14255 C 1342.69 -2.5631 -1.7965 0
M  V30 14256 C 1343.17 -3.88204 -2.43025 0
M  V30 14257 N 1344.66 -3.89634 -2.50478 0
M  V30 14258 C 1345.39 -4.88437 -3.00361 0
M  V30 14259 N 1344.89 -5.97635 -3.50434 0
M  V30 14260 N 1346.68 -4.75843 -2.99215 0
M  V30 14261 H 1338.83 -2.11875 -0.149269 0
M  V30 14262 H 1341.1 -0.939203 -0.128846 0
M  V30 14263 H 1340.8 -3.35433 -1.05726 0
M  V30 14264 H 1340.68 -2.66737 -2.66704 0
M  V30 14265 H 1343.06 -1.71094 -2.40439 0
M  V30 14266 H 1343.14 -2.43266 -0.790894 0
M  V30 14267 H 1342.79 -4.73834 -1.82876 0
M  V30 14268 H 1342.72 -3.98551 -3.44187 0
M  V30 14269 H 1345.21 -3.10751 -2.15039 0
M  V30 14270 H 1345.52 -6.6898 -3.86893 0
M  V30 14271 H 1343.87 -6.01283 -3.48545 0
M  V30 14272 H 1347.06 -3.89656 -2.59395 0
M  V30 14273 H 1347.23 -5.52999 -3.37781 0
M  V30 14274 N 1340.64 0.999871 -1.21821 0
M  V30 14275 C 1342.05 1.26228 -0.976664 0
M  V30 14276 C 1342.25 1.98714 0.333915 0
M  V30 14277 O 1341.31 2.29252 1.05829 0
M  V30 14278 C 1342.62 2.08089 -2.1707 0
M  V30 14279 C 1344.17 2.21298 -2.21351 0
M  V30 14280 C 1344.64 3.06544 -3.40287 0
M  V30 14281 N 1346.14 3.14131 -3.40405 0
M  V30 14282 C 1346.87 3.80362 -4.29083 0
M  V30 14283 N 1346.37 4.48577 -5.27968 0
M  V30 14284 N 1348.16 3.77053 -4.16878 0
M  V30 14285 H 1340.31 0.513704 -2.06094 0
M  V30 14286 H 1342.57 0.289447 -0.902732 0
M  V30 14287 H 1342.28 1.62183 -3.12073 0
M  V30 14288 H 1342.15 3.08843 -2.16554 0
M  V30 14289 H 1344.54 2.66422 -1.269 0
M  V30 14290 H 1344.62 1.19997 -2.25908 0
M  V30 14291 H 1344.27 2.62122 -4.35034 0
M  V30 14292 H 1344.2 4.0797 -3.32969 0
M  V30 14293 H 1346.69 2.65576 -2.68846 0
M  V30 14294 H 1347 4.96833 -5.91926 0
M  V30 14295 H 1345.34 4.47348 -5.31888 0
M  V30 14296 H 1348.54 3.22918 -3.38883 0
M  V30 14297 H 1348.71 4.2839 -4.86195 0
M  V30 14298 N 1342.11 1.02678 1.19562 0
M  V30 14299 C 1343.36 0.722016 1.89191 0
M  V30 14300 C 1343.69 -0.749217 1.79491 0
M  V30 14301 O 1342.94 -1.56105 1.18025 0
M  V30 14302 C 1343.24 1.11603 3.39529 0
M  V30 14303 C 1342.91 2.58518 3.69431 0
M  V30 14304 C 1341.57 2.98658 3.77302 0
M  V30 14305 C 1343.92 3.53579 3.82925 0
M  V30 14306 C 1341.25 4.32776 3.96134 0
M  V30 14307 C 1343.6 4.87398 4.0327 0
M  V30 14308 C 1342.27 5.27229 4.09373 0
M  V30 14309 H 1341.54 0.264204 0.692298 0
M  V30 14310 H 1344.18 1.28924 1.41601 0
M  V30 14311 H 1342.49 0.467374 3.89002 0
M  V30 14312 H 1344.19 0.857771 3.91718 0
M  V30 14313 H 1340.78 2.26421 3.63911 0
M  V30 14314 H 1344.96 3.23721 3.76189 0
M  V30 14315 H 1340.22 4.63175 3.99098 0
M  V30 14316 H 1344.39 5.60973 4.12653 0
M  V30 14317 H 1342.02 6.31164 4.23718 0
M  V30 14318 N 1343.59 -1.35528 0.804364 0
M  V30 14319 C 1344.82 -2.03604 0.395013 0
M  V30 14320 C 1345.24 -1.60225 -0.985371 0
M  V30 14321 O 1344.6 -0.777844 -1.63766 0
M  V30 14322 C 1344.65 -3.57337 0.484011 0
M  V30 14323 O 1343.75 -4.09316 -0.503395 0
M  V30 14324 H 1343.09 -0.643089 0.165325 0
M  V30 14325 H 1345.62 -1.73171 1.08963 0
M  V30 14326 H 1345.63 -4.0647 0.353009 0
M  V30 14327 H 1344.31 -3.8826 1.49088 0
M  V30 14328 H 1342.89 -3.71412 -0.332817 0
M  V30 14329 N 1345.07 -0.557671 -1.47404 0
M  V30 14330 C 1346.3 -0.0386599 -2.06864 0
M  V30 14331 C 1346.71 1.25527 -1.41027 0
M  V30 14332 O 1346.07 1.75318 -0.506949 0
M  V30 14333 C 1346.12 0.160141 -3.61145 0
M  V30 14334 O 1345.84 -1.08255 -4.24515 0
M  V30 14335 C 1347.34 0.716381 -4.37473 0
M  V30 14336 H 1344.56 -0.0460523 -0.669418 0
M  V30 14337 H 1347.11 -0.771214 -1.894 0
M  V30 14338 H 1345.26 0.842826 -3.78121 0
M  V30 14339 H 1345.68 -0.88057 -5.17055 0
M  V30 14340 H 1347.15 0.804773 -5.46102 0
M  V30 14341 H 1347.63 1.72776 -4.03788 0
M  V30 14342 H 1348.23 0.0693787 -4.25243 0
M  V30 14343 N 1346.55 1.54831 -0.294147 0
M  V30 14344 C 1347.46 2.26939 0.594621 0
M  V30 14345 C 1348.48 1.30209 1.15419 0
M  V30 14346 O 1349.65 1.6318 1.18044 0
M  V30 14347 C 1346.72 2.9909 1.75345 0
M  V30 14348 C 1345.78 4.11342 1.22865 0
M  V30 14349 C 1345.01 4.80043 2.33225 0
M  V30 14350 O 1345.23 4.48062 3.52983 0
M  V30 14351 O 1344.17 5.67593 2.00304 0
M  V30 14352 H 1347.99 3.03698 0.00989235 0
M  V30 14353 H 1345.58 1.49276 -0.0608528 0
M  V30 14354 H 1347.46 3.44369 2.42875 0
M  V30 14355 H 1346.14 2.25232 2.32492 0
M  V30 14356 H 1345.04 3.70478 0.519279 0
M  V30 14357 H 1346.38 4.87158 0.702703 0
M  V30 14358 N 1348.03 0.0217466 1.57585 0
M  V30 14359 C 1349.26 -0.667911 1.95506 0
M  V30 14360 C 1349.67 -1.66616 0.89642 0
M  V30 14361 O 1349.01 -1.83232 -0.131059 0
M  V30 14362 C 1349.07 -1.43696 3.29533 0
M  V30 14363 C 1348.73 -0.59787 4.53072 0
M  V30 14364 C 1349.73 0.12372 5.19753 0
M  V30 14365 C 1347.42 -0.53744 4.99417 0
M  V30 14366 C 1349.41 0.894491 6.31092 0
M  V30 14367 C 1347.1 0.237041 6.1064 0
M  V30 14368 C 1348.1 0.95172 6.76337 0
M  V30 14369 O 1347.78 1.71352 7.85426 0
M  V30 14370 H 1347.52 -0.189544 0.648883 0
M  V30 14371 H 1350.07 0.0755682 2.05261 0
M  V30 14372 H 1348.3 -2.22541 3.16247 0
M  V30 14373 H 1349.99 -2.01402 3.52409 0
M  V30 14374 H 1350.75 0.0863208 4.84923 0
M  V30 14375 H 1346.63 -1.08327 4.48092 0
M  V30 14376 H 1350.18 1.45285 6.82304 0
M  V30 14377 H 1346.07 0.276183 6.44909 0
M  V30 14378 H 1346.84 1.63252 8.02054 0
M  V30 14379 N 1349.51 -1.55583 -0.251311 0
M  V30 14380 C 1350.42 -1.93073 -1.33266 0
M  V30 14381 C 1351.43 -0.830612 -1.52895 0
M  V30 14382 O 1352.61 -1.13162 -1.66602 0
M  V30 14383 C 1349.67 -2.21396 -2.66805 0
M  V30 14384 C 1348.73 -3.44815 -2.55737 0
M  V30 14385 C 1347.97 -3.71777 -3.82907 0
M  V30 14386 O 1348.19 -3.00884 -4.84587 0
M  V30 14387 O 1347.12 -4.65305 -3.81805 0
M  V30 14388 H 1350.95 -2.85168 -1.04465 0
M  V30 14389 H 1348.53 -1.42408 -0.451693 0
M  V30 14390 H 1350.42 -2.4094 -3.45725 0
M  V30 14391 H 1349.09 -1.3248 -2.95348 0
M  V30 14392 H 1348 -3.30582 -1.75118 0
M  V30 14393 H 1349.33 -4.34019 -2.32139 0
M  V30 14394 N 1350.98 0.516783 -1.48886 0
M  V30 14395 C 1351.91 1.62897 -1.67292 0
M  V30 14396 C 1352.89 1.61903 -0.521671 0
M  V30 14397 O 1354.08 1.78892 -0.755728 0
M  V30 14398 C 1351.21 3.01444 -1.72478 0
M  V30 14399 C 1350.16 3.173 -2.87236 0
M  V30 14400 C 1349.49 4.5704 -2.77522 0
M  V30 14401 C 1350.79 2.98818 -4.28375 0
M  V30 14402 H 1352.48 1.47748 -2.60405 0
M  V30 14403 H 1350.03 0.709361 -1.25316 0
M  V30 14404 H 1351.98 3.79135 -1.83942 0
M  V30 14405 H 1350.71 3.17645 -0.759538 0
M  V30 14406 H 1349.37 2.4203 -2.75349 0
M  V30 14407 H 1349.01 4.70096 -1.78938 0
M  V30 14408 H 1348.71 4.68593 -3.54534 0
M  V30 14409 H 1350.24 5.36813 -2.90972 0
M  V30 14410 H 1351.65 3.66291 -4.41026 0
M  V30 14411 H 1350.05 3.21854 -5.06488 0
M  V30 14412 H 1351.12 1.95102 -4.43918 0
M  V30 14413 N 1352.46 1.37696 0.766659 0
M  V30 14414 C 1353.39 1.2975 1.88938 0
M  V30 14415 C 1354.41 0.212278 1.6141 0
M  V30 14416 O 1355.6 0.468825 1.72233 0
M  V30 14417 C 1352.7 0.984553 3.24283 0
M  V30 14418 C 1351.87 2.17625 3.79418 0
M  V30 14419 C 1350.93 1.83279 4.9325 0
M  V30 14420 O 1349.95 2.55631 5.08568 0
M  V30 14421 N 1351.16 0.779941 5.75237 0
M  V30 14422 H 1353.92 2.26492 1.96269 0
M  V30 14423 H 1351.48 1.31387 0.946001 0
M  V30 14424 H 1353.47 0.735536 3.9796 0
M  V30 14425 H 1352.04 0.105527 3.12422 0
M  V30 14426 H 1351.26 2.58672 2.9746 0
M  V30 14427 H 1352.55 2.97187 4.12986 0
M  V30 14428 H 1351.95 0.179661 5.65415 0
M  V30 14429 H 1350.51 0.59079 6.49117 0
M  V30 14430 N 1353.94 -0.993397 1.22349 0
M  V30 14431 C 1354.87 -2.08543 0.950925 0
M  V30 14432 C 1355.88 -1.62648 -0.0702741 0
M  V30 14433 O 1357.07 -1.77748 0.16367 0
M  V30 14434 C 1354.17 -3.36429 0.408466 0
M  V30 14435 C 1353.35 -4.11356 1.48676 0
M  V30 14436 C 1352.41 -5.17526 0.951478 0
M  V30 14437 O 1351.43 -5.45135 1.63757 0
M  V30 14438 N 1352.63 -5.80055 -0.227378 0
M  V30 14439 H 1355.4 -2.32506 1.89106 0
M  V30 14440 H 1352.96 -1.15911 1.13032 0
M  V30 14441 H 1354.95 -4.04684 0.0356968 0
M  V30 14442 H 1353.52 -3.09534 -0.436767 0
M  V30 14443 H 1352.74 -3.37739 2.03288 0
M  V30 14444 H 1354.03 -4.58187 2.21228 0
M  V30 14445 H 1353.43 -5.59992 -0.801601 0
M  V30 14446 H 1351.98 -6.49546 -0.541538 0
M  V30 14447 N 1355.42 -1.03311 -1.19015 0
M  V30 14448 C 1356.35 -0.638279 -2.24607 0
M  V30 14449 C 1357.33 0.354795 -1.66359 0
M  V30 14450 O 1358.51 0.236574 -1.92754 0
M  V30 14451 C 1355.64 0.00737316 -3.47299 0
M  V30 14452 C 1354.6 -0.908431 -4.18248 0
M  V30 14453 C 1353.92 -0.127658 -5.34548 0
M  V30 14454 C 1355.22 -2.2241 -4.72579 0
M  V30 14455 H 1356.92 -1.52099 -2.57888 0
M  V30 14456 H 1354.46 -0.732779 -1.23961 0
M  V30 14457 H 1356.42 0.295256 -4.20364 0
M  V30 14458 H 1355.14 0.924912 -3.1323 0
M  V30 14459 H 1353.8 -1.18058 -3.47071 0
M  V30 14460 H 1353.45 0.792048 -4.96725 0
M  V30 14461 H 1353.15 -0.737702 -5.82951 0
M  V30 14462 H 1354.67 0.153385 -6.10407 0
M  V30 14463 H 1356.09 -1.99745 -5.37378 0
M  V30 14464 H 1354.48 -2.78644 -5.31486 0
M  V30 14465 H 1355.55 -2.87584 -3.90415 0
M  V30 14466 N 1356.9 1.35099 -0.81154 0
M  V30 14467 C 1357.81 2.33499 -0.22705 0
M  V30 14468 C 1358.82 1.62095 0.632562 0
M  V30 14469 O 1360 1.93938 0.543147 0
M  V30 14470 C 1357.06 3.41279 0.610687 0
M  V30 14471 C 1356.12 4.2845 -0.269994 0
M  V30 14472 C 1355.36 5.31083 0.527854 0
M  V30 14473 O 1355.58 5.42499 1.76213 0
M  V30 14474 O 1354.51 6.01842 -0.083862 0
M  V30 14475 H 1358.34 2.85294 -1.04119 0
M  V30 14476 H 1355.92 1.37957 -0.573432 0
M  V30 14477 H 1357.81 4.07121 1.08768 0
M  V30 14478 H 1356.48 2.91746 1.40235 0
M  V30 14479 H 1355.39 3.65572 -0.794234 0
M  V30 14480 H 1356.72 4.81394 -1.02572 0
M  V30 14481 N 1358.37 0.56548 1.47106 0
M  V30 14482 C 1359.31 -0.215154 2.28188 0
M  V30 14483 C 1360.32 -0.871671 1.37498 0
M  V30 14484 O 1361.51 -0.744131 1.6225 0
M  V30 14485 C 1358.61 -1.32289 3.12014 0
M  V30 14486 C 1357.78 -0.761594 4.30719 0
M  V30 14487 C 1356.84 -1.75486 4.96076 0
M  V30 14488 O 1355.87 -1.29771 5.5421 0
M  V30 14489 N 1357.07 -3.0885 4.9152 0
M  V30 14490 H 1359.83 0.480405 2.95825 0
M  V30 14491 H 1357.39 0.402099 1.56827 0
M  V30 14492 H 1359.39 -1.98628 3.52603 0
M  V30 14493 H 1357.96 -1.92156 2.46566 0
M  V30 14494 H 1357.18 0.078794 3.94121 0
M  V30 14495 H 1358.46 -0.366072 5.07481 0
M  V30 14496 H 1357.86 -3.4863 4.45504 0
M  V30 14497 H 1356.42 -3.70725 5.36103 0
M  V30 14498 N 1359.85 -1.54672 0.302354 0
M  V30 14499 C 1361.1 -2.00167 -0.306524 0
M  V30 14500 C 1361.43 -1.19073 -1.53791 0
M  V30 14501 O 1360.68 -0.255328 -1.94027 0
M  V30 14502 C 1360.98 -3.5035 -0.70638 0
M  V30 14503 C 1360.65 -4.48907 0.423429 0
M  V30 14504 C 1359.31 -4.75575 0.733586 0
M  V30 14505 C 1361.66 -5.07588 1.18338 0
M  V30 14506 C 1358.99 -5.58186 1.80679 0
M  V30 14507 C 1361.34 -5.91367 2.24651 0
M  V30 14508 C 1360.01 -6.16345 2.56272 0
M  V30 14509 H 1359.28 -0.732462 -0.112165 0
M  V30 14510 H 1361.92 -1.86798 0.421732 0
M  V30 14511 H 1360.23 -3.61335 -1.51474 0
M  V30 14512 H 1361.92 -3.82977 -1.18869 0
M  V30 14513 H 1358.51 -4.28256 0.171591 0
M  V30 14514 H 1362.7 -4.86985 0.957018 0
M  V30 14515 H 1357.95 -5.75776 2.05649 0
M  V30 14516 H 1362.13 -6.35862 2.83994 0
M  V30 14517 H 1359.76 -6.80148 3.39563 0
M  V30 14518 N 1361.33 -0.0301034 -1.57571 0
M  V30 14519 C 1362.28 0.951421 -2.10277 0
M  V30 14520 C 1363.25 1.3224 -1.00508 0
M  V30 14521 O 1364.43 1.41554 -1.27934 0
M  V30 14522 C 1361.57 2.2282 -2.63525 0
M  V30 14523 C 1360.69 1.91359 -3.87306 0
M  V30 14524 C 1359.82 3.13339 -4.28943 0
M  V30 14525 C 1358.86 2.77701 -5.4548 0
M  V30 14526 N 1358 3.9231 -5.82269 0
M  V30 14527 H 1362.84 0.495049 -2.93859 0
M  V30 14528 H 1360.37 0.232756 -1.45247 0
M  V30 14529 H 1362.33 2.97502 -2.92487 0
M  V30 14530 H 1360.96 2.66072 -1.82772 0
M  V30 14531 H 1360.01 1.06915 -3.65066 0
M  V30 14532 H 1361.33 1.61112 -4.72064 0
M  V30 14533 H 1360.48 3.9634 -4.59347 0
M  V30 14534 H 1359.22 3.46747 -3.42954 0
M  V30 14535 H 1358.22 1.93113 -5.14769 0
M  V30 14536 H 1359.45 2.45508 -6.33169 0
M  V30 14537 H 1357.39 4.25559 -4.99235 0
M  V30 14538 H 1357.31 3.65691 -6.61669 0
M  V30 14539 H 1358.58 4.76012 -6.17279 0
M  V30 14540 N 1362.81 1.55714 0.243056 0
M  V30 14541 C 1363.76 1.90638 1.30099 0
M  V30 14542 C 1364.73 0.761049 1.47639 0
M  V30 14543 O 1365.91 1.01505 1.61559 0
M  V30 14544 C 1363.05 2.20985 2.65065 0
M  V30 14545 C 1362.16 3.48343 2.55501 0
M  V30 14546 C 1361.3 3.68241 3.82847 0
M  V30 14547 C 1360.34 4.89187 3.67916 0
M  V30 14548 N 1359.47 5.05586 4.87162 0
M  V30 14549 H 1364.31 2.80857 0.996155 0
M  V30 14550 H 1361.85 1.39027 0.480619 0
M  V30 14551 H 1363.81 2.36585 3.43632 0
M  V30 14552 H 1362.44 1.33966 2.93689 0
M  V30 14553 H 1361.49 3.41054 1.68483 0
M  V30 14554 H 1362.8 4.37057 2.4038 0
M  V30 14555 H 1361.96 3.83822 4.69857 0
M  V30 14556 H 1360.7 2.77768 4.00869 0
M  V30 14557 H 1359.7 4.7358 2.79289 0
M  V30 14558 H 1360.93 5.81124 3.51385 0
M  V30 14559 H 1358.87 4.18051 5.05538 0
M  V30 14560 H 1358.79 5.88395 4.74686 0
M  V30 14561 H 1360.06 5.25582 5.7566 0
M  V30 14562 N 1364.29 -0.50888 1.49158 0
M  V30 14563 C 1365.56 -1.27021 1.48745 0
M  V30 14564 C 1365.94 -2.10045 0.210772 0
M  V30 14565 O 1365.29 -2.13773 -0.807061 0
M  V30 14566 C 1365.5 -2.13367 2.76181 0
M  V30 14567 C 1366.85 -2.72815 3.25357 0
M  V30 14568 O 1367.87 -2.23639 2.77243 0
M  V30 14569 O 1366.73 -3.62316 4.09133 0
M  V30 14570 H 1363.83 -0.574387 0.594986 0
M  V30 14571 H 1366.37 -0.523798 1.61414 0
M  V30 14572 H 1365.14 -1.51941 3.60596 0
M  V30 14573 H 1364.77 -2.95215 2.66334 0
M  V30 14574 N 1365.76 -1.381 -0.759346 0
M  V30 14575 C 1366.71 -1.34972 -1.89434 0
M  V30 14576 C 1367.71 -0.236499 -1.67741 0
M  V30 14577 O 1368.91 -0.405218 -1.7538 0
M  V30 14578 H 1365.29 -0.420922 -0.62316 0
M  V30 14579 H 1367.26 -2.3076 -1.89189 0
M  V30 14580 C 1366.01 -1.18594 -3.2685 0
M  V30 14581 H 1365.33 -2.03514 -3.44125 0
M  V30 14582 H 1366.77 -1.20458 -4.06529 0
M  V30 14583 C 1365.23 0.107562 -3.36728 0
M  V30 14584 O 1365.76 1.08668 -3.86722 0
M  V30 14585 N 1363.97 0.162455 -2.90146 0
M  V30 14586 H 1363.51 -0.634985 -2.49651 0
M  V30 14587 H 1363.47 1.02751 -2.97136 0
M  V30 14588 N 1367.24 0.986894 -1.22875 0
M  V30 14589 C 1368.15 2.11232 -1.02069 0
M  V30 14590 C 1369.17 1.73969 0.0328424 0
M  V30 14591 O 1370.34 2.00754 -0.161197 0
M  V30 14592 C 1367.41 3.41337 -0.60747 0
M  V30 14593 C 1366.47 3.92665 -1.73531 0
M  V30 14594 C 1365.7 5.1656 -1.34171 0
M  V30 14595 O 1365.93 5.69964 -0.223106 0
M  V30 14596 O 1364.86 5.61791 -2.16041 0
M  V30 14597 H 1368.69 2.3167 -1.96374 0
M  V30 14598 H 1366.27 1.09607 -1.01522 0
M  V30 14599 H 1368.15 4.19613 -0.387661 0
M  V30 14600 H 1366.83 3.22244 0.306653 0
M  V30 14601 H 1365.74 3.15534 -2.0097 0
M  V30 14602 H 1367.07 4.162 -2.62751 0
M  V30 14603 N 1368.72 1.0394 1.18466 0
M  V30 14604 C 1369.63 0.639714 2.2571 0
M  V30 14605 C 1370.65 -0.333431 1.70775 0
M  V30 14606 O 1371.82 -0.188676 2.00514 0
M  V30 14607 C 1368.89 0.007559 3.46699 0
M  V30 14608 C 1367.95 1.02955 4.16772 0
M  V30 14609 C 1367.18 0.427464 5.31985 0
M  V30 14610 O 1367.4 -0.766684 5.65224 0
M  V30 14611 O 1366.34 1.15553 5.90704 0
M  V30 14612 H 1370.16 1.53316 2.6216 0
M  V30 14613 H 1367.75 0.810206 1.25523 0
M  V30 14614 H 1369.63 -0.344404 4.1999 0
M  V30 14615 H 1368.31 -0.859727 3.12074 0
M  V30 14616 H 1367.21 1.43328 3.45554 0
M  V30 14617 H 1368.55 1.86756 4.55393 0
M  V30 14618 N 1370.2 -1.34667 0.818693 0
M  V30 14619 C 1371.43 -2.02642 0.417608 0
M  V30 14620 C 1371.84 -1.61667 -0.97516 0
M  V30 14621 O 1371.2 -0.820056 -1.63038 0
M  V30 14622 C 1371.25 -3.57951 0.505295 0
M  V30 14623 O 1370.97 -3.97441 1.84317 0
M  V30 14624 C 1372.47 -4.4319 0.0985667 0
M  V30 14625 H 1369.69 -0.6496 0.168111 0
M  V30 14626 H 1372.24 -1.72032 1.10568 0
M  V30 14627 H 1370.39 -3.87166 -0.134646 0
M  V30 14628 H 1370.8 -4.92116 1.81444 0
M  V30 14629 H 1372.28 -5.51597 0.211015 0
M  V30 14630 H 1372.76 -4.28637 -0.95745 0
M  V30 14631 H 1373.36 -4.19295 0.71214 0
M  V30 14632 N 1371.68 -0.573274 -1.46804 0
M  V30 14633 C 1372.92 -0.0551522 -2.02025 0
M  V30 14634 C 1373.25 1.30577 -1.44826 0
M  V30 14635 O 1372.52 1.85514 -0.629403 0
M  V30 14636 H 1371.1 -0.0173982 -0.746797 0
M  V30 14637 H 1373.76 -0.746919 -1.8002 0
M  V30 14638 H 1372.85 0.0209326 -3.12093 0
M  V30 14639 N 1373.15 1.5451 -0.310553 0
M  V30 14640 C 1374.4 2.00326 0.295904 0
M  V30 14641 C 1374.73 1.19887 1.53158 0
M  V30 14642 O 1373.98 0.265615 1.93889 0
M  V30 14643 C 1374.28 3.5072 0.68779 0
M  V30 14644 C 1373.95 4.48677 -0.447229 0
M  V30 14645 C 1372.61 4.7518 -0.758796 0
M  V30 14646 C 1374.96 5.06953 -1.21028 0
M  V30 14647 C 1372.29 5.5722 -1.83637 0
M  V30 14648 C 1374.64 5.90167 -2.27784 0
M  V30 14649 C 1373.31 6.14977 -2.59537 0
M  V30 14650 H 1372.58 0.733046 0.108279 0
M  V30 14651 H 1375.22 1.86572 -0.431633 0
M  V30 14652 H 1373.53 3.62133 1.49556 0
M  V30 14653 H 1375.23 3.83602 1.16836 0
M  V30 14654 H 1371.82 4.28159 -0.1943 0
M  V30 14655 H 1376 4.86471 -0.98283 0
M  V30 14656 H 1371.26 5.74678 -2.08699 0
M  V30 14657 H 1375.43 6.34347 -2.87362 0
M  V30 14658 H 1373.06 6.78338 -3.43165 0
M  V30 14659 N 1374.63 0.0384594 1.57553 0
M  V30 14660 C 1375.88 -0.636879 1.91803 0
M  V30 14661 C 1376.2 -1.72128 0.916347 0
M  V30 14662 O 1375.47 -1.95858 -0.0407405 0
M  V30 14663 H 1374.05 -0.238237 0.707992 0
M  V30 14664 H 1376.71 0.0884651 1.94699 0
M  V30 14665 H 1375.81 -1.08364 2.92683 0
M  V30 14666 N 1376.11 -1.55841 -0.234795 0
M  V30 14667 C 1377.34 -1.82649 -0.982547 0
M  V30 14668 C 1377.76 -0.617097 -1.77689 0
M  V30 14669 O 1377.12 0.434022 -1.76028 0
M  V30 14670 C 1377.17 -3.07319 -1.88646 0
M  V30 14671 O 1376.27 -2.85084 -2.97995 0
M  V30 14672 H 1375.61 -0.60257 -0.278936 0
M  V30 14673 H 1378.14 -2.03041 -0.252117 0
M  V30 14674 H 1378.15 -3.37073 -2.29882 0
M  V30 14675 H 1376.83 -3.94978 -1.30251 0
M  V30 14676 H 1375.4 -2.66528 -2.60801 0
M  V30 14677 N 1377.59 0.500963 -1.49426 0
M  V30 14678 C 1378.84 1.25261 -1.58601 0
M  V30 14679 C 1379.16 1.93056 -0.274647 0
M  V30 14680 O 1378.43 1.82736 0.706003 0
M  V30 14681 H 1377.01 0.465328 -0.584362 0
M  V30 14682 H 1379.67 0.580588 -1.86052 0
M  V30 14683 H 1378.77 2.01652 -2.38208 0
M  V30 14684 N 1379.07 1.38501 0.752011 0
M  V30 14685 C 1380.3 1.38032 1.54125 0
M  V30 14686 C 1380.71 -0.0295066 1.88777 0
M  V30 14687 O 1380.07 -0.996522 1.52891 0
M  V30 14688 C 1380.12 2.23741 2.83941 0
M  V30 14689 O 1379.84 3.59232 2.50767 0
M  V30 14690 C 1381.34 2.31469 3.7807 0
M  V30 14691 H 1378.56 0.472077 0.476848 0
M  V30 14692 H 1381.1 1.82101 0.930572 0
M  V30 14693 H 1379.26 1.8313 3.41383 0
M  V30 14694 H 1379.67 4.04376 3.34036 0
M  V30 14695 H 1381.15 2.95722 4.66103 0
M  V30 14696 H 1381.62 1.32882 4.18616 0
M  V30 14697 H 1382.23 2.72477 3.26552 0
M  V30 14698 N 1380.55 -0.980364 1.23396 0
M  V30 14699 C 1381.96 -1.24658 0.996622 0
M  V30 14700 C 1382.16 -1.9922 -0.302259 0
M  V30 14701 O 1381.22 -2.30906 -1.02169 0
M  V30 14702 C 1382.53 -2.0461 2.20353 0
M  V30 14703 C 1384.08 -2.17749 2.24843 0
M  V30 14704 C 1384.55 -3.01091 3.4512 0
M  V30 14705 N 1386.04 -3.08676 3.4536 0
M  V30 14706 C 1386.78 -3.73487 4.3508 0
M  V30 14707 N 1386.28 -4.40121 5.35038 0
M  V30 14708 N 1388.07 -3.70373 4.22824 0
M  V30 14709 H 1380.22 -0.480851 2.06885 0
M  V30 14710 H 1382.48 -0.275049 0.907222 0
M  V30 14711 H 1382.19 -1.57197 3.14614 0
M  V30 14712 H 1382.06 -3.05359 2.21441 0
M  V30 14713 H 1384.45 -2.64369 1.31122 0
M  V30 14714 H 1384.53 -1.16388 2.27788 0
M  V30 14715 H 1384.17 -2.55168 4.39149 0
M  V30 14716 H 1384.1 -4.02621 3.39417 0
M  V30 14717 H 1386.6 -2.61265 2.73037 0
M  V30 14718 H 1386.91 -4.87354 5.99755 0
M  V30 14719 H 1385.25 -4.38829 5.38938 0
M  V30 14720 H 1388.44 -3.17486 3.43977 0
M  V30 14721 H 1388.62 -4.20601 4.92949 0
M  V30 14722 N 1382.02 -1.04567 -1.17913 0
M  V30 14723 C 1382.99 -0.645476 -2.19923 0
M  V30 14724 C 1383.99 0.299763 -1.57981 0
M  V30 14725 O 1385.18 0.0844825 -1.73995 0
M  V30 14726 C 1382.31 0.0528935 -3.40859 0
M  V30 14727 H 1383.5 -1.54828 -2.56843 0
M  V30 14728 H 1381.05 -0.838812 -1.31885 0
M  V30 14729 H 1381.79 0.969261 -3.09477 0
M  V30 14730 H 1381.57 -0.626558 -3.87062 0
M  V30 14731 H 1383.06 0.319221 -4.16378 0
M  V30 14732 N 1383.5 1.34231 -0.825823 0
M  V30 14733 C 1384.43 2.31997 -0.264546 0
M  V30 14734 C 1385.41 1.58375 0.620592 0
M  V30 14735 O 1386.6 1.86341 0.546865 0
M  V30 14736 C 1383.73 3.42557 0.572025 0
M  V30 14737 C 1382.68 4.27454 -0.216219 0
M  V30 14738 C 1382.01 5.29509 0.743279 0
M  V30 14739 C 1383.31 5.02456 -1.42603 0
M  V30 14740 H 1385 2.79189 -1.08139 0
M  V30 14741 H 1382.55 1.34227 -0.521451 0
M  V30 14742 H 1384.5 4.09968 0.974889 0
M  V30 14743 H 1383.22 2.94021 1.42195 0
M  V30 14744 H 1381.88 3.61649 -0.600485 0
M  V30 14745 H 1381.53 4.77234 1.58924 0
M  V30 14746 H 1381.23 5.87188 0.220064 0
M  V30 14747 H 1382.76 5.99789 1.14394 0
M  V30 14748 H 1384.17 5.62706 -1.09702 0
M  V30 14749 H 1382.57 5.69723 -1.88509 0
M  V30 14750 H 1383.64 4.31983 -2.2027 0
M  V30 14751 N 1384.98 0.581051 1.46498 0
M  V30 14752 C 1385.89 -0.155669 2.34083 0
M  V30 14753 C 1386.91 -0.887728 1.49651 0
M  V30 14754 O 1388.08 -0.851284 1.82524 0
M  V30 14755 C 1385.15 -1.15752 3.26806 0
M  V30 14756 C 1384.21 -0.43031 4.27138 0
M  V30 14757 C 1383.44 -1.38443 5.15431 0
M  V30 14758 O 1383.66 -2.62084 5.06624 0
M  V30 14759 O 1382.6 -0.89592 5.95195 0
M  V30 14760 H 1386.42 0.56341 2.98428 0
M  V30 14761 H 1384.01 0.341466 1.45445 0
M  V30 14762 H 1385.89 -1.73523 3.84015 0
M  V30 14763 H 1384.57 -1.85809 2.65059 0
M  V30 14764 H 1383.47 0.1892 3.73621 0
M  V30 14765 H 1384.81 0.229263 4.91666 0
M  V30 14766 N 1386.46 -1.54343 0.318742 0
M  V30 14767 C 1387.39 -2.21652 -0.583351 0
M  V30 14768 C 1388.4 -1.21494 -1.08366 0
M  V30 14769 O 1389.59 -1.4799 -0.998064 0
M  V30 14770 C 1386.69 -2.86349 -1.81266 0
M  V30 14771 C 1385.86 -4.12601 -1.45186 0
M  V30 14772 C 1384.92 -4.60937 -2.53818 0
M  V30 14773 O 1383.95 -5.25731 -2.18164 0
M  V30 14774 N 1385.15 -4.34755 -3.84667 0
M  V30 14775 H 1387.92 -2.99699 -0.00703539 0
M  V30 14776 H 1385.48 -1.61278 0.141728 0
M  V30 14777 H 1387.47 -3.15611 -2.53321 0
M  V30 14778 H 1386.04 -2.12037 -2.29693 0
M  V30 14779 H 1385.26 -3.90157 -0.563143 0
M  V30 14780 H 1386.55 -4.94774 -1.18642 0
M  V30 14781 H 1385.95 -3.82883 -4.16434 0
M  V30 14782 H 1384.5 -4.68683 -4.52967 0
M  V30 14783 N 1387.94 -0.0468143 -1.5753 0
M  V30 14784 C 1388.9 0.914225 -2.10177 0
M  V30 14785 C 1389.9 1.24271 -1.02045 0
M  V30 14786 O 1391.09 1.18012 -1.28136 0
M  V30 14787 C 1388.22 2.22544 -2.58238 0
M  V30 14788 H 1389.41 0.457922 -2.96383 0
M  V30 14789 H 1386.97 0.20152 -1.54995 0
M  V30 14790 H 1387.7 2.72765 -1.75413 0
M  V30 14791 H 1387.49 2.00007 -3.37253 0
M  V30 14792 H 1388.98 2.91392 -2.99133 0
M  V30 14793 N 1389.41 1.55964 0.226527 0
M  V30 14794 C 1390.34 1.95028 1.284 0
M  V30 14795 C 1391.33 0.817833 1.49149 0
M  V30 14796 O 1392.51 1.07975 1.61416 0
M  V30 14797 C 1389.64 2.26266 2.63478 0
M  V30 14798 C 1388.59 3.41954 2.57393 0
M  V30 14799 C 1387.92 3.58786 3.96456 0
M  V30 14800 C 1389.22 4.77069 2.12608 0
M  V30 14801 H 1390.91 2.83608 0.959513 0
M  V30 14802 H 1388.46 1.36451 0.460125 0
M  V30 14803 H 1390.41 2.52186 3.3761 0
M  V30 14804 H 1389.14 1.34533 2.97604 0
M  V30 14805 H 1387.8 3.16076 1.85719 0
M  V30 14806 H 1387.44 2.64437 4.27881 0
M  V30 14807 H 1387.14 4.36595 3.93267 0
M  V30 14808 H 1388.67 3.87048 4.72256 0
M  V30 14809 H 1390.08 5.02226 2.76481 0
M  V30 14810 H 1388.48 5.58126 2.2049 0
M  V30 14811 H 1389.55 4.7276 1.07823 0
M  V30 14812 N 1390.89 -0.493031 1.4969 0
M  V30 14813 C 1391.8 -1.61991 1.69694 0
M  V30 14814 C 1392.82 -1.64061 0.579641 0
M  V30 14815 O 1393.99 -1.82335 0.855323 0
M  V30 14816 C 1391.06 -2.98323 1.76648 0
M  V30 14817 C 1390.12 -3.06816 3.00271 0
M  V30 14818 C 1389.35 -4.36644 3.06883 0
M  V30 14819 O 1389.58 -5.25901 2.20872 0
M  V30 14820 O 1388.51 -4.50275 3.99419 0
M  V30 14821 H 1392.34 -1.48042 2.65174 0
M  V30 14822 H 1389.92 -0.670182 1.33525 0
M  V30 14823 H 1391.8 -3.79335 1.83529 0
M  V30 14824 H 1390.48 -3.12517 0.843482 0
M  V30 14825 H 1389.39 -2.24962 2.98903 0
M  V30 14826 H 1390.72 -2.97551 3.92077 0
M  V30 14827 N 1392.37 -1.38898 -0.744656 0
M  V30 14828 C 1393.32 -1.36845 -1.85855 0
M  V30 14829 C 1394.29 -0.2296 -1.64505 0
M  V30 14830 O 1395.47 -0.423221 -1.86047 0
M  V30 14831 C 1392.61 -1.20818 -3.2326 0
M  V30 14832 C 1391.73 -2.44166 -3.5638 0
M  V30 14833 C 1390.86 -2.20801 -4.83136 0
M  V30 14834 C 1389.9 -3.39874 -5.0907 0
M  V30 14835 N 1389.04 -3.15888 -6.27024 0
M  V30 14836 H 1393.88 -2.32068 -1.86945 0
M  V30 14837 H 1391.41 -1.15289 -0.913611 0
M  V30 14838 H 1393.37 -1.0954 -4.02563 0
M  V30 14839 H 1392 -0.292295 -3.21474 0
M  V30 14840 H 1391.05 -2.66083 -2.71852 0
M  V30 14841 H 1392.37 -3.32885 -3.71469 0
M  V30 14842 H 1391.52 -2.0671 -5.704 0
M  V30 14843 H 1390.26 -1.29462 -4.70203 0
M  V30 14844 H 1389.26 -3.54474 -4.20271 0
M  V30 14845 H 1390.49 -4.32102 -5.23894 0
M  V30 14846 H 1388.43 -2.27204 -6.15398 0
M  V30 14847 H 1388.35 -3.9816 -6.42655 0
M  V30 14848 H 1389.62 -3.0547 -7.17153 0
M  V30 14849 N 1393.85 0.973806 -1.23914 0
M  V30 14850 C 1395.08 1.75107 -1.10206 0
M  V30 14851 C 1395.49 1.85604 0.345935 0
M  V30 14852 O 1394.85 1.33996 1.239 0
M  V30 14853 C 1394.9 3.17466 -1.72909 0
M  V30 14854 O 1394.62 3.07504 -3.12047 0
M  V30 14855 C 1396.12 4.11557 -1.6473 0
M  V30 14856 H 1393.34 0.549318 -0.385345 0
M  V30 14857 H 1395.89 1.22301 -1.63898 0
M  V30 14858 H 1394.04 3.67277 -1.23234 0
M  V30 14859 H 1394.45 3.97169 -3.42575 0
M  V30 14860 H 1395.93 5.09126 -2.13295 0
M  V30 14861 H 1396.41 4.3498 -0.607352 0
M  V30 14862 H 1397.01 3.67653 -2.13802 0
M  V30 14863 N 1395.33 1.05191 1.17357 0
M  V30 14864 C 1396.27 0.652868 2.21374 0
M  V30 14865 C 1397.24 -0.344974 1.62478 0
M  V30 14866 O 1398.43 -0.23639 1.8933 0
M  V30 14867 C 1395.57 0.0337737 3.45083 0
M  V30 14868 C 1394.68 1.08045 4.18271 0
M  V30 14869 C 1393.82 0.428673 5.29468 0
M  V30 14870 C 1392.86 1.45966 5.94441 0
M  V30 14871 N 1391.99 0.832042 6.97152 0
M  V30 14872 H 1396.83 1.54434 2.54861 0
M  V30 14873 H 1394.37 0.772365 1.25192 0
M  V30 14874 H 1396.33 -0.342607 4.15791 0
M  V30 14875 H 1394.96 -0.821159 3.12181 0
M  V30 14876 H 1394.01 1.57466 3.46278 0
M  V30 14877 H 1395.32 1.86305 4.62701 0
M  V30 14878 H 1394.48 -0.00129344 6.067 0
M  V30 14879 H 1393.21 -0.385919 4.86171 0
M  V30 14880 H 1392.22 1.89964 5.1594 0
M  V30 14881 H 1393.44 2.27615 6.39819 0
M  V30 14882 H 1391.39 0.0379612 6.55989 0
M  V30 14883 H 1391.31 1.55219 7.39894 0
M  V30 14884 H 1392.58 0.42685 7.7833 0
M  V30 14885 N 1396.8 -1.33791 0.83293 0
M  V30 14886 C 1397.77 -2.27637 0.267196 0
M  V30 14887 C 1398.77 -1.50709 -0.560669 0
M  V30 14888 O 1399.96 -1.70109 -0.375321 0
M  V30 14889 C 1397.09 -3.35136 -0.624248 0
M  V30 14890 H 1398.28 -2.79186 1.09522 0
M  V30 14891 H 1395.84 -1.44093 0.605554 0
M  V30 14892 H 1396.57 -2.88818 -1.47494 0
M  V30 14893 H 1396.36 -3.92087 -0.0319827 0
M  V30 14894 H 1397.85 -4.05113 -1.01355 0
M  V30 14895 N 1398.28 -0.588812 -1.46187 0
M  V30 14896 C 1399.23 0.153638 -2.32092 0
M  V30 14897 C 1400.22 0.878346 -1.4485 0
M  V30 14898 O 1401.43 0.796042 -1.61441 0
M  V30 14899 H 1397.81 0.0684129 -0.748882 0
M  V30 14900 H 1399.78 -0.58961 -2.92517 0
M  V30 14901 C 1398.53 1.15003 -3.28131 0
M  V30 14902 H 1397.85 0.601804 -3.95245 0
M  V30 14903 H 1399.29 1.6398 -3.91007 0
M  V30 14904 C 1397.75 2.21411 -2.53926 0
M  V30 14905 O 1398.28 3.28862 -2.30679 0
M  V30 14906 N 1396.48 1.96184 -2.14383 0
M  V30 14907 H 1396.03 1.08812 -2.3349 0
M  V30 14908 H 1395.99 2.6759 -1.65055 0
M  V30 14909 N 1399.76 1.54172 -0.326923 0
M  V30 14910 C 1401.01 1.99809 0.275554 0
M  V30 14911 C 1401.32 1.21886 1.52981 0
M  V30 14912 O 1402.53 1.57917 2.20849 0
M  V30 14913 C 1400.98 3.55802 0.541543 0
M  V30 14914 C 1400.59 4.42563 -0.695853 0
M  V30 14915 C 1402.34 4.09898 1.10379 0
M  V30 14916 C 1400.24 5.90035 -0.401581 0
M  V30 14917 H 1399.17 0.746406 0.106742 0
M  V30 14918 H 1401.82 1.78155 -0.439669 0
M  V30 14919 H 1400.21 3.73457 1.31704 0
M  V30 14920 H 1401.38 4.36684 -1.47118 0
M  V30 14921 H 1399.7 3.99373 -1.17855 0
M  V30 14922 H 1402.29 5.17672 1.33863 0
M  V30 14923 H 1402.64 3.62089 2.0542 0
M  V30 14924 H 1403.17 3.9589 0.389395 0
M  V30 14925 H 1399.91 6.42046 -1.32126 0
M  V30 14926 H 1399.43 5.98858 0.335977 0
M  V30 14927 H 1401.11 6.46999 -0.0126539 0
M  V30 14928 N 1401.24 0.0551678 1.57503 0
M  V30 14929 C 1402.19 -0.917847 2.11764 0
M  V30 14930 C 1403.16 -1.30624 1.02599 0
M  V30 14931 O 1404.34 -1.39501 1.30169 0
M  V30 14932 C 1401.48 -2.18599 2.67036 0
M  V30 14933 C 1400.59 -1.85173 3.90301 0
M  V30 14934 C 1399.73 -3.06475 4.33874 0
M  V30 14935 C 1398.77 -2.68988 5.49829 0
M  V30 14936 N 1397.9 -3.82997 5.88437 0
M  V30 14937 H 1402.74 -0.448236 2.9461 0
M  V30 14938 H 1400.28 -0.209619 1.45599 0
M  V30 14939 H 1402.24 -2.92811 2.97183 0
M  V30 14940 H 1400.87 -2.6313 1.86982 0
M  V30 14941 H 1399.92 -1.01094 3.66721 0
M  V30 14942 H 1401.23 -1.53582 4.74567 0
M  V30 14943 H 1400.39 -3.88982 4.65594 0
M  V30 14944 H 1399.13 -3.41247 3.48427 0
M  V30 14945 H 1398.13 -1.84899 5.17776 0
M  V30 14946 H 1399.36 -2.35404 6.36994 0
M  V30 14947 H 1397.3 -4.17562 5.05942 0
M  V30 14948 H 1397.22 -3.55118 6.67403 0
M  V30 14949 H 1398.49 -4.66131 6.24773 0
M  V30 14950 N 1402.72 -1.56081 -0.218252 0
M  V30 14951 C 1403.96 -1.80421 -0.939135 0
M  V30 14952 C 1404.32 -0.628671 -1.81839 0
M  V30 14953 O 1403.61 0.377148 -1.87851 0
M  V30 14954 C 1403.8 -3.08199 -1.80965 0
M  V30 14955 C 1403.63 -4.38069 -1.01616 0
M  V30 14956 C 1402.4 -5.0029 -0.709772 0
M  V30 14957 C 1404.6 -5.12895 -0.379884 0
M  V30 14958 N 1402.58 -6.13811 0.104778 0
M  V30 14959 C 1403.95 -6.19284 0.29791 0
M  V30 14960 C 1406.01 -4.97036 -0.29325 0
M  V30 14961 C 1404.71 -7.11535 1.05405 0
M  V30 14962 C 1406.74 -5.8969 0.449435 0
M  V30 14963 C 1406.1 -6.95507 1.11576 0
M  V30 14964 H 1402.2 -0.711808 -0.32381 0
M  V30 14965 H 1404.78 -1.93567 -0.209735 0
M  V30 14966 H 1402.95 -2.9633 -2.51084 0
M  V30 14967 H 1404.69 -3.20717 -2.46826 0
M  V30 14968 H 1401.44 -4.62295 -1.0286 0
M  V30 14969 H 1401.87 -6.75144 0.500985 0
M  V30 14970 H 1406.51 -4.15276 -0.794059 0
M  V30 14971 H 1404.23 -7.92774 1.56637 0
M  V30 14972 H 1407.81 -5.79494 0.517515 0
M  V30 14973 H 1406.69 -7.65966 1.68126 0
M  V30 14974 N 1404.2 0.485086 -1.49949 0
M  V30 14975 C 1405.44 1.23999 -1.60474 0
M  V30 14976 C 1405.77 1.91904 -0.297736 0
M  V30 14977 O 1405.05 1.81472 0.699857 0
M  V30 14978 C 1405.33 2.2946 -2.77525 0
M  V30 14979 C 1405.19 1.65952 -4.18067 0
M  V30 14980 C 1406.5 3.30893 -2.90169 0
M  V30 14981 H 1403.62 0.449462 -0.584083 0
M  V30 14982 H 1406.27 0.535795 -1.82289 0
M  V30 14983 H 1404.42 2.89521 -2.59056 0
M  V30 14984 H 1406.09 1.09596 -4.48092 0
M  V30 14985 H 1404.33 0.963079 -4.22974 0
M  V30 14986 H 1405 2.42521 -4.9587 0
M  V30 14987 H 1407.48 2.8084 -3.07031 0
M  V30 14988 H 1406.35 4.02027 -3.73718 0
M  V30 14989 H 1406.61 3.94178 -2.0019 0
M  V30 14990 N 1405.67 1.39291 0.737279 0
M  V30 14991 C 1406.62 1.37829 1.85127 0
M  V30 14992 C 1407.59 0.238321 1.64381 0
M  V30 14993 O 1408.78 0.433081 1.8582 0
M  V30 14994 C 1405.92 1.22531 3.22615 0
M  V30 14995 C 1405.03 2.46052 3.55081 0
M  V30 14996 C 1404.16 2.2336 4.81958 0
M  V30 14997 C 1403.2 3.42569 5.0726 0
M  V30 14998 N 1402.34 3.19209 6.2534 0
M  V30 14999 H 1407.18 2.33056 1.85712 0
M  V30 15000 H 1404.72 1.15772 0.907484 0
M  V30 15001 H 1406.67 1.11673 4.01976 0
M  V30 15002 H 1405.3 0.30934 3.21314 0
M  V30 15003 H 1404.36 2.67521 2.70438 0
M  V30 15004 H 1405.67 3.3485 3.69698 0
M  V30 15005 H 1404.82 2.09732 5.69295 0
M  V30 15006 H 1403.56 1.31953 4.6951 0
M  V30 15007 H 1402.57 3.56698 4.18386 0
M  V30 15008 H 1403.79 4.34874 5.21595 0
M  V30 15009 H 1401.74 2.30464 6.14184 0
M  V30 15010 H 1401.65 4.01562 6.40534 0
M  V30 15011 H 1402.92 3.09269 7.15523 0
M  V30 15012 N 1407.15 -0.967221 1.24429 0
M  V30 15013 C 1408.06 -2.09582 1.05417 0
M  V30 15014 C 1409.08 -1.73999 -0.00516127 0
M  V30 15015 O 1410.25 -2.00472 0.193115 0
M  V30 15016 C 1407.32 -3.40327 0.661697 0
M  V30 15017 C 1406.38 -3.89854 1.79756 0
M  V30 15018 C 1405.61 -5.1436 1.42372 0
M  V30 15019 O 1405.84 -5.69536 0.313754 0
M  V30 15020 O 1404.77 -5.58283 2.24952 0
M  V30 15021 H 1408.6 -2.28517 2.00034 0
M  V30 15022 H 1406.18 -1.07978 1.03253 0
M  V30 15023 H 1408.06 -4.18943 0.454369 0
M  V30 15024 H 1406.74 -3.22691 -0.255348 0
M  V30 15025 H 1405.64 -3.12297 2.05964 0
M  V30 15026 H 1406.98 -4.11967 2.69339 0
M  V30 15027 N 1408.63 -1.05812 -1.16797 0
M  V30 15028 C 1409.58 -0.658636 -2.2308 0
M  V30 15029 C 1410.57 0.323104 -1.6629 0
M  V30 15030 O 1411.78 0.188492 -1.7901 0
M  V30 15031 H 1408.15 -0.194843 -0.72632 0
M  V30 15032 H 1410.12 -1.56501 -2.54067 0
M  V30 15033 C 1408.87 -0.0559428 -3.47655 0
M  V30 15034 H 1408.2 -0.802468 -3.91664 0
M  V30 15035 H 1409.64 0.186118 -4.23591 0
M  V30 15036 C 1408.09 1.19913 -3.14837 0
M  V30 15037 O 1408.62 2.28772 -3.30191 0
M  V30 15038 N 1406.83 1.09921 -2.69009 0
M  V30 15039 H 1406.38 0.213331 -2.56715 0
M  V30 15040 H 1406.34 1.93981 -2.47424 0
M  V30 15041 N 1410.11 1.33347 -0.840014 0
M  V30 15042 C 1411.05 2.29191 -0.272048 0
M  V30 15043 C 1412.02 1.54383 0.612787 0
M  V30 15044 O 1413.21 1.82676 0.550812 0
M  V30 15045 C 1410.35 3.40755 0.545901 0
M  V30 15046 C 1409.46 4.30471 -0.363084 0
M  V30 15047 C 1408.6 5.29151 0.466078 0
M  V30 15048 C 1407.64 6.10508 -0.441225 0
M  V30 15049 N 1406.77 7.01228 0.349877 0
M  V30 15050 H 1411.61 2.77166 -1.09467 0
M  V30 15051 H 1409.15 1.36379 -0.551284 0
M  V30 15052 H 1411.11 4.04142 1.03562 0
M  V30 15053 H 1409.74 2.9397 1.33348 0
M  V30 15054 H 1408.79 3.67795 -0.971119 0
M  V30 15055 H 1410.1 4.87406 -1.06002 0
M  V30 15056 H 1409.26 5.98072 1.01957 0
M  V30 15057 H 1408 4.72796 1.19644 0
M  V30 15058 H 1407 5.40504 -1.00672 0
M  V30 15059 H 1408.23 6.68946 -1.16997 0
M  V30 15060 H 1406.17 6.4732 1.0636 0
M  V30 15061 H 1406.09 7.5545 -0.288317 0
M  V30 15062 H 1407.36 7.74453 0.885573 0
M  V30 15063 N 1411.59 0.596556 1.45873 0
M  V30 15064 C 1412.5 -0.130832 2.34235 0
M  V30 15065 C 1413.51 -0.871805 1.50584 0
M  V30 15066 O 1414.69 -0.831877 1.83417 0
M  V30 15067 C 1411.75 -1.12279 3.28016 0
M  V30 15068 C 1410.81 -0.384982 4.2757 0
M  V30 15069 C 1410.05 -1.32969 5.1687 0
M  V30 15070 O 1410.27 -2.56696 5.09375 0
M  V30 15071 O 1409.2 -0.832741 5.96112 0
M  V30 15072 H 1413.03 0.59503 2.97814 0
M  V30 15073 H 1410.61 0.356873 1.45075 0
M  V30 15074 H 1412.5 -1.6944 3.85834 0
M  V30 15075 H 1411.17 -1.82988 2.67015 0
M  V30 15076 H 1410.08 0.228816 3.734 0
M  V30 15077 H 1411.41 0.281398 4.91395 0
M  V30 15078 N 1413.06 -1.53996 0.335095 0
M  V30 15079 C 1414.31 -2.01069 -0.264388 0
M  V30 15080 C 1414.64 -1.22271 -1.50876 0
M  V30 15081 O 1413.92 -0.30806 -1.92045 0
M  V30 15082 C 1414.2 -3.55283 -0.587 0
M  V30 15083 C 1414.05 -4.44799 0.668877 0
M  V30 15084 C 1415.37 -4.17238 -1.40003 0
M  V30 15085 H 1412.49 -0.730901 -0.0946202 0
M  V30 15086 H 1415.13 -1.84497 0.453958 0
M  V30 15087 H 1413.28 -3.69536 -1.19899 0
M  V30 15088 H 1414.96 -4.42398 1.30698 0
M  V30 15089 H 1413.2 -4.14005 1.29547 0
M  V30 15090 H 1413.87 -5.5056 0.398523 0
M  V30 15091 H 1416.35 -4.06631 -0.88262 0
M  V30 15092 H 1415.22 -5.2523 -1.59451 0
M  V30 15093 H 1415.48 -3.71309 -2.39962 0
M  V30 15094 N 1414.54 -0.0635198 -1.57472 0
M  V30 15095 C 1415.79 0.608384 -1.93459 0
M  V30 15096 C 1416.12 1.6976 -0.943141 0
M  V30 15097 O 1415.4 1.94478 0.0289567 0
M  V30 15098 C 1415.68 1.19302 -3.39763 0
M  V30 15099 C 1415.53 0.11102 -4.49663 0
M  V30 15100 C 1416.85 2.101 -3.86712 0
M  V30 15101 H 1413.97 0.219688 -0.703496 0
M  V30 15102 H 1416.61 -0.127803 -1.8957 0
M  V30 15103 H 1414.76 1.82044 -3.43209 0
M  V30 15104 H 1416.43 -0.521606 -4.58342 0
M  V30 15105 H 1414.68 -0.559408 -4.30178 0
M  V30 15106 H 1415.35 0.560332 -5.49149 0
M  V30 15107 H 1417.82 1.57305 -3.8522 0
M  V30 15108 H 1416.7 2.47945 -4.89708 0
M  V30 15109 H 1416.96 3.00603 -3.24177 0
M  V30 15110 N 1416.02 1.56195 0.209972 0
M  V30 15111 C 1416.95 1.96378 1.26324 0
M  V30 15112 C 1417.93 0.833606 1.48273 0
M  V30 15113 O 1419.12 1.0968 1.60262 0
M  V30 15114 C 1416.25 2.29048 2.61064 0
M  V30 15115 C 1415.2 3.44665 2.53752 0
M  V30 15116 C 1414.53 3.6297 3.92628 0
M  V30 15117 C 1415.83 4.79297 2.07536 0
M  V30 15118 H 1417.52 2.8461 0.929379 0
M  V30 15119 H 1415.07 1.36931 0.445627 0
M  V30 15120 H 1417.02 2.55752 3.34916 0
M  V30 15121 H 1415.74 1.37682 2.96161 0
M  V30 15122 H 1414.4 3.18028 1.82356 0
M  V30 15123 H 1414.05 2.68961 4.25052 0
M  V30 15124 H 1413.75 4.40741 3.88614 0
M  V30 15125 H 1415.27 3.92035 4.68125 0
M  V30 15126 H 1416.69 5.05131 2.71138 0
M  V30 15127 H 1415.08 5.60433 2.14557 0
M  V30 15128 H 1416.15 4.73877 1.02802 0
M  V30 15129 N 1417.5 -0.477127 1.50204 0
M  V30 15130 C 1418.43 -1.59319 1.64773 0
M  V30 15131 C 1419.44 -1.53951 0.529427 0
M  V30 15132 O 1420.63 -1.59449 0.802388 0
M  V30 15133 C 1417.73 -2.98185 1.61055 0
M  V30 15134 C 1416.9 -3.28486 2.88817 0
M  V30 15135 C 1415.96 -4.46878 2.77825 0
M  V30 15136 O 1414.99 -4.47483 3.51778 0
M  V30 15137 N 1416.19 -5.48187 1.90974 0
M  V30 15138 H 1418.96 -1.4724 2.61037 0
M  V30 15139 H 1416.52 -0.66544 1.47592 0
M  V30 15140 H 1418.51 -3.75345 1.51323 0
M  V30 15141 H 1417.08 -3.04064 0.725509 0
M  V30 15142 H 1416.3 -2.39997 3.12722 0
M  V30 15143 H 1417.59 -3.4554 3.7347 0
M  V30 15144 H 1416.99 -5.50515 1.30192 0
M  V30 15145 H 1415.54 -6.24355 1.87148 0
M  V30 15146 N 1418.98 -1.3968 -0.729882 0
M  V30 15147 C 1420.22 -1.38389 -1.49064 0
M  V30 15148 C 1420.58 0.0186997 -1.92391 0
M  V30 15149 O 1419.87 0.986266 -1.64266 0
M  V30 15150 C 1420.06 -2.29499 -2.7398 0
M  V30 15151 C 1419.89 -3.78478 -2.42868 0
M  V30 15152 C 1418.66 -4.47375 -2.34911 0
M  V30 15153 C 1420.86 -4.70329 -2.08074 0
M  V30 15154 N 1418.84 -5.81662 -1.96324 0
M  V30 15155 C 1420.21 -5.93305 -1.79971 0
M  V30 15156 C 1422.27 -4.58302 -1.94586 0
M  V30 15157 C 1420.97 -7.05596 -1.3974 0
M  V30 15158 C 1423 -5.7052 -1.55758 0
M  V30 15159 C 1422.36 -6.92572 -1.28544 0
M  V30 15160 H 1418.46 -0.56167 -0.544106 0
M  V30 15161 H 1421.04 -1.75273 -0.847782 0
M  V30 15162 H 1419.21 -1.94765 -3.36037 0
M  V30 15163 H 1420.95 -2.19166 -3.40218 0
M  V30 15164 H 1417.7 -4.00878 -2.52178 0
M  V30 15165 H 1418.13 -6.5274 -1.79608 0
M  V30 15166 H 1422.77 -3.6447 -2.14292 0
M  V30 15167 H 1420.49 -7.99323 -1.18776 0
M  V30 15168 H 1424.07 -5.63204 -1.45921 0
M  V30 15169 H 1422.95 -7.77932 -0.989491 0
M  V30 15170 N 1420.45 0.960609 -1.2494 0
M  V30 15171 C 1421.7 1.70448 -1.09333 0
M  V30 15172 C 1422.03 1.91012 0.366687 0
M  V30 15173 O 1421.28 1.4743 1.28697 0
M  V30 15174 C 1421.58 3.09564 -1.78619 0
M  V30 15175 C 1421.25 3.08819 -3.28545 0
M  V30 15176 C 1419.91 3.08323 -3.69446 0
M  V30 15177 C 1422.26 3.02606 -4.24357 0
M  V30 15178 C 1419.59 2.99356 -5.04582 0
M  V30 15179 C 1421.94 2.9518 -5.5951 0
M  V30 15180 C 1420.61 2.93017 -5.99748 0
M  V30 15181 H 1419.88 0.623714 -0.400078 0
M  V30 15182 H 1422.52 1.12273 -1.55136 0
M  V30 15183 H 1420.83 3.71247 -1.2523 0
M  V30 15184 H 1422.53 3.6593 -1.64001 0
M  V30 15185 H 1419.12 3.09974 -2.95997 0
M  V30 15186 H 1423.3 3.02113 -3.93753 0
M  V30 15187 H 1418.56 2.96046 -5.34946 0
M  V30 15188 H 1422.73 2.89333 -6.3345 0
M  V30 15189 H 1420.36 2.85824 -7.04421 0
M  V30 15190 N 1421.93 1.0643 1.16234 0
M  V30 15191 C 1423.16 0.802644 1.90697 0
M  V30 15192 C 1423.58 -0.643145 1.77508 0
M  V30 15193 O 1422.93 -1.4404 1.12065 0
M  V30 15194 C 1422.98 1.18984 3.41358 0
M  V30 15195 O 1422.7 2.5789 3.54153 0
M  V30 15196 C 1424.21 0.956132 4.32866 0
M  V30 15197 H 1421.43 0.290891 0.604668 0
M  V30 15198 H 1423.97 1.41829 1.47325 0
M  V30 15199 H 1422.12 0.618703 3.82428 0
M  V30 15200 H 1422.54 2.73431 4.47589 0
M  V30 15201 H 1424.01 1.27667 5.37034 0
M  V30 15202 H 1424.49 -0.108062 4.39067 0
M  V30 15203 H 1425.1 1.51172 3.97526 0
M  V30 15204 N 1423.41 -1.329 0.847073 0
M  V30 15205 C 1424.32 -2.32815 0.288878 0
M  V30 15206 C 1425.34 -1.63715 -0.589363 0
M  V30 15207 O 1426.51 -1.9531 -0.491537 0
M  V30 15208 C 1423.58 -3.42778 -0.519988 0
M  V30 15209 C 1422.64 -4.27584 0.383496 0
M  V30 15210 C 1421.87 -5.32296 -0.386862 0
M  V30 15211 O 1422.09 -5.4698 -1.61768 0
M  V30 15212 O 1421.03 -6.01408 0.2434 0
M  V30 15213 H 1424.85 -2.82434 1.11647 0
M  V30 15214 H 1422.44 -1.36388 0.609807 0
M  V30 15215 H 1424.32 -4.09862 -0.979357 0
M  V30 15216 H 1423 -2.95362 -1.3245 0
M  V30 15217 H 1421.9 -3.63338 0.890879 0
M  V30 15218 H 1423.24 -4.78505 1.15299 0
M  V30 15219 N 1424.89 -0.604284 -1.45555 0
M  V30 15220 C 1425.84 0.129013 -2.32242 0
M  V30 15221 C 1426.83 0.862933 -1.45773 0
M  V30 15222 O 1428.04 0.778874 -1.62276 0
M  V30 15223 H 1424.41 0.0604661 -0.749565 0
M  V30 15224 H 1426.38 -0.620603 -2.91875 0
M  V30 15225 C 1425.13 1.11516 -3.29332 0
M  V30 15226 H 1424.45 0.559849 -3.95861 0
M  V30 15227 H 1425.89 1.59824 -3.92724 0
M  V30 15228 C 1424.35 2.18706 -2.5626 0
M  V30 15229 O 1424.88 3.26397 -2.34154 0
M  V30 15230 N 1423.09 1.93899 -2.16452 0
M  V30 15231 H 1422.64 1.0633 -2.34631 0
M  V30 15232 H 1422.59 2.65824 -1.67884 0
M  V30 15233 N 1426.37 1.53816 -0.343257 0
M  V30 15234 C 1427.59 2.05796 0.257418 0
M  V30 15235 C 1428.02 1.2166 1.43459 0
M  V30 15236 O 1427.37 0.230278 1.79832 0
M  V30 15237 C 1427.42 3.54681 0.65068 0
M  V30 15238 O 1426.53 3.73394 1.75074 0
M  V30 15239 H 1425.87 0.662622 0.042757 0
M  V30 15240 H 1428.4 1.98462 -0.497386 0
M  V30 15241 H 1428.41 3.97308 0.927914 0
M  V30 15242 H 1427.08 4.15368 -0.210199 0
M  V30 15243 H 1425.66 3.42669 1.4708 0
M  V30 15244 N 1427.84 0.0718701 1.57436 0
M  V30 15245 C 1428.79 -0.895335 2.12726 0
M  V30 15246 C 1429.76 -1.29528 1.03979 0
M  V30 15247 O 1430.95 -1.38113 1.31642 0
M  V30 15248 C 1428.09 -2.15755 2.6934 0
M  V30 15249 C 1427.2 -1.81023 3.92243 0
M  V30 15250 C 1426.33 -3.01856 4.371 0
M  V30 15251 C 1425.37 -2.63141 5.52651 0
M  V30 15252 N 1424.51 -3.76734 5.92466 0
M  V30 15253 H 1429.35 -0.416964 2.95068 0
M  V30 15254 H 1426.89 -0.194165 1.45813 0
M  V30 15255 H 1428.85 -2.89642 3.00272 0
M  V30 15256 H 1427.48 -2.61132 1.89762 0
M  V30 15257 H 1426.53 -0.971983 3.67773 0
M  V30 15258 H 1427.84 -1.4854 4.76169 0
M  V30 15259 H 1426.99 -3.84022 4.69694 0
M  V30 15260 H 1425.73 -3.37533 3.52027 0
M  V30 15261 H 1424.74 -1.79397 5.19708 0
M  V30 15262 H 1425.96 -2.28635 6.39455 0
M  V30 15263 H 1423.91 -4.12173 5.10343 0
M  V30 15264 H 1423.83 -3.48019 6.71132 0
M  V30 15265 H 1425.09 -4.59479 6.29682 0
M  V30 15266 O 1429.36 -1.61354 -0.068754 0
M  V30 15267 H 1430.05 -1.8083 -0.694278 0
M  V30 END ATOM
M  V30 BEGIN BOND
M  V30 END BOND
M  V30 END CTAB
M  END
$$$$
