drugbank_target|P09012 U1 small nuclear ribonucleoprotein A (DB02175)
 OpenBabel12092120243D

  0  0  0     0  0            999 V3000
M  V30 BEGIN CTAB
M  V30 COUNTS 4440 4499 0 0 0
M  V30 BEGIN ATOM
M  V30 1 H -0.908 1.98254 -0.117106 0
M  V30 2 N 0 1.576 0 0
M  V30 3 C 0.933 2.03868 1.02534 0
M  V30 4 C 1.911 0.928543 1.3348 0
M  V30 5 O 3.095 1.19667 1.45644 0
M  V30 6 C 0.222 2.43627 2.35294 0
M  V30 7 C -0.732 3.65373 2.2001 0
M  V30 8 S 0.101 5.13292 1.52614 0
M  V30 9 C 1.257 5.56322 2.86805 0
M  V30 10 H 1.49 2.90518 0.631377 0
M  V30 11 H -0.977 1.52953 0.210867 0
M  V30 12 H 0.981 2.67203 3.11629 0
M  V30 13 H -0.358 1.57376 2.7183 0
M  V30 14 H -1.165 3.90944 3.18086 0
M  V30 15 H -1.563 3.418 1.51819 0
M  V30 16 H 0.729 5.58782 3.83104 0
M  V30 17 H 1.672 6.56266 2.65933 0
M  V30 18 H 2.08 4.83886 2.90714 0
M  V30 19 N 1.4781 -0.272755 1.55222 0
M  V30 20 C 2.4411 -1.32041 1.87344 0
M  V30 21 C 3.4411 -1.42342 0.74803 0
M  V30 22 O 4.6311 -1.41488 1.0162 0
M  V30 23 C 1.7631 -2.70173 2.07893 0
M  V30 24 H 2.9561 -1.04789 2.80997 0
M  V30 25 H 0.5091 -0.51083 1.47717 0
M  V30 26 H 1.2441 -3.02605 1.16622 0
M  V30 27 H 1.0291 -2.64082 2.89833 0
M  V30 28 H 2.5191 -3.45869 2.34017 0
M  V30 29 N 2.9562 -1.48159 -0.537278 0
M  V30 30 C 4.2022 -1.56035 -1.29541 0
M  V30 31 C 4.5352 -0.230377 -1.92829 0
M  V30 32 O 3.8102 0.762952 -1.78911 0
M  V30 33 C 4.0932 -2.69323 -2.39034 0
M  V30 34 C 3.9462 -4.12002 -1.80485 0
M  V30 35 C 5.2652 -2.78408 -3.40847 0
M  V30 36 H 2.3842 -0.567992 -0.469632 0
M  V30 37 H 5.0262 -1.80302 -0.599277 0
M  V30 38 H 3.1762 -2.48763 -2.98412 0
M  V30 39 H 4.8482 -4.43981 -1.25215 0
M  V30 40 H 3.0912 -4.19344 -1.11055 0
M  V30 41 H 3.7622 -4.87077 -2.59731 0
M  V30 42 H 6.2382 -2.97012 -2.91416 0
M  V30 43 H 5.1142 -3.59416 -4.14863 0
M  V30 44 H 5.3752 -1.86269 -4.00944 0
M  V30 45 N 4.4343 0.785586 -1.36625 0
M  V30 46 C 5.8453 1.36101 -1.27803 0
M  V30 47 C 6.1963 1.96035 0.0804875 0
M  V30 48 O 5.3213 1.92834 0.982042 0
M  V30 49 C 5.9163 2.47442 -2.31426 0
M  V30 50 C 4.4753 3.00789 -2.26281 0
M  V30 51 C 3.6223 1.73896 -2.15999 0
M  V30 52 H 6.5733 0.586928 -1.47448 0
M  V30 53 H 6.5943 3.2656 -1.95291 0
M  V30 54 H 6.1063 2.03791 -3.30289 0
M  V30 55 H 4.2073 3.48851 -1.30896 0
M  V30 56 H 4.3203 3.57343 -3.19128 0
M  V30 57 H 2.6843 1.9628 -1.62316 0
M  V30 58 H 3.4673 1.32368 -3.16755 0
M  V30 59 N 5.9124 1.20967 1.01018 0
M  V30 60 C 6.8224 0.980157 2.13143 0
M  V30 61 C 7.8384 -0.0660665 1.73875 0
M  V30 62 O 9.0144 0.122821 2.01025 0
M  V30 63 C 6.0794 0.54216 3.42435 0
M  V30 64 C 5.1404 1.65999 3.95908 0
M  V30 65 C 4.3734 1.2428 5.19028 0
M  V30 66 O 4.5964 0.114196 5.70286 0
M  V30 67 O 3.5304 2.05271 5.65816 0
M  V30 68 H 7.3564 1.91913 2.35379 0
M  V30 69 H 4.9414 0.994099 1.11526 0
M  V30 70 H 6.8234 0.30744 4.20277 0
M  V30 71 H 5.4984 -0.36815 3.216 0
M  V30 72 H 4.4054 1.94906 3.19316 0
M  V30 73 H 5.7384 2.54753 4.21143 0
M  V30 74 N 7.3905 -1.2043 1.01659 0
M  V30 75 C 8.6185 -1.93777 0.725132 0
M  V30 76 C 9.0335 -1.74772 -0.714166 0
M  V30 77 O 8.3905 -1.06169 -1.4844 0
M  V30 78 C 8.4415 -3.45876 1.05129 0
M  V30 79 O 8.1625 -3.6426 2.43406 0
M  V30 80 C 9.6635 -4.36368 0.780891 0
M  V30 81 H 6.8835 -0.615901 0.266284 0
M  V30 82 H 9.4275 -1.52922 1.35776 0
M  V30 83 H 7.5825 -3.8461 0.464065 0
M  V30 84 H 7.9965 -4.58246 2.55169 0
M  V30 85 H 9.4705 -5.41743 1.05918 0
M  V30 86 H 9.9475 -4.38275 -0.284937 0
M  V30 87 H 10.5535 -4.03296 1.35027 0
M  V30 88 N 8.8686 -0.792821 -1.36206 0
M  V30 89 C 10.2846 -0.474903 -1.52371 0
M  V30 90 C 10.4846 1.00622 -1.74578 0
M  V30 91 O 9.5406 1.79162 -1.77924 0
M  V30 92 C 10.8536 -1.3083 -2.70747 0
M  V30 93 C 12.4016 -1.30234 -2.84619 0
M  V30 94 C 12.8766 -2.11956 -4.06004 0
M  V30 95 N 14.3676 -2.09419 -4.13156 0
M  V30 96 C 15.1026 -2.69419 -5.06163 0
M  V30 97 N 14.5986 -3.3829 -6.04592 0
M  V30 98 N 16.3916 -2.59134 -4.98804 0
M  V30 99 H 8.5426 -1.75222 -1.20046 0
M  V30 100 H 10.8056 -0.745024 -0.586211 0
M  V30 101 H 10.5116 -2.35881 -2.6087 0
M  V30 102 H 10.3856 -0.95196 -3.6499 0
M  V30 103 H 12.7726 -0.259748 -2.93955 0
M  V30 104 H 12.8536 -1.69847 -1.91274 0
M  V30 105 H 12.4976 -3.16248 -3.97429 0
M  V30 106 H 12.4276 -1.69711 -4.98503 0
M  V30 107 H 14.9186 -1.59297 -3.42685 0
M  V30 108 H 15.2316 -3.81394 -6.7213 0
M  V30 109 H 13.5766 -3.42393 -6.04807 0
M  V30 110 H 16.7676 -2.04927 -4.20859 0
M  V30 111 H 16.9406 -3.06185 -5.711 0
M  V30 112 N 10.3467 1.47872 -0.545128 0
M  V30 113 C 11.7577 1.86384 -0.108581 0
M  V30 114 C 12.1087 1.45309 1.31832 0
M  V30 115 O 11.2337 0.850641 1.9898 0
M  V30 116 C 11.8287 3.38265 -0.190274 0
M  V30 117 C 10.3877 3.75914 0.191164 0
M  V30 118 C 9.5347 2.71926 -0.543273 0
M  V30 119 H 12.4857 1.39561 -0.755537 0
M  V30 120 H 12.5067 3.75831 0.594217 0
M  V30 121 H 12.0187 3.6813 -1.2289 0
M  V30 122 H 10.1197 3.51665 1.23136 0
M  V30 123 H 10.2327 4.78836 -0.158987 0
M  V30 124 H 8.5967 2.54697 0.0122495 0
M  V30 125 H 9.3797 3.04634 -1.58282 0
M  V30 126 N 11.8248 0.280983 1.55075 0
M  V30 127 C 12.7728 -0.619864 2.24188 0
M  V30 128 C 13.7668 -1.15315 1.24092 0
M  V30 129 O 14.9728 -1.1061 1.42005 0
M  V30 130 H 11.3478 -0.218459 0.719569 0
M  V30 131 H 13.3188 -0.0141831 2.98397 0
M  V30 132 C 12.0678 -1.7899 2.98091 0
M  V30 133 H 11.3908 -1.38874 3.74905 0
M  V30 134 H 12.8308 -2.39672 3.49762 0
M  V30 135 C 11.2898 -2.68192 2.03899 0
M  V30 136 O 11.8198 -3.6872 1.594 0
M  V30 137 N 10.0258 -2.35488 1.70275 0
M  V30 138 H 9.5728 -1.53787 2.06658 0
M  V30 139 H 9.5308 -2.95442 1.07524 0
M  V30 140 N 13.3029 -1.57598 0.00835791 0
M  V30 141 C 14.2529 -2.05431 -0.989045 0
M  V30 142 C 15.2369 -0.950662 -1.29812 0
M  V30 143 O 16.4289 -1.21438 -1.28771 0
M  V30 144 C 13.5579 -2.56801 -2.27833 0
M  V30 145 C 12.6439 -3.74058 -1.99853 0
M  V30 146 N 13.0349 -4.8544 -1.42062 0
M  V30 147 C 11.3329 -3.82148 -2.29953 0
M  V30 148 C 12.0339 -5.66817 -1.30743 0
M  V30 149 N 11.0099 -5.13077 -1.7959 0
M  V30 150 H 14.8119 -2.88955 -0.536853 0
M  V30 151 H 12.3259 -1.61199 -0.197148 0
M  V30 152 H 14.3229 -2.89349 -3.00137 0
M  V30 153 H 12.9829 -1.74699 -2.73698 0
M  V30 154 H 13.9939 -5.0612 -1.09833 0
M  V30 155 H 10.6709 -3.10916 -2.78635 0
M  V30 156 H 12.0609 -6.66343 -0.862328 0
M  V30 157 N 14.781 0.264519 -1.55364 0
M  V30 158 C 16.009 1.013 -1.80405 0
M  V30 159 C 16.424 1.79618 -0.581622 0
M  V30 160 O 15.781 1.76879 0.449468 0
M  V30 161 C 15.832 1.96487 -3.03439 0
M  V30 162 O 15.553 1.21341 -4.20961 0
M  V30 163 C 17.054 2.83079 -3.41147 0
M  V30 164 H 14.274 0.298875 -0.600762 0
M  V30 165 H 16.818 0.292736 -2.02394 0
M  V30 166 H 14.973 2.63965 -2.83551 0
M  V30 167 H 15.387 1.85573 -4.90574 0
M  V30 168 H 16.861 3.4565 -4.30384 0
M  V30 169 H 17.338 3.53286 -2.60932 0
M  V30 170 H 17.944 2.2108 -3.63323 0
M  V30 171 N 16.2591 1.48442 0.529413 0
M  V30 172 C 17.5081 1.55742 1.28169 0
M  V30 173 C 17.8211 0.236511 1.94165 0
M  V30 174 O 19.0271 0.187761 2.7085 0
M  V30 175 C 17.4831 2.74667 2.32564 0
M  V30 176 C 17.0911 4.13402 1.72636 0
M  V30 177 C 18.8351 2.9128 3.08798 0
M  V30 178 C 16.7421 5.23587 2.74975 0
M  V30 179 H 15.6721 0.579796 0.48203 0
M  V30 180 H 18.3231 1.74776 0.559056 0
M  V30 181 H 16.7051 2.49067 3.07866 0
M  V30 182 H 17.8791 4.49022 1.03519 0
M  V30 183 H 16.1941 4.0191 1.08892 0
M  V30 184 H 18.7911 3.70767 3.85274 0
M  V30 185 H 19.1341 2.00757 3.64695 0
M  V30 186 H 19.6671 3.16782 2.40611 0
M  V30 187 H 16.4061 6.16076 2.23897 0
M  V30 188 H 15.9261 4.92454 3.42417 0
M  V30 189 H 17.6051 5.51724 3.37949 0
M  V30 190 N 17.7372 -0.778329 1.37039 0
M  V30 191 C 18.9672 -1.56507 1.34868 0
M  V30 192 C 19.3752 -1.89072 -0.0694802 0
M  V30 193 O 18.7182 -1.51434 -1.03987 0
M  V30 194 C 18.7802 -2.90641 2.11585 0
M  V30 195 C 18.4442 -2.80746 3.60598 0
M  V30 196 C 19.4412 -2.52226 4.54618 0
M  V30 197 C 17.1262 -2.98974 4.03633 0
M  V30 198 C 19.1202 -2.42054 5.89651 0
M  V30 199 C 16.8072 -2.88423 5.38754 0
M  V30 200 C 17.8052 -2.60002 6.31576 0
M  V30 201 O 17.4932 -2.49465 7.64214 0
M  V30 202 H 17.2252 -0.491723 0.463879 0
M  V30 203 H 19.7792 -0.973053 1.80889 0
M  V30 204 H 18.0092 -3.51936 1.60243 0
M  V30 205 H 19.6982 -3.51992 2.0213 0
M  V30 206 H 20.4642 -2.37835 4.22681 0
M  V30 207 H 16.3432 -3.20099 3.31749 0
M  V30 208 H 19.8872 -2.19791 6.62071 0
M  V30 209 H 15.7842 -3.0238 5.70295 0
M  V30 210 H 16.5522 -2.64864 7.74461 0
M  V30 211 N 19.2153 -1.21501 -1.00376 0
M  V30 212 C 20.4643 -1.02718 -1.73586 0
M  V30 213 C 20.7773 0.439589 -1.90596 0
M  V30 214 O 21.9833 0.746848 -2.61026 0
M  V30 215 C 20.4393 -1.78929 -3.1227 0
M  V30 216 C 20.0473 -3.29783 -3.03228 0
M  V30 217 C 21.7913 -1.68557 -3.89601 0
M  V30 218 C 19.6983 -3.98479 -4.36999 0
M  V30 219 H 18.6283 -0.380733 -0.650814 0
M  V30 220 H 21.2793 -1.45248 -1.1214 0
M  V30 221 H 19.6613 -1.29192 -3.74333 0
M  V30 222 H 20.8353 -3.86832 -2.50395 0
M  V30 223 H 19.1503 -3.40711 -2.39385 0
M  V30 224 H 21.7473 -2.17211 -4.88593 0
M  V30 225 H 22.0903 -0.644021 -4.11288 0
M  V30 226 H 22.6233 -2.15778 -3.34193 0
M  V30 227 H 19.3623 -5.02841 -4.20513 0
M  V30 228 H 18.8823 -3.46219 -4.89788 0
M  V30 229 H 20.5613 -4.03462 -5.05794 0
M  V30 230 N 20.6934 1.19889 -1.02296 0
M  V30 231 C 21.6414 2.24938 -0.592081 0
M  V30 232 C 22.6354 1.65257 0.372357 0
M  V30 233 O 23.8414 1.78371 0.241583 0
M  V30 234 H 20.2164 0.731787 -0.173182 0
M  V30 235 H 22.1874 2.58603 -1.48885 0
M  V30 236 C 20.9364 3.47668 0.047351 0
M  V30 237 H 20.2594 3.93875 -0.685772 0
M  V30 238 H 21.6994 4.22852 0.311862 0
M  V30 239 C 20.1584 3.11136 1.29212 0
M  V30 240 O 20.6884 3.2325 2.38479 0
M  V30 241 N 18.8944 2.65625 1.17863 0
M  V30 242 H 18.4414 2.55968 0.289493 0
M  V30 243 H 18.3994 2.41553 2.01245 0
M  V30 244 N 22.1715 0.800033 1.35784 0
M  V30 245 C 23.1195 0.193851 2.31791 0
M  V30 246 C 24.1135 -0.652744 1.56319 0
M  V30 247 O 25.3195 -0.546641 1.71499 0
M  V30 248 H 21.6945 0.04392 0.750716 0
M  V30 249 H 23.6655 1.01883 2.80468 0
M  V30 250 C 22.4145 -0.648338 3.41602 0
M  V30 251 H 21.7375 -0.00624665 3.998 0
M  V30 252 H 23.1775 -1.03898 4.11073 0
M  V30 253 C 21.6365 -1.8111 2.84079 0
M  V30 254 O 22.1665 -2.90825 2.77099 0
M  V30 255 N 20.3725 -1.62056 2.41218 0
M  V30 256 H 19.9195 -0.728123 2.47095 0
M  V30 257 H 19.8775 -2.40013 2.03079 0
M  V30 258 N 23.6496 -1.47581 0.552962 0
M  V30 259 C 24.5796 -2.32762 -0.185451 0
M  V30 260 C 25.5606 -1.43527 -0.912905 0
M  V30 261 O 26.7456 -1.72388 -0.894201 0
M  V30 262 C 23.8756 -3.25219 -1.21859 0
M  V30 263 C 22.8296 -4.23661 -0.607864 0
M  V30 264 C 22.1556 -5.05413 -1.74533 0
M  V30 265 C 23.4556 -5.20481 0.435582 0
M  V30 266 H 25.1496 -2.94749 0.525684 0
M  V30 267 H 22.6956 -1.41738 0.254251 0
M  V30 268 H 24.6486 -3.8365 -1.7433 0
M  V30 269 H 23.3726 -2.61279 -1.95961 0
M  V30 270 H 22.0316 -3.66451 -0.104489 0
M  V30 271 H 21.6796 -4.3788 -2.47529 0
M  V30 272 H 21.3796 -5.72059 -1.34249 0
M  V30 273 H 22.9036 -5.66701 -2.27338 0
M  V30 274 H 24.3176 -5.733 -0.00290157 0
M  V30 275 H 22.7146 -5.95305 0.757067 0
M  V30 276 H 23.7846 -4.66217 1.33303 0
M  V30 277 N 25.1277 -0.289203 -1.54924 0
M  V30 278 C 26.0757 0.607966 -2.24514 0
M  V30 279 C 27.0697 1.14655 -1.24702 0
M  V30 280 O 28.2757 1.09856 -1.4259 0
M  V30 281 H 24.6507 0.21464 -0.720718 0
M  V30 282 H 26.6217 -0.00164182 -2.984 0
M  V30 283 C 25.3707 1.77406 -2.99036 0
M  V30 284 H 24.6937 1.36884 -3.75637 0
M  V30 285 H 26.1337 2.37814 -3.51028 0
M  V30 286 C 24.5927 2.67107 -2.05318 0
M  V30 287 O 25.1227 3.6787 -1.61353 0
M  V30 288 N 23.3287 2.34582 -1.71521 0
M  V30 289 H 22.8757 1.52688 -2.07471 0
M  V30 290 H 22.8337 2.94867 -1.0909 0
M  V30 291 N 26.6058 1.57591 -0.0167156 0
M  V30 292 C 27.5158 2.1291 0.98521 0
M  V30 293 C 28.5318 1.07834 1.36557 0
M  V30 294 O 29.7078 1.39826 1.44951 0
M  V30 295 C 26.7728 2.63512 2.25305 0
M  V30 296 C 25.8338 3.83256 1.93426 0
M  V30 297 C 25.0668 4.31435 3.14165 0
M  V30 298 O 25.2898 3.78851 4.26413 0
M  V30 299 O 24.2238 5.23416 2.97186 0
M  V30 300 H 28.0498 2.98772 0.544888 0
M  V30 301 H 25.6348 1.48012 0.203141 0
M  V30 302 H 27.5168 2.96183 2.99756 0
M  V30 303 H 26.1918 1.8074 2.68542 0
M  V30 304 H 25.0988 3.55531 1.16398 0
M  V30 305 H 26.4318 4.67153 1.55013 0
M  V30 306 N 28.0839 -0.256276 1.55502 0
M  V30 307 C 29.0309 -1.31714 1.89526 0
M  V30 308 C 30.0009 -1.4828 0.748479 0
M  V30 309 O 31.1859 -1.62416 1.00128 0
M  V30 310 C 28.3259 -2.66933 2.18725 0
M  V30 311 C 27.4389 -2.58452 3.4616 0
M  V30 312 C 26.5739 -3.85961 3.64976 0
M  V30 313 C 25.6129 -3.72059 4.86044 0
M  V30 314 N 24.7499 -4.9144 5.01429 0
M  V30 315 H 29.5899 -1.01998 2.80001 0
M  V30 316 H 27.1269 -0.492413 1.38613 0
M  V30 317 H 29.0849 -3.4563 2.33657 0
M  V30 318 H 27.7149 -2.94816 1.31466 0
M  V30 319 H 26.7669 -1.71374 3.3961 0
M  V30 320 H 28.0789 -2.44085 4.34999 0
M  V30 321 H 27.2329 -4.73101 3.79816 0
M  V30 322 H 25.9719 -4.03215 2.74353 0
M  V30 323 H 24.9769 -2.83302 4.7119 0
M  V30 324 H 26.2019 -3.56309 5.78118 0
M  V30 325 H 24.1479 -5.09072 4.13741 0
M  V30 326 H 24.0649 -4.79668 5.84341 0
M  V30 327 H 25.3329 -5.80104 5.20672 0
M  V30 328 N 29.562 -1.4872 -0.521534 0
M  V30 329 C 30.811 -1.56419 -1.27341 0
M  V30 330 C 31.124 -0.246805 -1.94037 0
M  V30 331 O 32.33 -0.202122 -2.70747 0
M  V30 332 C 30.786 -2.75896 -2.31105 0
M  V30 333 C 30.394 -4.14311 -1.70441 0
M  V30 334 C 32.138 -2.92913 -3.07249 0
M  V30 335 C 30.045 -5.25038 -2.72194 0
M  V30 336 H 28.975 -0.582344 -0.478949 0
M  V30 337 H 31.626 -1.75071 -0.549779 0
M  V30 338 H 30.008 -2.50697 -3.06541 0
M  V30 339 H 31.182 -4.49564 -1.01136 0
M  V30 340 H 29.497 -4.02482 -1.06759 0
M  V30 341 H 32.094 -3.72805 -3.83302 0
M  V30 342 H 32.437 -2.02689 -3.63625 0
M  V30 343 H 32.97 -3.18054 -2.38928 0
M  V30 344 H 29.709 -6.17255 -2.20627 0
M  V30 345 H 29.229 -4.94263 -3.39801 0
M  V30 346 H 30.908 -5.53508 -3.35019 0
M  V30 347 N 31.0401 0.771051 -1.3745 0
M  V30 348 C 31.9871 1.88435 -1.3327 0
M  V30 349 C 32.9571 1.64914 -0.198136 0
M  V30 350 O 34.1421 1.86821 -0.387606 0
M  V30 351 C 31.2821 3.25509 -1.14622 0
M  V30 352 C 30.3951 3.60979 -2.37314 0
M  V30 353 C 29.5301 4.87265 -2.11533 0
M  V30 354 C 28.5691 5.15469 -3.30088 0
M  V30 355 N 27.7061 6.32944 -3.03853 0
M  V30 356 H 32.5461 1.91344 -2.28455 0
M  V30 357 H 30.0831 0.935466 -1.13523 0
M  V30 358 H 32.0411 4.04582 -1.01831 0
M  V30 359 H 30.6711 3.21974 -0.230837 0
M  V30 360 H 29.7231 2.76885 -2.60842 0
M  V30 361 H 31.0351 3.77759 -3.25729 0
M  V30 362 H 30.1891 5.74244 -1.95777 0
M  V30 363 H 28.9281 4.7259 -1.20457 0
M  V30 364 H 27.9331 4.26966 -3.46382 0
M  V30 365 H 29.1581 5.32052 -4.22016 0
M  V30 366 H 27.1041 6.19625 -2.15407 0
M  V30 367 H 27.0211 6.50143 -3.85812 0
M  V30 368 H 28.2891 7.22857 -2.91716 0
M  V30 369 N 32.5182 1.22032 0.997298 0
M  V30 370 C 33.4652 0.986467 2.08656 0
M  V30 371 C 34.4352 -0.0902671 1.65855 0
M  V30 372 O 35.6202 0.0584294 1.90711 0
M  V30 373 C 32.7602 0.565569 3.40434 0
M  V30 374 C 31.8732 1.71259 3.96604 0
M  V30 375 C 31.0082 1.24011 5.16522 0
M  V30 376 C 30.0472 2.35896 5.64818 0
M  V30 377 N 29.1842 1.89726 6.7598 0
M  V30 378 H 34.0242 1.91892 2.27994 0
M  V30 379 H 31.5612 0.956199 1.11782 0
M  V30 380 H 33.5192 0.302738 4.161 0
M  V30 381 H 32.1492 -0.329879 3.2111 0
M  V30 382 H 31.2012 2.08986 3.17851 0
M  V30 383 H 32.5132 2.55436 4.28432 0
M  V30 384 H 31.6672 0.934395 5.99461 0
M  V30 385 H 30.4062 0.368487 4.86306 0
M  V30 386 H 29.4112 2.67261 4.8047 0
M  V30 387 H 30.6362 3.23567 5.97061 0
M  V30 388 H 28.5822 1.0492 6.47555 0
M  V30 389 H 28.4992 2.67471 7.07103 0
M  V30 390 H 29.7672 1.62211 7.62435 0
M  V30 391 N 33.9963 -1.19345 1.0293 0
M  V30 392 C 35.2733 -1.84811 0.640642 0
M  V30 393 C 35.6533 -1.91855 -0.88062 0
M  V30 394 O 35.0013 -1.43587 -1.7775 0
M  V30 395 C 35.2113 -3.23755 1.30321 0
M  V30 396 C 36.5593 -3.99912 1.42673 0
M  V30 397 O 37.5833 -3.33155 1.26041 0
M  V30 398 O 36.4423 -5.19494 1.6967 0
M  V30 399 H 33.5363 -0.796443 0.222726 0
M  V30 400 H 36.0823 -1.26831 1.12748 0
M  V30 401 H 34.8543 -3.13466 2.34211 0
M  V30 402 H 34.4773 -3.89381 0.804261 0
M  V30 403 N 35.4744 -0.807222 -1.35358 0
M  V30 404 C 36.3844 -0.219594 -2.3357 0
M  V30 405 C 37.4004 0.637734 -1.61892 0
M  V30 406 O 38.5764 0.549336 -1.93763 0
M  V30 407 C 35.6414 0.62158 -3.41083 0
M  V30 408 C 34.7024 -0.256315 -4.28534 0
M  V30 409 C 33.9354 0.544807 -5.30912 0
M  V30 410 O 34.1584 1.77944 -5.41934 0
M  V30 411 O 33.0924 -0.0646478 -6.01865 0
M  V30 412 H 36.9184 -1.03208 -2.85625 0
M  V30 413 H 34.5034 -0.569025 -1.38139 0
M  V30 414 H 36.3854 1.10067 -4.06772 0
M  V30 415 H 35.0604 1.41165 -2.91297 0
M  V30 416 H 33.9674 -0.782559 -3.65823 0
M  V30 417 H 35.3004 -1.01034 -4.81719 0
M  V30 418 N 36.9525 1.47285 -0.560781 0
M  V30 419 C 37.8825 2.32857 0.173105 0
M  V30 420 C 38.8635 1.44009 0.905281 0
M  V30 421 O 40.0485 1.7286 0.885046 0
M  V30 422 C 37.1785 3.25861 1.20133 0
M  V30 423 C 36.1325 4.23978 0.585388 0
M  V30 424 C 35.4585 5.06332 1.7185 0
M  V30 425 C 36.7585 5.20242 -0.463178 0
M  V30 426 H 38.4525 2.94466 -0.541307 0
M  V30 427 H 35.9985 1.41601 -0.261764 0
M  V30 428 H 37.9515 3.84569 1.72293 0
M  V30 429 H 36.6755 2.62315 1.94573 0
M  V30 430 H 35.3345 3.66501 0.085054 0
M  V30 431 H 34.9825 4.39186 2.45203 0
M  V30 432 H 34.6825 5.72762 1.31213 0
M  V30 433 H 36.2065 5.67899 2.24329 0
M  V30 434 H 37.6205 5.73293 -0.027502 0
M  V30 435 H 36.0175 5.94896 -0.788627 0
M  V30 436 H 37.0875 4.65504 -1.35773 0
M  V30 437 N 38.4306 0.297415 1.54768 0
M  V30 438 C 39.3776 -0.580276 2.23386 0
M  V30 439 C 40.3476 -1.13238 1.21517 0
M  V30 440 O 41.5326 -1.17757 1.50126 0
M  V30 441 C 38.6726 -1.74801 2.97555 0
M  V30 442 C 37.7856 -1.22764 4.1419 0
M  V30 443 C 36.9206 -2.35895 4.75949 0
M  V30 444 C 35.9596 -1.80974 5.84735 0
M  V30 445 N 35.0966 -2.87664 6.40464 0
M  V30 446 H 39.9366 0.0114833 2.97998 0
M  V30 447 H 37.4736 0.0174361 1.4709 0
M  V30 448 H 39.4316 -2.43475 3.38786 0
M  V30 449 H 38.0616 -2.31145 2.25326 0
M  V30 450 H 37.1136 -0.433271 3.77924 0
M  V30 451 H 38.4256 -0.785551 4.92575 0
M  V30 452 H 37.5796 -3.12523 5.20014 0
M  V30 453 H 36.3186 -2.83429 3.96887 0
M  V30 454 H 35.3236 -1.02834 5.40097 0
M  V30 455 H 36.5486 -1.34348 6.65678 0
M  V30 456 H 34.4946 -3.34538 5.64287 0
M  V30 457 H 34.4116 -2.4794 7.14186 0
M  V30 458 H 35.6796 -3.642 6.89187 0
M  V30 459 N 39.9087 -1.5758 0.0250728 0
M  V30 460 C 40.8557 -2.09973 -0.958129 0
M  V30 461 C 41.8257 -1.00085 -1.3256 0
M  V30 462 O 43.0107 -1.27481 -1.41962 0
M  V30 463 C 40.1507 -2.62812 -2.2366 0
M  V30 464 C 39.2637 -3.86693 -1.92594 0
M  V30 465 C 38.3987 -4.27941 -3.14707 0
M  V30 466 C 37.4377 -5.44591 -2.79442 0
M  V30 467 N 36.5747 -5.81014 -3.94167 0
M  V30 468 H 41.4147 -2.937 -0.504428 0
M  V30 469 H 38.9517 -1.45172 -0.237392 0
M  V30 470 H 40.9097 -2.91536 -2.98434 0
M  V30 471 H 39.5397 -1.81922 -2.66654 0
M  V30 472 H 38.5917 -3.64723 -1.0808 0
M  V30 473 H 39.9037 -4.71547 -1.62619 0
M  V30 474 H 39.0577 -4.58079 -3.97804 0
M  V30 475 H 37.7967 -3.41845 -3.4784 0
M  V30 476 H 36.8017 -5.1415 -1.94755 0
M  V30 477 H 38.0267 -6.32382 -2.47528 0
M  V30 478 H 35.9727 -4.97874 -4.2715 0
M  V30 479 H 35.8897 -6.60498 -3.67801 0
M  V30 480 H 37.1577 -6.15756 -4.7798 0
M  V30 481 N 41.3868 0.248026 -1.55636 0
M  V30 482 C 42.6118 0.998028 -1.81808 0
M  V30 483 C 43.0368 1.78207 -0.601979 0
M  V30 484 O 42.3948 1.75653 0.448961 0
M  V30 485 C 42.4428 1.9125 -3.05705 0
M  V30 486 O 41.5468 3.00406 -2.82542 0
M  V30 487 H 40.8878 0.284045 -0.600179 0
M  V30 488 H 43.4178 0.269357 -2.02819 0
M  V30 489 H 43.4278 2.32737 -3.35108 0
M  V30 490 H 42.1028 1.33602 -3.93857 0
M  V30 491 H 40.6798 2.63056 -2.64303 0
M  V30 492 N 42.8649 1.48995 0.513639 0
M  V30 493 C 43.7949 1.67636 1.62544 0
M  V30 494 C 44.7759 0.525087 1.61793 0
M  V30 495 O 45.9609 0.759502 1.78732 0
M  V30 496 C 43.0909 1.73114 3.01079 0
M  V30 497 C 42.0449 2.87905 3.16693 0
M  V30 498 C 41.3709 2.78486 4.56453 0
M  V30 499 C 42.6709 4.29005 2.97913 0
M  V30 500 H 44.3649 2.60716 1.47198 0
M  V30 501 H 41.9109 1.25465 0.706714 0
M  V30 502 H 43.8639 1.84742 3.78746 0
M  V30 503 H 42.5879 0.766241 3.17484 0
M  V30 504 H 41.2469 2.75859 2.41448 0
M  V30 505 H 40.8949 1.7993 4.69717 0
M  V30 506 H 40.5949 3.55523 4.67843 0
M  V30 507 H 42.1189 2.92104 5.36197 0
M  V30 508 H 43.5329 4.41798 3.65359 0
M  V30 509 H 41.9299 5.07166 3.20785 0
M  V30 510 H 42.9999 4.44329 1.94165 0
M  V30 511 N 44.343 -0.763751 1.37857 0
M  V30 512 C 45.573 -1.55067 1.3652 0
M  V30 513 C 45.981 -1.89135 -0.0494227 0
M  V30 514 O 45.324 -1.52529 -1.02375 0
M  V30 515 C 45.386 -2.8838 2.14656 0
M  V30 516 C 45.05 -2.76905 3.63555 0
M  V30 517 C 46.047 -2.4739 4.57268 0
M  V30 518 C 43.732 -2.94676 4.06781 0
M  V30 519 C 45.726 -2.35786 5.92186 0
M  V30 520 C 43.413 -2.82692 5.41782 0
M  V30 521 C 44.411 -2.53289 6.34298 0
M  V30 522 O 44.099 -2.41345 7.66817 0
M  V30 523 H 43.831 -0.486776 0.469069 0
M  V30 524 H 46.385 -0.953812 1.81911 0
M  V30 525 H 44.615 -3.50217 1.63967 0
M  V30 526 H 46.304 -3.49828 2.05852 0
M  V30 527 H 47.07 -2.33339 4.2518 0
M  V30 528 H 42.949 -3.16563 3.35126 0
M  V30 529 H 46.493 -2.12757 6.64365 0
M  V30 530 H 42.39 -2.96314 5.7347 0
M  V30 531 H 43.158 -2.56634 7.77226 0
M  V30 532 N 45.8211 -1.22559 -0.990812 0
M  V30 533 C 46.7841 -0.998863 -2.0629 0
M  V30 534 C 47.7841 0.0354834 -1.60761 0
M  V30 535 O 48.9741 -0.203231 -1.7301 0
M  V30 536 C 46.1061 -0.509203 -3.37076 0
M  V30 537 H 47.2991 -1.95014 -2.27837 0
M  V30 538 H 44.8521 -1.04456 -1.16269 0
M  V30 539 H 45.5871 0.446335 -3.21214 0
M  V30 540 H 45.3721 -1.25547 -3.71457 0
M  V30 541 H 46.8621 -0.370888 -4.1595 0
M  V30 542 N 47.2992 1.18797 -1.03562 0
M  V30 543 C 48.5482 1.87978 -0.731235 0
M  V30 544 C 48.8612 1.80911 0.743671 0
M  V30 545 O 50.0672 2.45407 1.16137 0
M  V30 546 C 48.5232 3.3721 -1.25768 0
M  V30 547 C 48.1312 3.52818 -2.76085 0
M  V30 548 C 49.8752 4.11825 -1.0296 0
M  V30 549 C 47.7822 4.9598 -3.22114 0
M  V30 550 H 46.7122 0.704063 -0.269835 0
M  V30 551 H 49.3632 1.34266 -1.25079 0
M  V30 552 H 47.7452 3.90359 -0.666011 0
M  V30 553 H 48.9192 3.09965 -3.40966 0
M  V30 554 H 47.2342 2.91602 -2.97249 0
M  V30 555 H 49.8312 5.17411 -1.34869 0
M  V30 556 H 50.1742 4.16287 0.0333546 0
M  V30 557 H 50.7072 3.64833 -1.58562 0
M  V30 558 H 47.4462 4.96684 -4.27768 0
M  V30 559 H 46.9662 5.39569 -2.61965 0
M  V30 560 H 48.6452 5.6467 -3.15844 0
M  V30 561 N 48.7773 0.814389 1.34928 0
M  V30 562 C 50.0243 0.398423 1.98542 0
M  V30 563 C 50.3523 -1.03638 1.64589 0
M  V30 564 O 49.6073 -1.73509 0.90516 0
M  V30 565 C 49.9063 0.537781 3.53331 0
M  V30 566 C 49.5723 1.93704 4.07172 0
M  V30 567 C 48.2343 2.31984 4.21589 0
M  V30 568 C 50.5863 2.85213 4.36237 0
M  V30 569 C 47.9143 3.61125 4.62391 0
M  V30 570 C 50.2663 4.13809 4.78482 0
M  V30 571 C 48.9303 4.52077 4.91104 0
M  V30 572 H 48.2003 0.145793 0.726516 0
M  V30 573 H 50.8473 1.03669 1.61012 0
M  V30 574 H 49.1523 -0.183906 3.91368 0
M  V30 575 H 50.8493 0.196588 4.00518 0
M  V30 576 H 47.4393 1.62966 3.96409 0
M  V30 577 H 51.6233 2.56885 4.24645 0
M  V30 578 H 46.8793 3.90612 4.70353 0
M  V30 579 H 51.0533 4.84811 4.99932 0
M  V30 580 H 48.6803 5.52196 5.22478 0
M  V30 581 N 50.2554 -1.46986 0.568584 0
M  V30 582 C 51.4804 -2.07335 0.0520528 0
M  V30 583 C 51.9054 -1.41675 -1.23733 0
M  V30 584 O 51.2634 -0.495623 -1.74394 0
M  V30 585 C 51.3114 -3.60417 -0.11501 0
M  V30 586 O 50.4154 -3.95309 -1.17492 0
M  V30 587 H 49.7564 -0.661597 0.0564385 0
M  V30 588 H 52.2864 -1.88837 0.787507 0
M  V30 589 H 52.2964 -4.06698 -0.325644 0
M  V30 590 H 50.9714 -4.07601 0.826675 0
M  V30 591 H 49.5484 -3.60757 -0.943869 0
M  V30 592 N 51.7335 -0.305618 -1.54608 0
M  V30 593 C 52.6655 0.602161 -2.21149 0
M  V30 594 C 53.6785 1.09394 -1.20569 0
M  V30 595 O 54.8675 1.0106 -1.47136 0
M  V30 596 C 51.9675 1.83692 -2.84799 0
M  V30 597 C 51.1405 1.48686 -4.11353 0
M  V30 598 C 50.1995 2.57725 -4.58764 0
M  V30 599 O 49.2255 2.22623 -5.23858 0
M  V30 600 N 50.4275 3.88346 -4.31471 0
M  V30 601 H 53.1925 0.0324966 -2.99682 0
M  V30 602 H 50.7535 -0.128021 -1.61393 0
M  V30 603 H 52.7455 2.55994 -3.13448 0
M  V30 604 H 51.3155 2.31486 -2.10078 0
M  V30 605 H 50.5355 0.596269 -3.89664 0
M  V30 606 H 51.8235 1.22842 -4.93748 0
M  V30 607 H 51.2215 4.19671 -3.79331 0
M  V30 608 H 49.7785 4.56932 -4.64818 0
M  V30 609 N 53.2116 1.57565 -0.0334293 0
M  V30 610 C 54.4586 1.91978 0.644272 0
M  V30 611 C 54.7866 0.910231 1.71887 0
M  V30 612 O 54.0416 -0.0801961 1.95536 0
M  V30 613 C 54.3406 3.33112 1.29504 0
M  V30 614 C 54.0066 4.49537 0.350388 0
M  V30 615 C 52.6686 4.81115 0.0903974 0
M  V30 616 C 55.0206 5.20347 -0.298032 0
M  V30 617 C 52.3486 5.8086 -0.825746 0
M  V30 618 C 54.7006 6.2107 -1.20226 0
M  V30 619 C 53.3646 6.51088 -1.4711 0
M  V30 620 H 52.6346 0.702496 0.235756 0
M  V30 621 H 55.2816 1.91259 -0.0961176 0
M  V30 622 H 53.5866 3.30113 2.11028 0
M  V30 623 H 55.2836 3.57011 1.82603 0
M  V30 624 H 51.8736 4.24883 0.563205 0
M  V30 625 H 56.0576 4.96178 -0.110234 0
M  V30 626 H 51.3136 6.02461 -1.04169 0
M  V30 627 H 55.4876 6.75057 -1.71086 0
M  V30 628 H 53.1146 7.28193 -2.18264 0
M  V30 629 N 54.6897 -0.239769 1.55765 0
M  V30 630 C 55.9377 -0.964892 1.77579 0
M  V30 631 C 56.2587 -1.85582 0.598699 0
M  V30 632 O 55.5287 -1.92075 -0.385226 0
M  V30 633 H 54.1087 -0.359265 0.654933 0
M  V30 634 H 56.7707 -0.256001 1.93211 0
M  V30 635 H 55.8667 -1.58243 2.69009 0
M  V30 636 N 56.1678 -1.49265 -0.50573 0
M  V30 637 C 57.0998 -1.617 -1.62437 0
M  V30 638 C 58.1128 -0.499924 -1.54934 0
M  V30 639 O 59.3018 -0.771785 -1.60953 0
M  V30 640 C 56.4018 -1.5533 -3.01207 0
M  V30 641 C 55.5748 -2.8249 -3.33943 0
M  V30 642 C 54.6338 -2.69238 -4.52103 0
M  V30 643 O 53.6598 -3.43167 -4.5412 0
M  V30 644 N 54.8618 -1.80468 -5.51735 0
M  V30 645 H 57.6268 -2.58177 -1.52199 0
M  V30 646 H 55.1878 -1.46294 -0.693511 0
M  V30 647 H 57.1798 -1.44125 -3.78167 0
M  V30 648 H 55.7498 -0.667297 -3.05395 0
M  V30 649 H 54.9698 -3.08081 -2.45926 0
M  V30 650 H 56.2578 -3.66802 -3.5261 0
M  V30 651 H 55.6558 -1.19653 -5.52901 0
M  V30 652 H 54.2128 -1.75188 -6.27816 0
M  V30 653 N 57.6459 0.756429 -1.3826 0
M  V30 654 C 58.8949 1.51082 -1.3363 0
M  V30 655 C 59.2079 1.95467 0.0720068 0
M  V30 656 O 60.4139 2.7043 0.240834 0
M  V30 657 C 58.8699 2.72893 -2.34644 0
M  V30 658 C 58.4779 2.35544 -3.81081 0
M  V30 659 C 60.2219 3.50791 -2.39052 0
M  V30 660 C 58.1289 3.53948 -4.73787 0
M  V30 661 H 57.0589 0.56727 -0.49671 0
M  V30 662 H 59.7099 0.827147 -1.638 0
M  V30 663 H 58.0919 3.43227 -1.97513 0
M  V30 664 H 59.2659 1.72894 -4.27135 0
M  V30 665 H 57.5809 1.70786 -3.79764 0
M  V30 666 H 60.1779 4.38823 -3.05513 0
M  V30 667 H 60.5209 3.91745 -1.40861 0
M  V30 668 H 61.0539 2.87467 -2.74968 0
M  V30 669 H 57.7929 3.18064 -5.73163 0
M  V30 670 H 57.3129 4.15651 -4.32428 0
M  V30 671 H 58.9919 4.20566 -4.91663 0
M  V30 672 N 59.124 1.23083 0.984299 0
M  V30 673 C 60.054 1.03292 2.09411 0
M  V30 674 C 61.035 -0.048923 1.7003 0
M  V30 675 O 62.22 0.114967 1.93859 0
M  V30 676 C 59.35 0.619155 3.41736 0
M  V30 677 C 58.304 1.64791 3.95004 0
M  V30 678 C 57.63 1.0897 5.23478 0
M  V30 679 C 58.93 3.03999 4.24714 0
M  V30 680 H 60.624 1.96119 2.26225 0
M  V30 681 H 58.17 0.944344 1.08711 0
M  V30 682 H 60.123 0.467777 4.18796 0
M  V30 683 H 58.847 -0.344786 3.24775 0
M  V30 684 H 57.506 1.78721 3.20085 0
M  V30 685 H 57.154 0.11686 5.02864 0
M  V30 686 H 56.854 1.77704 5.60085 0
M  V30 687 H 58.378 0.950093 6.03163 0
M  V30 688 H 59.792 2.93393 4.92538 0
M  V30 689 H 58.189 3.69936 4.72512 0
M  V30 690 H 59.259 3.53285 3.32142 0
M  V30 691 N 60.6021 -1.18246 1.0419 0
M  V30 692 C 61.8791 -1.84121 0.660208 0
M  V30 693 C 62.2591 -1.92778 -0.860221 0
M  V30 694 O 61.6071 -1.45464 -1.76217 0
M  V30 695 C 61.8171 -3.22355 1.33747 0
M  V30 696 C 63.1651 -3.98376 1.46906 0
M  V30 697 O 64.1891 -3.31799 1.29568 0
M  V30 698 O 63.0481 -5.17665 1.75171 0
M  V30 699 H 60.1421 -0.794036 0.231161 0
M  V30 700 H 62.6881 -1.25628 1.14087 0
M  V30 701 H 61.4601 -3.10964 2.37522 0
M  V30 702 H 61.0831 -3.88506 0.845515 0
M  V30 703 N 62.0802 -0.821533 -1.34494 0
M  V30 704 C 63.3292 -0.405355 -1.97585 0
M  V30 705 C 63.6422 1.03677 -1.65863 0
M  V30 706 O 64.8482 1.55679 -2.22433 0
M  V30 707 C 63.3042 -0.673861 -3.53535 0
M  V30 708 C 62.9122 -2.12951 -3.94152 0
M  V30 709 C 64.6562 -0.32378 -4.23263 0
M  V30 710 C 62.5632 -2.34298 -5.43009 0
M  V30 711 H 61.4932 -0.147836 -0.739365 0
M  V30 712 H 64.1442 -1.00769 -1.53355 0
M  V30 713 H 62.5262 -0.00137554 -3.96 0
M  V30 714 H 63.7002 -2.84104 -3.62797 0
M  V30 715 H 62.0152 -2.44089 -3.37356 0
M  V30 716 H 64.6122 -0.461126 -5.32708 0
M  V30 717 H 64.9552 0.731586 -4.09821 0
M  V30 718 H 65.4882 -0.950786 -3.8627 0
M  V30 719 H 62.2272 -3.38335 -5.61435 0
M  V30 720 H 61.7472 -1.67687 -5.75883 0
M  V30 721 H 63.4262 -2.16588 -6.09671 0
M  V30 722 N 63.5583 1.46682 -0.576371 0
M  V30 723 C 64.4883 2.33028 0.148397 0
M  V30 724 C 65.4693 1.44961 0.889956 0
M  V30 725 O 66.6543 1.73789 0.866662 0
M  V30 726 C 63.7843 3.27117 1.1667 0
M  V30 727 C 62.7383 4.24575 0.540386 0
M  V30 728 C 62.0643 5.08126 1.6647 0
M  V30 729 C 63.3643 5.19722 -0.518331 0
M  V30 730 H 65.0583 2.93875 -0.572509 0
M  V30 731 H 62.6043 1.41315 -0.276768 0
M  V30 732 H 64.5573 3.86374 1.68204 0
M  V30 733 H 63.2813 2.64364 1.9178 0
M  V30 734 H 61.9403 3.66571 0.0461769 0
M  V30 735 H 61.5883 4.41762 2.40531 0
M  V30 736 H 61.2883 5.74122 1.25131 0
M  V30 737 H 62.8123 5.70246 2.18293 0
M  V30 738 H 64.2263 5.73232 -0.0883058 0
M  V30 739 H 62.6233 5.94026 -0.851679 0
M  V30 740 H 63.6933 4.64037 -1.40703 0
M  V30 741 N 65.0364 0.313813 1.54444 0
M  V30 742 C 66.2824 -0.292108 2.00685 0
M  V30 743 C 66.6154 -1.52548 1.20177 0
M  V30 744 O 65.8904 -1.92452 0.281531 0
M  V30 745 C 66.1734 -0.635968 3.5444 0
M  V30 746 C 66.0264 0.607437 4.4568 0
M  V30 747 C 67.3454 -1.45747 4.15266 0
M  V30 748 H 64.4644 -0.104697 0.729526 0
M  V30 749 H 67.1064 0.428457 1.85106 0
M  V30 750 H 65.2564 -1.24986 3.67846 0
M  V30 751 H 66.9284 1.24581 4.44159 0
M  V30 752 H 65.1714 1.23822 4.15753 0
M  V30 753 H 65.8424 0.322515 5.51057 0
M  V30 754 H 68.3184 -0.938645 4.05375 0
M  V30 755 H 67.1944 -1.66683 5.2298 0
M  V30 756 H 67.4554 -2.45063 3.67963 0
M  V30 757 N 66.5145 -1.57545 0.0417849 0
M  V30 758 C 67.7395 -1.97035 -0.647455 0
M  V30 759 C 68.1645 -0.918775 -1.64135 0
M  V30 760 O 67.5225 0.119006 -1.80909 0
M  V30 761 C 67.5705 -3.35609 -1.31905 0
M  V30 762 O 66.6745 -3.3287 -2.43457 0
M  V30 763 H 66.0155 -0.64211 -0.169086 0
M  V30 764 H 68.5455 -2.04318 0.107399 0
M  V30 765 H 68.5555 -3.72126 -1.67291 0
M  V30 766 H 67.2305 -4.11685 -0.590586 0
M  V30 767 H 65.8075 -3.08087 -2.10088 0
M  V30 768 N 67.9926 0.231505 -1.5589 0
M  V30 769 C 69.4086 0.580748 -1.48659 0
M  V30 770 C 69.6086 1.87617 -0.73498 0
M  V30 771 O 68.6646 2.51046 -0.270586 0
M  V30 772 C 69.9776 0.669202 -2.93159 0
M  V30 773 C 71.5256 0.760499 -3.03621 0
M  V30 774 C 72.0006 0.880383 -4.49459 0
M  V30 775 N 73.4916 0.944861 -4.53461 0
M  V30 776 C 74.2266 1.05716 -5.63571 0
M  V30 777 N 73.7226 1.13403 -6.83456 0
M  V30 778 N 75.5156 1.09152 -5.514 0
M  V30 779 H 67.6666 -0.618695 -2.03189 0
M  V30 780 H 69.9296 -0.215728 -0.923128 0
M  V30 781 H 69.6356 -0.212904 -3.51055 0
M  V30 782 H 69.5096 1.5361 -3.44505 0
M  V30 783 H 71.8966 1.63305 -2.45796 0
M  V30 784 H 71.9776 -0.131864 -2.5546 0
M  V30 785 H 71.6216 0.0123284 -5.07899 0
M  V30 786 H 71.5516 1.78802 -4.95316 0
M  V30 787 H 74.0426 0.896176 -3.6712 0
M  V30 788 H 74.3556 1.21921 -7.63122 0
M  V30 789 H 72.7006 1.10333 -6.86186 0
M  V30 790 H 75.8916 1.02805 -4.56671 0
M  V30 791 H 76.0646 1.17558 -6.37247 0
M  V30 792 N 69.4707 1.49531 0.497807 0
M  V30 793 C 70.6957 1.63159 1.28039 0
M  V30 794 C 71.1207 0.30418 1.85624 0
M  V30 795 O 70.4787 -0.728618 1.66015 0
M  V30 796 C 70.5267 2.70537 2.38416 0
M  V30 797 O 69.6307 2.29931 3.42353 0
M  V30 798 H 68.9717 0.546001 0.377861 0
M  V30 799 H 71.5017 1.9574 0.59558 0
M  V30 800 H 71.5117 2.92802 2.84132 0
M  V30 801 H 70.1867 3.6689 1.95869 0
M  V30 802 H 68.7637 2.18009 3.02533 0
M  V30 803 N 70.9488 -0.749086 1.3866 0
M  V30 804 C 71.8788 -1.8764 1.38973 0
M  V30 805 C 72.8598 -1.68178 0.255004 0
M  V30 806 O 74.0448 -1.88704 0.458754 0
M  V30 807 C 71.1748 -3.25222 1.21851 0
M  V30 808 C 70.1288 -3.59295 2.32575 0
M  V30 809 C 69.4548 -4.95663 2.00555 0
M  V30 810 C 70.7548 -3.63709 3.7485 0
M  V30 811 H 72.4488 -1.87635 2.3331 0
M  V30 812 H 69.9948 -0.901329 1.12303 0
M  V30 813 H 71.9478 -4.03746 1.20695 0
M  V30 814 H 70.6718 -3.25719 0.239775 0
M  V30 815 H 69.3308 -2.83093 2.32925 0
M  V30 816 H 68.9788 -4.92724 1.01154 0
M  V30 817 H 68.6788 -5.19429 2.74714 0
M  V30 818 H 70.2028 -5.7656 2.01024 0
M  V30 819 H 71.6168 -4.32338 3.76506 0
M  V30 820 H 70.0138 -3.98986 4.48252 0
M  V30 821 H 71.0838 -2.63834 4.06841 0
M  V30 822 N 72.4269 -1.23603 -0.977757 0
M  V30 823 C 73.3739 -1.01954 -2.07061 0
M  V30 824 C 74.3439 0.0638697 -1.65977 0
M  V30 825 O 75.5289 -0.0887624 -1.90593 0
M  V30 826 C 72.6689 -0.619658 -3.39491 0
M  V30 827 C 71.7819 -1.77547 -3.93829 0
M  V30 828 C 70.9169 -1.32212 -5.14484 0
M  V30 829 C 69.9559 -2.44852 -5.60994 0
M  V30 830 N 69.0929 -2.00456 -6.72876 0
M  V30 831 H 73.9329 -1.95495 -2.24913 0
M  V30 832 H 71.4699 -0.973861 -1.10247 0
M  V30 833 H 73.4279 -0.368898 -4.15566 0
M  V30 834 H 72.0579 0.278752 -3.21594 0
M  V30 835 H 71.1099 -2.14016 -3.14486 0
M  V30 836 H 72.4219 -2.62219 -4.24314 0
M  V30 837 H 71.5759 -1.02965 -5.97899 0
M  V30 838 H 70.3149 -0.445808 -4.85658 0
M  V30 839 H 69.3199 -2.74871 -4.76157 0
M  V30 840 H 70.5449 -3.33024 -5.91837 0
M  V30 841 H 68.4909 -1.15208 -6.45804 0
M  V30 842 H 68.4079 -2.78687 -7.02759 0
M  V30 843 H 69.6759 -1.7432 -7.59758 0
M  V30 844 N 73.905 1.17692 -1.04816 0
M  V30 845 C 74.838 2.20436 -0.590173 0
M  V30 846 C 75.816 1.58115 0.379244 0
M  V30 847 O 77 1.86228 0.291762 0
M  V30 848 C 74.127 3.38424 0.136817 0
M  V30 849 C 73.173 4.19176 -0.787023 0
M  V30 850 S 74.006 4.84815 -2.27409 0
M  V30 851 C 75.162 6.06195 -1.55817 0
M  V30 852 H 75.395 2.58944 -1.46067 0
M  V30 853 H 72.928 1.28246 -0.859784 0
M  V30 854 H 74.886 4.06798 0.550076 0
M  V30 855 H 73.547 2.98312 0.983299 0
M  V30 856 H 72.74 5.03499 -0.224681 0
M  V30 857 H 72.342 3.56219 -1.13947 0
M  V30 858 H 74.634 6.72078 -0.855387 0
M  V30 859 H 75.577 6.6695 -2.37873 0
M  V30 860 H 75.985 5.54701 -1.04722 0
M  V30 861 N 75.3831 0.828654 1.34056 0
M  V30 862 C 76.7991 0.515135 1.51058 0
M  V30 863 C 76.9991 -0.959581 1.77184 0
M  V30 864 O 76.0551 -1.74382 1.82612 0
M  V30 865 C 77.3681 1.37963 2.67183 0
M  V30 866 C 78.9161 1.37735 2.81066 0
M  V30 867 C 79.3911 2.22645 4.00241 0
M  V30 868 N 80.8821 2.203 4.07458 0
M  V30 869 C 81.6171 2.82744 4.98842 0
M  V30 870 N 81.1131 3.54201 5.9541 0
M  V30 871 N 82.9061 2.72268 4.91759 0
M  V30 872 H 75.0571 1.78343 1.15358 0
M  V30 873 H 77.3201 0.760304 0.566252 0
M  V30 874 H 77.0261 2.42714 2.54525 0
M  V30 875 H 76.9001 1.0484 3.62338 0
M  V30 876 H 79.2871 0.337593 2.93163 0
M  V30 877 H 79.3681 1.74859 1.86703 0
M  V30 878 H 79.0121 3.26674 3.88905 0
M  V30 879 H 78.9421 1.82869 4.93829 0
M  V30 880 H 81.4331 1.68327 3.38341 0
M  V30 881 H 81.7461 3.9908 6.61782 0
M  V30 882 H 80.0911 3.58308 5.95517 0
M  V30 883 H 83.2821 2.16014 4.15278 0
M  V30 884 H 83.4551 3.21219 5.62781 0
M  V30 885 N 76.8612 -1.46375 0.584142 0
M  V30 886 C 78.1092 -2.01978 0.0701287 0
M  V30 887 C 78.4302 -1.4579 -1.295 0
M  V30 888 O 77.7002 -0.64314 -1.85042 0
M  V30 889 H 76.2802 -0.746648 0.0229345 0
M  V30 890 H 78.9422 -1.79461 0.760245 0
M  V30 891 H 78.0382 -3.121 0.0022064 0
M  V30 892 N 78.3393 -0.321999 -1.54275 0
M  V30 893 C 79.2713 0.578671 -2.21775 0
M  V30 894 C 80.2843 1.08109 -1.21722 0
M  V30 895 O 81.4733 0.994938 -1.482 0
M  V30 896 C 78.5733 1.80661 -2.86731 0
M  V30 897 C 77.7463 1.44314 -4.12907 0
M  V30 898 C 76.8053 2.52845 -4.61472 0
M  V30 899 O 75.8313 2.17054 -5.2619 0
M  V30 900 N 77.0333 3.83748 -4.35566 0
M  V30 901 H 79.7983 0.000709447 -2.997 0
M  V30 902 H 77.3593 -0.145132 -1.61248 0
M  V30 903 H 79.3513 2.52655 -3.16145 0
M  V30 904 H 77.9213 2.29245 -2.12521 0
M  V30 905 H 77.1413 0.554906 -3.90275 0
M  V30 906 H 78.4293 1.17598 -4.95023 0
M  V30 907 H 77.8273 4.15625 -3.83761 0
M  V30 908 H 76.3843 4.51977 -4.69638 0
M  V30 909 N 79.8174 1.5752 -0.0501392 0
M  V30 910 C 80.7804 2.1037 0.909786 0
M  V30 911 C 81.7804 1.02308 1.24056 0
M  V30 912 O 82.9704 1.28385 1.17741 0
M  V30 913 C 80.1024 2.58708 2.21998 0
M  V30 914 H 81.2954 2.96479 0.451665 0
M  V30 915 H 78.8484 1.55038 0.198248 0
M  V30 916 H 79.5834 1.75989 2.72394 0
M  V30 917 H 79.3684 3.37675 1.99295 0
M  V30 918 H 80.8584 2.99747 2.9076 0
M  V30 919 N 81.2955 -0.223234 1.56011 0
M  V30 920 C 82.5425 -0.947875 1.78946 0
M  V30 921 C 82.8705 -1.844 0.618608 0
M  V30 922 O 82.1255 -1.91629 -0.397093 0
M  V30 923 C 82.4245 -1.81948 3.0762 0
M  V30 924 C 82.0905 -1.07672 4.37856 0
M  V30 925 C 80.7525 -0.871544 4.73242 0
M  V30 926 C 83.1045 -0.552081 5.18268 0
M  V30 927 C 80.4325 -0.129791 5.86556 0
M  V30 928 C 82.7845 0.17632 6.32354 0
M  V30 929 C 81.4485 0.39277 6.66343 0
M  V30 930 H 80.7185 -0.346852 0.654809 0
M  V30 931 H 83.3655 -0.216171 1.90276 0
M  V30 932 H 81.6705 -2.61899 2.91404 0
M  V30 933 H 83.3675 -2.38227 3.22566 0
M  V30 934 H 79.9575 -1.24662 4.1007 0
M  V30 935 H 84.1415 -0.698076 4.91366 0
M  V30 936 H 79.3975 0.048153 6.11381 0
M  V30 937 H 83.5715 0.590367 6.93893 0
M  V30 938 H 81.1985 0.969466 7.53993 0
M  V30 939 N 82.7736 -1.49793 -0.48987 0
M  V30 940 C 84.0196 -1.60078 -1.24511 0
M  V30 941 C 84.3526 -0.291608 -1.91998 0
M  V30 942 O 83.6276 0.705647 -1.81248 0
M  V30 943 C 83.9106 -2.76791 -2.30345 0
M  V30 944 C 83.7636 -4.17535 -1.67286 0
M  V30 945 C 85.0826 -2.89111 -3.31817 0
M  V30 946 H 82.2016 -0.582645 -0.451324 0
M  V30 947 H 84.8436 -1.82117 -0.541612 0
M  V30 948 H 82.9936 -2.5813 -2.90346 0
M  V30 949 H 84.6656 -4.4774 -1.11026 0
M  V30 950 H 82.9086 -4.22665 -0.976577 0
M  V30 951 H 83.5796 -4.95094 -2.44103 0
M  V30 952 H 86.0556 -3.06133 -2.81819 0
M  V30 953 H 84.9316 -3.72433 -4.03219 0
M  V30 954 H 85.1926 -1.9893 -3.94815 0
M  V30 955 N 84.2517 0.741722 -1.39055 0
M  V30 956 C 85.5007 1.49656 -1.35225 0
M  V30 957 C 85.8137 1.95533 0.0512708 0
M  V30 958 O 87.0197 2.7067 0.212138 0
M  V30 959 C 85.4757 2.70389 -2.37525 0
M  V30 960 C 85.0837 2.31489 -3.83558 0
M  V30 961 C 86.8277 3.48236 -2.42759 0
M  V30 962 C 84.7347 3.48903 -4.77515 0
M  V30 963 H 83.6647 0.56197 -0.502699 0
M  V30 964 H 86.3157 0.809727 -1.64668 0
M  V30 965 H 84.6977 3.41113 -2.01142 0
M  V30 966 H 85.8717 1.68354 -4.28945 0
M  V30 967 H 84.1867 1.66749 -3.81554 0
M  V30 968 H 86.7837 4.35558 -3.1015 0
M  V30 969 H 87.1267 3.90229 -1.45008 0
M  V30 970 H 87.6597 2.84535 -2.78002 0
M  V30 971 H 84.3987 3.11966 -5.76504 0
M  V30 972 H 83.9187 4.11041 -4.36813 0
M  V30 973 H 85.5977 4.15328 -4.96096 0
M  V30 974 N 85.7298 1.2412 0.971189 0
M  V30 975 C 86.9768 1.07881 1.71371 0
M  V30 976 C 87.3048 -0.382901 1.90694 0
M  V30 977 O 86.5598 -1.29945 1.46331 0
M  V30 978 C 86.8588 1.75983 3.11071 0
M  V30 979 C 86.5248 3.25909 3.11599 0
M  V30 980 C 85.1868 3.66813 3.11451 0
M  V30 981 C 87.5388 4.21771 3.062 0
M  V30 982 C 84.8668 5.02021 3.03631 0
M  V30 983 C 87.2188 5.56982 2.99923 0
M  V30 984 C 85.8828 5.97237 2.98102 0
M  V30 985 H 85.1528 0.394764 0.62709 0
M  V30 986 H 87.7998 1.54176 1.13587 0
M  V30 987 H 86.1048 1.22072 3.72298 0
M  V30 988 H 87.8018 1.60887 3.6731 0
M  V30 989 H 84.3918 2.93353 3.12477 0
M  V30 990 H 88.5758 3.91172 3.05447 0
M  V30 991 H 83.8318 5.32411 3.0058 0
M  V30 992 H 88.0058 6.30969 2.94704 0
M  V30 993 H 85.6328 7.01967 2.91798 0
M  V30 994 N 87.2079 -1.17134 1.05439 0
M  V30 995 C 88.1549 -2.21235 0.657539 0
M  V30 996 C 89.1249 -1.62551 -0.341543 0
M  V30 997 O 90.3099 -1.89379 -0.232393 0
M  V30 998 C 87.4499 -3.45076 0.0410575 0
M  V30 999 C 86.5629 -4.18042 1.08927 0
M  V30 1000 C 85.6979 -5.29376 0.439848 0
M  V30 1001 C 84.7369 -5.94132 1.4722 0
M  V30 1002 N 83.8739 -6.96975 0.846756 0
M  V30 1003 H 88.7139 -2.54534 1.54972 0
M  V30 1004 H 86.2509 -1.25028 0.775006 0
M  V30 1005 H 88.2089 -4.15862 -0.33383 0
M  V30 1006 H 86.8389 -3.12353 -0.814568 0
M  V30 1007 H 85.8909 -3.45945 1.58196 0
M  V30 1008 H 87.2029 -4.62306 1.87282 0
M  V30 1009 H 86.3569 -6.06699 0.0115125 0
M  V30 1010 H 85.0959 -4.86251 -0.375656 0
M  V30 1011 H 84.1009 -5.15538 1.91052 0
M  V30 1012 H 85.3259 -6.39337 2.28965 0
M  V30 1013 H 83.2719 -6.5598 0.0518075 0
M  V30 1014 H 83.1889 -7.39565 1.5678 0
M  V30 1015 H 84.4569 -7.78239 0.443277 0
M  V30 1016 N 88.686 -0.835752 -1.33615 0
M  V30 1017 C 89.596 -0.269088 -2.33052 0
M  V30 1018 C 90.612 0.603251 -1.63208 0
M  V30 1019 O 91.788 0.508112 -1.94885 0
M  V30 1020 C 88.853 0.549091 -3.42324 0
M  V30 1021 C 87.914 -0.347156 -4.27894 0
M  V30 1022 C 87.147 0.43207 -5.31948 0
M  V30 1023 O 87.37 1.66409 -5.45586 0
M  V30 1024 O 86.304 -0.192298 -6.01593 0
M  V30 1025 H 90.13 -1.09243 -2.83372 0
M  V30 1026 H 87.715 -0.598198 -1.36901 0
M  V30 1027 H 89.597 1.01414 -4.09015 0
M  V30 1028 H 88.272 1.34955 -2.94226 0
M  V30 1029 H 87.179 -0.859979 -3.64081 0
M  V30 1030 H 88.512 -1.1123 -4.79467 0
M  V30 1031 N 90.1641 1.46063 -0.591896 0
M  V30 1032 C 91.4101 2.02638 -0.0811191 0
M  V30 1033 C 91.7431 1.4613 1.27905 0
M  V30 1034 O 91.0181 0.629908 1.84017 0
M  V30 1035 C 91.3011 3.60091 -0.0252436 0
M  V30 1036 C 91.1541 4.26965 -1.41496 0
M  V30 1037 C 92.4731 4.3496 0.670685 0
M  V30 1038 H 89.5921 0.73635 -0.0309524 0
M  V30 1039 H 92.2341 1.741 -0.760859 0
M  V30 1040 H 90.3841 3.84535 0.553624 0
M  V30 1041 H 92.0561 4.13756 -2.0397 0
M  V30 1042 H 90.2991 3.85971 -1.98011 0
M  V30 1043 H 90.9701 5.35781 -1.32825 0
M  V30 1044 H 93.4461 4.15716 0.178825 0
M  V30 1045 H 92.3221 5.44686 0.678837 0
M  V30 1046 H 92.5831 4.06685 1.73379 0
M  V30 1047 N 91.6422 0.330177 1.54103 0
M  V30 1048 C 92.8672 -0.274893 2.0557 0
M  V30 1049 C 93.2922 -1.44487 1.20437 0
M  V30 1050 O 92.6502 -1.80021 0.214991 0
M  V30 1051 C 92.6982 -0.68079 3.54115 0
M  V30 1052 O 91.8022 -1.7824 3.71893 0
M  V30 1053 H 91.1432 -0.0483849 0.662235 0
M  V30 1054 H 93.6732 0.480508 1.98878 0
M  V30 1055 H 93.6832 -0.961635 3.96505 0
M  V30 1056 H 92.3582 0.174903 4.15532 0
M  V30 1057 H 90.9352 -1.49985 3.41407 0
M  V30 1058 N 93.1203 -1.57491 0.0584922 0
M  V30 1059 C 94.3453 -1.97711 -0.62652 0
M  V30 1060 C 94.7703 -0.936132 -1.63151 0
M  V30 1061 O 94.1283 0.099811 -1.81025 0
M  V30 1062 C 94.1763 -3.36989 -1.28338 0
M  V30 1063 O 93.2803 -3.35433 -2.39913 0
M  V30 1064 H 92.6213 -0.643868 -0.162266 0
M  V30 1065 H 95.1513 -2.04193 0.129064 0
M  V30 1066 H 95.1613 -3.73879 -1.63335 0
M  V30 1067 H 93.8363 -4.12289 -0.546889 0
M  V30 1068 H 92.4133 -3.10298 -2.06809 0
M  V30 1069 N 94.5984 0.214957 -1.56127 0
M  V30 1070 C 95.5614 1.24997 -1.92116 0
M  V30 1071 C 96.5614 1.39467 -0.800344 0
M  V30 1072 O 97.7514 1.37619 -1.06802 0
M  V30 1073 C 94.8834 2.62271 -2.17777 0
M  V30 1074 H 96.0764 0.942875 -2.84693 0
M  V30 1075 H 93.6294 0.455654 -1.49511 0
M  V30 1076 H 94.3644 2.98068 -1.27773 0
M  V30 1077 H 94.1494 2.53143 -2.99434 0
M  V30 1078 H 95.6394 3.36946 -2.46693 0
M  V30 1079 N 96.0765 1.50051 0.48192 0
M  V30 1080 C 97.3045 1.64237 1.25832 0
M  V30 1081 C 97.7195 0.321336 1.86045 0
M  V30 1082 O 97.0765 -0.695478 1.68729 0
M  V30 1083 C 97.1275 2.72548 2.37487 0
M  V30 1084 O 96.8485 3.99529 1.79745 0
M  V30 1085 C 98.3495 2.9761 3.28547 0
M  V30 1086 H 95.5695 0.55237 0.380957 0
M  V30 1087 H 98.1135 1.96207 0.576467 0
M  V30 1088 H 96.2685 2.43303 3.01467 0
M  V30 1089 H 96.6825 4.59342 2.5319 0
M  V30 1090 H 98.1565 3.77084 4.03127 0
M  V30 1091 H 98.6335 2.0826 3.86684 0
M  V30 1092 H 99.2395 3.28345 2.70314 0
M  V30 1093 N 97.5546 -0.734337 1.39446 0
M  V30 1094 C 98.5026 -1.86971 1.38364 0
M  V30 1095 C 99.4966 -1.67288 0.266687 0
M  V30 1096 O 100.703 -1.74621 0.436755 0
M  V30 1097 H 97.0776 -0.615474 0.432082 0
M  V30 1098 H 99.0486 -1.85 2.34132 0
M  V30 1099 C 97.7976 -3.2466 1.24465 0
M  V30 1100 H 97.1206 -3.40402 2.09682 0
M  V30 1101 H 98.5606 -4.04292 1.27764 0
M  V30 1102 C 97.0196 -3.36867 -0.0468674 0
M  V30 1103 O 97.5496 -3.88618 -1.01681 0
M  V30 1104 N 95.7556 -2.90391 -0.110145 0
M  V30 1105 H 95.3026 -2.48466 0.679868 0
M  V30 1106 H 95.2606 -2.98939 -0.973799 0
M  V30 1107 N 99.0327 -1.24633 -0.964593 0
M  V30 1108 C 99.9957 -1.0424 -2.04124 0
M  V30 1109 C 100.996 0.00137563 -1.608 0
M  V30 1110 O 102.186 -0.239883 -1.7254 0
M  V30 1111 C 99.3177 -0.580588 -3.3592 0
M  V30 1112 H 100.511 -1.99803 -2.23649 0
M  V30 1113 H 98.0637 -1.06899 -1.14027 0
M  V30 1114 H 98.7987 0.3781 -3.22088 0
M  V30 1115 H 98.5837 -1.33398 -3.6871 0
M  V30 1116 H 100.074 -0.459034 -4.15069 0
M  V30 1117 N 100.511 1.16574 -1.06058 0
M  V30 1118 C 101.441 2.23057 -0.690488 0
M  V30 1119 C 102.422 1.67141 0.315901 0
M  V30 1120 O 103.607 1.93253 0.191556 0
M  V30 1121 C 100.737 3.47222 -0.073625 0
M  V30 1122 C 99.6908 4.16016 -1.00573 0
M  V30 1123 C 99.0168 5.34104 -0.252289 0
M  V30 1124 C 100.317 4.67264 -2.33371 0
M  V30 1125 H 102.011 2.54271 -1.58072 0
M  V30 1126 H 99.5568 1.22218 -0.76149 0
M  V30 1127 H 101.51 4.20939 0.19714 0
M  V30 1128 H 100.234 3.15302 0.85161 0
M  V30 1129 H 98.8928 3.44223 -1.2612 0
M  V30 1130 H 98.5408 4.98437 0.675988 0
M  V30 1131 H 98.2408 5.81072 -0.873455 0
M  V30 1132 H 99.7648 6.10599 0.0109857 0
M  V30 1133 H 101.179 5.32573 -2.12223 0
M  V30 1134 H 99.5758 5.24843 -2.90963 0
M  V30 1135 H 100.646 3.83602 -2.96611 0
M  V30 1136 N 101.989 0.842826 1.3317 0
M  V30 1137 C 103.405 0.531128 1.50503 0
M  V30 1138 C 103.605 -0.940734 1.78192 0
M  V30 1139 O 102.661 -1.72436 1.84451 0
M  V30 1140 C 103.974 1.40789 2.65705 0
M  V30 1141 C 105.522 1.40708 2.79589 0
M  V30 1142 C 105.997 2.26878 3.97857 0
M  V30 1143 N 107.488 2.24609 4.05099 0
M  V30 1144 C 108.223 2.88019 4.95815 0
M  V30 1145 N 107.719 3.60496 5.9162 0
M  V30 1146 N 109.512 2.77469 4.88843 0
M  V30 1147 H 101.663 1.79557 1.1346 0
M  V30 1148 H 103.926 0.766267 0.558156 0
M  V30 1149 H 103.632 2.454 2.51936 0
M  V30 1150 H 103.506 1.08677 3.61205 0
M  V30 1151 H 105.893 0.368668 2.92788 0
M  V30 1152 H 105.974 1.76829 1.84838 0
M  V30 1153 H 105.618 3.3078 3.85418 0
M  V30 1154 H 105.548 1.88096 4.91861 0
M  V30 1155 H 108.039 1.71906 3.36536 0
M  V30 1156 H 108.352 4.06076 6.57512 0
M  V30 1157 H 106.697 3.64604 5.91683 0
M  V30 1158 H 109.888 2.20406 4.12963 0
M  V30 1159 H 110.061 3.2717 5.59342 0
M  V30 1160 N 103.467 -1.45747 0.599634 0
M  V30 1161 C 104.692 -2.07178 0.0960198 0
M  V30 1162 C 105.117 -1.44268 -1.207 0
M  V30 1163 O 104.475 -0.532503 -1.73303 0
M  V30 1164 C 104.523 -3.60579 -0.0385348 0
M  V30 1165 O 103.627 -3.97713 -1.0908 0
M  V30 1166 H 102.968 -0.660251 0.0704593 0
M  V30 1167 H 105.498 -1.87124 0.827385 0
M  V30 1168 H 105.508 -4.07298 -0.239304 0
M  V30 1169 H 104.183 -4.05756 0.912947 0
M  V30 1170 H 102.76 -3.62678 -0.867135 0
M  V30 1171 N 104.945 -0.338344 -1.53925 0
M  V30 1172 C 105.878 0.563758 -2.21127 0
M  V30 1173 C 106.856 1.10433 -1.19345 0
M  V30 1174 O 108.04 1.16557 -1.48144 0
M  V30 1175 C 105.167 1.77505 -2.88461 0
M  V30 1176 C 104.213 1.3644 -4.04087 0
M  V30 1177 S 105.046 0.388593 -5.34088 0
M  V30 1178 C 106.202 1.60683 -6.04923 0
M  V30 1179 H 106.435 -0.00704546 -2.97299 0
M  V30 1180 H 103.968 -0.122418 -1.53914 0
M  V30 1181 H 105.926 2.46999 -3.27875 0
M  V30 1182 H 104.587 2.31706 -2.12064 0
M  V30 1183 H 103.78 2.26739 -4.50117 0
M  V30 1184 H 103.382 0.748998 -3.66423 0
M  V30 1185 H 105.674 2.54209 -6.28 0
M  V30 1186 H 106.617 1.18842 -6.98056 0
M  V30 1187 H 107.025 1.80052 -5.35015 0
M  V30 1188 N 106.423 1.57458 -0.0668435 0
M  V30 1189 C 107.355 2.09413 0.931601 0
M  V30 1190 C 108.368 1.02522 1.26464 0
M  V30 1191 O 109.557 1.30049 1.22269 0
M  V30 1192 C 106.657 2.53537 2.24882 0
M  V30 1193 C 105.83 3.83944 2.09537 0
M  V30 1194 C 104.889 4.14214 3.2452 0
M  V30 1195 O 103.915 4.83891 2.9973 0
M  V30 1196 N 105.117 3.67367 4.49469 0
M  V30 1197 H 107.882 2.95699 0.488048 0
M  V30 1198 H 105.443 1.61462 0.119009 0
M  V30 1199 H 107.435 2.70853 3.00701 0
M  V30 1200 H 106.005 1.72415 2.60753 0
M  V30 1201 H 105.225 3.76057 1.18215 0
M  V30 1202 H 106.513 4.69312 1.96529 0
M  V30 1203 H 105.911 3.11068 4.72497 0
M  V30 1204 H 104.468 3.89891 5.2233 0
M  V30 1205 N 107.901 -0.206675 1.56239 0
M  V30 1206 C 109.149 -0.927007 1.79586 0
M  V30 1207 C 109.47 -1.8427 0.637929 0
M  V30 1208 O 108.74 -1.92849 -0.344398 0
M  V30 1209 H 107.32 -0.345292 0.662407 0
M  V30 1210 H 109.982 -0.21496 1.93711 0
M  V30 1211 H 109.078 -1.52501 2.72305 0
M  V30 1212 N 109.379 -1.50304 -0.473955 0
M  V30 1213 C 110.626 -1.6115 -1.22625 0
M  V30 1214 C 110.954 -0.310517 -1.92005 0
M  V30 1215 O 110.209 0.703419 -1.82621 0
M  V30 1216 C 110.508 -2.73938 -2.29549 0
M  V30 1217 C 110.174 -4.14519 -1.7744 0
M  V30 1218 C 108.836 -4.5277 -1.62949 0
M  V30 1219 C 111.188 -5.02392 -1.3875 0
M  V30 1220 C 108.516 -5.76639 -1.08187 0
M  V30 1221 C 110.868 -6.26805 -0.854309 0
M  V30 1222 C 109.532 -6.63861 -0.696011 0
M  V30 1223 H 108.802 -0.589691 -0.448715 0
M  V30 1224 H 111.449 -1.84228 -0.522705 0
M  V30 1225 H 109.754 -2.44937 -3.05799 0
M  V30 1226 H 111.451 -2.79534 -2.87509 0
M  V30 1227 H 108.041 -3.8434 -1.89685 0
M  V30 1228 H 112.225 -4.73474 -1.4878 0
M  V30 1229 H 107.481 -6.04027 -0.946666 0
M  V30 1230 H 111.655 -6.94258 -0.545843 0
M  V30 1231 H 109.282 -7.59722 -0.26952 0
M  V30 1232 N 110.857 0.726932 -1.39834 0
M  V30 1233 C 112.268 1.30558 -1.3346 0
M  V30 1234 C 112.619 1.962 -0.00273003 0
M  V30 1235 O 111.744 1.96826 0.899371 0
M  V30 1236 C 112.339 2.37404 -2.41713 0
M  V30 1237 C 110.898 2.90921 -2.38835 0
M  V30 1238 C 110.045 1.64578 -2.2318 0
M  V30 1239 H 112.996 0.523862 -1.49804 0
M  V30 1240 H 113.017 3.17984 -2.08966 0
M  V30 1241 H 112.529 1.89599 -3.38635 0
M  V30 1242 H 110.63 3.42985 -1.45575 0
M  V30 1243 H 110.743 3.43487 -3.33997 0
M  V30 1244 H 109.107 1.89219 -1.70494 0
M  V30 1245 H 109.89 1.18814 -3.22084 0
M  V30 1246 N 112.336 1.25143 0.95797 0
M  V30 1247 C 113.583 1.09692 1.70217 0
M  V30 1248 C 113.911 -0.362654 1.91089 0
M  V30 1249 O 113.166 -1.28386 1.47701 0
M  V30 1250 C 113.465 1.79272 3.09187 0
M  V30 1251 C 113.131 3.29196 3.08125 0
M  V30 1252 C 111.793 3.70096 3.07543 0
M  V30 1253 C 114.145 4.24995 3.0171 0
M  V30 1254 C 111.473 5.05213 2.9829 0
M  V30 1255 C 113.825 5.60132 2.93999 0
M  V30 1256 C 112.489 6.00365 2.9175 0
M  V30 1257 H 111.759 0.401393 0.622868 0
M  V30 1258 H 114.406 1.55372 1.11945 0
M  V30 1259 H 112.711 1.26014 3.70982 0
M  V30 1260 H 114.408 1.64773 3.65583 0
M  V30 1261 H 110.998 2.96651 3.09348 0
M  V30 1262 H 115.182 3.9439 3.01281 0
M  V30 1263 H 110.438 5.35569 2.94916 0
M  V30 1264 H 114.612 6.3406 2.87996 0
M  V30 1265 H 112.239 7.05023 2.84336 0
M  V30 1266 N 113.814 -1.1601 1.06675 0
M  V30 1267 C 115.044 -1.90251 0.805497 0
M  V30 1268 C 115.452 -1.77891 -0.64431 0
M  V30 1269 O 114.795 -1.12383 -1.45313 0
M  V30 1270 C 114.857 -3.41419 1.12576 0
M  V30 1271 C 114.521 -3.77564 2.57477 0
M  V30 1272 C 115.518 -3.79161 3.55715 0
M  V30 1273 C 113.203 -4.08079 2.92877 0
M  V30 1274 C 115.197 -4.10767 4.8739 0
M  V30 1275 C 112.884 -4.39351 4.24751 0
M  V30 1276 C 113.882 -4.40675 5.21818 0
M  V30 1277 O 113.57 -4.71202 6.51325 0
M  V30 1278 H 113.302 -0.610018 0.291297 0
M  V30 1279 H 115.856 -1.47958 1.4247 0
M  V30 1280 H 114.086 -3.84079 0.449503 0
M  V30 1281 H 115.775 -3.9694 0.84814 0
M  V30 1282 H 116.541 -3.55693 3.29708 0
M  V30 1283 H 112.42 -4.06211 2.17976 0
M  V30 1284 H 115.964 -4.11715 5.63148 0
M  V30 1285 H 111.861 -4.62285 4.50514 0
M  V30 1286 H 112.629 -4.88996 6.56373 0
M  V30 1287 N 115.292 -0.849877 -1.32721 0
M  V30 1288 C 116.569 -0.372405 -1.92022 0
M  V30 1289 C 116.949 1.1435 -1.77447 0
M  V30 1290 O 116.297 1.96296 -1.16962 0
M  V30 1291 C 116.507 -0.831482 -3.3895 0
M  V30 1292 C 117.855 -0.845882 -4.16089 0
M  V30 1293 O 118.879 -0.775806 -3.47649 0
M  V30 1294 O 117.738 -0.943753 -5.38289 0
M  V30 1295 H 114.832 -0.107667 -0.819961 0
M  V30 1296 H 117.378 -0.93646 -1.41522 0
M  V30 1297 H 116.15 -1.87448 -3.4348 0
M  V30 1298 H 115.773 -0.24461 -3.96847 0
M  V30 1299 N 116.77 1.45427 -0.607355 0
M  V30 1300 C 117.717 2.3053 0.111625 0
M  V30 1301 C 118.687 1.4209 0.860216 0
M  V30 1302 O 119.872 1.71019 0.845998 0
M  V30 1303 C 117.012 3.26992 1.10319 0
M  V30 1304 C 116.125 4.30535 0.355493 0
M  V30 1305 C 115.26 5.14105 1.33676 0
M  V30 1306 C 114.299 6.09376 0.576862 0
M  V30 1307 N 113.436 6.85727 1.5074 0
M  V30 1308 H 118.276 2.91477 -0.620093 0
M  V30 1309 H 115.813 1.43631 -0.317594 0
M  V30 1310 H 117.771 3.81385 1.6912 0
M  V30 1311 H 116.401 2.67799 1.80232 0
M  V30 1312 H 115.453 3.78805 -0.348023 0
M  V30 1313 H 116.765 4.98235 -0.237423 0
M  V30 1314 H 115.919 5.72897 1.99684 0
M  V30 1315 H 114.658 4.46423 1.9636 0
M  V30 1316 H 113.663 5.49715 -0.0968519 0
M  V30 1317 H 114.888 6.79085 -0.0449341 0
M  V30 1318 H 112.834 6.20735 2.12189 0
M  V30 1319 H 112.751 7.49778 0.967913 0
M  V30 1320 H 114.019 7.4906 2.15706 0
M  V30 1321 N 118.248 0.346503 1.53744 0
M  V30 1322 C 119.659 -0.136779 1.86198 0
M  V30 1323 C 120.01 -1.49749 1.26766 0
M  V30 1324 O 119.135 -2.08417 0.582355 0
M  V30 1325 C 119.73 -0.254966 3.37839 0
M  V30 1326 C 118.289 -0.682482 3.70161 0
M  V30 1327 C 117.436 0.181981 2.76702 0
M  V30 1328 H 120.387 0.565994 1.48264 0
M  V30 1329 H 120.408 -1.08195 3.64793 0
M  V30 1330 H 119.92 0.735526 3.81066 0
M  V30 1331 H 118.021 -1.68189 3.3248 0
M  V30 1332 H 118.134 -0.470326 4.76786 0
M  V30 1333 H 116.498 -0.34615 2.52337 0
M  V30 1334 H 117.281 1.16966 3.2276 0
M  V30 1335 N 119.726 -1.57421 0.075193 0
M  V30 1336 C 120.659 -2.08528 -0.926904 0
M  V30 1337 C 121.637 -0.991171 -1.28898 0
M  V30 1338 O 122.821 -1.26479 -1.39769 0
M  V30 1339 C 119.948 -2.54576 -2.23402 0
M  V30 1340 C 118.994 -3.75454 -2.02327 0
M  V30 1341 S 119.827 -5.19989 -1.27951 0
M  V30 1342 C 120.983 -5.69372 -2.59935 0
M  V30 1343 H 121.216 -2.932 -0.492048 0
M  V30 1344 H 118.749 -1.53785 -0.137651 0
M  V30 1345 H 120.707 -2.81767 -2.98526 0
M  V30 1346 H 119.368 -1.70166 -2.64012 0
M  V30 1347 H 118.561 -4.05675 -2.99071 0
M  V30 1348 H 118.163 -3.48654 -1.35339 0
M  V30 1349 H 120.455 -5.76424 -3.56008 0
M  V30 1350 H 121.398 -6.68207 -2.34319 0
M  V30 1351 H 121.806 -4.97205 -2.67296 0
M  V30 1352 N 121.204 0.198386 -1.56346 0
M  V30 1353 C 122.62 0.549085 -1.49857 0
M  V30 1354 C 122.82 1.86016 -0.774611 0
M  V30 1355 O 121.876 2.50416 -0.323776 0
M  V30 1356 C 123.189 0.606868 -2.94512 0
M  V30 1357 C 124.737 0.695925 -3.05165 0
M  V30 1358 C 125.212 0.784848 -4.51225 0
M  V30 1359 N 126.703 0.848463 -4.55363 0
M  V30 1360 C 127.438 0.937378 -5.65686 0
M  V30 1361 N 126.934 0.9888 -6.85707 0
M  V30 1362 N 128.727 0.974312 -5.53592 0
M  V30 1363 H 120.878 -0.661655 -2.01831 0
M  V30 1364 H 123.141 -0.235261 -0.918344 0
M  V30 1365 H 122.847 -0.28732 -3.50524 0
M  V30 1366 H 122.721 1.46268 -3.47686 0
M  V30 1367 H 125.108 1.58055 -2.49204 0
M  V30 1368 H 125.189 -0.186022 -2.55123 0
M  V30 1369 H 124.833 -0.0954072 -5.0781 0
M  V30 1370 H 124.763 1.68255 -4.98997 0
M  V30 1371 H 127.254 0.818103 -3.68938 0
M  V30 1372 H 127.567 1.05707 -7.65536 0
M  V30 1373 H 125.912 0.957534 -6.88372 0
M  V30 1374 H 129.103 0.930954 -4.58749 0
M  V30 1375 H 129.276 1.04015 -6.39597 0
M  V30 1376 N 122.682 1.50554 0.465978 0
M  V30 1377 C 123.931 1.61038 1.21448 0
M  V30 1378 C 124.244 0.31865 1.92987 0
M  V30 1379 O 125.45 0.302469 2.6981 0
M  V30 1380 C 123.906 2.84283 2.20706 0
M  V30 1381 C 123.514 4.20352 1.54946 0
M  V30 1382 C 125.258 3.04115 2.96166 0
M  V30 1383 C 123.165 5.34778 2.5252 0
M  V30 1384 H 122.095 0.599718 0.457005 0
M  V30 1385 H 124.746 1.7699 0.484424 0
M  V30 1386 H 123.128 2.61901 2.97025 0
M  V30 1387 H 124.302 4.53008 0.843811 0
M  V30 1388 H 122.617 4.06167 0.917475 0
M  V30 1389 H 125.214 3.86774 3.69202 0
M  V30 1390 H 125.557 2.16045 3.55852 0
M  V30 1391 H 126.09 3.26702 2.26959 0
M  V30 1392 H 122.829 6.25018 1.97566 0
M  V30 1393 H 122.349 5.06534 3.21222 0
M  V30 1394 H 124.028 5.65561 3.14245 0
M  V30 1395 N 124.16 -0.719506 1.40217 0
M  V30 1396 C 125.092 -1.84428 1.36084 0
M  V30 1397 C 126.105 -1.60597 0.266913 0
M  V30 1398 O 127.294 -1.70544 0.526983 0
M  V30 1399 C 124.394 -3.20757 1.094 0
M  V30 1400 C 123.567 -3.71817 2.30372 0
M  V30 1401 C 122.626 -4.86748 1.99907 0
M  V30 1402 O 121.652 -4.99603 2.72737 0
M  V30 1403 N 122.854 -5.7226 0.974635 0
M  V30 1404 H 125.619 -1.88473 2.33019 0
M  V30 1405 H 123.18 -0.900885 1.3452 0
M  V30 1406 H 125.172 -3.95235 0.870116 0
M  V30 1407 H 123.742 -3.11884 0.211452 0
M  V30 1408 H 122.962 -2.88514 2.68614 0
M  V30 1409 H 124.25 -4.02666 3.11026 0
M  V30 1410 H 123.648 -5.6448 0.371368 0
M  V30 1411 H 122.205 -6.46739 0.810656 0
M  V30 1412 N 125.638 -1.25649 -0.95132 0
M  V30 1413 C 126.868 -1.13179 -1.72841 0
M  V30 1414 C 127.276 0.316827 -1.86528 0
M  V30 1415 O 126.619 1.22948 -1.3649 0
M  V30 1416 C 126.681 -1.71644 -3.15878 0
M  V30 1417 C 126.345 -3.20667 -3.25609 0
M  V30 1418 C 127.342 -4.17616 -3.09666 0
M  V30 1419 C 125.027 -3.6094 -3.49324 0
M  V30 1420 C 127.021 -5.52817 -3.17289 0
M  V30 1421 C 124.708 -4.96278 -3.56584 0
M  V30 1422 C 125.706 -5.92025 -3.40581 0
M  V30 1423 O 125.394 -7.24899 -3.47528 0
M  V30 1424 H 125.126 -0.395389 -0.54831 0
M  V30 1425 H 127.68 -1.66566 -1.20187 0
M  V30 1426 H 125.91 -1.12707 -3.69911 0
M  V30 1427 H 127.599 -1.54225 -3.75459 0
M  V30 1428 H 128.365 -3.87842 -2.91211 0
M  V30 1429 H 124.244 -2.86907 -3.6084 0
M  V30 1430 H 127.788 -6.2753 -3.04716 0
M  V30 1431 H 123.685 -5.25716 -3.74556 0
M  V30 1432 H 124.453 -7.33039 -3.64138 0
M  V30 1433 N 127.117 1.15442 -1.07289 0
M  V30 1434 C 128.08 2.18358 -0.696591 0
M  V30 1435 C 129.08 1.58637 0.262837 0
M  V30 1436 O 130.27 1.74145 0.0438809 0
M  V30 1437 C 127.402 3.4089 -0.0266151 0
M  V30 1438 H 128.595 2.53162 -1.60776 0
M  V30 1439 H 126.148 1.29893 -0.869342 0
M  V30 1440 H 126.883 3.11653 0.896822 0
M  V30 1441 H 126.668 3.85495 -0.716657 0
M  V30 1442 H 128.158 4.17009 0.222028 0
M  V30 1443 N 128.595 0.856903 1.32268 0
M  V30 1444 C 129.542 0.301172 2.28827 0
M  V30 1445 C 130.512 -0.593104 1.5515 0
M  V30 1446 O 131.697 -0.527537 1.83362 0
M  V30 1447 C 128.837 -0.502523 3.41422 0
M  V30 1448 C 127.95 0.417797 4.29975 0
M  V30 1449 C 127.085 -0.398749 5.29701 0
M  V30 1450 C 126.124 0.518827 6.09897 0
M  V30 1451 N 125.261 -0.260674 7.01616 0
M  V30 1452 H 130.101 1.12983 2.75751 0
M  V30 1453 H 127.638 0.568582 1.35667 0
M  V30 1454 H 129.596 -0.984141 4.05426 0
M  V30 1455 H 128.226 -1.29599 2.95642 0
M  V30 1456 H 127.278 1.01781 3.66531 0
M  V30 1457 H 128.59 1.12191 4.86019 0
M  V30 1458 H 127.744 -0.943435 5.9932 0
M  V30 1459 H 126.483 -1.13622 4.7428 0
M  V30 1460 H 125.488 1.07538 5.39181 0
M  V30 1461 H 126.713 1.25495 6.67404 0
M  V30 1462 H 124.659 -0.981198 6.4862 0
M  V30 1463 H 124.576 0.384364 7.55022 0
M  V30 1464 H 125.844 -0.787014 7.75517 0
M  V30 1465 N 130.073 -1.45103 0.615059 0
M  V30 1466 C 131.301 -2.06553 0.11977 0
M  V30 1467 C 131.716 -1.45842 -1.19898 0
M  V30 1468 O 131.073 -0.575325 -1.73194 0
M  V30 1469 C 131.124 -3.61495 -0.018364 0
M  V30 1470 O 130.845 -4.19942 1.24822 0
M  V30 1471 C 132.346 -4.39947 -0.544237 0
M  V30 1472 H 129.566 -0.667096 0.0722739 0
M  V30 1473 H 132.11 -1.8623 0.84491 0
M  V30 1474 H 130.265 -3.81135 -0.693865 0
M  V30 1475 H 130.679 -5.13204 1.0827 0
M  V30 1476 H 132.153 -5.48838 -0.589953 0
M  V30 1477 H 132.63 -4.10255 -1.56805 0
M  V30 1478 H 133.236 -4.25188 0.0974703 0
M  V30 1479 N 131.551 -0.354651 -1.53558 0
M  V30 1480 C 132.828 0.294281 -1.93374 0
M  V30 1481 C 133.208 1.67313 -1.28723 0
M  V30 1482 O 132.556 2.24179 -0.442247 0
M  V30 1483 C 132.766 0.355445 -3.47185 0
M  V30 1484 C 134.114 0.601007 -4.20325 0
M  V30 1485 O 135.138 0.437106 -3.53508 0
M  V30 1486 O 133.997 0.919322 -5.38712 0
M  V30 1487 H 131.091 0.174033 -0.808481 0
M  V30 1488 H 133.637 -0.406638 -1.64756 0
M  V30 1489 H 132.409 -0.611729 -3.86489 0
M  V30 1490 H 132.032 1.1027 -3.82003 0
M  V30 1491 N 133.029 1.57378 -0.0835403 0
M  V30 1492 C 134.254 1.98682 0.594987 0
M  V30 1493 C 134.679 0.961969 1.61641 0
M  V30 1494 O 134.037 -0.0709989 1.81161 0
M  V30 1495 C 134.085 3.38988 1.2296 0
M  V30 1496 O 133.189 3.39208 2.34546 0
M  V30 1497 H 132.53 0.646368 0.152002 0
M  V30 1498 H 135.06 2.03961 -0.161533 0
M  V30 1499 H 135.07 3.76431 1.57366 0
M  V30 1500 H 133.745 4.13107 0.481228 0
M  V30 1501 H 132.322 3.13548 2.01846 0
M  V30 1502 N 134.507 -0.190092 1.56449 0
M  V30 1503 C 135.784 -0.935886 1.71757 0
M  V30 1504 C 136.164 -2.01173 0.639726 0
M  V30 1505 O 135.512 -2.25827 -0.348502 0
M  V30 1506 C 135.722 -1.51775 3.1427 0
M  V30 1507 C 137.07 -1.99794 3.74656 0
M  V30 1508 O 138.094 -1.61607 3.1743 0
M  V30 1509 O 136.953 -2.70079 4.751 0
M  V30 1510 H 134.047 -0.439229 0.700719 0
M  V30 1511 H 136.593 -0.179395 1.68749 0
M  V30 1512 H 135.365 -0.742505 3.84191 0
M  V30 1513 H 134.988 -2.33894 3.21527 0
M  V30 1514 N 135.985 -1.50799 -0.457987 0
M  V30 1515 C 137.234 -1.6168 -1.20593 0
M  V30 1516 C 137.547 -0.32888 -1.92815 0
M  V30 1517 O 138.753 -0.316773 -2.69646 0
M  V30 1518 C 137.209 -2.8545 -2.19195 0
M  V30 1519 C 136.817 -4.21168 -1.52715 0
M  V30 1520 C 138.561 -3.05681 -2.94549 0
M  V30 1521 C 136.468 -5.3611 -2.4968 0
M  V30 1522 H 135.398 -0.602134 -0.453818 0
M  V30 1523 H 138.049 -1.77245 -0.475031 0
M  V30 1524 H 136.431 -2.63472 -2.95632 0
M  V30 1525 H 137.605 -4.53449 -0.819775 0
M  V30 1526 H 135.92 -4.06648 -0.895922 0
M  V30 1527 H 138.517 -3.88727 -3.67145 0
M  V30 1528 H 138.86 -2.17929 -3.54701 0
M  V30 1529 H 139.393 -3.27901 -2.25223 0
M  V30 1530 H 136.132 -6.26057 -1.94249 0
M  V30 1531 H 135.652 -5.0823 -3.18532 0
M  V30 1532 H 137.331 -5.6722 -3.11241 0
M  V30 1533 N 137.463 0.71206 -1.40597 0
M  V30 1534 C 138.712 1.46754 -1.38369 0
M  V30 1535 C 139.025 1.95598 0.0097839 0
M  V30 1536 O 140.231 2.71059 0.154677 0
M  V30 1537 C 138.687 2.65289 -2.43207 0
M  V30 1538 C 138.295 2.23301 -3.88382 0
M  V30 1539 C 140.039 3.43008 -2.50091 0
M  V30 1540 C 137.946 3.38696 -4.84808 0
M  V30 1541 H 136.876 0.55118 -0.514506 0
M  V30 1542 H 139.527 0.774616 -1.66349 0
M  V30 1543 H 137.909 3.36769 -2.08332 0
M  V30 1544 H 139.083 1.59218 -4.32419 0
M  V30 1545 H 137.398 1.58618 -3.85006 0
M  V30 1546 H 139.995 4.28881 -3.1932 0
M  V30 1547 H 140.338 3.87065 -1.53253 0
M  V30 1548 H 140.871 2.78574 -2.83974 0
M  V30 1549 H 137.61 2.99668 -5.82992 0
M  V30 1550 H 137.13 4.01683 -4.45433 0
M  V30 1551 H 138.809 4.04712 -5.04794 0
M  V30 1552 N 138.941 1.26152 0.944643 0
M  V30 1553 C 139.904 1.07474 2.0244 0
M  V30 1554 C 140.904 0.0242064 1.60782 0
M  V30 1555 O 142.094 0.267302 1.72137 0
M  V30 1556 C 139.226 0.633956 3.34953 0
M  V30 1557 H 140.419 2.03336 2.20442 0
M  V30 1558 H 137.972 1.087 1.12312 0
M  V30 1559 H 138.707 -0.326811 3.22649 0
M  V30 1560 H 138.492 1.39247 3.66542 0
M  V30 1561 H 139.982 0.52501 4.14287 0
M  V30 1562 N 140.419 -1.14872 1.07899 0
M  V30 1563 C 141.366 -2.19791 0.704319 0
M  V30 1564 C 142.336 -1.63238 -0.306987 0
M  V30 1565 O 143.521 -1.8983 -0.192171 0
M  V30 1566 C 140.661 -3.44911 0.114244 0
M  V30 1567 C 139.774 -4.15637 1.1777 0
M  V30 1568 C 138.909 -5.28324 0.552037 0
M  V30 1569 C 137.948 -5.90875 1.59789 0
M  V30 1570 N 137.085 -6.95022 0.994404 0
M  V30 1571 H 141.925 -2.5119 1.60336 0
M  V30 1572 H 139.462 -1.23356 0.801352 0
M  V30 1573 H 141.42 -4.16477 -0.245544 0
M  V30 1574 H 140.05 -3.14011 -0.74813 0
M  V30 1575 H 139.102 -3.42512 1.65499 0
M  V30 1576 H 140.414 -4.5823 1.97046 0
M  V30 1577 H 139.568 -6.06538 0.1402 0
M  V30 1578 H 138.307 -4.86939 -0.272431 0
M  V30 1579 H 137.312 -5.11369 2.01945 0
M  V30 1580 H 138.537 -6.34337 2.42474 0
M  V30 1581 H 136.483 -6.55722 0.190939 0
M  V30 1582 H 136.4 -7.36073 1.72432 0
M  V30 1583 H 137.668 -7.77123 0.608253 0
M  V30 1584 N 141.898 -0.863906 -1.31812 0
M  V30 1585 C 142.831 -0.259963 -2.26714 0
M  V30 1586 C 143.809 0.607392 -1.50829 0
M  V30 1587 O 144.993 0.562155 -1.79922 0
M  V30 1588 C 142.12 0.632456 -3.32743 0
M  V30 1589 C 141.166 -0.162743 -4.26189 0
M  V30 1590 S 141.999 -1.53726 -5.12961 0
M  V30 1591 C 143.155 -0.650803 -6.22507 0
M  V30 1592 H 143.388 -1.06445 -2.77591 0
M  V30 1593 H 140.921 -0.662071 -1.39485 0
M  V30 1594 H 142.879 1.14167 -3.94305 0
M  V30 1595 H 141.54 1.41083 -2.80632 0
M  V30 1596 H 140.733 0.517366 -5.01338 0
M  V30 1597 H 140.335 -0.60385 -3.69093 0
M  V30 1598 H 142.627 0.141134 -6.77353 0
M  V30 1599 H 143.57 -1.37322 -6.94657 0
M  V30 1600 H 143.978 -0.221041 -5.64067 0
M  V30 1601 N 143.376 1.44774 -0.622745 0
M  V30 1602 C 144.323 2.30635 0.0871679 0
M  V30 1603 C 145.293 1.42994 0.845097 0
M  V30 1604 O 146.478 1.71907 0.827812 0
M  V30 1605 C 143.618 3.28144 1.06844 0
M  V30 1606 C 142.731 4.30888 0.309809 0
M  V30 1607 C 141.866 5.15494 1.28215 0
M  V30 1608 C 140.905 6.09953 0.512198 0
M  V30 1609 N 140.042 6.87287 1.43458 0
M  V30 1610 H 144.882 2.90803 -0.650974 0
M  V30 1611 H 142.419 1.43286 -0.33281 0
M  V30 1612 H 144.377 3.83157 1.65066 0
M  V30 1613 H 143.007 2.69695 1.77382 0
M  V30 1614 H 142.059 3.78414 -0.388181 0
M  V30 1615 H 143.371 4.97955 -0.290254 0
M  V30 1616 H 142.525 5.74983 1.93596 0
M  V30 1617 H 141.264 4.48481 1.91614 0
M  V30 1618 H 140.269 5.49581 -0.155151 0
M  V30 1619 H 141.494 6.78999 -0.116958 0
M  V30 1620 H 139.44 6.2295 2.05594 0
M  V30 1621 H 139.357 7.50763 0.888335 0
M  V30 1622 H 140.625 7.51306 2.07749 0
M  V30 1623 N 144.854 0.36279 1.53368 0
M  V30 1624 C 146.102 -0.227326 2.00817 0
M  V30 1625 C 146.423 -1.49511 1.25186 0
M  V30 1626 O 145.693 -1.92482 0.364348 0
M  V30 1627 H 144.273 -0.0869923 0.741917 0
M  V30 1628 H 146.935 0.488381 1.88682 0
M  V30 1629 H 146.031 -0.456273 3.08747 0
M  V30 1630 N 146.332 -1.57332 0.0918853 0
M  V30 1631 C 147.56 -1.98574 -0.581048 0
M  V30 1632 C 147.975 -0.970903 -1.61923 0
M  V30 1633 O 147.332 0.0399054 -1.82456 0
M  V30 1634 C 147.383 -3.39872 -1.23164 0
M  V30 1635 O 147.104 -4.37469 -0.234989 0
M  V30 1636 C 148.605 -3.96099 -1.99049 0
M  V30 1637 H 145.825 -0.65261 -0.156018 0
M  V30 1638 H 148.369 -2.0379 0.170225 0
M  V30 1639 H 146.524 -3.35679 -1.93386 0
M  V30 1640 H 146.938 -5.19751 -0.70418 0
M  V30 1641 H 148.412 -4.97127 -2.39934 0
M  V30 1642 H 148.889 -3.3374 -2.85507 0
M  V30 1643 H 149.495 -4.03755 -1.3365 0
M  V30 1644 N 147.81 0.181792 -1.56548 0
M  V30 1645 C 149.057 0.900097 -1.81396 0
M  V30 1646 C 149.385 1.82695 -0.667281 0
M  V30 1647 O 148.64 1.92614 0.346146 0
M  V30 1648 C 148.939 1.73728 -3.12335 0
M  V30 1649 C 148.605 0.960255 -4.40556 0
M  V30 1650 C 147.267 0.745766 -4.75386 0
M  V30 1651 C 149.619 0.414477 -5.19549 0
M  V30 1652 C 146.947 -0.0257694 -5.86694 0
M  V30 1653 C 149.299 -0.343916 -6.31664 0
M  V30 1654 C 147.963 -0.569301 -6.65068 0
M  V30 1655 H 147.233 0.329369 -0.663775 0
M  V30 1656 H 149.88 0.165647 -1.90782 0
M  V30 1657 H 148.185 2.54081 -2.98245 0
M  V30 1658 H 149.882 2.29591 -3.28769 0
M  V30 1659 H 146.472 1.13746 -4.13231 0
M  V30 1660 H 150.656 0.567554 -4.93044 0
M  V30 1661 H 145.912 -0.210233 -6.11038 0
M  V30 1662 H 150.086 -0.774133 -6.92084 0
M  V30 1663 H 147.713 -1.16903 -7.51158 0
M  V30 1664 N 149.288 1.51039 0.449983 0
M  V30 1665 C 150.534 1.63322 1.20223 0
M  V30 1666 C 150.867 0.34241 1.91158 0
M  V30 1667 O 150.142 -0.657344 1.83055 0
M  V30 1668 C 150.425 2.82801 2.22925 0
M  V30 1669 C 150.278 4.21823 1.56157 0
M  V30 1670 C 151.597 2.97807 3.24035 0
M  V30 1671 H 148.716 0.594407 0.435718 0
M  V30 1672 H 151.358 1.83489 0.493136 0
M  V30 1673 H 149.508 2.65738 2.834 0
M  V30 1674 H 151.18 4.50526 0.991162 0
M  V30 1675 H 149.423 4.25105 0.864172 0
M  V30 1676 H 150.094 5.01391 2.30891 0
M  V30 1677 H 152.57 3.13497 2.73603 0
M  V30 1678 H 151.446 3.82992 3.93202 0
M  V30 1679 H 151.707 2.09328 3.89402 0
M  V30 1680 N 150.766 -0.704594 1.40972 0
M  V30 1681 C 151.676 -1.84856 1.44448 0
M  V30 1682 C 152.692 -1.70726 0.335961 0
M  V30 1683 O 153.868 -1.92799 0.582276 0
M  V30 1684 C 150.933 -3.20758 1.31587 0
M  V30 1685 C 149.994 -3.47063 2.52677 0
M  V30 1686 C 149.227 -4.76481 2.4042 0
M  V30 1687 O 149.45 -5.52341 1.42391 0
M  V30 1688 O 148.384 -5.03367 3.30007 0
M  V30 1689 H 152.21 -1.8488 2.40942 0
M  V30 1690 H 149.795 -0.85647 1.22413 0
M  V30 1691 H 151.677 -4.01913 1.26665 0
M  V30 1692 H 150.352 -3.21438 0.382049 0
M  V30 1693 H 149.259 -2.65873 2.63177 0
M  V30 1694 H 150.592 -3.5119 3.44858 0
M  V30 1695 N 152.244 -1.26651 -0.937939 0
M  V30 1696 C 153.66 -1.03834 -1.21205 0
M  V30 1697 C 153.86 0.234502 -2.00131 0
M  V30 1698 O 152.916 0.942767 -2.3424 0
M  V30 1699 C 154.229 -2.27167 -1.97017 0
M  V30 1700 C 155.777 -2.32101 -2.09996 0
M  V30 1701 C 156.252 -3.55136 -2.8921 0
M  V30 1702 N 157.743 -3.55632 -2.96783 0
M  V30 1703 C 158.478 -4.475 -3.58512 0
M  V30 1704 N 157.974 -5.4966 -4.21717 0
M  V30 1705 N 159.767 -4.35145 -3.55816 0
M  V30 1706 H 151.918 -2.08398 -0.410391 0
M  V30 1707 H 154.181 -0.916031 -0.244114 0
M  V30 1708 H 153.887 -3.19765 -1.46434 0
M  V30 1709 H 153.761 -2.31672 -2.97671 0
M  V30 1710 H 156.148 -1.40015 -2.59769 0
M  V30 1711 H 156.229 -2.31605 -1.08594 0
M  V30 1712 H 155.873 -4.47553 -2.40123 0
M  V30 1713 H 155.803 -3.5288 -3.90875 0
M  V30 1714 H 158.294 -2.81743 -2.51852 0
M  V30 1715 H 158.607 -6.15943 -4.66727 0
M  V30 1716 H 156.952 -5.53514 -4.20294 0
M  V30 1717 H 160.143 -3.5455 -3.05634 0
M  V30 1718 H 160.316 -5.06934 -4.03636 0
M  V30 1719 N 153.722 1.14298 -1.08507 0
M  V30 1720 C 154.999 1.81544 -0.728088 0
M  V30 1721 C 155.379 1.95838 0.78808 0
M  V30 1722 O 154.727 1.51904 1.70697 0
M  V30 1723 C 154.937 3.17169 -1.45619 0
M  V30 1724 C 156.285 3.9265 -1.61591 0
M  V30 1725 O 157.309 3.26762 -1.41793 0
M  V30 1726 O 156.168 5.10807 -1.94263 0
M  V30 1727 H 153.262 0.78491 -0.260471 0
M  V30 1728 H 155.808 1.21307 -1.18671 0
M  V30 1729 H 154.58 3.01934 -2.489 0
M  V30 1730 H 154.203 3.851 -0.989124 0
M  V30 1731 N 155.201 0.870884 1.31352 0
M  V30 1732 C 156.617 0.562932 1.49343 0
M  V30 1733 C 156.817 -0.902725 1.80148 0
M  V30 1734 O 155.873 -1.68484 1.88067 0
M  V30 1735 C 157.186 1.46393 2.62659 0
M  V30 1736 C 158.734 1.46607 2.76542 0
M  V30 1737 C 159.209 2.35266 3.92955 0
M  V30 1738 N 160.7 2.33151 4.00243 0
M  V30 1739 C 161.435 2.98471 4.89594 0
M  V30 1740 N 160.931 3.72964 5.8384 0
M  V30 1741 N 162.724 2.87775 4.82848 0
M  V30 1742 H 154.875 1.81923 1.09626 0
M  V30 1743 H 157.138 0.777934 0.541777 0
M  V30 1744 H 156.844 2.50689 2.46674 0
M  V30 1745 H 156.718 1.16314 3.58819 0
M  V30 1746 H 159.105 0.43069 2.9194 0
M  V30 1747 H 159.186 1.8071 1.81046 0
M  V30 1748 H 158.83 3.38881 3.78315 0
M  V30 1749 H 158.76 1.98487 4.87761 0
M  V30 1750 H 161.251 1.79006 3.32814 0
M  V30 1751 H 161.564 4.19932 6.4875 0
M  V30 1752 H 159.909 3.77073 5.83816 0
M  V30 1753 H 163.1 2.29116 4.08195 0
M  V30 1754 H 163.273 3.38961 5.52277 0
M  V30 1755 N 156.679 -1.44442 0.630414 0
M  V30 1756 C 157.626 -2.30678 -0.0749355 0
M  V30 1757 C 158.596 -1.4344 -0.837502 0
M  V30 1758 O 159.781 -1.72343 -0.818684 0
M  V30 1759 C 156.921 -3.28706 -1.05103 0
M  V30 1760 C 156.034 -4.31046 -0.286954 0
M  V30 1761 C 155.169 -5.16167 -1.2548 0
M  V30 1762 C 154.208 -6.10216 -0.479843 0
M  V30 1763 N 153.345 -6.88039 -1.39811 0
M  V30 1764 H 158.185 -2.90454 0.666386 0
M  V30 1765 H 155.722 -1.43107 0.340404 0
M  V30 1766 H 157.68 -3.84027 -1.63031 0
M  V30 1767 H 156.31 -2.70632 -1.75949 0
M  V30 1768 H 155.362 -3.78203 0.408243 0
M  V30 1769 H 156.674 -4.97794 0.316657 0
M  V30 1770 H 155.828 -5.76002 -1.90544 0
M  V30 1771 H 154.567 -4.49491 -1.89233 0
M  V30 1772 H 153.572 -5.49491 0.184295 0
M  V30 1773 H 154.797 -6.78928 0.152965 0
M  V30 1774 H 152.743 -6.24032 -2.02287 0
M  V30 1775 H 152.66 -7.51223 -0.848508 0
M  V30 1776 H 153.928 -7.52397 -2.03762 0
M  V30 1777 N 158.157 -0.370918 -1.53173 0
M  V30 1778 C 159.573 -0.0200818 -1.59587 0
M  V30 1779 C 159.773 1.46279 -1.38581 0
M  V30 1780 O 158.829 2.22506 -1.19363 0
M  V30 1781 C 160.142 -0.4808 -2.96831 0
M  V30 1782 C 161.69 -0.435477 -3.09956 0
M  V30 1783 C 162.165 -0.872092 -4.4962 0
M  V30 1784 N 163.656 -0.827364 -4.55751 0
M  V30 1785 C 164.391 -1.13683 -5.62018 0
M  V30 1786 N 163.887 -1.51584 -6.76014 0
M  V30 1787 N 165.68 -1.05927 -5.52029 0
M  V30 1788 H 157.831 -1.33652 -1.65079 0
M  V30 1789 H 160.094 -0.546634 -0.774529 0
M  V30 1790 H 159.8 -1.51577 -3.1736 0
M  V30 1791 H 159.674 0.129796 -3.76977 0
M  V30 1792 H 162.061 0.590371 -2.89134 0
M  V30 1793 H 162.142 -1.08164 -2.31806 0
M  V30 1794 H 161.786 -1.89608 -4.71181 0
M  V30 1795 H 161.716 -0.203127 -5.26208 0
M  V30 1796 H 164.207 -0.548216 -3.73902 0
M  V30 1797 H 164.52 -1.73609 -7.53047 0
M  V30 1798 H 162.865 -1.55454 -6.77391 0
M  V30 1799 H 166.056 -0.762321 -4.61851 0
M  V30 1800 H 166.229 -1.30378 -6.34749 0
M  V30 1801 N 159.635 1.57281 -0.100228 0
M  V30 1802 C 160.545 2.17833 0.870965 0
M  V30 1803 C 161.561 1.14921 1.30649 0
M  V30 1804 O 162.737 1.47313 1.37335 0
M  V30 1805 C 159.802 2.75085 2.1102 0
M  V30 1806 C 158.863 3.9297 1.72838 0
M  V30 1807 C 158.096 4.47482 2.90854 0
M  V30 1808 O 158.319 4.00922 4.05731 0
M  V30 1809 O 157.253 5.38433 2.69023 0
M  V30 1810 H 161.079 3.0124 0.38575 0
M  V30 1811 H 158.664 1.48881 0.124397 0
M  V30 1812 H 160.546 3.11656 2.83634 0
M  V30 1813 H 159.221 1.94721 2.58584 0
M  V30 1814 H 158.128 3.61201 0.973883 0
M  V30 1815 H 159.461 4.74713 1.30033 0
M  V30 1816 N 161.113 -0.173488 1.56642 0
M  V30 1817 C 162.06 -1.21482 1.96242 0
M  V30 1818 C 163.03 -1.44104 0.826027 0
M  V30 1819 O 164.215 -1.5688 1.08597 0
M  V30 1820 C 161.355 -2.54964 2.32567 0
M  V30 1821 C 160.468 -2.39739 3.59373 0
M  V30 1822 C 159.603 -3.66072 3.84921 0
M  V30 1823 C 158.642 -3.45771 5.05083 0
M  V30 1824 N 157.779 -4.64169 5.26775 0
M  V30 1825 H 162.619 -0.870123 2.85014 0
M  V30 1826 H 160.156 -0.418245 1.41029 0
M  V30 1827 H 162.114 -3.32758 2.5165 0
M  V30 1828 H 160.744 -2.87433 1.46908 0
M  V30 1829 H 159.796 -1.53131 3.48217 0
M  V30 1830 H 161.108 -2.20683 4.47326 0
M  V30 1831 H 160.262 -4.52303 4.0436 0
M  V30 1832 H 159.001 -3.88105 2.9534 0
M  V30 1833 H 158.006 -2.57927 4.85545 0
M  V30 1834 H 159.231 -3.25163 5.96193 0
M  V30 1835 H 157.177 -4.86425 4.40144 0
M  V30 1836 H 157.094 -4.48019 6.08946 0
M  V30 1837 H 158.362 -5.51689 5.5069 0
M  V30 1838 N 162.591 -1.51276 -0.441967 0
M  V30 1839 C 164.007 -1.39349 -0.778083 0
M  V30 1840 C 164.207 -0.472212 -1.95889 0
M  V30 1841 O 163.263 0.0743551 -2.5239 0
M  V30 1842 C 164.576 -2.81292 -1.0628 0
M  V30 1843 C 166.124 -2.9041 -1.16751 0
M  V30 1844 C 166.599 -4.33251 -1.48519 0
M  V30 1845 N 168.09 -4.36336 -1.55453 0
M  V30 1846 C 168.825 -5.43885 -1.81596 0
M  V30 1847 N 168.321 -6.61601 -2.05562 0
M  V30 1848 N 170.114 -5.3136 -1.8334 0
M  V30 1849 H 162.265 -2.09729 0.335774 0
M  V30 1850 H 164.528 -0.943925 0.0878028 0
M  V30 1851 H 164.234 -3.50678 -0.267905 0
M  V30 1852 H 164.108 -3.20334 -1.99163 0
M  V30 1853 H 166.495 -2.21225 -1.95304 0
M  V30 1854 H 166.576 -2.54871 -0.217801 0
M  V30 1855 H 166.22 -5.02984 -0.704958 0
M  V30 1856 H 166.15 -4.66299 -2.44689 0
M  V30 1857 H 168.641 -3.51466 -1.38853 0
M  V30 1858 H 168.954 -7.39361 -2.24867 0
M  V30 1859 H 167.299 -6.64725 -2.02894 0
M  V30 1860 H 170.49 -4.38382 -1.64132 0
M  V30 1861 H 170.663 -6.15258 -2.03377 0
M  V30 1862 N 164.069 0.697108 -1.41344 0
M  V30 1863 C 165.016 1.81106 -1.43071 0
M  V30 1864 C 165.986 1.63632 -0.285275 0
M  V30 1865 O 167.171 1.84504 -0.486091 0
M  V30 1866 C 164.311 3.18975 -1.31715 0
M  V30 1867 C 163.424 3.47892 -2.56115 0
M  V30 1868 C 162.559 4.75367 -2.37064 0
M  V30 1869 C 161.598 4.97247 -3.56948 0
M  V30 1870 N 160.735 6.15947 -3.36977 0
M  V30 1871 H 165.575 1.78965 -2.38276 0
M  V30 1872 H 163.112 0.873975 -1.18322 0
M  V30 1873 H 165.07 3.98615 -1.23133 0
M  V30 1874 H 163.7 3.20297 -0.401183 0
M  V30 1875 H 162.752 2.62669 -2.75153 0
M  V30 1876 H 164.064 3.59962 -3.45295 0
M  V30 1877 H 163.218 5.63059 -2.25941 0
M  V30 1878 H 161.957 4.65541 -1.45338 0
M  V30 1879 H 160.962 4.08004 -3.68527 0
M  V30 1880 H 162.187 5.08934 -4.49626 0
M  V30 1881 H 160.133 6.07336 -2.47949 0
M  V30 1882 H 160.05 6.28777 -4.19732 0
M  V30 1883 H 161.318 7.06377 -3.29623 0
M  V30 1884 N 165.547 1.27147 0.931209 0
M  V30 1885 C 166.958 1.12044 1.49342 0
M  V30 1886 C 167.309 -0.295795 1.93957 0
M  V30 1887 O 166.434 -1.18835 1.80852 0
M  V30 1888 C 167.029 2.02781 2.71414 0
M  V30 1889 C 165.588 1.91794 3.2387 0
M  V30 1890 C 164.735 1.95543 1.96617 0
M  V30 1891 H 167.686 1.40091 0.745672 0
M  V30 1892 H 167.707 1.58156 3.46074 0
M  V30 1893 H 167.219 3.05848 2.38911 0
M  V30 1894 H 165.32 0.916992 3.6114 0
M  V30 1895 H 165.433 2.77852 3.90302 0
M  V30 1896 H 163.797 1.39722 2.12955 0
M  V30 1897 H 164.58 3.00259 1.66432 0
M  V30 1898 N 167.025 -1.13721 1.09112 0
M  V30 1899 C 167.972 -2.19031 0.727591 0
M  V30 1900 C 168.942 -1.63555 -0.289656 0
M  V30 1901 O 170.127 -1.90023 -0.172026 0
M  V30 1902 C 167.267 -3.4477 0.15082 0
M  V30 1903 C 166.38 -4.14365 1.22172 0
M  V30 1904 C 165.515 -5.27709 0.608042 0
M  V30 1905 C 164.554 -5.89147 1.66047 0
M  V30 1906 N 163.691 -6.93929 1.06806 0
M  V30 1907 H 168.531 -2.49475 1.62991 0
M  V30 1908 H 166.068 -1.22499 0.81439 0
M  V30 1909 H 168.026 -4.16714 -0.201358 0
M  V30 1910 H 166.656 -3.14787 -0.714783 0
M  V30 1911 H 165.708 -3.40737 1.69122 0
M  V30 1912 H 167.02 -4.56114 2.01895 0
M  V30 1913 H 166.174 -6.06355 0.204523 0
M  V30 1914 H 164.913 -4.872 -0.220769 0
M  V30 1915 H 163.918 -5.09198 2.07357 0
M  V30 1916 H 165.143 -6.31729 2.49189 0
M  V30 1917 H 163.089 -6.55483 0.260476 0
M  V30 1918 H 163.006 -7.34202 1.8023 0
M  V30 1919 H 164.274 -7.76434 0.690644 0
M  V30 1920 N 168.503 -0.877838 -1.30888 0
M  V30 1921 C 169.728 -0.506629 -2.01117 0
M  V30 1922 C 170.153 0.895564 -1.65412 0
M  V30 1923 O 169.511 1.5923 -0.866922 0
M  V30 1924 C 169.559 -0.680223 -3.54126 0
M  V30 1925 O 168.663 0.277033 -4.11468 0
M  V30 1926 H 168.004 -0.200518 -0.633 0
M  V30 1927 H 170.534 -1.18342 -1.66902 0
M  V30 1928 H 170.544 -0.5765 -4.03907 0
M  V30 1929 H 169.219 -1.70261 -3.79452 0
M  V30 1930 H 167.796 0.127606 -3.72682 0
M  V30 1931 N 169.982 1.44106 -0.638065 0
M  V30 1932 C 170.914 2.28976 0.101205 0
M  V30 1933 C 171.927 1.4167 0.802088 0
M  V30 1934 O 173.116 1.65755 0.662375 0
M  V30 1935 C 170.216 3.18217 1.16581 0
M  V30 1936 C 169.389 4.33978 0.546066 0
M  V30 1937 C 168.448 5.04202 1.50554 0
M  V30 1938 O 167.474 5.59986 1.01999 0
M  V30 1939 N 168.676 5.06296 2.8398 0
M  V30 1940 H 171.441 2.93064 -0.627186 0
M  V30 1941 H 169.002 1.54629 -0.479731 0
M  V30 1942 H 170.994 3.62061 1.80815 0
M  V30 1943 H 169.564 2.55833 1.79634 0
M  V30 1944 H 168.784 3.93239 -0.275046 0
M  V30 1945 H 170.072 5.08675 0.112793 0
M  V30 1946 H 169.47 4.62319 3.26002 0
M  V30 1947 H 168.027 5.53907 3.43556 0
M  V30 1948 N 171.46 0.379036 1.52974 0
M  V30 1949 C 172.37 -0.468639 2.29872 0
M  V30 1950 C 173.386 -1.08067 1.36373 0
M  V30 1951 O 174.562 -1.08871 1.69438 0
M  V30 1952 C 171.627 -1.58594 3.083 0
M  V30 1953 C 170.688 -1.00007 4.17489 0
M  V30 1954 C 169.921 -2.06413 4.92168 0
M  V30 1955 O 170.144 -3.27751 4.66835 0
M  V30 1956 O 169.078 -1.68717 5.7777 0
M  V30 1957 H 172.904 0.157508 3.03291 0
M  V30 1958 H 170.489 0.143035 1.48714 0
M  V30 1959 H 172.371 -2.23525 3.57232 0
M  V30 1960 H 171.046 -2.19724 2.37703 0
M  V30 1961 H 169.953 -0.314299 3.72777 0
M  V30 1962 H 171.286 -0.433135 4.90291 0
M  V30 1963 N 172.938 -1.57226 0.108567 0
M  V30 1964 C 174.166 -1.99179 -0.559954 0
M  V30 1965 C 174.581 -0.988022 -1.60884 0
M  V30 1966 O 173.938 0.0205512 -1.82488 0
M  V30 1967 C 173.989 -3.41159 -1.19552 0
M  V30 1968 O 173.71 -4.37694 -0.188577 0
M  V30 1969 C 175.211 -3.98188 -1.94837 0
M  V30 1970 H 172.431 -0.654228 -0.149088 0
M  V30 1971 H 174.975 -2.03598 0.19183 0
M  V30 1972 H 173.13 -3.37711 -1.89815 0
M  V30 1973 H 173.544 -5.20469 -0.649014 0
M  V30 1974 H 175.018 -4.99644 -2.34648 0
M  V30 1975 H 175.495 -3.3675 -2.81951 0
M  V30 1976 H 176.101 -4.0515 -1.2936 0
M  V30 1977 N 174.416 0.165178 -1.56732 0
M  V30 1978 C 175.827 0.727046 -1.71962 0
M  V30 1979 C 176.178 1.82508 -0.720078 0
M  V30 1980 O 175.303 2.16082 0.117242 0
M  V30 1981 C 175.898 1.32559 -3.11791 0
M  V30 1982 C 174.457 1.83422 -3.28684 0
M  V30 1983 C 173.604 0.715567 -2.67908 0
M  V30 1984 H 176.555 -0.0602896 -1.58585 0
M  V30 1985 H 176.576 2.19533 -3.10782 0
M  V30 1986 H 176.088 0.526195 -3.84516 0
M  V30 1987 H 174.189 2.65986 -2.60926 0
M  V30 1988 H 174.302 1.97543 -4.36478 0
M  V30 1989 H 172.666 1.13758 -2.27884 0
M  V30 1990 H 173.449 -0.0720836 -3.43224 0
M  V30 1991 N 175.894 1.51508 0.433938 0
M  V30 1992 C 176.857 1.72473 1.50949 0
M  V30 1993 C 177.857 0.594725 1.49398 0
M  V30 1994 O 179.047 0.862315 1.5136 0
M  V30 1995 C 176.179 1.78431 2.90474 0
M  V30 1996 H 177.372 2.68467 1.33662 0
M  V30 1997 H 174.925 1.41549 0.662836 0
M  V30 1998 H 175.66 0.842645 3.13161 0
M  V30 1999 H 175.445 2.60558 2.93005 0
M  V30 2000 H 176.935 1.96479 3.68491 0
M  V30 2001 N 177.372 -0.689602 1.41712 0
M  V30 2002 C 178.6 -1.47827 1.44758 0
M  V30 2003 C 179.015 -1.88721 0.0545703 0
M  V30 2004 O 178.372 -1.57176 -0.927463 0
M  V30 2005 C 178.423 -2.73698 2.3616 0
M  V30 2006 O 178.144 -2.34524 3.7004 0
M  V30 2007 C 179.645 -3.67389 2.48072 0
M  V30 2008 H 176.865 -0.455357 0.49284 0
M  V30 2009 H 179.409 -0.848574 1.86063 0
M  V30 2010 H 177.564 -3.32891 1.98148 0
M  V30 2011 H 177.978 -3.15701 4.18847 0
M  V30 2012 H 179.452 -4.52475 3.16181 0
M  V30 2013 H 179.929 -4.12284 1.51388 0
M  V30 2014 H 180.535 -3.14097 2.86746 0
M  V30 2015 N 178.85 -1.27639 -0.924453 0
M  V30 2016 C 179.797 -1.10644 -2.0255 0
M  V30 2017 C 180.767 -0.00658438 -1.66099 0
M  V30 2018 O 181.952 -0.16952 -1.90045 0
M  V30 2019 C 179.092 -0.76309 -3.36557 0
M  V30 2020 C 178.205 -1.94091 -3.85944 0
M  V30 2021 C 177.34 -1.53914 -5.08413 0
M  V30 2022 C 176.379 -2.68425 -5.50104 0
M  V30 2023 N 175.516 -2.28815 -6.63768 0
M  V30 2024 H 180.356 -2.04858 -2.16419 0
M  V30 2025 H 177.893 -1.01974 -1.06017 0
M  V30 2026 H 179.851 -0.544822 -4.13627 0
M  V30 2027 H 178.481 0.142102 -3.22487 0
M  V30 2028 H 177.533 -2.27162 -3.05125 0
M  V30 2029 H 178.845 -2.7998 -4.12811 0
M  V30 2030 H 177.999 -1.28231 -5.92994 0
M  V30 2031 H 176.738 -0.651391 -4.8333 0
M  V30 2032 H 175.743 -2.94819 -4.64071 0
M  V30 2033 H 176.968 -3.57826 -5.7718 0
M  V30 2034 H 174.914 -1.42495 -6.40337 0
M  V30 2035 H 174.831 -3.08242 -6.90306 0
M  V30 2036 H 176.099 -2.06387 -7.51681 0
M  V30 2037 N 180.328 1.1314 -1.09713 0
M  V30 2038 C 181.275 2.18642 -0.739196 0
M  V30 2039 C 182.245 1.63706 0.280978 0
M  V30 2040 O 183.43 1.90111 0.161946 0
M  V30 2041 C 180.57 3.44685 -0.169102 0
M  V30 2042 C 179.683 4.13711 -1.24367 0
M  V30 2043 C 178.818 5.27379 -0.636019 0
M  V30 2044 C 177.857 5.88259 -1.69169 0
M  V30 2045 N 176.994 6.93352 -1.10485 0
M  V30 2046 H 181.834 2.48607 -1.64312 0
M  V30 2047 H 179.371 1.22066 -0.820875 0
M  V30 2048 H 181.329 4.16815 0.179256 0
M  V30 2049 H 179.959 3.15161 0.698079 0
M  V30 2050 H 179.011 3.39835 -1.70927 0
M  V30 2051 H 180.323 4.55037 -2.04311 0
M  V30 2052 H 179.477 6.06238 -0.236677 0
M  V30 2053 H 178.216 4.8731 0.194928 0
M  V30 2054 H 177.221 5.08092 -2.10055 0
M  V30 2055 H 178.446 6.30399 -2.52536 0
M  V30 2056 H 176.392 6.55335 -0.295234 0
M  V30 2057 H 176.309 7.33236 -1.84121 0
M  V30 2058 H 177.577 7.76057 -0.73181 0
M  V30 2059 N 181.806 0.884767 1.30421 0
M  V30 2060 C 182.769 0.356277 2.26414 0
M  V30 2061 C 183.769 -0.501124 1.52792 0
M  V30 2062 O 184.959 -0.30831 1.7145 0
M  V30 2063 C 182.091 -0.492316 3.37326 0
M  V30 2064 H 183.284 1.20389 2.74675 0
M  V30 2065 H 180.837 0.661607 1.41607 0
M  V30 2066 H 181.572 -1.36052 2.94381 0
M  V30 2067 H 181.357 0.121832 3.91911 0
M  V30 2068 H 182.847 -0.853871 4.08777 0
M  V30 2069 N 183.284 -1.43765 0.645699 0
M  V30 2070 C 184.53 -2.02197 0.156271 0
M  V30 2071 C 184.863 -1.50776 -1.22393 0
M  V30 2072 O 184.138 -0.697771 -1.81553 0
M  V30 2073 C 184.421 -3.59749 0.158872 0
M  V30 2074 C 184.274 -4.21419 1.57245 0
M  V30 2075 C 185.593 -4.37149 -0.50879 0
M  V30 2076 H 182.712 -0.734694 0.0582602 0
M  V30 2077 H 185.354 -1.71157 0.824951 0
M  V30 2078 H 183.504 -3.86325 -0.410525 0
M  V30 2079 H 185.176 -4.059 2.19186 0
M  V30 2080 H 183.419 -3.78356 2.122 0
M  V30 2081 H 184.09 -5.30482 1.52619 0
M  V30 2082 H 186.566 -4.16093 -0.024412 0
M  V30 2083 H 185.442 -5.4683 -0.476213 0
M  V30 2084 H 185.703 -4.12839 -1.58165 0
M  V30 2085 N 184.763 -0.387143 -1.52771 0
M  V30 2086 C 185.695 0.484089 -2.2403 0
M  V30 2087 C 186.708 1.02849 -1.26198 0
M  V30 2088 O 187.897 0.931186 -1.52286 0
M  V30 2089 C 184.997 1.68337 -2.94136 0
M  V30 2090 C 184.17 1.26672 -4.18656 0
M  V30 2091 C 183.229 2.33045 -4.7178 0
M  V30 2092 O 182.255 1.94541 -5.34923 0
M  V30 2093 N 183.457 3.64929 -4.5145 0
M  V30 2094 H 186.222 -0.126404 -2.99433 0
M  V30 2095 H 183.783 -0.213392 -1.60488 0
M  V30 2096 H 185.775 2.39019 -3.26577 0
M  V30 2097 H 184.345 2.20025 -2.22053 0
M  V30 2098 H 183.565 0.388878 -3.92277 0
M  V30 2099 H 184.853 0.964964 -4.99566 0
M  V30 2100 H 184.251 3.98974 -4.01044 0
M  V30 2101 H 182.808 4.31651 -4.88386 0
M  V30 2102 N 186.241 1.57166 -0.116904 0
M  V30 2103 C 187.489 1.94737 0.540533 0
M  V30 2104 C 187.81 1.00096 1.67349 0
M  V30 2105 O 187.08 0.0568854 1.95817 0
M  V30 2106 H 185.66 0.718981 0.202669 0
M  V30 2107 H 188.322 1.94017 -0.185353 0
M  V30 2108 H 187.418 2.97719 0.936483 0
M  V30 2109 N 187.719 -0.156864 1.56817 0
M  V30 2110 C 188.967 -0.869404 1.82444 0
M  V30 2111 C 189.288 -1.82147 0.69623 0
M  V30 2112 O 188.558 -1.93847 -0.28287 0
M  V30 2113 H 187.138 -0.324043 0.673056 0
M  V30 2114 H 189.8 -0.153224 1.94297 0
M  V30 2115 H 188.896 -1.43761 2.77019 0
M  V30 2116 N 189.197 -1.51736 -0.425897 0
M  V30 2117 C 190.445 -1.64644 -1.17204 0
M  V30 2118 C 190.766 -0.370486 -1.91448 0
M  V30 2119 O 190.036 0.614088 -1.86026 0
M  V30 2120 H 188.616 -0.606819 -0.435638 0
M  V30 2121 H 191.278 -1.88713 -0.487177 0
M  V30 2122 H 190.374 -2.47958 -1.89534 0
M  V30 2123 N 190.675 0.682077 -1.42076 0
M  V30 2124 C 191.638 1.77756 -1.44691 0
M  V30 2125 C 192.638 1.5726 -0.335535 0
M  V30 2126 O 193.828 1.63686 -0.596037 0
M  V30 2127 C 190.96 3.16301 -1.27146 0
M  V30 2128 H 192.153 1.76826 -2.42224 0
M  V30 2129 H 189.706 0.891012 -1.28416 0
M  V30 2130 H 190.441 3.22862 -0.305075 0
M  V30 2131 H 190.226 3.32581 -2.07683 0
M  V30 2132 H 191.716 3.96241 -1.31843 0
M  V30 2133 N 192.153 1.28127 0.917671 0
M  V30 2134 C 193.381 1.17892 1.70026 0
M  V30 2135 C 193.796 -0.262958 1.8696 0
M  V30 2136 O 193.153 -1.17811 1.3938 0
M  V30 2137 C 193.204 1.86872 3.09453 0
M  V30 2138 O 192.925 3.25428 2.93306 0
M  V30 2139 C 194.426 1.8289 4.03815 0
M  V30 2140 H 191.646 0.40942 0.531617 0
M  V30 2141 H 194.19 1.69181 1.14883 0
M  V30 2142 H 192.345 1.39464 3.61426 0
M  V30 2143 H 192.759 3.59918 3.81523 0
M  V30 2144 H 194.233 2.35751 4.99125 0
M  V30 2145 H 194.71 0.800412 4.31845 0
M  V30 2146 H 195.316 2.29959 3.57769 0
M  V30 2147 N 193.631 -1.12557 1.10312 0
M  V30 2148 C 195.042 -1.65574 0.862678 0
M  V30 2149 C 195.393 -1.86566 -0.607256 0
M  V30 2150 O 194.518 -1.59121 -1.46662 0
M  V30 2151 C 195.113 -3.00776 1.55947 0
M  V30 2152 C 193.672 -3.50748 1.36576 0
M  V30 2153 C 192.819 -2.25797 1.60968 0
M  V30 2154 H 195.77 -0.963552 1.26101 0
M  V30 2155 H 195.791 -3.67185 0.997753 0
M  V30 2156 H 195.303 -2.85465 2.62928 0
M  V30 2157 H 193.404 -3.71245 0.317531 0
M  V30 2158 H 193.517 -4.30289 2.10686 0
M  V30 2159 H 191.881 -2.32841 1.03234 0
M  V30 2160 H 192.664 -2.13043 2.69198 0
M  V30 2161 N 195.109 -0.891671 -1.2995 0
M  V30 2162 C 196.355 -0.514261 -1.96171 0
M  V30 2163 C 196.688 0.935506 -1.70182 0
M  V30 2164 O 195.963 1.66204 -1.01028 0
M  V30 2165 C 196.246 -0.797719 -3.51153 0
M  V30 2166 C 196.099 -2.2986 -3.86632 0
M  V30 2167 C 197.418 -0.278749 -4.39216 0
M  V30 2168 H 194.537 -0.188314 -0.712535 0
M  V30 2169 H 197.179 -1.11689 -1.53706 0
M  V30 2170 H 195.329 -0.284826 -3.87455 0
M  V30 2171 H 197.001 -2.88042 -3.60319 0
M  V30 2172 H 195.244 -2.76257 -3.34462 0
M  V30 2173 H 195.915 -2.44753 -4.94773 0
M  V30 2174 H 198.391 -0.717825 -4.09862 0
M  V30 2175 H 197.267 -0.506353 -5.46559 0
M  V30 2176 H 197.528 0.820266 -4.34424 0
M  V30 2177 N 196.587 1.43421 -0.653314 0
M  V30 2178 C 197.833 2.02111 -0.166992 0
M  V30 2179 C 198.166 1.51423 1.21592 0
M  V30 2180 O 197.441 0.707389 1.8118 0
M  V30 2181 C 197.724 3.5966 -0.177948 0
M  V30 2182 C 197.577 4.20579 -1.59478 0
M  V30 2183 C 198.896 4.37413 0.4856 0
M  V30 2184 H 196.015 0.734374 -0.0621557 0
M  V30 2185 H 198.657 1.70717 -0.834016 0
M  V30 2186 H 196.807 3.86537 0.390032 0
M  V30 2187 H 198.479 4.04732 -2.21336 0
M  V30 2188 H 196.722 3.77226 -2.14204 0
M  V30 2189 H 197.393 5.29665 -1.5543 0
M  V30 2190 H 199.869 4.161 0.00234528 0
M  V30 2191 H 198.745 5.47075 0.447207 0
M  V30 2192 H 199.006 4.13672 1.55974 0
M  V30 2193 N 198.065 0.39524 1.52563 0
M  V30 2194 C 199.313 -0.184678 2.01254 0
M  V30 2195 C 199.634 -1.46822 1.28329 0
M  V30 2196 O 198.904 -1.91666 0.405094 0
M  V30 2197 H 197.484 -0.0712355 0.743596 0
M  V30 2198 H 200.146 0.528293 1.87603 0
M  V30 2199 H 199.242 -0.390681 3.09645 0
M  V30 2200 N 199.544 -1.57102 0.125237 0
M  V30 2201 C 200.507 -2.14471 -0.80838 0
M  V30 2202 C 201.507 -1.0811 -1.19033 0
M  V30 2203 O 202.697 -1.33856 -1.11482 0
M  V30 2204 C 199.829 -2.69005 -2.09402 0
M  V30 2205 H 201.022 -2.98297 -0.309696 0
M  V30 2206 H 198.575 -1.55807 -0.124051 0
M  V30 2207 H 199.31 -1.88785 -2.63687 0
M  V30 2208 H 199.095 -3.46799 -1.82957 0
M  V30 2209 H 200.585 -3.13278 -2.76128 0
M  V30 2210 N 201.022 0.148545 -1.56898 0
M  V30 2211 C 202.268 0.862694 -1.83536 0
M  V30 2212 C 202.601 1.80889 -0.706604 0
M  V30 2213 O 201.876 1.92328 0.289885 0
M  V30 2214 C 202.159 1.63853 -3.20662 0
M  V30 2215 C 202.012 0.713925 -4.44098 0
M  V30 2216 C 203.331 2.60133 -3.54991 0
M  V30 2217 H 200.45 0.312179 -0.667618 0
M  V30 2218 H 203.092 0.127953 -1.89569 0
M  V30 2219 H 201.242 2.26489 -3.1565 0
M  V30 2220 H 202.914 0.098686 -4.61194 0
M  V30 2221 H 201.157 0.0234019 -4.33794 0
M  V30 2222 H 201.828 1.29278 -5.36648 0
M  V30 2223 H 204.304 2.07616 -3.60603 0
M  V30 2224 H 203.18 3.11468 -4.51972 0
M  V30 2225 H 203.441 3.41417 -2.80868 0
M  V30 2226 N 202.5 1.5196 0.417844 0
M  V30 2227 C 203.432 1.70895 1.52733 0
M  V30 2228 C 204.445 0.589405 1.51756 0
M  V30 2229 O 205.634 0.864312 1.56179 0
M  V30 2230 C 202.734 1.72627 2.91639 0
M  V30 2231 C 201.907 3.01479 3.16905 0
M  V30 2232 C 200.966 2.95139 4.35637 0
M  V30 2233 O 199.992 3.69059 4.3334 0
M  V30 2234 N 201.194 2.12328 5.40275 0
M  V30 2235 H 203.959 2.66612 1.36888 0
M  V30 2236 H 201.52 1.50089 0.607037 0
M  V30 2237 H 203.512 1.65928 3.6912 0
M  V30 2238 H 202.082 0.844216 3.00985 0
M  V30 2239 H 201.302 3.21895 2.27546 0
M  V30 2240 H 202.59 3.86736 3.30625 0
M  V30 2241 H 201.988 1.51685 5.44985 0
M  V30 2242 H 200.545 2.11494 6.16534 0
M  V30 2243 N 203.978 -0.674533 1.42435 0
M  V30 2244 C 205.226 -1.43175 1.42637 0
M  V30 2245 C 205.547 -1.94951 0.0438992 0
M  V30 2246 O 204.817 -1.7308 -0.917607 0
M  V30 2247 H 203.397 -0.531307 0.525092 0
M  V30 2248 H 206.059 -0.797006 1.77859 0
M  V30 2249 H 205.155 -2.28463 2.12629 0
M  V30 2250 N 205.456 -1.28612 -0.910864 0
M  V30 2251 C 206.867 -1.14406 -1.47541 0
M  V30 2252 C 207.218 0.264901 -1.94403 0
M  V30 2253 O 206.343 1.15942 -1.82719 0
M  V30 2254 C 206.938 -2.07073 -2.68153 0
M  V30 2255 C 205.497 -1.96923 -3.20778 0
M  V30 2256 C 204.644 -1.98646 -1.93481 0
M  V30 2257 H 207.595 -1.41259 -0.723291 0
M  V30 2258 H 207.616 -1.63642 -3.43514 0
M  V30 2259 H 207.128 -3.09611 -2.34015 0
M  V30 2260 H 205.229 -0.97433 -3.59635 0
M  V30 2261 H 205.342 -2.84026 -3.85832 0
M  V30 2262 H 203.706 -1.43093 -2.10705 0
M  V30 2263 H 204.489 -3.02868 -1.61634 0
M  V30 2264 N 206.934 1.1197 -1.10907 0
M  V30 2265 C 208.18 1.8386 -0.855773 0
M  V30 2266 C 208.513 1.84134 0.617103 0
M  V30 2267 O 207.788 1.29041 1.45529 0
M  V30 2268 C 208.071 3.31305 -1.411 0
M  V30 2269 C 207.924 3.39456 -2.9511 0
M  V30 2270 C 209.243 4.2721 -1.05736 0
M  V30 2271 H 206.362 0.667545 -0.312334 0
M  V30 2272 H 209.004 1.31331 -1.37303 0
M  V30 2273 H 207.154 3.76169 -0.97105 0
M  V30 2274 H 208.826 3.03191 -3.47668 0
M  V30 2275 H 207.069 2.79849 -3.31462 0
M  V30 2276 H 207.74 4.43209 -3.29044 0
M  V30 2277 H 210.216 3.90497 -1.43706 0
M  V30 2278 H 209.092 5.28775 -1.47269 0
M  V30 2279 H 209.353 4.42088 0.0325958 0
M  V30 2280 N 208.412 0.89855 1.29475 0
M  V30 2281 C 209.823 0.572537 1.77705 0
M  V30 2282 C 210.174 -0.911778 1.73727 0
M  V30 2283 O 209.299 -1.71288 1.32247 0
M  V30 2284 C 209.894 1.03252 3.22683 0
M  V30 2285 C 208.453 0.757687 3.68695 0
M  V30 2286 C 207.6 1.20787 2.49612 0
M  V30 2287 H 210.551 1.08139 1.16153 0
M  V30 2288 H 210.572 0.367307 3.78723 0
M  V30 2289 H 210.084 2.11285 3.25546 0
M  V30 2290 H 208.185 -0.310079 3.71308 0
M  V30 2291 H 208.298 1.35476 4.59547 0
M  V30 2292 H 206.662 0.626888 2.46865 0
M  V30 2293 H 207.445 2.29622 2.55203 0
M  V30 2294 N 209.89 -1.43072 0.660911 0
M  V30 2295 C 211.138 -2.01323 0.177094 0
M  V30 2296 C 211.459 -1.5245 -1.2159 0
M  V30 2297 O 210.729 -0.740322 -1.81373 0
M  V30 2298 H 209.309 -0.744382 0.0624804 0
M  V30 2299 H 211.971 -1.75179 0.854305 0
M  V30 2300 H 211.067 -3.11649 0.167641 0
M  V30 2301 N 211.368 -0.403325 -1.52352 0
M  V30 2302 C 212.301 0.469463 -2.23319 0
M  V30 2303 C 213.279 1.05272 -1.23922 0
M  V30 2304 O 214.463 1.10169 -1.52954 0
M  V30 2305 C 211.59 1.6511 -2.9573 0
M  V30 2306 C 210.636 1.19178 -4.0951 0
M  V30 2307 S 211.469 0.161718 -5.35256 0
M  V30 2308 C 212.625 1.34882 -6.11194 0
M  V30 2309 H 212.858 -0.133134 -2.97002 0
M  V30 2310 H 210.391 -0.187588 -1.53256 0
M  V30 2311 H 212.349 2.3287 -3.38056 0
M  V30 2312 H 211.01 2.22503 -2.21701 0
M  V30 2313 H 210.203 2.07444 -4.59329 0
M  V30 2314 H 209.805 0.592911 -3.6927 0
M  V30 2315 H 212.097 2.27345 -6.38217 0
M  V30 2316 H 213.04 0.89128 -7.02468 0
M  V30 2317 H 213.448 1.57198 -5.42171 0
M  V30 2318 N 212.846 1.57033 -0.133567 0
M  V30 2319 C 214.257 1.82593 0.389464 0
M  V30 2320 C 214.608 1.05156 1.6564 0
M  V30 2321 O 213.733 0.292644 2.14412 0
M  V30 2322 C 214.328 3.31204 0.713377 0
M  V30 2323 C 212.887 3.57393 1.18098 0
M  V30 2324 C 212.034 2.76598 0.197126 0
M  V30 2325 H 214.985 1.54598 -0.358481 0
M  V30 2326 H 215.006 3.46627 1.56939 0
M  V30 2327 H 214.518 3.87537 -0.2089 0
M  V30 2328 H 212.619 3.06433 2.11966 0
M  V30 2329 H 212.732 4.65915 1.11624 0
M  V30 2330 H 211.096 2.45257 0.687088 0
M  V30 2331 H 211.879 3.35697 -0.718504 0
M  V30 2332 N 214.325 -0.140222 1.56975 0
M  V30 2333 C 215.736 -0.699596 1.73097 0
M  V30 2334 C 216.087 -1.8134 0.749022 0
M  V30 2335 O 215.212 -2.16241 -0.0828503 0
M  V30 2336 C 215.807 -1.27582 3.1386 0
M  V30 2337 C 214.366 -1.78169 3.31561 0
M  V30 2338 C 213.513 -0.672855 2.69013 0
M  V30 2339 H 216.464 0.0855115 1.58469 0
M  V30 2340 H 216.485 -2.14561 3.14235 0
M  V30 2341 H 215.997 -0.464955 3.85305 0
M  V30 2342 H 214.098 -2.61801 2.65124 0
M  V30 2343 H 214.211 -1.90574 4.39566 0
M  V30 2344 H 212.575 -1.10118 2.29665 0
M  V30 2345 H 213.358 0.126679 3.43066 0
M  V30 2346 N 215.803 -1.52179 -0.40978 0
M  V30 2347 C 216.736 -1.70196 -1.52015 0
M  V30 2348 C 217.714 -0.549542 -1.53032 0
M  V30 2349 O 218.898 -0.776815 -1.71749 0
M  V30 2350 C 216.025 -1.74069 -2.90547 0
M  V30 2351 C 215.071 -2.95601 -3.07445 0
M  V30 2352 S 215.904 -4.55956 -2.80827 0
M  V30 2353 C 217.06 -4.62614 -4.21591 0
M  V30 2354 H 217.293 -2.64109 -1.36504 0
M  V30 2355 H 214.826 -1.4221 -0.601312 0
M  V30 2356 H 216.784 -1.76985 -3.70387 0
M  V30 2357 H 215.445 -0.812835 -3.034 0
M  V30 2358 H 214.638 -2.94791 -4.08796 0
M  V30 2359 H 214.24 -2.90569 -2.35469 0
M  V30 2360 H 216.532 -4.39951 -5.15218 0
M  V30 2361 H 217.475 -5.64548 -4.27424 0
M  V30 2362 H 217.883 -3.91654 -4.06531 0
M  V30 2363 N 217.281 0.66697 -1.42791 0
M  V30 2364 C 218.509 1.45505 -1.47091 0
M  V30 2365 C 218.924 1.8861 -0.0845873 0
M  V30 2366 O 218.281 1.58632 0.90234 0
M  V30 2367 C 218.332 2.69906 -2.40485 0
M  V30 2368 O 218.053 2.28608 -3.73725 0
M  V30 2369 C 219.554 3.63396 -2.53886 0
M  V30 2370 H 216.774 0.447459 -0.500022 0
M  V30 2371 H 219.318 0.818866 -1.8739 0
M  V30 2372 H 217.473 3.29696 -2.03419 0
M  V30 2373 H 217.887 3.08997 -4.23817 0
M  V30 2374 H 219.361 4.47387 -3.2334 0
M  V30 2375 H 219.838 4.09824 -1.57927 0
M  V30 2376 H 220.444 3.09495 -2.91706 0
M  V30 2377 N 218.759 1.29093 0.90403 0
M  V30 2378 C 219.691 1.09658 2.01266 0
M  V30 2379 C 220.704 0.0453729 1.62737 0
M  V30 2380 O 221.893 0.289446 1.76138 0
M  V30 2381 C 218.993 0.646278 3.32681 0
M  V30 2382 C 218.166 1.77505 3.99763 0
M  V30 2383 C 217.225 1.31649 5.09465 0
M  V30 2384 O 216.251 2.02045 5.32134 0
M  V30 2385 N 217.453 0.184997 5.80205 0
M  V30 2386 H 220.218 2.05135 2.18494 0
M  V30 2387 H 217.779 1.20975 1.07594 0
M  V30 2388 H 219.771 0.322906 4.0341 0
M  V30 2389 H 218.341 -0.215916 3.11853 0
M  V30 2390 H 217.561 2.26752 3.22455 0
M  V30 2391 H 218.849 2.53198 4.41325 0
M  V30 2392 H 218.247 -0.402021 5.6427 0
M  V30 2393 H 216.804 -0.0790358 6.51752 0
M  V30 2394 N 220.237 -1.11381 1.11499 0
M  V30 2395 C 221.2 -2.15622 0.777153 0
M  V30 2396 C 222.2 -1.59504 -0.203779 0
M  V30 2397 O 223.39 -1.74188 0.020782 0
M  V30 2398 C 220.522 -3.40556 0.153116 0
M  V30 2399 H 221.715 -2.47021 1.70061 0
M  V30 2400 H 219.268 -1.26577 0.916952 0
M  V30 2401 H 220.003 -3.14767 -0.780536 0
M  V30 2402 H 219.788 -3.8257 0.859238 0
M  V30 2403 H 221.278 -4.17546 -0.0671044 0
M  V30 2404 N 221.715 -0.905404 -1.28997 0
M  V30 2405 C 223.126 -0.581953 -1.77398 0
M  V30 2406 C 223.477 0.902552 -1.74208 0
M  V30 2407 O 222.602 1.70584 -1.33154 0
M  V30 2408 C 223.197 -1.04961 -3.22131 0
M  V30 2409 C 221.756 -0.777229 -3.68288 0
M  V30 2410 C 220.903 -1.22109 -2.48967 0
M  V30 2411 H 223.854 -1.08754 -1.15578 0
M  V30 2412 H 223.875 -0.387387 -3.78523 0
M  V30 2413 H 223.387 -2.13008 -3.24421 0
M  V30 2414 H 221.488 0.290383 -3.71467 0
M  V30 2415 H 221.601 -1.37911 -4.58822 0
M  V30 2416 H 219.965 -0.639971 -2.46529 0
M  V30 2417 H 220.748 -2.30972 -2.53982 0
M  V30 2418 N 223.193 1.4272 -0.668489 0
M  V30 2419 C 224.609 1.55992 -0.33745 0
M  V30 2420 C 224.809 1.64933 1.15756 0
M  V30 2421 O 223.865 1.61278 1.94282 0
M  V30 2422 C 225.178 2.81314 -1.06222 0
M  V30 2423 C 226.726 2.95078 -1.04394 0
M  V30 2424 C 227.201 4.23252 -1.74991 0
M  V30 2425 N 228.692 4.3015 -1.71829 0
M  V30 2426 C 229.427 5.28127 -2.23315 0
M  V30 2427 N 228.923 6.32293 -2.83156 0
M  V30 2428 N 230.716 5.19882 -2.13726 0
M  V30 2429 H 222.867 1.3516 -1.63846 0
M  V30 2430 H 225.13 0.650174 -0.689912 0
M  V30 2431 H 224.836 2.80823 -2.11734 0
M  V30 2432 H 224.71 3.72012 -0.62344 0
M  V30 2433 H 227.097 2.951 0.0028244 0
M  V30 2434 H 227.178 2.05627 -1.52155 0
M  V30 2435 H 226.822 4.2399 -2.79633 0
M  V30 2436 H 226.752 5.11626 -1.24685 0
M  V30 2437 H 229.243 3.55499 -1.28175 0
M  V30 2438 H 229.556 7.03398 -3.20079 0
M  V30 2439 H 227.901 6.32873 -2.87223 0
M  V30 2440 H 231.092 4.37423 -1.66669 0
M  V30 2441 H 231.265 5.96077 -2.54158 0
M  V30 2442 N 224.671 0.411399 1.52136 0
M  V30 2443 C 225.92 -0.165009 2.01024 0
M  V30 2444 C 226.233 -1.4603 1.30133 0
M  V30 2445 O 227.439 -2.1181 1.69849 0
M  V30 2446 C 225.895 -0.344618 3.58246 0
M  V30 2447 C 225.503 0.938716 4.38055 0
M  V30 2448 C 227.247 -0.876195 4.15359 0
M  V30 2449 C 225.154 0.726172 5.86925 0
M  V30 2450 H 224.084 -0.0654407 0.751155 0
M  V30 2451 H 226.735 0.537192 1.75461 0
M  V30 2452 H 225.117 -1.10921 3.80148 0
M  V30 2453 H 226.291 1.70963 4.27912 0
M  V30 2454 H 224.606 1.39688 3.92271 0
M  V30 2455 H 227.203 -1.05128 5.24263 0
M  V30 2456 H 227.546 -1.85152 3.7286 0
M  V30 2457 H 228.079 -0.170607 3.97434 0
M  V30 2458 H 224.818 1.67312 6.33788 0
M  V30 2459 H 224.338 -0.00540283 5.998 0
M  V30 2460 H 226.017 0.369231 6.45946 0
M  V30 2461 N 226.149 -1.5696 0.141893 0
M  V30 2462 C 227.082 -2.12271 -0.837627 0
M  V30 2463 C 228.06 -1.04495 -1.24578 0
M  V30 2464 O 229.244 -1.32293 -1.34278 0
M  V30 2465 C 226.371 -2.63822 -2.12404 0
M  V30 2466 C 225.417 -3.83698 -1.86221 0
M  V30 2467 S 226.25 -5.24948 -1.05781 0
M  V30 2468 C 227.406 -5.79884 -2.35552 0
M  V30 2469 H 227.639 -2.95023 -0.367249 0
M  V30 2470 H 225.172 -1.54231 -0.0723014 0
M  V30 2471 H 227.13 -2.94175 -2.86307 0
M  V30 2472 H 225.791 -1.8121 -2.56557 0
M  V30 2473 H 224.984 -4.17995 -2.81596 0
M  V30 2474 H 224.586 -3.5408 -1.20429 0
M  V30 2475 H 226.878 -5.91005 -3.31239 0
M  V30 2476 H 227.821 -6.77544 -2.05767 0
M  V30 2477 H 228.229 -5.08095 -2.45967 0
M  V30 2478 N 227.627 0.131896 -1.57047 0
M  V30 2479 C 228.577 1.1679 -1.95816 0
M  V30 2480 C 229.561 1.37756 -0.831393 0
M  V30 2481 O 230.753 1.39065 -1.09499 0
M  V30 2482 C 227.882 2.49778 -2.35512 0
M  V30 2483 C 226.968 2.32342 -3.54793 0
M  V30 2484 N 227.359 1.8469 -4.70875 0
M  V30 2485 C 225.657 2.63043 -3.60173 0
M  V30 2486 C 226.358 1.80656 -5.52936 0
M  V30 2487 N 225.334 2.24528 -4.95064 0
M  V30 2488 H 229.136 0.791818 -2.83033 0
M  V30 2489 H 226.65 0.339791 -1.58805 0
M  V30 2490 H 228.647 3.24692 -2.61498 0
M  V30 2491 H 227.307 2.88156 -1.49654 0
M  V30 2492 H 228.318 1.54429 -4.9434 0
M  V30 2493 H 224.995 3.05193 -2.84892 0
M  V30 2494 H 226.385 1.45178 -6.56028 0
M  V30 2495 N 229.106 1.52395 0.401703 0
M  V30 2496 C 230.056 1.72649 1.48917 0
M  V30 2497 C 231.04 0.580436 1.50066 0
M  V30 2498 O 232.232 0.83779 1.55917 0
M  V30 2499 C 229.361 1.88729 2.86769 0
M  V30 2500 C 228.447 3.09228 2.90239 0
M  V30 2501 N 228.838 4.31805 2.63396 0
M  V30 2502 C 227.136 3.09214 3.21408 0
M  V30 2503 C 227.837 5.13326 2.73625 0
M  V30 2504 N 226.813 4.48735 3.06819 0
M  V30 2505 H 230.615 2.65058 1.26971 0
M  V30 2506 H 228.129 1.50528 0.609504 0
M  V30 2507 H 230.126 2.01358 3.65049 0
M  V30 2508 H 228.786 0.975252 3.09708 0
M  V30 2509 H 229.797 4.60154 2.37653 0
M  V30 2510 H 226.474 2.27774 3.49893 0
M  V30 2511 H 227.864 6.21003 2.56524 0
M  V30 2512 N 230.584 -0.659388 1.43143 0
M  V30 2513 C 231.517 -1.78425 1.42267 0
M  V30 2514 C 232.495 -1.60085 0.284894 0
M  V30 2515 O 233.679 -1.82351 0.477527 0
M  V30 2516 C 230.806 -3.15642 1.22833 0
M  V30 2517 C 229.852 -3.52698 2.39806 0
M  V30 2518 S 230.685 -3.53372 4.02353 0
M  V30 2519 C 231.841 -4.93256 3.85291 0
M  V30 2520 H 232.074 -1.78897 2.37452 0
M  V30 2521 H 229.607 -0.831469 1.301 0
M  V30 2522 H 231.565 -3.94838 1.12308 0
M  V30 2523 H 230.226 -3.12739 0.29207 0
M  V30 2524 H 229.419 -4.52475 2.21996 0
M  V30 2525 H 229.021 -2.80899 2.46925 0
M  V30 2526 H 231.313 -5.81751 3.47235 0
M  V30 2527 H 232.256 -5.16115 4.84799 0
M  V30 2528 H 232.664 -4.665 3.17865 0
M  V30 2529 N 232.062 -1.29571 -0.897171 0
M  V30 2530 C 233.473 -1.15964 -1.46319 0
M  V30 2531 C 233.824 0.244267 -1.94674 0
M  V30 2532 O 232.949 1.13998 -1.83939 0
M  V30 2533 C 233.544 -2.09906 -2.65942 0
M  V30 2534 C 232.103 -2.00314 -3.18671 0
M  V30 2535 C 231.25 -2.00687 -1.91363 0
M  V30 2536 H 234.201 -1.42019 -0.708268 0
M  V30 2537 H 234.222 -1.67276 -3.41759 0
M  V30 2538 H 233.734 -3.12075 -2.30718 0
M  V30 2539 H 231.835 -1.01242 -3.58582 0
M  V30 2540 H 231.948 -2.88102 -3.82798 0
M  V30 2541 H 230.312 -1.45319 -2.09175 0
M  V30 2542 H 231.095 -3.04566 -1.58413 0
M  V30 2543 N 233.54 1.10788 -1.12088 0
M  V30 2544 C 234.788 1.8231 -0.872205 0
M  V30 2545 C 235.109 1.85419 0.603709 0
M  V30 2546 O 234.379 1.32963 1.43867 0
M  V30 2547 H 232.959 0.675137 -0.319686 0
M  V30 2548 H 235.621 1.34068 -1.41463 0
M  V30 2549 H 234.717 2.85955 -1.25045 0
M  V30 2550 N 235.018 0.912232 1.28515 0
M  V30 2551 C 235.95 0.35676 2.26406 0
M  V30 2552 C 236.963 -0.503933 1.54804 0
M  V30 2553 O 238.152 -0.319059 1.75625 0
M  V30 2554 C 235.252 -0.508825 3.35058 0
M  V30 2555 C 234.425 0.329007 4.36161 0
M  V30 2556 C 233.484 -0.471422 5.24084 0
M  V30 2557 O 232.51 0.115482 5.69083 0
M  V30 2558 N 233.712 -1.77479 5.52704 0
M  V30 2559 H 236.477 1.19818 2.74707 0
M  V30 2560 H 234.038 0.778022 1.4198 0
M  V30 2561 H 236.03 -1.051 3.90815 0
M  V30 2562 H 234.6 -1.25095 2.86478 0
M  V30 2563 H 233.82 1.05256 3.79888 0
M  V30 2564 H 235.108 0.90234 5.00735 0
M  V30 2565 H 234.506 -2.27417 5.17975 0
M  V30 2566 H 233.063 -2.26382 6.11224 0
M  V30 2567 N 236.496 -1.42363 0.676048 0
M  V30 2568 C 237.907 -1.84649 0.275948 0
M  V30 2569 C 238.258 -1.56588 -1.18214 0
M  V30 2570 O 237.383 -1.02634 -1.90513 0
M  V30 2571 C 237.978 -3.35178 0.494053 0
M  V30 2572 C 236.537 -3.76109 0.148061 0
M  V30 2573 C 235.684 -2.65931 0.785891 0
M  V30 2574 H 238.635 -1.32192 0.878121 0
M  V30 2575 H 238.656 -3.79655 -0.25343 0
M  V30 2576 H 238.168 -3.55571 1.55535 0
M  V30 2577 H 236.269 -3.61323 -0.909742 0
M  V30 2578 H 236.382 -4.7546 0.589454 0
M  V30 2579 H 234.746 -2.53773 0.217113 0
M  V30 2580 H 235.529 -2.89146 1.85067 0
M  V30 2581 N 237.974 -0.419461 -1.51915 0
M  V30 2582 C 239.385 0.0477853 -1.86639 0
M  V30 2583 C 239.736 1.43531 -1.33766 0
M  V30 2584 O 238.861 2.05401 -0.68113 0
M  V30 2585 C 239.456 0.0934885 -3.38671 0
M  V30 2586 C 238.015 0.505097 -3.72996 0
M  V30 2587 C 237.162 -0.313792 -2.75519 0
M  V30 2588 H 240.113 -0.636088 -1.45395 0
M  V30 2589 H 240.134 0.906667 -3.6954 0
M  V30 2590 H 239.646 -0.916501 -3.77123 0
M  V30 2591 H 237.747 1.52135 -3.40126 0
M  V30 2592 H 237.86 0.242309 -4.78487 0
M  V30 2593 H 236.224 0.225363 -2.53701 0
M  V30 2594 H 237.007 -1.32232 -3.16812 0
M  V30 2595 N 239.452 1.56882 -0.150215 0
M  V30 2596 C 240.682 2.00302 0.506213 0
M  V30 2597 C 241.09 1.02934 1.58749 0
M  V30 2598 O 240.433 0.0188384 1.8369 0
M  V30 2599 C 240.495 3.40156 1.16337 0
M  V30 2600 C 240.159 4.56439 0.226311 0
M  V30 2601 C 241.156 5.17012 -0.547265 0
M  V30 2602 C 238.841 5.02136 0.128279 0
M  V30 2603 C 240.835 6.21693 -1.40629 0
M  V30 2604 C 238.522 6.06672 -0.734345 0
M  V30 2605 C 239.52 6.6632 -1.50023 0
M  V30 2606 O 239.208 7.68831 -2.34848 0
M  V30 2607 H 238.94 0.662182 0.135984 0
M  V30 2608 H 241.494 2.03961 -0.242746 0
M  V30 2609 H 239.724 3.33346 1.96004 0
M  V30 2610 H 241.413 3.67663 1.71985 0
M  V30 2611 H 242.179 4.82603 -0.48158 0
M  V30 2612 H 238.058 4.55435 0.714157 0
M  V30 2613 H 241.602 6.68179 -2.00455 0
M  V30 2614 H 237.499 6.40507 -0.801309 0
M  V30 2615 H 238.267 7.86065 -2.28131 0
M  V30 2616 N 240.93 -0.123565 1.57115 0
M  V30 2617 C 241.863 -1.18202 1.95201 0
M  V30 2618 C 242.841 -1.40349 0.821031 0
M  V30 2619 O 244.025 -1.54578 1.07879 0
M  V30 2620 C 241.152 -2.53671 2.24429 0
M  V30 2621 C 240.198 -2.4798 3.46999 0
M  V30 2622 S 241.031 -1.92389 4.99747 0
M  V30 2623 C 242.187 -3.2954 5.32123 0
M  V30 2624 H 242.42 -0.857212 2.84674 0
M  V30 2625 H 239.953 -0.33014 1.50829 0
M  V30 2626 H 241.911 -3.3162 2.41947 0
M  V30 2627 H 240.572 -2.83332 1.35579 0
M  V30 2628 H 239.765 -3.47758 3.64801 0
M  V30 2629 H 239.367 -1.7815 3.28844 0
M  V30 2630 H 241.659 -4.25736 5.27025 0
M  V30 2631 H 242.602 -3.16569 6.33395 0
M  V30 2632 H 243.01 -3.27758 4.59603 0
M  V30 2633 N 242.408 -1.52605 -0.393616 0
M  V30 2634 C 243.819 -1.59417 -0.971761 0
M  V30 2635 C 244.17 -0.444173 -1.91106 0
M  V30 2636 O 243.295 0.433382 -2.12016 0
M  V30 2637 C 243.89 -2.88936 -1.76921 0
M  V30 2638 C 242.449 -2.98175 -2.29714 0
M  V30 2639 C 241.596 -2.54491 -1.10135 0
M  V30 2640 H 244.547 -1.57751 -0.173317 0
M  V30 2641 H 244.568 -2.75163 -2.62804 0
M  V30 2642 H 244.08 -3.72616 -1.08532 0
M  V30 2643 H 242.181 -2.19024 -3.01429 0
M  V30 2644 H 242.294 -4.02726 -2.59517 0
M  V30 2645 H 240.658 -2.08702 -1.45999 0
M  V30 2646 H 241.441 -3.4056 -0.432874 0
M  V30 2647 N 243.887 0.651787 -1.4349 0
M  V30 2648 C 245.298 1.233 -1.40193 0
M  V30 2649 C 245.649 1.9591 -0.106727 0
M  V30 2650 O 244.774 2.01316 0.793773 0
M  V30 2651 C 245.369 2.24257 -2.53957 0
M  V30 2652 C 243.928 2.77852 -2.5392 0
M  V30 2653 C 243.075 1.52517 -2.3159 0
M  V30 2654 H 246.026 0.443717 -1.52371 0
M  V30 2655 H 246.047 3.0646 -2.25528 0
M  V30 2656 H 245.559 1.71382 -3.4821 0
M  V30 2657 H 243.66 3.34786 -1.63551 0
M  V30 2658 H 243.773 3.25299 -3.51735 0
M  V30 2659 H 242.137 1.79915 -1.80285 0
M  V30 2660 H 242.92 1.01574 -3.27929 0
M  V30 2661 N 245.365 1.30045 0.890287 0
M  V30 2662 C 246.776 1.16738 1.45702 0
M  V30 2663 C 247.127 -0.233939 1.948 0
M  V30 2664 O 246.252 -1.13021 1.84541 0
M  V30 2665 C 246.847 2.11313 2.64825 0
M  V30 2666 C 245.406 2.02001 3.17604 0
M  V30 2667 C 244.553 2.01699 1.90296 0
M  V30 2668 H 247.504 1.42392 0.700726 0
M  V30 2669 H 247.525 1.69086 3.40867 0
M  V30 2670 H 247.037 3.13294 2.2906 0
M  V30 2671 H 245.138 1.03142 3.5804 0
M  V30 2672 H 245.251 2.90128 3.81264 0
M  V30 2673 H 243.615 1.46427 2.08402 0
M  V30 2674 H 244.398 3.05402 1.56795 0
M  V30 2675 N 246.843 -1.10192 1.12674 0
M  V30 2676 C 248.091 -1.81845 0.881861 0
M  V30 2677 C 248.412 -1.85737 -0.593867 0
M  V30 2678 O 247.682 -1.33724 -1.4316 0
M  V30 2679 H 246.262 -0.673432 0.323261 0
M  V30 2680 H 248.924 -1.33316 1.42172 0
M  V30 2681 H 248.02 -2.85288 1.2656 0
M  V30 2682 N 248.321 -0.919034 -1.28029 0
M  V30 2683 C 249.254 -0.355887 -2.25408 0
M  V30 2684 C 250.232 0.542874 -1.5327 0
M  V30 2685 O 251.416 0.485338 -1.82145 0
M  V30 2686 C 248.543 0.490759 -3.35126 0
M  V30 2687 C 247.589 -0.343358 -4.25116 0
M  V30 2688 S 248.422 -1.75344 -5.05979 0
M  V30 2689 C 249.578 -0.914244 -6.19187 0
M  V30 2690 H 249.811 -1.18123 -2.72826 0
M  V30 2691 H 247.344 -0.720636 -1.36551 0
M  V30 2692 H 249.302 0.973404 -3.98792 0
M  V30 2693 H 247.963 1.29054 -2.86363 0
M  V30 2694 H 247.156 0.304266 -5.03081 0
M  V30 2695 H 246.758 -0.759851 -3.662 0
M  V30 2696 H 249.05 -0.146282 -6.77342 0
M  V30 2697 H 249.993 -1.66661 -6.88208 0
M  V30 2698 H 250.401 -0.460082 -5.62622 0
M  V30 2699 N 249.799 1.42003 -0.683588 0
M  V30 2700 C 251.048 2.00638 -0.206681 0
M  V30 2701 C 251.361 1.5472 1.19671 0
M  V30 2702 O 252.567 2.05833 1.77045 0
M  V30 2703 C 251.023 3.58487 -0.318632 0
M  V30 2704 C 250.631 4.1339 -1.72663 0
M  V30 2705 C 252.375 4.24384 0.0991141 0
M  V30 2706 C 250.282 5.63633 -1.79087 0
M  V30 2707 H 249.212 0.750408 -0.0735107 0
M  V30 2708 H 251.863 1.62624 -0.850048 0
M  V30 2709 H 250.245 3.94047 0.392781 0
M  V30 2710 H 251.419 3.89273 -2.46583 0
M  V30 2711 H 249.734 3.59976 -2.09299 0
M  V30 2712 H 252.331 5.34652 0.0713833 0
M  V30 2713 H 252.674 4.00505 1.13586 0
M  V30 2714 H 253.207 3.93816 -0.561599 0
M  V30 2715 H 249.946 5.92323 -2.80774 0
M  V30 2716 H 249.466 5.89714 -1.09535 0
M  V30 2717 H 251.145 6.28201 -1.5483 0
M  V30 2718 N 251.277 0.427512 1.51691 0
M  V30 2719 C 252.688 -0.0378867 1.86662 0
M  V30 2720 C 253.039 -1.42819 1.34525 0
M  V30 2721 O 252.164 -2.05037 0.692014 0
M  V30 2722 C 252.759 -0.0755266 3.38716 0
M  V30 2723 C 251.318 -0.485309 3.73258 0
M  V30 2724 C 250.465 0.328399 2.75349 0
M  V30 2725 H 253.416 0.64379 1.45055 0
M  V30 2726 H 253.437 -0.887056 3.70016 0
M  V30 2727 H 252.949 0.936487 3.76632 0
M  V30 2728 H 251.05 -1.50329 3.40928 0
M  V30 2729 H 251.163 -0.21693 4.78609 0
M  V30 2730 H 249.527 -0.211905 2.53817 0
M  V30 2731 H 250.31 1.3391 3.16106 0
M  V30 2732 N 252.755 -1.56801 0.158532 0
M  V30 2733 C 254.166 -1.83189 -0.360366 0
M  V30 2734 C 254.517 -1.07778 -1.63946 0
M  V30 2735 O 253.642 -0.326718 -2.13919 0
M  V30 2736 C 254.237 -3.32297 -0.660595 0
M  V30 2737 C 252.796 -3.59227 -1.12398 0
M  V30 2738 C 251.943 -2.76877 -0.153097 0
M  V30 2739 H 254.894 -1.54008 0.383031 0
M  V30 2740 H 254.915 -3.4908 -1.51405 0
M  V30 2741 H 254.427 -3.87156 0.270527 0
M  V30 2742 H 252.528 -3.09766 -2.07064 0
M  V30 2743 H 252.641 -4.67632 -1.04197 0
M  V30 2744 H 251.005 -2.46319 -0.647983 0
M  V30 2745 H 251.788 -3.34511 0.77182 0
M  V30 2746 N 254.233 0.115231 -1.57178 0
M  V30 2747 C 255.644 0.67197 -1.74188 0
M  V30 2748 C 255.995 1.80125 -0.777777 0
M  V30 2749 O 255.12 2.16346 0.0484376 0
M  V30 2750 C 255.715 1.22573 -3.1585 0
M  V30 2751 C 254.274 1.72872 -3.34353 0
M  V30 2752 C 253.421 0.629972 -2.70049 0
M  V30 2753 H 256.372 -0.110712 -1.58313 0
M  V30 2754 H 256.393 2.09535 -3.17609 0
M  V30 2755 H 255.905 0.403598 -3.85996 0
M  V30 2756 H 254.006 2.5755 -2.69256 0
M  V30 2757 H 254.119 1.83557 -4.42542 0
M  V30 2758 H 252.483 1.0645 -2.31388 0
M  V30 2759 H 253.266 -0.181241 -3.42821 0
M  V30 2760 N 255.711 1.52812 0.385517 0
M  V30 2761 C 256.959 1.67694 1.12797 0
M  V30 2762 C 257.28 0.421115 1.90399 0
M  V30 2763 O 256.55 -0.564551 1.87589 0
M  V30 2764 H 255.13 0.618155 0.419396 0
M  V30 2765 H 257.792 1.89938 0.436972 0
M  V30 2766 H 256.888 2.52896 1.82894 0
M  V30 2767 N 257.189 -0.644168 1.43834 0
M  V30 2768 C 258.119 -1.76814 1.52509 0
M  V30 2769 C 259.1 -1.65823 0.379052 0
M  V30 2770 O 260.285 -1.84781 0.597466 0
M  V30 2771 C 257.415 -3.15288 1.4564 0
M  V30 2772 C 256.369 -3.41053 2.58586 0
M  V30 2773 C 255.695 -4.79421 2.36769 0
M  V30 2774 C 256.995 -3.34902 4.00797 0
M  V30 2775 H 258.689 -1.69812 2.46586 0
M  V30 2776 H 256.235 -0.815542 1.1868 0
M  V30 2777 H 258.188 -3.93681 1.50311 0
M  V30 2778 H 256.912 -3.23043 0.480725 0
M  V30 2779 H 255.571 -2.65035 2.53282 0
M  V30 2780 H 255.219 -4.83863 1.37424 0
M  V30 2781 H 254.919 -4.9762 3.12487 0
M  V30 2782 H 256.443 -5.6006 2.43238 0
M  V30 2783 H 257.857 -4.03218 4.07539 0
M  V30 2784 H 256.254 -3.64637 4.76613 0
M  V30 2785 H 257.324 -2.32928 4.25291 0
M  V30 2786 N 258.668 -1.30515 -0.883378 0
M  V30 2787 C 259.631 -1.1701 -1.97082 0
M  V30 2788 C 260.631 -0.10089 -1.60483 0
M  V30 2789 O 261.821 -0.349127 -1.70666 0
M  V30 2790 C 258.953 -0.793045 -3.31547 0
M  V30 2791 H 260.146 -2.13622 -2.10489 0
M  V30 2792 H 257.699 -1.13935 -1.06998 0
M  V30 2793 H 258.434 0.172499 -3.23841 0
M  V30 2794 H 258.219 -1.56576 -3.5948 0
M  V30 2795 H 259.709 -0.722073 -4.1131 0
M  V30 2796 N 260.146 1.09593 -1.13257 0
M  V30 2797 C 261.557 1.63229 -0.906274 0
M  V30 2798 C 261.908 1.8811 0.557578 0
M  V30 2799 O 261.033 1.62953 1.42391 0
M  V30 2800 C 261.628 2.96535 -1.63867 0
M  V30 2801 C 260.187 3.47003 -1.45828 0
M  V30 2802 C 259.334 2.2145 -1.66898 0
M  V30 2803 H 262.285 0.92978 -1.28611 0
M  V30 2804 H 262.306 3.64411 -1.09476 0
M  V30 2805 H 261.818 2.78394 -2.70404 0
M  V30 2806 H 259.919 3.70272 -0.415848 0
M  V30 2807 H 260.032 4.24551 -2.2202 0
M  V30 2808 H 258.396 2.30022 -1.09371 0
M  V30 2809 H 259.179 2.0583 -2.74752 0
M  V30 2810 N 261.624 0.925811 1.2754 0
M  V30 2811 C 262.872 0.564138 1.94067 0
M  V30 2812 C 263.193 -0.897188 1.73134 0
M  V30 2813 O 262.463 -1.63573 1.07799 0
M  V30 2814 H 261.043 0.205645 0.718136 0
M  V30 2815 H 263.705 1.1778 1.55287 0
M  V30 2816 H 262.801 0.76881 3.02483 0
M  V30 2817 N 263.102 -1.41638 0.69111 0
M  V30 2818 C 264.034 -2.29194 -0.0161523 0
M  V30 2819 C 265.047 -1.44549 -0.748955 0
M  V30 2820 O 266.236 -1.681 -0.6004 0
M  V30 2821 C 263.336 -3.22325 -1.0469 0
M  V30 2822 C 262.509 -4.35706 -0.384621 0
M  V30 2823 C 261.568 -5.09443 -1.31737 0
M  V30 2824 O 260.594 -5.63386 -0.811451 0
M  V30 2825 N 261.796 -5.16487 -2.64993 0
M  V30 2826 H 264.561 -2.90534 0.735523 0
M  V30 2827 H 262.122 -1.52742 0.53679 0
M  V30 2828 H 264.114 -3.68522 -1.67252 0
M  V30 2829 H 262.684 -2.62323 -1.70015 0
M  V30 2830 H 261.904 -3.91948 0.420804 0
M  V30 2831 H 263.192 -5.08743 0.0760765 0
M  V30 2832 H 262.59 -4.741 -3.08619 0
M  V30 2833 H 261.147 -5.66276 -3.22761 0
M  V30 2834 N 264.58 -0.43555 -1.51462 0
M  V30 2835 C 265.829 0.133007 -2.01261 0
M  V30 2836 C 266.142 1.43942 -1.32439 0
M  V30 2837 O 267.348 2.09081 -1.73198 0
M  V30 2838 C 265.804 0.287581 -3.58749 0
M  V30 2839 C 265.412 -1.00829 -4.36506 0
M  V30 2840 C 267.156 0.810004 -4.167 0
M  V30 2841 C 265.063 -0.819454 -5.85695 0
M  V30 2842 H 263.993 0.0534822 -0.752101 0
M  V30 2843 H 266.644 -0.565038 -1.74584 0
M  V30 2844 H 265.026 1.04859 -3.81865 0
M  V30 2845 H 266.2 -1.77749 -4.25138 0
M  V30 2846 H 264.515 -1.45911 -3.89999 0
M  V30 2847 H 267.112 0.967743 -5.2587 0
M  V30 2848 H 267.455 1.79196 -3.75758 0
M  V30 2849 H 267.988 0.107357 -3.97655 0
M  V30 2850 H 264.727 -1.77374 -6.31046 0
M  V30 2851 H 264.247 -0.0900208 -5.99732 0
M  V30 2852 H 265.926 -0.471949 -6.45276 0
M  V30 2853 N 266.058 1.56714 -0.166846 0
M  V30 2854 C 267.469 1.83378 0.350646 0
M  V30 2855 C 267.82 1.08646 1.63372 0
M  V30 2856 O 266.945 0.338058 2.13743 0
M  V30 2857 C 267.54 3.32643 0.642963 0
M  V30 2858 C 266.099 3.59818 1.10491 0
M  V30 2859 C 265.246 2.76954 0.138411 0
M  V30 2860 H 268.197 1.53803 -0.391193 0
M  V30 2861 H 268.218 3.49878 1.49551 0
M  V30 2862 H 267.73 3.87007 -0.291055 0
M  V30 2863 H 265.831 3.1086 2.05418 0
M  V30 2864 H 265.944 4.68178 1.01716 0
M  V30 2865 H 264.308 2.4666 0.634911 0
M  V30 2866 H 265.091 3.34097 -0.789549 0
M  V30 2867 N 267.536 -0.106894 1.57237 0
M  V30 2868 C 268.947 -0.662723 1.74542 0
M  V30 2869 C 269.298 -1.7971 0.787319 0
M  V30 2870 O 268.423 -2.16368 -0.0369636 0
M  V30 2871 C 269.018 -1.20896 3.16496 0
M  V30 2872 C 267.577 -1.71096 3.35266 0
M  V30 2873 C 266.724 -0.615642 2.7038 0
M  V30 2874 H 269.675 0.119106 1.58252 0
M  V30 2875 H 269.696 -2.07847 3.18716 0
M  V30 2876 H 269.208 -0.383122 3.86204 0
M  V30 2877 H 267.309 -2.56119 2.70618 0
M  V30 2878 H 267.422 -1.81208 4.43509 0
M  V30 2879 H 265.786 -1.05222 2.31949 0
M  V30 2880 H 266.569 0.199419 3.4272 0
M  V30 2881 N 269.014 -1.53014 -0.377408 0
M  V30 2882 C 270.262 -1.6829 -1.11906 0
M  V30 2883 C 270.583 -0.431206 -1.90173 0
M  V30 2884 O 269.853 0.554595 -1.87886 0
M  V30 2885 H 268.433 -0.620371 -0.416112 0
M  V30 2886 H 271.095 -1.90167 -0.426893 0
M  V30 2887 H 270.191 -2.53862 -1.8155 0
M  V30 2888 N 270.492 0.636531 -1.44174 0
M  V30 2889 C 271.455 1.73063 -1.50273 0
M  V30 2890 C 272.455 1.56113 -0.385397 0
M  V30 2891 O 273.645 1.61707 -0.64781 0
M  V30 2892 C 270.777 3.12096 -1.37145 0
M  V30 2893 H 271.97 1.69031 -2.47727 0
M  V30 2894 H 269.523 0.849706 -1.31186 0
M  V30 2895 H 270.258 3.21728 -0.407636 0
M  V30 2896 H 270.043 3.25805 -2.18159 0
M  V30 2897 H 271.533 3.91846 -1.44382 0
M  V30 2898 N 271.97 1.30982 0.876444 0
M  V30 2899 C 272.903 1.12414 1.98591 0
M  V30 2900 C 273.881 0.0294078 1.62573 0
M  V30 2901 O 275.065 0.184598 1.87594 0
M  V30 2902 C 272.192 0.716276 3.3104 0
M  V30 2903 C 271.238 1.81311 3.86042 0
M  V30 2904 S 272.071 3.41727 4.1229 0
M  V30 2905 C 273.227 3.02863 5.47745 0
M  V30 2906 H 273.46 2.06338 2.14037 0
M  V30 2907 H 270.993 1.15393 1.02586 0
M  V30 2908 H 272.951 0.487697 4.07593 0
M  V30 2909 H 271.612 -0.203749 3.13438 0
M  V30 2910 H 270.805 1.48021 4.81774 0
M  V30 2911 H 270.407 1.99641 3.16259 0
M  V30 2912 H 272.699 2.51353 6.29148 0
M  V30 2913 H 273.642 3.97533 5.8598 0
M  V30 2914 H 274.05 2.40487 5.10711 0
M  V30 2915 N 273.449 -1.08991 1.13837 0
M  V30 2916 C 274.86 -1.62746 0.914917 0
M  V30 2917 C 275.211 -1.88403 -0.547594 0
M  V30 2918 O 274.336 -1.63706 -1.41525 0
M  V30 2919 C 274.931 -2.95662 1.65437 0
M  V30 2920 C 273.49 -3.46225 1.47666 0
M  V30 2921 C 272.637 -2.20562 1.6807 0
M  V30 2922 H 275.588 -0.922946 1.29102 0
M  V30 2923 H 275.609 -3.63825 1.11407 0
M  V30 2924 H 275.121 -2.76956 2.71877 0
M  V30 2925 H 273.222 -3.70046 0.435478 0
M  V30 2926 H 273.335 -4.23368 2.24268 0
M  V30 2927 H 271.699 -2.29439 1.10589 0
M  V30 2928 H 272.482 -2.0437 2.7584 0
M  V30 2929 N 274.927 -0.932562 -1.27047 0
M  V30 2930 C 276.338 -0.619451 -1.76124 0
M  V30 2931 C 276.689 0.865397 -1.76083 0
M  V30 2932 O 275.814 1.67722 -1.36742 0
M  V30 2933 C 276.409 -1.11771 -3.19832 0
M  V30 2934 C 274.968 -0.855174 -3.66557 0
M  V30 2935 C 274.115 -1.27362 -2.46321 0
M  V30 2936 H 277.066 -1.11181 -1.13245 0
M  V30 2937 H 277.087 -0.46759 -3.77616 0
M  V30 2938 H 276.599 -2.19842 -3.1983 0
M  V30 2939 H 274.7 0.211524 -3.71999 0
M  V30 2940 H 274.813 -1.47613 -4.55793 0
M  V30 2941 H 273.177 -0.692119 -2.45116 0
M  V30 2942 H 273.96 -2.36307 -2.49025 0
M  V30 2943 N 276.405 1.4127 -0.698611 0
M  V30 2944 C 277.337 2.292 0.00399731 0
M  V30 2945 C 278.35 1.44944 0.741279 0
M  V30 2946 O 279.539 1.68416 0.591477 0
M  V30 2947 C 276.639 3.22875 1.02979 0
M  V30 2948 C 275.812 4.35904 0.36151 0
M  V30 2949 C 274.871 5.10134 1.29033 0
M  V30 2950 O 273.897 5.63809 0.781562 0
M  V30 2951 N 275.099 5.17885 2.6225 0
M  V30 2952 H 277.864 2.9014 -0.750921 0
M  V30 2953 H 275.425 1.52455 -0.544882 0
M  V30 2954 H 277.417 3.69404 1.65296 0
M  V30 2955 H 275.987 2.63221 1.68622 0
M  V30 2956 H 275.207 3.91719 -0.441584 0
M  V30 2957 H 276.495 5.08696 -0.103055 0
M  V30 2958 H 275.893 4.7573 3.061 0
M  V30 2959 H 274.45 5.6798 3.19754 0
M  V30 2960 N 277.883 0.443576 1.51229 0
M  V30 2961 C 278.815 -0.400608 2.25672 0
M  V30 2962 C 279.828 -0.980945 1.29928 0
M  V30 2963 O 281.017 -0.874024 1.55638 0
M  V30 2964 C 278.117 -1.57304 3.00181 0
M  V30 2965 C 277.29 -1.11046 4.23069 0
M  V30 2966 C 276.349 -2.15374 4.80105 0
M  V30 2967 O 275.375 -1.74554 5.41774 0
M  V30 2968 N 276.577 -3.47922 4.64683 0
M  V30 2969 H 279.342 0.23745 2.98758 0
M  V30 2970 H 276.903 0.272809 1.59585 0
M  V30 2971 H 278.895 -2.26733 3.35223 0
M  V30 2972 H 277.465 -2.11632 2.30066 0
M  V30 2973 H 276.685 -0.243019 3.9345 0
M  V30 2974 H 277.973 -0.778888 5.02803 0
M  V30 2975 H 277.371 -3.83815 4.15575 0
M  V30 2976 H 275.928 -4.13228 5.0407 0
M  V30 2977 N 279.361 -1.56624 0.175154 0
M  V30 2978 C 280.291 -2.21155 -0.749195 0
M  V30 2979 C 281.272 -1.16836 -1.23626 0
M  V30 2980 O 282.457 -1.45277 -1.28873 0
M  V30 2981 C 279.587 -2.8553 -1.97711 0
M  V30 2982 C 278.541 -3.95921 -1.62575 0
M  V30 2983 C 277.867 -4.47365 -2.92864 0
M  V30 2984 C 279.167 -5.15323 -0.850838 0
M  V30 2985 H 280.861 -2.98653 -0.211295 0
M  V30 2986 H 278.407 -1.43651 -0.100188 0
M  V30 2987 H 280.36 -3.2935 -2.62881 0
M  V30 2988 H 279.084 -2.05406 -2.53921 0
M  V30 2989 H 277.743 -3.52762 -0.997719 0
M  V30 2990 H 277.391 -3.64027 -3.47122 0
M  V30 2991 H 277.091 -5.21839 -2.70106 0
M  V30 2992 H 278.615 -4.93873 -3.59056 0
M  V30 2993 H 280.029 -5.55812 -1.40521 0
M  V30 2994 H 278.426 -5.95739 -0.722154 0
M  V30 2995 H 279.496 -4.84661 0.152082 0
M  V30 2996 N 280.839 0.0985539 -1.57292 0
M  V30 2997 C 281.772 1.15082 -1.97057 0
M  V30 2998 C 282.75 1.39025 -0.843255 0
M  V30 2999 O 283.934 1.52842 -1.10325 0
M  V30 3000 C 281.061 2.50069 -2.28437 0
M  V30 3001 C 280.107 2.42428 -3.509 0
M  V30 3002 S 280.94 1.84414 -5.02744 0
M  V30 3003 C 282.096 3.21032 -5.37298 0
M  V30 3004 H 282.329 0.811815 -2.86002 0
M  V30 3005 H 279.862 0.306102 -1.51335 0
M  V30 3006 H 281.82 3.27729 -2.47192 0
M  V30 3007 H 280.481 2.8114 -1.40069 0
M  V30 3008 H 279.674 3.41911 -3.70288 0
M  V30 3009 H 279.276 1.72896 -3.31637 0
M  V30 3010 H 281.568 4.17297 -5.33731 0
M  V30 3011 H 282.511 3.06452 -6.38352 0
M  V30 3012 H 282.919 3.20404 -4.64759 0
M  V30 3013 N 282.317 1.53212 0.369288 0
M  V30 3014 C 283.728 1.60943 0.946276 0
M  V30 3015 C 284.079 0.47452 1.90375 0
M  V30 3016 O 283.204 -0.399597 2.12679 0
M  V30 3017 C 283.799 2.91715 1.72302 0
M  V30 3018 C 282.358 3.01792 2.24941 0
M  V30 3019 C 281.505 2.56211 1.06072 0
M  V30 3020 H 284.456 1.58007 0.148198 0
M  V30 3021 H 284.477 2.79309 2.58393 0
M  V30 3022 H 283.989 3.74295 1.0259 0
M  V30 3023 H 282.09 2.23791 2.97906 0
M  V30 3024 H 282.203 4.06803 2.53077 0
M  V30 3025 H 280.567 2.10998 1.4266 0
M  V30 3026 H 281.35 3.41206 0.378639 0
M  V30 3027 N 283.795 -0.628877 1.44509 0
M  V30 3028 C 285.043 -1.38565 1.4712 0
M  V30 3029 C 285.364 -1.94712 0.105899 0
M  V30 3030 O 284.634 -1.75912 -0.862079 0
M  V30 3031 H 283.214 -0.514333 0.541729 0
M  V30 3032 H 285.876 -0.740018 1.80305 0
M  V30 3033 H 284.972 -2.21583 2.19789 0
M  V30 3034 N 285.273 -1.31445 -0.869486 0
M  V30 3035 C 286.205 -1.14955 -1.98287 0
M  V30 3036 C 287.218 -0.0885037 -1.62559 0
M  V30 3037 O 288.407 -0.336044 -1.75308 0
M  V30 3038 C 285.507 -0.734255 -3.3085 0
M  V30 3039 C 284.68 -1.88042 -3.94917 0
M  V30 3040 C 283.739 -1.4511 -5.05796 0
M  V30 3041 O 282.765 -2.16082 -5.2659 0
M  V30 3042 N 283.967 -0.338763 -5.79511 0
M  V30 3043 H 286.732 -2.10856 -2.12979 0
M  V30 3044 H 284.293 -1.23786 -1.04349 0
M  V30 3045 H 286.285 -0.42975 -4.02412 0
M  V30 3046 H 284.855 0.133158 -3.12316 0
M  V30 3047 H 284.075 -2.35222 -3.1633 0
M  V30 3048 H 285.363 -2.6481 -4.34457 0
M  V30 3049 H 284.761 0.252274 -5.65137 0
M  V30 3050 H 283.318 -0.0937925 -6.51733 0
M  V30 3051 N 286.751 1.08385 -1.14413 0
M  V30 3052 C 287.684 2.14642 -0.774871 0
M  V30 3053 C 288.662 1.60761 0.243876 0
M  V30 3054 O 289.846 1.88031 0.132883 0
M  V30 3055 C 286.973 3.38366 -0.150491 0
M  V30 3056 C 286.019 4.10997 -1.13945 0
M  V30 3057 S 286.852 4.63797 -2.67679 0
M  V30 3058 C 288.008 5.90808 -2.06631 0
M  V30 3059 H 288.241 2.45633 -1.67487 0
M  V30 3060 H 285.774 1.20498 -0.96538 0
M  V30 3061 H 287.732 4.09996 0.203334 0
M  V30 3062 H 286.393 3.05572 0.72694 0
M  V30 3063 H 285.586 4.99783 -0.65059 0
M  V30 3064 H 285.188 3.4528 -1.43727 0
M  V30 3065 H 287.48 6.62411 -1.4219 0
M  V30 3066 H 288.423 6.4439 -2.93542 0
M  V30 3067 H 288.831 5.4383 -1.51357 0
M  V30 3068 N 288.23 0.939286 1.26551 0
M  V30 3069 C 289.641 0.628782 1.75793 0
M  V30 3070 C 289.992 -0.856046 1.7654 0
M  V30 3071 O 289.117 -1.66994 1.3763 0
M  V30 3072 C 289.712 1.13465 3.19235 0
M  V30 3073 C 288.271 0.874601 3.66098 0
M  V30 3074 C 287.418 1.28667 2.45642 0
M  V30 3075 H 290.369 1.1178 1.12654 0
M  V30 3076 H 290.39 0.487609 3.77363 0
M  V30 3077 H 289.902 2.21535 3.1866 0
M  V30 3078 H 288.003 -0.191793 3.72106 0
M  V30 3079 H 288.116 1.50028 4.55004 0
M  V30 3080 H 286.48 0.705109 2.44745 0
M  V30 3081 H 287.263 2.37625 2.47769 0
M  V30 3082 N 289.708 -1.40897 0.706093 0
M  V30 3083 C 291.119 -1.84023 0.315052 0
M  V30 3084 C 291.47 -1.5906 -1.14866 0
M  V30 3085 O 290.595 -1.06651 -1.88293 0
M  V30 3086 C 291.19 -3.34055 0.565038 0
M  V30 3087 C 289.749 -3.7571 0.227806 0
M  V30 3088 C 288.896 -2.64204 0.842122 0
M  V30 3089 H 291.847 -1.303 0.905963 0
M  V30 3090 H 291.868 -3.80107 -0.172843 0
M  V30 3091 H 291.38 -3.52192 1.63042 0
M  V30 3092 H 289.481 -3.63172 -0.832895 0
M  V30 3093 H 289.594 -4.74103 0.690174 0
M  V30 3094 H 287.958 -2.53255 0.270893 0
M  V30 3095 H 288.741 -2.85155 1.91158 0
M  V30 3096 N 291.186 -0.45159 -1.50991 0
M  V30 3097 C 292.149 0.341117 -2.26647 0
M  V30 3098 C 293.149 0.937422 -1.30649 0
M  V30 3099 O 294.339 0.809644 -1.54241 0
M  V30 3100 C 291.471 1.48398 -3.06905 0
M  V30 3101 H 292.664 -0.322117 -2.98165 0
M  V30 3102 H 290.217 -0.205122 -1.54948 0
M  V30 3103 H 290.952 2.18284 -2.39838 0
M  V30 3104 H 290.737 1.06241 -3.77432 0
M  V30 3105 H 292.227 2.04367 -3.64176 0
M  V30 3106 N 292.664 1.56529 -0.183458 0
M  V30 3107 C 293.596 2.15747 0.773697 0
M  V30 3108 C 294.609 1.1162 1.1851 0
M  V30 3109 O 295.798 1.3876 1.12285 0
M  V30 3110 C 292.898 2.6952 2.05456 0
M  V30 3111 C 292.071 3.98429 1.8048 0
M  V30 3112 C 291.13 4.37145 2.92901 0
M  V30 3113 O 290.156 5.04791 2.6301 0
M  V30 3114 N 291.358 3.99695 4.2098 0
M  V30 3115 H 294.123 2.98505 0.26736 0
M  V30 3116 H 291.684 1.619 -0.0010878 0
M  V30 3117 H 293.676 2.92412 2.79781 0
M  V30 3118 H 292.246 1.91282 2.47245 0
M  V30 3119 H 291.466 3.8379 0.899947 0
M  V30 3120 H 292.754 4.82597 1.61175 0
M  V30 3121 H 292.152 3.4526 4.48121 0
M  V30 3122 H 290.709 4.27562 4.9197 0
M  V30 3123 N 294.142 -0.090211 1.57342 0
M  V30 3124 C 295.553 -0.644173 1.75235 0
M  V30 3125 C 295.904 -1.78865 0.806335 0
M  V30 3126 O 295.029 -2.16395 -0.0140128 0
M  V30 3127 C 295.624 -1.17532 3.1776 0
M  V30 3128 C 294.183 -1.67531 3.37061 0
M  V30 3129 C 293.33 -0.58693 2.71017 0
M  V30 3130 H 296.281 0.135884 1.58117 0
M  V30 3131 H 296.302 -2.04455 3.20902 0
M  V30 3132 H 295.814 -0.342138 3.86589 0
M  V30 3133 H 293.915 -2.53234 2.73319 0
M  V30 3134 H 294.028 -1.76493 4.45406 0
M  V30 3135 H 292.392 -1.02756 2.33052 0
M  V30 3136 H 293.175 0.235758 3.4249 0
M  V30 3137 N 295.62 -1.53406 -0.361157 0
M  V30 3138 C 296.55 -1.83136 -1.44857 0
M  V30 3139 C 297.531 -0.685174 -1.5569 0
M  V30 3140 O 298.716 -0.93544 -1.70186 0
M  V30 3141 C 295.846 -2.02522 -2.82138 0
M  V30 3142 C 294.8 -3.18302 -2.86126 0
M  V30 3143 C 294.126 -3.22989 -4.26125 0
M  V30 3144 C 295.426 -4.56796 -2.53248 0
M  V30 3145 H 297.12 -2.74201 -1.20226 0
M  V30 3146 H 294.666 -1.31938 -0.576922 0
M  V30 3147 H 296.619 -2.21904 -3.58241 0
M  V30 3148 H 295.343 -1.08172 -3.08166 0
M  V30 3149 H 294.002 -2.98747 -2.12475 0
M  V30 3150 H 293.65 -2.26267 -4.49235 0
M  V30 3151 H 293.35 -4.00781 -4.29708 0
M  V30 3152 H 294.874 -3.44559 -5.04094 0
M  V30 3153 H 296.288 -4.7631 -3.19064 0
M  V30 3154 H 294.685 -5.36862 -2.68141 0
M  V30 3155 H 295.755 -4.61606 -1.48484 0
M  V30 3156 N 297.098 0.621204 -1.44841 0
M  V30 3157 C 298.323 1.41244 -1.51871 0
M  V30 3158 C 298.748 1.87519 -0.147764 0
M  V30 3159 O 298.106 1.59334 0.865 0
M  V30 3160 C 298.154 2.60221 -2.49634 0
M  V30 3161 O 297.258 3.60395 -2.00473 0
M  V30 3162 H 296.599 0.42223 -0.512463 0
M  V30 3163 H 299.129 0.757305 -1.90069 0
M  V30 3164 H 299.139 3.0764 -2.67996 0
M  V30 3165 H 297.814 2.25887 -3.4921 0
M  V30 3166 H 296.391 3.19717 -1.91925 0
M  V30 3167 N 298.576 1.31904 0.862503 0
M  V30 3168 C 299.486 1.22161 2.00285 0
M  V30 3169 C 300.502 0.136785 1.73462 0
M  V30 3170 O 301.678 0.355994 1.98229 0
M  V30 3171 C 298.743 0.937093 3.33796 0
M  V30 3172 C 297.804 2.10957 3.73893 0
M  V30 3173 C 297.037 1.83853 5.01033 0
M  V30 3174 O 297.26 0.777274 5.65079 0
M  V30 3175 O 296.194 2.69741 5.38074 0
M  V30 3176 H 300.02 2.18008 2.11439 0
M  V30 3177 H 297.605 1.11716 0.991957 0
M  V30 3178 H 299.487 0.794583 4.13841 0
M  V30 3179 H 298.162 0.00871894 3.23699 0
M  V30 3180 H 297.069 2.30752 2.94456 0
M  V30 3181 H 298.402 3.02046 3.88625 0
M  V30 3182 N 300.054 -1.07777 1.14986 0
M  V30 3183 C 301.002 -2.16964 0.838406 0
M  V30 3184 C 301.996 -1.68372 -0.186386 0
M  V30 3185 O 303.202 -1.79951 -0.0418465 0
M  V30 3186 H 299.577 -0.708006 0.253439 0
M  V30 3187 H 301.548 -2.40454 1.76704 0
M  V30 3188 C 300.297 -3.4604 0.339335 0
M  V30 3189 H 299.62 -3.83813 1.11927 0
M  V30 3190 H 301.06 -4.23698 0.160021 0
M  V30 3191 C 299.519 -3.23569 -0.938325 0
M  V30 3192 O 300.049 -3.47752 -2.01077 0
M  V30 3193 N 298.255 -2.77079 -0.876117 0
M  V30 3194 H 297.802 -2.576 -0.00322037 0
M  V30 3195 H 297.76 -2.62422 -1.73153 0
M  V30 3196 N 301.532 -0.945985 -1.26051 0
M  V30 3197 C 302.943 -0.638096 -1.75457 0
M  V30 3198 C 303.294 0.846672 -1.76991 0
M  V30 3199 O 302.419 1.66262 -1.38513 0
M  V30 3200 C 303.014 -1.15157 -3.18629 0
M  V30 3201 C 301.573 -0.894004 -3.65629 0
M  V30 3202 C 300.72 -1.29967 -2.44957 0
M  V30 3203 H 303.671 -1.12376 -1.1206 0
M  V30 3204 H 303.692 -0.507615 -3.77099 0
M  V30 3205 H 303.204 -2.23222 -3.1748 0
M  V30 3206 H 301.305 0.172057 -3.72203 0
M  V30 3207 H 301.418 -1.52439 -4.54202 0
M  V30 3208 H 299.782 -0.718078 -2.44368 0
M  V30 3209 H 300.565 -2.38935 -2.46505 0
M  V30 3210 N 303.011 1.40521 -0.713556 0
M  V30 3211 C 304.422 1.83853 -0.324807 0
M  V30 3212 C 304.773 1.59667 1.14021 0
M  V30 3213 O 303.898 1.07649 1.87725 0
M  V30 3214 C 304.493 3.33751 -0.582746 0
M  V30 3215 C 303.052 3.75584 -0.247727 0
M  V30 3216 C 302.199 2.63753 -0.856121 0
M  V30 3217 H 305.15 1.29817 -0.91286 0
M  V30 3218 H 305.171 3.80194 0.152682 0
M  V30 3219 H 304.683 3.51322 -1.64908 0
M  V30 3220 H 302.784 3.63608 0.813624 0
M  V30 3221 H 302.897 4.7373 -0.715307 0
M  V30 3222 H 301.261 2.53108 -0.28432 0
M  V30 3223 H 302.044 2.84137 -1.92668 0
M  V30 3224 N 304.489 0.459591 1.5075 0
M  V30 3225 C 305.437 -0.354678 2.2988 0
M  V30 3226 C 306.431 -1.00086 1.36672 0
M  V30 3227 O 307.637 -0.933277 1.53915 0
M  V30 3228 H 304.012 -0.13321 0.740107 0
M  V30 3229 H 305.983 0.333269 2.96533 0
M  V30 3230 C 304.732 -1.43073 3.169 0
M  V30 3231 H 304.055 -0.942882 3.88523 0
M  V30 3232 H 305.495 -1.97328 3.75284 0
M  V30 3233 C 303.954 -2.42633 2.33732 0
M  V30 3234 O 304.484 -3.47658 2.01238 0
M  V30 3235 N 302.69 -2.14066 1.9653 0
M  V30 3236 H 302.237 -1.28685 2.23155 0
M  V30 3237 H 302.195 -2.80917 1.41185 0
M  V30 3238 N 305.967 -1.56429 0.191757 0
M  V30 3239 C 306.917 -2.15548 -0.743184 0
M  V30 3240 C 307.901 -1.09531 -1.17863 0
M  V30 3241 O 309.093 -1.35602 -1.13759 0
M  V30 3242 C 306.222 -2.81577 -1.96391 0
M  V30 3243 C 305.308 -3.9478 -1.54951 0
M  V30 3244 N 305.699 -4.98677 -0.845876 0
M  V30 3245 C 303.997 -4.06319 -1.83905 0
M  V30 3246 C 304.698 -5.78183 -0.638724 0
M  V30 3247 N 303.674 -5.30495 -1.18643 0
M  V30 3248 H 307.476 -2.9324 -0.196839 0
M  V30 3249 H 304.99 -1.62398 -0.0081603 0
M  V30 3250 H 306.987 -3.22321 -2.64415 0
M  V30 3251 H 305.647 -2.05371 -2.51501 0
M  V30 3252 H 306.658 -5.15464 -0.501704 0
M  V30 3253 H 303.335 -3.41238 -2.40548 0
M  V30 3254 H 304.725 -6.71851 -0.0807929 0
M  V30 3255 N 307.445 0.0818655 -1.57387 0
M  V30 3256 C 308.694 0.781681 -1.85937 0
M  V30 3257 C 309.007 1.79246 -0.782957 0
M  V30 3258 O 310.213 2.54112 -0.955987 0
M  V30 3259 C 308.669 1.44109 -3.29789 0
M  V30 3260 C 308.277 0.469396 -4.45534 0
M  V30 3261 C 310.021 2.12386 -3.67549 0
M  V30 3262 C 307.928 1.13415 -5.80423 0
M  V30 3263 H 306.858 0.295682 -0.693605 0
M  V30 3264 H 309.509 0.0348051 -1.83467 0
M  V30 3265 H 307.891 2.23588 -3.2684 0
M  V30 3266 H 309.065 -0.294856 -4.59856 0
M  V30 3267 H 307.38 -0.108383 -4.16259 0
M  V30 3268 H 309.977 2.62878 -4.65617 0
M  V30 3269 H 310.32 2.91877 -2.96839 0
M  V30 3270 H 310.853 1.39751 -3.72444 0
M  V30 3271 H 307.592 0.379771 -6.54399 0
M  V30 3272 H 307.112 1.8695 -5.69921 0
M  V30 3273 H 308.791 1.65686 -6.25426 0
M  V30 3274 N 308.923 1.53595 0.353017 0
M  V30 3275 C 309.853 1.83902 1.43883 0
M  V30 3276 C 310.834 0.693421 1.55324 0
M  V30 3277 O 312.019 0.944452 1.69687 0
M  V30 3278 C 309.149 2.04016 2.8106 0
M  V30 3279 C 308.103 3.19814 2.84434 0
M  V30 3280 C 307.429 3.25244 4.24406 0
M  V30 3281 C 308.729 4.58133 2.50822 0
M  V30 3282 H 310.423 2.74835 1.1877 0
M  V30 3283 H 307.969 1.32242 0.569917 0
M  V30 3284 H 309.922 2.238 3.57059 0
M  V30 3285 H 308.646 1.09804 3.07588 0
M  V30 3286 H 307.305 2.9987 2.10887 0
M  V30 3287 H 306.953 2.28646 4.48029 0
M  V30 3288 H 306.653 4.03054 4.27576 0
M  V30 3289 H 308.177 3.47228 5.0226 0
M  V30 3290 H 309.591 4.77995 3.16534 0
M  V30 3291 H 307.988 5.38276 2.6529 0
M  V30 3292 H 309.058 4.62387 1.46034 0
M  V30 3293 N 310.401 -0.613514 1.45168 0
M  V30 3294 C 311.648 -1.37268 1.48875 0
M  V30 3295 C 311.976 -1.94077 0.128161 0
M  V30 3296 O 311.231 -1.75178 -0.872416 0
M  V30 3297 C 311.53 -2.54347 2.51083 0
M  V30 3298 C 311.196 -2.1572 3.95949 0
M  V30 3299 C 309.858 -2.04899 4.35396 0
M  V30 3300 C 312.21 -1.85485 4.87078 0
M  V30 3301 C 309.538 -1.62057 5.63875 0
M  V30 3302 C 311.89 -1.4413 6.15962 0
M  V30 3303 C 310.554 -1.31863 6.54346 0
M  V30 3304 H 309.824 -0.502299 0.544773 0
M  V30 3305 H 312.471 -0.694021 1.78481 0
M  V30 3306 H 310.776 -3.27524 2.15024 0
M  V30 3307 H 312.473 -3.12577 2.51191 0
M  V30 3308 H 309.063 -2.25066 3.64751 0
M  V30 3309 H 313.247 -1.92745 4.57343 0
M  V30 3310 H 308.503 -1.51177 5.92415 0
M  V30 3311 H 312.677 -1.19778 6.86022 0
M  V30 3312 H 310.304 -0.984392 7.538 0
M  V30 3313 N 311.879 -1.3236 -0.855495 0
M  V30 3314 C 312.809 -1.23833 -1.97958 0
M  V30 3315 C 313.79 -0.122361 -1.69659 0
M  V30 3316 O 314.975 -0.30939 -1.9172 0
M  V30 3317 C 312.105 -0.959772 -3.33775 0
M  V30 3318 C 311.059 -2.03689 -3.76424 0
M  V30 3319 C 310.385 -1.61075 -5.09862 0
M  V30 3320 C 311.685 -3.4518 -3.9198 0
M  V30 3321 H 313.379 -2.1788 -2.0535 0
M  V30 3322 H 310.925 -1.04891 -0.986605 0
M  V30 3323 H 312.878 -0.886678 -4.11966 0
M  V30 3324 H 311.602 0.0163404 -3.26596 0
M  V30 3325 H 310.261 -2.10012 -3.00484 0
M  V30 3326 H 309.909 -0.622107 -4.99138 0
M  V30 3327 H 309.609 -2.33143 -5.39368 0
M  V30 3328 H 311.133 -1.55201 -5.90546 0
M  V30 3329 H 312.547 -3.4145 -4.60526 0
M  V30 3330 H 310.944 -4.1559 -4.32903 0
M  V30 3331 H 312.014 -3.84903 -2.94919 0
M  V30 3332 N 313.357 1.07166 -1.15556 0
M  V30 3333 C 314.585 1.83514 -0.955519 0
M  V30 3334 C 315 1.82163 0.49621 0
M  V30 3335 O 314.357 1.23441 1.34419 0
M  V30 3336 C 314.408 3.30515 -1.46432 0
M  V30 3337 O 314.129 3.31937 -2.85918 0
M  V30 3338 C 315.63 4.23625 -1.30603 0
M  V30 3339 H 312.85 0.578926 -0.339244 0
M  V30 3340 H 315.394 1.35265 -1.53374 0
M  V30 3341 H 313.549 3.76106 -0.928584 0
M  V30 3342 H 313.963 4.23794 -3.09029 0
M  V30 3343 H 315.437 5.24831 -1.71047 0
M  V30 3344 H 315.914 4.38485 -0.250441 0
M  V30 3345 H 316.52 3.83871 -1.83094 0
M  V30 3346 N 314.835 0.952656 1.25548 0
M  V30 3347 C 315.783 0.462354 2.27958 0
M  V30 3348 C 316.777 -0.46634 1.62855 0
M  V30 3349 O 317.983 -0.343287 1.76696 0
M  V30 3350 H 314.358 0.13101 0.7405 0
M  V30 3351 H 316.329 1.33839 2.66702 0
M  V30 3352 C 315.078 -0.24628 3.46827 0
M  V30 3353 H 314.401 0.459192 3.97154 0
M  V30 3354 H 315.841 -0.553393 4.20373 0
M  V30 3355 C 314.3 -1.4681 3.0323 0
M  V30 3356 O 314.83 -2.56591 3.09069 0
M  V30 3357 N 313.036 -1.32874 2.58443 0
M  V30 3358 H 312.583 -0.435536 2.53891 0
M  V30 3359 H 312.541 -2.14742 2.29637 0
M  V30 3360 N 316.313 -1.40141 0.720998 0
M  V30 3361 C 317.243 -2.33339 0.0867621 0
M  V30 3362 C 318.224 -1.53178 -0.739622 0
M  V30 3363 O 319.409 -1.81625 -0.687449 0
M  V30 3364 C 316.539 -3.37194 -0.831728 0
M  V30 3365 C 315.493 -4.27857 -0.110558 0
M  V30 3366 C 314.819 -5.22294 -1.14513 0
M  V30 3367 C 316.119 -5.11872 1.0385 0
M  V30 3368 H 317.813 -2.86626 0.865219 0
M  V30 3369 H 315.359 -1.37814 0.417516 0
M  V30 3370 H 317.312 -4.01335 -1.28485 0
M  V30 3371 H 316.036 -2.82314 -1.64214 0
M  V30 3372 H 314.695 -3.65176 0.322797 0
M  V30 3373 H 314.343 -4.63717 -1.94874 0
M  V30 3374 H 314.043 -5.83797 -0.667446 0
M  V30 3375 H 315.567 -5.89312 -1.59824 0
M  V30 3376 H 316.981 -5.69436 0.664482 0
M  V30 3377 H 315.378 -5.82445 1.4449 0
M  V30 3378 H 316.448 -4.4753 1.86668 0
M  V30 3379 N 317.792 -0.46758 -1.50504 0
M  V30 3380 C 319.203 -0.0116166 -1.86696 0
M  V30 3381 C 319.554 1.39202 -1.38265 0
M  V30 3382 O 318.679 2.0313 -0.746132 0
M  V30 3383 C 319.274 -0.0143044 -3.38797 0
M  V30 3384 C 317.833 0.386175 -3.74414 0
M  V30 3385 C 316.98 -0.401287 -2.74381 0
M  V30 3386 H 319.931 -0.682022 -1.43297 0
M  V30 3387 H 319.952 0.788641 -3.72237 0
M  V30 3388 H 319.464 -1.03602 -3.74016 0
M  V30 3389 H 317.565 1.41237 -3.44794 0
M  V30 3390 H 317.678 0.0899596 -4.79016 0
M  V30 3391 H 316.042 0.144536 -2.5429 0
M  V30 3392 H 316.825 -1.42244 -3.12444 0
M  V30 3393 N 319.27 1.56325 -0.20005 0
M  V30 3394 C 320.18 2.22931 0.730668 0
M  V30 3395 C 321.196 1.22997 1.23076 0
M  V30 3396 O 322.372 1.55748 1.27689 0
M  V30 3397 C 319.437 2.87948 1.93098 0
M  V30 3398 C 318.498 4.03166 1.47497 0
M  V30 3399 C 317.731 4.65073 2.61807 0
M  V30 3400 O 317.954 4.25913 3.79413 0
M  V30 3401 O 316.888 5.54452 2.34237 0
M  V30 3402 H 320.714 3.03084 0.193391 0
M  V30 3403 H 318.299 1.49371 0.0294621 0
M  V30 3404 H 320.181 3.29063 2.6324 0
M  V30 3405 H 318.856 2.10771 2.45677 0
M  V30 3406 H 317.763 3.66664 0.742201 0
M  V30 3407 H 319.096 4.82022 0.995796 0
M  V30 3408 N 320.748 -0.0735177 1.57428 0
M  V30 3409 C 321.658 -1.10547 2.06922 0
M  V30 3410 C 322.674 -1.42506 0.998402 0
M  V30 3411 O 323.85 -1.52717 1.31299 0
M  V30 3412 C 320.915 -2.40019 2.50184 0
M  V30 3413 C 319.976 -2.15046 3.71556 0
M  V30 3414 C 319.209 -3.38345 4.12745 0
M  V30 3415 O 319.432 -4.47399 3.53822 0
M  V30 3416 O 318.366 -3.2666 5.05546 0
M  V30 3417 H 322.192 -0.715013 2.95163 0
M  V30 3418 H 319.777 -0.287531 1.46607 0
M  V30 3419 H 321.659 -3.16218 2.78539 0
M  V30 3420 H 320.334 -2.78447 1.65072 0
M  V30 3421 H 319.241 -1.36558 3.48285 0
M  V30 3422 H 320.574 -1.81499 4.57514 0
M  V30 3423 N 322.226 -1.5378 -0.344866 0
M  V30 3424 C 323.454 -1.74899 -1.10534 0
M  V30 3425 C 323.869 -0.487534 -1.82397 0
M  V30 3426 O 323.226 0.540741 -1.74305 0
M  V30 3427 C 323.277 -2.92822 -2.11984 0
M  V30 3428 O 322.998 -4.14089 -1.43044 0
M  V30 3429 C 324.499 -3.25982 -3.00417 0
M  V30 3430 H 321.719 -0.584426 -0.329678 0
M  V30 3431 H 324.263 -2.006 -0.397474 0
M  V30 3432 H 322.418 -2.69457 -2.78338 0
M  V30 3433 H 322.832 -4.80272 -2.10805 0
M  V30 3434 H 324.306 -4.11848 -3.67539 0
M  V30 3435 H 324.783 -2.42228 -3.66363 0
M  V30 3436 H 325.389 -3.51349 -2.39654 0
M  V30 3437 N 323.704 0.605807 -1.45491 0
M  V30 3438 C 324.652 1.73754 -1.54636 0
M  V30 3439 C 325.646 1.64207 -0.416219 0
M  V30 3440 O 326.852 1.69979 -0.592199 0
M  V30 3441 H 323.227 0.574073 -0.485741 0
M  V30 3442 H 325.198 1.63169 -2.49837 0
M  V30 3443 C 323.947 3.12135 -1.53189 0
M  V30 3444 H 323.27 3.20141 -2.39478 0
M  V30 3445 H 324.71 3.91147 -1.63645 0
M  V30 3446 C 323.169 3.35921 -0.256616 0
M  V30 3447 O 323.699 3.96194 0.662798 0
M  V30 3448 N 321.905 2.90204 -0.151751 0
M  V30 3449 H 321.452 2.41336 -0.90081 0
M  V30 3450 H 321.41 3.06492 0.700699 0
M  V30 3451 N 325.182 1.32811 0.848464 0
M  V30 3452 C 326.092 1.24278 1.98978 0
M  V30 3453 C 327.108 0.155176 1.73307 0
M  V30 3454 O 328.284 0.376999 1.9784 0
M  V30 3455 C 325.349 0.972444 3.32783 0
M  V30 3456 C 324.41 2.14911 3.71634 0
M  V30 3457 C 323.643 1.89157 4.99054 0
M  V30 3458 O 323.866 0.837165 5.64223 0
M  V30 3459 O 322.8 2.75433 5.35183 0
M  V30 3460 H 326.626 2.20238 2.09115 0
M  V30 3461 H 324.211 1.12762 0.980052 0
M  V30 3462 H 326.093 0.838432 4.12975 0
M  V30 3463 H 324.768 0.043051 3.23671 0
M  V30 3464 H 323.675 2.33862 2.91992 0
M  V30 3465 H 325.008 3.06151 3.85399 0
M  V30 3466 N 326.66 -1.06551 1.16123 0
M  V30 3467 C 327.59 -2.15935 0.88851 0
M  V30 3468 C 328.571 -1.69306 -0.164135 0
M  V30 3469 O 329.756 -1.94193 -0.0167857 0
M  V30 3470 C 326.886 -3.45149 0.385942 0
M  V30 3471 C 325.84 -4.05271 1.3762 0
M  V30 3472 C 325.166 -5.29664 0.732137 0
M  V30 3473 C 326.466 -4.44355 2.74493 0
M  V30 3474 H 328.16 -2.39006 1.80323 0
M  V30 3475 H 325.706 -1.14866 0.868435 0
M  V30 3476 H 327.659 -4.21004 0.182647 0
M  V30 3477 H 326.383 -3.21689 -0.564274 0
M  V30 3478 H 325.042 -3.3147 1.56599 0
M  V30 3479 H 324.69 -5.02499 -0.224483 0
M  V30 3480 H 324.39 -5.70848 1.39307 0
M  V30 3481 H 325.914 -6.08218 0.538802 0
M  V30 3482 H 327.328 -5.11303 2.59311 0
M  V30 3483 H 325.725 -4.96515 3.37035 0
M  V30 3484 H 326.795 -3.55339 3.29943 0
M  V30 3485 N 328.138 -0.959301 -1.25041 0
M  V30 3486 C 329.071 -0.427418 -2.24161 0
M  V30 3487 C 330.049 0.493837 -1.54919 0
M  V30 3488 O 331.233 0.427144 -1.83597 0
M  V30 3489 C 328.36 0.383893 -3.36517 0
M  V30 3490 C 327.406 -0.478431 -4.23808 0
M  V30 3491 S 328.239 -1.91353 -5.00144 0
M  V30 3492 C 329.395 -1.11077 -6.15965 0
M  V30 3493 H 329.628 -1.26743 -2.6893 0
M  V30 3494 H 327.161 -0.763714 -1.34189 0
M  V30 3495 H 329.119 0.846039 -4.01687 0
M  V30 3496 H 327.78 1.19878 -2.90324 0
M  V30 3497 H 326.973 0.14406 -5.03794 0
M  V30 3498 H 326.575 -0.87597 -3.63597 0
M  V30 3499 H 328.867 -0.361699 -6.76534 0
M  V30 3500 H 329.81 -1.88472 -6.82557 0
M  V30 3501 H 330.218 -0.638843 -5.60873 0
M  V30 3502 N 329.616 1.39756 -0.72842 0
M  V30 3503 C 330.546 2.33289 -0.0991354 0
M  V30 3504 C 331.527 1.53568 0.731489 0
M  V30 3505 O 332.712 1.81987 0.677807 0
M  V30 3506 C 329.842 3.3763 0.813834 0
M  V30 3507 C 328.796 4.2791 0.0878663 0
M  V30 3508 C 328.122 5.22894 1.11741 0
M  V30 3509 C 329.422 5.11314 -1.06563 0
M  V30 3510 H 331.116 2.86163 -0.880408 0
M  V30 3511 H 328.662 1.37591 -0.424819 0
M  V30 3512 H 330.615 4.0201 1.26355 0
M  V30 3513 H 329.339 2.83181 1.62715 0
M  V30 3514 H 327.998 3.65 -0.342159 0
M  V30 3515 H 327.646 4.64744 1.92412 0
M  V30 3516 H 327.346 5.84143 0.636477 0
M  V30 3517 H 328.87 5.90151 1.56697 0
M  V30 3518 H 330.284 5.69076 -0.694671 0
M  V30 3519 H 328.681 5.81671 -1.47577 0
M  V30 3520 H 329.751 4.46534 -1.89038 0
M  V30 3521 N 331.094 0.475555 1.50254 0
M  V30 3522 C 332.319 -0.0777042 2.07254 0
M  V30 3523 C 332.744 -1.3235 1.3366 0
M  V30 3524 O 332.102 -1.77152 0.385597 0
M  V30 3525 C 332.15 -0.340169 3.58992 0
M  V30 3526 O 331.254 -1.41982 3.87188 0
M  V30 3527 H 330.595 0.0149556 0.663832 0
M  V30 3528 H 333.125 0.667878 1.93392 0
M  V30 3529 H 333.135 -0.579332 4.03866 0
M  V30 3530 H 331.81 0.570167 4.11973 0
M  V30 3531 H 330.387 -1.16762 3.54148 0
M  V30 3532 N 332.573 -1.56217 0.208337 0
M  V30 3533 C 333.506 -2.15633 -0.746842 0
M  V30 3534 C 334.484 -1.09685 -1.20034 0
M  V30 3535 O 335.668 -1.3787 -1.28547 0
M  V30 3536 C 332.795 -2.72594 -2.01023 0
M  V30 3537 C 331.841 -3.91251 -1.69779 0
M  V30 3538 S 332.674 -5.28962 -0.834209 0
M  V30 3539 C 333.83 -5.89353 -2.10745 0
M  V30 3540 H 334.063 -2.96315 -0.241789 0
M  V30 3541 H 331.596 -1.54398 -0.00682183 0
M  V30 3542 H 333.554 -3.06053 -2.73572 0
M  V30 3543 H 332.215 -1.91929 -2.48641 0
M  V30 3544 H 331.408 -4.29562 -2.63614 0
M  V30 3545 H 331.01 -3.58869 -1.05303 0
M  V30 3546 H 333.302 -6.04522 -3.05875 0
M  V30 3547 H 334.245 -6.85661 -1.76845 0
M  V30 3548 H 334.653 -5.1807 -2.24196 0
M  V30 3549 N 334.051 0.0651679 -1.57465 0
M  V30 3550 C 334.981 1.07693 -2.07182 0
M  V30 3551 C 335.962 1.39962 -0.966673 0
M  V30 3552 O 337.147 1.49475 -1.2398 0
M  V30 3553 C 334.277 2.3885 -2.52127 0
M  V30 3554 C 333.231 2.20917 -3.66579 0
M  V30 3555 C 332.557 3.57515 -3.97601 0
M  V30 3556 C 333.857 1.62493 -4.9638 0
M  V30 3557 H 335.551 0.663199 -2.91962 0
M  V30 3558 H 333.097 0.317569 -1.40455 0
M  V30 3559 H 335.05 3.09928 -2.85522 0
M  V30 3560 H 333.774 2.82215 -1.64384 0
M  V30 3561 H 332.433 1.52279 -3.33477 0
M  V30 3562 H 332.081 3.98463 -3.06979 0
M  V30 3563 H 331.781 3.46353 -4.74672 0
M  V30 3564 H 333.305 4.30013 -4.33499 0
M  V30 3565 H 334.719 2.23445 -5.27963 0
M  V30 3566 H 333.116 1.62009 -5.77818 0
M  V30 3567 H 334.186 0.587041 -4.81333 0
M  V30 3568 N 335.529 1.53961 0.336706 0
M  V30 3569 C 336.776 1.71536 1.07618 0
M  V30 3570 C 337.104 0.482125 1.8843 0
M  V30 3571 O 336.359 -0.536142 1.88213 0
M  V30 3572 C 336.658 2.93493 2.03953 0
M  V30 3573 C 336.324 4.28811 1.39399 0
M  V30 3574 C 334.986 4.65602 1.21523 0
M  V30 3575 C 337.338 5.12844 0.929541 0
M  V30 3576 C 334.666 5.84037 0.558312 0
M  V30 3577 C 337.018 6.31951 0.286505 0
M  V30 3578 C 335.682 6.67432 0.0954869 0
M  V30 3579 H 334.952 0.627696 0.393801 0
M  V30 3580 H 337.599 1.88186 0.354715 0
M  V30 3581 H 335.904 2.71475 2.82504 0
M  V30 3582 H 337.601 3.04285 2.61174 0
M  V30 3583 H 334.191 3.99858 1.54311 0
M  V30 3584 H 338.375 4.84947 1.05548 0
M  V30 3585 H 333.631 6.10097 0.398995 0
M  V30 3586 H 337.805 6.96352 -0.0814376 0
M  V30 3587 H 335.432 7.59063 -0.415579 0
M  V30 3588 N 337.007 -0.598083 1.45811 0
M  V30 3589 C 337.955 -1.72932 1.55555 0
M  V30 3590 C 338.949 -1.63984 0.424921 0
M  V30 3591 O 340.155 -1.69663 0.601205 0
M  V30 3592 H 336.53 -0.571489 0.488779 0
M  V30 3593 H 338.501 -1.61842 2.50699 0
M  V30 3594 C 337.25 -3.11318 1.54843 0
M  V30 3595 H 336.573 -3.18867 2.41172 0
M  V30 3596 H 338.013 -3.90274 1.65717 0
M  V30 3597 C 336.472 -3.3578 0.274427 0
M  V30 3598 O 337.002 -3.9654 -0.641778 0
M  V30 3599 N 335.208 -2.90119 0.167139 0
M  V30 3600 H 334.755 -2.40855 0.913596 0
M  V30 3601 H 334.713 -3.0686 -0.684435 0
M  V30 3602 N 338.485 -1.33259 -0.841409 0
M  V30 3603 C 339.417 -1.19136 -1.95804 0
M  V30 3604 C 340.43 -0.122965 -1.62335 0
M  V30 3605 O 341.619 -0.373154 -1.74556 0
M  V30 3606 C 338.719 -0.804268 -3.29218 0
M  V30 3607 C 337.892 -1.96376 -3.90839 0
M  V30 3608 C 336.951 -1.55806 -5.02604 0
M  V30 3609 O 335.977 -2.27203 -5.21888 0
M  V30 3610 N 337.179 -0.461609 -5.78662 0
M  V30 3611 H 339.944 -2.15326 -2.08458 0
M  V30 3612 H 337.505 -1.25971 -1.017 0
M  V30 3613 H 339.497 -0.51501 -4.0141 0
M  V30 3614 H 338.067 0.0668809 -3.12528 0
M  V30 3615 H 337.287 -2.41879 -3.11269 0
M  V30 3616 H 338.575 -2.73966 -4.28742 0
M  V30 3617 H 337.973 0.132343 -5.65545 0
M  V30 3618 H 336.53 -0.232013 -6.51387 0
M  V30 3619 N 339.963 1.05934 -1.16686 0
M  V30 3620 C 341.21 1.788 -0.950622 0
M  V30 3621 C 341.538 1.87384 0.521305 0
M  V30 3622 O 340.793 1.36438 1.40297 0
M  V30 3623 C 341.092 3.23105 -1.52767 0
M  V30 3624 C 340.758 3.34594 -3.02254 0
M  V30 3625 C 339.42 3.37437 -3.43059 0
M  V30 3626 C 341.772 3.36219 -3.98254 0
M  V30 3627 C 339.1 3.39525 -4.78477 0
M  V30 3628 C 341.452 3.39845 -5.33562 0
M  V30 3629 C 340.116 3.40971 -5.73842 0
M  V30 3630 H 339.386 0.654275 -0.347857 0
M  V30 3631 H 342.033 1.24555 -1.45459 0
M  V30 3632 H 340.338 3.80227 -0.94524 0
M  V30 3633 H 342.035 3.7809 -1.336 0
M  V30 3634 H 338.625 3.3309 -2.6972 0
M  V30 3635 H 342.809 3.33231 -3.67792 0
M  V30 3636 H 338.065 3.38703 -5.09009 0
M  V30 3637 H 342.239 3.4005 -6.07733 0
M  V30 3638 H 339.866 3.42342 -6.78753 0
M  V30 3639 N 341.441 0.965919 1.2453 0
M  V30 3640 C 342.852 0.665929 1.7442 0
M  V30 3641 C 343.203 -0.818407 1.78316 0
M  V30 3642 O 342.328 -1.64037 1.41141 0
M  V30 3643 C 342.923 1.20211 3.16757 0
M  V30 3644 C 341.482 0.952059 3.6416 0
M  V30 3645 C 340.629 1.33848 2.42858 0
M  V30 3646 H 343.58 1.14144 1.10258 0
M  V30 3647 H 343.601 0.567544 3.76244 0
M  V30 3648 H 343.113 2.28244 3.13889 0
M  V30 3649 H 341.214 -0.112821 3.72429 0
M  V30 3650 H 341.327 1.59645 4.51719 0
M  V30 3651 H 339.691 0.756864 2.43195 0
M  V30 3652 H 340.474 2.42827 2.42673 0
M  V30 3653 N 342.919 -1.39368 0.735821 0
M  V30 3654 C 344.167 -2.00101 0.283562 0
M  V30 3655 C 344.488 -1.5868 -1.13338 0
M  V30 3656 O 343.758 -0.835423 -1.77193 0
M  V30 3657 H 342.338 -0.740024 0.101851 0
M  V30 3658 H 345 -1.70404 0.945962 0
M  V30 3659 H 344.096 -3.10323 0.332604 0
M  V30 3660 N 344.397 -0.483516 -1.5 0
M  V30 3661 C 345.644 0.0671597 -2.02389 0
M  V30 3662 C 345.972 1.38597 -1.36459 0
M  V30 3663 O 345.227 1.89634 -0.483458 0
M  V30 3664 C 345.526 0.286226 -3.56252 0
M  V30 3665 C 345.192 -0.952416 -4.40726 0
M  V30 3666 C 343.854 -1.29199 -4.63531 0
M  V30 3667 C 346.206 -1.77655 -4.89988 0
M  V30 3668 C 343.534 -2.45553 -5.32842 0
M  V30 3669 C 345.886 -2.93147 -5.60578 0
M  V30 3670 C 344.55 -3.27505 -5.81633 0
M  V30 3671 H 343.82 0.0245755 -0.740592 0
M  V30 3672 H 346.467 -0.640124 -1.80485 0
M  V30 3673 H 344.772 1.07587 -3.76739 0
M  V30 3674 H 346.469 0.726473 -3.94365 0
M  V30 3675 H 343.059 -0.677881 -4.23205 0
M  V30 3676 H 347.243 -1.52737 -4.72213 0
M  V30 3677 H 342.499 -2.72431 -5.47349 0
M  V30 3678 H 346.673 -3.57344 -5.97727 0
M  V30 3679 H 344.3 -4.1777 -6.35116 0
M  V30 3680 N 345.875 1.56104 -0.216619 0
M  V30 3681 C 346.822 2.2007 0.695531 0
M  V30 3682 C 347.792 1.15471 1.19397 0
M  V30 3683 O 348.977 1.43807 1.25396 0
M  V30 3684 C 346.117 2.88073 1.90021 0
M  V30 3685 C 345.23 4.07253 1.44113 0
M  V30 3686 C 344.365 4.63052 2.603 0
M  V30 3687 C 343.404 5.74545 2.11103 0
M  V30 3688 N 342.541 6.24656 3.20545 0
M  V30 3689 H 347.381 2.97655 0.143327 0
M  V30 3690 H 344.918 1.46982 0.0589934 0
M  V30 3691 H 346.876 3.25681 2.60745 0
M  V30 3692 H 345.506 2.13015 2.42538 0
M  V30 3693 H 344.558 3.75164 0.628999 0
M  V30 3694 H 345.87 4.8783 1.04036 0
M  V30 3695 H 345.024 5.03078 3.39113 0
M  V30 3696 H 343.763 3.81628 3.03663 0
M  V30 3697 H 342.768 5.34027 1.3075 0
M  V30 3698 H 343.993 6.57801 1.68746 0
M  V30 3699 H 341.939 5.46148 3.63399 0
M  V30 3700 H 341.856 7.00343 2.84704 0
M  V30 3701 H 343.124 6.69338 3.99508 0
M  V30 3702 N 347.353 -0.0568162 1.57498 0
M  V30 3703 C 348.263 -1.08346 2.08083 0
M  V30 3704 C 349.279 -1.41439 1.01346 0
M  V30 3705 O 350.455 -1.51316 1.32912 0
M  V30 3706 C 347.52 -2.37352 2.52715 0
M  V30 3707 C 346.581 -2.11093 3.73816 0
M  V30 3708 C 345.814 -3.33949 4.1631 0
M  V30 3709 O 346.037 -4.43622 3.58547 0
M  V30 3710 O 344.971 -3.21279 5.08983 0
M  V30 3711 H 348.797 -0.683667 2.95905 0
M  V30 3712 H 346.382 -0.271965 1.46904 0
M  V30 3713 H 348.264 -3.13246 2.81877 0
M  V30 3714 H 346.939 -2.76681 1.68016 0
M  V30 3715 H 345.846 -1.32856 3.49714 0
M  V30 3716 H 347.179 -1.76637 4.59413 0
M  V30 3717 N 348.832 -1.54138 -0.328536 0
M  V30 3718 C 350.078 -1.7236 -1.06865 0
M  V30 3719 C 350.411 -0.493231 -1.87832 0
M  V30 3720 O 349.686 0.5098 -1.877 0
M  V30 3721 C 349.969 -2.99621 -1.99747 0
M  V30 3722 C 349.822 -4.32899 -1.22143 0
M  V30 3723 C 351.141 -3.22615 -2.99345 0
M  V30 3724 H 348.26 -0.627151 -0.387105 0
M  V30 3725 H 350.902 -1.86827 -0.345767 0
M  V30 3726 H 349.052 -2.87418 -2.61387 0
M  V30 3727 H 350.724 -4.56978 -0.630017 0
M  V30 3728 H 348.967 -4.30628 -0.523628 0
M  V30 3729 H 349.638 -5.18154 -1.90318 0
M  V30 3730 H 352.114 -3.34248 -2.47826 0
M  V30 3731 H 350.99 -4.13027 -3.61524 0
M  V30 3732 H 351.251 -2.3961 -3.71536 0
M  V30 3733 N 350.31 0.590341 -1.46126 0
M  V30 3734 C 351.726 0.912917 -1.30912 0
M  V30 3735 C 351.926 1.99616 -0.274893 0
M  V30 3736 O 350.982 2.50397 0.325197 0
M  V30 3737 C 352.295 1.3375 -2.69317 0
M  V30 3738 C 353.843 1.45077 -2.77348 0
M  V30 3739 C 354.318 1.90904 -4.16317 0
M  V30 3740 N 355.809 1.9811 -4.18696 0
M  V30 3741 C 356.544 2.34828 -5.23109 0
M  V30 3742 N 356.04 2.70393 -6.37856 0
M  V30 3743 N 357.833 2.35317 -5.10473 0
M  V30 3744 H 349.984 -0.125358 -2.1203 0
M  V30 3745 H 352.247 0.00658481 -0.947977 0
M  V30 3746 H 351.953 0.615614 -3.4627 0
M  V30 3747 H 351.827 2.30058 -2.9892 0
M  V30 3748 H 354.214 2.16353 -2.00687 0
M  V30 3749 H 354.295 0.4704 -2.51438 0
M  V30 3750 H 353.939 1.20209 -4.9347 0
M  V30 3751 H 353.869 2.89886 -4.39629 0
M  V30 3752 H 356.36 1.73146 -3.359 0
M  V30 3753 H 356.673 2.97341 -7.13308 0
M  V30 3754 H 355.018 2.68048 -6.41229 0
M  V30 3755 H 358.209 2.0695 -4.19868 0
M  V30 3756 H 358.382 2.63605 -5.9196 0
M  V30 3757 N 351.788 1.33704 0.83433 0
M  V30 3758 C 352.718 1.26967 1.95963 0
M  V30 3759 C 353.699 0.149337 1.69443 0
M  V30 3760 O 354.884 0.339852 1.91203 0
M  V30 3761 C 352.014 1.01275 3.32206 0
M  V30 3762 C 350.968 2.09652 3.73136 0
M  V30 3763 C 350.294 1.69166 5.07235 0
M  V30 3764 C 351.594 3.51372 3.86439 0
M  V30 3765 H 353.288 2.2112 2.01857 0
M  V30 3766 H 350.834 1.06447 0.969793 0
M  V30 3767 H 352.787 0.952106 4.10503 0
M  V30 3768 H 351.511 0.0356203 3.26581 0
M  V30 3769 H 350.17 2.14766 2.97104 0
M  V30 3770 H 349.818 0.701437 4.98085 0
M  V30 3771 H 349.518 2.41694 5.35591 0
M  V30 3772 H 351.042 1.64576 5.88003 0
M  V30 3773 H 352.456 3.48734 4.55036 0
M  V30 3774 H 350.853 4.22425 4.26236 0
M  V30 3775 H 351.923 3.89546 2.88759 0
M  V30 3776 N 353.266 -1.05314 1.17247 0
M  V30 3777 C 354.512 -1.78557 0.961513 0
M  V30 3778 C 354.845 -1.87419 -0.508697 0
M  V30 3779 O 354.12 -1.37307 -1.37757 0
M  V30 3780 C 354.403 -3.22514 1.60176 0
M  V30 3781 C 354.256 -3.21673 3.14399 0
M  V30 3782 C 355.575 -4.20318 1.30463 0
M  V30 3783 H 352.694 -0.6482 0.350723 0
M  V30 3784 H 355.336 -1.23102 1.44727 0
M  V30 3785 H 353.486 -3.69867 1.18871 0
M  V30 3786 H 355.158 -2.82405 3.64753 0
M  V30 3787 H 353.401 -2.60048 3.47214 0
M  V30 3788 H 354.072 -4.23271 3.54324 0
M  V30 3789 H 356.548 -3.81454 1.66229 0
M  V30 3790 H 355.424 -5.19289 1.77848 0
M  V30 3791 H 355.685 -4.41526 0.22521 0
M  V30 3792 N 354.744 -0.972509 -1.24016 0
M  V30 3793 C 356.155 -0.67517 -1.74064 0
M  V30 3794 C 356.506 0.808939 -1.78747 0
M  V30 3795 O 355.631 1.63286 -1.42009 0
M  V30 3796 C 356.226 -1.21889 -3.16115 0
M  V30 3797 C 354.785 -0.971358 -3.6365 0
M  V30 3798 C 353.932 -1.35134 -2.42145 0
M  V30 3799 H 356.883 -1.14727 -1.09651 0
M  V30 3800 H 356.904 -0.587489 -3.75937 0
M  V30 3801 H 356.416 -2.29906 -3.12674 0
M  V30 3802 H 354.517 0.0930686 -3.72484 0
M  V30 3803 H 354.63 -1.62039 -4.50866 0
M  V30 3804 H 352.994 -0.769751 -2.4279 0
M  V30 3805 H 353.777 -2.4411 -2.41381 0
M  V30 3806 N 356.222 1.38976 -0.743202 0
M  V30 3807 C 357.47 1.99948 -0.29417 0
M  V30 3808 C 357.791 1.59279 1.12495 0
M  V30 3809 O 357.061 0.844808 1.76748 0
M  V30 3810 H 355.641 0.739473 -0.105774 0
M  V30 3811 H 358.303 1.699 -0.954986 0
M  V30 3812 H 357.399 3.10142 -0.349056 0
M  V30 3813 N 357.7 0.491464 1.49741 0
M  V30 3814 C 359.116 0.146835 1.58923 0
M  V30 3815 C 359.316 -1.34804 1.49767 0
M  V30 3816 O 358.372 -2.12317 1.36667 0
M  V30 3817 C 359.685 0.715157 2.92072 0
M  V30 3818 C 361.233 0.680407 3.05515 0
M  V30 3819 C 361.708 1.22663 4.41269 0
M  V30 3820 N 363.199 1.18691 4.47735 0
M  V30 3821 C 363.934 1.57984 5.51207 0
M  V30 3822 N 363.43 2.04824 6.6183 0
M  V30 3823 N 365.223 1.49459 5.41866 0
M  V30 3824 H 357.374 1.46347 1.53936 0
M  V30 3825 H 359.637 0.606453 0.728642 0
M  V30 3826 H 359.343 1.76317 3.04311 0
M  V30 3827 H 359.217 0.17018 3.76816 0
M  V30 3828 H 361.604 -0.358743 2.92911 0
M  V30 3829 H 361.685 1.26242 2.22478 0
M  V30 3830 H 361.329 2.26451 4.54623 0
M  V30 3831 H 361.259 0.620637 5.2293 0
M  V30 3832 H 363.75 0.843605 3.68364 0
M  V30 3833 H 364.063 2.32901 7.3687 0
M  V30 3834 H 362.408 2.08791 6.62896 0
M  V30 3835 H 365.599 1.12692 4.54333 0
M  V30 3836 H 365.772 1.80406 6.22381 0
M  V30 3837 N 359.178 -1.55987 0.224894 0
M  V30 3838 C 360.128 -2.17076 -0.697296 0
M  V30 3839 C 361.112 -1.12006 -1.15514 0
M  V30 3840 O 362.304 -1.37985 -1.10857 0
M  V30 3841 C 359.433 -2.85679 -1.90374 0
M  V30 3842 C 358.519 -3.97977 -1.46543 0
M  V30 3843 N 358.91 -5.00359 -0.739909 0
M  V30 3844 C 357.208 -4.10128 -1.75245 0
M  V30 3845 C 357.909 -5.79407 -0.515939 0
M  V30 3846 N 356.885 -5.32892 -1.07364 0
M  V30 3847 H 360.687 -2.93592 -0.134594 0
M  V30 3848 H 358.201 -1.62379 0.0262885 0
M  V30 3849 H 360.198 -3.27857 -2.57518 0
M  V30 3850 H 358.858 -2.1066 -2.47088 0
M  V30 3851 H 359.869 -5.16412 -0.392253 0
M  V30 3852 H 356.546 -3.46263 -2.33255 0
M  V30 3853 H 357.936 -6.71872 0.0617349 0
M  V30 3854 N 360.656 0.0484629 -1.57525 0
M  V30 3855 C 361.933 0.777447 -1.79486 0
M  V30 3856 C 362.313 1.94597 -0.818251 0
M  V30 3857 O 361.661 2.28047 0.143767 0
M  V30 3858 C 361.871 1.22864 -3.26658 0
M  V30 3859 C 363.219 1.65251 -3.91123 0
M  V30 3860 O 364.243 1.32372 -3.3069 0
M  V30 3861 O 363.102 2.26207 -4.97486 0
M  V30 3862 H 360.196 0.374357 -0.737419 0
M  V30 3863 H 362.742 0.0267359 -1.69679 0
M  V30 3864 H 361.514 0.393589 -3.89316 0
M  V30 3865 H 361.137 2.03996 -3.41279 0
M  V30 3866 N 362.134 1.5431 0.320358 0
M  V30 3867 C 363.383 1.7188 1.05546 0
M  V30 3868 C 363.696 0.501143 1.89071 0
M  V30 3869 O 364.902 0.558258 2.65699 0
M  V30 3870 C 363.358 3.04025 1.92605 0
M  V30 3871 C 362.966 4.33207 1.14176 0
M  V30 3872 C 364.71 3.30959 2.65832 0
M  V30 3873 C 362.617 5.56412 2.00399 0
M  V30 3874 H 361.547 0.640547 0.397763 0
M  V30 3875 H 364.198 1.80802 0.313522 0
M  V30 3876 H 362.58 2.89019 2.7071 0
M  V30 3877 H 363.754 4.58989 0.40819 0
M  V30 3878 H 362.069 4.13062 0.526165 0
M  V30 3879 H 364.666 4.20203 3.30656 0
M  V30 3880 H 365.009 2.48979 3.33639 0
M  V30 3881 H 365.542 3.46847 1.94787 0
M  V30 3882 H 362.281 6.41004 1.37094 0
M  V30 3883 H 361.801 5.34844 2.7148 0
M  V30 3884 H 363.48 5.92938 2.58908 0
M  V30 3885 N 363.613 -0.582584 1.46437 0
M  V30 3886 C 364.576 -1.67366 1.56592 0
M  V30 3887 C 365.576 -1.54575 0.443072 0
M  V30 3888 O 366.766 -1.59191 0.707381 0
M  V30 3889 C 363.898 -3.06791 1.48634 0
M  V30 3890 H 365.091 -1.5972 2.5383 0
M  V30 3891 H 362.644 -0.800432 1.34249 0
M  V30 3892 H 363.379 -3.19993 0.526763 0
M  V30 3893 H 363.164 -3.17484 2.30101 0
M  V30 3894 H 364.654 -3.86218 1.58826 0
M  V30 3895 N 365.091 -1.34144 -0.827227 0
M  V30 3896 C 366.338 -1.26258 -1.58319 0
M  V30 3897 C 366.666 0.168595 -1.93768 0
M  V30 3898 O 365.921 1.12877 -1.59866 0
M  V30 3899 C 366.22 -2.09464 -2.89585 0
M  V30 3900 C 365.886 -3.58521 -2.73448 0
M  V30 3901 C 364.548 -3.99155 -2.68754 0
M  V30 3902 C 366.9 -4.53189 -2.57428 0
M  V30 3903 C 364.228 -5.32656 -2.45957 0
M  V30 3904 C 366.58 -5.86864 -2.36163 0
M  V30 3905 C 365.244 -6.26667 -2.29879 0
M  V30 3906 H 364.514 -0.462013 -0.579332 0
M  V30 3907 H 367.161 -1.65845 -0.95748 0
M  V30 3908 H 365.466 -1.62692 -3.56425 0
M  V30 3909 H 367.163 -2.00712 -3.47154 0
M  V30 3910 H 363.753 -3.26264 -2.77939 0
M  V30 3911 H 367.937 -4.22696 -2.60081 0
M  V30 3912 H 363.193 -5.62519 -2.39546 0
M  V30 3913 H 367.367 -6.59813 -2.22754 0
M  V30 3914 H 364.994 -7.30049 -2.11975 0
M  V30 3915 N 366.569 1.04691 -1.17803 0
M  V30 3916 C 367.815 1.78045 -0.970969 0
M  V30 3917 C 368.148 1.87686 0.498751 0
M  V30 3918 O 367.423 1.38035 1.37027 0
M  V30 3919 C 367.706 3.2166 -1.61884 0
M  V30 3920 C 367.559 3.20001 -3.161 0
M  V30 3921 C 368.878 4.1962 -1.3269 0
M  V30 3922 H 365.997 0.64633 -0.354155 0
M  V30 3923 H 368.639 1.22333 -1.45378 0
M  V30 3924 H 366.789 3.69232 -1.20831 0
M  V30 3925 H 368.461 2.80467 -3.66246 0
M  V30 3926 H 366.704 2.58203 -3.48588 0
M  V30 3927 H 367.375 4.21386 -3.56564 0
M  V30 3928 H 369.851 3.80567 -1.68249 0
M  V30 3929 H 368.727 5.18339 -1.80599 0
M  V30 3930 H 368.988 4.414 -0.248622 0
M  V30 3931 N 368.047 0.979072 1.23499 0
M  V30 3932 C 368.957 0.526431 2.28617 0
M  V30 3933 C 369.973 -0.418126 1.68901 0
M  V30 3934 O 371.149 -0.288372 1.99325 0
M  V30 3935 C 368.214 -0.165235 3.46306 0
M  V30 3936 C 367.275 0.82056 4.21385 0
M  V30 3937 C 366.508 0.161807 5.33455 0
M  V30 3938 O 366.731 -1.04742 5.60701 0
M  V30 3939 O 365.665 0.859708 5.95729 0
M  V30 3940 H 369.491 1.4006 2.69475 0
M  V30 3941 H 367.076 0.746643 1.29405 0
M  V30 3942 H 368.958 -0.553287 4.17752 0
M  V30 3943 H 367.633 -1.01419 3.07402 0
M  V30 3944 H 366.54 1.25929 3.52268 0
M  V30 3945 H 367.873 1.63828 4.64135 0
M  V30 3946 N 369.525 -1.3858 0.750561 0
M  V30 3947 C 370.772 -2.00184 0.305373 0
M  V30 3948 C 371.1 -1.59575 -1.11203 0
M  V30 3949 O 370.355 -0.823236 -1.77542 0
M  V30 3950 C 370.654 -3.55455 0.372373 0
M  V30 3951 C 370.32 -4.15765 1.745 0
M  V30 3952 C 368.982 -4.31951 2.12065 0
M  V30 3953 C 371.334 -4.49067 2.64553 0
M  V30 3954 C 368.662 -4.78734 3.39162 0
M  V30 3955 C 371.014 -4.97265 3.91038 0
M  V30 3956 C 369.678 -5.11658 4.28676 0
M  V30 3957 H 368.948 -0.732526 0.111744 0
M  V30 3958 H 371.595 -1.65673 0.960451 0
M  V30 3959 H 369.9 -3.90084 -0.366272 0
M  V30 3960 H 371.597 -4.00999 0.00953918 0
M  V30 3961 H 368.187 -4.03579 1.44297 0
M  V30 3962 H 372.371 -4.36166 2.36796 0
M  V30 3963 H 367.627 -4.88062 3.68246 0
M  V30 3964 H 371.801 -5.22003 4.60962 0
M  V30 3965 H 369.428 -5.47668 5.27222 0
M  V30 3966 N 371.003 -0.499398 -1.49478 0
M  V30 3967 C 372.28 0.108629 -1.95298 0
M  V30 3968 C 372.66 1.54282 -1.44084 0
M  V30 3969 O 372.008 2.18944 -0.653908 0
M  V30 3970 C 372.218 0.0229111 -3.48992 0
M  V30 3971 C 373.566 0.197643 -4.2414 0
M  V30 3972 O 374.59 0.0981735 -3.56065 0
M  V30 3973 O 373.449 0.401669 -5.45022 0
M  V30 3974 H 370.543 0.096181 -0.821388 0
M  V30 3975 H 373.089 -0.561822 -1.6013 0
M  V30 3976 H 371.861 -0.977321 -3.78899 0
M  V30 3977 H 371.484 0.733579 -3.90774 0
M  V30 3978 N 372.481 1.55866 -0.233164 0
M  V30 3979 C 373.429 2.22176 0.68851 0
M  V30 3980 C 374.423 1.20487 1.19076 0
M  V30 3981 O 375.629 1.38536 1.14925 0
M  V30 3982 H 372.004 0.712511 0.240483 0
M  V30 3983 H 373.975 2.98212 0.105935 0
M  V30 3984 C 372.724 2.92446 1.88071 0
M  V30 3985 H 372.047 3.70458 1.50337 0
M  V30 3986 H 373.487 3.42226 2.50314 0
M  V30 3987 C 371.946 1.95555 2.74335 0
M  V30 3988 O 372.476 1.47986 3.73447 0
M  V30 3989 N 370.682 1.62953 2.40613 0
M  V30 3990 H 370.229 2.01831 1.60069 0
M  V30 3991 H 370.187 0.983886 2.98609 0
M  V30 3992 N 373.959 -0.0401083 1.57549 0
M  V30 3993 C 374.869 -1.06133 2.0922 0
M  V30 3994 C 375.885 -1.40356 1.0284 0
M  V30 3995 O 377.061 -1.49897 1.34509 0
M  V30 3996 C 374.126 -2.34658 2.55218 0
M  V30 3997 C 373.187 -2.07117 3.76033 0
M  V30 3998 C 372.42 -3.29514 4.19829 0
M  V30 3999 O 372.643 -4.39794 3.63232 0
M  V30 4000 O 371.577 -3.15863 5.12362 0
M  V30 4001 H 375.403 -0.652244 2.96613 0
M  V30 4002 H 372.988 -0.256368 1.47184 0
M  V30 4003 H 374.87 -3.10239 2.85184 0
M  V30 4004 H 373.545 -2.74883 1.70941 0
M  V30 4005 H 372.452 -1.29139 3.51104 0
M  V30 4006 H 373.785 -1.71754 4.61261 0
M  V30 4007 N 375.437 -1.54477 -0.31217 0
M  V30 4008 C 376.683 -1.73483 -1.0503 0
M  V30 4009 C 377.016 -0.513125 -1.87298 0
M  V30 4010 O 376.291 0.489864 -1.8823 0
M  V30 4011 C 376.574 -3.01723 -1.96558 0
M  V30 4012 C 376.427 -4.3417 -1.17545 0
M  V30 4013 C 377.746 -3.25772 -2.95907 0
M  V30 4014 H 374.865 -0.631222 -0.380432 0
M  V30 4015 H 377.507 -1.87184 -0.325932 0
M  V30 4016 H 375.657 -2.90174 -2.58324 0
M  V30 4017 H 377.329 -4.5762 -0.581513 0
M  V30 4018 H 375.572 -4.31159 -0.477925 0
M  V30 4019 H 376.243 -5.20143 -1.84811 0
M  V30 4020 H 378.719 -3.36857 -2.44267 0
M  V30 4021 H 377.595 -4.16838 -3.57123 0
M  V30 4022 H 377.856 -2.43537 -3.68974 0
M  V30 4023 N 376.915 0.57481 -1.46744 0
M  V30 4024 C 377.847 1.69804 -1.53946 0
M  V30 4025 C 378.86 1.57098 -0.427106 0
M  V30 4026 O 380.049 1.64378 -0.695863 0
M  V30 4027 C 377.149 3.08125 -1.4111 0
M  V30 4028 C 376.322 3.46757 -2.66605 0
M  V30 4029 C 375.381 4.6417 -2.47855 0
M  V30 4030 O 374.407 4.69634 -3.21609 0
M  V30 4031 N 375.609 5.59553 -1.54534 0
M  V30 4032 H 378.374 1.64077 -2.50796 0
M  V30 4033 H 375.935 0.761 -1.429 0
M  V30 4034 H 377.927 3.84478 -1.26328 0
M  V30 4035 H 376.497 3.08175 -0.524109 0
M  V30 4036 H 375.717 2.6003 -2.96274 0
M  V30 4037 H 377.005 3.69337 -3.49954 0
M  V30 4038 H 376.403 5.57881 -0.937304 0
M  V30 4039 H 374.96 6.35304 -1.45711 0
M  V30 4040 N 378.394 1.34581 0.820102 0
M  V30 4041 C 379.357 1.2628 1.91275 0
M  V30 4042 C 380.357 0.177344 1.59819 0
M  V30 4043 O 381.547 0.430156 1.68806 0
M  V30 4044 C 378.679 0.950327 3.27386 0
M  V30 4045 H 379.872 2.23421 2.00057 0
M  V30 4046 H 377.425 1.1891 1.0144 0
M  V30 4047 H 378.16 -0.0177938 3.24295 0
M  V30 4048 H 377.945 1.73549 3.51601 0
M  V30 4049 H 379.435 0.917492 4.07396 0
M  V30 4050 N 379.872 -1.04064 1.18357 0
M  V30 4051 C 381.12 -1.76915 0.977013 0
M  V30 4052 C 381.441 -1.88624 -0.494577 0
M  V30 4053 O 380.711 -1.41125 -1.3587 0
M  V30 4054 H 379.291 -0.65535 0.358504 0
M  V30 4055 H 381.953 -1.25592 1.49039 0
M  V30 4056 H 381.049 -2.78178 1.41504 0
M  V30 4057 N 381.35 -0.985608 -1.22978 0
M  V30 4058 C 382.313 -0.535071 -2.22867 0
M  V30 4059 C 383.313 0.378123 -1.56291 0
M  V30 4060 O 384.503 0.171092 -1.73358 0
M  V30 4061 C 381.635 0.222702 -3.40172 0
M  V30 4062 H 382.828 -1.41835 -2.6424 0
M  V30 4063 H 380.381 -0.772042 -1.35901 0
M  V30 4064 H 381.116 1.12229 -3.04262 0
M  V30 4065 H 380.901 -0.43288 -3.89703 0
M  V30 4066 H 382.391 0.526335 -4.1427 0
M  V30 4067 N 382.828 1.3818 -0.7579 0
M  V30 4068 C 383.791 2.28764 -0.141286 0
M  V30 4069 C 384.791 1.47388 0.642907 0
M  V30 4070 O 385.981 1.67781 0.468536 0
M  V30 4071 C 383.113 3.31184 0.808069 0
M  V30 4072 H 384.306 2.848 -0.939633 0
M  V30 4073 H 381.859 1.47212 -0.525191 0
M  V30 4074 H 382.594 2.80247 1.63193 0
M  V30 4075 H 382.379 3.91314 0.248104 0
M  V30 4076 H 383.869 3.98909 1.23536 0
M  V30 4077 N 384.306 0.507319 1.49211 0
M  V30 4078 C 385.722 0.163682 1.58758 0
M  V30 4079 C 385.922 -1.33208 1.51188 0
M  V30 4080 O 384.978 -2.10855 1.38911 0
M  V30 4081 C 386.291 0.746095 2.91297 0
M  V30 4082 C 387.839 0.712773 3.04776 0
M  V30 4083 C 388.314 1.27336 4.39943 0
M  V30 4084 N 389.805 1.23433 4.46451 0
M  V30 4085 C 390.54 1.63821 5.495 0
M  V30 4086 N 390.036 2.11832 6.5962 0
M  V30 4087 N 391.829 1.55198 5.4025 0
M  V30 4088 H 383.98 1.47972 1.52375 0
M  V30 4089 H 386.243 0.614147 0.722168 0
M  V30 4090 H 385.949 1.79534 3.02424 0
M  V30 4091 H 385.823 0.210137 3.76614 0
M  V30 4092 H 388.21 -0.327656 2.93275 0
M  V30 4093 H 388.291 1.28595 2.21127 0
M  V30 4094 H 387.935 2.3126 4.52196 0
M  V30 4095 H 387.865 0.676066 5.22242 0
M  V30 4096 H 390.356 0.882627 3.67448 0
M  V30 4097 H 390.669 2.40703 7.34358 0
M  V30 4098 H 389.014 2.1581 6.60644 0
M  V30 4099 H 392.205 1.17505 4.53112 0
M  V30 4100 H 392.378 1.86997 6.20432 0
M  V30 4101 N 385.784 -1.5574 0.241426 0
M  V30 4102 C 387.061 -1.90704 -0.434881 0
M  V30 4103 C 387.441 -1.16145 -1.76277 0
M  V30 4104 O 386.789 -0.277152 -2.26813 0
M  V30 4105 C 386.999 -3.43657 -0.608343 0
M  V30 4106 C 388.347 -4.14806 -0.906725 0
M  V30 4107 O 389.371 -3.49366 -0.694408 0
M  V30 4108 O 388.23 -5.30548 -1.31075 0
M  V30 4109 H 385.324 -0.793592 -0.23268 0
M  V30 4110 H 387.87 -1.67288 0.285086 0
M  V30 4111 H 386.642 -3.89927 0.327505 0
M  V30 4112 H 386.265 -3.72918 -1.37906 0
M  V30 4113 N 387.262 0.0317525 -1.57568 0
M  V30 4114 C 388.225 1.01783 -2.0536 0
M  V30 4115 C 389.225 1.29203 -0.957253 0
M  V30 4116 O 390.415 1.24251 -1.22095 0
M  V30 4117 C 387.547 2.35137 -2.46827 0
M  V30 4118 H 388.74 0.605062 -2.93733 0
M  V30 4119 H 386.293 0.278514 -1.53799 0
M  V30 4120 H 387.028 2.81168 -1.61602 0
M  V30 4121 H 386.813 2.16566 -3.26866 0
M  V30 4122 H 388.303 3.05938 -2.84239 0
M  V30 4123 N 388.74 1.54641 0.303973 0
M  V30 4124 C 389.67 1.88386 1.3796 0
M  V30 4125 C 390.651 0.742485 1.5304 0
M  V30 4126 O 391.836 0.997959 1.66597 0
M  V30 4127 C 388.966 2.12854 2.74427 0
M  V30 4128 C 387.92 3.28702 2.74115 0
M  V30 4129 C 387.246 3.38582 4.13844 0
M  V30 4130 C 388.546 4.65881 2.3612 0
M  V30 4131 H 390.24 2.78474 1.09966 0
M  V30 4132 H 387.786 1.33988 0.527556 0
M  V30 4133 H 389.739 2.35047 3.49758 0
M  V30 4134 H 388.463 1.19535 3.03939 0
M  V30 4135 H 387.122 3.06428 2.0124 0
M  V30 4136 H 386.77 2.42784 4.40528 0
M  V30 4137 H 386.47 4.16453 4.14537 0
M  V30 4138 H 387.994 3.63031 4.90959 0
M  V30 4139 H 389.408 4.87823 3.01167 0
M  V30 4140 H 387.805 5.46444 2.48031 0
M  V30 4141 H 388.875 4.66799 1.3125 0
M  V30 4142 N 390.218 -0.567019 1.47046 0
M  V30 4143 C 391.15 -1.68985 1.54844 0
M  V30 4144 C 392.163 -1.56869 0.435431 0
M  V30 4145 O 393.352 -1.64006 0.70457 0
M  V30 4146 C 390.452 -3.07373 1.42742 0
M  V30 4147 C 389.625 -3.45339 2.6844 0
M  V30 4148 C 388.684 -4.62849 2.50314 0
M  V30 4149 O 387.71 -4.67922 3.24095 0
M  V30 4150 N 388.912 -5.58726 1.57499 0
M  V30 4151 H 391.677 -1.62745 2.51663 0
M  V30 4152 H 389.238 -0.753411 1.43302 0
M  V30 4153 H 391.23 -3.83803 1.28365 0
M  V30 4154 H 389.8 -3.07893 0.540445 0
M  V30 4155 H 389.02 -2.58455 2.97648 0
M  V30 4156 H 390.308 -3.67476 3.51907 0
M  V30 4157 H 389.706 -5.57376 0.966876 0
M  V30 4158 H 388.263 -6.34523 1.49078 0
M  V30 4159 N 391.696 -1.35014 -0.812953 0
M  V30 4160 C 392.944 -1.27678 -1.56661 0
M  V30 4161 C 393.265 0.150359 -1.94419 0
M  V30 4162 O 392.535 1.08532 -1.63088 0
M  V30 4163 H 391.115 -0.469602 -0.580933 0
M  V30 4164 H 393.777 -1.69043 -0.970076 0
M  V30 4165 H 392.873 -1.88833 -2.48492 0
M  V30 4166 N 393.175 1.03435 -1.18907 0
M  V30 4167 C 394.422 1.76743 -0.988334 0
M  V30 4168 C 394.75 1.88447 0.481441 0
M  V30 4169 O 394.005 1.39383 1.37371 0
M  V30 4170 C 394.304 3.19792 -1.59586 0
M  V30 4171 C 393.97 3.28108 -3.09283 0
M  V30 4172 C 392.632 3.30084 -3.5014 0
M  V30 4173 C 394.984 3.27696 -4.05296 0
M  V30 4174 C 392.312 3.29299 -4.85571 0
M  V30 4175 C 394.664 3.28451 -5.4065 0
M  V30 4176 C 393.328 3.28723 -5.80946 0
M  V30 4177 H 392.598 0.64675 -0.361657 0
M  V30 4178 H 395.245 1.21442 -1.48068 0
M  V30 4179 H 393.55 3.78136 -1.02568 0
M  V30 4180 H 395.247 3.75171 -1.41589 0
M  V30 4181 H 391.837 3.27294 -2.76725 0
M  V30 4182 H 396.021 3.25354 -3.74778 0
M  V30 4183 H 391.277 3.2783 -5.16079 0
M  V30 4184 H 395.451 3.27082 -6.14809 0
M  V30 4185 H 393.078 3.27868 -6.85862 0
M  V30 4186 N 394.653 0.992116 1.22453 0
M  V30 4187 C 395.6 0.541731 2.24352 0
M  V30 4188 C 396.57 -0.425519 1.60557 0
M  V30 4189 O 397.755 -0.330453 1.87917 0
M  V30 4190 C 394.895 -0.138248 3.44823 0
M  V30 4191 C 394.008 0.870649 4.23136 0
M  V30 4192 C 393.143 0.164269 5.30946 0
M  V30 4193 C 392.182 1.16159 6.00977 0
M  V30 4194 N 391.319 0.483568 7.00433 0
M  V30 4195 H 396.159 1.41541 2.62241 0
M  V30 4196 H 393.696 0.709013 1.28885 0
M  V30 4197 H 395.654 -0.5494 4.13567 0
M  V30 4198 H 394.284 -0.975721 3.077 0
M  V30 4199 H 393.336 1.40013 3.53696 0
M  V30 4200 H 394.648 1.63014 4.7141 0
M  V30 4201 H 393.802 -0.303653 6.0594 0
M  V30 4202 H 392.541 -0.627733 4.83643 0
M  V30 4203 H 391.546 1.64015 5.24766 0
M  V30 4204 H 392.771 1.95445 6.50368 0
M  V30 4205 H 390.717 -0.289012 6.55363 0
M  V30 4206 H 390.634 1.18152 7.4671 0
M  V30 4207 H 391.902 0.0384219 7.79491 0
M  V30 4208 N 396.131 -1.37776 0.765217 0
M  V30 4209 C 397.38 -1.99092 0.323307 0
M  V30 4210 C 397.693 -1.61434 -1.10446 0
M  V30 4211 O 398.899 -2.15805 -1.64743 0
M  V30 4212 C 397.355 -3.56019 0.527098 0
M  V30 4213 C 396.963 -4.0262 1.96471 0
M  V30 4214 C 398.707 -4.2424 0.148483 0
M  V30 4215 C 396.614 -5.52233 2.11644 0
M  V30 4216 H 395.544 -0.744846 0.117137 0
M  V30 4217 H 398.195 -1.57391 0.943417 0
M  V30 4218 H 396.577 -3.95667 -0.162372 0
M  V30 4219 H 397.751 -3.74234 2.68859 0
M  V30 4220 H 396.066 -3.47161 2.29931 0
M  V30 4221 H 398.663 -5.34159 0.240456 0
M  V30 4222 H 399.006 -4.06446 -0.900422 0
M  V30 4223 H 399.539 -3.89872 0.79025 0
M  V30 4224 H 396.278 -5.74945 3.1483 0
M  V30 4225 H 395.798 -5.82324 1.4373 0
M  V30 4226 H 397.477 -6.18106 1.91193 0
M  V30 4227 N 397.609 -0.515225 -1.4894 0
M  V30 4228 C 398.837 0.0206034 -2.0689 0
M  V30 4229 C 399.252 1.29514 -1.37374 0
M  V30 4230 O 398.609 1.76698 -0.456529 0
M  V30 4231 C 398.66 0.26351 -3.60538 0
M  V30 4232 O 398.381 -0.960517 -4.27441 0
M  V30 4233 C 399.882 0.841383 -4.35242 0
M  V30 4234 H 397.102 -0.0268608 -0.670462 0
M  V30 4235 H 399.646 -0.716651 -1.91532 0
M  V30 4236 H 397.801 0.950777 -3.75552 0
M  V30 4237 H 398.215 -0.73212 -5.19365 0
M  V30 4238 H 399.689 0.96085 -5.43573 0
M  V30 4239 H 400.166 1.8427 -3.98674 0
M  V30 4240 H 400.772 0.191143 -4.2487 0
M  V30 4241 N 399.087 1.5561 -0.249682 0
M  V30 4242 C 400.019 2.18834 0.681496 0
M  V30 4243 C 401.032 1.16546 1.1367 0
M  V30 4244 O 402.221 1.43397 1.06299 0
M  V30 4245 C 399.321 2.77992 1.9384 0
M  V30 4246 C 398.494 4.05725 1.63419 0
M  V30 4247 C 397.553 4.49174 2.74096 0
M  V30 4248 O 396.579 5.15492 2.41364 0
M  V30 4249 N 397.781 4.17191 4.03649 0
M  V30 4250 H 400.546 2.9937 0.140514 0
M  V30 4251 H 398.107 1.6175 -0.0697541 0
M  V30 4252 H 400.099 3.04015 2.67127 0
M  V30 4253 H 398.669 2.01596 2.38909 0
M  V30 4254 H 397.889 3.87261 0.736358 0
M  V30 4255 H 399.177 4.88999 1.40562 0
M  V30 4256 H 398.575 3.63955 4.33074 0
M  V30 4257 H 397.132 4.48043 4.73393 0
M  V30 4258 N 400.565 -0.0233959 1.57583 0
M  V30 4259 C 401.513 -1.04063 2.08023 0
M  V30 4260 C 402.507 -1.37084 0.995204 0
M  V30 4261 O 403.713 -1.35923 1.18004 0
M  V30 4262 H 400.088 -0.353144 0.663922 0
M  V30 4263 H 402.059 -0.589453 2.9252 0
M  V30 4264 C 400.808 -2.33123 2.57971 0
M  V30 4265 H 400.131 -2.08577 3.4108 0
M  V30 4266 H 401.571 -3.02632 2.96967 0
M  V30 4267 C 400.03 -3.02483 1.48342 0
M  V30 4268 O 400.56 -3.92541 0.852898 0
M  V30 4269 N 398.766 -2.63909 1.21658 0
M  V30 4270 H 398.313 -1.90758 1.73116 0
M  V30 4271 H 398.271 -3.10633 0.485218 0
M  V30 4272 N 402.043 -1.548 -0.295768 0
M  V30 4273 C 402.991 -1.86874 -1.38495 0
M  V30 4274 C 403.985 -0.742938 -1.52239 0
M  V30 4275 O 405.191 -0.926999 -1.54294 0
M  V30 4276 H 401.566 -0.592786 -0.462719 0
M  V30 4277 H 403.537 -2.77904 -1.08682 0
M  V30 4278 C 402.286 -2.13732 -2.74252 0
M  V30 4279 H 401.609 -2.99835 -2.64459 0
M  V30 4280 H 403.049 -2.4011 -3.49461 0
M  V30 4281 C 401.508 -0.937539 -3.23592 0
M  V30 4282 O 402.038 -0.160665 -4.01379 0
M  V30 4283 N 400.244 -0.741478 -2.80981 0
M  V30 4284 H 399.791 -1.37489 -2.1784 0
M  V30 4285 H 399.749 0.0597103 -3.14343 0
M  V30 4286 N 403.521 0.559213 -1.47345 0
M  V30 4287 C 404.484 1.64854 -1.59235 0
M  V30 4288 C 405.484 1.53851 -0.467607 0
M  V30 4289 O 406.674 1.58045 -0.732617 0
M  V30 4290 C 403.806 3.04388 -1.53496 0
M  V30 4291 H 404.999 1.55662 -2.56339 0
M  V30 4292 H 402.552 0.778973 -1.35505 0
M  V30 4293 H 403.287 3.19115 -0.577604 0
M  V30 4294 H 403.072 3.13783 -2.35123 0
M  V30 4295 H 404.562 3.83642 -1.6495 0
M  V30 4296 N 404.999 1.35443 0.805782 0
M  V30 4297 C 405.932 1.22783 1.92353 0
M  V30 4298 C 406.91 0.115543 1.62189 0
M  V30 4299 O 408.094 0.283778 1.86352 0
M  V30 4300 C 405.221 0.890746 3.26777 0
M  V30 4301 C 404.267 2.01519 3.75889 0
M  V30 4302 S 405.1 3.63101 3.93596 0
M  V30 4303 C 406.256 3.31472 5.30921 0
M  V30 4304 H 406.489 2.17394 2.02798 0
M  V30 4305 H 404.022 1.20669 0.963245 0
M  V30 4306 H 405.98 0.703068 4.04434 0
M  V30 4307 H 404.641 -0.0373152 3.14078 0
M  V30 4308 H 403.834 1.7335 4.7325 0
M  V30 4309 H 403.436 2.16124 3.05231 0
M  V30 4310 H 405.728 2.8435 6.1494 0
M  V30 4311 H 406.671 4.28036 5.64084 0
M  V30 4312 H 407.079 2.67221 4.97246 0
M  V30 4313 N 406.477 -1.02803 1.19454 0
M  V30 4314 C 407.424 -2.11099 0.933046 0
M  V30 4315 C 408.394 -1.65571 -0.132447 0
M  V30 4316 O 409.579 -1.90797 0.00987576 0
M  V30 4317 C 406.719 -3.41763 0.478747 0
M  V30 4318 C 405.832 -4.00833 1.6111 0
M  V30 4319 C 404.967 -5.19511 1.10825 0
M  V30 4320 C 404.006 -5.70639 2.21445 0
M  V30 4321 N 403.143 -6.80589 1.72461 0
M  V30 4322 H 407.983 -2.32804 1.86028 0
M  V30 4323 H 405.52 -1.14179 0.927441 0
M  V30 4324 H 407.478 -4.16736 0.196745 0
M  V30 4325 H 406.108 -3.20166 -0.411493 0
M  V30 4326 H 405.16 -3.23066 2.00829 0
M  V30 4327 H 406.472 -4.34794 2.4445 0
M  V30 4328 H 405.626 -6.01645 0.781533 0
M  V30 4329 H 404.365 -4.87086 0.244606 0
M  V30 4330 H 403.37 -4.87116 2.54947 0
M  V30 4331 H 404.595 -6.05102 3.08267 0
M  V30 4332 H 402.541 -6.50016 0.884056 0
M  V30 4333 H 402.458 -7.13681 2.49389 0
M  V30 4334 H 403.726 -7.66317 1.42755 0
M  V30 4335 N 407.956 -0.998596 -1.21925 0
M  V30 4336 C 409.205 -0.673085 -1.90138 0
M  V30 4337 C 409.518 0.79895 -1.78539 0
M  V30 4338 O 410.724 1.23628 -2.4172 0
M  V30 4339 C 409.18 -1.15339 -3.40918 0
M  V30 4340 C 408.788 -2.65106 -3.61141 0
M  V30 4341 C 410.532 -0.902476 -4.14796 0
M  V30 4342 C 408.439 -3.0671 -5.05651 0
M  V30 4343 H 407.369 -0.248057 -0.712028 0
M  V30 4344 H 410.02 -1.20891 -1.38049 0
M  V30 4345 H 408.402 -0.545658 -3.92223 0
M  V30 4346 H 409.576 -3.31274 -3.20304 0
M  V30 4347 H 407.891 -2.88142 -3.00605 0
M  V30 4348 H 410.488 -1.18895 -5.21314 0
M  V30 4349 H 410.831 0.161349 -4.15987 0
M  V30 4350 H 411.364 -1.47269 -3.69536 0
M  V30 4351 H 408.103 -4.12292 -5.09603 0
M  V30 4352 H 407.623 -2.45249 -5.47369 0
M  V30 4353 H 409.302 -2.9833 -5.74115 0
M  V30 4354 N 409.434 1.37368 -0.772513 0
M  V30 4355 C 410.659 2.0447 -0.347386 0
M  V30 4356 C 411.084 1.57882 1.0225 0
M  V30 4357 O 410.442 0.73941 1.65537 0
M  V30 4358 C 410.49 3.58369 -0.400479 0
M  V30 4359 O 409.594 4.0803 0.598789 0
M  V30 4360 H 408.935 0.646773 -0.15027 0
M  V30 4361 H 411.465 1.75667 -1.04892 0
M  V30 4362 H 411.475 4.07183 -0.258045 0
M  V30 4363 H 410.15 3.91633 -1.39986 0
M  V30 4364 H 408.727 3.70534 0.419411 0
M  V30 4365 N 410.912 0.523116 1.48665 0
M  V30 4366 C 412.159 -0.0134763 2.02496 0
M  V30 4367 C 412.487 -1.3493 1.40086 0
M  V30 4368 O 411.742 -1.88286 0.533567 0
M  V30 4369 C 412.041 -0.191671 3.56886 0
M  V30 4370 C 411.707 1.06893 4.38046 0
M  V30 4371 C 410.369 1.41443 4.59943 0
M  V30 4372 C 412.721 1.90584 4.85106 0
M  V30 4373 C 410.049 2.59594 5.26144 0
M  V30 4374 C 412.401 3.07907 5.52609 0
M  V30 4375 C 411.065 3.42811 5.72745 0
M  V30 4376 H 410.335 -0.00493133 0.740984 0
M  V30 4377 H 412.982 0.687751 1.78724 0
M  V30 4378 H 411.287 -0.97561 3.79459 0
M  V30 4379 H 412.984 -0.621659 3.96152 0
M  V30 4380 H 409.574 0.789848 4.21259 0
M  V30 4381 H 413.758 1.65203 4.67997 0
M  V30 4382 H 409.014 2.86847 5.39934 0
M  V30 4383 H 413.188 3.73066 5.88043 0
M  V30 4384 H 410.815 4.34462 6.23816 0
M  V30 4385 N 412.39 -1.55475 0.257931 0
M  V30 4386 C 413.353 -2.20551 -0.623706 0
M  V30 4387 C 414.353 -1.17809 -1.09443 0
M  V30 4388 O 415.543 -1.42823 -0.997362 0
M  V30 4389 C 412.675 -2.85784 -1.8585 0
M  V30 4390 H 413.868 -2.99848 -0.0557743 0
M  V30 4391 H 411.421 -1.56298 0.0084422 0
M  V30 4392 H 412.156 -2.10453 -2.46739 0
M  V30 4393 H 411.941 -3.61057 -1.52907 0
M  V30 4394 H 413.431 -3.35553 -2.48584 0
M  V30 4395 N 413.868 0.0150385 -1.57593 0
M  V30 4396 C 414.815 1.01126 -2.07466 0
M  V30 4397 C 415.785 1.35064 -0.966794 0
M  V30 4398 O 416.97 1.4516 -1.23827 0
M  V30 4399 C 414.11 2.30276 -2.57035 0
M  V30 4400 C 413.223 2.02373 -3.81666 0
M  V30 4401 C 412.358 3.25496 -4.19793 0
M  V30 4402 C 411.397 2.93211 -5.37303 0
M  V30 4403 N 410.534 4.08826 -5.70794 0
M  V30 4404 H 415.374 0.57901 -2.92321 0
M  V30 4405 H 412.911 0.27426 -1.44521 0
M  V30 4406 H 414.869 3.05757 -2.83846 0
M  V30 4407 H 413.499 2.71197 -1.75077 0
M  V30 4408 H 412.551 1.17327 -3.61854 0
M  V30 4409 H 413.863 1.74567 -4.67256 0
M  V30 4410 H 413.017 4.09333 -4.47807 0
M  V30 4411 H 411.756 3.56428 -3.32882 0
M  V30 4412 H 410.761 2.07777 -5.09027 0
M  V30 4413 H 411.986 2.63542 -6.25877 0
M  V30 4414 H 409.932 4.39682 -4.86842 0
M  V30 4415 H 409.849 3.84491 -6.50924 0
M  V30 4416 H 411.117 4.93496 -6.03392 0
M  V30 4417 N 415.346 1.54954 0.287554 0
M  V30 4418 C 416.293 1.86834 1.35505 0
M  V30 4419 C 417.263 0.718452 1.49758 0
M  V30 4420 O 418.448 0.968358 1.644 0
M  V30 4421 C 415.588 2.13303 2.71286 0
M  V30 4422 C 414.701 3.40883 2.65373 0
M  V30 4423 C 413.836 3.57125 3.93236 0
M  V30 4424 C 412.875 4.78449 3.81776 0
M  V30 4425 N 412.012 4.91426 5.01443 0
M  V30 4426 H 416.852 2.77889 1.07619 0
M  V30 4427 H 414.389 1.37593 0.520241 0
M  V30 4428 H 416.347 2.26646 3.50267 0
M  V30 4429 H 414.977 1.25499 2.97405 0
M  V30 4430 H 414.029 3.36088 1.78182 0
M  V30 4431 H 415.341 4.29993 2.52799 0
M  V30 4432 H 414.495 3.70207 4.80658 0
M  V30 4433 H 413.234 2.66173 4.0866 0
M  V30 4434 H 412.239 4.65386 2.92738 0
M  V30 4435 H 413.464 5.70822 3.67884 0
M  V30 4436 H 411.41 4.03401 5.17304 0
M  V30 4437 H 411.327 5.74559 4.91343 0
M  V30 4438 H 412.595 5.08879 5.90477 0
M  V30 4439 O 416.863 -0.433401 1.55576 0
M  V30 4440 H 417.554 -1.08681 1.60337 0
M  V30 END ATOM
M  V30 BEGIN BOND
M  V30 END BOND
M  V30 END CTAB
M  END
$$$$
