drugbank_target|Q820S6 Chain A, Red Copper Protein Nitrosocyanin (DB02210)
 OpenBabel12092120243D

  0  0  0     0  0            999 V3000
M  V30 BEGIN CTAB
M  V30 COUNTS 2071 2088 0 0 0
M  V30 BEGIN ATOM
M  V30 1 H -0.908 1.98254 -0.117106 0
M  V30 2 N 0 1.576 0 0
M  V30 3 C 0.933 2.03868 1.02534 0
M  V30 4 C 1.911 0.928543 1.3348 0
M  V30 5 O 3.095 1.19667 1.45644 0
M  V30 6 C 0.222 2.43627 2.35294 0
M  V30 7 C -0.732 3.65373 2.2001 0
M  V30 8 S 0.101 5.13292 1.52614 0
M  V30 9 C 1.257 5.56322 2.86805 0
M  V30 10 H 1.49 2.90518 0.631377 0
M  V30 11 H -0.977 1.52953 0.210867 0
M  V30 12 H 0.981 2.67203 3.11629 0
M  V30 13 H -0.358 1.57376 2.7183 0
M  V30 14 H -1.165 3.90944 3.18086 0
M  V30 15 H -1.563 3.418 1.51819 0
M  V30 16 H 0.729 5.58782 3.83104 0
M  V30 17 H 1.672 6.56266 2.65933 0
M  V30 18 H 2.08 4.83886 2.90714 0
M  V30 19 N 1.4781 -0.272755 1.55222 0
M  V30 20 C 2.4251 -1.33716 1.88119 0
M  V30 21 C 3.3951 -1.49066 0.73271 0
M  V30 22 O 4.5801 -1.63469 0.984002 0
M  V30 23 C 1.7201 -2.69238 2.15882 0
M  V30 24 C 0.8331 -2.62108 3.43399 0
M  V30 25 C -0.0319 -3.89811 3.60861 0
M  V30 26 C -0.9929 -3.77193 4.8207 0
M  V30 27 N -1.8559 -4.9673 4.96189 0
M  V30 28 H 2.9841 -1.04962 2.78903 0
M  V30 29 H 0.5211 -0.507088 1.38083 0
M  V30 30 H 2.4791 -3.48089 2.29978 0
M  V30 31 H 1.1091 -2.96194 1.28331 0
M  V30 32 H 0.1611 -1.74967 3.37773 0
M  V30 33 H 1.4731 -2.48685 4.32386 0
M  V30 34 H 0.6271 -4.77103 3.74777 0
M  V30 35 H -0.6339 -4.06102 2.7006 0
M  V30 36 H -1.6289 -2.88284 4.68159 0
M  V30 37 H -0.4039 -3.62421 5.74307 0
M  V30 38 H -2.4579 -5.13431 4.08319 0
M  V30 39 H -2.5409 -4.85839 5.79221 0
M  V30 40 H -1.2729 -5.85594 5.1449 0
M  V30 41 N 2.9562 -1.48159 -0.537278 0
M  V30 42 C 4.1842 -1.59454 -1.31841 0
M  V30 43 C 4.5992 -0.252065 -1.8711 0
M  V30 44 O 3.9562 0.757621 -1.66031 0
M  V30 45 C 4.0072 -2.63546 -2.47439 0
M  V30 46 O 3.7282 -3.92583 -1.94449 0
M  V30 47 C 5.2292 -2.85212 -3.39366 0
M  V30 48 H 2.4492 -0.53785 -0.401196 0
M  V30 49 H 4.9932 -1.93932 -0.648891 0
M  V30 50 H 3.1482 -2.31946 -3.1029 0
M  V30 51 H 3.5622 -4.49629 -2.70063 0
M  V30 52 H 5.0362 -3.61863 -4.16844 0
M  V30 53 H 5.5132 -1.93765 -3.94147 0
M  V30 54 H 6.1192 -3.18086 -2.82314 0
M  V30 55 N 4.4343 0.785586 -1.36625 0
M  V30 56 C 5.6623 1.57448 -1.3423 0
M  V30 57 C 6.0773 1.88649 0.0755653 0
M  V30 58 O 5.4343 1.50414 1.03354 0
M  V30 59 C 5.4853 2.89316 -2.16745 0
M  V30 60 O 5.2063 2.59459 -3.53005 0
M  V30 61 C 6.7073 3.83606 -2.22174 0
M  V30 62 H 3.9273 0.488226 -0.4603 0
M  V30 63 H 6.4713 0.974733 -1.79775 0
M  V30 64 H 4.6263 3.4575 -1.74745 0
M  V30 65 H 5.0403 3.43804 -3.96105 0
M  V30 66 H 6.5143 4.73181 -2.8426 0
M  V30 67 H 6.9913 4.21734 -1.22627 0
M  V30 68 H 7.5973 3.33104 -2.64427 0
M  V30 69 N 5.9124 1.20967 1.01018 0
M  V30 70 C 6.8594 0.964281 2.09691 0
M  V30 71 C 7.8294 -0.107853 1.65749 0
M  V30 72 O 9.0144 0.0381987 1.90762 0
M  V30 73 C 6.1544 0.52943 3.41015 0
M  V30 74 C 5.2674 1.67043 3.98398 0
M  V30 75 C 4.4024 1.18525 5.17808 0
M  V30 76 C 3.4414 2.29892 5.67288 0
M  V30 77 N 2.5784 1.82546 6.77954 0
M  V30 78 H 7.4184 1.89463 2.30017 0
M  V30 79 H 4.9554 0.944289 1.1279 0
M  V30 80 H 6.9134 0.258588 4.16398 0
M  V30 81 H 5.5434 -0.363919 3.20742 0
M  V30 82 H 4.5954 2.05603 3.20049 0
M  V30 83 H 5.9074 2.50877 4.31117 0
M  V30 84 H 5.0614 0.870762 6.00419 0
M  V30 85 H 3.8004 0.316887 4.86669 0
M  V30 86 H 2.8054 2.6215 4.83278 0
M  V30 87 H 4.0304 3.17216 6.00459 0
M  V30 88 H 1.9764 0.980454 6.48632 0
M  V30 89 H 1.8934 2.59956 7.09901 0
M  V30 90 H 3.1614 1.54115 7.64113 0
M  V30 91 N 7.3905 -1.2043 1.01659 0
M  V30 92 C 8.3535 -2.21433 0.591616 0
M  V30 93 C 9.3535 -1.57203 -0.338226 0
M  V30 94 O 10.5435 -1.73737 -0.126918 0
M  V30 95 C 7.6755 -3.40628 -0.136058 0
M  V30 96 H 8.8685 -2.60545 1.48514 0
M  V30 97 H 6.4215 -1.33893 0.806379 0
M  V30 98 H 7.1565 -3.07019 -1.04449 0
M  V30 99 H 6.9415 -3.88475 0.531917 0
M  V30 100 H 8.4315 -4.15475 -0.420735 0
M  V30 101 N 8.8686 -0.792821 -1.36206 0
M  V30 102 C 9.8016 -0.139422 -2.27774 0
M  V30 103 C 10.7796 0.68649 -1.47398 0
M  V30 104 O 11.9636 0.656738 -1.7669 0
M  V30 105 C 9.0906 0.807947 -3.28922 0
M  V30 106 C 8.1366 0.0633999 -4.26453 0
M  V30 107 S 8.9696 -1.26319 -5.20388 0
M  V30 108 C 10.1256 -0.31991 -6.25082 0
M  V30 109 H 10.3586 -0.915809 -2.82843 0
M  V30 110 H 7.8916 -0.587203 -1.42798 0
M  V30 111 H 9.8496 1.34908 -3.87699 0
M  V30 112 H 8.5106 1.55761 -2.72759 0
M  V30 113 H 7.7036 0.782386 -4.9789 0
M  V30 114 H 7.3056 -0.407352 -3.71775 0
M  V30 115 H 9.5976 0.499985 -6.75653 0
M  V30 116 H 10.5406 -1.00307 -7.00959 0
M  V30 117 H 10.9486 0.0782694 -5.64446 0
M  V30 118 N 10.3467 1.47872 -0.545128 0
M  V30 119 C 11.2767 2.32661 0.197793 0
M  V30 120 C 12.2577 1.43041 0.920504 0
M  V30 121 O 13.4427 1.71912 0.90333 0
M  V30 122 C 10.5727 3.24569 1.23582 0
M  V30 123 C 9.5267 4.23333 0.630323 0
M  V30 124 C 8.8527 5.0448 1.77211 0
M  V30 125 C 10.1527 5.20704 -0.407974 0
M  V30 126 H 11.8467 2.95024 -0.510045 0
M  V30 127 H 9.3927 1.4187 -0.246731 0
M  V30 128 H 11.3457 3.8272 1.76362 0
M  V30 129 H 10.0697 2.60236 1.97344 0
M  V30 130 H 8.7287 3.6639 0.123922 0
M  V30 131 H 8.3767 4.36561 2.49847 0
M  V30 132 H 8.0767 5.71339 1.37281 0
M  V30 133 H 9.6007 5.65487 2.3034 0
M  V30 134 H 11.0147 5.7329 0.033305 0
M  V30 135 H 9.4117 5.95699 -0.725486 0
M  V30 136 H 10.4817 4.66917 -1.30828 0
M  V30 137 N 11.8248 0.280983 1.55075 0
M  V30 138 C 12.7878 -0.590896 2.21452 0
M  V30 139 C 13.7878 -1.07682 1.19421 0
M  V30 140 O 14.9778 -0.97605 1.44288 0
M  V30 141 C 12.1098 -1.81587 2.88511 0
M  V30 142 H 13.3028 -0.0112554 2.99898 0
M  V30 143 H 10.8558 0.0316438 1.56268 0
M  V30 144 H 11.5908 -2.43587 2.14093 0
M  V30 145 H 11.3758 -1.4753 3.63287 0
M  V30 146 H 12.8658 -2.43575 3.39206 0
M  V30 147 N 13.3029 -1.57598 0.00835791 0
M  V30 148 C 14.5509 -1.90551 -0.6734 0
M  V30 149 C 14.8719 -0.883301 -1.73847 0
M  V30 150 O 14.1419 0.0781442 -1.95744 0
M  V30 151 H 12.7219 -0.703312 -0.251717 0
M  V30 152 H 15.3839 -1.94833 0.0512592 0
M  V30 153 H 14.4799 -2.9056 -1.13935 0
M  V30 154 N 14.781 0.264519 -1.55364 0
M  V30 155 C 16.028 0.994986 -1.7637 0
M  V30 156 C 16.356 1.85976 -0.5695 0
M  V30 157 O 15.611 1.90509 0.44776 0
M  V30 158 C 15.91 1.9004 -3.02687 0
M  V30 159 C 15.576 1.19243 -4.34847 0
M  V30 160 C 14.238 0.996709 -4.70764 0
M  V30 161 C 16.59 0.689296 -5.16622 0
M  V30 162 C 13.918 0.285261 -5.86006 0
M  V30 163 C 16.27 -0.00860079 -6.32599 0
M  V30 164 C 14.934 -0.215963 -6.67151 0
M  V30 165 H 14.204 0.364091 -0.645383 0
M  V30 166 H 16.851 0.266543 -1.89636 0
M  V30 167 H 15.156 2.69533 -2.84357 0
M  V30 168 H 16.853 2.46695 -3.16137 0
M  V30 169 H 13.443 1.3549 -4.06621 0
M  V30 170 H 17.627 0.828108 -4.89342 0
M  V30 171 H 12.883 0.113961 -6.11294 0
M  V30 172 H 17.057 -0.406186 -6.95214 0
M  V30 173 H 14.684 -0.769217 -7.56298 0
M  V30 174 N 16.2591 1.48442 0.529413 0
M  V30 175 C 17.2221 1.62524 1.61612 0
M  V30 176 C 18.2221 0.498509 1.52877 0
M  V30 177 O 19.4121 0.76431 1.56537 0
M  V30 178 C 16.5441 1.59597 3.01233 0
M  V30 179 H 17.7371 2.59423 1.50465 0
M  V30 180 H 15.2901 1.37047 0.751514 0
M  V30 181 H 16.0251 0.641781 3.17886 0
M  V30 182 H 15.8101 2.41397 3.08982 0
M  V30 183 H 17.3001 1.72646 3.80241 0
M  V30 184 N 17.7372 -0.778329 1.37039 0
M  V30 185 C 18.9832 -1.53892 1.32079 0
M  V30 186 C 19.3162 -1.9396 -0.0965386 0
M  V30 187 O 18.5912 -1.63568 -1.05242 0
M  V30 188 C 18.8742 -2.80847 2.25382 0
M  V30 189 C 18.7272 -2.47076 3.75864 0
M  V30 190 C 20.0462 -3.82741 2.1725 0
M  V30 191 H 17.1652 -0.558303 0.48111 0
M  V30 192 H 19.8072 -0.893397 1.67685 0
M  V30 193 H 17.9572 -3.35931 1.95148 0
M  V30 194 H 19.6292 -1.97957 4.16666 0
M  V30 195 H 17.8722 -1.79863 3.94755 0
M  V30 196 H 18.5432 -3.37798 4.36574 0
M  V30 197 H 21.0192 -3.37133 2.43887 0
M  V30 198 H 19.8952 -4.69303 2.84686 0
M  V30 199 H 20.1562 -4.2652 1.16331 0
M  V30 200 N 19.2153 -1.21501 -1.00376 0
M  V30 201 C 20.4633 -1.03095 -1.73827 0
M  V30 202 C 20.7843 0.436341 -1.90055 0
M  V30 203 O 20.0543 1.31466 -1.45236 0
M  V30 204 H 18.6343 -0.378487 -0.644016 0
M  V30 205 H 21.2963 -1.52831 -1.20949 0
M  V30 206 H 20.3923 -1.49991 -2.73695 0
M  V30 207 N 20.6934 1.19889 -1.02296 0
M  V30 208 C 21.9184 1.9393 -0.735237 0
M  V30 209 C 22.3434 1.74639 0.698782 0
M  V30 210 O 21.7014 1.04481 1.48167 0
M  V30 211 C 21.7494 3.43916 -1.08417 0
M  V30 212 O 20.8534 4.11917 -0.199446 0
M  V30 213 H 20.1944 0.605645 -0.272196 0
M  V30 214 H 22.7244 1.52137 -1.36804 0
M  V30 215 H 22.7344 3.9456 -1.03856 0
M  V30 216 H 21.4094 3.5728 -2.12894 0
M  V30 217 H 19.9864 3.71666 -0.303136 0
M  V30 218 N 22.1715 0.800033 1.35784 0
M  V30 219 C 23.1015 0.220184 2.3246 0
M  V30 220 C 24.0825 -0.65073 1.57161 0
M  V30 221 O 25.2675 -0.582359 1.85263 0
M  V30 222 C 22.3975 -0.637353 3.41402 0
M  V30 223 C 21.3515 0.134531 4.27789 0
M  V30 224 C 20.6775 -0.844285 5.27992 0
M  V30 225 C 21.9775 1.32979 5.05088 0
M  V30 226 H 23.6715 1.02787 2.81203 0
M  V30 227 H 21.2175 0.495717 1.35199 0
M  V30 228 H 23.1705 -1.05302 4.08031 0
M  V30 229 H 21.8945 -1.47785 2.91251 0
M  V30 230 H 20.5535 0.531296 3.6273 0
M  V30 231 H 20.2015 -1.68011 4.74111 0
M  V30 232 H 19.9015 -0.332184 5.8666 0
M  V30 233 H 21.4255 -1.2583 5.97494 0
M  V30 234 H 22.8395 0.98934 5.64699 0
M  V30 235 H 21.2365 1.77593 5.7322 0
M  V30 236 H 22.3065 2.11978 4.36111 0
M  V30 237 N 23.6496 -1.47581 0.552962 0
M  V30 238 C 24.5796 -2.32762 -0.185451 0
M  V30 239 C 25.5606 -1.43527 -0.912905 0
M  V30 240 O 26.7456 -1.72388 -0.894201 0
M  V30 241 C 23.8756 -3.25219 -1.21859 0
M  V30 242 C 22.8296 -4.23661 -0.607864 0
M  V30 243 C 22.1556 -5.05413 -1.74533 0
M  V30 244 C 23.4556 -5.20481 0.435582 0
M  V30 245 H 25.1496 -2.94749 0.525684 0
M  V30 246 H 22.6956 -1.41738 0.254251 0
M  V30 247 H 24.6486 -3.8365 -1.7433 0
M  V30 248 H 23.3726 -2.61279 -1.95961 0
M  V30 249 H 22.0316 -3.66451 -0.104489 0
M  V30 250 H 21.6796 -4.3788 -2.47529 0
M  V30 251 H 21.3796 -5.72059 -1.34249 0
M  V30 252 H 22.9036 -5.66701 -2.27338 0
M  V30 253 H 24.3176 -5.733 -0.00290157 0
M  V30 254 H 22.7146 -5.95305 0.757067 0
M  V30 255 H 23.7846 -4.66217 1.33303 0
M  V30 256 N 25.1277 -0.289203 -1.54924 0
M  V30 257 C 26.0577 0.58549 -2.2604 0
M  V30 258 C 27.0387 1.14753 -1.25562 0
M  V30 259 O 28.2237 1.17906 -1.54311 0
M  V30 260 C 25.3537 1.76305 -2.99222 0
M  V30 261 C 24.3077 1.33191 -4.06748 0
M  V30 262 C 23.6337 2.5937 -4.6758 0
M  V30 263 C 24.9337 0.471775 -5.20165 0
M  V30 264 H 26.6277 -0.00763532 -2.99399 0
M  V30 265 H 24.1737 -0.00511229 -1.43999 0
M  V30 266 H 26.1267 2.38097 -3.47689 0
M  V30 267 H 24.8507 2.38223 -2.23422 0
M  V30 268 H 23.5097 0.737121 -3.59113 0
M  V30 269 H 23.1577 3.19576 -3.88433 0
M  V30 270 H 22.8577 2.31228 -5.40192 0
M  V30 271 H 24.3817 3.21985 -5.18804 0
M  V30 272 H 25.7957 0.995056 -5.64599 0
M  V30 273 H 24.1927 0.284639 -5.99425 0
M  V30 274 H 25.2627 -0.506041 -4.82252 0
M  V30 275 N 26.6058 1.57591 -0.0167156 0
M  V30 276 C 27.5688 2.08393 0.954204 0
M  V30 277 C 28.5688 0.996531 1.26198 0
M  V30 278 O 29.7588 1.25858 1.20438 0
M  V30 279 C 26.8908 2.5394 2.27436 0
M  V30 280 H 28.0838 2.95455 0.514451 0
M  V30 281 H 25.6368 1.54582 0.231089 0
M  V30 282 H 26.3718 1.70171 2.76066 0
M  V30 283 H 26.1568 3.33371 2.06412 0
M  V30 284 H 27.6468 2.93512 2.97053 0
M  V30 285 N 28.0839 -0.256276 1.55502 0
M  V30 286 C 29.3319 -0.983672 1.76545 0
M  V30 287 C 29.6529 -1.86206 0.578982 0
M  V30 288 O 28.9229 -1.91656 -0.405577 0
M  V30 289 H 27.5029 -0.366191 0.651086 0
M  V30 290 H 30.1649 -0.276479 1.92929 0
M  V30 291 H 29.2609 -1.61087 2.67315 0
M  V30 292 N 29.562 -1.4872 -0.521534 0
M  V30 293 C 30.525 -1.63379 -1.60748 0
M  V30 294 C 31.525 -0.50661 -1.52611 0
M  V30 295 O 32.715 -0.772601 -1.5613 0
M  V30 296 C 29.847 -1.61192 -3.00383 0
M  V30 297 H 31.04 -2.60217 -1.49087 0
M  V30 298 H 28.593 -1.37444 -0.744235 0
M  V30 299 H 29.328 -0.65863 -3.17541 0
M  V30 300 H 29.113 -2.43032 -3.07698 0
M  V30 301 H 30.603 -1.7466 -3.7932 0
M  V30 302 N 31.0401 0.771051 -1.3745 0
M  V30 303 C 32.0031 1.86598 -1.33093 0
M  V30 304 C 33.0031 1.59076 -0.234845 0
M  V30 305 O 34.1931 1.67145 -0.490732 0
M  V30 306 C 31.3251 3.23747 -1.06773 0
M  V30 307 H 32.5181 1.91873 -2.30488 0
M  V30 308 H 30.0711 0.970876 -1.2249 0
M  V30 309 H 30.8061 3.24148 -0.099129 0
M  V30 310 H 30.5911 3.45115 -1.86112 0
M  V30 311 H 32.0811 4.03824 -1.06377 0
M  V30 312 N 32.5182 1.22032 0.997298 0
M  V30 313 C 33.4502 0.944263 2.08845 0
M  V30 314 C 34.4632 -0.0754663 1.62625 0
M  V30 315 O 35.6522 0.157994 1.77799 0
M  V30 316 C 32.7522 0.397723 3.36558 0
M  V30 317 C 31.9252 1.47362 4.11829 0
M  V30 318 C 30.9842 0.934951 5.17827 0
M  V30 319 O 30.0102 1.62016 5.45655 0
M  V30 320 N 31.2122 -0.245895 5.79979 0
M  V30 321 H 33.9772 1.88363 2.33109 0
M  V30 322 H 31.5382 1.12661 1.16272 0
M  V30 323 H 33.5302 0.0227771 4.04694 0
M  V30 324 H 32.1002 -0.446646 3.09393 0
M  V30 325 H 31.3202 2.02208 3.38386 0
M  V30 326 H 32.6082 2.19764 4.58891 0
M  V30 327 H 32.0062 -0.819475 5.59733 0
M  V30 328 H 30.5632 -0.562272 6.4937 0
M  V30 329 N 33.9963 -1.19345 1.0293 0
M  V30 330 C 34.9593 -2.20793 0.615069 0
M  V30 331 C 35.9593 -1.57553 -0.321533 0
M  V30 332 O 37.1493 -1.73862 -0.108483 0
M  V30 333 C 34.2813 -3.40754 -0.0999222 0
M  V30 334 H 35.4743 -2.58955 1.51269 0
M  V30 335 H 33.0273 -1.3303 0.820534 0
M  V30 336 H 33.7623 -3.0811 -1.01187 0
M  V30 337 H 33.5473 -3.87889 0.57309 0
M  V30 338 H 35.0373 -4.15898 -0.376645 0
M  V30 339 N 35.4744 -0.807222 -1.35358 0
M  V30 340 C 36.3844 -0.219594 -2.3357 0
M  V30 341 C 37.4004 0.637734 -1.61892 0
M  V30 342 O 38.5764 0.549336 -1.93763 0
M  V30 343 C 35.6414 0.62158 -3.41083 0
M  V30 344 C 34.7024 -0.256315 -4.28534 0
M  V30 345 C 33.9354 0.544807 -5.30912 0
M  V30 346 O 34.1584 1.77944 -5.41934 0
M  V30 347 O 33.0924 -0.0646478 -6.01865 0
M  V30 348 H 36.9184 -1.03208 -2.85625 0
M  V30 349 H 34.5034 -0.569025 -1.38139 0
M  V30 350 H 36.3854 1.10067 -4.06772 0
M  V30 351 H 35.0604 1.41165 -2.91297 0
M  V30 352 H 33.9674 -0.782559 -3.65823 0
M  V30 353 H 35.3004 -1.01034 -4.81719 0
M  V30 354 N 36.9525 1.47285 -0.560781 0
M  V30 355 C 37.9025 2.27073 0.205384 0
M  V30 356 C 38.8865 1.34569 0.882044 0
M  V30 357 O 40.0785 1.58899 0.77976 0
M  V30 358 C 37.2075 3.20414 1.23247 0
M  V30 359 C 36.2935 4.20399 0.559041 0
M  V30 360 N 36.6845 5.04423 -0.372927 0
M  V30 361 C 34.9825 4.38536 0.812522 0
M  V30 362 C 35.6835 5.76655 -0.764446 0
M  V30 363 N 34.6595 5.43471 -0.11848 0
M  V30 364 H 38.4615 2.89422 -0.511117 0
M  V30 365 H 35.9755 1.57868 -0.380975 0
M  V30 366 H 37.9725 3.76262 1.79534 0
M  V30 367 H 36.6325 2.59623 1.95002 0
M  V30 368 H 37.6435 5.1248 -0.747287 0
M  V30 369 H 34.3205 3.88913 1.51832 0
M  V30 370 H 35.7105 6.54238 -1.53045 0
M  V30 371 N 38.4306 0.297415 1.54768 0
M  V30 372 C 39.3786 -0.596051 2.24833 0
M  V30 373 C 40.3726 -1.13992 1.25308 0
M  V30 374 O 41.5786 -1.09098 1.4317 0
M  V30 375 H 37.9536 -0.210814 0.721846 0
M  V30 376 H 39.9246 0.0174667 2.98395 0
M  V30 377 C 38.6736 -1.75818 2.99972 0
M  V30 378 H 37.9966 -1.3489 3.76357 0
M  V30 379 H 39.4366 -2.35949 3.52284 0
M  V30 380 C 37.8956 -2.66014 2.06732 0
M  V30 381 O 38.4256 -3.67009 1.63302 0
M  V30 382 N 36.6316 -2.33669 1.72763 0
M  V30 383 H 36.1786 -1.51586 2.08277 0
M  V30 384 H 36.1366 -2.94285 1.10652 0
M  V30 385 N 39.9087 -1.5758 0.0250728 0
M  V30 386 C 41.1557 -1.91633 -0.654444 0
M  V30 387 C 41.4837 -0.901103 -1.72367 0
M  V30 388 O 40.7387 0.0905647 -1.9549 0
M  V30 389 C 41.0377 -3.32421 -1.31268 0
M  V30 390 C 40.7037 -4.49344 -0.374223 0
M  V30 391 C 39.3657 -4.8106 -0.115911 0
M  V30 392 C 41.7177 -5.20498 0.270432 0
M  V30 393 C 39.0457 -5.8129 0.79493 0
M  V30 394 C 41.3977 -6.21699 1.1693 0
M  V30 395 C 40.0617 -6.51859 1.43655 0
M  V30 396 H 39.3317 -0.701236 -0.239478 0
M  V30 397 H 41.9787 -1.91307 0.0859734 0
M  V30 398 H 40.2837 -3.28989 -2.12775 0
M  V30 399 H 41.9807 -3.56038 -1.84494 0
M  V30 400 H 38.5707 -4.24579 -0.58573 0
M  V30 401 H 42.7547 -4.96229 0.0839194 0
M  V30 402 H 38.0107 -6.03005 1.00973 0
M  V30 403 H 42.1847 -6.75955 1.67504 0
M  V30 404 H 39.8117 -7.2934 2.144 0
M  V30 405 N 41.3868 0.248026 -1.55636 0
M  V30 406 C 42.3348 1.32683 -1.91045 0
M  V30 407 C 43.3288 1.49883 -0.789401 0
M  V30 408 O 44.5348 1.51371 -0.974007 0
M  V30 409 H 40.9098 0.444272 -0.606734 0
M  V30 410 H 42.8808 1.00085 -2.81115 0
M  V30 411 C 41.6298 2.6755 -2.22064 0
M  V30 412 H 40.9528 2.55114 -3.07826 0
M  V30 413 H 42.3928 3.41912 -2.50743 0
M  V30 414 C 40.8518 3.20556 -1.0366 0
M  V30 415 O 41.3818 4.00695 -0.284016 0
M  V30 416 N 39.5878 2.78568 -0.82753 0
M  V30 417 H 39.1348 2.1351 -1.44123 0
M  V30 418 H 39.0928 3.14378 -0.0369803 0
M  V30 419 N 42.8649 1.48995 0.513639 0
M  V30 420 C 44.1109 1.58076 1.27042 0
M  V30 421 C 44.4439 0.261026 1.92438 0
M  V30 422 O 43.7189 -0.734393 1.80103 0
M  V30 423 C 44.0019 2.73091 2.34719 0
M  V30 424 C 43.8549 4.14821 1.73907 0
M  V30 425 C 45.1739 2.83796 3.36375 0
M  V30 426 H 42.2929 0.575391 0.460536 0
M  V30 427 H 44.9349 1.81232 0.570516 0
M  V30 428 H 43.0849 2.53479 2.94416 0
M  V30 429 H 44.7569 4.45917 1.18135 0
M  V30 430 H 42.9999 4.21058 1.0437 0
M  V30 431 H 43.6709 4.91147 2.51949 0
M  V30 432 H 46.1469 3.01611 2.86653 0
M  V30 433 H 45.0229 3.65971 4.09093 0
M  V30 434 H 45.2839 1.92624 3.9793 0
M  V30 435 N 44.343 -0.763751 1.37857 0
M  V30 436 C 45.589 -1.52483 1.33704 0
M  V30 437 C 45.922 -1.94051 -0.0759612 0
M  V30 438 O 45.197 -1.64675 -1.03501 0
M  V30 439 C 45.48 -2.78441 2.28348 0
M  V30 440 C 45.333 -2.43075 3.78463 0
M  V30 441 C 46.652 -3.80415 2.21298 0
M  V30 442 H 43.771 -0.553169 0.487005 0
M  V30 443 H 46.413 -0.875562 1.68624 0
M  V30 444 H 44.563 -3.33842 1.987 0
M  V30 445 H 46.235 -1.93527 4.18742 0
M  V30 446 H 44.478 -1.75666 3.96641 0
M  V30 447 H 45.149 -3.33149 4.40132 0
M  V30 448 H 47.625 -3.34527 2.47449 0
M  V30 449 H 46.501 -4.66257 2.89647 0
M  V30 450 H 46.762 -4.25262 1.20849 0
M  V30 451 N 45.8211 -1.22559 -0.990812 0
M  V30 452 C 47.0701 -1.04553 -1.72486 0
M  V30 453 C 47.3831 0.419349 -1.91052 0
M  V30 454 O 48.5891 0.719121 -2.61803 0
M  V30 455 C 47.0451 -1.82231 -3.10355 0
M  V30 456 C 46.6531 -3.32981 -2.99713 0
M  V30 457 C 48.3971 -1.7268 -3.87791 0
M  V30 458 C 46.3041 -4.03091 -4.32748 0
M  V30 459 H 45.2341 -0.387614 -0.646739 0
M  V30 460 H 47.8851 -1.46429 -1.10593 0
M  V30 461 H 46.2671 -1.33155 -3.72942 0
M  V30 462 H 47.4411 -3.89466 -2.46278 0
M  V30 463 H 45.7561 -3.43231 -2.35758 0
M  V30 464 H 48.3531 -2.22381 -4.86262 0
M  V30 465 H 48.6961 -0.687607 -4.10582 0
M  V30 466 H 49.2291 -2.1931 -3.31885 0
M  V30 467 H 45.9681 -5.07273 -4.15156 0
M  V30 468 H 45.4881 -3.51394 -4.86089 0
M  V30 469 H 47.1671 -4.08804 -5.01486 0
M  V30 470 N 47.2992 1.18797 -1.03562 0
M  V30 471 C 48.2472 2.24297 -0.615905 0
M  V30 472 C 49.2412 1.65643 0.354808 0
M  V30 473 O 50.4472 1.78618 0.22265 0
M  V30 474 H 46.8222 0.729909 -0.180934 0
M  V30 475 H 48.7932 2.5701 -1.5162 0
M  V30 476 C 47.5422 3.47698 0.0104735 0
M  V30 477 H 46.8652 3.93125 -0.727509 0
M  V30 478 H 48.3052 4.23159 0.266995 0
M  V30 479 C 46.7642 3.12489 1.25905 0
M  V30 480 O 47.2942 3.25761 2.35038 0
M  V30 481 N 45.5002 2.6686 1.15039 0
M  V30 482 H 45.0472 2.56261 0.262328 0
M  V30 483 H 45.0052 2.43674 1.98672 0
M  V30 484 N 48.7773 0.814389 1.34928 0
M  V30 485 C 49.7403 0.235759 2.27984 0
M  V30 486 C 50.7403 -0.581412 1.49921 0
M  V30 487 O 51.9303 -0.398758 1.69575 0
M  V30 488 C 49.0623 -0.670433 3.34242 0
M  V30 489 H 50.2553 1.05659 2.80671 0
M  V30 490 H 47.8083 0.585614 1.44915 0
M  V30 491 H 48.5433 -1.51466 2.86755 0
M  V30 492 H 48.3283 -0.0860822 3.92005 0
M  V30 493 H 49.8183 -1.06935 4.03676 0
M  V30 494 N 50.2554 -1.46986 0.568584 0
M  V30 495 C 51.4854 -2.0653 0.0539173 0
M  V30 496 C 51.8934 -1.42004 -1.25026 0
M  V30 497 O 51.2364 -0.514541 -1.76347 0
M  V30 498 C 51.2984 -3.58938 -0.200854 0
M  V30 499 C 50.9624 -4.45572 1.01559 0
M  V30 500 C 51.9594 -4.82986 1.92407 0
M  V30 501 C 49.6444 -4.8692 1.23346 0
M  V30 502 C 51.6384 -5.60559 3.03402 0
M  V30 503 C 49.3254 -5.64255 2.34649 0
M  V30 504 C 50.3234 -6.00986 3.24507 0
M  V30 505 O 50.0114 -6.76761 4.33878 0
M  V30 506 H 49.7434 -0.674292 0.0480234 0
M  V30 507 H 52.2974 -1.89812 0.784896 0
M  V30 508 H 50.5274 -3.73911 -0.986279 0
M  V30 509 H 52.2164 -4.0046 -0.662294 0
M  V30 510 H 52.9824 -4.51633 1.76785 0
M  V30 511 H 48.8614 -4.57789 0.543178 0
M  V30 512 H 52.4054 -5.89147 3.73565 0
M  V30 513 H 48.3024 -5.95021 2.5024 0
M  V30 514 H 49.0704 -6.95168 4.32068 0
M  V30 515 N 51.7335 -0.305618 -1.54608 0
M  V30 516 C 53.0105 0.355652 -1.92339 0
M  V30 517 C 53.3905 1.71324 -1.23335 0
M  V30 518 O 52.7385 2.25473 -0.370702 0
M  V30 519 C 52.9485 0.46572 -3.45879 0
M  V30 520 C 54.2965 0.734426 -4.182 0
M  V30 521 O 55.3205 0.54935 -3.51938 0
M  V30 522 O 54.1795 1.09024 -5.35515 0
M  V30 523 H 51.2735 0.199666 -0.802535 0
M  V30 524 H 53.8195 -0.354017 -1.65966 0
M  V30 525 H 52.5915 -0.488461 -3.88239 0
M  V30 526 H 52.2145 1.22367 -3.78301 0
M  V30 527 N 53.2116 1.57565 -0.0334293 0
M  V30 528 C 54.4396 1.9628 0.654347 0
M  V30 529 C 54.8546 0.910138 1.65414 0
M  V30 530 O 54.2116 -0.107595 1.82183 0
M  V30 531 C 54.2626 3.35067 1.35693 0
M  V30 532 O 53.9836 4.36296 0.397191 0
M  V30 533 C 55.4846 3.88439 2.13613 0
M  V30 534 H 52.7046 0.646369 0.180132 0
M  V30 535 H 55.2486 2.04282 -0.0944721 0
M  V30 536 H 53.4036 3.2827 2.05712 0
M  V30 537 H 53.8176 5.1678 0.896597 0
M  V30 538 H 55.2916 4.8788 2.58219 0
M  V30 539 H 55.7686 3.22914 2.97696 0
M  V30 540 H 56.3746 3.98516 1.48543 0
M  V30 541 N 54.6897 -0.239769 1.55765 0
M  V30 542 C 55.9177 -0.98417 1.81994 0
M  V30 543 C 56.3327 -1.7867 0.610124 0
M  V30 544 O 55.6897 -1.77571 -0.421271 0
M  V30 545 C 55.7407 -1.91635 3.06526 0
M  V30 546 O 55.4617 -1.14629 4.22838 0
M  V30 547 C 56.9627 -2.77616 3.45607 0
M  V30 548 H 54.1827 -0.28928 0.605441 0
M  V30 549 H 56.7267 -0.260499 2.02834 0
M  V30 550 H 54.8817 -2.5942 2.87715 0
M  V30 551 H 55.2957 -1.77745 4.93464 0
M  V30 552 H 56.7697 -3.38759 4.35828 0
M  V30 553 H 57.2467 -3.4909 2.6652 0
M  V30 554 H 57.8527 -2.15271 3.66795 0
M  V30 555 N 56.1678 -1.49265 -0.50573 0
M  V30 556 C 57.4168 -1.57761 -1.25675 0
M  V30 557 C 57.7298 -0.267371 -1.93764 0
M  V30 558 O 58.9358 -0.230827 -2.70517 0
M  V30 559 C 57.3918 -2.78332 -2.28165 0
M  V30 560 C 56.9998 -4.16096 -1.66037 0
M  V30 561 C 58.7438 -2.96155 -3.04125 0
M  V30 562 C 56.6508 -5.27895 -2.6661 0
M  V30 563 H 55.5808 -0.587391 -0.472745 0
M  V30 564 H 58.2318 -1.75644 -0.53118 0
M  V30 565 H 56.6138 -2.53934 -3.03865 0
M  V30 566 H 57.7878 -4.50612 -0.963622 0
M  V30 567 H 56.1028 -4.03591 -1.02484 0
M  V30 568 H 58.6998 -3.76849 -3.79327 0
M  V30 569 H 59.0428 -2.06534 -3.61455 0
M  V30 570 H 59.5758 -3.2057 -2.35541 0
M  V30 571 H 56.3148 -6.1956 -2.14068 0
M  V30 572 H 55.8348 -4.97839 -3.34539 0
M  V30 573 H 57.5138 -5.57031 -3.29129 0
M  V30 574 N 57.6459 0.756429 -1.3826 0
M  V30 575 C 59.0569 1.33359 -1.30661 0
M  V30 576 C 59.4079 1.96161 0.0388875 0
M  V30 577 O 58.5329 1.94874 0.940918 0
M  V30 578 C 59.1279 2.42477 -2.36622 0
M  V30 579 C 57.6869 2.95922 -2.3261 0
M  V30 580 C 56.8339 1.69275 -2.19639 0
M  V30 581 H 59.7849 0.55552 -1.4866 0
M  V30 582 H 59.8059 3.22345 -2.02174 0
M  V30 583 H 59.3179 1.96739 -3.34538 0
M  V30 584 H 57.4189 3.45996 -1.38267 0
M  V30 585 H 57.5319 3.50494 -3.26636 0
M  V30 586 H 55.8959 1.92793 -1.66442 0
M  V30 587 H 56.6789 1.25619 -3.19491 0
M  V30 588 N 59.124 1.23083 0.984299 0
M  V30 589 C 60.034 1.02515 2.11016 0
M  V30 590 C 61.05 -0.0291702 1.73976 0
M  V30 591 O 62.226 0.165434 2.00719 0
M  V30 592 C 59.291 0.614673 3.41208 0
M  V30 593 C 58.352 1.74359 3.92297 0
M  V30 594 C 57.585 1.35261 5.16275 0
M  V30 595 O 57.808 0.235136 5.69915 0
M  V30 596 O 56.742 2.17227 5.61334 0
M  V30 597 H 60.568 1.96862 2.31255 0
M  V30 598 H 58.153 1.01753 1.09392 0
M  V30 599 H 60.035 0.396518 4.1953 0
M  V30 600 H 58.71 -0.299851 3.22308 0
M  V30 601 H 57.617 2.01635 3.1511 0
M  V30 602 H 58.95 2.63629 4.15645 0
M  V30 603 N 60.6021 -1.18246 1.0419 0
M  V30 604 C 61.5321 -2.24127 0.654914 0
M  V30 605 C 62.5131 -1.66617 -0.342451 0
M  V30 606 O 63.6981 -1.92924 -0.222277 0
M  V30 607 C 60.8281 -3.47295 0.0183757 0
M  V30 608 C 59.7821 -4.17563 0.939414 0
M  V30 609 C 59.1081 -5.34438 0.167286 0
M  V30 610 C 60.4081 -4.70917 2.25908 0
M  V30 611 H 62.1021 -2.56753 1.54007 0
M  V30 612 H 59.6481 -1.23414 0.74195 0
M  V30 613 H 61.6011 -4.20572 -0.264082 0
M  V30 614 H 60.3251 -3.13907 -0.901664 0
M  V30 615 H 58.9841 -3.46186 1.20628 0
M  V30 616 H 58.6321 -4.97298 -0.7552 0
M  V30 617 H 58.3321 -5.82388 0.780901 0
M  V30 618 H 59.8561 -6.10504 -0.108125 0
M  V30 619 H 61.2701 -5.35882 2.03724 0
M  V30 620 H 59.6671 -5.29406 2.82577 0
M  V30 621 H 60.7371 -3.88272 2.9047 0
M  V30 622 N 62.0802 -0.821533 -1.34494 0
M  V30 623 C 63.0282 -0.230702 -2.31453 0
M  V30 624 C 64.0222 0.627793 -1.57338 0
M  V30 625 O 65.2282 0.519288 -1.72347 0
M  V30 626 H 61.6032 -0.0558577 -0.749923 0
M  V30 627 H 63.5742 -1.06332 -2.78812 0
M  V30 628 C 62.3232 0.59391 -3.4259 0
M  V30 629 H 61.6462 -0.0573588 -3.99759 0
M  V30 630 H 63.0862 0.973446 -4.12674 0
M  V30 631 C 61.5452 1.76568 -2.86924 0
M  V30 632 O 62.0752 2.8638 -2.81691 0
M  V30 633 N 60.2812 1.58198 -2.43766 0
M  V30 634 H 59.8282 0.68872 -2.48222 0
M  V30 635 H 59.7862 2.36752 -2.06871 0
M  V30 636 N 63.5583 1.46682 -0.576371 0
M  V30 637 C 64.8043 2.02712 -0.0596221 0
M  V30 638 C 65.1373 1.44765 1.29448 0
M  V30 639 O 64.4123 0.610355 1.84675 0
M  V30 640 C 64.6953 3.60098 0.0129503 0
M  V30 641 C 64.5483 4.28441 -1.3696 0
M  V30 642 C 65.8673 4.34224 0.71678 0
M  V30 643 H 62.9863 0.736637 -0.0231407 0
M  V30 644 H 65.6283 1.74898 -0.742351 0
M  V30 645 H 63.7783 3.83926 0.594378 0
M  V30 646 H 65.4503 4.15896 -1.9957 0
M  V30 647 H 63.6933 3.8805 -1.93907 0
M  V30 648 H 64.3643 5.3716 -1.27135 0
M  V30 649 H 66.8403 4.15503 0.222908 0
M  V30 650 H 65.7163 5.43936 0.73657 0
M  V30 651 H 65.9773 4.04823 1.77682 0
M  V30 652 N 65.0364 0.313813 1.54444 0
M  V30 653 C 65.9464 -0.565714 2.27677 0
M  V30 654 C 66.9624 -1.13754 1.31666 0
M  V30 655 O 68.1384 -1.15959 1.64668 0
M  V30 656 C 65.2034 -1.71528 3.01296 0
M  V30 657 C 64.2644 -1.17624 4.12872 0
M  V30 658 C 63.4974 -2.27102 4.8297 0
M  V30 659 O 63.7204 -3.47256 4.52514 0
M  V30 660 O 62.6544 -1.9307 5.70094 0
M  V30 661 H 66.4804 0.0287296 3.03686 0
M  V30 662 H 64.0654 0.0798312 1.49187 0
M  V30 663 H 65.9474 -2.38476 3.4743 0
M  V30 664 H 64.6224 -2.29608 2.2817 0
M  V30 665 H 63.5294 -0.472124 3.71109 0
M  V30 666 H 64.8624 -0.640695 4.88012 0
M  V30 667 N 66.5145 -1.57545 0.0417849 0
M  V30 668 C 67.7625 -1.91937 -0.632829 0
M  V30 669 C 68.0835 -0.919978 -1.71934 0
M  V30 670 O 67.3535 0.0366064 -1.95866 0
M  V30 671 H 65.9335 -0.708493 -0.236742 0
M  V30 672 H 68.5955 -1.9468 0.0925745 0
M  V30 673 H 67.6915 -2.92912 -1.07746 0
M  V30 674 N 67.9926 0.231505 -1.5589 0
M  V30 675 C 69.2386 0.95877 -1.78705 0
M  V30 676 C 69.5716 1.8438 -0.609725 0
M  V30 677 O 68.8466 1.90521 0.391426 0
M  V30 678 C 69.1296 1.8062 -3.11526 0
M  V30 679 C 68.9826 0.948328 -4.39689 0
M  V30 680 C 70.3016 2.78585 -3.40703 0
M  V30 681 H 67.4206 0.347129 -0.650131 0
M  V30 682 H 70.0626 0.228259 -1.88624 0
M  V30 683 H 68.2126 2.42902 -3.03201 0
M  V30 684 H 69.8846 0.343016 -4.60023 0
M  V30 685 H 68.1276 0.253314 -4.3306 0
M  V30 686 H 68.7986 1.57543 -5.29041 0
M  V30 687 H 71.2746 2.26439 -3.49091 0
M  V30 688 H 70.1506 3.34988 -4.34826 0
M  V30 689 H 70.4116 3.55825 -2.62375 0
M  V30 690 N 69.4707 1.49531 0.497807 0
M  V30 691 C 70.6987 1.62893 1.27567 0
M  V30 692 C 71.1137 0.301585 1.86376 0
M  V30 693 O 70.4707 -0.713335 1.67982 0
M  V30 694 C 70.5217 2.70013 2.40364 0
M  V30 695 O 70.2427 3.976 1.83972 0
M  V30 696 C 71.7437 2.94109 3.31685 0
M  V30 697 H 68.9637 0.548298 0.386794 0
M  V30 698 H 71.5077 1.95584 0.597245 0
M  V30 699 H 69.6627 2.40092 3.04031 0
M  V30 700 H 70.0767 4.56631 2.58047 0
M  V30 701 H 71.5507 3.72788 4.07104 0
M  V30 702 H 72.0277 2.04147 3.88871 0
M  V30 703 H 72.6337 3.2546 2.73781 0
M  V30 704 N 70.9488 -0.749086 1.3866 0
M  V30 705 C 72.1948 -1.51056 1.35314 0
M  V30 706 C 72.5278 -1.94121 -0.0553751 0
M  V30 707 O 71.8028 -1.65763 -1.01749 0
M  V30 708 C 72.0858 -2.76003 2.31288 0
M  V30 709 C 71.9388 -2.39047 3.8102 0
M  V30 710 C 73.2578 -3.78046 2.2532 0
M  V30 711 H 70.3768 -0.547972 0.492844 0
M  V30 712 H 73.0188 -0.857628 1.69543 0
M  V30 713 H 71.1688 -3.31716 2.02229 0
M  V30 714 H 72.8408 -1.89074 4.20771 0
M  V30 715 H 71.0838 -1.71449 3.98482 0
M  V30 716 H 71.7548 -3.28462 4.4364 0
M  V30 717 H 74.2308 -3.31884 2.50983 0
M  V30 718 H 73.1068 -4.63159 2.94576 0
M  V30 719 H 73.3678 -4.23957 1.25352 0
M  V30 720 N 72.4269 -1.23603 -0.977757 0
M  V30 721 C 73.3739 -1.01954 -2.07061 0
M  V30 722 C 74.3439 0.0638697 -1.65977 0
M  V30 723 O 75.5289 -0.0887624 -1.90593 0
M  V30 724 C 72.6689 -0.619658 -3.39491 0
M  V30 725 C 71.7819 -1.77547 -3.93829 0
M  V30 726 C 70.9169 -1.32212 -5.14484 0
M  V30 727 C 69.9559 -2.44852 -5.60994 0
M  V30 728 N 69.0929 -2.00456 -6.72876 0
M  V30 729 H 73.9329 -1.95495 -2.24913 0
M  V30 730 H 71.4699 -0.973861 -1.10247 0
M  V30 731 H 73.4279 -0.368898 -4.15566 0
M  V30 732 H 72.0579 0.278752 -3.21594 0
M  V30 733 H 71.1099 -2.14016 -3.14486 0
M  V30 734 H 72.4219 -2.62219 -4.24314 0
M  V30 735 H 71.5759 -1.02965 -5.97899 0
M  V30 736 H 70.3149 -0.445808 -4.85658 0
M  V30 737 H 69.3199 -2.74871 -4.76157 0
M  V30 738 H 70.5449 -3.33024 -5.91837 0
M  V30 739 H 68.4909 -1.15208 -6.45804 0
M  V30 740 H 68.4079 -2.78687 -7.02759 0
M  V30 741 H 69.6759 -1.7432 -7.59758 0
M  V30 742 N 73.905 1.17692 -1.04816 0
M  V30 743 C 74.853 2.23632 -0.63966 0
M  V30 744 C 75.847 1.6601 0.337219 0
M  V30 745 O 77.053 1.78844 0.203693 0
M  V30 746 H 73.428 0.727949 -0.188665 0
M  V30 747 H 75.399 2.55387 -1.54337 0
M  V30 748 C 74.148 3.4769 -0.0264051 0
M  V30 749 H 73.471 3.92331 -0.769164 0
M  V30 750 H 74.911 4.23418 0.222098 0
M  V30 751 C 73.37 3.13807 1.22584 0
M  V30 752 O 73.9 3.28236 2.31569 0
M  V30 753 N 72.106 2.68065 1.12202 0
M  V30 754 H 71.653 2.56525 0.235133 0
M  V30 755 H 71.611 2.45767 1.96076 0
M  V30 756 N 75.3831 0.828654 1.34056 0
M  V30 757 C 76.6321 0.415828 1.97367 0
M  V30 758 C 76.9451 -1.02796 1.6641 0
M  V30 759 O 78.1511 -1.54497 2.23255 0
M  V30 760 C 76.6071 0.692601 3.53173 0
M  V30 761 C 76.2151 2.15038 3.93017 0
M  V30 762 C 77.9591 0.346222 4.23086 0
M  V30 763 C 75.8661 2.37174 5.41758 0
M  V30 764 H 74.7961 0.151755 0.738571 0
M  V30 765 H 77.4471 1.01581 1.52819 0
M  V30 766 H 75.8291 0.0223764 3.95994 0
M  V30 767 H 77.0031 2.86024 3.61285 0
M  V30 768 H 75.3181 2.45875 3.36057 0
M  V30 769 H 77.9151 0.48937 5.32456 0
M  V30 770 H 78.2581 -0.709842 4.10204 0
M  V30 771 H 78.7911 0.971258 3.85761 0
M  V30 772 H 75.5301 3.41308 5.59633 0
M  V30 773 H 75.0501 1.70738 5.74986 0
M  V30 774 H 76.7291 2.19818 6.08514 0
M  V30 775 N 76.8612 -1.46375 0.584142 0
M  V30 776 C 78.2772 -1.57694 0.245929 0
M  V30 777 C 78.4772 -1.57903 -1.25175 0
M  V30 778 O 77.5332 -1.49676 -2.03355 0
M  V30 779 C 78.8462 -2.87028 0.896402 0
M  V30 780 C 80.3942 -3.00662 0.870127 0
M  V30 781 C 80.8692 -4.32734 1.50017 0
M  V30 782 N 82.3602 -4.39436 1.46458 0
M  V30 783 C 83.0952 -5.40248 1.92144 0
M  V30 784 N 82.5912 -6.47726 2.4581 0
M  V30 785 N 84.3842 -5.31459 1.83052 0
M  V30 786 H 76.5352 -1.44483 1.55687 0
M  V30 787 H 78.7982 -0.689291 0.650831 0
M  V30 788 H 78.5042 -2.9269 1.95002 0
M  V30 789 H 78.3782 -3.75014 0.405486 0
M  V30 790 H 80.7652 -2.94581 -0.174871 0
M  V30 791 H 80.8462 -2.14148 1.39908 0
M  V30 792 H 80.4902 -4.39573 2.54437 0
M  V30 793 H 80.4202 -5.18025 0.946432 0
M  V30 794 H 82.9112 -3.62367 1.07231 0
M  V30 795 H 83.2242 -7.20863 2.78525 0
M  V30 796 H 81.5692 -6.48542 2.49836 0
M  V30 797 H 84.7602 -4.46396 1.40883 0
M  V30 798 H 84.9332 -6.09881 2.18973 0
M  V30 799 N 78.3393 -0.321999 -1.54275 0
M  V30 800 C 79.3023 0.531975 -2.22941 0
M  V30 801 C 80.3023 1.04478 -1.22234 0
M  V30 802 O 81.4923 0.937452 -1.46825 0
M  V30 803 C 78.6243 1.73874 -2.93224 0
M  V30 804 H 79.8173 -0.0682612 -2.99822 0
M  V30 805 H 77.3703 -0.0730644 -1.56129 0
M  V30 806 H 78.1053 2.37825 -2.20476 0
M  V30 807 H 77.8903 1.37847 -3.6707 0
M  V30 808 H 79.3803 2.34496 -3.45545 0
M  V30 809 N 79.8174 1.5752 -0.0501392 0
M  V30 810 C 81.0644 1.9265 0.623874 0
M  V30 811 C 81.3924 0.928411 1.70912 0
M  V30 812 O 80.6474 -0.0594525 1.9561 0
M  V30 813 C 80.9464 3.34467 1.25963 0
M  V30 814 C 80.6124 4.49883 0.302689 0
M  V30 815 C 79.2744 4.81184 0.0393636 0
M  V30 816 C 81.6264 5.20002 -0.353205 0
M  V30 817 C 78.9544 5.79951 -0.887308 0
M  V30 818 C 81.3064 6.1976 -1.26806 0
M  V30 819 C 79.9704 6.49491 -1.54007 0
M  V30 820 H 79.2404 0.704957 0.228292 0
M  V30 821 H 81.8874 1.91146 -0.116398 0
M  V30 822 H 80.1924 3.32333 2.07514 0
M  V30 823 H 81.8894 3.58928 1.78806 0
M  V30 824 H 78.4794 4.25457 0.518109 0
M  V30 825 H 82.6634 4.96033 -0.162854 0
M  V30 826 H 77.9194 6.01322 -1.10553 0
M  V30 827 H 82.0934 6.73205 -1.78236 0
M  V30 828 H 79.7204 7.25837 -2.25976 0
M  V30 829 N 81.2955 -0.223234 1.56011 0
M  V30 830 C 82.2435 -1.29627 1.93131 0
M  V30 831 C 83.2375 -1.48608 0.813146 0
M  V30 832 O 84.4435 -1.49802 0.997966 0
M  V30 833 H 80.8185 -0.434563 0.613726 0
M  V30 834 H 82.7895 -0.955995 2.82672 0
M  V30 835 C 81.5385 -2.63983 2.26292 0
M  V30 836 H 80.8615 -2.50185 3.11846 0
M  V30 837 H 82.3015 -3.3788 2.56151 0
M  V30 838 C 80.7605 -3.18866 1.08747 0
M  V30 839 O 81.2905 -4.00192 0.347727 0
M  V30 840 N 79.4965 -2.77217 0.871743 0
M  V30 841 H 79.0435 -2.1119 1.47501 0
M  V30 842 H 79.0015 -3.1428 0.0869905 0
M  V30 843 N 82.7736 -1.49793 -0.48987 0
M  V30 844 C 84.0196 -1.60078 -1.24511 0
M  V30 845 C 84.3526 -0.291608 -1.91998 0
M  V30 846 O 83.6276 0.705647 -1.81248 0
M  V30 847 C 83.9106 -2.76791 -2.30345 0
M  V30 848 C 83.7636 -4.17535 -1.67286 0
M  V30 849 C 85.0826 -2.89111 -3.31817 0
M  V30 850 H 82.2016 -0.582645 -0.451324 0
M  V30 851 H 84.8436 -1.82117 -0.541612 0
M  V30 852 H 82.9936 -2.5813 -2.90346 0
M  V30 853 H 84.6656 -4.4774 -1.11026 0
M  V30 854 H 82.9086 -4.22665 -0.976577 0
M  V30 855 H 83.5796 -4.95094 -2.44103 0
M  V30 856 H 86.0556 -3.06133 -2.81819 0
M  V30 857 H 84.9316 -3.72433 -4.03219 0
M  V30 858 H 85.1926 -1.9893 -3.94815 0
M  V30 859 N 84.2517 0.741722 -1.39055 0
M  V30 860 C 85.1817 1.869 -1.39966 0
M  V30 861 C 86.1627 1.6804 -0.26392 0
M  V30 862 O 87.3477 1.88458 -0.468755 0
M  V30 863 C 84.4777 3.24572 -1.23574 0
M  V30 864 C 83.4317 3.58056 -2.34477 0
M  V30 865 C 82.7577 4.94593 -2.0318 0
M  V30 866 C 84.0577 3.61716 -3.76774 0
M  V30 867 H 85.7517 1.86395 -2.34302 0
M  V30 868 H 83.2977 0.895361 -1.1278 0
M  V30 869 H 85.2507 4.031 -1.22834 0
M  V30 870 H 83.9747 3.25587 -0.257045 0
M  V30 871 H 82.6337 2.81854 -2.34423 0
M  V30 872 H 82.2817 4.92181 -1.03765 0
M  V30 873 H 81.9817 5.17964 -2.77465 0
M  V30 874 H 83.5057 5.75486 -2.04079 0
M  V30 875 H 84.9197 4.30335 -3.78794 0
M  V30 876 H 83.3167 3.96603 -4.50362 0
M  V30 877 H 84.3867 2.61672 -4.08235 0
M  V30 878 N 85.7298 1.2412 0.971189 0
M  V30 879 C 86.6778 1.02812 2.08644 0
M  V30 880 C 87.6718 -0.0358403 1.69362 0
M  V30 881 O 88.8778 0.118429 1.7961 0
M  V30 882 H 85.2528 0.315428 0.682649 0
M  V30 883 H 87.2238 1.97397 2.23779 0
M  V30 884 C 85.9728 0.645874 3.41649 0
M  V30 885 H 85.2958 1.45632 3.72332 0
M  V30 886 H 86.7358 0.536366 4.20594 0
M  V30 887 C 85.1948 -0.646713 3.30635 0
M  V30 888 O 85.7248 -1.69338 3.64263 0
M  V30 889 N 83.9308 -0.626115 2.83775 0
M  V30 890 H 83.4778 0.225988 2.56607 0
M  V30 891 H 83.4358 -1.49117 2.76788 0
M  V30 892 N 87.2079 -1.17134 1.05439 0
M  V30 893 C 88.1179 -2.24878 0.668365 0
M  V30 894 C 89.1339 -1.71186 -0.311687 0
M  V30 895 O 90.3099 -2.00738 -0.163161 0
M  V30 896 C 87.3749 -3.46662 0.051648 0
M  V30 897 C 86.4359 -4.15429 1.08246 0
M  V30 898 C 85.6689 -5.31399 0.495082 0
M  V30 899 O 85.8919 -5.66153 -0.694743 0
M  V30 900 O 84.8259 -5.89187 1.23056 0
M  V30 901 H 88.6519 -2.60189 1.56637 0
M  V30 902 H 86.2369 -1.24482 0.826104 0
M  V30 903 H 88.1189 -4.20394 -0.290966 0
M  V30 904 H 86.7939 -3.13142 -0.819971 0
M  V30 905 H 85.7009 -3.43704 1.47711 0
M  V30 906 H 87.0339 -4.52982 1.92532 0
M  V30 907 N 88.686 -0.835752 -1.33615 0
M  V30 908 C 90.097 -0.487099 -1.80234 0
M  V30 909 C 90.448 0.993627 -1.69179 0
M  V30 910 O 89.573 1.77403 -1.23924 0
M  V30 911 C 90.168 -0.877385 -3.27242 0
M  V30 912 C 88.727 -0.580915 -3.7189 0
M  V30 913 C 87.874 -1.0874 -2.5509 0
M  V30 914 H 90.825 -1.02474 -1.2118 0
M  V30 915 H 90.846 -0.186195 -3.80044 0
M  V30 916 H 90.358 -1.95512 -3.35256 0
M  V30 917 H 88.459 0.486881 -3.69405 0
M  V30 918 H 88.572 -1.13396 -4.65487 0
M  V30 919 H 86.936 -0.508392 -2.49575 0
M  V30 920 H 87.719 -2.17184 -2.65868 0
M  V30 921 N 90.1641 1.46063 -0.591896 0
M  V30 922 C 91.0741 2.34192 0.13831 0
M  V30 923 C 92.0901 1.50305 0.876608 0
M  V30 924 O 93.2661 1.8315 0.837728 0
M  V30 925 C 90.3311 3.27656 1.13326 0
M  V30 926 C 89.3921 4.27445 0.39863 0
M  V30 927 C 88.6251 5.16443 1.34618 0
M  V30 928 O 88.8481 5.08553 2.58321 0
M  V30 929 O 87.7821 5.95843 0.851768 0
M  V30 930 H 91.6081 2.98002 -0.58552 0
M  V30 931 H 89.1931 1.45188 -0.352239 0
M  V30 932 H 91.0751 3.85291 1.70671 0
M  V30 933 H 89.7501 2.6643 1.83839 0
M  V30 934 H 88.6571 3.73471 -0.216895 0
M  V30 935 H 89.9901 4.91482 -0.265709 0
M  V30 936 N 91.6422 0.330177 1.54103 0
M  V30 937 C 92.8702 -0.272179 2.05102 0
M  V30 938 C 93.2852 -1.45267 1.20595 0
M  V30 939 O 92.6422 -1.8094 0.238144 0
M  V30 940 C 92.6932 -0.70023 3.54653 0
M  V30 941 O 92.4142 0.433301 4.35952 0
M  V30 942 C 93.9152 -1.3647 4.21771 0
M  V30 943 H 91.1352 -0.0549159 0.668749 0
M  V30 944 H 93.6792 0.478285 1.98828 0
M  V30 945 H 91.8342 -1.40066 3.61193 0
M  V30 946 H 92.2482 0.0947539 5.24414 0
M  V30 947 H 93.7222 -1.61509 5.27843 0
M  V30 948 H 94.1992 -2.31409 3.73292 0
M  V30 949 H 94.8052 -0.706675 4.19388 0
M  V30 950 N 93.1203 -1.57491 0.0584922 0
M  V30 951 C 94.0503 -2.14988 -0.911178 0
M  V30 952 C 95.0313 -1.07343 -1.31952 0
M  V30 953 O 96.2163 -1.35318 -1.39294 0
M  V30 954 C 93.3463 -2.70078 -2.18347 0
M  V30 955 C 92.3003 -3.82771 -1.91495 0
M  V30 956 C 91.6263 -4.24408 -3.25241 0
M  V30 957 C 92.9263 -5.07592 -1.23075 0
M  V30 958 H 94.6203 -2.96263 -0.432246 0
M  V30 959 H 92.1663 -1.42512 -0.206469 0
M  V30 960 H 94.1193 -3.08943 -2.86587 0
M  V30 961 H 92.8433 -1.86005 -2.68458 0
M  V30 962 H 91.5023 -3.44389 -1.25664 0
M  V30 963 H 91.1503 -3.37275 -3.73168 0
M  V30 964 H 90.8503 -5.00366 -3.08071 0
M  V30 965 H 92.3743 -4.65879 -3.94701 0
M  V30 966 H 93.7883 -5.43857 -1.81362 0
M  V30 967 H 92.1853 -5.88741 -1.16207 0
M  V30 968 H 93.2553 -4.84454 -0.207847 0
M  V30 969 N 94.5984 0.214957 -1.56127 0
M  V30 970 C 95.8444 0.939762 -1.79712 0
M  V30 971 C 96.1774 1.83723 -0.629247 0
M  V30 972 O 95.4524 1.90925 0.371197 0
M  V30 973 C 95.7354 1.77306 -3.13424 0
M  V30 974 C 95.5884 0.90164 -4.40671 0
M  V30 975 C 96.9074 2.74956 -3.43638 0
M  V30 976 H 94.0264 0.340214 -0.653776 0
M  V30 977 H 96.6684 0.20824 -1.88855 0
M  V30 978 H 94.8184 2.39673 -3.0576 0
M  V30 979 H 96.4904 0.294206 -4.60361 0
M  V30 980 H 94.7334 0.207368 -4.33304 0
M  V30 981 H 95.4044 1.51923 -5.30682 0
M  V30 982 H 97.8804 2.22724 -3.51473 0
M  V30 983 H 96.7564 3.30358 -4.38355 0
M  V30 984 H 97.0174 3.53023 -2.66134 0
M  V30 985 N 96.0765 1.50051 0.48192 0
M  V30 986 C 97.3225 1.60736 1.2366 0
M  V30 987 C 97.6555 0.301786 1.91841 0
M  V30 988 O 96.9305 -0.696025 1.8162 0
M  V30 989 C 97.2135 2.78009 2.28874 0
M  V30 990 C 97.0665 4.18416 1.65069 0
M  V30 991 C 98.3855 2.90867 3.30279 0
M  V30 992 H 95.5045 0.585031 0.448228 0
M  V30 993 H 98.1465 1.82402 0.531946 0
M  V30 994 H 96.2965 2.59667 2.88973 0
M  V30 995 H 97.9685 4.48322 1.0865 0
M  V30 996 H 96.2115 4.23177 0.954148 0
M  V30 997 H 96.8825 4.96381 2.41474 0
M  V30 998 H 99.3585 3.07623 2.80191 0
M  V30 999 H 98.2345 3.74566 4.01238 0
M  V30 1000 H 98.4955 2.01021 3.93755 0
M  V30 1001 N 97.5546 -0.734337 1.39446 0
M  V30 1002 C 98.5016 -1.84835 1.38219 0
M  V30 1003 C 99.4716 -1.64331 0.24179 0
M  V30 1004 O 100.657 -1.85728 0.437002 0
M  V30 1005 C 97.7966 -3.22355 1.23212 0
M  V30 1006 C 96.9096 -3.5456 2.46801 0
M  V30 1007 C 96.0446 -4.81485 2.24377 0
M  V30 1008 C 95.0836 -5.06536 3.43639 0
M  V30 1009 N 94.2206 -6.24665 3.20528 0
M  V30 1010 H 99.0606 -1.85219 2.33448 0
M  V30 1011 H 96.5976 -0.905039 1.15963 0
M  V30 1012 H 98.5556 -4.0174 1.12522 0
M  V30 1013 H 97.1856 -3.21248 0.316121 0
M  V30 1014 H 96.2376 -2.69872 2.68092 0
M  V30 1015 H 97.5496 -3.6899 3.3563 0
M  V30 1016 H 96.7036 -5.68852 2.10933 0
M  V30 1017 H 95.4426 -4.6923 1.32944 0
M  V30 1018 H 94.4476 -4.17632 3.5758 0
M  V30 1019 H 95.6726 -5.20676 4.35974 0
M  V30 1020 H 93.6186 -6.13696 2.3176 0
M  V30 1021 H 93.5356 -6.39685 4.02913 0
M  V30 1022 H 94.8036 -7.14868 3.10779 0
M  V30 1023 N 99.0327 -1.24633 -0.964593 0
M  V30 1024 C 99.9797 -1.04144 -2.05968 0
M  V30 1025 C 100.95 0.046262 -1.66036 0
M  V30 1026 O 102.135 -0.108972 -1.90489 0
M  V30 1027 C 99.2747 -0.65563 -3.38815 0
M  V30 1028 C 98.3877 -1.81714 -3.91923 0
M  V30 1029 C 97.5227 -1.37662 -5.13052 0
M  V30 1030 C 96.5617 -2.50788 -5.58365 0
M  V30 1031 N 95.6987 -2.07582 -6.70712 0
M  V30 1032 H 100.539 -1.9787 -2.22827 0
M  V30 1033 H 98.0757 -0.9855 -1.09208 0
M  V30 1034 H 100.034 -0.412954 -4.15151 0
M  V30 1035 H 98.6637 0.244627 -3.21872 0
M  V30 1036 H 97.7157 -2.1734 -3.12198 0
M  V30 1037 H 99.0277 -2.66705 -4.21509 0
M  V30 1038 H 98.1817 -1.093 -5.96773 0
M  V30 1039 H 96.9207 -0.497293 -4.85158 0
M  V30 1040 H 95.9257 -2.79906 -4.73215 0
M  V30 1041 H 97.1507 -3.39283 -5.88272 0
M  V30 1042 H 95.0967 -1.22051 -6.44546 0
M  V30 1043 H 95.0137 -2.86125 -6.99763 0
M  V30 1044 H 96.2817 -1.82369 -7.57867 0
M  V30 1045 N 100.511 1.16574 -1.06058 0
M  V30 1046 C 101.759 1.86677 -0.77434 0
M  V30 1047 C 102.08 1.81959 0.701147 0
M  V30 1048 O 101.35 1.2515 1.50713 0
M  V30 1049 H 99.9298 0.691134 -0.283449 0
M  V30 1050 H 102.592 1.41378 -1.34158 0
M  V30 1051 H 101.688 2.92181 -1.09711 0
M  V30 1052 N 101.989 0.842826 1.3317 0
M  V30 1053 C 103.266 0.362216 1.92217 0
M  V30 1054 C 103.646 -1.15289 1.76838 0
M  V30 1055 O 102.994 -1.96914 1.15919 0
M  V30 1056 C 103.204 0.813495 3.39387 0
M  V30 1057 C 104.552 0.823804 4.16532 0
M  V30 1058 O 105.576 0.757358 3.48055 0
M  V30 1059 O 104.435 0.915193 5.38782 0
M  V30 1060 H 101.529 0.103317 0.820521 0
M  V30 1061 H 104.075 0.928942 1.42017 0
M  V30 1062 H 102.847 1.85624 3.4447 0
M  V30 1063 H 102.47 0.223561 3.96971 0
M  V30 1064 N 103.467 -1.45747 0.599634 0
M  V30 1065 C 104.43 -2.28917 -0.113835 0
M  V30 1066 C 105.43 -1.3933 -0.802729 0
M  V30 1067 O 106.62 -1.61534 -0.652103 0
M  V30 1068 C 103.752 -3.20152 -1.17114 0
M  V30 1069 H 104.945 -2.93478 0.617289 0
M  V30 1070 H 102.498 -1.52137 0.358327 0
M  V30 1071 H 103.233 -2.60374 -1.93329 0
M  V30 1072 H 103.018 -3.86133 -0.681468 0
M  V30 1073 H 104.508 -3.82708 -1.67105 0
M  V30 1074 N 104.945 -0.338344 -1.53925 0
M  V30 1075 C 106.191 0.260143 -2.01125 0
M  V30 1076 C 106.524 1.50617 -1.22589 0
M  V30 1077 O 105.799 1.91979 -0.312113 0
M  V30 1078 C 106.082 0.579499 -3.55407 0
M  V30 1079 C 105.935 -0.678264 -4.44657 0
M  V30 1080 C 107.254 1.39122 -4.17532 0
M  V30 1081 H 104.373 0.0930772 -0.731099 0
M  V30 1082 H 107.015 -0.457852 -1.84401 0
M  V30 1083 H 105.165 1.19118 -3.69788 0
M  V30 1084 H 106.837 -1.31631 -4.42121 0
M  V30 1085 H 105.08 -1.3042 -4.13731 0
M  V30 1086 H 105.751 -0.410143 -5.50474 0
M  V30 1087 H 108.227 0.874035 -4.06817 0
M  V30 1088 H 107.103 1.58342 -5.25565 0
M  V30 1089 H 107.364 2.39178 -3.71815 0
M  V30 1090 N 106.423 1.57458 -0.0668435 0
M  V30 1091 C 107.37 2.12439 0.902122 0
M  V30 1092 C 108.34 1.03565 1.2986 0
M  V30 1093 O 109.525 1.312 1.38532 0
M  V30 1094 C 106.665 2.6865 2.16614 0
M  V30 1095 C 105.778 3.91663 1.82274 0
M  V30 1096 C 104.913 4.36134 3.0325 0
M  V30 1097 C 103.952 5.51808 2.64904 0
M  V30 1098 N 103.089 5.9126 3.78624 0
M  V30 1099 H 107.929 2.94934 0.426382 0
M  V30 1100 H 105.466 1.4575 0.198819 0
M  V30 1101 H 107.424 2.99346 2.90599 0
M  V30 1102 H 106.054 1.88928 2.61737 0
M  V30 1103 H 105.106 3.6746 0.983719 0
M  V30 1104 H 106.418 4.75693 1.50059 0
M  V30 1105 H 105.572 4.68465 3.85519 0
M  V30 1106 H 104.311 3.50948 3.38655 0
M  V30 1107 H 103.316 5.19133 1.81055 0
M  V30 1108 H 104.541 6.38722 2.30675 0
M  V30 1109 H 102.487 5.09024 4.138 0
M  V30 1110 H 102.404 6.70018 3.5016 0
M  V30 1111 H 103.672 6.28212 4.61486 0
M  V30 1112 N 107.901 -0.206675 1.56239 0
M  V30 1113 C 109.147 -0.930218 1.80208 0
M  V30 1114 C 109.48 -1.83387 0.638981 0
M  V30 1115 O 108.755 -1.91119 -0.361066 0
M  V30 1116 C 109.038 -1.75641 3.1436 0
M  V30 1117 C 108.891 -0.878257 4.41142 0
M  V30 1118 C 110.21 -2.73129 3.45092 0
M  V30 1119 H 107.329 -0.336742 0.655571 0
M  V30 1120 H 109.971 -0.198222 1.88963 0
M  V30 1121 H 108.121 -2.38048 3.07027 0
M  V30 1122 H 109.793 -0.269787 4.6051 0
M  V30 1123 H 108.036 -0.184385 4.33408 0
M  V30 1124 H 108.707 -1.49106 5.3148 0
M  V30 1125 H 111.183 -2.20856 3.52649 0
M  V30 1126 H 110.059 -3.28028 4.40101 0
M  V30 1127 H 110.32 -3.51606 2.68003 0
M  V30 1128 N 109.379 -1.50304 -0.473955 0
M  V30 1129 C 110.625 -1.61389 -1.22806 0
M  V30 1130 C 110.958 -0.311955 -1.91678 0
M  V30 1131 O 110.233 0.686384 -1.81986 0
M  V30 1132 C 110.516 -2.79219 -2.27396 0
M  V30 1133 C 110.369 -4.19286 -1.62848 0
M  V30 1134 C 111.688 -2.92614 -3.28732 0
M  V30 1135 H 108.807 -0.587399 -0.445119 0
M  V30 1136 H 111.449 -1.82681 -0.522265 0
M  V30 1137 H 109.599 -2.61195 -2.87592 0
M  V30 1138 H 111.271 -4.48892 -1.06271 0
M  V30 1139 H 109.514 -4.23677 -0.931693 0
M  V30 1140 H 110.185 -4.97655 -2.38838 0
M  V30 1141 H 112.661 -3.09105 -2.78556 0
M  V30 1142 H 111.537 -3.76688 -3.99246 0
M  V30 1143 H 111.798 -2.03107 -3.92683 0
M  V30 1144 N 110.857 0.726932 -1.39834 0
M  V30 1145 C 112.103 1.48884 -1.377 0
M  V30 1146 C 112.436 1.94185 0.0244852 0
M  V30 1147 O 111.711 1.67361 0.990986 0
M  V30 1148 C 111.994 2.72288 -2.3565 0
M  V30 1149 C 111.847 2.32956 -3.84775 0
M  V30 1150 C 113.166 3.74414 -2.31306 0
M  V30 1151 H 110.285 0.540062 -0.5015 0
M  V30 1152 H 112.927 0.830547 -1.70886 0
M  V30 1153 H 111.077 3.28457 -2.07481 0
M  V30 1154 H 112.749 1.82356 -4.23726 0
M  V30 1155 H 110.992 1.65088 -4.01159 0
M  V30 1156 H 111.663 3.21362 -4.4881 0
M  V30 1157 H 114.139 3.27849 -2.56231 0
M  V30 1158 H 113.015 4.58414 -3.01907 0
M  V30 1159 H 113.276 4.21909 -1.32081 0
M  V30 1160 N 112.336 1.25143 0.95797 0
M  V30 1161 C 113.246 1.06968 2.08794 0
M  V30 1162 C 114.262 0.00773911 1.73998 0
M  V30 1163 O 115.438 0.207972 2.00323 0
M  V30 1164 C 112.503 0.68691 3.39827 0
M  V30 1165 C 111.564 1.82641 3.88511 0
M  V30 1166 C 110.797 1.46181 5.1329 0
M  V30 1167 O 111.02 0.355971 5.69288 0
M  V30 1168 O 109.954 2.29085 5.566 0
M  V30 1169 H 113.78 2.01723 2.27027 0
M  V30 1170 H 111.365 1.04051 1.07209 0
M  V30 1171 H 113.247 0.485417 4.18595 0
M  V30 1172 H 111.922 -0.231417 3.22872 0
M  V30 1173 H 110.829 2.08274 3.10762 0
M  V30 1174 H 112.162 2.72386 4.09959 0
M  V30 1175 N 113.814 -1.1601 1.06675 0
M  V30 1176 C 114.762 -2.22586 0.675157 0
M  V30 1177 C 115.756 -1.66525 -0.310766 0
M  V30 1178 O 116.962 -1.79145 -0.175215 0
M  V30 1179 H 113.337 -0.724855 0.200223 0
M  V30 1180 H 115.308 -2.52899 1.58381 0
M  V30 1181 C 114.057 -3.47604 0.0817162 0
M  V30 1182 H 113.38 -3.91058 0.831484 0
M  V30 1183 H 114.82 -4.23718 -0.154708 0
M  V30 1184 C 113.279 -3.15718 -1.17576 0
M  V30 1185 O 113.809 -3.31878 -2.26318 0
M  V30 1186 N 112.015 -2.69816 -1.07923 0
M  V30 1187 H 111.562 -2.56866 -0.194293 0
M  V30 1188 H 111.52 -2.48855 -1.92141 0
M  V30 1189 N 115.292 -0.849877 -1.32721 0
M  V30 1190 C 116.239 -0.289033 -2.28983 0
M  V30 1191 C 117.209 0.601324 -1.54833 0
M  V30 1192 O 118.394 0.537253 -1.8308 0
M  V30 1193 C 115.534 0.520623 -3.4115 0
M  V30 1194 C 114.647 -0.394989 -4.3019 0
M  V30 1195 C 113.782 0.426834 -5.29482 0
M  V30 1196 C 112.821 -0.486476 -6.10164 0
M  V30 1197 N 111.958 0.297879 -7.01468 0
M  V30 1198 H 116.798 -1.11519 -2.76347 0
M  V30 1199 H 114.335 -0.56138 -1.35967 0
M  V30 1200 H 116.293 1.00563 -4.04899 0
M  V30 1201 H 114.923 1.31165 -2.9495 0
M  V30 1202 H 113.975 -0.99836 -3.67065 0
M  V30 1203 H 115.287 -1.09612 -4.86607 0
M  V30 1204 H 114.441 0.975205 -5.98811 0
M  V30 1205 H 113.18 1.16136 -4.73671 0
M  V30 1206 H 112.185 -1.04677 -5.39743 0
M  V30 1207 H 113.41 -1.21953 -6.6806 0
M  V30 1208 H 111.356 1.01558 -6.48091 0
M  V30 1209 H 111.273 -0.344318 -7.55216 0
M  V30 1210 H 112.541 0.828131 -7.75089 0
M  V30 1211 N 116.77 1.45427 -0.607355 0
M  V30 1212 C 117.995 2.07124 -0.107006 0
M  V30 1213 C 118.42 1.44906 1.19933 0
M  V30 1214 O 117.778 0.541687 1.73019 0
M  V30 1215 C 117.826 3.60595 0.0194119 0
M  V30 1216 O 116.93 3.98285 1.0697 0
M  V30 1217 H 116.271 0.659868 -0.0739597 0
M  V30 1218 H 118.801 1.86683 -0.837297 0
M  V30 1219 H 118.811 4.07419 0.2177 0
M  V30 1220 H 117.486 4.05266 -0.934453 0
M  V30 1221 H 116.063 3.63133 0.847889 0
M  V30 1222 N 118.248 0.346503 1.53744 0
M  V30 1223 C 119.659 -0.136779 1.86198 0
M  V30 1224 C 120.01 -1.49749 1.26766 0
M  V30 1225 O 119.135 -2.08417 0.582355 0
M  V30 1226 C 119.73 -0.254966 3.37839 0
M  V30 1227 C 118.289 -0.682482 3.70161 0
M  V30 1228 C 117.436 0.181981 2.76702 0
M  V30 1229 H 120.387 0.565994 1.48264 0
M  V30 1230 H 120.408 -1.08195 3.64793 0
M  V30 1231 H 119.92 0.735526 3.81066 0
M  V30 1232 H 118.021 -1.68189 3.3248 0
M  V30 1233 H 118.134 -0.470326 4.76786 0
M  V30 1234 H 116.498 -0.34615 2.52337 0
M  V30 1235 H 117.281 1.16966 3.2276 0
M  V30 1236 N 119.726 -1.57421 0.075193 0
M  V30 1237 C 120.975 -1.92794 -0.592731 0
M  V30 1238 C 121.288 -0.957478 -1.70563 0
M  V30 1239 O 122.494 -1.20417 -2.43335 0
M  V30 1240 C 120.95 -3.42495 -1.10569 0
M  V30 1241 C 120.558 -4.47994 -0.0236121 0
M  V30 1242 C 122.302 -3.86864 -1.74748 0
M  V30 1243 C 120.209 -5.88829 -0.550803 0
M  V30 1244 H 119.139 -0.719591 -0.225177 0
M  V30 1245 H 121.79 -1.82902 0.147978 0
M  V30 1246 H 120.172 -3.47471 -1.89947 0
M  V30 1247 H 121.346 -4.54637 0.751099 0
M  V30 1248 H 119.661 -4.13113 0.522159 0
M  V30 1249 H 122.258 -4.8947 -2.15229 0
M  V30 1250 H 122.601 -3.24417 -2.60882 0
M  V30 1251 H 123.134 -3.84504 -1.01986 0
M  V30 1252 H 119.873 -6.54929 0.273457 0
M  V30 1253 H 119.393 -5.85698 -1.29296 0
M  V30 1254 H 121.072 -6.38811 -1.02613 0
M  V30 1255 N 121.204 0.198386 -1.56346 0
M  V30 1256 C 122.429 0.939682 -1.84891 0
M  V30 1257 C 122.854 1.76202 -0.658369 0
M  V30 1258 O 122.212 1.76993 0.392851 0
M  V30 1259 C 122.26 1.81428 -3.11635 0
M  V30 1260 O 121.364 2.91265 -2.91956 0
M  V30 1261 H 120.705 0.264807 -0.608912 0
M  V30 1262 H 123.235 0.204695 -2.03573 0
M  V30 1263 H 123.245 2.21958 -3.42343 0
M  V30 1264 H 121.92 1.21004 -3.97908 0
M  V30 1265 H 120.497 2.54514 -2.72538 0
M  V30 1266 N 122.682 1.50554 0.465978 0
M  V30 1267 C 123.592 1.72585 1.58907 0
M  V30 1268 C 124.608 0.60911 1.6299 0
M  V30 1269 O 125.784 0.88804 1.80765 0
M  V30 1270 C 122.849 1.81995 2.95091 0
M  V30 1271 C 121.91 3.05751 3.01355 0
M  V30 1272 C 121.143 3.14702 4.31043 0
M  V30 1273 O 121.366 2.30313 5.21835 0
M  V30 1274 O 120.3 4.07468 4.43005 0
M  V30 1275 H 124.126 2.67799 1.43239 0
M  V30 1276 H 121.711 1.34711 0.646013 0
M  V30 1277 H 123.593 1.90335 3.75966 0
M  V30 1278 H 122.268 0.899659 3.10947 0
M  V30 1279 H 121.175 3.02908 2.19539 0
M  V30 1280 H 122.508 3.97375 2.90437 0
M  V30 1281 N 124.16 -0.719506 1.40217 0
M  V30 1282 C 125.408 -1.47641 1.3801 0
M  V30 1283 C 125.729 -1.94992 -0.018145 0
M  V30 1284 O 124.999 -1.70073 -0.972207 0
M  V30 1285 H 123.579 -0.547744 0.507923 0
M  V30 1286 H 126.241 -0.853187 1.75233 0
M  V30 1287 H 125.337 -2.35112 2.05253 0
M  V30 1288 N 125.638 -1.25649 -0.95132 0
M  V30 1289 C 126.885 -1.10594 -1.69633 0
M  V30 1290 C 127.213 0.352515 -1.91279 0
M  V30 1291 O 126.468 1.27601 -1.4838 0
M  V30 1292 C 126.767 -1.80909 -3.08231 0
M  V30 1293 C 126.433 -3.30825 -3.06375 0
M  V30 1294 C 125.095 -3.71722 -3.05576 0
M  V30 1295 C 127.447 -4.26589 -2.99452 0
M  V30 1296 C 124.775 -5.06788 -2.95606 0
M  V30 1297 C 127.127 -5.61683 -2.91024 0
M  V30 1298 C 125.791 -6.01904 -2.88562 0
M  V30 1299 H 125.061 -0.404691 -0.620731 0
M  V30 1300 H 127.708 -1.55964 -1.11119 0
M  V30 1301 H 126.013 -1.27979 -3.70309 0
M  V30 1302 H 127.71 -1.6671 -3.64704 0
M  V30 1303 H 124.3 -2.98287 -3.07771 0
M  V30 1304 H 128.484 -3.95982 -2.99185 0
M  V30 1305 H 123.74 -5.37126 -2.92071 0
M  V30 1306 H 127.914 -6.35578 -2.84629 0
M  V30 1307 H 125.541 -7.06521 -2.80593 0
M  V30 1308 N 127.117 1.15442 -1.07289 0
M  V30 1309 C 128.342 1.90638 -0.816828 0
M  V30 1310 C 128.767 1.77445 0.624083 0
M  V30 1311 O 128.125 1.10671 1.43602 0
M  V30 1312 C 128.173 3.39008 -1.22906 0
M  V30 1313 O 127.277 4.10701 -0.373975 0
M  V30 1314 H 126.618 0.593555 -0.297638 0
M  V30 1315 H 129.148 1.46198 -1.43134 0
M  V30 1316 H 129.158 3.89801 -1.20497 0
M  V30 1317 H 127.833 3.47929 -2.27856 0
M  V30 1318 H 126.41 3.70046 -0.460499 0
M  V30 1319 N 128.595 0.856903 1.32268 0
M  V30 1320 C 129.844 0.457599 1.96441 0
M  V30 1321 C 130.157 -0.992426 1.68553 0
M  V30 1322 O 131.363 -1.49727 2.26482 0
M  V30 1323 C 129.819 0.767358 3.51624 0
M  V30 1324 C 129.427 2.23326 3.88367 0
M  V30 1325 C 131.171 0.435887 4.22256 0
M  V30 1326 C 129.078 2.48613 5.36606 0
M  V30 1327 H 128.008 0.167387 0.735185 0
M  V30 1328 H 130.659 1.048 1.5063 0
M  V30 1329 H 129.041 0.106367 3.95857 0
M  V30 1330 H 130.215 2.93623 3.55137 0
M  V30 1331 H 128.53 2.52948 3.30766 0
M  V30 1332 H 131.127 0.602202 5.31298 0
M  V30 1333 H 131.47 -0.622672 4.11617 0
M  V30 1334 H 132.003 1.05286 3.83614 0
M  V30 1335 H 128.742 3.53101 5.52268 0
M  V30 1336 H 128.262 1.82896 5.71235 0
M  V30 1337 H 129.941 2.32676 6.03714 0
M  V30 1338 N 130.073 -1.45103 0.615059 0
M  V30 1339 C 131.35 -1.95549 0.0448276 0
M  V30 1340 C 131.73 -1.55737 -1.4251 0
M  V30 1341 O 131.078 -0.823556 -2.13143 0
M  V30 1342 C 131.288 -3.48098 0.250785 0
M  V30 1343 C 132.636 -4.24384 0.135509 0
M  V30 1344 O 133.66 -3.55738 0.181299 0
M  V30 1345 O 132.519 -5.46493 0.0268878 0
M  V30 1346 H 129.613 -0.8264 -0.0314845 0
M  V30 1347 H 132.159 -1.55232 0.685642 0
M  V30 1348 H 130.931 -3.7007 1.27139 0
M  V30 1349 H 130.554 -3.95323 -0.424937 0
M  V30 1350 N 131.551 -0.354651 -1.53558 0
M  V30 1351 C 132.514 0.484566 -2.24019 0
M  V30 1352 C 133.514 1.01861 -1.24422 0
M  V30 1353 O 134.704 0.906097 -1.4878 0
M  V30 1354 C 131.836 1.67615 -2.96847 0
M  V30 1355 H 133.029 -0.131843 -2.9961 0
M  V30 1356 H 130.582 -0.106165 -1.55939 0
M  V30 1357 H 131.317 2.33095 -2.25471 0
M  V30 1358 H 131.102 1.30029 -3.69912 0
M  V30 1359 H 132.592 2.27114 -3.50441 0
M  V30 1360 N 133.029 1.57378 -0.0835403 0
M  V30 1361 C 134.276 1.9393 0.58287 0
M  V30 1362 C 134.604 0.964455 1.68904 0
M  V30 1363 O 133.859 -0.0179474 1.95692 0
M  V30 1364 C 134.158 3.37063 1.1884 0
M  V30 1365 C 133.824 4.50424 0.207194 0
M  V30 1366 C 132.486 4.81159 -0.0627115 0
M  V30 1367 C 134.838 5.19136 -0.463426 0
M  V30 1368 C 132.166 5.77939 -1.01012 0
M  V30 1369 C 134.518 6.16931 -1.39924 0
M  V30 1370 C 133.182 6.46078 -1.67749 0
M  V30 1371 H 132.452 0.70964 0.213287 0
M  V30 1372 H 135.099 1.90856 -0.156916 0
M  V30 1373 H 133.404 3.3666 2.00418 0
M  V30 1374 H 135.101 3.6264 1.71153 0
M  V30 1375 H 131.691 4.2646 0.427747 0
M  V30 1376 H 135.875 4.95576 -0.268034 0
M  V30 1377 H 131.131 5.98842 -1.23283 0
M  V30 1378 H 135.305 6.69273 -1.92476 0
M  V30 1379 H 132.932 7.2088 -2.41321 0
M  V30 1380 N 134.507 -0.190092 1.56449 0
M  V30 1381 C 135.755 -0.907908 1.80559 0
M  V30 1382 C 136.076 -1.83583 0.657438 0
M  V30 1383 O 135.346 -1.93203 -0.323924 0
M  V30 1384 H 133.926 -0.338247 0.666032 0
M  V30 1385 H 136.588 -0.194403 1.93928 0
M  V30 1386 H 135.684 -1.49604 2.73907 0
M  V30 1387 N 135.985 -1.50799 -0.457987 0
M  V30 1388 C 137.231 -1.62683 -1.21088 0
M  V30 1389 C 137.564 -0.332268 -1.91336 0
M  V30 1390 O 136.839 0.667043 -1.82704 0
M  V30 1391 C 137.122 -2.81615 -2.24422 0
M  V30 1392 C 136.975 -4.20989 -1.58392 0
M  V30 1393 C 138.294 -2.96085 -3.2561 0
M  V30 1394 H 135.413 -0.592087 -0.438864 0
M  V30 1395 H 138.055 -1.83225 -0.50286 0
M  V30 1396 H 136.205 -2.64231 -2.84806 0
M  V30 1397 H 137.877 -4.49994 -1.01504 0
M  V30 1398 H 136.12 -4.24641 -0.886704 0
M  V30 1399 H 136.791 -5.0016 -2.33547 0
M  V30 1400 H 139.267 -3.12042 -2.75262 0
M  V30 1401 H 138.143 -3.80902 -3.95228 0
M  V30 1402 H 138.404 -2.0726 -3.90507 0
M  V30 1403 N 137.463 0.71206 -1.40597 0
M  V30 1404 C 138.395 1.83704 -1.37061 0
M  V30 1405 C 139.408 1.60453 -0.275426 0
M  V30 1406 O 140.597 1.70262 -0.53602 0
M  V30 1407 C 137.697 3.20172 -1.11099 0
M  V30 1408 C 136.87 3.7059 -2.3234 0
M  V30 1409 C 135.929 4.85681 -2.02485 0
M  V30 1410 O 134.955 4.9815 -2.75382 0
M  V30 1411 N 136.157 5.71735 -1.00497 0
M  V30 1412 H 138.922 1.87235 -2.34016 0
M  V30 1413 H 136.483 0.893739 -1.34996 0
M  V30 1414 H 138.475 3.94768 -0.891064 0
M  V30 1415 H 137.045 3.11767 -0.227989 0
M  V30 1416 H 136.265 2.87085 -2.7014 0
M  V30 1417 H 137.553 4.01011 -3.13157 0
M  V30 1418 H 136.951 5.64275 -0.401298 0
M  V30 1419 H 135.508 6.463 -0.844942 0
M  V30 1420 N 138.941 1.26152 0.944643 0
M  V30 1421 C 139.851 1.09176 2.07648 0
M  V30 1422 C 140.867 0.0261935 1.7398 0
M  V30 1423 O 142.043 0.229208 2.00091 0
M  V30 1424 C 139.108 0.722915 3.39079 0
M  V30 1425 C 138.169 1.86752 3.86552 0
M  V30 1426 C 137.402 1.51617 5.11711 0
M  V30 1427 O 137.625 0.416331 5.68879 0
M  V30 1428 O 136.559 2.34975 5.54139 0
M  V30 1429 H 140.385 2.0412 2.24875 0
M  V30 1430 H 137.97 1.05182 1.061 0
M  V30 1431 H 139.852 0.529787 4.18056 0
M  V30 1432 H 138.527 -0.197159 3.23099 0
M  V30 1433 H 137.434 2.11558 3.08535 0
M  V30 1434 H 138.767 2.76719 4.07047 0
M  V30 1435 N 140.419 -1.14872 1.07899 0
M  V30 1436 C 141.665 -1.86064 0.806725 0
M  V30 1437 C 141.998 -1.82434 -0.665706 0
M  V30 1438 O 141.273 -1.25138 -1.48899 0
M  V30 1439 C 141.556 -3.34929 1.32267 0
M  V30 1440 C 141.409 -3.47161 2.86006 0
M  V30 1441 C 142.728 -4.29863 0.943717 0
M  V30 1442 H 139.847 -0.675591 0.294526 0
M  V30 1443 H 142.489 -1.34925 1.33773 0
M  V30 1444 H 140.639 -3.78611 0.870974 0
M  V30 1445 H 142.311 -3.12302 3.39507 0
M  V30 1446 H 140.554 -2.88539 3.23925 0
M  V30 1447 H 141.225 -4.51777 3.17177 0
M  V30 1448 H 143.701 -3.9417 1.33302 0
M  V30 1449 H 142.577 -5.32494 1.33198 0
M  V30 1450 H 142.838 -4.41846 -0.149796 0
M  V30 1451 N 141.898 -0.863906 -1.31812 0
M  V30 1452 C 143.147 -0.46801 -1.96195 0
M  V30 1453 C 143.46 0.983474 -1.69077 0
M  V30 1454 O 144.666 1.48523 -2.27273 0
M  V30 1455 C 143.122 -0.785995 -3.51212 0
M  V30 1456 C 142.73 -2.25383 -3.87178 0
M  V30 1457 C 144.474 -0.458274 -4.22019 0
M  V30 1458 C 142.381 -2.51455 -5.3528 0
M  V30 1459 H 141.311 -0.171283 -0.734287 0
M  V30 1460 H 143.962 -1.05597 -1.50072 0
M  V30 1461 H 142.344 -0.127359 -3.95795 0
M  V30 1462 H 143.518 -2.95502 -3.53575 0
M  V30 1463 H 141.833 -2.54698 -3.2942 0
M  V30 1464 H 144.43 -0.630369 -5.30971 0
M  V30 1465 H 144.773 0.600834 -4.11941 0
M  V30 1466 H 145.306 -1.07319 -3.8305 0
M  V30 1467 H 142.045 -3.56025 -5.50387 0
M  V30 1468 H 141.565 -1.85923 -5.70257 0
M  V30 1469 H 143.244 -2.35874 -6.02472 0
M  V30 1470 N 143.376 1.44774 -0.622745 0
M  V30 1471 C 144.323 2.30635 0.0871679 0
M  V30 1472 C 145.293 1.42994 0.845097 0
M  V30 1473 O 146.478 1.71907 0.827812 0
M  V30 1474 C 143.618 3.28144 1.06844 0
M  V30 1475 C 142.731 4.30888 0.309809 0
M  V30 1476 C 141.866 5.15494 1.28215 0
M  V30 1477 C 140.905 6.09953 0.512198 0
M  V30 1478 N 140.042 6.87287 1.43458 0
M  V30 1479 H 144.882 2.90803 -0.650974 0
M  V30 1480 H 142.419 1.43286 -0.33281 0
M  V30 1481 H 144.377 3.83157 1.65066 0
M  V30 1482 H 143.007 2.69695 1.77382 0
M  V30 1483 H 142.059 3.78414 -0.388181 0
M  V30 1484 H 143.371 4.97955 -0.290254 0
M  V30 1485 H 142.525 5.74983 1.93596 0
M  V30 1486 H 141.264 4.48481 1.91614 0
M  V30 1487 H 140.269 5.49581 -0.155151 0
M  V30 1488 H 141.494 6.78999 -0.116958 0
M  V30 1489 H 139.44 6.2295 2.05594 0
M  V30 1490 H 139.357 7.50763 0.888335 0
M  V30 1491 H 140.625 7.51306 2.07749 0
M  V30 1492 N 144.854 0.36279 1.53368 0
M  V30 1493 C 145.817 -0.472679 2.24273 0
M  V30 1494 C 146.817 -1.012 1.24961 0
M  V30 1495 O 148.007 -0.898194 1.49259 0
M  V30 1496 C 145.139 -1.66039 2.97731 0
M  V30 1497 H 146.332 0.14773 2.99536 0
M  V30 1498 H 143.885 0.114434 1.55881 0
M  V30 1499 H 144.62 -2.31896 2.26704 0
M  V30 1500 H 144.405 -1.28066 3.70596 0
M  V30 1501 H 145.895 -2.25252 3.51641 0
M  V30 1502 N 146.332 -1.57332 0.0918853 0
M  V30 1503 C 147.58 -1.93853 -0.571446 0
M  V30 1504 C 147.901 -0.974212 -1.6892 0
M  V30 1505 O 147.171 -0.0257254 -1.95883 0
M  V30 1506 H 145.751 -0.715666 -0.214082 0
M  V30 1507 H 148.413 -1.94287 0.154464 0
M  V30 1508 H 147.509 -2.96191 -0.983729 0
M  V30 1509 N 147.81 0.181792 -1.56548 0
M  V30 1510 C 148.72 1.24538 -1.98815 0
M  V30 1511 C 149.736 1.49045 -0.897861 0
M  V30 1512 O 150.912 1.61399 -1.20467 0
M  V30 1513 C 147.977 2.56683 -2.33055 0
M  V30 1514 C 147.038 2.40131 -3.55859 0
M  V30 1515 C 146.271 3.65975 -3.88456 0
M  V30 1516 O 146.494 4.70711 -3.22161 0
M  V30 1517 O 145.428 3.6071 -4.81842 0
M  V30 1518 H 149.254 0.916647 -2.89536 0
M  V30 1519 H 146.839 0.387842 -1.44278 0
M  V30 1520 H 148.721 3.34655 -2.56094 0
M  V30 1521 H 147.396 2.89157 -1.45498 0
M  V30 1522 H 146.303 1.60226 -3.38051 0
M  V30 1523 H 147.636 2.12585 -4.43924 0
M  V30 1524 N 149.288 1.51039 0.449983 0
M  V30 1525 C 150.516 1.66869 1.2232 0
M  V30 1526 C 150.931 0.360727 1.85322 0
M  V30 1527 O 150.288 -0.659531 1.70166 0
M  V30 1528 C 150.339 2.77524 2.31652 0
M  V30 1529 O 150.06 4.03252 1.7123 0
M  V30 1530 C 151.561 3.04512 3.2216 0
M  V30 1531 H 148.781 0.560326 0.369155 0
M  V30 1532 H 151.325 1.97385 0.534719 0
M  V30 1533 H 149.48 2.49642 2.96239 0
M  V30 1534 H 149.894 4.64609 2.43389 0
M  V30 1535 H 151.368 3.85551 3.95038 0
M  V30 1536 H 151.845 2.16415 3.8218 0
M  V30 1537 H 152.451 3.34005 2.63288 0
M  V30 1538 N 150.766 -0.704594 1.40972 0
M  V30 1539 C 151.713 -1.81862 1.42109 0
M  V30 1540 C 152.683 -1.63781 0.276593 0
M  V30 1541 O 153.868 -1.84759 0.4763 0
M  V30 1542 C 151.008 -3.19669 1.30022 0
M  V30 1543 C 150.121 -3.49246 2.54267 0
M  V30 1544 C 149.256 -4.76618 2.3454 0
M  V30 1545 C 148.295 -4.99133 3.54306 0
M  V30 1546 N 147.432 -6.17726 3.33706 0
M  V30 1547 H 152.272 -1.80226 2.37324 0
M  V30 1548 H 149.809 -0.880238 1.17857 0
M  V30 1549 H 151.767 -3.99263 1.21018 0
M  V30 1550 H 150.397 -3.20506 0.384192 0
M  V30 1551 H 149.449 -2.64125 2.73756 0
M  V30 1552 H 150.761 -3.61788 3.43381 0
M  V30 1553 H 149.915 -5.64249 2.22952 0
M  V30 1554 H 148.654 -4.66305 1.42867 0
M  V30 1555 H 147.659 -4.09953 3.66359 0
M  V30 1556 H 148.884 -5.11311 4.4692 0
M  V30 1557 H 146.83 -6.08642 2.44725 0
M  V30 1558 H 146.747 -6.30995 4.16391 0
M  V30 1559 H 148.015 -7.08115 3.25873 0
M  V30 1560 N 152.244 -1.26651 -0.937939 0
M  V30 1561 C 153.472 -1.15173 -1.7188 0
M  V30 1562 C 153.887 0.292668 -1.86518 0
M  V30 1563 O 153.244 1.20014 -1.37488 0
M  V30 1564 C 153.295 -1.81925 -3.12387 0
M  V30 1565 O 153.016 -3.2072 -2.98446 0
M  V30 1566 C 154.517 -1.76442 -4.06673 0
M  V30 1567 H 151.737 -0.400911 -0.538063 0
M  V30 1568 H 154.281 -1.67332 -1.1756 0
M  V30 1569 H 152.436 -1.33696 -3.63599 0
M  V30 1570 H 152.85 -3.53802 -3.872 0
M  V30 1571 H 154.324 -2.27781 -5.02812 0
M  V30 1572 H 154.801 -0.731608 -4.33064 0
M  V30 1573 H 155.407 -2.24238 -3.61382 0
M  V30 1574 N 153.722 1.14298 -1.08507 0
M  V30 1575 C 154.971 1.84708 -0.810305 0
M  V30 1576 C 155.284 1.83903 0.666271 0
M  V30 1577 O 156.49 2.50112 1.05624 0
M  V30 1578 C 154.946 3.31572 -1.39957 0
M  V30 1579 C 154.554 3.40791 -2.90801 0
M  V30 1580 C 156.298 4.07087 -1.20334 0
M  V30 1581 C 154.205 4.81872 -3.4286 0
M  V30 1582 H 153.135 0.691985 -0.299454 0
M  V30 1583 H 155.786 1.28841 -1.30661 0
M  V30 1584 H 154.168 3.87183 -0.830976 0
M  V30 1585 H 155.342 2.95225 -3.53806 0
M  V30 1586 H 153.657 2.78732 -3.0935 0
M  V30 1587 H 156.254 5.11225 -1.56693 0
M  V30 1588 H 156.597 4.16054 -0.143237 0
M  V30 1589 H 157.13 3.57779 -1.73893 0
M  V30 1590 H 153.869 4.78094 -4.48449 0
M  V30 1591 H 153.389 5.27972 -2.84615 0
M  V30 1592 H 155.068 5.50765 -3.39509 0
M  V30 1593 N 155.201 0.870884 1.31352 0
M  V30 1594 C 156.426 0.495957 2.01383 0
M  V30 1595 C 156.851 -0.904324 1.64935 0
M  V30 1596 O 156.209 -1.59687 0.858466 0
M  V30 1597 C 156.257 0.661433 3.54482 0
M  V30 1598 O 155.361 -0.298851 4.11316 0
M  V30 1599 H 154.702 0.197158 0.634054 0
M  V30 1600 H 157.232 1.17455 1.67527 0
M  V30 1601 H 157.242 0.555072 4.04207 0
M  V30 1602 H 155.917 1.68246 3.8035 0
M  V30 1603 H 154.494 -0.147368 3.72609 0
M  V30 1604 N 156.679 -1.44442 0.630414 0
M  V30 1605 C 157.926 -2.02052 0.134617 0
M  V30 1606 C 158.254 -1.49576 -1.24327 0
M  V30 1607 O 157.509 -0.669806 -1.83881 0
M  V30 1608 C 157.808 -3.57332 0.0697835 0
M  V30 1609 C 157.474 -4.29058 1.38635 0
M  V30 1610 C 156.136 -4.4837 1.74694 0
M  V30 1611 C 158.488 -4.69872 2.25543 0
M  V30 1612 C 155.816 -5.05756 2.97369 0
M  V30 1613 C 158.168 -5.28616 3.47487 0
M  V30 1614 C 156.832 -5.46147 3.8377 0
M  V30 1615 H 156.102 -0.739361 0.0492598 0
M  V30 1616 H 158.749 -1.73217 0.816586 0
M  V30 1617 H 157.054 -3.85577 -0.695553 0
M  V30 1618 H 158.751 -3.99637 -0.330344 0
M  V30 1619 H 155.341 -4.14357 1.09574 0
M  V30 1620 H 159.525 -4.54666 1.98979 0
M  V30 1621 H 154.781 -5.17515 3.25558 0
M  V30 1622 H 158.955 -5.59192 4.15063 0
M  V30 1623 H 156.582 -5.9038 4.7891 0
M  V30 1624 N 158.157 -0.370918 -1.53173 0
M  V30 1625 C 159.385 0.217704 -2.05751 0
M  V30 1626 C 159.8 1.42018 -1.24404 0
M  V30 1627 O 159.157 1.80245 -0.286033 0
M  V30 1628 C 159.208 0.605954 -3.56385 0
M  V30 1629 O 158.929 -0.548734 -4.3465 0
M  V30 1630 C 160.43 1.2524 -4.25241 0
M  V30 1631 H 157.65 0.0371659 -0.66997 0
M  V30 1632 H 160.194 -0.530832 -1.9749 0
M  V30 1633 H 158.349 1.3044 -3.6478 0
M  V30 1634 H 158.763 -0.23376 -5.23979 0
M  V30 1635 H 160.237 1.47458 -5.3194 0
M  V30 1636 H 160.714 2.2143 -3.79296 0
M  V30 1637 H 161.32 0.595233 -4.21114 0
M  V30 1638 N 159.635 1.57281 -0.100228 0
M  V30 1639 C 160.598 2.13158 0.842398 0
M  V30 1640 C 161.598 1.06202 1.20738 0
M  V30 1641 O 162.788 1.32066 1.13597 0
M  V30 1642 C 159.92 2.65639 2.13655 0
M  V30 1643 H 161.113 2.97766 0.357114 0
M  V30 1644 H 158.666 1.5559 0.148823 0
M  V30 1645 H 159.401 1.84566 2.66657 0
M  V30 1646 H 159.186 3.43844 1.88451 0
M  V30 1647 H 160.676 3.08846 2.81077 0
M  V30 1648 N 161.113 -0.173488 1.56642 0
M  V30 1649 C 162.39 -0.917617 1.7274 0
M  V30 1650 C 162.77 -2.00484 0.661027 0
M  V30 1651 O 162.118 -2.26184 -0.32453 0
M  V30 1652 C 162.328 -1.48433 3.15862 0
M  V30 1653 C 163.676 -1.95809 3.76754 0
M  V30 1654 O 164.7 -1.58231 3.19126 0
M  V30 1655 O 163.559 -2.65024 4.77938 0
M  V30 1656 H 160.653 -0.431772 0.705338 0
M  V30 1657 H 163.199 -0.161487 1.6893 0
M  V30 1658 H 161.971 -0.701715 3.84957 0
M  V30 1659 H 161.594 -2.30471 3.23989 0
M  V30 1660 N 162.591 -1.51276 -0.441967 0
M  V30 1661 C 163.538 -1.72256 -1.53612 0
M  V30 1662 C 164.508 -0.564164 -1.56225 0
M  V30 1663 O 165.693 -0.798074 -1.73307 0
M  V30 1664 C 162.833 -1.84932 -2.91366 0
M  V30 1665 C 161.946 -3.12459 -2.98317 0
M  V30 1666 C 161.081 -3.15758 -4.27166 0
M  V30 1667 C 160.12 -4.37619 -4.27967 0
M  V30 1668 N 159.257 -4.38493 -5.48333 0
M  V30 1669 H 164.097 -2.65654 -1.35026 0
M  V30 1670 H 161.634 -1.31662 -0.656009 0
M  V30 1671 H 163.592 -1.90263 -3.7129 0
M  V30 1672 H 162.222 -0.949461 -3.08521 0
M  V30 1673 H 161.274 -3.1646 -2.11086 0
M  V30 1674 H 162.586 -4.02382 -2.94771 0
M  V30 1675 H 161.74 -3.19979 -5.15459 0
M  V30 1676 H 160.479 -2.23715 -4.33362 0
M  V30 1677 H 159.484 -4.33579 -3.38067 0
M  V30 1678 H 160.709 -5.30921 -4.23438 0
M  V30 1679 H 158.655 -3.49318 -5.55259 0
M  V30 1680 H 158.572 -5.22219 -5.46647 0
M  V30 1681 H 159.84 -4.469 -6.38671 0
M  V30 1682 N 164.069 0.697108 -1.41344 0
M  V30 1683 C 165.032 1.79281 -1.42797 0
M  V30 1684 C 166.032 1.57607 -0.318837 0
M  V30 1685 O 167.222 1.64309 -0.578642 0
M  V30 1686 C 164.354 3.17632 -1.23785 0
M  V30 1687 H 165.547 1.79385 -2.40335 0
M  V30 1688 H 163.1 0.904582 -1.27464 0
M  V30 1689 H 163.835 3.23167 -0.270814 0
M  V30 1690 H 163.62 3.34765 -2.04144 0
M  V30 1691 H 165.11 3.97617 -1.27633 0
M  V30 1692 N 165.547 1.27147 0.931209 0
M  V30 1693 C 166.795 1.13055 1.6752 0
M  V30 1694 C 167.116 -0.324791 1.92276 0
M  V30 1695 O 166.386 -1.22775 1.52654 0
M  V30 1696 H 164.966 0.415391 0.620854 0
M  V30 1697 H 167.628 1.59623 1.11833 0
M  V30 1698 H 166.724 1.65694 2.64485 0
M  V30 1699 N 167.025 -1.13721 1.09112 0
M  V30 1700 C 167.988 -2.17222 0.731241 0
M  V30 1701 C 168.988 -1.59035 -0.237566 0
M  V30 1702 O 170.178 -1.74192 -0.0161704 0
M  V30 1703 C 167.31 -3.40804 0.0808443 0
M  V30 1704 H 168.503 -2.50573 1.64783 0
M  V30 1705 H 166.056 -1.28493 0.889897 0
M  V30 1706 H 166.791 -3.1304 -0.847127 0
M  V30 1707 H 166.576 -3.84306 0.777896 0
M  V30 1708 H 168.066 -4.1731 -0.155657 0
M  V30 1709 N 168.503 -0.877838 -1.30888 0
M  V30 1710 C 169.75 -0.492696 -1.96415 0
M  V30 1711 C 170.078 0.956671 -1.69346 0
M  V30 1712 O 169.333 1.68993 -0.986913 0
M  V30 1713 C 169.632 -0.705748 -3.50363 0
M  V30 1714 C 169.298 -2.1291 -3.97467 0
M  V30 1715 C 167.96 -2.51834 -4.1004 0
M  V30 1716 C 170.312 -3.05702 -4.22132 0
M  V30 1717 C 167.64 -3.82775 -4.44635 0
M  V30 1718 C 169.992 -4.36166 -4.58194 0
M  V30 1719 C 168.656 -4.74993 -4.68975 0
M  V30 1720 H 167.926 -0.18029 -0.718733 0
M  V30 1721 H 170.573 -1.11233 -1.55883 0
M  V30 1722 H 168.878 -0.00303058 -3.918 0
M  V30 1723 H 170.575 -0.387456 -3.99124 0
M  V30 1724 H 167.165 -1.81694 -3.88182 0
M  V30 1725 H 171.349 -2.76853 -4.11906 0
M  V30 1726 H 166.605 -4.12609 -4.51181 0
M  V30 1727 H 170.779 -5.08111 -4.76231 0
M  V30 1728 H 168.406 -5.76495 -4.95537 0
M  V30 1729 N 169.982 1.44106 -0.638065 0
M  V30 1730 C 171.21 2.06336 -0.152615 0
M  V30 1731 C 171.625 1.47731 1.17563 0
M  V30 1732 O 170.982 0.602806 1.72257 0
M  V30 1733 C 171.033 3.61479 -0.0391491 0
M  V30 1734 O 170.754 4.17903 -1.31487 0
M  V30 1735 C 172.255 4.40757 0.474176 0
M  V30 1736 H 169.475 0.665862 -0.0828776 0
M  V30 1737 H 172.019 1.84862 -0.87443 0
M  V30 1738 H 170.174 3.82191 0.633142 0
M  V30 1739 H 170.588 5.11416 -1.16421 0
M  V30 1740 H 172.062 5.49707 0.502562 0
M  V30 1741 H 172.539 4.12697 1.50258 0
M  V30 1742 H 173.145 4.24979 -0.165102 0
M  V30 1743 N 171.46 0.379036 1.52974 0
M  V30 1744 C 172.709 -0.207612 2.00629 0
M  V30 1745 C 173.022 -1.48758 1.27006 0
M  V30 1746 O 174.228 -2.15365 1.65318 0
M  V30 1747 C 172.684 -0.42053 3.57435 0
M  V30 1748 C 172.292 0.845587 4.39948 0
M  V30 1749 C 174.036 -0.964102 4.13407 0
M  V30 1750 C 171.943 0.601513 5.88333 0
M  V30 1751 H 170.873 -0.0813591 0.749598 0
M  V30 1752 H 173.524 0.499853 1.76561 0
M  V30 1753 H 171.906 -1.18959 3.7771 0
M  V30 1754 H 173.08 1.61848 4.31442 0
M  V30 1755 H 171.395 1.31336 3.95145 0
M  V30 1756 H 173.992 -1.16225 5.21916 0
M  V30 1757 H 174.335 -1.93019 3.68849 0
M  V30 1758 H 174.868 -0.25487 3.96983 0
M  V30 1759 H 171.607 1.53831 6.37194 0
M  V30 1760 H 171.127 -0.132628 5.99653 0
M  V30 1761 H 172.806 0.232134 6.46583 0
M  V30 1762 N 172.938 -1.57226 0.108567 0
M  V30 1763 C 174.184 -1.95919 -0.546564 0
M  V30 1764 C 174.539 -0.990417 -1.6495 0
M  V30 1765 O 173.832 -0.0186593 -1.91591 0
M  V30 1766 C 174.026 -3.38911 -1.13463 0
M  V30 1767 C 173.855 -4.4961 -0.0901926 0
M  V30 1768 C 172.625 -5.04168 0.338008 0
M  V30 1769 C 174.823 -5.09693 0.686808 0
M  V30 1770 N 172.805 -5.98434 1.36931 0
M  V30 1771 C 174.176 -5.99804 1.56958 0
M  V30 1772 C 176.231 -4.92388 0.738846 0
M  V30 1773 C 174.934 -6.74463 2.49983 0
M  V30 1774 C 176.96 -5.67719 1.65676 0
M  V30 1775 C 176.322 -6.57507 2.52713 0
M  V30 1776 H 172.421 -0.763312 -0.169936 0
M  V30 1777 H 175.005 -1.93728 0.194264 0
M  V30 1778 H 173.176 -3.41769 -1.84522 0
M  V30 1779 H 174.908 -3.64752 -1.75322 0
M  V30 1780 H 171.663 -4.73571 -0.0523673 0
M  V30 1781 H 172.087 -6.5027 1.88356 0
M  V30 1782 H 176.729 -4.22724 0.080084 0
M  V30 1783 H 174.447 -7.4338 3.16878 0
M  V30 1784 H 178.033 -5.56338 1.70233 0
M  V30 1785 H 176.913 -7.14778 3.22586 0
M  V30 1786 N 174.416 0.165178 -1.56732 0
M  V30 1787 C 175.656 0.887231 -1.8414 0
M  V30 1788 C 176.02 1.79159 -0.690353 0
M  V30 1789 O 177.221 2.55172 -0.845032 0
M  V30 1790 C 175.492 1.65674 -3.16681 0
M  V30 1791 S 177.051 2.42671 -3.6559 0
M  V30 1792 H 173.869 0.297042 -0.645978 0
M  V30 1793 H 176.471 0.148439 -1.94936 0
M  V30 1794 H 175.175 0.983507 -3.98441 0
M  V30 1795 H 174.706 2.43679 -3.08843 0
M  V30 1796 H 176.721 3.67499 -3.33406 0
M  V30 1797 N 175.894 1.51508 0.433938 0
M  V30 1798 C 176.826 1.69266 1.54537 0
M  V30 1799 C 177.839 0.573276 1.52373 0
M  V30 1800 O 179.028 0.847698 1.57087 0
M  V30 1801 C 176.128 1.69524 2.93453 0
M  V30 1802 C 175.301 2.98101 3.20085 0
M  V30 1803 C 174.36 2.90502 4.38742 0
M  V30 1804 O 173.386 3.64442 4.3723 0
M  V30 1805 N 174.588 2.06586 5.42496 0
M  V30 1806 H 177.353 2.65145 1.39708 0
M  V30 1807 H 174.914 1.49437 0.622922 0
M  V30 1808 H 176.906 1.62004 3.70859 0
M  V30 1809 H 175.476 0.812245 3.01863 0
M  V30 1810 H 174.696 3.19464 2.30947 0
M  V30 1811 H 175.984 3.83207 3.34708 0
M  V30 1812 H 175.382 1.45896 5.46563 0
M  V30 1813 H 173.939 2.04943 6.18742 0
M  V30 1814 N 177.372 -0.689602 1.41712 0
M  V30 1815 C 178.302 -1.81577 1.46806 0
M  V30 1816 C 179.283 -1.66945 0.326105 0
M  V30 1817 O 180.468 -1.86588 0.538377 0
M  V30 1818 C 177.598 -3.19762 1.35535 0
M  V30 1819 C 176.552 -3.49107 2.47605 0
M  V30 1820 C 175.878 -4.86711 2.21397 0
M  V30 1821 C 177.178 -3.47483 3.89939 0
M  V30 1822 H 178.872 -1.7757 2.41058 0
M  V30 1823 H 176.418 -0.852887 1.16025 0
M  V30 1824 H 178.371 -3.98263 1.3771 0
M  V30 1825 H 177.095 -3.24409 0.377708 0
M  V30 1826 H 175.754 -2.72959 2.44722 0
M  V30 1827 H 175.402 -4.8799 1.21961 0
M  V30 1828 H 175.102 -5.0731 2.96497 0
M  V30 1829 H 176.626 -5.67515 2.25297 0
M  V30 1830 H 178.04 -4.1598 3.94505 0
M  V30 1831 H 176.437 -3.79615 4.64771 0
M  V30 1832 H 177.507 -2.46341 4.17665 0
M  V30 1833 N 178.85 -1.27639 -0.924453 0
M  V30 1834 C 179.8 -1.07295 -2.01176 0
M  V30 1835 C 180.784 5.77352e-05 -1.609 0
M  V30 1836 O 181.976 -0.218855 -1.75642 0
M  V30 1837 C 179.105 -0.725592 -3.35544 0
M  V30 1838 C 178.191 -1.83691 -3.82254 0
M  V30 1839 N 178.582 -3.07697 -4.01443 0
M  V30 1840 C 176.88 -1.72433 -4.11319 0
M  V30 1841 C 177.581 -3.80037 -4.40394 0
M  V30 1842 N 176.557 -3.0782 -4.48049 0
M  V30 1843 H 180.359 -2.01399 -2.14046 0
M  V30 1844 H 177.873 -1.18401 -1.11153 0
M  V30 1845 H 179.87 -0.560959 -4.13109 0
M  V30 1846 H 178.53 0.207782 -3.24034 0
M  V30 1847 H 179.541 -3.43424 -3.8766 0
M  V30 1848 H 176.218 -0.862005 -4.08504 0
M  V30 1849 H 177.608 -4.86632 -4.63291 0
M  V30 1850 N 180.328 1.1314 -1.09713 0
M  V30 1851 C 181.739 1.66029 -0.853885 0
M  V30 1852 C 182.09 1.86241 0.617142 0
M  V30 1853 O 181.215 1.5834 1.47503 0
M  V30 1854 C 181.81 3.01599 -1.5435 0
M  V30 1855 C 180.369 3.51467 -1.34714 0
M  V30 1856 C 179.516 2.26648 -1.59769 0
M  V30 1857 H 182.467 0.970226 -1.25588 0
M  V30 1858 H 182.488 3.67709 -0.978267 0
M  V30 1859 H 182 2.86856 -2.6141 0
M  V30 1860 H 180.101 3.71408 -0.297838 0
M  V30 1861 H 180.214 4.314 -2.08401 0
M  V30 1862 H 178.578 2.33385 -1.01998 0
M  V30 1863 H 179.361 2.14467 -2.68065 0
M  V30 1864 N 181.806 0.884767 1.30421 0
M  V30 1865 C 182.753 0.349642 2.28136 0
M  V30 1866 C 183.723 -0.560061 1.56373 0
M  V30 1867 O 184.908 -0.488524 1.8444 0
M  V30 1868 C 182.048 -0.42999 3.42411 0
M  V30 1869 C 181.161 0.508907 4.28992 0
M  V30 1870 C 180.296 -0.286301 5.30428 0
M  V30 1871 C 179.335 0.648079 6.08659 0
M  V30 1872 N 178.472 -0.111792 7.02011 0
M  V30 1873 H 183.312 1.18807 2.73293 0
M  V30 1874 H 180.849 0.597231 1.3443 0
M  V30 1875 H 182.807 -0.897923 4.07423 0
M  V30 1876 H 181.437 -1.23299 2.98324 0
M  V30 1877 H 180.489 1.09533 3.64289 0
M  V30 1878 H 181.801 1.22475 4.8353 0
M  V30 1879 H 180.955 -0.816098 6.01186 0
M  V30 1880 H 179.694 -1.03536 4.76583 0
M  V30 1881 H 178.699 1.18951 5.36778 0
M  V30 1882 H 179.924 1.39623 6.64592 0
M  V30 1883 H 177.87 -0.843395 6.50556 0
M  V30 1884 H 177.787 0.544429 7.54037 0
M  V30 1885 H 179.055 -0.622339 7.77012 0
M  V30 1886 N 183.284 -1.43765 0.645699 0
M  V30 1887 C 184.232 -2.32516 -0.0624849 0
M  V30 1888 C 185.226 -1.48183 -0.820855 0
M  V30 1889 O 186.432 -1.64439 -0.732106 0
M  V30 1890 H 182.807 -0.750989 -0.0389864 0
M  V30 1891 H 184.778 -2.89979 0.703892 0
M  V30 1892 C 183.527 -3.32389 -1.02044 0
M  V30 1893 H 182.85 -3.97301 -0.446312 0
M  V30 1894 H 184.29 -3.97138 -1.48517 0
M  V30 1895 C 182.749 -2.62416 -2.11281 0
M  V30 1896 O 183.279 -2.434 -3.19561 0
M  V30 1897 N 181.485 -2.21913 -1.87624 0
M  V30 1898 H 181.032 -2.37578 -0.995703 0
M  V30 1899 H 180.99 -1.75424 -2.6091 0
M  V30 1900 N 184.763 -0.387143 -1.52771 0
M  V30 1901 C 186.012 0.19697 -2.00736 0
M  V30 1902 C 186.325 1.48082 -1.27793 0
M  V30 1903 O 187.531 2.14485 -1.66458 0
M  V30 1904 C 185.987 0.401568 -3.57653 0
M  V30 1905 C 185.595 -0.868907 -4.39493 0
M  V30 1906 C 187.339 0.942164 -4.13912 0
M  V30 1907 C 185.246 -0.632705 -5.88006 0
M  V30 1908 H 184.176 0.0773827 -0.750019 0
M  V30 1909 H 186.827 -0.50921 -1.76293 0
M  V30 1910 H 185.209 1.16954 -3.78335 0
M  V30 1911 H 186.383 -1.64133 -4.30577 0
M  V30 1912 H 184.698 -1.33429 -3.94443 0
M  V30 1913 H 187.295 1.13455 -5.22525 0
M  V30 1914 H 187.638 1.9106 -3.69867 0
M  V30 1915 H 188.171 0.233814 -3.97112 0
M  V30 1916 H 184.91 -1.57208 -6.36369 0
M  V30 1917 H 184.43 0.100825 -5.99715 0
M  V30 1918 H 186.109 -0.26642 -6.46451 0
M  V30 1919 N 186.241 1.57166 -0.116904 0
M  V30 1920 C 187.191 2.11756 0.845178 0
M  V30 1921 C 188.175 1.03783 1.22955 0
M  V30 1922 O 189.367 1.3002 1.20099 0
M  V30 1923 C 186.496 2.71886 2.09602 0
M  V30 1924 C 185.582 3.86937 1.7361 0
M  V30 1925 N 185.973 4.94073 1.08284 0
M  V30 1926 C 184.271 3.97082 2.03082 0
M  V30 1927 C 184.972 5.74477 0.913855 0
M  V30 1928 N 183.948 5.2423 1.43818 0
M  V30 1929 H 187.75 2.91967 0.336523 0
M  V30 1930 H 185.264 1.62174 0.0856332 0
M  V30 1931 H 187.261 3.09338 2.79492 0
M  V30 1932 H 185.921 1.93138 2.61013 0
M  V30 1933 H 186.932 5.12483 0.747067 0
M  V30 1934 H 183.609 3.29372 2.56554 0
M  V30 1935 H 184.999 6.70701 0.40125 0
M  V30 1936 N 187.719 -0.156864 1.56817 0
M  V30 1937 C 188.649 -1.19589 2.00551 0
M  V30 1938 C 189.63 -1.4536 0.883426 0
M  V30 1939 O 190.815 -1.56449 1.15054 0
M  V30 1940 C 187.945 -2.53143 2.37773 0
M  V30 1941 C 186.899 -2.41913 3.53075 0
M  V30 1942 C 186.225 -3.80088 3.76081 0
M  V30 1943 C 187.525 -1.91157 4.86062 0
M  V30 1944 H 189.219 -0.832293 2.87599 0
M  V30 1945 H 186.765 -0.398918 1.38364 0
M  V30 1946 H 188.718 -3.26047 2.66967 0
M  V30 1947 H 187.442 -2.91319 1.4765 0
M  V30 1948 H 186.101 -1.71462 3.24031 0
M  V30 1949 H 185.749 -4.15683 2.83225 0
M  V30 1950 H 185.449 -3.73439 4.53671 0
M  V30 1951 H 186.973 -4.54556 4.0769 0
M  V30 1952 H 188.387 -2.53846 5.14038 0
M  V30 1953 H 186.784 -1.95422 5.67389 0
M  V30 1954 H 187.854 -0.866673 4.77092 0
M  V30 1955 N 189.197 -1.51736 -0.425897 0
M  V30 1956 C 190.608 -1.5732 -1.00536 0
M  V30 1957 C 190.959 -0.403537 -1.92005 0
M  V30 1958 O 190.084 0.478256 -2.11049 0
M  V30 1959 C 190.679 -2.85119 -1.8301 0
M  V30 1960 C 189.238 -2.93236 -2.35987 0
M  V30 1961 C 188.385 -2.52098 -1.15508 0
M  V30 1962 H 191.336 -1.57348 -0.206739 0
M  V30 1963 H 191.357 -2.69526 -2.68581 0
M  V30 1964 H 190.869 -3.7023 -1.16411 0
M  V30 1965 H 188.97 -2.12581 -3.06007 0
M  V30 1966 H 189.083 -3.9713 -2.68001 0
M  V30 1967 H 187.447 -2.05558 -1.50393 0
M  V30 1968 H 188.23 -3.39565 -0.505014 0
M  V30 1969 N 190.675 0.682077 -1.42076 0
M  V30 1970 C 191.923 1.4393 -1.41876 0
M  V30 1971 C 192.244 1.94971 -0.0335599 0
M  V30 1972 O 191.514 1.72591 0.926773 0
M  V30 1973 H 190.094 0.534085 -0.522267 0
M  V30 1974 H 192.756 0.806427 -1.77434 0
M  V30 1975 H 191.852 2.29588 -2.11414 0
M  V30 1976 N 192.153 1.28127 0.917671 0
M  V30 1977 C 193.381 1.17892 1.70026 0
M  V30 1978 C 193.796 -0.262958 1.8696 0
M  V30 1979 O 193.153 -1.17811 1.3938 0
M  V30 1980 C 193.204 1.86872 3.09453 0
M  V30 1981 O 192.925 3.25428 2.93306 0
M  V30 1982 C 194.426 1.8289 4.03815 0
M  V30 1983 H 191.646 0.40942 0.531617 0
M  V30 1984 H 194.19 1.69181 1.14883 0
M  V30 1985 H 192.345 1.39464 3.61426 0
M  V30 1986 H 192.759 3.59918 3.81523 0
M  V30 1987 H 194.233 2.35751 4.99125 0
M  V30 1988 H 194.71 0.800412 4.31845 0
M  V30 1989 H 195.316 2.29959 3.57769 0
M  V30 1990 N 193.631 -1.12557 1.10312 0
M  V30 1991 C 194.561 -2.20341 0.772798 0
M  V30 1992 C 195.542 -1.68198 -0.25365 0
M  V30 1993 O 196.727 -1.93831 -0.119699 0
M  V30 1994 C 193.857 -3.46709 0.202443 0
M  V30 1995 C 192.811 -4.11996 1.15943 0
M  V30 1996 C 192.137 -5.328 0.450345 0
M  V30 1997 C 193.437 -4.5828 2.50552 0
M  V30 1998 H 195.131 -2.48229 1.674 0
M  V30 1999 H 192.677 -1.19308 0.806326 0
M  V30 2000 H 194.63 -4.2138 -0.0407752 0
M  V30 2001 H 193.354 -3.18245 -0.734001 0
M  V30 2002 H 192.013 -3.39305 1.38808 0
M  V30 2003 H 191.661 -5.00602 -0.490531 0
M  V30 2004 H 191.361 -5.7743 1.08851 0
M  V30 2005 H 192.885 -6.10219 0.215642 0
M  V30 2006 H 194.299 -5.2433 2.31843 0
M  V30 2007 H 192.696 -5.13683 3.10242 0
M  V30 2008 H 193.766 -3.72329 3.10643 0
M  V30 2009 N 195.109 -0.891671 -1.2995 0
M  V30 2010 C 196.057 -0.353066 -2.29905 0
M  V30 2011 C 197.051 0.543509 -1.60444 0
M  V30 2012 O 198.257 0.4272 -1.74857 0
M  V30 2013 H 194.632 -0.095531 -0.745907 0
M  V30 2014 H 196.603 -1.20961 -2.72784 0
M  V30 2015 C 195.352 0.411475 -3.45257 0
M  V30 2016 H 194.675 -0.269182 -3.98893 0
M  V30 2017 H 196.115 0.753328 -4.17254 0
M  V30 2018 C 194.574 1.6111 -2.9588 0
M  V30 2019 O 195.104 2.71045 -2.96475 0
M  V30 2020 N 193.31 1.45054 -2.51809 0
M  V30 2021 H 192.857 0.556175 -2.51524 0
M  V30 2022 H 192.815 2.25453 -2.1913 0
M  V30 2023 N 196.587 1.43421 -0.653314 0
M  V30 2024 C 197.833 2.02111 -0.166992 0
M  V30 2025 C 198.166 1.51423 1.21592 0
M  V30 2026 O 197.441 0.707389 1.8118 0
M  V30 2027 C 197.724 3.5966 -0.177948 0
M  V30 2028 C 197.577 4.20579 -1.59478 0
M  V30 2029 C 198.896 4.37413 0.4856 0
M  V30 2030 H 196.015 0.734374 -0.0621557 0
M  V30 2031 H 198.657 1.70717 -0.834016 0
M  V30 2032 H 196.807 3.86537 0.390032 0
M  V30 2033 H 198.479 4.04732 -2.21336 0
M  V30 2034 H 196.722 3.77226 -2.14204 0
M  V30 2035 H 197.393 5.29665 -1.5543 0
M  V30 2036 H 199.869 4.161 0.00234528 0
M  V30 2037 H 198.745 5.47075 0.447207 0
M  V30 2038 H 199.006 4.13672 1.55974 0
M  V30 2039 N 198.065 0.39524 1.52563 0
M  V30 2040 C 199.311 -0.185318 2.01952 0
M  V30 2041 C 199.644 -1.45964 1.28095 0
M  V30 2042 O 198.919 -1.90689 0.38315 0
M  V30 2043 C 199.202 -0.447193 3.57312 0
M  V30 2044 C 199.055 0.842828 4.41833 0
M  V30 2045 C 200.374 -1.23529 4.22408 0
M  V30 2046 H 197.493 -0.0658788 0.73405 0
M  V30 2047 H 200.135 0.525975 1.82575 0
M  V30 2048 H 198.285 -1.05312 3.73954 0
M  V30 2049 H 199.957 1.4795 4.36931 0
M  V30 2050 H 198.2 1.45686 4.08605 0
M  V30 2051 H 198.871 0.614165 5.48573 0
M  V30 2052 H 201.347 -0.722445 4.0978 0
M  V30 2053 H 200.223 -1.38727 5.3108 0
M  V30 2054 H 200.484 -2.25213 3.80436 0
M  V30 2055 N 199.544 -1.57102 0.125237 0
M  V30 2056 C 200.454 -2.19191 -0.8362 0
M  V30 2057 C 201.47 -1.16985 -1.28805 0
M  V30 2058 O 202.646 -1.49479 -1.34974 0
M  V30 2059 C 199.711 -2.78407 -2.06617 0
M  V30 2060 C 198.772 -3.9567 -1.66565 0
M  V30 2061 C 198.005 -4.52052 -2.83698 0
M  V30 2062 O 198.228 -4.07326 -3.99302 0
M  V30 2063 O 197.162 -5.42645 -2.60423 0
M  V30 2064 H 200.988 -3.01816 -0.337776 0
M  V30 2065 H 198.573 -1.4906 -0.100695 0
M  V30 2066 H 200.455 -3.16129 -2.7864 0
M  V30 2067 H 199.13 -1.9881 -2.55453 0
M  V30 2068 H 198.037 -3.62705 -0.916296 0
M  V30 2069 H 199.37 -4.76722 -1.22464 0
M  V30 2070 O 201.061 0.0139771 -1.61494 0
M  V30 2071 H 201.752 0.632534 -1.83081 0
M  V30 END ATOM
M  V30 BEGIN BOND
M  V30 END BOND
M  V30 END CTAB
M  END
$$$$
