drugbank_target|Q86YV6 Myosin light chain kinase family member 4 (DB12010)
 OpenBabel12092121173D

  0  0  0     0  0            999 V3000
M  V30 BEGIN CTAB
M  V30 COUNTS 6247 6306 0 0 0
M  V30 BEGIN ATOM
M  V30 1 H -0.908 1.98254 -0.117106 0
M  V30 2 N 0 1.576 0 0
M  V30 3 C 0.933 2.03868 1.02534 0
M  V30 4 C 1.911 0.928543 1.3348 0
M  V30 5 O 3.095 1.19667 1.45644 0
M  V30 6 C 0.222 2.43627 2.35294 0
M  V30 7 C -0.732 3.65373 2.2001 0
M  V30 8 S 0.101 5.13292 1.52614 0
M  V30 9 C 1.257 5.56322 2.86805 0
M  V30 10 H 1.49 2.90518 0.631377 0
M  V30 11 H -0.977 1.52953 0.210867 0
M  V30 12 H 0.981 2.67203 3.11629 0
M  V30 13 H -0.358 1.57376 2.7183 0
M  V30 14 H -1.165 3.90944 3.18086 0
M  V30 15 H -1.563 3.418 1.51819 0
M  V30 16 H 0.729 5.58782 3.83104 0
M  V30 17 H 1.672 6.56266 2.65933 0
M  V30 18 H 2.08 4.83886 2.90714 0
M  V30 19 N 1.4781 -0.272755 1.55222 0
M  V30 20 C 2.4081 -1.34136 1.91127 0
M  V30 21 C 3.3891 -1.51513 0.773168 0
M  V30 22 O 4.5741 -1.64552 1.03132 0
M  V30 23 C 1.7041 -2.70083 2.1834 0
M  V30 24 C 0.6581 -2.67437 3.34158 0
M  V30 25 C -0.0159 -4.06938 3.46851 0
M  V30 26 C 1.2841 -2.26686 4.70543 0
M  V30 27 H 2.9781 -1.04333 2.80633 0
M  V30 28 H 0.5241 -0.500454 1.35024 0
M  V30 29 H 2.4771 -3.44952 2.42046 0
M  V30 30 H 1.2011 -3.01469 1.25634 0
M  V30 31 H -0.1399 -1.95026 3.1042 0
M  V30 32 H -0.4919 -4.35547 2.51611 0
M  V30 33 H -0.7919 -4.06062 4.2472 0
M  V30 34 H 0.7321 -4.83545 3.72849 0
M  V30 35 H 2.1461 -2.91277 4.93792 0
M  V30 36 H 0.5431 -2.36971 5.5133 0
M  V30 37 H 1.6131 -1.21818 4.69349 0
M  V30 38 N 2.9562 -1.48159 -0.537278 0
M  V30 39 C 3.9032 -1.62138 -1.64256 0
M  V30 40 C 4.8732 -0.463668 -1.59497 0
M  V30 41 O 6.0582 -0.686241 -1.78032 0
M  V30 42 C 3.1982 -1.66028 -3.02537 0
M  V30 43 C 2.3112 -2.92855 -3.17585 0
M  V30 44 C 1.4462 -2.87952 -4.46382 0
M  V30 45 C 0.4852 -4.09516 -4.54932 0
M  V30 46 N -0.3778 -4.02733 -5.75109 0
M  V30 47 H 4.4622 -2.56529 -1.51647 0
M  V30 48 H 1.9992 -1.27224 -0.738414 0
M  V30 49 H 3.9572 -1.66265 -3.82638 0
M  V30 50 H 2.5872 -0.751331 -3.13934 0
M  V30 51 H 1.6392 -3.02395 -2.30784 0
M  V30 52 H 2.9512 -3.82822 -3.19764 0
M  V30 53 H 2.1052 -2.8655 -5.34765 0
M  V30 54 H 0.8442 -1.95702 -4.46712 0
M  V30 55 H -0.1508 -4.11201 -3.64957 0
M  V30 56 H 1.0742 -5.02917 -4.56346 0
M  V30 57 H -0.9798 -3.13299 -5.76351 0
M  V30 58 H -1.0628 -4.86397 -5.78752 0
M  V30 59 H 0.2052 -4.05379 -6.65799 0
M  V30 60 N 4.4343 0.785586 -1.36625 0
M  V30 61 C 5.6803 1.54591 -1.31261 0
M  V30 62 C 6.0133 1.93906 0.106823 0
M  V30 63 O 5.2883 1.63007 1.06108 0
M  V30 64 C 5.5713 2.82038 -2.23889 0
M  V30 65 C 5.4243 2.49066 -3.74548 0
M  V30 66 C 6.7433 3.83887 -2.15217 0
M  V30 67 H 3.8623 0.560846 -0.478143 0
M  V30 68 H 6.5043 0.902278 -1.67209 0
M  V30 69 H 4.6543 3.36961 -1.93363 0
M  V30 70 H 6.3263 2.00164 -4.15611 0
M  V30 71 H 4.5693 1.81954 -3.93796 0
M  V30 72 H 5.2403 3.40109 -4.34776 0
M  V30 73 H 7.7163 3.38421 -2.42096 0
M  V30 74 H 6.5923 4.70806 -2.82193 0
M  V30 75 H 6.8533 4.27131 -1.14068 0
M  V30 76 N 5.9124 1.20967 1.01018 0
M  V30 77 C 6.8594 0.964281 2.09691 0
M  V30 78 C 7.8294 -0.107853 1.65749 0
M  V30 79 O 9.0144 0.0381987 1.90762 0
M  V30 80 C 6.1544 0.52943 3.41015 0
M  V30 81 C 5.2674 1.67043 3.98398 0
M  V30 82 C 4.4024 1.18525 5.17808 0
M  V30 83 C 3.4414 2.29892 5.67288 0
M  V30 84 N 2.5784 1.82546 6.77954 0
M  V30 85 H 7.4184 1.89463 2.30017 0
M  V30 86 H 4.9554 0.944289 1.1279 0
M  V30 87 H 6.9134 0.258588 4.16398 0
M  V30 88 H 5.5434 -0.363919 3.20742 0
M  V30 89 H 4.5954 2.05603 3.20049 0
M  V30 90 H 5.9074 2.50877 4.31117 0
M  V30 91 H 5.0614 0.870762 6.00419 0
M  V30 92 H 3.8004 0.316887 4.86669 0
M  V30 93 H 2.8054 2.6215 4.83278 0
M  V30 94 H 4.0304 3.17216 6.00459 0
M  V30 95 H 1.9764 0.980454 6.48632 0
M  V30 96 H 1.8934 2.59956 7.09901 0
M  V30 97 H 3.1614 1.54115 7.64113 0
M  V30 98 N 7.3905 -1.2043 1.01659 0
M  V30 99 C 8.8065 -1.41852 0.731442 0
M  V30 100 C 9.0065 -1.89358 -0.688898 0
M  V30 101 O 8.0625 -2.06247 -1.45666 0
M  V30 102 C 9.3755 -2.44019 1.75714 0
M  V30 103 C 10.9235 -2.57785 1.77527 0
M  V30 104 C 11.3985 -3.63194 2.79023 0
M  V30 105 N 12.8895 -3.70678 2.77763 0
M  V30 106 C 13.6245 -4.51897 3.52954 0
M  V30 107 N 13.1205 -5.36921 4.37821 0
M  V30 108 N 14.9135 -4.4643 3.41551 0
M  V30 109 H 7.0645 -0.879093 1.93354 0
M  V30 110 H 9.3275 -0.448425 0.835236 0
M  V30 111 H 9.0335 -2.1611 2.77469 0
M  V30 112 H 8.9075 -3.43007 1.56927 0
M  V30 113 H 11.2945 -2.85023 0.764569 0
M  V30 114 H 11.3755 -1.58992 2.00387 0
M  V30 115 H 11.0195 -3.36699 3.80258 0
M  V30 116 H 10.9495 -4.61609 2.53425 0
M  V30 117 H 13.4405 -3.09944 2.16201 0
M  V30 118 H 13.7535 -5.95981 4.91962 0
M  V30 119 H 12.0985 -5.36424 4.41899 0
M  V30 120 H 15.2895 -3.79042 2.74672 0
M  V30 121 H 15.4625 -5.09491 4.00404 0
M  V30 122 N 8.8686 -0.792821 -1.36206 0
M  V30 123 C 9.7986 -0.207853 -2.32573 0
M  V30 124 C 10.7796 0.659055 -1.56813 0
M  V30 125 O 11.9646 0.592176 -1.84951 0
M  V30 126 C 9.0946 0.655449 -3.41059 0
M  V30 127 C 8.0486 -0.111842 -4.27854 0
M  V30 128 C 7.3746 0.872274 -5.27537 0
M  V30 129 C 8.6746 -1.30299 -5.05786 0
M  V30 130 H 10.3686 -1.01294 -2.81744 0
M  V30 131 H 7.9146 -0.48854 -1.3546 0
M  V30 132 H 9.8676 1.07464 -4.07467 0
M  V30 133 H 8.5916 1.49328 -2.90463 0
M  V30 134 H 7.2506 -0.512053 -3.63006 0
M  V30 135 H 6.8986 1.70523 -4.73214 0
M  V30 136 H 6.5986 0.363291 -5.86476 0
M  V30 137 H 8.1226 1.28996 -5.96818 0
M  V30 138 H 9.5366 -0.959379 -5.65216 0
M  V30 139 H 7.9336 -1.7455 -5.74154 0
M  V30 140 H 9.0036 -2.09663 -4.37229 0
M  V30 141 N 10.3467 1.47872 -0.545128 0
M  V30 142 C 11.2567 2.33633 0.212746 0
M  V30 143 C 12.2727 1.4744 0.923983 0
M  V30 144 O 13.4487 1.80393 0.895572 0
M  V30 145 C 10.5137 3.23884 1.23693 0
M  V30 146 C 9.5747 4.25961 0.534417 0
M  V30 147 C 8.8077 5.11899 1.5098 0
M  V30 148 O 9.0307 5.00077 2.7437 0
M  V30 149 O 7.9647 5.92831 1.0409 0
M  V30 150 H 11.7907 2.99714 -0.490416 0
M  V30 151 H 9.3757 1.46235 -0.305871 0
M  V30 152 H 11.2577 3.79666 1.82843 0
M  V30 153 H 9.9327 2.60446 1.92222 0
M  V30 154 H 8.8397 3.73972 -0.0979679 0
M  V30 155 H 10.1727 4.92079 -0.109213 0
M  V30 156 N 11.8248 0.280983 1.55075 0
M  V30 157 C 12.7348 -0.61388 2.26426 0
M  V30 158 C 13.7508 -1.16521 1.29224 0
M  V30 159 O 14.9268 -1.19426 1.62171 0
M  V30 160 C 11.9918 -1.7788 2.9759 0
M  V30 161 C 11.0528 -1.26355 4.10284 0
M  V30 162 C 10.2858 -2.37295 4.78045 0
M  V30 163 O 10.5088 -3.56777 4.45047 0
M  V30 164 O 9.4428 -2.05119 5.65871 0
M  V30 165 H 13.2688 -0.0356932 3.03679 0
M  V30 166 H 10.8538 0.0481686 1.49322 0
M  V30 167 H 12.7358 -2.45791 3.42293 0
M  V30 168 H 11.4108 -2.34397 2.23249 0
M  V30 169 H 10.3178 -0.550735 3.70024 0
M  V30 170 H 11.6508 -0.744065 4.86543 0
M  V30 171 N 13.3029 -1.57598 0.00835791 0
M  V30 172 C 14.5499 -1.90928 -0.674732 0
M  V30 173 C 14.8779 -0.88277 -1.73313 0
M  V30 174 O 14.1329 0.111294 -1.95383 0
M  V30 175 C 14.4319 -3.3101 -1.34787 0
M  V30 176 C 14.0979 -4.48922 -0.421861 0
M  V30 177 C 12.7599 -4.8091 -0.166927 0
M  V30 178 C 15.1119 -5.20755 0.215211 0
M  V30 179 C 12.4399 -5.821 0.733232 0
M  V30 180 C 14.7919 -6.22905 1.1033 0
M  V30 181 C 13.4559 -6.53346 1.36733 0
M  V30 182 H 12.7259 -0.698656 -0.246902 0
M  V30 183 H 15.3729 -1.91387 0.0656779 0
M  V30 184 H 13.6779 -3.26714 -2.16253 0
M  V30 185 H 15.3749 -3.54061 -1.8826 0
M  V30 186 H 11.9649 -4.23934 -0.630729 0
M  V30 187 H 16.1489 -4.9629 0.0312829 0
M  V30 188 H 11.4049 -6.04042 0.945712 0
M  V30 189 H 15.5789 -6.77694 1.60325 0
M  V30 190 H 13.2059 -7.31573 2.06652 0
M  V30 191 N 14.781 0.264519 -1.55364 0
M  V30 192 C 15.729 1.34702 -1.89626 0
M  V30 193 C 16.723 1.50712 -0.773459 0
M  V30 194 O 17.929 1.52395 -0.957897 0
M  V30 195 H 14.304 0.450682 -0.601988 0
M  V30 196 H 16.275 1.0306 -2.80038 0
M  V30 197 C 15.024 2.6989 -2.19214 0
M  V30 198 H 14.347 2.58365 -3.05103 0
M  V30 199 H 15.787 3.44553 -2.47102 0
M  V30 200 C 14.246 3.21637 -1.00254 0
M  V30 201 O 14.776 4.00973 -0.241501 0
M  V30 202 N 12.982 2.7943 -0.797938 0
M  V30 203 H 12.529 2.15026 -1.4185 0
M  V30 204 H 12.487 3.144 -0.00363422 0
M  V30 205 N 16.2591 1.48442 0.529413 0
M  V30 206 C 17.4871 1.60151 1.30994 0
M  V30 207 C 17.9021 0.261985 1.86973 0
M  V30 208 O 17.2591 -0.748805 1.66431 0
M  V30 209 C 17.3101 2.64854 2.46038 0
M  V30 210 O 17.0311 3.93608 1.92365 0
M  V30 211 C 18.5321 2.87007 3.37849 0
M  V30 212 H 15.7521 0.539971 0.398338 0
M  V30 213 H 18.2961 1.94273 0.638597 0
M  V30 214 H 16.4511 2.33589 3.09055 0
M  V30 215 H 16.8651 4.51055 2.67675 0
M  V30 216 H 18.3391 3.64068 4.14919 0
M  V30 217 H 18.8161 1.95852 3.93114 0
M  V30 218 H 19.4221 3.19579 2.80623 0
M  V30 219 N 17.7372 -0.778329 1.37039 0
M  V30 220 C 18.9772 -1.54973 1.33276 0
M  V30 221 C 19.3412 -1.91816 -0.0839376 0
M  V30 222 O 20.5422 -2.6767 -0.246228 0
M  V30 223 C 18.8132 -2.78517 2.23971 0
M  V30 224 S 20.3722 -3.6865 2.37997 0
M  V30 225 H 17.1902 -0.530639 0.473226 0
M  V30 226 H 19.7922 -0.915806 1.72723 0
M  V30 227 H 18.4962 -2.4952 3.25835 0
M  V30 228 H 18.0272 -3.46875 1.85584 0
M  V30 229 H 20.0422 -4.70182 1.58567 0
M  V30 230 N 19.2153 -1.21501 -1.00376 0
M  V30 231 C 20.4453 -1.05746 -1.77486 0
M  V30 232 C 20.8533 0.395655 -1.85017 0
M  V30 233 O 20.1963 1.28626 -1.31152 0
M  V30 234 C 20.2583 -1.58092 -3.22873 0
M  V30 235 C 19.9223 -3.06568 -3.38917 0
M  V30 236 C 20.9193 -4.04106 -3.271 0
M  V30 237 C 18.6043 -3.45799 -3.64319 0
M  V30 238 C 20.5983 -5.38862 -3.40451 0
M  V30 239 C 18.2853 -4.80707 -3.77311 0
M  V30 240 C 19.2833 -5.77047 -3.65384 0
M  V30 241 O 18.9713 -7.09507 -3.77961 0
M  V30 242 H 18.7033 -0.371778 -0.564586 0
M  V30 243 H 21.2573 -1.61319 -1.27143 0
M  V30 244 H 19.4873 -0.969163 -3.74358 0
M  V30 245 H 21.1763 -1.38162 -3.81662 0
M  V30 246 H 21.9423 -3.75141 -3.07399 0
M  V30 247 H 17.8213 -2.71344 -3.72684 0
M  V30 248 H 21.3653 -6.14041 -3.31058 0
M  V30 249 H 17.2623 -5.09357 -3.96517 0
M  V30 250 H 18.0303 -7.16935 -3.94901 0
M  V30 251 N 20.6934 1.19889 -1.02296 0
M  V30 252 C 21.6414 2.24938 -0.592081 0
M  V30 253 C 22.6354 1.65257 0.372357 0
M  V30 254 O 23.8414 1.78371 0.241583 0
M  V30 255 H 20.2164 0.731787 -0.173182 0
M  V30 256 H 22.1874 2.58603 -1.48885 0
M  V30 257 C 20.9364 3.47668 0.047351 0
M  V30 258 H 20.2594 3.93875 -0.685772 0
M  V30 259 H 21.6994 4.22852 0.311862 0
M  V30 260 C 20.1584 3.11136 1.29212 0
M  V30 261 O 20.6884 3.2325 2.38479 0
M  V30 262 N 18.8944 2.65625 1.17863 0
M  V30 263 H 18.4414 2.55968 0.289493 0
M  V30 264 H 18.3994 2.41553 2.01245 0
M  V30 265 N 22.1715 0.800033 1.35784 0
M  V30 266 C 23.3965 0.388511 2.03729 0
M  V30 267 C 23.8215 -0.990481 1.5991 0
M  V30 268 O 23.1795 -1.64013 0.772612 0
M  V30 269 C 23.2275 0.4726 3.5749 0
M  V30 270 O 22.3315 -0.51646 4.09153 0
M  V30 271 H 21.6725 0.163271 0.643614 0
M  V30 272 H 24.2025 1.0841 1.73518 0
M  V30 273 H 24.2125 0.34003 4.06581 0
M  V30 274 H 22.8875 1.47848 3.88734 0
M  V30 275 H 21.4645 -0.344673 3.71304 0
M  V30 276 N 23.6496 -1.47581 0.552962 0
M  V30 277 C 24.5976 -2.31648 -0.21023 0
M  V30 278 C 25.5916 -1.42663 -0.913432 0
M  V30 279 O 26.7976 -1.5945 -0.835201 0
M  V30 280 H 23.1726 -0.746989 -0.0866676 0
M  V30 281 H 25.1436 -2.93869 0.518051 0
M  V30 282 C 23.8926 -3.25226 -1.22976 0
M  V30 283 H 23.2156 -3.93658 -0.698077 0
M  V30 284 H 24.6556 -3.86889 -1.73473 0
M  V30 285 C 23.1146 -2.48448 -2.27542 0
M  V30 286 O 23.6446 -2.22585 -3.34393 0
M  V30 287 N 21.8506 -2.09532 -2.01357 0
M  V30 288 H 21.3976 -2.30765 -1.14478 0
M  V30 289 H 21.3556 -1.58476 -2.71538 0
M  V30 290 N 25.1277 -0.289203 -1.54924 0
M  V30 291 C 26.0597 0.625583 -2.20497 0
M  V30 292 C 27.0727 1.10667 -1.19402 0
M  V30 293 O 28.2617 1.02615 -1.46056 0
M  V30 294 C 25.3617 1.86702 -2.82835 0
M  V30 295 C 24.5347 1.5304 -4.09753 0
M  V30 296 C 23.5937 2.62576 -4.56005 0
M  V30 297 O 22.6197 2.28167 -5.21468 0
M  V30 298 N 23.8217 3.92901 -4.27328 0
M  V30 299 H 26.5867 0.0642801 -2.99631 0
M  V30 300 H 24.1477 -0.110896 -1.6152 0
M  V30 301 H 26.1397 2.59304 -3.10715 0
M  V30 302 H 24.7097 2.33702 -2.07611 0
M  V30 303 H 23.9297 0.637564 -3.8901 0
M  V30 304 H 25.2177 1.28072 -4.92418 0
M  V30 305 H 24.6157 4.23671 -3.74859 0
M  V30 306 H 23.1727 4.61837 -4.59946 0
M  V30 307 N 26.6058 1.57591 -0.0167156 0
M  V30 308 C 27.5358 2.12496 0.967858 0
M  V30 309 C 28.5168 1.03807 1.34752 0
M  V30 310 O 29.7018 1.31577 1.42833 0
M  V30 311 C 26.8318 2.64194 2.25431 0
M  V30 312 C 25.7858 3.77559 2.01576 0
M  V30 313 C 25.1118 4.15636 3.36379 0
M  V30 314 C 26.4118 5.04151 1.36489 0
M  V30 315 H 28.1058 2.95013 0.510643 0
M  V30 316 H 25.6518 1.41915 0.244181 0
M  V30 317 H 27.6048 3.01236 2.94678 0
M  V30 318 H 26.3288 1.78821 2.73296 0
M  V30 319 H 24.9878 3.40937 1.34751 0
M  V30 320 H 24.6358 3.27263 3.81979 0
M  V30 321 H 24.3358 4.92022 3.21229 0
M  V30 322 H 25.8598 4.5525 4.06915 0
M  V30 323 H 27.2738 5.38857 1.95718 0
M  V30 324 H 25.6708 5.85453 1.31776 0
M  V30 325 H 26.7408 4.83733 0.336219 0
M  V30 326 N 28.0839 -0.256276 1.55502 0
M  V30 327 C 28.9939 -1.33882 1.92647 0
M  V30 328 C 30.0099 -1.53159 0.825727 0
M  V30 329 O 31.1859 -1.66963 1.12629 0
M  V30 330 C 28.2509 -2.6751 2.20543 0
M  V30 331 C 27.3119 -2.56836 3.43997 0
M  V30 332 C 26.5449 -3.84092 3.70553 0
M  V30 333 O 26.7679 -4.85545 2.99336 0
M  V30 334 O 25.7019 -3.83288 4.64084 0
M  V30 335 H 29.5279 -1.05374 2.84833 0
M  V30 336 H 27.1129 -0.456237 1.42263 0
M  V30 337 H 28.9949 -3.46492 2.39835 0
M  V30 338 H 27.6699 -2.9577 1.31536 0
M  V30 339 H 26.5769 -1.76172 3.30021 0
M  V30 340 H 27.9099 -2.33523 4.33275 0
M  V30 341 N 29.562 -1.4872 -0.521534 0
M  V30 342 C 30.509 -1.63871 -1.62527 0
M  V30 343 C 31.479 -0.480559 -1.58996 0
M  V30 344 O 32.664 -0.705085 -1.77294 0
M  V30 345 C 29.804 -1.69227 -3.00759 0
M  V30 346 C 28.917 -2.96207 -3.14461 0
M  V30 347 C 28.052 -2.92671 -4.43303 0
M  V30 348 C 27.091 -4.14318 -4.50563 0
M  V30 349 N 26.228 -4.0881 -5.70805 0
M  V30 350 H 31.068 -2.58123 -1.48918 0
M  V30 351 H 28.605 -1.28 -0.724878 0
M  V30 352 H 30.563 -1.70314 -3.80853 0
M  V30 353 H 29.193 -0.784586 -3.1312 0
M  V30 354 H 28.245 -3.04826 -2.27564 0
M  V30 355 H 29.557 -3.86192 -3.15686 0
M  V30 356 H 28.711 -2.92206 -5.31696 0
M  V30 357 H 27.45 -2.00429 -4.44612 0
M  V30 358 H 26.455 -4.15049 -3.60575 0
M  V30 359 H 27.68 -5.07729 -4.50986 0
M  V30 360 H 25.626 -3.19394 -5.72995 0
M  V30 361 H 25.543 -4.92509 -5.7356 0
M  V30 362 H 26.811 -4.12418 -6.61462 0
M  V30 363 N 31.0401 0.771051 -1.3745 0
M  V30 364 C 31.9731 1.89166 -1.27638 0
M  V30 365 C 32.9511 1.61842 -0.156782 0
M  V30 366 O 34.1351 1.85569 -0.331111 0
M  V30 367 C 31.2621 3.24405 -0.973621 0
M  V30 368 C 30.3081 3.70638 -2.1102 0
M  V30 369 S 31.1411 3.84228 -3.73 0
M  V30 370 C 32.2971 5.22313 -3.44876 0
M  V30 371 H 32.5301 1.972 -2.22485 0
M  V30 372 H 30.0631 0.932224 -1.23081 0
M  V30 373 H 32.0211 4.02514 -0.805766 0
M  V30 374 H 30.6821 3.14071 -0.0426279 0
M  V30 375 H 29.8751 4.68685 -1.85338 0
M  V30 376 H 29.4771 2.99632 -2.23822 0
M  V30 377 H 31.7691 6.07505 -2.99908 0
M  V30 378 H 32.7121 5.53008 -4.42253 0
M  V30 379 H 33.1201 4.90284 -2.79789 0
M  V30 380 N 32.5182 1.22032 0.997298 0
M  V30 381 C 33.4812 0.987909 2.06816 0
M  V30 382 C 34.4812 -0.0440084 1.6074 0
M  V30 383 O 35.6712 0.194053 1.73116 0
M  V30 384 C 32.8032 0.49132 3.37341 0
M  V30 385 H 33.9962 1.93803 2.28868 0
M  V30 386 H 31.5492 1.03838 1.16822 0
M  V30 387 H 32.2842 -0.463364 3.20973 0
M  V30 388 H 32.0692 1.23575 3.72118 0
M  V30 389 H 33.5592 0.348824 4.16141 0
M  V30 390 N 33.9963 -1.19345 1.0293 0
M  V30 391 C 35.2433 -1.89038 0.726008 0
M  V30 392 C 35.5713 -1.79649 -0.745427 0
M  V30 393 O 34.8263 -1.18354 -1.55855 0
M  V30 394 C 35.1253 -3.39292 1.12319 0
M  V30 395 C 34.7913 -3.68885 2.59297 0
M  V30 396 C 33.4533 -3.76671 2.99453 0
M  V30 397 C 35.8053 -3.82178 3.54386 0
M  V30 398 C 33.1333 -3.9522 4.33611 0
M  V30 399 C 35.4853 -4.0224 4.88248 0
M  V30 400 C 34.1493 -4.08259 5.28092 0
M  V30 401 H 33.4193 -0.691739 0.265665 0
M  V30 402 H 36.0663 -1.41328 1.29223 0
M  V30 403 H 34.3713 -3.88903 0.475584 0
M  V30 404 H 36.0683 -3.91536 0.866037 0
M  V30 405 H 32.6583 -3.63433 2.27189 0
M  V30 406 H 36.8423 -3.75505 3.24514 0
M  V30 407 H 32.0983 -3.98119 4.64016 0
M  V30 408 H 36.2723 -4.11468 5.61843 0
M  V30 409 H 33.8993 -4.22384 6.32057 0
M  V30 410 N 35.4744 -0.807222 -1.35358 0
M  V30 411 C 36.7214 -0.387888 -1.9875 0
M  V30 412 C 37.0494 1.04509 -1.64037 0
M  V30 413 O 36.3044 1.73986 -0.895946 0
M  V30 414 C 36.6034 -0.519036 -3.53611 0
M  V30 415 C 36.2694 -1.91542 -4.08194 0
M  V30 416 C 34.9314 -2.29745 -4.22813 0
M  V30 417 C 37.2834 -2.82896 -4.37744 0
M  V30 418 C 34.6114 -3.58668 -4.643 0
M  V30 419 C 36.9634 -4.11265 -4.8067 0
M  V30 420 C 35.6274 -4.49466 -4.93494 0
M  V30 421 H 34.8974 -0.141938 -0.727279 0
M  V30 422 H 37.5444 -1.02814 -1.6156 0
M  V30 423 H 35.8494 0.204658 -3.91265 0
M  V30 424 H 37.5464 -0.175345 -4.00616 0
M  V30 425 H 34.1364 -1.60862 -3.97268 0
M  V30 426 H 38.3204 -2.54629 -4.26002 0
M  V30 427 H 33.5764 -3.88113 -4.72418 0
M  V30 428 H 37.7504 -4.82153 -5.02496 0
M  V30 429 H 35.3774 -5.49418 -5.25399 0
M  V30 430 N 36.9525 1.47285 -0.560781 0
M  V30 431 C 37.8845 2.28118 0.222438 0
M  V30 432 C 38.8975 1.37219 0.876056 0
M  V30 433 O 40.0865 1.62011 0.749307 0
M  V30 434 C 37.1865 3.1159 1.33285 0
M  V30 435 C 36.3595 4.30473 0.77534 0
M  V30 436 C 35.4185 4.95513 1.77069 0
M  V30 437 O 34.4445 5.53792 1.31539 0
M  V30 438 N 35.6465 4.90531 3.10418 0
M  V30 439 H 38.4115 2.95976 -0.470958 0
M  V30 440 H 35.9725 1.56955 -0.39709 0
M  V30 441 H 37.9645 3.51967 1.99752 0
M  V30 442 H 36.5345 2.45951 1.92943 0
M  V30 443 H 35.7545 3.94144 -0.0662113 0
M  V30 444 H 37.0425 5.07362 0.382272 0
M  V30 445 H 36.4405 4.44389 3.5005 0
M  V30 446 H 34.9975 5.34917 3.72434 0
M  V30 447 N 38.4306 0.297415 1.54768 0
M  V30 448 C 39.6706 -0.313829 2.01976 0
M  V30 449 C 40.0346 -1.51366 1.1812 0
M  V30 450 O 41.2356 -2.19603 1.5501 0
M  V30 451 C 39.5066 -0.664964 3.51159 0
M  V30 452 S 41.0656 -1.25958 4.20333 0
M  V30 453 H 37.8836 -0.0965014 0.704421 0
M  V30 454 H 40.4856 0.424451 1.90837 0
M  V30 455 H 39.1896 0.21681 4.09827 0
M  V30 456 H 38.7206 -1.43413 3.66328 0
M  V30 457 H 40.7356 -2.54751 4.25813 0
M  V30 458 N 39.9087 -1.5758 0.0250728 0
M  V30 459 C 41.3247 -1.56124 -0.331282 0
M  V30 460 C 41.5247 -1.03029 -1.73169 0
M  V30 461 O 40.5807 -0.675215 -2.43305 0
M  V30 462 C 41.8937 -3.00139 -0.183584 0
M  V30 463 C 43.4417 -3.11946 -0.256654 0
M  V30 464 C 43.9167 -4.57793 -0.137792 0
M  V30 465 N 45.4077 -4.6279 -0.194904 0
M  V30 466 C 46.1427 -5.7326 -0.126655 0
M  V30 467 N 45.6387 -6.928 -0.00755288 0
M  V30 468 N 47.4317 -5.61811 -0.180348 0
M  V30 469 H 39.5827 -1.90424 0.94087 0
M  V30 470 H 41.8457 -0.875761 0.362968 0
M  V30 471 H 41.5517 -3.4292 0.780927 0
M  V30 472 H 41.4257 -3.64899 -0.955448 0
M  V30 473 H 43.8127 -2.69079 -1.21162 0
M  V30 474 H 43.8937 -2.49915 0.545517 0
M  V30 475 H 43.5377 -5.01339 0.813739 0
M  V30 476 H 43.4677 -5.17798 -0.958775 0
M  V30 477 H 45.9587 -3.76807 -0.287267 0
M  V30 478 H 46.2717 -7.72791 0.0379428 0
M  V30 479 H 44.6167 -6.94995 0.0271731 0
M  V30 480 H 47.8077 -4.6731 -0.271767 0
M  V30 481 H 47.9807 -6.47882 -0.123697 0
M  V30 482 N 41.3868 0.248026 -1.55636 0
M  V30 483 C 42.2968 1.32859 -1.93354 0
M  V30 484 C 43.3128 1.52719 -0.833838 0
M  V30 485 O 44.4888 1.66363 -1.13513 0
M  V30 486 C 41.5538 2.66337 -2.21958 0
M  V30 487 C 40.6148 2.55008 -3.45354 0
M  V30 488 C 39.8478 3.82121 -3.72584 0
M  V30 489 O 40.0708 4.83951 -3.01907 0
M  V30 490 O 39.0048 3.80822 -4.6611 0
M  V30 491 H 42.8308 1.03862 -2.85388 0
M  V30 492 H 40.4158 0.448686 -1.42503 0
M  V30 493 H 42.2978 3.45216 -2.4167 0
M  V30 494 H 40.9728 2.95068 -1.33103 0
M  V30 495 H 39.8798 1.7442 -3.30951 0
M  V30 496 H 41.2128 2.31222 -4.34508 0
M  V30 497 N 42.8649 1.48995 0.513639 0
M  V30 498 C 43.7749 1.67443 1.64317 0
M  V30 499 C 44.7909 0.556947 1.64846 0
M  V30 500 O 45.9669 0.830082 1.83498 0
M  V30 501 C 43.0319 1.72515 3.00732 0
M  V30 502 C 42.0929 2.96009 3.1093 0
M  V30 503 C 41.3259 3.00829 4.40837 0
M  V30 504 O 41.5489 2.13594 5.28898 0
M  V30 505 O 40.4829 3.93168 4.55744 0
M  V30 506 H 44.3089 2.63106 1.51687 0
M  V30 507 H 41.8939 1.32588 0.688543 0
M  V30 508 H 43.7759 1.78277 3.81831 0
M  V30 509 H 42.4509 0.800278 3.13651 0
M  V30 510 H 41.3579 2.9577 2.29065 0
M  V30 511 H 42.6909 3.87934 3.02933 0
M  V30 512 N 44.343 -0.763751 1.37857 0
M  V30 513 C 45.589 -1.52483 1.33704 0
M  V30 514 C 45.922 -1.94051 -0.0759612 0
M  V30 515 O 45.197 -1.64675 -1.03501 0
M  V30 516 C 45.48 -2.78441 2.28348 0
M  V30 517 C 45.333 -2.43075 3.78463 0
M  V30 518 C 46.652 -3.80415 2.21298 0
M  V30 519 H 43.771 -0.553169 0.487005 0
M  V30 520 H 46.413 -0.875562 1.68624 0
M  V30 521 H 44.563 -3.33842 1.987 0
M  V30 522 H 46.235 -1.93527 4.18742 0
M  V30 523 H 44.478 -1.75666 3.96641 0
M  V30 524 H 45.149 -3.33149 4.40132 0
M  V30 525 H 47.625 -3.34527 2.47449 0
M  V30 526 H 46.501 -4.66257 2.89647 0
M  V30 527 H 46.762 -4.25262 1.20849 0
M  V30 528 N 45.8211 -1.22559 -0.990812 0
M  V30 529 C 46.7311 -1.01394 -2.11557 0
M  V30 530 C 47.7471 0.0383962 -1.73958 0
M  V30 531 O 48.9231 -0.154787 -2.00804 0
M  V30 532 C 45.9881 -0.596569 -3.41529 0
M  V30 533 C 45.0491 -1.72276 -3.93217 0
M  V30 534 C 44.2821 -1.32521 -5.16985 0
M  V30 535 O 44.5051 -0.204909 -5.70032 0
M  V30 536 O 43.4391 -2.14247 -5.62478 0
M  V30 537 H 47.2651 -1.95633 -2.32296 0
M  V30 538 H 44.8501 -1.01172 -1.0993 0
M  V30 539 H 46.7321 -0.374263 -4.19735 0
M  V30 540 H 45.4071 0.316939 -3.22145 0
M  V30 541 H 44.3141 -1.99961 -3.16174 0
M  V30 542 H 45.6471 -2.61421 -4.17037 0
M  V30 543 N 47.2992 1.18797 -1.03562 0
M  V30 544 C 48.2462 2.22253 -0.622259 0
M  V30 545 C 49.2162 1.61987 0.36736 0
M  V30 546 O 50.4012 1.88986 0.262492 0
M  V30 547 C 47.5412 3.45097 0.0138462 0
M  V30 548 C 46.6542 4.19722 -1.02263 0
M  V30 549 C 45.7892 5.30009 -0.355573 0
M  V30 550 C 44.8282 5.96399 -1.37749 0
M  V30 551 N 43.9652 6.98234 -0.735766 0
M  V30 552 H 48.8052 2.56968 -1.50903 0
M  V30 553 H 46.3422 1.26245 -0.755017 0
M  V30 554 H 48.3002 4.15279 0.399948 0
M  V30 555 H 46.9302 3.11018 0.864158 0
M  V30 556 H 45.9822 3.48418 -1.52673 0
M  V30 557 H 47.2942 4.65227 -1.79903 0
M  V30 558 H 46.4482 6.0664 0.0850095 0
M  V30 559 H 45.1872 4.85592 0.452967 0
M  V30 560 H 44.1922 5.18512 -1.82826 0
M  V30 561 H 45.4172 6.42899 -2.18764 0
M  V30 562 H 43.3632 6.55979 0.0525597 0
M  V30 563 H 43.2802 7.41965 -1.44995 0
M  V30 564 H 44.5482 7.78845 -0.31941 0
M  V30 565 N 48.7773 0.814389 1.34928 0
M  V30 566 C 50.0233 0.399013 1.98836 0
M  V30 567 C 50.3563 -1.03314 1.64438 0
M  V30 568 O 49.6313 -1.71811 0.911659 0
M  V30 569 C 49.9143 0.591629 3.55207 0
M  V30 570 C 49.7673 2.06928 3.99376 0
M  V30 571 C 51.0863 0.022199 4.40094 0
M  V30 572 H 48.2053 0.146451 0.722303 0
M  V30 573 H 50.8473 1.02537 1.59957 0
M  V30 574 H 48.9973 0.0584441 3.88456 0
M  V30 575 H 50.6693 2.66544 3.76499 0
M  V30 576 H 48.9123 2.56287 3.49999 0
M  V30 577 H 49.5833 2.1549 5.08201 0
M  V30 578 H 52.0593 0.477643 4.13349 0
M  V30 579 H 50.9353 0.186832 5.48582 0
M  V30 580 H 51.1963 -1.07215 4.28902 0
M  V30 581 N 50.2554 -1.46986 0.568584 0
M  V30 582 C 51.2024 -2.30153 -0.172707 0
M  V30 583 C 52.1724 -1.39759 -0.897586 0
M  V30 584 O 53.3574 -1.68716 -0.891044 0
M  V30 585 C 50.4974 -3.23952 -1.1895 0
M  V30 586 C 49.6104 -4.29441 -0.469517 0
M  V30 587 C 48.7454 -5.1038 -1.47259 0
M  V30 588 C 47.7844 -6.07632 -0.738225 0
M  V30 589 N 46.9214 -6.8149 -1.68868 0
M  V30 590 H 51.7614 -2.93019 0.542596 0
M  V30 591 H 49.2984 -1.44422 0.279401 0
M  V30 592 H 51.2564 -3.76767 -1.79173 0
M  V30 593 H 49.8864 -2.62926 -1.87269 0
M  V30 594 H 48.9384 -3.79594 0.247467 0
M  V30 595 H 50.2504 -4.98689 0.105241 0
M  V30 596 H 49.4044 -5.67402 -2.14803 0
M  V30 597 H 48.1434 -4.4106 -2.08128 0
M  V30 598 H 47.1484 -5.49778 -0.0489293 0
M  V30 599 H 48.3734 -6.78966 -0.135129 0
M  V30 600 H 46.3194 -6.14891 -2.28573 0
M  V30 601 H 46.2364 -7.46948 -1.16636 0
M  V30 602 H 47.5044 -7.43078 -2.3549 0
M  V30 603 N 51.7335 -0.305618 -1.54608 0
M  V30 604 C 52.9735 0.303114 -2.0214 0
M  V30 605 C 53.3375 1.50737 -1.18921 0
M  V30 606 O 54.5385 2.18778 -1.56172 0
M  V30 607 C 52.8095 0.646332 -3.51507 0
M  V30 608 S 54.3685 1.23727 -4.20995 0
M  V30 609 H 51.1865 0.0927643 -0.704923 0
M  V30 610 H 53.7885 -0.434566 -1.90609 0
M  V30 611 H 52.4925 -0.238541 -4.09706 0
M  V30 612 H 52.0235 1.41468 -3.67084 0
M  V30 613 H 54.0385 2.52489 -4.27158 0
M  V30 614 N 53.2116 1.57565 -0.0334293 0
M  V30 615 C 54.4586 1.91978 0.644272 0
M  V30 616 C 54.7866 0.910231 1.71887 0
M  V30 617 O 54.0416 -0.0801961 1.95536 0
M  V30 618 C 54.3406 3.33112 1.29504 0
M  V30 619 C 54.0066 4.49537 0.350388 0
M  V30 620 C 52.6686 4.81115 0.0903974 0
M  V30 621 C 55.0206 5.20347 -0.298032 0
M  V30 622 C 52.3486 5.8086 -0.825746 0
M  V30 623 C 54.7006 6.2107 -1.20226 0
M  V30 624 C 53.3646 6.51088 -1.4711 0
M  V30 625 H 52.6346 0.702496 0.235756 0
M  V30 626 H 55.2816 1.91259 -0.0961176 0
M  V30 627 H 53.5866 3.30113 2.11028 0
M  V30 628 H 55.2836 3.57011 1.82603 0
M  V30 629 H 51.8736 4.24883 0.563205 0
M  V30 630 H 56.0576 4.96178 -0.110234 0
M  V30 631 H 51.3136 6.02461 -1.04169 0
M  V30 632 H 55.4876 6.75057 -1.71086 0
M  V30 633 H 53.1146 7.28193 -2.18264 0
M  V30 634 N 54.6897 -0.239769 1.55765 0
M  V30 635 C 55.6197 -1.30052 1.9393 0
M  V30 636 C 56.6007 -1.49839 0.805132 0
M  V30 637 O 57.7857 -1.62328 1.06599 0
M  V30 638 C 54.9157 -2.65391 2.2402 0
M  V30 639 C 53.8697 -2.60289 3.39755 0
M  V30 640 C 53.1957 -3.99489 3.55405 0
M  V30 641 C 54.4957 -2.16654 4.75246 0
M  V30 642 H 56.1897 -0.983573 2.82783 0
M  V30 643 H 53.7357 -0.471701 1.36055 0
M  V30 644 H 55.6887 -3.3974 2.49308 0
M  V30 645 H 54.4127 -2.98736 1.32 0
M  V30 646 H 53.0717 -1.88398 3.14487 0
M  V30 647 H 52.7197 -4.30112 2.60793 0
M  V30 648 H 52.4197 -3.96962 4.33238 0
M  V30 649 H 53.9437 -4.75528 3.83022 0
M  V30 650 H 55.3577 -2.80737 4.99859 0
M  V30 651 H 53.7547 -2.25223 5.56232 0
M  V30 652 H 54.8247 -1.11835 4.71827 0
M  V30 653 N 56.1678 -1.49265 -0.50573 0
M  V30 654 C 57.0778 -1.68312 -1.63427 0
M  V30 655 C 58.0938 -0.565682 -1.64548 0
M  V30 656 O 59.2698 -0.839801 -1.83055 0
M  V30 657 C 56.3348 -1.74107 -2.99813 0
M  V30 658 C 55.3958 -2.97653 -3.09356 0
M  V30 659 C 54.6288 -3.03163 -4.39236 0
M  V30 660 O 54.8518 -2.16396 -5.27758 0
M  V30 661 O 53.7858 -3.9558 -4.53652 0
M  V30 662 H 57.6118 -2.63907 -1.50289 0
M  V30 663 H 55.1968 -1.32951 -0.681502 0
M  V30 664 H 57.0788 -1.803 -3.80881 0
M  V30 665 H 55.7538 -0.816901 -3.13223 0
M  V30 666 H 54.6608 -2.96981 -2.27493 0
M  V30 667 H 55.9938 -3.89535 -3.00871 0
M  V30 668 N 57.6459 0.756429 -1.3826 0
M  V30 669 C 58.5929 1.87011 -1.35261 0
M  V30 670 C 59.5629 1.64695 -0.215616 0
M  V30 671 O 60.7479 1.864 -0.407399 0
M  V30 672 C 57.8879 3.24275 -1.18068 0
M  V30 673 C 57.0009 3.58442 -2.41129 0
M  V30 674 C 56.1359 4.84994 -2.16689 0
M  V30 675 C 55.1749 5.11939 -3.35537 0
M  V30 676 N 54.3119 6.29685 -3.10549 0
M  V30 677 H 59.1519 1.8891 -2.30472 0
M  V30 678 H 56.6889 0.923373 -1.14509 0
M  V30 679 H 58.6469 4.03479 -1.06116 0
M  V30 680 H 57.2769 3.21711 -0.264973 0
M  V30 681 H 56.3289 2.74103 -2.63764 0
M  V30 682 H 57.6409 3.74283 -3.29717 0
M  V30 683 H 56.7949 5.72135 -2.01857 0
M  V30 684 H 55.5339 4.71286 -1.25462 0
M  V30 685 H 54.5389 4.23268 -3.50891 0
M  V30 686 H 55.7639 5.27546 -4.27635 0
M  V30 687 H 53.7099 6.17306 -2.21967 0
M  V30 688 H 53.6269 6.46014 -3.92686 0
M  V30 689 H 54.8949 7.19722 -2.99367 0
M  V30 690 N 59.124 1.23083 0.984299 0
M  V30 691 C 60.072 1.00593 2.09723 0
M  V30 692 C 61.066 -0.0538014 1.69315 0
M  V30 693 O 62.272 0.0993719 1.79725 0
M  V30 694 H 58.647 0.30817 0.685956 0
M  V30 695 H 60.618 1.95012 2.2586 0
M  V30 696 C 59.367 0.609601 3.42314 0
M  V30 697 H 58.69 1.41675 3.73856 0
M  V30 698 H 60.13 0.491726 4.21139 0
M  V30 699 C 58.589 -0.681745 3.2993 0
M  V30 700 O 59.119 -1.73192 3.62446 0
M  V30 701 N 57.325 -0.656178 2.83095 0
M  V30 702 H 56.872 0.198759 2.56832 0
M  V30 703 H 56.83 -1.52044 2.75191 0
M  V30 704 N 60.6021 -1.18246 1.0419 0
M  V30 705 C 61.8271 -1.92736 0.765996 0
M  V30 706 C 62.2521 -1.75728 -0.67091 0
M  V30 707 O 61.6101 -1.06825 -1.46486 0
M  V30 708 C 61.6581 -3.42148 1.13875 0
M  V30 709 O 60.7621 -4.11548 0.264954 0
M  V30 710 H 60.1031 -0.601238 0.281797 0
M  V30 711 H 62.6331 -1.49942 1.39207 0
M  V30 712 H 62.6431 -3.92858 1.1012 0
M  V30 713 H 61.3181 -3.53848 2.18551 0
M  V30 714 H 59.8951 -3.71137 0.362226 0
M  V30 715 N 62.0802 -0.821533 -1.34494 0
M  V30 716 C 63.3282 -0.408139 -1.97936 0
M  V30 717 C 63.6492 1.03193 -1.65457 0
M  V30 718 O 62.9192 1.71622 -0.944595 0
M  V30 719 H 61.4992 -0.147928 -0.732206 0
M  V30 720 H 64.1612 -1.05067 -1.64155 0
M  V30 721 H 63.2572 -0.52601 -3.07635 0
M  V30 722 N 63.5583 1.46682 -0.576371 0
M  V30 723 C 64.8353 1.95599 0.00703437 0
M  V30 724 C 65.2153 1.51904 1.46589 0
M  V30 725 O 64.5633 0.766755 2.15251 0
M  V30 726 C 64.7733 3.4864 -0.158404 0
M  V30 727 C 66.1213 4.24594 -0.0229439 0
M  V30 728 O 67.1453 3.56094 -0.0869173 0
M  V30 729 O 66.0043 5.46373 0.118015 0
M  V30 730 H 63.0983 0.825275 0.053384 0
M  V30 731 H 65.6443 1.56996 -0.644244 0
M  V30 732 H 64.4163 3.7331 -1.17282 0
M  V30 733 H 64.0393 3.94057 0.5296 0
M  V30 734 N 65.0364 0.313813 1.54444 0
M  V30 735 C 65.9684 -0.590425 2.21465 0
M  V30 736 C 66.9814 -1.08753 1.21147 0
M  V30 737 O 68.1704 -1.00278 1.4767 0
M  V30 738 C 65.2704 -1.82179 2.85769 0
M  V30 739 C 64.4434 -1.46502 4.12136 0
M  V30 740 C 63.5024 -2.55288 4.60124 0
M  V30 741 O 62.5284 -2.19842 5.25032 0
M  V30 742 N 63.7304 -3.86053 4.33525 0
M  V30 743 H 66.4954 -0.0166033 2.99695 0
M  V30 744 H 64.0564 0.136578 1.61323 0
M  V30 745 H 66.0484 -2.54328 3.14801 0
M  V30 746 H 64.6184 -2.30369 2.11303 0
M  V30 747 H 63.8384 -0.575595 3.89975 0
M  V30 748 H 65.1264 -1.20221 4.94393 0
M  V30 749 H 64.5244 -4.17654 3.81552 0
M  V30 750 H 63.0814 -4.54461 4.67235 0
M  V30 751 N 66.5145 -1.57545 0.0417849 0
M  V30 752 C 67.7915 -1.83642 -0.673433 0
M  V30 753 C 68.1715 -0.928298 -1.89594 0
M  V30 754 O 67.5195 0.0129955 -2.28496 0
M  V30 755 C 67.7295 -3.33155 -1.03964 0
M  V30 756 C 69.0775 -3.99941 -1.42592 0
M  V30 757 O 70.1015 -3.37725 -1.13226 0
M  V30 758 O 68.9605 -5.09619 -1.9736 0
M  V30 759 H 66.0545 -0.757638 -0.331533 0
M  V30 760 H 68.6005 -1.69554 0.070433 0
M  V30 761 H 67.3725 -3.9093 -0.170098 0
M  V30 762 H 66.9955 -3.52396 -1.84126 0
M  V30 763 N 67.9926 0.231505 -1.5589 0
M  V30 764 C 69.2176 0.978689 -1.82856 0
M  V30 765 C 69.6426 1.77559 -0.620846 0
M  V30 766 O 69.0006 1.76119 0.430305 0
M  V30 767 C 69.0486 1.87997 -3.07716 0
M  V30 768 O 68.1526 2.97393 -2.85712 0
M  V30 769 H 67.4936 0.277663 -0.603158 0
M  V30 770 H 70.0236 0.24783 -2.03093 0
M  V30 771 H 70.0336 2.2917 -3.37558 0
M  V30 772 H 68.7086 1.29417 -3.95252 0
M  V30 773 H 67.2856 2.60238 -2.67078 0
M  V30 774 N 69.4707 1.49531 0.497807 0
M  V30 775 C 70.8867 1.36365 0.829266 0
M  V30 776 C 71.0867 0.399184 1.97506 0
M  V30 777 O 70.1427 -0.167977 2.51941 0
M  V30 778 C 71.4557 2.77153 1.16647 0
M  V30 779 C 73.0037 2.85877 1.27449 0
M  V30 780 C 73.4787 4.2744 1.64497 0
M  V30 781 N 74.9697 4.30265 1.7154 0
M  V30 782 C 75.7047 5.3677 2.01656 0
M  V30 783 N 75.2007 6.53516 2.29976 0
M  V30 784 N 76.9937 5.24189 2.02934 0
M  V30 785 H 69.1447 2.10831 -0.257703 0
M  V30 786 H 71.4077 0.946534 -0.0527091 0
M  V30 787 H 71.1137 3.49442 0.397872 0
M  V30 788 H 70.9877 3.12722 2.10915 0
M  V30 789 H 73.3747 2.13824 2.0338 0
M  V30 790 H 73.4557 2.53887 0.312244 0
M  V30 791 H 73.0997 5.00021 0.891151 0
M  V30 792 H 73.0297 4.56896 2.61827 0
M  V30 793 H 75.5207 3.4607 1.51802 0
M  V30 794 H 75.8337 7.30506 2.52153 0
M  V30 795 H 74.1787 6.56737 2.27425 0
M  V30 796 H 77.3697 4.31988 1.80289 0
M  V30 797 H 77.5427 6.07286 2.26071 0
M  V30 798 N 70.9488 -0.749086 1.3866 0
M  V30 799 C 72.1738 -1.54344 1.38538 0
M  V30 800 C 72.5988 -1.88088 -0.0216655 0
M  V30 801 O 71.9568 -1.50899 -1.00494 0
M  V30 802 C 72.0048 -2.8164 2.25192 0
M  V30 803 O 71.1088 -3.7698 1.67212 0
M  V30 804 H 70.4498 -0.466654 0.472367 0
M  V30 805 H 72.9798 -0.925355 1.82478 0
M  V30 806 H 72.9898 -3.30519 2.3921 0
M  V30 807 H 71.6648 -2.56411 3.27454 0
M  V30 808 H 70.2418 -3.35699 1.6236 0
M  V30 809 N 72.4269 -1.23603 -0.977757 0
M  V30 810 C 73.6749 -1.06759 -1.71601 0
M  V30 811 C 73.9959 0.395929 -1.90938 0
M  V30 812 O 73.2659 1.28356 -1.47992 0
M  V30 813 H 71.8459 -0.392062 -0.635843 0
M  V30 814 H 74.5079 -1.55362 -1.1768 0
M  V30 815 H 73.6039 -1.55763 -2.70452 0
M  V30 816 N 73.905 1.17692 -1.04816 0
M  V30 817 C 74.855 2.1952 -0.616042 0
M  V30 818 C 75.839 1.57147 0.345485 0
M  V30 819 O 77.031 1.76245 0.163325 0
M  V30 820 C 74.16 3.43298 0.0116917 0
M  V30 821 C 73.246 4.12777 -0.973435 0
M  V30 822 N 73.637 4.5814 -2.14339 0
M  V30 823 C 71.935 4.38747 -0.80108 0
M  V30 824 C 72.636 5.11713 -2.7663 0
M  V30 825 N 71.612 5.03686 -2.04453 0
M  V30 826 H 75.414 2.52293 -1.5075 0
M  V30 827 H 72.928 1.3398 -0.917776 0
M  V30 828 H 74.925 4.15519 0.339006 0
M  V30 829 H 73.585 3.12018 0.898593 0
M  V30 830 H 74.596 4.52349 -2.52191 0
M  V30 831 H 71.273 4.17485 0.0350934 0
M  V30 832 H 72.663 5.56962 -3.75823 0
M  V30 833 N 75.3831 0.828654 1.34056 0
M  V30 834 C 76.3311 0.242973 2.31327 0
M  V30 835 C 77.3251 -0.61944 1.57668 0
M  V30 836 O 78.5311 -0.51014 1.7262 0
M  V30 837 H 74.9061 0.059834 0.749616 0
M  V30 838 H 76.8771 1.07809 2.78244 0
M  V30 839 C 75.6261 -0.575733 3.429 0
M  V30 840 H 74.9491 0.0785582 3.99723 0
M  V30 841 H 76.3891 -0.951547 4.13185 0
M  V30 842 C 74.8481 -1.75044 2.87856 0
M  V30 843 O 75.3781 -2.84882 2.83205 0
M  V30 844 N 73.5841 -1.56903 2.44602 0
M  V30 845 H 73.1311 -0.675547 2.48584 0
M  V30 846 H 73.0891 -2.35652 2.08124 0
M  V30 847 N 76.8612 -1.46375 0.584142 0
M  V30 848 C 77.7712 -2.34115 -0.150728 0
M  V30 849 C 78.7872 -1.49838 -0.884567 0
M  V30 850 O 79.9632 -1.82704 -0.847429 0
M  V30 851 C 77.0282 -3.2705 -1.15062 0
M  V30 852 C 76.0892 -4.27228 -0.421293 0
M  V30 853 C 75.3222 -5.15722 -1.37355 0
M  V30 854 O 75.5452 -5.07176 -2.61014 0
M  V30 855 O 74.4792 -5.95383 -0.883355 0
M  V30 856 H 78.3052 -2.98309 0.569708 0
M  V30 857 H 75.8902 -1.45373 0.344535 0
M  V30 858 H 77.7722 -3.84381 -1.72712 0
M  V30 859 H 76.4472 -2.65451 -1.8525 0
M  V30 860 H 75.3542 -3.7358 0.197085 0
M  V30 861 H 76.6872 -4.91616 0.239641 0
M  V30 862 N 78.3393 -0.321999 -1.54275 0
M  V30 863 C 79.3023 0.531975 -2.22941 0
M  V30 864 C 80.3023 1.04478 -1.22234 0
M  V30 865 O 81.4923 0.937452 -1.46825 0
M  V30 866 C 78.6243 1.73874 -2.93224 0
M  V30 867 H 79.8173 -0.0682612 -2.99822 0
M  V30 868 H 77.3703 -0.0730644 -1.56129 0
M  V30 869 H 78.1053 2.37825 -2.20476 0
M  V30 870 H 77.8903 1.37847 -3.6707 0
M  V30 871 H 79.3803 2.34496 -3.45545 0
M  V30 872 N 79.8174 1.5752 -0.0501392 0
M  V30 873 C 80.7644 2.1147 0.924603 0
M  V30 874 C 81.7344 1.02182 1.30951 0
M  V30 875 O 82.9194 1.29723 1.39916 0
M  V30 876 C 80.0594 2.66337 2.19451 0
M  V30 877 C 79.1724 3.89708 1.86418 0
M  V30 878 C 78.3074 4.32893 3.07859 0
M  V30 879 C 77.3464 5.48967 2.70742 0
M  V30 880 N 76.4834 5.87211 3.84874 0
M  V30 881 H 81.3234 2.94465 0.457639 0
M  V30 882 H 78.8604 1.45531 0.214266 0
M  V30 883 H 80.8184 2.96247 2.93758 0
M  V30 884 H 79.4484 1.86141 2.63726 0
M  V30 885 H 78.5004 3.66396 1.02264 0
M  V30 886 H 79.8124 4.74074 1.55096 0
M  V30 887 H 78.9664 4.6435 3.90466 0
M  V30 888 H 77.7054 3.47336 3.42358 0
M  V30 889 H 76.7104 5.17183 1.86551 0
M  V30 890 H 77.9354 6.3624 2.37436 0
M  V30 891 H 75.8814 5.04607 4.19175 0
M  V30 892 H 75.7984 6.66266 3.57247 0
M  V30 893 H 77.0664 6.23282 4.68123 0
M  V30 894 N 81.2955 -0.223234 1.56011 0
M  V30 895 C 82.2055 -1.29766 1.95443 0
M  V30 896 C 83.2215 -1.51373 0.858028 0
M  V30 897 O 84.3975 -1.64536 1.16146 0
M  V30 898 C 81.4625 -2.62772 2.26167 0
M  V30 899 C 80.5235 -2.49482 3.49367 0
M  V30 900 C 79.7565 -3.76145 3.78616 0
M  V30 901 O 79.9795 -4.79087 3.09568 0
M  V30 902 O 78.9135 -3.73358 4.72109 0
M  V30 903 H 82.7395 -0.99309 2.87004 0
M  V30 904 H 80.3245 -0.425958 1.43199 0
M  V30 905 H 82.2065 -3.41327 2.47131 0
M  V30 906 H 80.8815 -2.92913 1.37781 0
M  V30 907 H 79.7885 -1.69133 3.33684 0
M  V30 908 H 81.1215 -2.2428 4.38131 0
M  V30 909 N 82.7736 -1.49793 -0.48987 0
M  V30 910 C 84.0196 -1.60078 -1.24511 0
M  V30 911 C 84.3526 -0.291608 -1.91998 0
M  V30 912 O 83.6276 0.705647 -1.81248 0
M  V30 913 C 83.9106 -2.76791 -2.30345 0
M  V30 914 C 83.7636 -4.17535 -1.67286 0
M  V30 915 C 85.0826 -2.89111 -3.31817 0
M  V30 916 H 82.2016 -0.582645 -0.451324 0
M  V30 917 H 84.8436 -1.82117 -0.541612 0
M  V30 918 H 82.9936 -2.5813 -2.90346 0
M  V30 919 H 84.6656 -4.4774 -1.11026 0
M  V30 920 H 82.9086 -4.22665 -0.976577 0
M  V30 921 H 83.5796 -4.95094 -2.44103 0
M  V30 922 H 86.0556 -3.06133 -2.81819 0
M  V30 923 H 84.9316 -3.72433 -4.03219 0
M  V30 924 H 85.1926 -1.9893 -3.94815 0
M  V30 925 N 84.2517 0.741722 -1.39055 0
M  V30 926 C 85.4977 1.50234 -1.37118 0
M  V30 927 C 85.8527 1.92368 0.0350439 0
M  V30 928 O 85.1457 1.63422 1.00019 0
M  V30 929 C 85.3397 2.7592 -2.27163 0
M  V30 930 C 85.1687 2.46074 -3.76401 0
M  V30 931 C 83.9387 2.38704 -4.45364 0
M  V30 932 C 86.1367 2.12062 -4.68545 0
M  V30 933 N 84.1187 2.01258 -5.79973 0
M  V30 934 C 85.4897 1.85005 -5.91754 0
M  V30 935 C 87.5447 1.98473 -4.56632 0
M  V30 936 C 86.2477 1.4573 -7.04383 0
M  V30 937 C 88.2737 1.60599 -5.69176 0
M  V30 938 C 87.6357 1.34423 -6.91455 0
M  V30 939 H 83.7347 0.548858 -0.557027 0
M  V30 940 H 86.3187 0.862642 -1.74547 0
M  V30 941 H 84.4897 3.3768 -1.91904 0
M  V30 942 H 86.2217 3.42068 -2.16267 0
M  V30 943 H 82.9767 2.55574 -3.98721 0
M  V30 944 H 83.4007 1.85147 -6.51191 0
M  V30 945 H 88.0427 2.17381 -3.62637 0
M  V30 946 H 85.7607 1.25562 -7.98286 0
M  V30 947 H 89.3467 1.507 -5.61944 0
M  V30 948 H 88.2267 1.05555 -7.77064 0
M  V30 949 N 85.7298 1.2412 0.971189 0
M  V30 950 C 86.9548 1.10667 1.75407 0
M  V30 951 C 87.3798 -0.337048 1.85056 0
M  V30 952 O 86.7378 -1.24396 1.31892 0
M  V30 953 C 86.7858 1.74726 3.15441 0
M  V30 954 O 85.8898 1.01566 3.99697 0
M  V30 955 H 85.2308 0.387341 0.539317 0
M  V30 956 H 87.7608 1.64358 1.2185 0
M  V30 957 H 87.7708 1.80341 3.6598 0
M  V30 958 H 86.4458 2.79773 3.07734 0
M  V30 959 H 85.0228 1.03713 3.58187 0
M  V30 960 N 87.2079 -1.17134 1.05439 0
M  V30 961 C 88.1559 -2.23289 0.651511 0
M  V30 962 C 89.1499 -1.66186 -0.328411 0
M  V30 963 O 90.3559 -1.78949 -0.194206 0
M  V30 964 H 86.7309 -0.726938 0.192523 0
M  V30 965 H 88.7019 -2.54565 1.55689 0
M  V30 966 C 87.4509 -3.47671 0.0448436 0
M  V30 967 H 86.7739 -3.91918 0.78996 0
M  V30 968 H 88.2139 -4.2353 -0.19964 0
M  V30 969 C 86.6729 -3.14453 -1.20918 0
M  V30 970 O 87.2029 -3.29459 -2.29825 0
M  V30 971 N 85.4089 -2.68657 -1.10779 0
M  V30 972 H 84.9559 -2.56646 -0.221526 0
M  V30 973 H 84.9139 -2.46804 -1.9477 0
M  V30 974 N 88.686 -0.835752 -1.33615 0
M  V30 975 C 89.649 -0.272 -2.2758 0
M  V30 976 C 90.649 0.557487 -1.50827 0
M  V30 977 O 91.839 0.37173 -1.70188 0
M  V30 978 C 88.971 0.617173 -3.35267 0
M  V30 979 H 90.164 -1.10111 -2.78954 0
M  V30 980 H 87.717 -0.608594 -1.43965 0
M  V30 981 H 88.452 1.46884 -2.89129 0
M  V30 982 H 88.237 0.0237066 -3.92093 0
M  V30 983 H 89.727 1.005 -4.05326 0
M  V30 984 N 90.1641 1.46063 -0.591896 0
M  V30 985 C 91.4411 1.95595 -0.0137119 0
M  V30 986 C 91.8211 1.5345 1.4497 0
M  V30 987 O 91.1691 0.789543 2.14426 0
M  V30 988 C 91.3791 3.48453 -0.195373 0
M  V30 989 C 92.7271 4.24546 -0.0679765 0
M  V30 990 O 93.7511 3.55982 -0.124681 0
M  V30 991 O 92.6101 5.46467 0.0600579 0
M  V30 992 H 89.7041 0.825795 0.0446279 0
M  V30 993 H 92.2501 1.56303 -0.660859 0
M  V30 994 H 91.0221 3.72045 -1.21235 0
M  V30 995 H 90.6451 3.94597 0.487775 0
M  V30 996 N 91.6422 0.330177 1.54103 0
M  V30 997 C 92.5722 -0.525353 2.27513 0
M  V30 998 C 93.5532 -1.11383 1.2856 0
M  V30 999 O 94.7382 -1.13773 1.57383 0
M  V30 1000 C 91.8682 -1.6831 3.03791 0
M  V30 1001 C 90.8222 -1.2236 4.10137 0
M  V30 1002 C 90.1482 -2.46882 4.74293 0
M  V30 1003 C 91.4482 -0.333697 5.21233 0
M  V30 1004 H 93.1422 0.087013 2.99274 0
M  V30 1005 H 90.6882 0.0432893 1.43935 0
M  V30 1006 H 92.6412 -2.28795 3.5388 0
M  V30 1007 H 91.3652 -2.32216 2.29659 0
M  V30 1008 H 90.0242 -0.64165 3.60941 0
M  V30 1009 H 89.6722 -3.09165 3.96769 0
M  V30 1010 H 89.3722 -2.16825 5.46133 0
M  V30 1011 H 90.8962 -3.08117 5.27159 0
M  V30 1012 H 92.3102 -0.845013 5.67038 0
M  V30 1013 H 90.7072 -0.125612 5.99969 0
M  V30 1014 H 91.7772 0.633724 4.80741 0
M  V30 1015 N 93.1203 -1.57491 0.0584922 0
M  V30 1016 C 94.3483 -1.97296 -0.623037 0
M  V30 1017 C 94.7633 -0.936338 -1.63946 0
M  V30 1018 O 94.1203 0.0785981 -1.82331 0
M  V30 1019 C 94.1713 -3.37183 -1.30345 0
M  V30 1020 O 93.8923 -4.36872 -0.32773 0
M  V30 1021 C 95.3933 -3.91788 -2.07406 0
M  V30 1022 H 92.6133 -0.649153 -0.169826 0
M  V30 1023 H 95.1573 -2.04106 0.12696 0
M  V30 1024 H 93.3123 -3.31502 -2.00463 0
M  V30 1025 H 93.7263 -5.18141 -0.814269 0
M  V30 1026 H 95.2003 -4.91926 -2.50425 0
M  V30 1027 H 95.6773 -3.27609 -2.92521 0
M  V30 1028 H 96.2833 -4.00829 -1.42184 0
M  V30 1029 N 94.5984 0.214957 -1.56127 0
M  V30 1030 C 95.5084 1.28727 -1.96129 0
M  V30 1031 C 96.5244 1.50916 -0.866044 0
M  V30 1032 O 97.7004 1.63918 -1.17016 0
M  V30 1033 C 94.7654 2.61569 -2.27558 0
M  V30 1034 C 93.8264 2.47625 -3.50685 0
M  V30 1035 C 93.0594 3.74132 -3.80606 0
M  V30 1036 O 93.2824 4.77438 -3.12104 0
M  V30 1037 O 92.2164 3.70849 -4.74083 0
M  V30 1038 H 96.0424 0.977855 -2.87527 0
M  V30 1039 H 93.6274 0.418358 -1.43423 0
M  V30 1040 H 95.5094 3.40012 -2.48938 0
M  V30 1041 H 94.1844 2.92178 -1.39332 0
M  V30 1042 H 93.0914 1.67361 -3.34576 0
M  V30 1043 H 94.4244 2.21954 -4.39315 0
M  V30 1044 N 96.0765 1.50051 0.48192 0
M  V30 1045 C 97.4925 1.37237 0.814756 0
M  V30 1046 C 97.6925 0.420109 1.97072 0
M  V30 1047 O 96.7485 -0.141246 2.52105 0
M  V30 1048 C 98.0615 2.78375 1.13701 0
M  V30 1049 C 99.6095 2.87213 1.2441 0
M  V30 1050 C 100.084 4.29161 1.59954 0
M  V30 1051 N 101.575 4.32061 1.66967 0
M  V30 1052 C 102.31 5.38879 1.95952 0
M  V30 1053 N 101.806 6.55918 2.23031 0
M  V30 1054 N 103.599 5.26312 1.97363 0
M  V30 1055 H 95.7505 2.10546 -0.28005 0
M  V30 1056 H 98.0135 0.945921 -0.0627454 0
M  V30 1057 H 97.7195 3.49845 0.360787 0
M  V30 1058 H 97.5935 3.14941 2.07586 0
M  V30 1059 H 99.9805 2.15969 2.01101 0
M  V30 1060 H 100.061 2.54204 0.285299 0
M  V30 1061 H 99.7055 5.00938 0.838067 0
M  V30 1062 H 99.6355 4.59648 2.56966 0
M  V30 1063 H 102.126 3.47661 1.48123 0
M  V30 1064 H 102.439 7.33139 2.44391 0
M  V30 1065 H 100.784 6.59112 2.20447 0
M  V30 1066 H 103.975 4.33876 1.75697 0
M  V30 1067 H 104.148 6.09649 2.19618 0
M  V30 1068 N 97.5546 -0.734337 1.39446 0
M  V30 1069 C 98.4876 -1.85715 1.32609 0
M  V30 1070 C 99.4656 -1.6137 0.199636 0
M  V30 1071 O 100.65 -1.84626 0.380195 0
M  V30 1072 C 97.7766 -3.21709 1.05929 0
M  V30 1073 C 96.8226 -3.64913 2.20773 0
M  V30 1074 S 97.6556 -3.74203 3.83056 0
M  V30 1075 C 98.8116 -5.12986 3.58603 0
M  V30 1076 H 99.0446 -1.91232 2.27635 0
M  V30 1077 H 96.5776 -0.899263 1.25509 0
M  V30 1078 H 98.5356 -4.00236 0.912203 0
M  V30 1079 H 97.1966 -3.13848 0.125883 0
M  V30 1080 H 96.3896 -4.63606 1.97699 0
M  V30 1081 H 95.9916 -2.93593 2.31688 0
M  V30 1082 H 98.2836 -5.99339 3.15909 0
M  V30 1083 H 99.2266 -5.41088 4.5676 0
M  V30 1084 H 99.6346 -4.82694 2.9269 0
M  V30 1085 N 99.0327 -1.24633 -0.964593 0
M  V30 1086 C 100.444 -1.08045 -1.5226 0
M  V30 1087 C 100.795 0.347116 -1.93105 0
M  V30 1088 O 99.9197 1.23588 -1.77637 0
M  V30 1089 C 100.515 -1.95514 -2.76695 0
M  V30 1090 C 99.0737 -1.8314 -3.28841 0
M  V30 1091 C 98.2207 -1.90262 -2.01732 0
M  V30 1092 H 101.172 -1.38064 -0.782553 0
M  V30 1093 H 101.193 -1.48925 -3.50145 0
M  V30 1094 H 100.705 -2.99407 -2.46936 0
M  V30 1095 H 98.8057 -0.82092 -3.63444 0
M  V30 1096 H 98.9187 -2.67406 -3.97531 0
M  V30 1097 H 97.2827 -1.34027 -2.16584 0
M  V30 1098 H 98.0657 -2.9574 -1.74334 0
M  V30 1099 N 100.511 1.16574 -1.06058 0
M  V30 1100 C 101.757 1.87324 -0.777022 0
M  V30 1101 C 102.09 1.81351 0.694645 0
M  V30 1102 O 101.365 1.22753 1.50871 0
M  V30 1103 C 101.648 3.36991 -1.26922 0
M  V30 1104 C 101.501 3.51667 -2.80447 0
M  V30 1105 C 102.82 4.3131 -0.87521 0
M  V30 1106 H 99.9388 0.680191 -0.28374 0
M  V30 1107 H 102.581 1.37036 -1.3161 0
M  V30 1108 H 100.731 3.79949 -0.81063 0
M  V30 1109 H 102.403 3.17664 -3.34495 0
M  V30 1110 H 100.646 2.93656 -3.19294 0
M  V30 1111 H 101.317 4.56766 -3.0995 0
M  V30 1112 H 103.793 3.9624 -1.27014 0
M  V30 1113 H 102.669 5.34545 -1.2471 0
M  V30 1114 H 102.93 4.41552 0.220071 0
M  V30 1115 N 101.989 0.842826 1.3317 0
M  V30 1116 C 102.936 0.276885 2.29133 0
M  V30 1117 C 103.906 -0.609527 1.54512 0
M  V30 1118 O 105.091 -0.546955 1.82792 0
M  V30 1119 C 102.231 -0.538707 3.40869 0
M  V30 1120 C 101.344 0.372169 4.30394 0
M  V30 1121 C 100.479 -0.454908 5.29249 0
M  V30 1122 C 99.5179 0.45411 6.10413 0
M  V30 1123 N 98.6549 -0.335075 7.013 0
M  V30 1124 H 103.495 1.10052 2.76934 0
M  V30 1125 H 101.032 0.554161 1.36262 0
M  V30 1126 H 102.99 -1.02709 4.0436 0
M  V30 1127 H 101.62 -1.32727 2.9425 0
M  V30 1128 H 100.672 0.97888 3.6759 0
M  V30 1129 H 101.984 1.0703 4.87182 0
M  V30 1130 H 101.138 -1.00695 5.98285 0
M  V30 1131 H 99.8769 -1.18646 4.73048 0
M  V30 1132 H 98.8819 1.01813 5.40291 0
M  V30 1133 H 100.107 1.18409 6.68697 0
M  V30 1134 H 98.0529 -1.04994 6.47543 0
M  V30 1135 H 97.9699 0.304262 7.55387 0
M  V30 1136 H 99.2379 -0.869224 7.74638 0
M  V30 1137 N 103.467 -1.45747 0.599634 0
M  V30 1138 C 104.692 -2.07178 0.0960198 0
M  V30 1139 C 105.117 -1.44268 -1.207 0
M  V30 1140 O 104.475 -0.532503 -1.73303 0
M  V30 1141 C 104.523 -3.60579 -0.0385348 0
M  V30 1142 O 103.627 -3.97713 -1.0908 0
M  V30 1143 H 102.968 -0.660251 0.0704593 0
M  V30 1144 H 105.498 -1.87124 0.827385 0
M  V30 1145 H 105.508 -4.07298 -0.239304 0
M  V30 1146 H 104.183 -4.05756 0.912947 0
M  V30 1147 H 102.76 -3.62678 -0.867135 0
M  V30 1148 N 104.945 -0.338344 -1.53925 0
M  V30 1149 C 105.892 0.520845 -2.24846 0
M  V30 1150 C 106.862 1.09976 -1.24477 0
M  V30 1151 O 108.047 1.13735 -1.53196 0
M  V30 1152 C 105.187 1.6685 -3.02084 0
M  V30 1153 C 104.3 1.11739 -4.17299 0
M  V30 1154 C 103.435 2.23193 -4.82036 0
M  V30 1155 C 102.474 1.65407 -5.89328 0
M  V30 1156 N 101.611 2.70582 -6.47866 0
M  V30 1157 H 106.451 -0.0904881 -2.97863 0
M  V30 1158 H 103.988 -0.0564282 -1.46992 0
M  V30 1159 H 105.946 2.34407 -3.45122 0
M  V30 1160 H 104.576 2.2509 -2.31375 0
M  V30 1161 H 103.628 0.332919 -3.7894 0
M  V30 1162 H 104.94 0.654677 -4.94485 0
M  V30 1163 H 104.094 2.98626 -5.28117 0
M  V30 1164 H 102.833 2.72807 -4.04262 0
M  V30 1165 H 101.838 0.884779 -5.42634 0
M  V30 1166 H 103.063 1.16652 -6.69006 0
M  V30 1167 H 101.009 3.1946 -5.72959 0
M  V30 1168 H 100.926 2.28917 -7.20509 0
M  V30 1169 H 102.194 3.45799 -6.98601 0
M  V30 1170 N 106.423 1.57458 -0.0668435 0
M  V30 1171 C 107.839 1.56947 0.289772 0
M  V30 1172 C 108.039 1.07584 1.70376 0
M  V30 1173 O 107.095 0.739486 2.41429 0
M  V30 1174 C 108.408 3.0052 0.103943 0
M  V30 1175 C 109.956 3.12517 0.173857 0
M  V30 1176 C 110.431 4.57997 0.0163682 0
M  V30 1177 N 111.922 4.63144 0.0721352 0
M  V30 1178 C 112.657 5.73394 -0.0253794 0
M  V30 1179 N 112.153 6.92576 -0.176133 0
M  V30 1180 N 113.946 5.62091 0.0313305 0
M  V30 1181 H 106.097 1.87863 -0.991027 0
M  V30 1182 H 108.36 0.86583 -0.38606 0
M  V30 1183 H 108.066 3.40729 -0.871572 0
M  V30 1184 H 107.94 3.67304 0.858366 0
M  V30 1185 H 110.327 2.72197 1.13985 0
M  V30 1186 H 110.408 2.48381 -0.611586 0
M  V30 1187 H 110.052 4.99005 -0.946374 0
M  V30 1188 H 109.982 5.20158 0.821153 0
M  V30 1189 H 112.473 3.77436 0.187263 0
M  V30 1190 H 112.786 7.72418 -0.242821 0
M  V30 1191 H 111.131 6.94678 -0.211429 0
M  V30 1192 H 114.322 4.67867 0.147773 0
M  V30 1193 H 114.495 6.47982 -0.048121 0
M  V30 1194 N 107.901 -0.206675 1.56239 0
M  V30 1195 C 109.129 -0.945345 1.8404 0
M  V30 1196 C 109.544 -1.77336 0.647885 0
M  V30 1197 O 108.901 -1.78425 -0.383511 0
M  V30 1198 C 108.952 -1.8509 3.10522 0
M  V30 1199 O 108.673 -1.05634 4.25174 0
M  V30 1200 C 110.174 -2.70222 3.51418 0
M  V30 1201 H 107.394 -0.276372 0.61144 0
M  V30 1202 H 109.938 -0.217417 2.03341 0
M  V30 1203 H 108.093 -2.53259 2.93153 0
M  V30 1204 H 108.507 -1.67238 4.97124 0
M  V30 1205 H 109.981 -3.29438 4.42916 0
M  V30 1206 H 110.458 -3.43358 2.73864 0
M  V30 1207 H 111.064 -2.07443 3.71278 0
M  V30 1208 N 109.379 -1.50304 -0.473955 0
M  V30 1209 C 110.604 -1.65175 -1.25427 0
M  V30 1210 C 111.029 -0.333673 -1.85117 0
M  V30 1211 O 110.387 0.702114 -1.67153 0
M  V30 1212 C 110.435 -2.74295 -2.34082 0
M  V30 1213 O 109.539 -2.35349 -3.38651 0
M  V30 1214 H 108.88 -0.551944 -0.369126 0
M  V30 1215 H 111.41 -1.96662 -0.564364 0
M  V30 1216 H 111.42 -2.97285 -2.79438 0
M  V30 1217 H 110.095 -3.69959 -1.90008 0
M  V30 1218 H 108.672 -2.22794 -2.99027 0
M  V30 1219 N 110.857 0.726932 -1.39834 0
M  V30 1220 C 111.82 1.82269 -1.38962 0
M  V30 1221 C 112.82 1.58248 -0.285334 0
M  V30 1222 O 114.01 1.65499 -0.54366 0
M  V30 1223 C 111.142 3.20186 -1.17019 0
M  V30 1224 H 112.335 1.84443 -2.36476 0
M  V30 1225 H 109.888 0.931416 -1.25516 0
M  V30 1226 H 110.623 3.23669 -0.202204 0
M  V30 1227 H 110.408 3.3902 -1.96998 0
M  V30 1228 H 111.898 4.00235 -1.1917 0
M  V30 1229 N 112.336 1.25143 0.95797 0
M  V30 1230 C 113.266 1.07711 2.07173 0
M  V30 1231 C 114.247 -0.0128462 1.70095 0
M  V30 1232 O 115.432 0.156061 1.93572 0
M  V30 1233 C 112.562 0.691503 3.40346 0
M  V30 1234 C 111.516 1.73132 3.9142 0
M  V30 1235 C 110.842 1.20049 5.21049 0
M  V30 1236 C 112.142 3.1294 4.1817 0
M  V30 1237 H 113.836 2.00873 2.22014 0
M  V30 1238 H 111.382 0.967191 1.06684 0
M  V30 1239 H 113.335 0.556505 4.17709 0
M  V30 1240 H 112.059 -0.275819 3.25433 0
M  V30 1241 H 110.718 1.8547 3.16222 0
M  V30 1242 H 110.366 0.223499 5.02503 0
M  V30 1243 H 110.066 1.89545 5.56189 0
M  V30 1244 H 111.59 1.07782 6.01012 0
M  V30 1245 H 113.004 3.03775 4.86203 0
M  V30 1246 H 111.401 3.79875 4.64559 0
M  V30 1247 H 112.471 3.6025 3.24573 0
M  V30 1248 N 113.814 -1.1601 1.06675 0
M  V30 1249 C 114.777 -2.18724 0.685001 0
M  V30 1250 C 115.777 -1.58496 -0.271246 0
M  V30 1251 O 116.967 -1.74119 -0.0531156 0
M  V30 1252 C 114.099 -3.40899 0.00853648 0
M  V30 1253 H 115.292 -2.54011 1.59431 0
M  V30 1254 H 112.845 -1.30352 0.862441 0
M  V30 1255 H 113.58 -3.11173 -0.913337 0
M  V30 1256 H 113.365 -3.8587 0.696204 0
M  V30 1257 H 114.855 -4.16886 -0.24414 0
M  V30 1258 N 115.292 -0.849877 -1.32721 0
M  V30 1259 C 116.538 -0.451591 -1.97708 0
M  V30 1260 C 116.871 0.989175 -1.6712 0
M  V30 1261 O 116.146 1.69334 -0.956891 0
M  V30 1262 C 116.429 -0.685598 -3.53513 0
M  V30 1263 C 116.282 -2.17444 -3.93749 0
M  V30 1264 C 117.601 -0.138874 -4.39881 0
M  V30 1265 H 114.72 -0.16555 -0.718166 0
M  V30 1266 H 117.362 -1.06742 -1.57182 0
M  V30 1267 H 115.512 -0.161416 -3.88165 0
M  V30 1268 H 117.184 -2.76433 -3.693 0
M  V30 1269 H 115.427 -2.65476 -3.43081 0
M  V30 1270 H 116.098 -2.28888 -5.02309 0
M  V30 1271 H 118.574 -0.587068 -4.11938 0
M  V30 1272 H 117.45 -0.332213 -5.47894 0
M  V30 1273 H 117.711 0.95806 -4.31594 0
M  V30 1274 N 116.77 1.45427 -0.607355 0
M  V30 1275 C 118.047 1.9557 -0.0344566 0
M  V30 1276 C 118.427 1.54979 1.43334 0
M  V30 1277 O 117.775 0.812241 2.13576 0
M  V30 1278 C 117.985 3.48226 -0.232321 0
M  V30 1279 C 119.333 4.2445 -0.113001 0
M  V30 1280 O 120.357 3.55829 -0.162431 0
M  V30 1281 O 119.216 5.465 0.00209442 0
M  V30 1282 H 116.31 0.826222 0.0358667 0
M  V30 1283 H 118.856 1.55594 -0.6774 0
M  V30 1284 H 117.628 3.70739 -1.25174 0
M  V30 1285 H 117.251 3.95092 0.445896 0
M  V30 1286 N 118.248 0.346503 1.53744 0
M  V30 1287 C 119.497 -0.250122 2.00143 0
M  V30 1288 C 119.81 -1.51418 1.23822 0
M  V30 1289 O 121.016 -2.18823 1.60713 0
M  V30 1290 C 119.472 -0.496252 3.56462 0
M  V30 1291 C 119.08 0.752077 4.41642 0
M  V30 1292 C 120.824 -1.05157 4.11269 0
M  V30 1293 C 118.731 0.476583 5.89477 0
M  V30 1294 H 117.661 -0.0972409 0.747703 0
M  V30 1295 H 120.312 0.46229 1.77581 0
M  V30 1296 H 118.694 -1.26944 3.75102 0
M  V30 1297 H 119.868 1.5266 4.34778 0
M  V30 1298 H 118.183 1.22925 3.97842 0
M  V30 1299 H 120.78 -1.27269 5.19333 0
M  V30 1300 H 121.123 -2.00799 3.64672 0
M  V30 1301 H 121.656 -0.339019 3.96353 0
M  V30 1302 H 118.395 1.4028 6.40314 0
M  V30 1303 H 117.915 -0.259794 5.99237 0
M  V30 1304 H 119.594 0.0949315 6.4693 0
M  V30 1305 N 119.726 -1.57421 0.075193 0
M  V30 1306 C 121.137 -1.81021 -0.456964 0
M  V30 1307 C 121.488 -0.98936 -1.69429 0
M  V30 1308 O 120.613 -0.212865 -2.15351 0
M  V30 1309 C 121.208 -3.28329 -0.83581 0
M  V30 1310 C 119.767 -3.52764 -1.31281 0
M  V30 1311 C 118.914 -2.75676 -0.299648 0
M  V30 1312 H 121.865 -1.55822 0.300856 0
M  V30 1313 H 121.886 -3.40564 -1.69696 0
M  V30 1314 H 121.398 -3.88046 0.0649238 0
M  V30 1315 H 119.499 -2.98355 -2.23193 0
M  V30 1316 H 119.612 -4.61451 -1.28839 0
M  V30 1317 H 117.976 -2.42538 -0.777641 0
M  V30 1318 H 118.759 -3.38132 0.593417 0
M  V30 1319 N 121.204 0.198386 -1.56346 0
M  V30 1320 C 122.167 1.22952 -1.93431 0
M  V30 1321 C 123.167 1.38611 -0.815092 0
M  V30 1322 O 124.357 1.36479 -1.08255 0
M  V30 1323 C 121.489 2.59946 -2.20546 0
M  V30 1324 H 122.682 0.912626 -2.85677 0
M  V30 1325 H 120.235 0.43977 -1.49986 0
M  V30 1326 H 120.97 2.96696 -1.30927 0
M  V30 1327 H 120.755 2.49953 -3.02102 0
M  V30 1328 H 122.245 3.3431 -2.50253 0
M  V30 1329 N 122.682 1.50554 0.465978 0
M  V30 1330 C 124.093 1.54599 1.04671 0
M  V30 1331 C 124.444 0.352488 1.93008 0
M  V30 1332 O 123.569 -0.534044 2.09707 0
M  V30 1333 C 124.164 2.80166 1.90505 0
M  V30 1334 C 122.723 2.86876 2.43678 0
M  V30 1335 C 121.87 2.48947 1.22151 0
M  V30 1336 H 124.821 1.56744 0.248384 0
M  V30 1337 H 124.842 2.62311 2.75633 0
M  V30 1338 H 124.354 3.67013 1.26186 0
M  V30 1339 H 122.455 2.04393 3.11536 0
M  V30 1340 H 122.568 3.89885 2.78436 0
M  V30 1341 H 120.932 2.01498 1.5579 0
M  V30 1342 H 121.715 3.38107 0.594866 0
M  V30 1343 N 124.16 -0.719506 1.40217 0
M  V30 1344 C 125.571 -1.29848 1.34151 0
M  V30 1345 C 125.922 -1.96196 0.0131349 0
M  V30 1346 O 125.047 -1.973 -0.88892 0
M  V30 1347 C 125.642 -2.36118 2.42968 0
M  V30 1348 C 124.201 -2.8965 2.40374 0
M  V30 1349 C 123.348 -1.63393 2.24049 0
M  V30 1350 H 126.299 -0.51591 1.5008 0
M  V30 1351 H 126.32 -3.16871 2.10649 0
M  V30 1352 H 125.832 -1.878 3.39636 0
M  V30 1353 H 123.933 -3.42208 1.47392 0
M  V30 1354 H 124.046 -3.4171 3.35814 0
M  V30 1355 H 122.41 -1.88312 1.71495 0
M  V30 1356 H 123.193 -1.17104 3.2271 0
M  V30 1357 N 125.638 -1.25649 -0.95132 0
M  V30 1358 C 126.601 -1.06399 -2.03007 0
M  V30 1359 C 127.601 -0.0156794 -1.60792 0
M  V30 1360 O 128.791 -0.25817 -1.72276 0
M  V30 1361 C 125.923 -0.616184 -3.35285 0
M  V30 1362 H 127.116 -2.02164 -2.21517 0
M  V30 1363 H 124.669 -1.08103 -1.12887 0
M  V30 1364 H 125.404 0.343917 -3.22471 0
M  V30 1365 H 125.189 -1.37301 -3.67275 0
M  V30 1366 H 126.679 -0.503032 -4.14559 0
M  V30 1367 N 127.117 1.15442 -1.07289 0
M  V30 1368 C 128.528 1.67803 -0.818475 0
M  V30 1369 C 128.879 1.8489 0.656507 0
M  V30 1370 O 128.004 1.55176 1.50829 0
M  V30 1371 C 128.599 3.04805 -1.47917 0
M  V30 1372 C 127.158 3.54245 -1.27229 0
M  V30 1373 C 126.305 2.29986 -1.54925 0
M  V30 1374 H 129.256 0.996646 -1.23502 0
M  V30 1375 H 129.277 3.69702 -0.90005 0
M  V30 1376 H 128.789 2.92336 -2.55267 0
M  V30 1377 H 126.89 3.71956 -0.21899 0
M  V30 1378 H 127.003 4.35723 -1.99203 0
M  V30 1379 H 125.367 2.35496 -0.970242 0
M  V30 1380 H 126.15 2.20105 -2.63455 0
M  V30 1381 N 128.595 0.856903 1.32268 0
M  V30 1382 C 129.842 0.461386 1.97174 0
M  V30 1383 C 130.17 -0.983491 1.67803 0
M  V30 1384 O 129.425 -1.70541 0.959903 0
M  V30 1385 C 129.724 0.649919 3.51441 0
M  V30 1386 C 129.39 2.0656 4.00804 0
M  V30 1387 C 128.052 2.45279 4.13995 0
M  V30 1388 C 130.404 2.98947 4.26943 0
M  V30 1389 C 127.732 3.75653 4.50668 0
M  V30 1390 C 130.084 4.28822 4.65075 0
M  V30 1391 C 128.748 4.67472 4.76472 0
M  V30 1392 H 128.018 0.168833 0.72151 0
M  V30 1393 H 130.665 1.08739 1.57633 0
M  V30 1394 H 128.97 -0.0593018 3.91755 0
M  V30 1395 H 130.667 0.32391 3.9969 0
M  V30 1396 H 127.257 1.75495 3.91024 0
M  V30 1397 H 131.441 2.70265 4.16258 0
M  V30 1398 H 126.697 4.05379 4.57688 0
M  V30 1399 H 130.871 5.0047 4.84255 0
M  V30 1400 H 128.498 5.68539 5.04646 0
M  V30 1401 N 130.073 -1.45103 0.615059 0
M  V30 1402 C 131.35 -1.95549 0.0448276 0
M  V30 1403 C 131.73 -1.55737 -1.4251 0
M  V30 1404 O 131.078 -0.823556 -2.13143 0
M  V30 1405 C 131.288 -3.48098 0.250785 0
M  V30 1406 C 132.636 -4.24384 0.135509 0
M  V30 1407 O 133.66 -3.55738 0.181299 0
M  V30 1408 O 132.519 -5.46493 0.0268878 0
M  V30 1409 H 129.613 -0.8264 -0.0314845 0
M  V30 1410 H 132.159 -1.55232 0.685642 0
M  V30 1411 H 130.931 -3.7007 1.27139 0
M  V30 1412 H 130.554 -3.95323 -0.424937 0
M  V30 1413 N 131.551 -0.354651 -1.53558 0
M  V30 1414 C 132.501 0.513179 -2.2215 0
M  V30 1415 C 133.485 1.05734 -1.21281 0
M  V30 1416 O 134.677 0.989202 -1.46778 0
M  V30 1417 C 131.806 1.65798 -3.00609 0
M  V30 1418 C 130.892 1.12722 -4.08845 0
M  V30 1419 N 131.283 0.318563 -5.04796 0
M  V30 1420 C 129.581 1.40307 -4.23356 0
M  V30 1421 C 130.282 0.0292224 -5.81693 0
M  V30 1422 N 129.258 0.623891 -5.40008 0
M  V30 1423 H 133.06 -0.111586 -2.93688 0
M  V30 1424 H 130.574 -0.162091 -1.61589 0
M  V30 1425 H 132.571 2.29176 -3.48258 0
M  V30 1426 H 131.231 2.28591 -2.306 0
M  V30 1427 H 132.242 -0.0413091 -5.17884 0
M  V30 1428 H 128.919 2.03458 -3.6457 0
M  V30 1429 H 130.309 -0.623808 -6.68998 0
M  V30 1430 N 133.029 1.57378 -0.0835403 0
M  V30 1431 C 134.445 1.57246 0.273109 0
M  V30 1432 C 134.645 1.09385 1.69225 0
M  V30 1433 O 133.701 0.765051 2.40631 0
M  V30 1434 C 135.014 3.00614 0.0720628 0
M  V30 1435 C 136.562 3.12684 0.1407 0
M  V30 1436 C 137.037 4.57989 -0.0322094 0
M  V30 1437 N 138.528 4.63194 0.0230085 0
M  V30 1438 C 139.263 5.73335 -0.0861941 0
M  V30 1439 N 138.759 6.9235 -0.24958 0
M  V30 1440 N 140.552 5.62093 -0.0282886 0
M  V30 1441 H 132.703 1.86801 -1.0109 0
M  V30 1442 H 134.966 0.861687 -0.395222 0
M  V30 1443 H 134.672 3.39786 -0.907662 0
M  V30 1444 H 134.546 3.68193 0.81936 0
M  V30 1445 H 136.933 2.73391 1.11092 0
M  V30 1446 H 137.014 2.47719 -0.637896 0
M  V30 1447 H 136.658 4.97973 -0.999247 0
M  V30 1448 H 136.588 5.21 0.765937 0
M  V30 1449 H 139.079 3.77613 0.14722 0
M  V30 1450 H 139.392 7.72117 -0.324733 0
M  V30 1451 H 137.737 6.94415 -0.285097 0
M  V30 1452 H 140.928 4.67997 0.0981408 0
M  V30 1453 H 141.101 6.47895 -0.116845 0
M  V30 1454 N 134.507 -0.190092 1.56449 0
M  V30 1455 C 135.756 -0.907912 1.80111 0
M  V30 1456 C 136.069 -1.84214 0.657619 0
M  V30 1457 O 137.275 -2.60094 0.778663 0
M  V30 1458 C 135.731 -1.66485 3.19078 0
M  V30 1459 C 135.339 -0.7752 4.41242 0
M  V30 1460 C 137.083 -2.37201 3.52045 0
M  V30 1461 C 134.99 -1.53129 5.71231 0
M  V30 1462 H 133.92 -0.34276 0.671589 0
M  V30 1463 H 136.571 -0.161109 1.82791 0
M  V30 1464 H 134.953 -2.45572 3.10661 0
M  V30 1465 H 136.127 -0.0226298 4.60794 0
M  V30 1466 H 134.442 -0.178627 4.16017 0
M  V30 1467 H 137.039 -2.94329 4.46402 0
M  V30 1468 H 137.382 -3.11632 2.76028 0
M  V30 1469 H 137.915 -1.65075 3.61932 0
M  V30 1470 H 134.654 -0.82967 6.50228 0
M  V30 1471 H 134.174 -2.25767 5.55688 0
M  V30 1472 H 135.853 -2.08377 6.12526 0
M  V30 1473 N 135.985 -1.50799 -0.457987 0
M  V30 1474 C 137.231 -1.62683 -1.21088 0
M  V30 1475 C 137.564 -0.332268 -1.91336 0
M  V30 1476 O 136.839 0.667043 -1.82704 0
M  V30 1477 C 137.122 -2.81615 -2.24422 0
M  V30 1478 C 136.975 -4.20989 -1.58392 0
M  V30 1479 C 138.294 -2.96085 -3.2561 0
M  V30 1480 H 135.413 -0.592087 -0.438864 0
M  V30 1481 H 138.055 -1.83225 -0.50286 0
M  V30 1482 H 136.205 -2.64231 -2.84806 0
M  V30 1483 H 137.877 -4.49994 -1.01504 0
M  V30 1484 H 136.12 -4.24641 -0.886704 0
M  V30 1485 H 136.791 -5.0016 -2.33547 0
M  V30 1486 H 139.267 -3.12042 -2.75262 0
M  V30 1487 H 138.143 -3.80902 -3.95228 0
M  V30 1488 H 138.404 -2.0726 -3.90507 0
M  V30 1489 N 137.463 0.71206 -1.40597 0
M  V30 1490 C 138.691 1.50111 -1.42388 0
M  V30 1491 C 139.106 1.88784 -0.0245395 0
M  V30 1492 O 138.463 1.55681 0.952351 0
M  V30 1493 C 138.514 2.7742 -2.31776 0
M  V30 1494 O 138.235 2.40382 -3.66262 0
M  V30 1495 C 139.736 3.7129 -2.42196 0
M  V30 1496 H 136.956 0.46314 -0.485533 0
M  V30 1497 H 139.5 0.878068 -1.8469 0
M  V30 1498 H 137.655 3.36001 -1.92827 0
M  V30 1499 H 138.069 3.22324 -4.13772 0
M  V30 1500 H 139.543 4.57448 -3.08943 0
M  V30 1501 H 140.02 4.14641 -1.44809 0
M  V30 1502 H 140.626 3.18619 -2.81712 0
M  V30 1503 N 138.941 1.26152 0.944643 0
M  V30 1504 C 139.904 1.07474 2.0244 0
M  V30 1505 C 140.904 0.0242064 1.60782 0
M  V30 1506 O 142.094 0.267302 1.72137 0
M  V30 1507 C 139.226 0.633956 3.34953 0
M  V30 1508 H 140.419 2.03336 2.20442 0
M  V30 1509 H 137.972 1.087 1.12312 0
M  V30 1510 H 138.707 -0.326811 3.22649 0
M  V30 1511 H 138.492 1.39247 3.66542 0
M  V30 1512 H 139.982 0.52501 4.14287 0
M  V30 1513 N 140.419 -1.14872 1.07899 0
M  V30 1514 C 141.366 -2.19791 0.704319 0
M  V30 1515 C 142.336 -1.63238 -0.306987 0
M  V30 1516 O 143.521 -1.8983 -0.192171 0
M  V30 1517 C 140.661 -3.44911 0.114244 0
M  V30 1518 C 139.774 -4.15637 1.1777 0
M  V30 1519 C 138.909 -5.28324 0.552037 0
M  V30 1520 C 137.948 -5.90875 1.59789 0
M  V30 1521 N 137.085 -6.95022 0.994404 0
M  V30 1522 H 141.925 -2.5119 1.60336 0
M  V30 1523 H 139.462 -1.23356 0.801352 0
M  V30 1524 H 141.42 -4.16477 -0.245544 0
M  V30 1525 H 140.05 -3.14011 -0.74813 0
M  V30 1526 H 139.102 -3.42512 1.65499 0
M  V30 1527 H 140.414 -4.5823 1.97046 0
M  V30 1528 H 139.568 -6.06538 0.1402 0
M  V30 1529 H 138.307 -4.86939 -0.272431 0
M  V30 1530 H 137.312 -5.11369 2.01945 0
M  V30 1531 H 138.537 -6.34337 2.42474 0
M  V30 1532 H 136.483 -6.55722 0.190939 0
M  V30 1533 H 136.4 -7.36073 1.72432 0
M  V30 1534 H 137.668 -7.77123 0.608253 0
M  V30 1535 N 141.898 -0.863906 -1.31812 0
M  V30 1536 C 142.83 -0.272485 -2.27575 0
M  V30 1537 C 143.843 0.56104 -1.52827 0
M  V30 1538 O 145.032 0.384021 -1.7432 0
M  V30 1539 C 142.132 0.63283 -3.32939 0
M  V30 1540 C 141.305 -0.166902 -4.37081 0
M  V30 1541 C 140.364 0.665608 -5.21973 0
M  V30 1542 O 139.39 0.0958091 -5.69119 0
M  V30 1543 N 140.592 1.9787 -5.45736 0
M  V30 1544 H 143.357 -1.0954 -2.78964 0
M  V30 1545 H 140.918 -0.724791 -1.4477 0
M  V30 1546 H 142.91 1.19532 -3.86645 0
M  V30 1547 H 141.48 1.35642 -2.81638 0
M  V30 1548 H 140.7 -0.910838 -3.83533 0
M  V30 1549 H 141.988 -0.715874 -5.03739 0
M  V30 1550 H 141.386 2.46484 -5.09178 0
M  V30 1551 H 139.943 2.48911 -6.024 0
M  V30 1552 N 143.376 1.44774 -0.622745 0
M  V30 1553 C 144.624 2.01721 -0.123655 0
M  V30 1554 C 144.945 1.49172 1.25589 0
M  V30 1555 O 144.215 0.691974 1.83272 0
M  V30 1556 H 142.795 0.745777 -0.0427225 0
M  V30 1557 H 145.457 1.77382 -0.807559 0
M  V30 1558 H 144.553 3.11984 -0.0849534 0
M  V30 1559 N 144.854 0.36279 1.53368 0
M  V30 1560 C 145.817 -0.472679 2.24273 0
M  V30 1561 C 146.817 -1.012 1.24961 0
M  V30 1562 O 148.007 -0.898194 1.49259 0
M  V30 1563 C 145.139 -1.66039 2.97731 0
M  V30 1564 H 146.332 0.14773 2.99536 0
M  V30 1565 H 143.885 0.114434 1.55881 0
M  V30 1566 H 144.62 -2.31896 2.26704 0
M  V30 1567 H 144.405 -1.28066 3.70596 0
M  V30 1568 H 145.895 -2.25252 3.51641 0
M  V30 1569 N 146.332 -1.57332 0.0918853 0
M  V30 1570 C 147.578 -1.94524 -0.573425 0
M  V30 1571 C 147.911 -0.973578 -1.68033 0
M  V30 1572 O 147.186 -0.00609226 -1.94499 0
M  V30 1573 C 147.469 -3.41858 -1.13161 0
M  V30 1574 C 147.322 -4.4979 -0.0299747 0
M  V30 1575 C 148.641 -3.90435 -2.03098 0
M  V30 1576 H 145.76 -0.70734 -0.206975 0
M  V30 1577 H 148.402 -1.89309 0.161942 0
M  V30 1578 H 146.552 -3.46433 -1.7583 0
M  V30 1579 H 148.224 -4.57327 0.604112 0
M  V30 1580 H 146.467 -4.291 0.636833 0
M  V30 1581 H 147.138 -5.50069 -0.461287 0
M  V30 1582 H 149.614 -3.87992 -1.50338 0
M  V30 1583 H 148.49 -4.94097 -2.39081 0
M  V30 1584 H 148.751 -3.29541 -2.94712 0
M  V30 1585 N 147.81 0.181792 -1.56548 0
M  V30 1586 C 148.758 1.24461 -1.965 0
M  V30 1587 C 149.752 1.464 -0.852261 0
M  V30 1588 O 150.958 1.47103 -1.03733 0
M  V30 1589 H 147.333 0.418138 -0.625031 0
M  V30 1590 H 149.304 0.880714 -2.85107 0
M  V30 1591 C 148.053 2.57891 -2.33212 0
M  V30 1592 H 147.376 2.41829 -3.18369 0
M  V30 1593 H 148.816 3.3097 -2.65019 0
M  V30 1594 C 147.275 3.15871 -1.17163 0
M  V30 1595 O 147.805 3.9913 -0.453708 0
M  V30 1596 N 146.011 2.74808 -0.944936 0
M  V30 1597 H 145.558 2.07205 -1.53049 0
M  V30 1598 H 145.516 3.13939 -0.170286 0
M  V30 1599 N 149.288 1.51039 0.449983 0
M  V30 1600 C 150.513 1.6715 1.22783 0
M  V30 1601 C 150.938 0.363081 1.84563 0
M  V30 1602 O 150.296 -0.675433 1.68249 0
M  V30 1603 C 150.344 2.77985 2.29689 0
M  V30 1604 O 149.448 2.40707 3.34864 0
M  V30 1605 H 148.789 0.557746 0.360299 0
M  V30 1606 H 151.319 1.97535 0.533005 0
M  V30 1607 H 151.329 3.01693 2.74673 0
M  V30 1608 H 150.004 3.72935 1.84098 0
M  V30 1609 H 148.581 2.27523 2.95445 0
M  V30 1610 N 150.766 -0.704594 1.40972 0
M  V30 1611 C 152.013 -1.46458 1.39844 0
M  V30 1612 C 152.341 -1.94499 0.00447594 0
M  V30 1613 O 151.596 -1.69275 -0.982057 0
M  V30 1614 C 151.895 -2.698 2.34399 0
M  V30 1615 C 151.561 -2.40464 3.81429 0
M  V30 1616 C 150.223 -2.32174 4.21484 0
M  V30 1617 C 152.575 -2.16086 4.74296 0
M  V30 1618 C 149.903 -1.97589 5.52427 0
M  V30 1619 C 152.255 -1.83011 6.05549 0
M  V30 1620 C 150.919 -1.7321 6.44635 0
M  V30 1621 H 150.189 -0.535927 0.511725 0
M  V30 1622 H 152.836 -0.806124 1.73706 0
M  V30 1623 H 151.141 -3.40536 1.93759 0
M  V30 1624 H 152.838 -3.27919 2.30804 0
M  V30 1625 H 149.428 -2.47808 3.49699 0
M  V30 1626 H 153.612 -2.2144 4.4416 0
M  V30 1627 H 148.868 -1.88547 5.81601 0
M  V30 1628 H 153.042 -1.63164 6.77016 0
M  V30 1629 H 150.669 -1.46179 7.46013 0
M  V30 1630 N 152.244 -1.26651 -0.937939 0
M  V30 1631 C 153.474 -1.15006 -1.71631 0
M  V30 1632 C 153.882 0.297026 -1.86854 0
M  V30 1633 O 153.225 1.21493 -1.37786 0
M  V30 1634 C 153.287 -1.74984 -3.14039 0
M  V30 1635 C 152.951 -3.24103 -3.2219 0
M  V30 1636 C 153.948 -4.20877 -3.05219 0
M  V30 1637 C 151.633 -3.64625 -3.45476 0
M  V30 1638 C 153.627 -5.56151 -3.11408 0
M  V30 1639 C 151.314 -5.00032 -3.513 0
M  V30 1640 C 152.312 -5.95604 -3.34282 0
M  V30 1641 O 152 -7.28545 -3.3982 0
M  V30 1642 H 151.732 -0.401183 -0.544085 0
M  V30 1643 H 154.286 -1.67832 -1.18413 0
M  V30 1644 H 152.516 -1.16624 -3.68695 0
M  V30 1645 H 154.205 -1.58199 -3.73802 0
M  V30 1646 H 154.971 -3.90908 -2.87081 0
M  V30 1647 H 150.85 -2.90718 -3.57777 0
M  V30 1648 H 154.394 -6.30727 -2.98043 0
M  V30 1649 H 150.291 -5.29659 -3.68959 0
M  V30 1650 H 151.059 -7.3686 -3.56343 0
M  V30 1651 N 153.722 1.14298 -1.08507 0
M  V30 1652 C 154.95 1.89219 -0.836876 0
M  V30 1653 C 155.365 1.78638 0.611054 0
M  V30 1654 O 154.722 1.14643 1.41998 0
M  V30 1655 C 154.773 3.39158 -1.25116 0
M  V30 1656 O 154.494 3.49449 -2.64229 0
M  V30 1657 C 155.995 4.31073 -1.03398 0
M  V30 1658 H 153.215 0.599328 -0.301739 0
M  V30 1659 H 155.759 1.44746 -1.44461 0
M  V30 1660 H 153.914 3.81251 -0.687514 0
M  V30 1661 H 154.328 4.42589 -2.81452 0
M  V30 1662 H 155.802 5.34646 -1.37323 0
M  V30 1663 H 156.279 4.3919 0.0289259 0
M  V30 1664 H 156.885 3.94738 -1.58311 0
M  V30 1665 N 155.201 0.870884 1.31352 0
M  V30 1666 C 156.447 0.482987 1.96965 0
M  V30 1667 C 156.78 -0.962462 1.68672 0
M  V30 1668 O 156.055 -1.6779 0.98371 0
M  V30 1669 C 156.338 0.741752 3.52378 0
M  V30 1670 C 156.191 2.2368 3.9024 0
M  V30 1671 C 157.51 0.208838 4.39604 0
M  V30 1672 H 154.629 0.176955 0.715441 0
M  V30 1673 H 157.271 1.09229 1.55464 0
M  V30 1674 H 155.421 0.223149 3.87859 0
M  V30 1675 H 157.093 2.82273 3.64856 0
M  V30 1676 H 155.336 2.70901 3.38814 0
M  V30 1677 H 156.007 2.3685 4.98604 0
M  V30 1678 H 158.483 0.652529 4.10952 0
M  V30 1679 H 157.359 0.419336 5.47296 0
M  V30 1680 H 157.62 -0.889275 4.33064 0
M  V30 1681 N 156.679 -1.44442 0.630414 0
M  V30 1682 C 157.904 -2.06927 0.139944 0
M  V30 1683 C 158.329 -1.46795 -1.17613 0
M  V30 1684 O 157.687 -0.569144 -1.72135 0
M  V30 1685 C 157.735 -3.6058 0.0379581 0
M  V30 1686 O 156.839 -3.99937 -1.0062 0
M  V30 1687 H 156.18 -0.658608 0.0844483 0
M  V30 1688 H 158.71 -1.85327 0.866891 0
M  V30 1689 H 158.72 -4.07714 -0.152856 0
M  V30 1690 H 157.395 -4.03728 0.998809 0
M  V30 1691 H 155.972 -3.64436 -0.79001 0
M  V30 1692 N 158.157 -0.370918 -1.53173 0
M  V30 1693 C 159.104 0.473035 -2.259 0
M  V30 1694 C 160.074 1.07311 -1.26781 0
M  V30 1695 O 161.259 1.1046 -1.55574 0
M  V30 1696 C 158.399 1.60405 -3.05556 0
M  V30 1697 C 157.512 1.02863 -4.19575 0
M  V30 1698 C 156.647 2.12918 -4.86661 0
M  V30 1699 C 155.686 1.52869 -5.92704 0
M  V30 1700 N 154.823 2.56779 -6.53459 0
M  V30 1701 H 159.663 -0.153649 -2.97604 0
M  V30 1702 H 157.2 -0.0875946 -1.46839 0
M  V30 1703 H 159.158 2.27034 -3.50016 0
M  V30 1704 H 157.788 2.20131 -2.36097 0
M  V30 1705 H 156.84 0.252465 -3.79561 0
M  V30 1706 H 158.152 0.549642 -4.95762 0
M  V30 1707 H 157.306 2.87356 -5.34333 0
M  V30 1708 H 156.045 2.6417 -4.09958 0
M  V30 1709 H 155.05 0.769479 -5.44389 0
M  V30 1710 H 156.275 1.02435 -6.7133 0
M  V30 1711 H 154.221 3.07235 -5.79606 0
M  V30 1712 H 154.138 2.13583 -7.25202 0
M  V30 1713 H 155.406 3.30903 -7.05779 0
M  V30 1714 N 159.635 1.57281 -0.100228 0
M  V30 1715 C 160.863 1.98879 0.570509 0
M  V30 1716 C 161.278 0.979476 1.61405 0
M  V30 1717 O 160.635 -0.0302288 1.82475 0
M  V30 1718 C 160.686 3.4052 1.2136 0
M  V30 1719 O 160.407 4.37588 0.211786 0
M  V30 1720 C 161.908 3.97149 1.96945 0
M  V30 1721 H 159.128 0.653428 0.152555 0
M  V30 1722 H 161.672 2.03697 -0.18103 0
M  V30 1723 H 159.827 3.367 1.91603 0
M  V30 1724 H 160.241 5.20118 0.676607 0
M  V30 1725 H 161.715 4.98393 2.37294 0
M  V30 1726 H 162.192 3.3525 2.83733 0
M  V30 1727 H 162.798 4.04458 1.31506 0
M  V30 1728 N 161.113 -0.173488 1.56642 0
M  V30 1729 C 162.023 -1.23482 1.99473 0
M  V30 1730 C 163.039 -1.48567 0.905752 0
M  V30 1731 O 164.215 -1.60758 1.21321 0
M  V30 1732 C 161.28 -2.55444 2.34413 0
M  V30 1733 C 160.341 -2.38241 3.57127 0
M  V30 1734 C 159.574 -3.63909 3.90392 0
M  V30 1735 O 159.797 -4.68996 3.24653 0
M  V30 1736 O 158.731 -3.58149 4.83749 0
M  V30 1737 H 162.557 -0.901279 2.90018 0
M  V30 1738 H 160.142 -0.380185 1.44482 0
M  V30 1739 H 162.024 -3.33292 2.57865 0
M  V30 1740 H 160.699 -2.88382 1.4703 0
M  V30 1741 H 159.606 -1.58431 3.38896 0
M  V30 1742 H 160.939 -2.10228 4.45045 0
M  V30 1743 N 162.591 -1.51276 -0.441967 0
M  V30 1744 C 163.84 -1.6295 -1.18871 0
M  V30 1745 C 164.153 -0.349312 -1.92456 0
M  V30 1746 O 165.359 -0.345355 -2.69295 0
M  V30 1747 C 163.815 -2.87759 -2.16155 0
M  V30 1748 C 163.423 -4.22764 -1.48239 0
M  V30 1749 C 165.167 -3.08788 -2.91291 0
M  V30 1750 C 163.074 -5.38728 -2.4398 0
M  V30 1751 H 162.004 -0.606913 -0.447406 0
M  V30 1752 H 164.655 -1.77739 -0.456205 0
M  V30 1753 H 163.037 -2.66593 -2.92821 0
M  V30 1754 H 164.211 -4.54293 -0.771635 0
M  V30 1755 H 162.526 -4.07575 -0.852741 0
M  V30 1756 H 165.123 -3.92599 -3.63002 0
M  V30 1757 H 165.466 -2.21679 -3.5237 0
M  V30 1758 H 165.999 -3.30272 -2.21733 0
M  V30 1759 H 162.738 -6.28082 -1.87598 0
M  V30 1760 H 162.258 -5.1158 -3.13123 0
M  V30 1761 H 163.937 -5.70489 -3.05207 0
M  V30 1762 N 164.069 0.697108 -1.41344 0
M  V30 1763 C 164.999 1.82353 -1.45841 0
M  V30 1764 C 165.98 1.67115 -0.317247 0
M  V30 1765 O 167.165 1.86871 -0.528474 0
M  V30 1766 C 164.295 3.20476 -1.33838 0
M  V30 1767 C 163.249 3.50415 -2.4575 0
M  V30 1768 C 162.575 4.87878 -2.18813 0
M  V30 1769 C 163.875 3.49546 -3.88091 0
M  V30 1770 H 165.569 1.78846 -2.40113 0
M  V30 1771 H 163.115 0.859028 -1.15571 0
M  V30 1772 H 165.068 3.98988 -1.35596 0
M  V30 1773 H 163.792 3.24604 -0.360498 0
M  V30 1774 H 162.451 2.74253 -2.43271 0
M  V30 1775 H 162.099 4.8863 -1.19371 0
M  V30 1776 H 161.799 5.08875 -2.93803 0
M  V30 1777 H 163.323 5.68702 -2.22284 0
M  V30 1778 H 164.737 4.18066 -3.92293 0
M  V30 1779 H 163.134 3.82075 -4.62751 0
M  V30 1780 H 164.204 2.48552 -4.16353 0
M  V30 1781 N 165.547 1.27147 0.931209 0
M  V30 1782 C 166.795 1.13055 1.6752 0
M  V30 1783 C 167.116 -0.324791 1.92276 0
M  V30 1784 O 166.386 -1.22775 1.52654 0
M  V30 1785 H 164.966 0.415391 0.620854 0
M  V30 1786 H 167.628 1.59623 1.11833 0
M  V30 1787 H 166.724 1.65694 2.64485 0
M  V30 1788 N 167.025 -1.13721 1.09112 0
M  V30 1789 C 168.273 -1.84559 0.823562 0
M  V30 1790 C 168.594 -1.83754 -0.652658 0
M  V30 1791 O 167.864 -1.29102 -1.47342 0
M  V30 1792 H 166.444 -0.683376 0.301673 0
M  V30 1793 H 169.106 -1.37771 1.37859 0
M  V30 1794 H 168.202 -2.8917 1.17419 0
M  V30 1795 N 168.503 -0.877838 -1.30888 0
M  V30 1796 C 169.751 -0.491723 -1.96027 0
M  V30 1797 C 170.072 0.960827 -1.69685 0
M  V30 1798 O 169.342 1.67462 -1.01654 0
M  V30 1799 H 167.922 -0.17885 -0.725273 0
M  V30 1800 H 170.584 -1.11935 -1.59551 0
M  V30 1801 H 169.68 -0.656016 -3.05128 0
M  V30 1802 N 169.982 1.44106 -0.638065 0
M  V30 1803 C 171.398 1.56672 -0.304286 0
M  V30 1804 C 171.598 1.6244 1.19228 0
M  V30 1805 O 170.654 1.57121 1.9766 0
M  V30 1806 C 171.967 2.83503 -1.00231 0
M  V30 1807 C 173.515 2.97226 -0.981116 0
M  V30 1808 C 173.99 4.26868 -1.65974 0
M  V30 1809 N 175.481 4.33698 -1.62666 0
M  V30 1810 C 176.216 5.32745 -2.12063 0
M  V30 1811 N 175.712 6.38157 -2.6968 0
M  V30 1812 N 177.505 5.24299 -2.02651 0
M  V30 1813 H 169.656 1.38605 -1.60942 0
M  V30 1814 H 171.919 0.664661 -0.675965 0
M  V30 1815 H 171.625 2.85251 -2.0573 0
M  V30 1816 H 171.499 3.73251 -0.54439 0
M  V30 1817 H 173.886 2.95027 0.0654188 0
M  V30 1818 H 173.967 2.08808 -1.47759 0
M  V30 1819 H 173.611 4.29826 -2.70576 0
M  V30 1820 H 173.541 5.14156 -1.13804 0
M  V30 1821 H 176.032 3.58138 -1.20606 0
M  V30 1822 H 176.345 7.10029 -3.05087 0
M  V30 1823 H 174.69 6.38823 -2.73734 0
M  V30 1824 H 177.881 4.4086 -1.57353 0
M  V30 1825 H 178.054 6.01334 -2.41457 0
M  V30 1826 N 171.46 0.379036 1.52974 0
M  V30 1827 C 172.707 -0.206421 2.01445 0
M  V30 1828 C 173.035 -1.47668 1.26587 0
M  V30 1829 O 172.29 -1.92514 0.351675 0
M  V30 1830 C 172.589 -0.53096 3.53434 0
M  V30 1831 C 172.255 0.646546 4.46241 0
M  V30 1832 C 170.917 0.969604 4.7133 0
M  V30 1833 C 173.269 1.43479 5.01062 0
M  V30 1834 C 170.597 2.08263 5.48492 0
M  V30 1835 C 172.949 2.53834 5.7944 0
M  V30 1836 C 171.613 2.86659 6.02812 0
M  V30 1837 H 170.883 -0.0755349 0.73714 0
M  V30 1838 H 173.53 0.514271 1.84465 0
M  V30 1839 H 171.835 -1.33285 3.68432 0
M  V30 1840 H 173.532 -0.996417 3.88423 0
M  V30 1841 H 170.122 0.384734 4.2687 0
M  V30 1842 H 174.306 1.19844 4.81613 0
M  V30 1843 H 169.562 2.34078 5.64816 0
M  V30 1844 H 173.736 3.15319 6.20924 0
M  V30 1845 H 171.363 3.73026 6.62387 0
M  V30 1846 N 172.938 -1.57226 0.108567 0
M  V30 1847 C 174.186 -1.94448 -0.550853 0
M  V30 1848 C 174.507 -0.992074 -1.67878 0
M  V30 1849 O 173.777 -0.0465 -1.95845 0
M  V30 1850 H 172.357 -0.717897 -0.206479 0
M  V30 1851 H 175.019 -1.94112 0.175062 0
M  V30 1852 H 174.115 -2.97218 -0.952259 0
M  V30 1853 N 174.416 0.165178 -1.56732 0
M  V30 1854 C 175.348 1.22911 -1.93457 0
M  V30 1855 C 176.361 1.40152 -0.828333 0
M  V30 1856 O 177.55 1.40046 -1.10677 0
M  V30 1857 C 174.65 2.59686 -2.17753 0
M  V30 1858 C 173.823 2.63663 -3.48999 0
M  V30 1859 C 172.882 3.81845 -3.62051 0
M  V30 1860 O 171.908 3.67559 -4.34613 0
M  V30 1861 N 173.11 4.98557 -2.97357 0
M  V30 1862 H 175.875 0.917118 -2.85323 0
M  V30 1863 H 173.436 0.354895 -1.57962 0
M  V30 1864 H 175.428 3.37225 -2.23743 0
M  V30 1865 H 173.998 2.83251 -1.32242 0
M  V30 1866 H 173.218 1.72173 -3.54612 0
M  V30 1867 H 174.506 2.63336 -4.35352 0
M  V30 1868 H 173.904 5.13065 -2.38287 0
M  V30 1869 H 172.461 5.73936 -3.08934 0
M  V30 1870 N 175.894 1.51508 0.433938 0
M  V30 1871 C 177.14 1.64588 1.18484 0
M  V30 1872 C 177.473 0.362666 1.90784 0
M  V30 1873 O 176.748 -0.637892 1.83742 0
M  V30 1874 C 177.031 2.85149 2.19913 0
M  V30 1875 C 176.884 4.23456 1.51674 0
M  V30 1876 C 178.203 3.01227 3.20858 0
M  V30 1877 H 175.322 0.598994 0.429389 0
M  V30 1878 H 177.964 1.84002 0.473647 0
M  V30 1879 H 176.114 2.68729 2.80566 0
M  V30 1880 H 177.786 4.51552 0.943322 0
M  V30 1881 H 176.029 4.25998 0.819035 0
M  V30 1882 H 176.7 5.03812 2.2556 0
M  V30 1883 H 179.176 3.16382 2.70263 0
M  V30 1884 H 178.052 3.87141 3.89118 0
M  V30 1885 H 178.313 2.13447 3.8716 0
M  V30 1886 N 177.372 -0.689602 1.41712 0
M  V30 1887 C 178.322 -1.79571 1.40493 0
M  V30 1888 C 179.306 -1.58473 0.278409 0
M  V30 1889 O 180.498 -1.69204 0.519532 0
M  V30 1890 C 177.627 -3.17923 1.29536 0
M  V30 1891 C 176.713 -3.44695 2.47075 0
M  V30 1892 N 177.104 -3.42132 3.72531 0
M  V30 1893 C 175.402 -3.75269 2.41017 0
M  V30 1894 C 176.103 -3.67976 4.50521 0
M  V30 1895 N 175.079 -3.88014 3.80718 0
M  V30 1896 H 178.881 -1.75961 2.35404 0
M  V30 1897 H 176.395 -0.889839 1.35851 0
M  V30 1898 H 178.392 -3.97167 1.26745 0
M  V30 1899 H 177.052 -3.22741 0.356153 0
M  V30 1900 H 178.063 -3.22375 4.05333 0
M  V30 1901 H 174.74 -3.87421 1.55599 0
M  V30 1902 H 176.13 -3.7208 5.59469 0
M  V30 1903 N 178.85 -1.27639 -0.924453 0
M  V30 1904 C 179.797 -1.10644 -2.0255 0
M  V30 1905 C 180.767 -0.00658438 -1.66099 0
M  V30 1906 O 181.952 -0.16952 -1.90045 0
M  V30 1907 C 179.092 -0.76309 -3.36557 0
M  V30 1908 C 178.205 -1.94091 -3.85944 0
M  V30 1909 C 177.34 -1.53914 -5.08413 0
M  V30 1910 C 176.379 -2.68425 -5.50104 0
M  V30 1911 N 175.516 -2.28815 -6.63768 0
M  V30 1912 H 180.356 -2.04858 -2.16419 0
M  V30 1913 H 177.893 -1.01974 -1.06017 0
M  V30 1914 H 179.851 -0.544822 -4.13627 0
M  V30 1915 H 178.481 0.142102 -3.22487 0
M  V30 1916 H 177.533 -2.27162 -3.05125 0
M  V30 1917 H 178.845 -2.7998 -4.12811 0
M  V30 1918 H 177.999 -1.28231 -5.92994 0
M  V30 1919 H 176.738 -0.651391 -4.8333 0
M  V30 1920 H 175.743 -2.94819 -4.64071 0
M  V30 1921 H 176.968 -3.57826 -5.7718 0
M  V30 1922 H 174.914 -1.42495 -6.40337 0
M  V30 1923 H 174.831 -3.08242 -6.90306 0
M  V30 1924 H 176.099 -2.06387 -7.51681 0
M  V30 1925 N 180.328 1.1314 -1.09713 0
M  V30 1926 C 181.568 1.8613 -0.844683 0
M  V30 1927 C 181.932 1.81765 0.618491 0
M  V30 1928 O 183.133 2.50024 0.98699 0
M  V30 1929 C 181.404 3.30151 -1.36877 0
M  V30 1930 S 182.963 4.206 -1.25064 0
M  V30 1931 H 179.781 0.642056 -0.305427 0
M  V30 1932 H 182.383 1.36343 -1.4011 0
M  V30 1933 H 181.087 3.30883 -2.42786 0
M  V30 1934 H 180.618 3.85 -0.808614 0
M  V30 1935 H 182.633 4.95783 -0.203486 0
M  V30 1936 N 181.806 0.884767 1.30421 0
M  V30 1937 C 182.716 0.355398 2.31892 0
M  V30 1938 C 183.732 -0.542261 1.65335 0
M  V30 1939 O 184.908 -0.435432 1.96637 0
M  V30 1940 C 181.973 -0.421661 3.44126 0
M  V30 1941 C 181.034 0.505727 4.26311 0
M  V30 1942 C 180.267 -0.234343 5.33185 0
M  V30 1943 O 180.49 -1.46045 5.51386 0
M  V30 1944 O 179.424 0.415443 6.00465 0
M  V30 1945 H 183.25 1.19685 2.79122 0
M  V30 1946 H 180.835 0.648596 1.34587 0
M  V30 1947 H 182.717 -0.861641 4.12497 0
M  V30 1948 H 181.392 -1.23942 2.99032 0
M  V30 1949 H 180.299 0.994513 3.60639 0
M  V30 1950 H 181.632 1.28948 4.75009 0
M  V30 1951 N 183.284 -1.43765 0.645699 0
M  V30 1952 C 184.194 -2.34544 -0.0512957 0
M  V30 1953 C 185.21 -1.53455 -0.82022 0
M  V30 1954 O 186.386 -1.86133 -0.769176 0
M  V30 1955 C 183.451 -3.31636 -1.01087 0
M  V30 1956 C 182.512 -4.2863 -0.239712 0
M  V30 1957 C 181.745 -5.21084 -1.15358 0
M  V30 1958 O 181.968 -5.1779 -2.39269 0
M  V30 1959 O 180.902 -5.98593 -0.630038 0
M  V30 1960 H 184.728 -2.95624 0.695718 0
M  V30 1961 H 182.313 -1.43781 0.405882 0
M  V30 1962 H 184.195 -3.9136 -1.56254 0
M  V30 1963 H 182.87 -2.73069 -1.73824 0
M  V30 1964 H 181.777 -3.72408 0.355356 0
M  V30 1965 H 183.11 -4.90157 0.447936 0
M  V30 1966 N 184.763 -0.387143 -1.52771 0
M  V30 1967 C 185.991 0.195869 -2.05971 0
M  V30 1968 C 186.406 1.40691 -1.25903 0
M  V30 1969 O 185.763 1.79931 -0.305134 0
M  V30 1970 C 185.814 0.56812 -3.57008 0
M  V30 1971 O 185.535 -0.594803 -4.34043 0
M  V30 1972 C 187.036 1.20723 -4.26545 0
M  V30 1973 H 184.256 0.0300578 -0.670326 0
M  V30 1974 H 186.8 -0.551749 -1.96916 0
M  V30 1975 H 184.955 1.26564 -3.66143 0
M  V30 1976 H 185.369 -0.289322 -5.23701 0
M  V30 1977 H 186.843 1.41807 -5.33474 0
M  V30 1978 H 187.32 2.17395 -3.81623 0
M  V30 1979 H 187.926 0.550535 -4.21722 0
M  V30 1980 N 186.241 1.57166 -0.116904 0
M  V30 1981 C 187.204 2.14039 0.819742 0
M  V30 1982 C 188.204 1.07477 1.19605 0
M  V30 1983 O 189.394 1.33263 1.1219 0
M  V30 1984 C 186.526 2.67891 2.10826 0
M  V30 1985 H 187.719 2.98128 0.325511 0
M  V30 1986 H 185.272 1.55739 0.132312 0
M  V30 1987 H 186.007 1.87384 2.64685 0
M  V30 1988 H 185.792 3.45823 1.84793 0
M  V30 1989 H 187.282 3.11809 2.77785 0
M  V30 1990 N 187.719 -0.156864 1.56817 0
M  V30 1991 C 188.947 -0.886316 1.86955 0
M  V30 1992 C 189.362 -1.75185 0.703975 0
M  V30 1993 O 188.719 -1.79555 -0.326552 0
M  V30 1994 C 188.77 -1.75117 3.16253 0
M  V30 1995 O 188.491 -0.920537 4.2832 0
M  V30 1996 C 189.992 -2.58905 3.59837 0
M  V30 1997 H 187.212 -0.25678 0.619923 0
M  V30 1998 H 189.756 -0.152615 2.0393 0
M  V30 1999 H 187.911 -2.43805 3.01062 0
M  V30 2000 H 188.325 -1.51337 5.02192 0
M  V30 2001 H 189.799 -3.1518 4.53172 0
M  V30 2002 H 190.276 -3.34472 2.84649 0
M  V30 2003 H 190.882 -1.95526 3.7769 0
M  V30 2004 N 189.197 -1.51736 -0.425897 0
M  V30 2005 C 190.445 -1.64644 -1.17204 0
M  V30 2006 C 190.766 -0.370486 -1.91448 0
M  V30 2007 O 190.036 0.614088 -1.86026 0
M  V30 2008 H 188.616 -0.606819 -0.435638 0
M  V30 2009 H 191.278 -1.88713 -0.487177 0
M  V30 2010 H 190.374 -2.47958 -1.89534 0
M  V30 2011 N 190.675 0.682077 -1.42076 0
M  V30 2012 C 191.605 1.80796 -1.47767 0
M  V30 2013 C 192.586 1.6677 -0.334954 0
M  V30 2014 O 193.771 1.863 -0.548264 0
M  V30 2015 C 190.901 3.19038 -1.37229 0
M  V30 2016 C 189.855 3.47789 -2.49453 0
M  V30 2017 C 189.181 4.8553 -2.23975 0
M  V30 2018 C 190.481 3.45411 -3.91776 0
M  V30 2019 H 192.175 1.7629 -2.41997 0
M  V30 2020 H 189.721 0.846721 -1.16476 0
M  V30 2021 H 191.674 3.97528 -1.39821 0
M  V30 2022 H 190.398 3.24204 -0.394907 0
M  V30 2023 H 189.057 2.71657 -2.46166 0
M  V30 2024 H 188.705 4.87337 -1.24547 0
M  V30 2025 H 188.405 5.0573 -2.99184 0
M  V30 2026 H 189.929 5.66312 -2.28304 0
M  V30 2027 H 191.343 4.13882 -3.96705 0
M  V30 2028 H 189.74 3.77145 -4.66778 0
M  V30 2029 H 190.81 2.44122 -4.18966 0
M  V30 2030 N 192.153 1.28127 0.917671 0
M  V30 2031 C 193.1 1.11717 2.0196 0
M  V30 2032 C 194.07 0.0153929 1.66093 0
M  V30 2033 O 195.255 0.179596 1.89953 0
M  V30 2034 C 192.395 0.780927 3.36148 0
M  V30 2035 C 191.508 1.96135 3.84909 0
M  V30 2036 C 190.643 1.56609 5.0759 0
M  V30 2037 C 189.682 2.71339 5.48673 0
M  V30 2038 N 188.819 2.32332 6.62545 0
M  V30 2039 H 193.659 2.06003 2.15329 0
M  V30 2040 H 191.196 1.02535 1.05475 0
M  V30 2041 H 193.154 0.56675 4.13333 0
M  V30 2042 H 191.784 -0.124998 3.22558 0
M  V30 2043 H 190.836 2.28777 3.03916 0
M  V30 2044 H 192.148 2.82165 4.1132 0
M  V30 2045 H 191.302 1.31374 5.92305 0
M  V30 2046 H 190.041 0.677014 4.82978 0
M  V30 2047 H 189.046 2.97276 4.62501 0
M  V30 2048 H 190.271 3.60882 5.75274 0
M  V30 2049 H 188.217 1.45889 6.39572 0
M  V30 2050 H 188.134 3.11899 6.88662 0
M  V30 2051 H 189.402 2.10371 7.50576 0
M  V30 2052 N 193.631 -1.12557 1.10312 0
M  V30 2053 C 194.561 -2.20341 0.772798 0
M  V30 2054 C 195.542 -1.68198 -0.25365 0
M  V30 2055 O 196.727 -1.93831 -0.119699 0
M  V30 2056 C 193.857 -3.46709 0.202443 0
M  V30 2057 C 192.811 -4.11996 1.15943 0
M  V30 2058 C 192.137 -5.328 0.450345 0
M  V30 2059 C 193.437 -4.5828 2.50552 0
M  V30 2060 H 195.131 -2.48229 1.674 0
M  V30 2061 H 192.677 -1.19308 0.806326 0
M  V30 2062 H 194.63 -4.2138 -0.0407752 0
M  V30 2063 H 193.354 -3.18245 -0.734001 0
M  V30 2064 H 192.013 -3.39305 1.38808 0
M  V30 2065 H 191.661 -5.00602 -0.490531 0
M  V30 2066 H 191.361 -5.7743 1.08851 0
M  V30 2067 H 192.885 -6.10219 0.215642 0
M  V30 2068 H 194.299 -5.2433 2.31843 0
M  V30 2069 H 192.696 -5.13683 3.10242 0
M  V30 2070 H 193.766 -3.72329 3.10643 0
M  V30 2071 N 195.109 -0.891671 -1.2995 0
M  V30 2072 C 196.072 -0.36828 -2.26222 0
M  V30 2073 C 197.072 0.493014 -1.53056 0
M  V30 2074 O 198.262 0.299213 -1.71611 0
M  V30 2075 C 195.394 0.47442 -3.37583 0
M  V30 2076 H 196.587 -1.21844 -2.74033 0
M  V30 2077 H 194.14 -0.669107 -1.41254 0
M  V30 2078 H 194.875 1.34489 -2.95099 0
M  V30 2079 H 194.66 -0.142615 -3.91841 0
M  V30 2080 H 196.15 0.83218 -4.09224 0
M  V30 2081 N 196.587 1.43421 -0.653314 0
M  V30 2082 C 197.55 2.29182 0.0287951 0
M  V30 2083 C 198.55 1.42213 0.750465 0
M  V30 2084 O 199.74 1.63843 0.591701 0
M  V30 2085 C 196.872 3.24278 1.05151 0
M  V30 2086 H 198.065 2.90985 -0.725786 0
M  V30 2087 H 195.618 1.50702 -0.414545 0
M  V30 2088 H 196.353 2.6737 1.83532 0
M  V30 2089 H 196.138 3.88396 0.537687 0
M  V30 2090 H 197.628 3.88647 1.52786 0
M  V30 2091 N 198.065 0.39524 1.52563 0
M  V30 2092 C 199.012 -0.437036 2.26624 0
M  V30 2093 C 199.982 -1.05281 1.28472 0
M  V30 2094 O 201.167 -1.07971 1.57311 0
M  V30 2095 C 198.307 -1.55524 3.08069 0
M  V30 2096 C 197.42 -0.961745 4.21158 0
M  V30 2097 C 196.555 -2.05149 4.89987 0
M  V30 2098 C 195.594 -1.4342 5.95061 0
M  V30 2099 N 194.731 -2.46351 6.57462 0
M  V30 2100 H 199.571 0.200976 2.97322 0
M  V30 2101 H 197.108 0.110944 1.46681 0
M  V30 2102 H 199.066 -2.21437 3.53584 0
M  V30 2103 H 197.696 -2.16348 2.3957 0
M  V30 2104 H 196.748 -0.192048 3.79915 0
M  V30 2105 H 198.06 -0.470701 4.96574 0
M  V30 2106 H 197.214 -2.78819 5.38837 0
M  V30 2107 H 195.953 -2.57615 4.14109 0
M  V30 2108 H 194.958 -0.682774 5.45544 0
M  V30 2109 H 196.183 -0.917416 6.72875 0
M  V30 2110 H 194.129 -2.97975 5.8442 0
M  V30 2111 H 194.046 -2.02019 7.28508 0
M  V30 2112 H 195.314 -3.19633 7.10954 0
M  V30 2113 N 199.544 -1.57102 0.125237 0
M  V30 2114 C 200.793 -1.94582 -0.531095 0
M  V30 2115 C 201.106 -1.01126 -1.6743 0
M  V30 2116 O 202.312 -1.28097 -2.39381 0
M  V30 2117 C 200.768 -3.45839 -0.996164 0
M  V30 2118 C 200.376 -4.47842 0.118926 0
M  V30 2119 C 202.12 -3.92227 -1.62352 0
M  V30 2120 C 200.027 -5.90284 -0.363192 0
M  V30 2121 H 198.957 -0.726391 -0.20217 0
M  V30 2122 H 201.608 -1.82339 0.206092 0
M  V30 2123 H 199.99 -3.53338 -1.78796 0
M  V30 2124 H 201.164 -4.52018 0.895358 0
M  V30 2125 H 199.479 -4.11243 0.653324 0
M  V30 2126 H 202.076 -4.96069 -1.99548 0
M  V30 2127 H 202.419 -3.32552 -2.50429 0
M  V30 2128 H 202.952 -3.87554 -0.897019 0
M  V30 2129 H 199.691 -6.53728 0.481679 0
M  V30 2130 H 199.211 -5.89515 -1.10597 0
M  V30 2131 H 200.89 -6.41752 -0.822377 0
M  V30 2132 N 201.022 0.148545 -1.56898 0
M  V30 2133 C 202.271 0.85984 -1.82454 0
M  V30 2134 C 202.584 1.82406 -0.706229 0
M  V30 2135 O 203.79 2.57938 -0.847349 0
M  V30 2136 C 202.246 1.57967 -3.2338 0
M  V30 2137 C 201.854 0.65794 -4.43142 0
M  V30 2138 C 203.598 2.27784 -3.58211 0
M  V30 2139 C 201.505 1.3793 -5.75091 0
M  V30 2140 H 200.435 0.324834 -0.68044 0
M  V30 2141 H 203.086 0.112588 -1.83154 0
M  V30 2142 H 201.468 2.37249 -3.17063 0
M  V30 2143 H 202.642 -0.0995497 -4.60692 0
M  V30 2144 H 200.957 0.0682643 -4.16344 0
M  V30 2145 H 203.554 2.8239 -4.54048 0
M  V30 2146 H 203.897 3.04204 -2.84193 0
M  V30 2147 H 204.43 1.55421 -3.66182 0
M  V30 2148 H 201.169 0.656982 -6.52199 0
M  V30 2149 H 200.689 2.10954 -5.61479 0
M  V30 2150 H 202.368 1.92063 -6.17835 0
M  V30 2151 N 202.5 1.5196 0.417844 0
M  V30 2152 C 203.447 1.74678 1.50852 0
M  V30 2153 C 204.417 0.588947 1.55308 0
M  V30 2154 O 205.602 0.825544 1.72016 0
M  V30 2155 C 202.742 1.89544 2.88387 0
M  V30 2156 C 201.855 3.17166 2.93309 0
M  V30 2157 C 200.99 3.22513 4.22088 0
M  V30 2158 C 200.029 4.44372 4.20951 0
M  V30 2159 N 199.166 4.47161 5.41287 0
M  V30 2160 H 204.006 2.67768 1.30783 0
M  V30 2161 H 201.543 1.32689 0.63498 0
M  V30 2162 H 203.501 1.96146 3.68216 0
M  V30 2163 H 202.131 0.998424 3.06971 0
M  V30 2164 H 201.183 3.19778 2.06024 0
M  V30 2165 H 202.495 4.07021 2.88332 0
M  V30 2166 H 201.649 3.28139 5.10303 0
M  V30 2167 H 200.388 2.30581 4.29748 0
M  V30 2168 H 199.393 4.38902 3.31127 0
M  V30 2169 H 200.618 5.3759 4.14938 0
M  V30 2170 H 198.564 3.58108 5.49632 0
M  V30 2171 H 198.481 5.3085 5.3827 0
M  V30 2172 H 199.749 4.57005 6.3148 0
M  V30 2173 N 203.978 -0.674533 1.42435 0
M  V30 2174 C 205.206 -1.46283 1.46317 0
M  V30 2175 C 205.621 -1.88653 0.0745836 0
M  V30 2176 O 204.978 -1.58151 -0.91074 0
M  V30 2177 C 205.029 -2.71178 2.3905 0
M  V30 2178 O 204.75 -2.30586 3.72507 0
M  V30 2179 C 206.251 -3.64738 2.51955 0
M  V30 2180 H 203.471 -0.450104 0.497642 0
M  V30 2181 H 206.015 -0.828792 1.86953 0
M  V30 2182 H 204.17 -3.3077 2.01667 0
M  V30 2183 H 204.584 -3.11241 4.22172 0
M  V30 2184 H 206.058 -4.49096 3.20962 0
M  V30 2185 H 206.535 -4.10656 1.55752 0
M  V30 2186 H 207.141 -3.11038 2.90061 0
M  V30 2187 N 205.456 -1.28612 -0.910864 0
M  V30 2188 C 206.872 -1.06381 -1.18976 0
M  V30 2189 C 207.072 0.191998 -2.00583 0
M  V30 2190 O 206.128 0.892869 -2.36187 0
M  V30 2191 C 207.441 -2.31295 -1.92154 0
M  V30 2192 C 208.989 -2.36503 -2.05025 0
M  V30 2193 C 209.464 -3.61191 -2.81612 0
M  V30 2194 N 210.955 -3.61847 -2.89172 0
M  V30 2195 C 211.69 -4.55004 -3.4894 0
M  V30 2196 N 211.186 -5.58482 -4.09963 0
M  V30 2197 N 212.979 -4.42594 -3.46506 0
M  V30 2198 H 205.13 -2.09221 -0.366094 0
M  V30 2199 H 207.393 -0.921003 -0.224629 0
M  V30 2200 H 207.099 -3.228 -1.39618 0
M  V30 2201 H 206.973 -2.37934 -2.9269 0
M  V30 2202 H 209.36 -1.45494 -2.5674 0
M  V30 2203 H 209.441 -2.33857 -1.03657 0
M  V30 2204 H 209.085 -4.52545 -2.30576 0
M  V30 2205 H 209.015 -3.61092 -3.83302 0
M  V30 2206 H 211.506 -2.87022 -2.45819 0
M  V30 2207 H 211.819 -6.25704 -4.53557 0
M  V30 2208 H 210.164 -5.62305 -4.08459 0
M  V30 2209 H 213.355 -3.60953 -2.98045 0
M  V30 2210 H 213.528 -5.15381 -3.92793 0
M  V30 2211 N 206.934 1.1197 -1.10907 0
M  V30 2212 C 208.182 1.83225 -0.852819 0
M  V30 2213 C 208.503 1.84769 0.623341 0
M  V30 2214 O 207.773 1.3143 1.45269 0
M  V30 2215 H 206.353 0.67849 -0.312507 0
M  V30 2216 H 209.015 1.3556 -1.40033 0
M  V30 2217 H 208.111 2.87265 -1.22005 0
M  V30 2218 N 208.412 0.89855 1.29475 0
M  V30 2219 C 209.345 0.319981 2.25945 0
M  V30 2220 C 210.323 -0.567189 1.52387 0
M  V30 2221 O 211.507 -0.514254 1.8135 0
M  V30 2222 C 208.634 -0.544013 3.34303 0
M  V30 2223 C 207.68 0.275682 4.25608 0
M  V30 2224 S 208.513 1.67272 5.08704 0
M  V30 2225 C 209.669 0.815621 6.20563 0
M  V30 2226 H 209.902 1.13767 2.74671 0
M  V30 2227 H 207.435 0.69882 1.3768 0
M  V30 2228 H 209.393 -1.03673 3.97193 0
M  V30 2229 H 208.054 -1.33593 2.84274 0
M  V30 2230 H 207.247 -0.384263 5.02533 0
M  V30 2231 H 206.849 0.701496 3.67362 0
M  V30 2232 H 209.141 0.0385042 6.77489 0
M  V30 2233 H 210.084 1.55691 6.90772 0
M  V30 2234 H 210.492 0.370516 5.63283 0
M  V30 2235 N 209.89 -1.43072 0.660911 0
M  V30 2236 C 210.837 -2.30785 -0.0259884 0
M  V30 2237 C 211.807 -1.45184 -0.806888 0
M  V30 2238 O 212.992 -1.74041 -0.781943 0
M  V30 2239 C 210.132 -3.30861 -0.981067 0
M  V30 2240 C 209.245 -4.31558 -0.195458 0
M  V30 2241 C 208.38 -5.18712 -1.14503 0
M  V30 2242 C 207.419 -6.11097 -0.350299 0
M  V30 2243 N 206.556 -6.90849 -1.25186 0
M  V30 2244 H 211.396 -2.88975 0.727846 0
M  V30 2245 H 208.933 -1.42353 0.370682 0
M  V30 2246 H 210.891 -3.87399 -1.54849 0
M  V30 2247 H 209.521 -2.74304 -1.70169 0
M  V30 2248 H 208.573 -3.77252 0.488374 0
M  V30 2249 H 209.885 -4.9701 0.422176 0
M  V30 2250 H 209.039 -5.79914 -1.78284 0
M  V30 2251 H 207.778 -4.53404 -1.79656 0
M  V30 2252 H 206.783 -5.48976 0.300808 0
M  V30 2253 H 208.008 -6.7845 0.296941 0
M  V30 2254 H 205.954 -6.28182 -1.89005 0
M  V30 2255 H 205.871 -7.52854 -0.688971 0
M  V30 2256 H 207.139 -7.5655 -1.87757 0
M  V30 2257 N 211.368 -0.403325 -1.52352 0
M  V30 2258 C 212.645 0.232611 -1.94212 0
M  V30 2259 C 213.025 1.63133 -1.33981 0
M  V30 2260 O 212.373 2.22659 -0.513344 0
M  V30 2261 C 212.583 0.244811 -3.4814 0
M  V30 2262 C 213.931 0.46698 -4.22024 0
M  V30 2263 O 214.955 0.324419 -3.5472 0
M  V30 2264 O 213.814 0.74747 -5.41364 0
M  V30 2265 H 210.908 0.148223 -0.813609 0
M  V30 2266 H 213.454 -0.458848 -1.63379 0
M  V30 2267 H 212.226 -0.734378 -3.84347 0
M  V30 2268 H 211.849 0.980611 -3.85318 0
M  V30 2269 N 212.846 1.57033 -0.133567 0
M  V30 2270 C 213.793 2.16074 0.811208 0
M  V30 2271 C 214.763 1.08979 1.2535 0
M  V30 2272 O 215.948 1.36958 1.32843 0
M  V30 2273 C 213.088 2.77595 2.05024 0
M  V30 2274 C 212.201 3.99042 1.65498 0
M  V30 2275 C 211.336 4.48603 2.84479 0
M  V30 2276 C 210.375 5.62547 2.41262 0
M  V30 2277 N 209.512 6.06787 3.53206 0
M  V30 2278 H 214.352 2.96477 0.300906 0
M  V30 2279 H 211.889 1.46462 0.136822 0
M  V30 2280 H 213.847 3.11402 2.77642 0
M  V30 2281 H 212.477 1.99859 2.53488 0
M  V30 2282 H 211.529 3.71302 0.826981 0
M  V30 2283 H 212.841 4.81629 1.29748 0
M  V30 2284 H 211.995 4.84395 3.65303 0
M  V30 2285 H 210.734 3.64995 3.23465 0
M  V30 2286 H 209.739 5.26345 1.58874 0
M  V30 2287 H 210.964 6.47931 2.03377 0
M  V30 2288 H 208.91 5.26117 3.91838 0
M  V30 2289 H 208.827 6.84266 3.21427 0
M  V30 2290 H 210.095 6.4722 4.34427 0
M  V30 2291 N 214.325 -0.140222 1.56975 0
M  V30 2292 C 215.235 -1.19223 2.02047 0
M  V30 2293 C 216.251 -1.46612 0.937062 0
M  V30 2294 O 217.427 -1.58148 1.24704 0
M  V30 2295 C 214.492 -2.50414 2.39778 0
M  V30 2296 C 213.553 -2.30612 3.621 0
M  V30 2297 C 212.786 -3.55547 3.98023 0
M  V30 2298 O 213.009 -4.62004 3.34528 0
M  V30 2299 O 211.943 -3.47808 4.91237 0
M  V30 2300 H 215.769 -0.839559 2.91865 0
M  V30 2301 H 213.354 -0.349453 1.45256 0
M  V30 2302 H 215.236 -3.27747 2.64877 0
M  V30 2303 H 213.911 -2.85198 1.53114 0
M  V30 2304 H 212.818 -1.51207 3.4218 0
M  V30 2305 H 214.151 -2.00741 4.49404 0
M  V30 2306 N 215.803 -1.52179 -0.40978 0
M  V30 2307 C 216.713 -1.78364 -1.52392 0
M  V30 2308 C 217.729 -0.669183 -1.60617 0
M  V30 2309 O 218.905 -0.954518 -1.77344 0
M  V30 2310 C 215.97 -1.92822 -2.88133 0
M  V30 2311 C 215.031 -3.16725 -2.898 0
M  V30 2312 C 214.264 -3.30483 -4.19067 0
M  V30 2313 O 214.487 -2.49522 -5.12928 0
M  V30 2314 O 213.421 -4.2363 -4.27576 0
M  V30 2315 H 217.247 -2.72931 -1.33201 0
M  V30 2316 H 214.832 -1.37016 -0.59557 0
M  V30 2317 H 216.714 -2.04157 -3.68643 0
M  V30 2318 H 215.389 -1.01444 -3.07393 0
M  V30 2319 H 214.296 -3.10848 -2.08146 0
M  V30 2320 H 215.629 -4.07881 -2.75489 0
M  V30 2321 N 217.281 0.66697 -1.42791 0
M  V30 2322 C 218.527 1.4291 -1.43891 0
M  V30 2323 C 218.86 1.94114 -0.0578972 0
M  V30 2324 O 218.135 1.71414 0.91911 0
M  V30 2325 C 218.418 2.62049 -2.46987 0
M  V30 2326 C 218.271 2.16426 -3.94309 0
M  V30 2327 C 219.59 3.64266 -2.46978 0
M  V30 2328 H 216.709 0.518306 -0.523954 0
M  V30 2329 H 219.351 0.757321 -1.74255 0
M  V30 2330 H 217.501 3.19361 -2.21225 0
M  V30 2331 H 219.173 1.64221 -4.31079 0
M  V30 2332 H 217.416 1.47925 -4.078 0
M  V30 2333 H 218.087 3.02038 -4.62036 0
M  V30 2334 H 220.563 3.16686 -2.69906 0
M  V30 2335 H 219.439 4.45196 -3.21079 0
M  V30 2336 H 219.7 4.15927 -1.49857 0
M  V30 2337 N 218.759 1.29093 0.90403 0
M  V30 2338 C 219.706 1.13853 2.00764 0
M  V30 2339 C 220.676 0.0330084 1.66067 0
M  V30 2340 O 221.861 0.199733 1.89752 0
M  V30 2341 C 219.001 0.816537 3.35301 0
M  V30 2342 C 218.114 2.00206 3.82807 0
M  V30 2343 C 217.249 1.61983 5.059 0
M  V30 2344 C 216.288 2.77143 5.45764 0
M  V30 2345 N 215.425 2.39346 6.60044 0
M  V30 2346 H 220.265 2.08276 2.13132 0
M  V30 2347 H 217.802 1.03648 1.04381 0
M  V30 2348 H 219.76 0.610557 4.12708 0
M  V30 2349 H 218.39 -0.090779 3.22672 0
M  V30 2350 H 217.442 2.31988 3.01473 0
M  V30 2351 H 218.754 2.86512 4.08304 0
M  V30 2352 H 217.908 1.37649 5.90879 0
M  V30 2353 H 216.647 0.728202 4.82233 0
M  V30 2354 H 215.652 3.02165 4.59322 0
M  V30 2355 H 216.877 3.66964 5.71414 0
M  V30 2356 H 214.823 1.52665 6.37989 0
M  V30 2357 H 214.74 3.19185 6.85315 0
M  V30 2358 H 216.008 2.1832 7.48303 0
M  V30 2359 N 220.237 -1.11381 1.11499 0
M  V30 2360 C 221.185 -2.19522 0.768956 0
M  V30 2361 C 222.179 -1.67693 -0.239857 0
M  V30 2362 O 223.385 -1.79727 -0.0990755 0
M  V30 2363 H 219.76 -0.715711 0.230786 0
M  V30 2364 H 221.731 -2.45954 1.68964 0
M  V30 2365 C 220.48 -3.46945 0.229073 0
M  V30 2366 H 219.803 -3.8718 0.996596 0
M  V30 2367 H 221.243 -4.23993 0.0251441 0
M  V30 2368 C 219.702 -3.2042 -1.04079 0
M  V30 2369 O 220.232 -3.41178 -2.12038 0
M  V30 2370 N 218.438 -2.74151 -0.963823 0
M  V30 2371 H 217.985 -2.57459 -0.0851722 0
M  V30 2372 H 217.943 -2.56781 -1.81414 0
M  V30 2373 N 221.715 -0.905404 -1.28997 0
M  V30 2374 C 222.625 -0.392246 -2.31298 0
M  V30 2375 C 223.641 0.515889 -1.66176 0
M  V30 2376 O 224.817 0.404093 -1.97304 0
M  V30 2377 C 221.882 0.36686 -3.44754 0
M  V30 2378 C 220.943 -0.573485 -4.25452 0
M  V30 2379 C 220.176 0.149488 -5.33491 0
M  V30 2380 O 220.399 1.37255 -5.5364 0
M  V30 2381 O 219.333 -0.510919 -5.99728 0
M  V30 2382 H 223.159 -1.2411 -2.77183 0
M  V30 2383 H 220.744 -0.669926 -1.33538 0
M  V30 2384 H 222.626 0.795907 -4.13816 0
M  V30 2385 H 221.301 1.19169 -3.00966 0
M  V30 2386 H 220.208 -1.05176 -3.59011 0
M  V30 2387 H 221.541 -1.36489 -4.72897 0
M  V30 2388 N 223.193 1.4272 -0.668489 0
M  V30 2389 C 224.442 2.00846 -0.185389 0
M  V30 2390 C 224.755 1.53442 1.21305 0
M  V30 2391 O 225.961 2.03944 1.79218 0
M  V30 2392 C 224.417 3.58805 -0.280591 0
M  V30 2393 C 224.025 4.15198 -1.68268 0
M  V30 2394 C 225.769 4.24255 0.14412 0
M  V30 2395 C 223.676 5.655 -1.73099 0
M  V30 2396 H 222.606 0.751145 -0.0655475 0
M  V30 2397 H 225.257 1.63516 -0.832752 0
M  V30 2398 H 223.639 3.93608 0.434553 0
M  V30 2399 H 224.813 3.91866 -2.42441 0
M  V30 2400 H 223.128 3.62176 -2.05469 0
M  V30 2401 H 225.725 5.34547 0.128086 0
M  V30 2402 H 226.068 3.99277 1.17827 0
M  V30 2403 H 226.601 3.94389 -0.519798 0
M  V30 2404 H 223.34 5.95268 -2.74475 0
M  V30 2405 H 222.86 5.90842 -1.03274 0
M  V30 2406 H 224.539 6.29808 -1.48158 0
M  V30 2407 N 224.671 0.411399 1.52136 0
M  V30 2408 C 225.896 -0.165538 2.06738 0
M  V30 2409 C 226.321 -1.379 1.27926 0
M  V30 2410 O 225.679 -1.78628 0.310114 0
M  V30 2411 C 225.727 -0.492124 3.57226 0
M  V30 2412 O 224.831 -1.58276 3.80818 0
M  V30 2413 H 224.172 -0.0132132 0.663869 0
M  V30 2414 H 226.702 0.585253 1.96051 0
M  V30 2415 H 226.712 -0.750104 4.01045 0
M  V30 2416 H 225.387 0.394922 4.14021 0
M  V30 2417 H 223.964 -1.31677 3.48877 0
M  V30 2418 N 226.149 -1.5696 0.141893 0
M  V30 2419 C 227.395 -1.9625 -0.511248 0
M  V30 2420 C 227.728 -1.02654 -1.64851 0
M  V30 2421 O 227.003 -0.0679676 -1.94381 0
M  V30 2422 C 227.286 -3.45285 -1.02227 0
M  V30 2423 C 227.139 -4.49658 0.113138 0
M  V30 2424 C 228.458 -3.96698 -1.90574 0
M  V30 2425 H 225.577 -0.713567 -0.184367 0
M  V30 2426 H 228.219 -1.88698 0.222087 0
M  V30 2427 H 226.369 -3.51852 -1.64719 0
M  V30 2428 H 228.041 -4.55174 0.749302 0
M  V30 2429 H 226.284 -4.26857 0.773026 0
M  V30 2430 H 226.955 -5.51258 -0.286053 0
M  V30 2431 H 229.431 -3.92578 -1.37918 0
M  V30 2432 H 228.307 -5.01453 -2.2324 0
M  V30 2433 H 228.568 -3.3875 -2.84079 0
M  V30 2434 N 227.627 0.131896 -1.57047 0
M  V30 2435 C 228.56 1.19236 -1.94571 0
M  V30 2436 C 229.538 1.40782 -0.813576 0
M  V30 2437 O 230.722 1.55148 -1.07058 0
M  V30 2438 C 227.849 2.54858 -2.23081 0
M  V30 2439 C 226.895 2.49817 -3.45679 0
M  V30 2440 S 227.728 1.95036 -4.98719 0
M  V30 2441 C 228.884 3.32357 -5.30367 0
M  V30 2442 H 229.117 0.872297 -2.84215 0
M  V30 2443 H 226.65 0.338134 -1.50652 0
M  V30 2444 H 228.608 3.32898 -2.40185 0
M  V30 2445 H 227.269 2.84047 -1.34074 0
M  V30 2446 H 226.462 3.49688 -3.62952 0
M  V30 2447 H 226.064 1.79892 -3.27895 0
M  V30 2448 H 228.356 4.28525 -5.2476 0
M  V30 2449 H 229.299 3.19923 -6.31708 0
M  V30 2450 H 229.707 3.3019 -4.57859 0
M  V30 2451 N 229.106 1.52395 0.401703 0
M  V30 2452 C 230.054 1.7689 1.51039 0
M  V30 2453 C 231.048 0.636298 1.56996 0
M  V30 2454 O 232.254 0.818507 1.60314 0
M  V30 2455 H 228.629 0.559502 0.502456 0
M  V30 2456 H 230.6 2.69757 1.27568 0
M  V30 2457 C 229.349 1.94331 2.88324 0
M  V30 2458 H 228.672 2.80905 2.84486 0
M  V30 2459 H 230.112 2.15466 3.65172 0
M  V30 2460 C 228.571 0.712396 3.29282 0
M  V30 2461 O 229.101 -0.116218 4.01532 0
M  V30 2462 N 227.307 0.546154 2.85422 0
M  V30 2463 H 226.854 1.22156 2.26794 0
M  V30 2464 H 226.812 -0.276113 3.13185 0
M  V30 2465 N 230.584 -0.659388 1.43143 0
M  V30 2466 C 231.516 -1.7849 1.43784 0
M  V30 2467 C 232.529 -1.5932 0.334787 0
M  V30 2468 O 233.718 -1.68155 0.598842 0
M  V30 2469 C 230.818 -3.15828 1.22906 0
M  V30 2470 C 229.991 -3.61711 2.45934 0
M  V30 2471 C 229.05 -4.77831 2.20371 0
M  V30 2472 O 228.076 -4.87586 2.93681 0
M  V30 2473 N 229.278 -5.67611 1.21647 0
M  V30 2474 H 232.043 -1.7842 2.40803 0
M  V30 2475 H 229.604 -0.84302 1.3822 0
M  V30 2476 H 231.596 -3.91189 1.03697 0
M  V30 2477 H 230.166 -3.10707 0.343542 0
M  V30 2478 H 229.386 -2.76861 2.80609 0
M  V30 2479 H 230.674 -3.89112 3.27825 0
M  V30 2480 H 230.072 -5.62397 0.610449 0
M  V30 2481 H 228.629 -6.42719 1.08423 0
M  V30 2482 N 232.062 -1.29571 -0.897171 0
M  V30 2483 C 232.992 -1.17473 -2.01798 0
M  V30 2484 C 233.973 -0.068323 -1.69963 0
M  V30 2485 O 235.158 -0.248239 -1.92607 0
M  V30 2486 C 232.288 -0.853099 -3.36659 0
M  V30 2487 C 231.242 -1.9161 -3.82713 0
M  V30 2488 C 230.568 -1.44773 -5.14728 0
M  V30 2489 C 231.868 -3.32535 -4.02763 0
M  V30 2490 H 233.562 -2.11237 -2.12177 0
M  V30 2491 H 231.108 -1.01699 -1.01948 0
M  V30 2492 H 233.061 -0.755165 -4.14578 0
M  V30 2493 H 231.785 0.120236 -3.26379 0
M  V30 2494 H 230.444 -2.00346 -3.07013 0
M  V30 2495 H 230.092 -0.462995 -5.00865 0
M  V30 2496 H 229.792 -2.15865 -5.46513 0
M  V30 2497 H 231.316 -1.36334 -5.95185 0
M  V30 2498 H 232.73 -3.26626 -4.71156 0
M  V30 2499 H 231.127 -4.01607 -4.45905 0
M  V30 2500 H 232.197 -3.75326 -3.07016 0
M  V30 2501 N 233.54 1.10788 -1.12088 0
M  V30 2502 C 234.817 1.79136 -0.785476 0
M  V30 2503 C 235.197 1.98246 0.725377 0
M  V30 2504 O 234.545 1.57258 1.65778 0
M  V30 2505 C 234.755 3.12375 -1.55636 0
M  V30 2506 C 236.103 3.8731 -1.74001 0
M  V30 2507 O 237.127 3.22085 -1.52117 0
M  V30 2508 O 235.986 5.04369 -2.10415 0
M  V30 2509 H 233.08 0.776226 -0.285311 0
M  V30 2510 H 235.626 1.1747 -1.2247 0
M  V30 2511 H 234.398 2.93863 -2.5838 0
M  V30 2512 H 234.021 3.81758 -1.11114 0
M  V30 2513 N 235.018 0.912232 1.28515 0
M  V30 2514 C 235.968 0.370649 2.24967 0
M  V30 2515 C 236.952 -0.516375 1.52389 0
M  V30 2516 O 238.144 -0.356345 1.73376 0
M  V30 2517 C 235.273 -0.389526 3.41083 0
M  V30 2518 C 234.359 0.51313 4.20984 0
M  V30 2519 N 234.75 1.62604 4.78951 0
M  V30 2520 C 233.048 0.313235 4.44899 0
M  V30 2521 C 233.749 2.18619 5.39055 0
M  V30 2522 N 232.725 1.47765 5.23132 0
M  V30 2523 H 236.527 1.22061 2.67354 0
M  V30 2524 H 234.041 0.764712 1.43269 0
M  V30 2525 H 236.038 -0.794353 4.09262 0
M  V30 2526 H 234.698 -1.2366 3.0023 0
M  V30 2527 H 235.709 2.00864 4.77362 0
M  V30 2528 H 232.386 -0.494452 4.14562 0
M  V30 2529 H 233.776 3.12228 5.94948 0
M  V30 2530 N 236.496 -1.42363 0.676048 0
M  V30 2531 C 237.459 -2.29199 0.00766941 0
M  V30 2532 C 238.459 -1.43389 -0.727745 0
M  V30 2533 O 239.649 -1.64764 -0.56556 0
M  V30 2534 C 236.781 -3.2591 -0.999785 0
M  V30 2535 H 237.974 -2.89794 0.771988 0
M  V30 2536 H 235.527 -1.50024 0.438468 0
M  V30 2537 H 236.262 -2.70256 -1.79255 0
M  V30 2538 H 236.047 -3.89202 -0.475829 0
M  V30 2539 H 237.537 -3.91028 -1.46583 0
M  V30 2540 N 237.974 -0.419461 -1.51915 0
M  V30 2541 C 238.922 0.415502 -2.28859 0
M  V30 2542 C 239.916 1.03674 -1.3397 0
M  V30 2543 O 241.122 0.973757 -1.51387 0
M  V30 2544 H 237.497 0.152786 -0.736315 0
M  V30 2545 H 239.468 -0.254531 -2.97312 0
M  V30 2546 C 238.217 1.51425 -3.12995 0
M  V30 2547 H 237.54 1.04556 -3.85886 0
M  V30 2548 H 238.98 2.07208 -3.6992 0
M  V30 2549 C 237.439 2.48745 -2.27217 0
M  V30 2550 O 237.969 3.52871 -1.9195 0
M  V30 2551 N 236.175 2.19202 -1.90785 0
M  V30 2552 H 235.722 1.34556 -2.19664 0
M  V30 2553 H 235.68 2.84561 -1.33687 0
M  V30 2554 N 239.452 1.56882 -0.150215 0
M  V30 2555 C 240.382 2.19935 0.784284 0
M  V30 2556 C 241.363 1.14854 1.25469 0
M  V30 2557 O 242.548 1.43209 1.31168 0
M  V30 2558 C 239.678 2.82349 2.02229 0
M  V30 2559 C 238.632 3.93285 1.68853 0
M  V30 2560 C 237.958 4.42649 2.99944 0
M  V30 2561 C 239.258 5.13904 0.932714 0
M  V30 2562 H 240.952 2.9828 0.258781 0
M  V30 2563 H 238.498 1.43473 0.123029 0
M  V30 2564 H 240.451 3.25126 2.68088 0
M  V30 2565 H 239.175 2.0134 2.57157 0
M  V30 2566 H 237.834 3.5113 1.05371 0
M  V30 2567 H 237.482 3.58458 3.52869 0
M  V30 2568 H 237.182 5.17476 2.78374 0
M  V30 2569 H 238.706 4.88099 3.66868 0
M  V30 2570 H 240.12 5.53506 1.49345 0
M  V30 2571 H 238.517 5.94515 0.81684 0
M  V30 2572 H 239.587 4.84842 -0.0749568 0
M  V30 2573 N 240.93 -0.123565 1.57115 0
M  V30 2574 C 242.179 -0.830704 1.83799 0
M  V30 2575 C 242.492 -1.81259 0.735158 0
M  V30 2576 O 243.698 -2.56558 0.888278 0
M  V30 2577 C 242.154 -1.52802 3.25852 0
M  V30 2578 C 241.762 -0.587356 4.44133 0
M  V30 2579 C 243.506 -2.22056 3.61789 0
M  V30 2580 C 241.413 -1.28764 5.77212 0
M  V30 2581 H 240.343 -0.313967 0.685522 0
M  V30 2582 H 242.994 -0.0834359 1.8331 0
M  V30 2583 H 241.376 -2.32175 3.20797 0
M  V30 2584 H 242.55 0.172829 4.60476 0
M  V30 2585 H 240.865 -0.00201892 4.164 0
M  V30 2586 H 243.462 -2.75131 4.58483 0
M  V30 2587 H 243.805 -2.99644 2.88997 0
M  V30 2588 H 244.338 -1.49576 3.68608 0
M  V30 2589 H 241.077 -0.55314 6.53162 0
M  V30 2590 H 240.597 -2.01995 5.64764 0
M  V30 2591 H 242.276 -1.8221 6.20813 0
M  V30 2592 N 242.408 -1.52605 -0.393616 0
M  V30 2593 C 243.34 -1.73303 -1.49995 0
M  V30 2594 C 244.353 -0.613473 -1.50799 0
M  V30 2595 O 245.542 -0.889049 -1.54784 0
M  V30 2596 C 242.642 -1.77245 -2.88855 0
M  V30 2597 C 241.815 -3.06483 -3.12069 0
M  V30 2598 C 240.874 -3.02033 -4.30886 0
M  V30 2599 O 239.9 -3.75907 -4.27414 0
M  V30 2600 N 241.102 -2.20897 -5.36828 0
M  V30 2601 H 243.867 -2.68756 -1.32629 0
M  V30 2602 H 241.428 -1.51036 -0.583083 0
M  V30 2603 H 243.42 -1.7178 -3.66434 0
M  V30 2604 H 241.99 -0.891993 -2.99603 0
M  V30 2605 H 241.21 -3.25474 -2.22396 0
M  V30 2606 H 242.498 -3.91947 -3.2443 0
M  V30 2607 H 241.896 -1.60336 -5.42502 0
M  V30 2608 H 240.453 -2.21275 -6.13091 0
M  V30 2609 N 243.887 0.651787 -1.4349 0
M  V30 2610 C 244.817 1.77621 -1.51569 0
M  V30 2611 C 245.798 1.66022 -0.370253 0
M  V30 2612 O 246.983 1.85095 -0.587658 0
M  V30 2613 C 244.113 3.16056 -1.43966 0
M  V30 2614 C 243.067 3.4242 -2.56774 0
M  V30 2615 C 242.393 4.8067 -2.34223 0
M  V30 2616 C 243.693 3.37023 -3.99015 0
M  V30 2617 H 245.387 1.71117 -2.45681 0
M  V30 2618 H 242.933 0.821825 -1.18246 0
M  V30 2619 H 244.886 3.94472 -1.48221 0
M  V30 2620 H 243.61 3.23293 -0.463586 0
M  V30 2621 H 242.269 2.66375 -2.51873 0
M  V30 2622 H 241.917 4.84585 -1.34856 0
M  V30 2623 H 241.617 4.9927 -3.09844 0
M  V30 2624 H 243.141 5.61342 -2.40265 0
M  V30 2625 H 244.555 4.05374 -4.05395 0
M  V30 2626 H 242.952 3.67159 -4.74673 0
M  V30 2627 H 244.022 2.3518 -4.2405 0
M  V30 2628 N 245.365 1.30045 0.890287 0
M  V30 2629 C 246.595 1.21296 1.67245 0
M  V30 2630 C 247.003 -0.227471 1.87828 0
M  V30 2631 O 246.346 -1.16296 1.422 0
M  V30 2632 C 246.408 1.86519 3.07329 0
M  V30 2633 C 246.072 3.35837 3.09939 0
M  V30 2634 C 247.069 4.31915 2.89389 0
M  V30 2635 C 244.754 3.77196 3.31706 0
M  V30 2636 C 246.748 5.67325 2.90552 0
M  V30 2637 C 244.435 5.12725 3.32499 0
M  V30 2638 C 245.433 6.076 3.11947 0
M  V30 2639 O 245.121 7.40655 3.12547 0
M  V30 2640 H 244.853 0.4211 0.528821 0
M  V30 2641 H 247.407 1.72111 1.12103 0
M  V30 2642 H 245.637 1.30228 3.64112 0
M  V30 2643 H 247.326 1.71963 3.67673 0
M  V30 2644 H 248.092 4.01294 2.72375 0
M  V30 2645 H 243.971 3.03796 3.4674 0
M  V30 2646 H 247.515 6.41354 2.74429 0
M  V30 2647 H 243.412 5.42988 3.49047 0
M  V30 2648 H 244.18 7.49577 3.28749 0
M  V30 2649 N 246.843 -1.10192 1.12674 0
M  V30 2650 C 248.12 -1.78717 0.794965 0
M  V30 2651 C 248.5 -1.98628 -0.714853 0
M  V30 2652 O 247.848 -1.58135 -1.64941 0
M  V30 2653 C 248.058 -3.11546 1.5729 0
M  V30 2654 C 249.406 -3.86382 1.76052 0
M  V30 2655 O 250.43 -3.21274 1.53823 0
M  V30 2656 O 249.289 -5.03246 2.13087 0
M  V30 2657 H 246.383 -0.774702 0.289423 0
M  V30 2658 H 248.929 -1.16819 1.23091 0
M  V30 2659 H 247.701 -2.92489 2.59935 0
M  V30 2660 H 247.324 -3.81164 1.13137 0
M  V30 2661 N 248.321 -0.919034 -1.28029 0
M  V30 2662 C 249.284 -0.416182 -2.2539 0
M  V30 2663 C 250.284 0.460438 -1.54067 0
M  V30 2664 O 251.474 0.262744 -1.72207 0
M  V30 2665 C 248.606 0.402707 -3.38513 0
M  V30 2666 H 249.799 -1.27629 -2.71387 0
M  V30 2667 H 247.352 -0.698919 -1.39803 0
M  V30 2668 H 248.087 1.282 -2.97885 0
M  V30 2669 H 247.872 -0.225698 -3.9145 0
M  V30 2670 H 249.362 0.745191 -4.10897 0
M  V30 2671 N 249.799 1.42003 -0.683588 0
M  V30 2672 C 251.046 2.01413 -0.209514 0
M  V30 2673 C 251.374 1.54088 1.1869 0
M  V30 2674 O 250.629 0.737591 1.81268 0
M  V30 2675 C 250.928 3.56827 -0.202357 0
M  V30 2676 C 250.594 4.23617 -1.54464 0
M  V30 2677 C 249.256 4.41577 -1.91215 0
M  V30 2678 C 251.608 4.61178 -2.42826 0
M  V30 2679 C 248.936 4.9437 -3.15935 0
M  V30 2680 C 251.288 5.15355 -3.66867 0
M  V30 2681 C 249.952 5.31528 -4.03776 0
M  V30 2682 H 249.222 0.737023 -0.0766668 0
M  V30 2683 H 251.869 1.70067 -0.880312 0
M  V30 2684 H 250.174 3.87892 0.551969 0
M  V30 2685 H 251.871 4.00588 0.181793 0
M  V30 2686 H 248.461 4.10004 -1.24877 0
M  V30 2687 H 252.645 4.46968 -2.15717 0
M  V30 2688 H 247.901 5.05076 -3.44541 0
M  V30 2689 H 252.075 5.43402 -4.35531 0
M  V30 2690 H 249.702 5.72199 -5.00492 0
M  V30 2691 N 251.277 0.427512 1.51691 0
M  V30 2692 C 252.187 -0.39527 2.31246 0
M  V30 2693 C 253.203 -1.03674 1.39742 0
M  V30 2694 O 254.379 -1.03425 1.72816 0
M  V30 2695 C 251.444 -1.48706 3.13189 0
M  V30 2696 C 250.505 -0.866743 4.20459 0
M  V30 2697 C 249.738 -1.90651 4.98486 0
M  V30 2698 O 249.961 -3.12733 4.77026 0
M  V30 2699 O 248.895 -1.5025 5.82845 0
M  V30 2700 H 252.721 0.253918 3.02637 0
M  V30 2701 H 250.306 0.190274 1.48183 0
M  V30 2702 H 252.188 -2.12047 3.64162 0
M  V30 2703 H 250.863 -2.12051 2.44573 0
M  V30 2704 H 249.77 -0.195544 3.73589 0
M  V30 2705 H 251.103 -0.276934 4.9142 0
M  V30 2706 N 252.755 -1.56801 0.158532 0
M  V30 2707 C 253.98 -2.01295 -0.499516 0
M  V30 2708 C 254.405 -1.03799 -1.56867 0
M  V30 2709 O 253.763 -0.0155162 -1.81293 0
M  V30 2710 C 253.811 -3.44469 -1.06647 0
M  V30 2711 O 252.915 -3.50012 -2.18095 0
M  V30 2712 H 252.256 -0.652884 -0.12099 0
M  V30 2713 H 254.786 -2.02958 0.258661 0
M  V30 2714 H 254.796 -3.8351 -1.39227 0
M  V30 2715 H 253.471 -4.14932 -0.283581 0
M  V30 2716 H 252.048 -3.22822 -1.86656 0
M  V30 2717 N 254.233 0.115231 -1.57178 0
M  V30 2718 C 255.18 1.14115 -2.00615 0
M  V30 2719 C 256.15 1.40939 -0.878941 0
M  V30 2720 O 257.335 1.52741 -1.14345 0
M  V30 2721 C 254.475 2.46156 -2.4187 0
M  V30 2722 C 253.588 2.26236 -3.68024 0
M  V30 2723 C 252.723 3.51534 -3.98243 0
M  V30 2724 C 251.762 3.26787 -5.17568 0
M  V30 2725 N 250.899 4.44298 -5.43639 0
M  V30 2726 H 255.739 0.763743 -2.88047 0
M  V30 2727 H 253.276 0.365615 -1.42484 0
M  V30 2728 H 255.234 3.23189 -2.63827 0
M  V30 2729 H 253.864 2.81783 -1.57475 0
M  V30 2730 H 252.916 1.40102 -3.5366 0
M  V30 2731 H 254.228 2.03929 -4.55208 0
M  V30 2732 H 253.382 4.36984 -4.20868 0
M  V30 2733 H 252.121 3.76876 -3.09541 0
M  V30 2734 H 251.126 2.39729 -4.94783 0
M  V30 2735 H 252.351 3.02812 -6.0785 0
M  V30 2736 H 250.297 4.69754 -4.57895 0
M  V30 2737 H 250.214 4.25109 -6.25154 0
M  V30 2738 H 251.482 5.3087 -5.70786 0
M  V30 2739 N 255.711 1.52812 0.385517 0
M  V30 2740 C 256.659 1.78482 1.49155 0
M  V30 2741 C 257.653 0.652914 1.56312 0
M  V30 2742 O 258.859 0.835464 1.59436 0
M  V30 2743 H 255.234 0.5648 0.496493 0
M  V30 2744 H 257.205 2.71095 1.24699 0
M  V30 2745 C 255.954 1.97378 2.86247 0
M  V30 2746 H 255.277 2.83907 2.81491 0
M  V30 2747 H 256.717 2.19327 3.62866 0
M  V30 2748 C 255.176 0.74728 3.28508 0
M  V30 2749 O 255.706 -0.0736232 4.01633 0
M  V30 2750 N 253.912 0.576396 2.84826 0
M  V30 2751 H 253.459 1.24555 2.25486 0
M  V30 2752 H 253.417 -0.24288 3.1346 0
M  V30 2753 N 257.189 -0.644168 1.43834 0
M  V30 2754 C 258.466 -1.40188 1.36406 0
M  V30 2755 C 258.846 -2.11094 0.0163124 0
M  V30 2756 O 258.194 -2.05426 -1.00062 0
M  V30 2757 C 258.404 -2.3791 2.55343 0
M  V30 2758 C 259.752 -3.01637 2.98832 0
M  V30 2759 O 260.776 -2.48237 2.55455 0
M  V30 2760 O 259.635 -3.98477 3.74003 0
M  V30 2761 H 256.729 -0.626773 0.539523 0
M  V30 2762 H 259.275 -0.670317 1.559 0
M  V30 2763 H 258.047 -1.84525 3.4506 0
M  V30 2764 H 257.67 -3.18503 2.37995 0
M  V30 2765 N 258.668 -1.30515 -0.883378 0
M  V30 2766 C 259.917 -1.18795 -1.63005 0
M  V30 2767 C 260.23 0.255923 -1.93919 0
M  V30 2768 O 261.436 0.494654 -2.66956 0
M  V30 2769 C 259.892 -2.07878 -2.93794 0
M  V30 2770 C 259.5 -3.57184 -2.70414 0
M  V30 2771 C 261.244 -2.04924 -3.71761 0
M  V30 2772 C 259.151 -4.38317 -3.97029 0
M  V30 2773 H 258.081 -0.441031 -0.611562 0
M  V30 2774 H 260.732 -1.55275 -0.977854 0
M  V30 2775 H 259.114 -1.64283 -3.60315 0
M  V30 2776 H 260.288 -4.08937 -2.12384 0
M  V30 2777 H 258.603 -3.61976 -2.0582 0
M  V30 2778 H 261.2 -2.62792 -4.65665 0
M  V30 2779 H 261.543 -1.0331 -4.03277 0
M  V30 2780 H 262.076 -2.46649 -3.12104 0
M  V30 2781 H 258.815 -5.40632 -3.70671 0
M  V30 2782 H 258.335 -3.91326 -4.54559 0
M  V30 2783 H 260.014 -4.49834 -4.65036 0
M  V30 2784 N 260.146 1.09593 -1.13257 0
M  V30 2785 C 261.392 1.82003 -0.89458 0
M  V30 2786 C 261.725 1.85402 0.577906 0
M  V30 2787 O 261 1.32099 1.42759 0
M  V30 2788 C 261.283 3.28237 -1.48096 0
M  V30 2789 C 261.136 3.3312 -3.02244 0
M  V30 2790 C 262.455 4.24871 -1.14774 0
M  V30 2791 H 259.574 0.66077 -0.326424 0
M  V30 2792 H 262.216 1.28389 -1.40058 0
M  V30 2793 H 260.366 3.74024 -1.05062 0
M  V30 2794 H 262.038 2.95748 -3.54021 0
M  V30 2795 H 260.281 2.72756 -3.37323 0
M  V30 2796 H 260.952 4.3613 -3.38371 0
M  V30 2797 H 263.428 3.87361 -1.51957 0
M  V30 2798 H 262.304 5.25532 -1.58452 0
M  V30 2799 H 262.565 4.42058 -0.0611849 0
M  V30 2800 N 261.624 0.925811 1.2754 0
M  V30 2801 C 262.554 0.440748 2.29303 0
M  V30 2802 C 263.535 -0.497971 1.62648 0
M  V30 2803 O 264.72 -0.403126 1.8997 0
M  V30 2804 C 261.85 -0.309048 3.45922 0
M  V30 2805 C 260.804 0.54166 4.24559 0
M  V30 2806 C 260.13 -0.337191 5.33636 0
M  V30 2807 C 261.43 1.80516 4.90114 0
M  V30 2808 H 263.124 1.29121 2.70126 0
M  V30 2809 H 260.67 0.622323 1.29858 0
M  V30 2810 H 262.623 -0.659315 4.1621 0
M  V30 2811 H 261.347 -1.19352 3.04011 0
M  V30 2812 H 260.006 0.874609 3.56014 0
M  V30 2813 H 259.654 -1.22056 4.87966 0
M  V30 2814 H 259.354 0.228497 5.87156 0
M  V30 2815 H 260.878 -0.683072 6.06767 0
M  V30 2816 H 262.292 1.52307 5.52698 0
M  V30 2817 H 260.689 2.3142 5.53683 0
M  V30 2818 H 261.759 2.52581 4.13921 0
M  V30 2819 N 263.102 -1.41638 0.69111 0
M  V30 2820 C 264.348 -2.01598 0.220519 0
M  V30 2821 C 264.681 -1.54594 -1.17535 0
M  V30 2822 O 263.956 -0.755177 -1.79241 0
M  V30 2823 C 264.239 -3.59062 0.273243 0
M  V30 2824 C 264.092 -4.16203 1.70573 0
M  V30 2825 C 265.411 -4.38546 -0.369457 0
M  V30 2826 H 262.53 -0.732468 0.0816045 0
M  V30 2827 H 265.172 -1.68445 0.878986 0
M  V30 2828 H 263.322 -3.87435 -0.287411 0
M  V30 2829 H 264.994 -3.98722 2.31989 0
M  V30 2830 H 263.237 -3.71414 2.2413 0
M  V30 2831 H 263.908 -5.25358 1.69419 0
M  V30 2832 H 266.384 -4.1596 0.107977 0
M  V30 2833 H 265.26 -5.48069 -0.302002 0
M  V30 2834 H 265.521 -4.17662 -1.44951 0
M  V30 2835 N 264.58 -0.43555 -1.51462 0
M  V30 2836 C 265.513 0.421989 -2.24264 0
M  V30 2837 C 266.491 1.02619 -1.26127 0
M  V30 2838 O 267.675 1.069 -1.55257 0
M  V30 2839 C 264.802 1.588 -2.99166 0
M  V30 2840 C 263.848 1.10465 -4.11946 0
M  V30 2841 S 264.681 0.048146 -5.35478 0
M  V30 2842 C 265.837 1.21887 -6.13917 0
M  V30 2843 H 266.07 -0.196102 -2.96653 0
M  V30 2844 H 263.603 -0.220054 -1.52824 0
M  V30 2845 H 265.561 2.25647 -3.42919 0
M  V30 2846 H 264.222 2.1775 -2.26371 0
M  V30 2847 H 263.415 1.97654 -4.63626 0
M  V30 2848 H 263.017 0.51445 -3.70445 0
M  V30 2849 H 265.309 2.13756 -6.42895 0
M  V30 2850 H 266.252 0.742076 -7.04201 0
M  V30 2851 H 266.66 1.45663 -5.45383 0
M  V30 2852 N 266.058 1.56714 -0.166846 0
M  V30 2853 C 266.968 2.21331 0.777791 0
M  V30 2854 C 267.984 1.20358 1.25658 0
M  V30 2855 O 269.16 1.53005 1.30964 0
M  V30 2856 C 266.225 2.83787 1.99163 0
M  V30 2857 C 265.286 3.99947 1.56016 0
M  V30 2858 C 264.519 4.59415 2.71613 0
M  V30 2859 O 264.742 4.17769 3.88362 0
M  V30 2860 O 263.676 5.49359 2.45945 0
M  V30 2861 H 267.502 3.02605 0.257636 0
M  V30 2862 H 265.087 1.49275 0.0611393 0
M  V30 2863 H 266.969 3.23405 2.70161 0
M  V30 2864 H 265.644 2.05513 2.50092 0
M  V30 2865 H 264.551 3.65007 0.819809 0
M  V30 2866 H 265.884 4.79801 1.09782 0
M  V30 2867 N 267.536 -0.106894 1.57237 0
M  V30 2868 C 268.766 -0.825191 1.89405 0
M  V30 2869 C 269.174 -1.73374 0.757496 0
M  V30 2870 O 268.517 -1.81552 -0.280115 0
M  V30 2871 C 268.579 -1.70102 3.1671 0
M  V30 2872 C 268.243 -0.965523 4.46684 0
M  V30 2873 C 269.24 -0.300741 5.19029 0
M  V30 2874 C 266.925 -0.943105 4.93367 0
M  V30 2875 C 268.919 0.376622 6.36286 0
M  V30 2876 C 266.606 -0.261949 6.10538 0
M  V30 2877 C 267.604 0.396748 6.81847 0
M  V30 2878 O 267.292 1.06701 7.96787 0
M  V30 2879 H 267.024 -0.241852 0.631255 0
M  V30 2880 H 269.578 -0.0921491 2.05193 0
M  V30 2881 H 267.808 -2.47601 2.97036 0
M  V30 2882 H 269.497 -2.29483 3.34802 0
M  V30 2883 H 270.263 -0.309599 4.84011 0
M  V30 2884 H 266.142 -1.44524 4.3776 0
M  V30 2885 H 269.686 0.891334 6.91882 0
M  V30 2886 H 265.583 -0.250896 6.45012 0
M  V30 2887 H 266.351 0.972707 8.127 0
M  V30 2888 N 269.014 -1.53014 -0.377408 0
M  V30 2889 C 270.26 -1.68872 -1.12294 0
M  V30 2890 C 270.593 -0.433224 -1.89306 0
M  V30 2891 O 269.868 0.569258 -1.85983 0
M  V30 2892 C 270.151 -2.93115 -2.09179 0
M  V30 2893 C 270.004 -4.28794 -1.35853 0
M  V30 2894 C 271.323 -3.12928 -3.09458 0
M  V30 2895 H 268.442 -0.614518 -0.406862 0
M  V30 2896 H 271.084 -1.85633 -0.40503 0
M  V30 2897 H 269.234 -2.78956 -2.70399 0
M  V30 2898 H 270.906 -4.54742 -0.775082 0
M  V30 2899 H 269.149 -4.28744 -0.660364 0
M  V30 2900 H 269.82 -5.11837 -2.06706 0
M  V30 2901 H 272.296 -3.26194 -2.58334 0
M  V30 2902 H 271.172 -4.01316 -3.74482 0
M  V30 2903 H 271.433 -2.27669 -3.78971 0
M  V30 2904 N 270.492 0.636531 -1.44174 0
M  V30 2905 C 271.769 1.39463 -1.37148 0
M  V30 2906 C 272.149 2.11082 -0.027507 0
M  V30 2907 O 271.497 2.05954 0.989716 0
M  V30 2908 C 271.707 2.36552 -2.56601 0
M  V30 2909 C 273.055 3.00048 -3.00427 0
M  V30 2910 O 274.079 2.46878 -2.56767 0
M  V30 2911 O 272.938 3.96488 -3.76111 0
M  V30 2912 H 270.032 0.623903 -0.542839 0
M  V30 2913 H 272.578 0.662039 -1.56253 0
M  V30 2914 H 271.35 1.82692 -3.46034 0
M  V30 2915 H 270.973 3.17236 -2.39681 0
M  V30 2916 N 271.97 1.30982 0.876444 0
M  V30 2917 C 273.218 1.20058 1.62575 0
M  V30 2918 C 273.539 -0.242947 1.93481 0
M  V30 2919 O 272.809 -1.1619 1.57724 0
M  V30 2920 H 271.389 0.44135 0.602677 0
M  V30 2921 H 274.051 1.64222 1.04962 0
M  V30 2922 H 273.147 1.76762 2.57219 0
M  V30 2923 N 273.449 -1.08991 1.13837 0
M  V30 2924 C 274.697 -1.80899 0.901098 0
M  V30 2925 C 275.018 -1.86356 -0.574134 0
M  V30 2926 O 274.288 -1.35235 -1.41733 0
M  V30 2927 H 272.868 -0.669966 0.330386 0
M  V30 2928 H 275.53 -1.318 1.43578 0
M  V30 2929 H 274.626 -2.83929 1.29578 0
M  V30 2930 N 274.927 -0.932562 -1.27047 0
M  V30 2931 C 275.837 -0.441219 -2.30414 0
M  V30 2932 C 276.853 0.480525 -1.67233 0
M  V30 2933 O 278.029 0.362151 -1.98117 0
M  V30 2934 C 275.094 0.293651 -3.45454 0
M  V30 2935 C 274.155 -0.663601 -4.2414 0
M  V30 2936 C 273.388 0.0362932 -5.33688 0
M  V30 2937 O 273.611 1.2548 -5.56427 0
M  V30 2938 O 272.545 -0.638015 -5.98509 0
M  V30 2939 H 276.371 -1.29962 -2.74488 0
M  V30 2940 H 273.956 -0.6981 -1.32087 0
M  V30 2941 H 275.838 0.707951 -4.15411 0
M  V30 2942 H 274.513 1.12758 -3.03426 0
M  V30 2943 H 273.42 -1.12768 -3.56699 0
M  V30 2944 H 274.753 -1.46489 -4.69896 0
M  V30 2945 N 276.405 1.4127 -0.698611 0
M  V30 2946 C 277.335 2.33447 -0.049629 0
M  V30 2947 C 278.316 1.51982 0.763898 0
M  V30 2948 O 279.501 1.80509 0.716257 0
M  V30 2949 C 276.631 3.35828 0.885267 0
M  V30 2950 C 275.585 4.27627 0.178613 0
M  V30 2951 C 274.911 5.20406 1.22807 0
M  V30 2952 C 276.211 5.13459 -0.956933 0
M  V30 2953 H 277.905 2.87966 -0.81951 0
M  V30 2954 H 275.451 1.38461 -0.395538 0
M  V30 2955 H 277.404 3.9924 1.34854 0
M  V30 2956 H 276.128 2.79666 1.68685 0
M  V30 2957 H 274.787 3.65643 -0.26466 0
M  V30 2958 H 274.435 4.60558 2.02226 0
M  V30 2959 H 274.135 5.82661 0.760239 0
M  V30 2960 H 275.659 5.86695 1.69179 0
M  V30 2961 H 277.073 5.70421 -0.573805 0
M  V30 2962 H 275.47 5.8467 -1.35205 0
M  V30 2963 H 276.54 4.50443 -1.79524 0
M  V30 2964 N 277.883 0.443576 1.51229 0
M  V30 2965 C 279.13 -0.120796 2.02139 0
M  V30 2966 C 279.458 -1.42166 1.32736 0
M  V30 2967 O 278.713 -1.90849 0.43301 0
M  V30 2968 C 279.012 -0.380579 3.55368 0
M  V30 2969 C 278.678 0.83523 4.43097 0
M  V30 2970 C 277.34 1.16864 4.66794 0
M  V30 2971 C 279.692 1.64601 4.94526 0
M  V30 2972 C 277.02 2.31339 5.39165 0
M  V30 2973 C 279.372 2.78181 5.68153 0
M  V30 2974 C 278.036 3.11969 5.90112 0
M  V30 2975 H 277.306 -0.0442023 0.73968 0
M  V30 2976 H 279.953 0.592046 1.82118 0
M  V30 2977 H 278.258 -1.17538 3.73754 0
M  V30 2978 H 279.955 -0.830777 3.923 0
M  V30 2979 H 276.545 0.565437 4.24854 0
M  V30 2980 H 280.729 1.40163 4.76097 0
M  V30 2981 H 275.985 2.57823 5.5438 0
M  V30 2982 H 280.159 3.41371 6.06992 0
M  V30 2983 H 277.786 4.00784 6.45969 0
M  V30 2984 N 279.361 -1.56624 0.175154 0
M  V30 2985 C 280.638 -1.88688 -0.515373 0
M  V30 2986 C 281.018 -1.08564 -1.81044 0
M  V30 2987 O 280.366 -0.180703 -2.27784 0
M  V30 2988 C 280.576 -3.40768 -0.753552 0
M  V30 2989 C 281.924 -4.10587 -1.08184 0
M  V30 2990 O 282.948 -3.46106 -0.841961 0
M  V30 2991 O 281.807 -5.24512 -1.53459 0
M  V30 2992 H 278.901 -0.78301 -0.26613 0
M  V30 2993 H 281.447 -1.68347 0.213877 0
M  V30 2994 H 280.219 -3.90965 0.161829 0
M  V30 2995 H 279.842 -3.66733 -1.53598 0
M  V30 2996 N 280.839 0.0985539 -1.57292 0
M  V30 2997 C 282.255 0.45267 -1.53046 0
M  V30 2998 C 282.455 1.80713 -0.891342 0
M  V30 2999 O 281.511 2.4785 -0.482375 0
M  V30 3000 C 282.824 0.418341 -2.97776 0
M  V30 3001 C 284.372 0.500443 -3.08973 0
M  V30 3002 C 284.847 0.496297 -4.55303 0
M  V30 3003 N 286.338 0.557151 -4.59837 0
M  V30 3004 C 287.073 0.575726 -5.70502 0
M  V30 3005 N 286.569 0.550714 -6.90608 0
M  V30 3006 N 288.362 0.620277 -5.58667 0
M  V30 3007 H 280.513 -0.788673 -1.97215 0
M  V30 3008 H 282.776 -0.293188 -0.901524 0
M  V30 3009 H 282.482 -0.509659 -3.47988 0
M  V30 3010 H 282.356 1.2386 -3.56284 0
M  V30 3011 H 284.743 1.41886 -2.58751 0
M  V30 3012 H 284.824 -0.347894 -2.53423 0
M  V30 3013 H 284.468 -0.418162 -5.06176 0
M  V30 3014 H 284.398 1.3618 -5.08687 0
M  V30 3015 H 286.889 0.581816 -3.73394 0
M  V30 3016 H 287.202 0.568075 -7.70709 0
M  V30 3017 H 285.547 0.517816 -6.93068 0
M  V30 3018 H 288.738 0.637322 -4.63741 0
M  V30 3019 H 288.911 0.631283 -6.44918 0
M  V30 3020 N 282.317 1.53212 0.369288 0
M  V30 3021 C 283.566 1.68436 1.10961 0
M  V30 3022 C 283.879 0.440738 1.9057 0
M  V30 3023 O 285.085 0.473446 2.6734 0
M  V30 3024 C 283.541 2.97744 2.0218 0
M  V30 3025 C 283.149 4.29355 1.279 0
M  V30 3026 C 284.893 3.22334 2.76226 0
M  V30 3027 C 282.8 5.49755 2.17999 0
M  V30 3028 H 281.73 0.627568 0.41794 0
M  V30 3029 H 284.381 1.79713 0.370884 0
M  V30 3030 H 282.763 2.8026 2.79768 0
M  V30 3031 H 283.937 4.57458 0.554007 0
M  V30 3032 H 282.252 4.11179 0.657311 0
M  V30 3033 H 284.849 4.09471 3.43857 0
M  V30 3034 H 285.192 2.38238 3.41392 0
M  V30 3035 H 285.725 3.40475 2.05723 0
M  V30 3036 H 282.464 6.36318 1.57417 0
M  V30 3037 H 281.984 5.25937 2.88359 0
M  V30 3038 H 283.663 5.84401 2.77641 0
M  V30 3039 N 283.795 -0.628877 1.44509 0
M  V30 3040 C 285.044 -1.38437 1.4669 0
M  V30 3041 C 285.357 -1.95322 0.104272 0
M  V30 3042 O 286.563 -2.715 0.00362163 0
M  V30 3043 C 285.019 -2.50659 2.5826 0
M  V30 3044 C 284.627 -2.00277 4.0074 0
M  V30 3045 C 286.371 -3.27844 2.69664 0
M  V30 3046 C 284.278 -3.09854 5.0373 0
M  V30 3047 H 283.208 -0.520245 0.545766 0
M  V30 3048 H 285.859 -0.676313 1.70582 0
M  V30 3049 H 284.241 -3.2405 2.27612 0
M  V30 3050 H 285.415 -1.33736 4.40966 0
M  V30 3051 H 283.73 -1.35901 3.93599 0
M  V30 3052 H 286.327 -4.09534 3.43781 0
M  V30 3053 H 286.67 -3.77471 1.75559 0
M  V30 3054 H 287.203 -2.61543 2.99733 0
M  V30 3055 H 283.942 -2.65168 5.99472 0
M  V30 3056 H 283.462 -3.7503 4.68095 0
M  V30 3057 H 285.141 -3.74592 5.27532 0
M  V30 3058 N 285.273 -1.31445 -0.869486 0
M  V30 3059 C 286.55 -1.11795 -1.60503 0
M  V30 3060 C 286.93 0.327168 -2.08549 0
M  V30 3061 O 286.278 1.32135 -1.8642 0
M  V30 3062 C 286.488 -2.13258 -2.76265 0
M  V30 3063 C 287.836 -2.45805 -3.46215 0
M  V30 3064 O 288.86 -2.11688 -2.86473 0
M  V30 3065 O 287.719 -3.04228 -4.5399 0
M  V30 3066 H 284.813 -0.430421 -0.706163 0
M  V30 3067 H 287.359 -1.42925 -0.914907 0
M  V30 3068 H 286.131 -3.10461 -2.3818 0
M  V30 3069 H 285.754 -1.83035 -3.52964 0
M  V30 3070 N 286.751 1.08385 -1.14413 0
M  V30 3071 C 287.661 2.18856 -0.844951 0
M  V30 3072 C 288.677 1.73121 0.174668 0
M  V30 3073 O 289.853 2.014 0.00312857 0
M  V30 3074 C 286.918 3.45155 -0.32696 0
M  V30 3075 C 285.979 4.05513 -1.40916 0
M  V30 3076 C 285.212 5.25784 -0.915793 0
M  V30 3077 O 285.435 5.69884 0.242651 0
M  V30 3078 O 284.369 5.77545 -1.69487 0
M  V30 3079 H 288.195 2.46919 -1.76818 0
M  V30 3080 H 285.78 1.17524 -0.922411 0
M  V30 3081 H 287.662 4.21377 -0.0440211 0
M  V30 3082 H 286.337 3.18668 0.568539 0
M  V30 3083 H 285.244 3.30879 -1.74556 0
M  V30 3084 H 286.577 4.3625 -2.27919 0
M  V30 3085 N 288.23 0.939286 1.26551 0
M  V30 3086 C 289.455 0.602008 1.98471 0
M  V30 3087 C 289.88 -0.815624 1.69497 0
M  V30 3088 O 289.238 -1.54912 0.941905 0
M  V30 3089 C 289.286 0.848407 3.50477 0
M  V30 3090 O 288.39 -0.0804009 4.12322 0
M  V30 3091 H 287.731 0.23049 0.622712 0
M  V30 3092 H 290.261 1.2617 1.61066 0
M  V30 3093 H 290.271 0.768553 4.00696 0
M  V30 3094 H 288.946 1.88171 3.70897 0
M  V30 3095 H 287.523 0.0503508 3.72866 0
M  V30 3096 N 289.708 -1.40897 0.706093 0
M  V30 3097 C 290.938 -2.05075 0.250523 0
M  V30 3098 C 291.346 -1.53275 -1.10921 0
M  V30 3099 O 290.689 -0.680281 -1.7064 0
M  V30 3100 C 290.751 -3.59219 0.142178 0
M  V30 3101 C 290.415 -4.33864 1.43566 0
M  V30 3102 C 291.412 -4.62448 2.37566 0
M  V30 3103 C 289.097 -4.72946 1.69195 0
M  V30 3104 C 291.091 -5.29088 3.5545 0
M  V30 3105 C 288.778 -5.3932 2.87362 0
M  V30 3106 C 289.776 -5.6732 3.80312 0
M  V30 3107 O 289.464 -6.32325 4.96408 0
M  V30 3108 H 289.196 -0.666645 0.112074 0
M  V30 3109 H 291.75 -1.81467 0.962239 0
M  V30 3110 H 289.98 -3.81609 -0.6254 0
M  V30 3111 H 291.669 -4.0495 -0.277584 0
M  V30 3112 H 292.435 -4.32727 2.19027 0
M  V30 3113 H 288.314 -4.50527 0.977042 0
M  V30 3114 H 291.858 -5.50859 4.28018 0
M  V30 3115 H 287.755 -5.68461 3.05814 0
M  V30 3116 H 288.523 -6.50821 4.9636 0
M  V30 3117 N 291.186 -0.45159 -1.50991 0
M  V30 3118 C 292.134 0.366864 -2.29689 0
M  V30 3119 C 293.128 1.00809 -1.36139 0
M  V30 3120 O 294.334 0.941427 -1.53418 0
M  V30 3121 H 290.709 0.137133 -0.739391 0
M  V30 3122 H 292.68 -0.317538 -2.96706 0
M  V30 3123 C 291.429 1.44751 -3.16137 0
M  V30 3124 H 290.752 0.963473 -3.88017 0
M  V30 3125 H 292.192 1.99315 -3.74232 0
M  V30 3126 C 290.651 2.43869 -2.32442 0
M  V30 3127 O 291.181 3.4872 -1.99392 0
M  V30 3128 N 289.387 2.15105 -1.95392 0
M  V30 3129 H 288.934 1.29866 -2.22469 0
M  V30 3130 H 288.892 2.81661 -1.39693 0
M  V30 3131 N 292.664 1.56529 -0.183458 0
M  V30 3132 C 293.594 2.21549 0.737456 0
M  V30 3133 C 294.575 1.17489 1.23005 0
M  V30 3134 O 295.76 1.45959 1.281 0
M  V30 3135 C 292.89 2.86575 1.96194 0
M  V30 3136 C 291.844 3.96778 1.60473 0
M  V30 3137 C 291.17 4.48911 2.90487 0
M  V30 3138 C 292.47 5.15767 0.823497 0
M  V30 3139 H 294.164 2.98761 0.195453 0
M  V30 3140 H 291.71 1.43702 0.0925686 0
M  V30 3141 H 293.663 3.30739 2.61131 0
M  V30 3142 H 292.387 2.06749 2.52828 0
M  V30 3143 H 291.046 3.53286 0.978997 0
M  V30 3144 H 290.694 3.65862 3.45186 0
M  V30 3145 H 290.394 5.23265 2.67335 0
M  V30 3146 H 291.918 4.95771 3.56432 0
M  V30 3147 H 293.332 5.56549 1.37571 0
M  V30 3148 H 291.729 5.96114 0.690551 0
M  V30 3149 H 292.799 4.84574 -0.177782 0
M  V30 3150 N 294.142 -0.090211 1.57342 0
M  V30 3151 C 295.37 -0.806224 1.90546 0
M  V30 3152 C 295.785 -1.72041 0.777644 0
M  V30 3153 O 295.142 -1.80778 -0.250103 0
M  V30 3154 C 295.193 -1.61546 3.23396 0
M  V30 3155 O 294.914 -0.738043 4.31839 0
M  V30 3156 C 296.415 -2.4341 3.70495 0
M  V30 3157 H 293.635 -0.230256 0.630257 0
M  V30 3158 H 296.179 -0.0659843 2.04394 0
M  V30 3159 H 294.334 -2.30816 3.11131 0
M  V30 3160 H 294.748 -1.29901 5.08159 0
M  V30 3161 H 296.222 -2.95676 4.66133 0
M  V30 3162 H 296.699 -3.22098 2.98579 0
M  V30 3163 H 297.305 -1.79331 3.85643 0
M  V30 3164 N 295.62 -1.53406 -0.361157 0
M  V30 3165 C 296.53 -1.83122 -1.4664 0
M  V30 3166 C 297.546 -0.719943 -1.58407 0
M  V30 3167 O 298.722 -1.01046 -1.74218 0
M  V30 3168 C 295.787 -2.01891 -2.81853 0
M  V30 3169 C 294.848 -3.25784 -2.79577 0
M  V30 3170 C 294.081 -3.43648 -4.0834 0
M  V30 3171 O 294.304 -2.65714 -5.0473 0
M  V30 3172 O 293.238 -4.37018 -4.13883 0
M  V30 3173 H 297.064 -2.7703 -1.24451 0
M  V30 3174 H 294.649 -1.38841 -0.551678 0
M  V30 3175 H 296.531 -2.15782 -3.61962 0
M  V30 3176 H 295.206 -1.11173 -3.0401 0
M  V30 3177 H 294.113 -3.17312 -1.98151 0
M  V30 3178 H 295.446 -4.16439 -2.62373 0
M  V30 3179 N 297.098 0.621204 -1.44841 0
M  V30 3180 C 298.028 1.74366 -1.55303 0
M  V30 3181 C 299.009 1.65199 -0.405385 0
M  V30 3182 O 300.194 1.83807 -0.626787 0
M  V30 3183 C 297.324 3.12931 -1.50637 0
M  V30 3184 C 296.278 3.36896 -2.63979 0
M  V30 3185 C 295.604 4.75594 -2.44366 0
M  V30 3186 C 296.904 3.28483 -4.06074 0
M  V30 3187 H 298.598 1.65867 -2.49256 0
M  V30 3188 H 296.144 0.796558 -1.19962 0
M  V30 3189 H 298.097 3.9124 -1.56555 0
M  V30 3190 H 296.821 3.22237 -0.532057 0
M  V30 3191 H 295.48 2.60972 -2.57467 0
M  V30 3192 H 295.128 4.81616 -1.45105 0
M  V30 3193 H 294.828 4.92586 -3.20364 0
M  V30 3194 H 296.352 5.5612 -2.52117 0
M  V30 3195 H 297.766 3.96684 -4.13902 0
M  V30 3196 H 296.163 3.57008 -4.82354 0
M  V30 3197 H 297.233 2.26133 -4.28943 0
M  V30 3198 N 298.576 1.31904 0.862503 0
M  V30 3199 C 299.853 1.12644 1.59908 0
M  V30 3200 C 300.233 -0.316104 2.0872 0
M  V30 3201 O 299.581 -1.31145 1.87118 0
M  V30 3202 C 299.791 2.1472 2.7513 0
M  V30 3203 C 301.139 2.47637 3.44907 0
M  V30 3204 O 302.163 2.13205 2.85346 0
M  V30 3205 O 301.022 3.06632 4.52371 0
M  V30 3206 H 298.116 0.43416 0.703871 0
M  V30 3207 H 300.662 1.43408 0.907314 0
M  V30 3208 H 299.434 3.1172 2.3653 0
M  V30 3209 H 299.057 1.84905 3.51989 0
M  V30 3210 N 300.054 -1.07777 1.14986 0
M  V30 3211 C 301.282 -1.84018 0.945773 0
M  V30 3212 C 301.697 -1.81897 -0.505863 0
M  V30 3213 O 301.054 -1.22726 -1.35072 0
M  V30 3214 C 301.105 -3.31287 1.44677 0
M  V30 3215 O 300.826 -3.33449 2.84154 0
M  V30 3216 C 302.327 -4.24311 1.28355 0
M  V30 3217 H 299.547 -0.580716 0.336169 0
M  V30 3218 H 302.091 -1.36077 1.52654 0
M  V30 3219 H 300.246 -3.76594 0.908625 0
M  V30 3220 H 300.66 -4.25427 3.06777 0
M  V30 3221 H 302.134 -5.2573 1.68261 0
M  V30 3222 H 302.611 -4.38612 0.227184 0
M  V30 3223 H 303.217 -3.84836 1.81056 0
M  V30 3224 N 301.532 -0.945985 -1.26051 0
M  V30 3225 C 302.781 -0.591836 -1.92822 0
M  V30 3226 C 303.094 0.873956 -1.7499 0
M  V30 3227 O 304.3 1.33769 -2.36259 0
M  V30 3228 C 302.756 -1.00776 -3.45503 0
M  V30 3229 C 302.364 -2.4955 -3.7206 0
M  V30 3230 C 304.108 -0.725735 -4.1825 0
M  V30 3231 C 302.015 -2.84988 -5.18205 0
M  V30 3232 H 300.945 -0.217635 -0.721908 0
M  V30 3233 H 303.596 -1.14927 -1.43052 0
M  V30 3234 H 301.978 -0.378812 -3.94184 0
M  V30 3235 H 303.152 -3.1739 -3.34066 0
M  V30 3236 H 301.467 -2.75133 -3.12555 0
M  V30 3237 H 304.064 -0.966771 -5.25887 0
M  V30 3238 H 304.407 0.337639 -4.14929 0
M  V30 3239 H 304.94 -1.31463 -3.7545 0
M  V30 3240 H 301.679 -3.90307 -5.26631 0
M  V30 3241 H 301.199 -2.21813 -5.57278 0
M  V30 3242 H 302.878 -2.73712 -5.86252 0
M  V30 3243 N 303.011 1.40521 -0.713556 0
M  V30 3244 C 303.941 2.33381 -0.0743864 0
M  V30 3245 C 304.922 1.52784 0.747735 0
M  V30 3246 O 306.107 1.81258 0.697071 0
M  V30 3247 C 303.237 3.36748 0.849598 0
M  V30 3248 C 302.191 4.27793 0.133247 0
M  V30 3249 C 301.517 5.21679 1.17281 0
M  V30 3250 C 302.817 5.12415 -1.01134 0
M  V30 3251 H 304.511 2.87081 -0.850007 0
M  V30 3252 H 302.057 1.38034 -0.410201 0
M  V30 3253 H 304.01 4.00648 1.30612 0
M  V30 3254 H 302.734 2.81439 1.65709 0
M  V30 3255 H 301.393 3.65342 -0.303426 0
M  V30 3256 H 301.041 4.62677 1.9733 0
M  V30 3257 H 300.741 5.83435 0.698397 0
M  V30 3258 H 302.265 5.88456 1.62947 0
M  V30 3259 H 303.679 5.69781 -0.634274 0
M  V30 3260 H 302.076 5.83203 -1.41399 0
M  V30 3261 H 303.146 4.48514 -1.84292 0
M  V30 3262 N 304.489 0.459591 1.5075 0
M  V30 3263 C 305.736 -0.0993495 2.02256 0
M  V30 3264 C 306.064 -1.40751 1.34237 0
M  V30 3265 O 305.319 -1.90379 0.453228 0
M  V30 3266 C 305.618 -0.342866 3.55752 0
M  V30 3267 C 305.284 0.88218 4.42186 0
M  V30 3268 C 303.946 1.21808 4.65528 0
M  V30 3269 C 306.298 1.69837 4.92752 0
M  V30 3270 C 303.626 2.37045 5.36681 0
M  V30 3271 C 305.978 2.84192 5.65171 0
M  V30 3272 C 304.642 3.1821 5.8677 0
M  V30 3273 H 303.912 -0.0363545 0.740108 0
M  V30 3274 H 306.559 0.611329 1.8148 0
M  V30 3275 H 304.864 -1.13567 3.7498 0
M  V30 3276 H 306.561 -0.789121 3.93159 0
M  V30 3277 H 303.151 0.610467 4.2423 0
M  V30 3278 H 307.335 1.45205 4.74583 0
M  V30 3279 H 302.591 2.63689 5.51614 0
M  V30 3280 H 306.765 3.4779 6.03337 0
M  V30 3281 H 304.392 4.07613 6.41682 0
M  V30 3282 N 305.967 -1.56429 0.191757 0
M  V30 3283 C 306.9 -2.14829 -0.76967 0
M  V30 3284 C 307.878 -1.08405 -1.2119 0
M  V30 3285 O 309.062 -1.36498 -1.30002 0
M  V30 3286 C 306.189 -2.70446 -2.03903 0
M  V30 3287 C 305.235 -3.89428 -1.7392 0
M  V30 3288 S 306.068 -5.28048 -0.890265 0
M  V30 3289 C 307.224 -5.87085 -2.16984 0
M  V30 3290 H 307.457 -2.96042 -0.273204 0
M  V30 3291 H 304.99 -1.54383 -0.0231975 0
M  V30 3292 H 306.948 -3.03134 -2.76803 0
M  V30 3293 H 305.609 -1.89281 -2.50662 0
M  V30 3294 H 304.802 -4.26742 -2.68155 0
M  V30 3295 H 304.404 -3.57732 -1.09103 0
M  V30 3296 H 306.696 -6.01244 -3.12269 0
M  V30 3297 H 307.639 -6.83747 -1.84108 0
M  V30 3298 H 308.047 -5.15663 -2.29678 0
M  V30 3299 N 307.445 0.0818655 -1.57387 0
M  V30 3300 C 308.392 1.09834 -2.0299 0
M  V30 3301 C 309.362 1.39043 -0.908639 0
M  V30 3302 O 310.547 1.50282 -1.17559 0
M  V30 3303 C 307.687 2.40971 -2.47037 0
M  V30 3304 C 306.8 2.18379 -3.7274 0
M  V30 3305 C 305.935 3.43008 -4.0561 0
M  V30 3306 C 304.974 3.15736 -5.24383 0
M  V30 3307 N 304.111 4.32667 -5.52941 0
M  V30 3308 H 308.951 0.702472 -2.89602 0
M  V30 3309 H 306.488 0.33531 -1.43227 0
M  V30 3310 H 308.446 3.1752 -2.70623 0
M  V30 3311 H 307.076 2.78379 -1.63417 0
M  V30 3312 H 306.128 1.32569 -3.56552 0
M  V30 3313 H 307.44 1.94227 -4.59431 0
M  V30 3314 H 306.594 4.27958 -4.30043 0
M  V30 3315 H 305.333 3.70225 -3.17466 0
M  V30 3316 H 304.338 2.2918 -4.99757 0
M  V30 3317 H 305.563 2.8985 -6.14136 0
M  V30 3318 H 303.509 4.59935 -4.67756 0
M  V30 3319 H 303.426 4.11753 -6.34031 0
M  V30 3320 H 304.694 5.18644 -5.81918 0
M  V30 3321 N 308.923 1.53595 0.353017 0
M  V30 3322 C 309.855 1.77219 1.45348 0
M  V30 3323 C 310.868 0.65324 1.49119 0
M  V30 3324 O 312.057 0.929775 1.52373 0
M  V30 3325 C 309.157 1.84841 2.84055 0
M  V30 3326 C 308.33 3.14649 3.03833 0
M  V30 3327 C 307.389 3.13351 4.22727 0
M  V30 3328 O 306.415 3.87107 4.17297 0
M  V30 3329 N 307.617 2.35052 5.30783 0
M  V30 3330 H 310.382 2.72178 1.25457 0
M  V30 3331 H 307.943 1.52528 0.542833 0
M  V30 3332 H 309.935 1.81435 3.61751 0
M  V30 3333 H 308.505 0.971114 2.97133 0
M  V30 3334 H 307.725 3.31256 2.13689 0
M  V30 3335 H 309.013 4.00411 3.13925 0
M  V30 3336 H 308.411 1.74663 5.38061 0
M  V30 3337 H 306.968 2.37453 6.07009 0
M  V30 3338 N 310.401 -0.613514 1.45168 0
M  V30 3339 C 311.65 -1.36874 1.4815 0
M  V30 3340 C 311.963 -1.952 0.124982 0
M  V30 3341 O 313.169 -2.71481 0.0324176 0
M  V30 3342 C 311.625 -2.47905 2.60904 0
M  V30 3343 C 311.233 -1.96016 4.02842 0
M  V30 3344 C 312.977 -3.24965 2.73126 0
M  V30 3345 C 310.884 -3.04494 5.06988 0
M  V30 3346 H 309.814 -0.514428 0.551253 0
M  V30 3347 H 312.465 -0.658182 1.7129 0
M  V30 3348 H 310.847 -3.21618 2.31037 0
M  V30 3349 H 312.021 -1.29051 4.4236 0
M  V30 3350 H 310.336 -1.31719 3.95018 0
M  V30 3351 H 312.933 -4.05865 3.48106 0
M  V30 3352 H 313.276 -3.75588 1.79553 0
M  V30 3353 H 313.809 -2.5835 3.0249 0
M  V30 3354 H 310.548 -2.58795 6.0225 0
M  V30 3355 H 310.068 -3.70044 4.72046 0
M  V30 3356 H 311.747 -3.68976 5.31475 0
M  V30 3357 N 311.879 -1.3236 -0.855495 0
M  V30 3358 C 313.119 -1.24187 -1.62348 0
M  V30 3359 C 313.483 0.193597 -1.91021 0
M  V30 3360 O 314.684 0.39904 -2.65822 0
M  V30 3361 C 312.955 -2.07661 -2.90881 0
M  V30 3362 S 314.514 -2.16505 -3.81669 0
M  V30 3363 H 311.332 -0.442076 -0.556857 0
M  V30 3364 H 313.934 -1.67198 -1.01317 0
M  V30 3365 H 312.638 -3.11018 -2.67761 0
M  V30 3366 H 312.169 -1.65425 -3.56929 0
M  V30 3367 H 314.184 -1.31394 -4.78487 0
M  V30 3368 N 313.357 1.07166 -1.15556 0
M  V30 3369 C 314.267 2.17947 -0.868116 0
M  V30 3370 C 315.283 1.73297 0.156297 0
M  V30 3371 O 316.459 2.01392 -0.0182327 0
M  V30 3372 C 313.524 3.44789 -0.36355 0
M  V30 3373 C 312.585 4.03996 -1.45209 0
M  V30 3374 C 311.818 5.24783 -0.971508 0
M  V30 3375 O 312.041 5.70109 0.182194 0
M  V30 3376 O 310.975 5.75715 -1.75603 0
M  V30 3377 H 314.801 2.4503 -1.79427 0
M  V30 3378 H 312.386 1.16539 -0.934824 0
M  V30 3379 H 314.268 4.21307 -0.0887113 0
M  V30 3380 H 312.943 3.19253 0.534708 0
M  V30 3381 H 311.85 3.29009 -1.78056 0
M  V30 3382 H 313.183 4.33808 -2.32533 0
M  V30 3383 N 314.835 0.952656 1.25548 0
M  V30 3384 C 316.083 0.605176 1.92826 0
M  V30 3385 C 316.404 -0.860261 1.74999 0
M  V30 3386 O 315.674 -1.6125 1.11244 0
M  V30 3387 H 314.254 0.220832 0.713612 0
M  V30 3388 H 316.916 1.21047 1.52754 0
M  V30 3389 H 316.012 0.832798 3.00784 0
M  V30 3390 N 316.313 -1.40141 0.720998 0
M  V30 3391 C 317.562 -2.0002 0.259804 0
M  V30 3392 C 317.875 -1.57839 -1.15526 0
M  V30 3393 O 319.081 -2.10455 -1.71525 0
M  V30 3394 C 317.537 -3.57516 0.413566 0
M  V30 3395 C 317.145 -4.08667 1.83562 0
M  V30 3396 C 318.889 -4.24498 0.0134387 0
M  V30 3397 C 316.796 -5.58686 1.93968 0
M  V30 3398 H 315.726 -0.748195 0.0933806 0
M  V30 3399 H 318.377 -1.60313 0.892866 0
M  V30 3400 H 316.759 -3.9495 -0.288169 0
M  V30 3401 H 317.933 -3.82598 2.56817 0
M  V30 3402 H 316.248 -3.543 2.1877 0
M  V30 3403 H 318.845 -5.34654 0.0703954 0
M  V30 3404 H 319.188 -4.03375 -1.02927 0
M  V30 3405 H 319.721 -3.92188 0.665815 0
M  V30 3406 H 316.46 -5.8467 2.96379 0
M  V30 3407 H 315.98 -5.86602 1.25131 0
M  V30 3408 H 317.659 -6.23875 1.71431 0
M  V30 3409 N 317.792 -0.46758 -1.50504 0
M  V30 3410 C 319.208 -0.121533 -1.59137 0
M  V30 3411 C 319.408 1.3717 -1.47603 0
M  V30 3412 O 318.464 2.14464 -1.33272 0
M  V30 3413 C 319.777 -0.6686 -2.93173 0
M  V30 3414 C 321.325 -0.631716 -3.06559 0
M  V30 3415 C 321.8 -1.15627 -4.43164 0
M  V30 3416 N 323.291 -1.11553 -4.49567 0
M  V30 3417 C 324.026 -1.49195 -5.5365 0
M  V30 3418 N 323.522 -1.94269 -6.65005 0
M  V30 3419 N 325.315 -1.4082 -5.44175 0
M  V30 3420 H 317.466 -1.4388 -1.56245 0
M  V30 3421 H 319.729 -0.594784 -0.738198 0
M  V30 3422 H 319.435 -1.71453 -3.07078 0
M  V30 3423 H 319.309 -0.11021 -3.77039 0
M  V30 3424 H 321.696 0.405297 -2.92304 0
M  V30 3425 H 321.777 -1.22687 -2.24458 0
M  V30 3426 H 321.421 -2.1919 -4.58168 0
M  V30 3427 H 321.351 -0.537365 -5.23851 0
M  V30 3428 H 323.842 -0.784895 -3.69659 0
M  V30 3429 H 324.155 -2.21148 -7.40482 0
M  V30 3430 H 322.5 -1.98219 -6.66134 0
M  V30 3431 H 325.691 -1.0545 -4.56068 0
M  V30 3432 H 325.864 -1.70481 -6.25172 0
M  V30 3433 N 319.27 1.56325 -0.20005 0
M  V30 3434 C 320.22 2.15939 0.731743 0
M  V30 3435 C 321.204 1.10154 1.17281 0
M  V30 3436 O 322.396 1.36203 1.13038 0
M  V30 3437 C 319.525 2.82614 1.94895 0
M  V30 3438 C 318.611 3.95596 1.52855 0
M  V30 3439 N 319.002 4.99118 0.819418 0
M  V30 3440 C 317.3 4.07288 1.81748 0
M  V30 3441 C 318.001 5.78513 0.608053 0
M  V30 3442 N 316.977 5.31117 1.15828 0
M  V30 3443 H 320.779 2.9334 0.181285 0
M  V30 3444 H 318.293 1.624 -0.000452172 0
M  V30 3445 H 320.29 3.23718 2.62702 0
M  V30 3446 H 318.95 2.06702 2.50408 0
M  V30 3447 H 319.961 5.15723 0.47436 0
M  V30 3448 H 316.638 3.42509 2.38734 0
M  V30 3449 H 318.028 6.71885 0.0451619 0
M  V30 3450 N 320.748 -0.0735177 1.57428 0
M  V30 3451 C 321.681 -1.11932 1.98863 0
M  V30 3452 C 322.659 -1.37666 0.865266 0
M  V30 3453 O 323.843 -1.51068 1.12742 0
M  V30 3454 C 320.97 -2.46403 2.32386 0
M  V30 3455 C 320.016 -2.36815 3.54713 0
M  V30 3456 S 320.849 -1.76392 5.05614 0
M  V30 3457 C 322.005 -3.12444 5.42337 0
M  V30 3458 H 322.238 -0.766212 2.87257 0
M  V30 3459 H 319.771 -0.281987 1.51803 0
M  V30 3460 H 321.729 -3.23755 2.52375 0
M  V30 3461 H 320.39 -2.78876 1.44524 0
M  V30 3462 H 319.583 -3.35977 3.7568 0
M  V30 3463 H 319.185 -1.67598 3.34345 0
M  V30 3464 H 321.477 -4.08753 5.40303 0
M  V30 3465 H 322.42 -2.96258 6.43146 0
M  V30 3466 H 322.828 -3.1297 4.69798 0
M  V30 3467 N 322.226 -1.5378 -0.344866 0
M  V30 3468 C 323.176 -1.78057 -1.42407 0
M  V30 3469 C 324.16 -0.635732 -1.47808 0
M  V30 3470 O 325.352 -0.89508 -1.527 0
M  V30 3471 C 322.481 -1.99242 -2.79566 0
M  V30 3472 C 321.567 -3.19787 -2.78562 0
M  V30 3473 N 321.958 -4.41284 -2.47189 0
M  V30 3474 C 320.256 -3.2093 -3.0971 0
M  V30 3475 C 320.957 -5.23128 -2.54385 0
M  V30 3476 N 319.933 -4.59813 -2.89953 0
M  V30 3477 H 323.735 -2.69588 -1.17046 0
M  V30 3478 H 321.249 -1.52687 -0.553217 0
M  V30 3479 H 323.246 -2.14768 -3.57324 0
M  V30 3480 H 321.906 -1.08953 -3.05875 0
M  V30 3481 H 322.917 -4.68657 -2.20411 0
M  V30 3482 H 319.594 -2.40603 -3.41199 0
M  V30 3483 H 320.984 -6.30096 -2.333 0
M  V30 3484 N 323.704 0.605807 -1.45491 0
M  V30 3485 C 324.636 1.73031 -1.5031 0
M  V30 3486 C 325.649 1.57968 -0.393687 0
M  V30 3487 O 326.838 1.65817 -0.660839 0
M  V30 3488 C 323.938 3.11049 -1.34543 0
M  V30 3489 C 323.111 3.52334 -2.59189 0
M  V30 3490 C 322.17 4.69323 -2.37954 0
M  V30 3491 O 321.196 4.7635 -3.11575 0
M  V30 3492 N 322.398 5.62705 -1.4263 0
M  V30 3493 H 325.163 1.6936 -2.4726 0
M  V30 3494 H 322.724 0.79114 -1.41254 0
M  V30 3495 H 324.716 3.87071 -1.18144 0
M  V30 3496 H 323.286 3.09217 -0.458623 0
M  V30 3497 H 322.506 2.66256 -2.90691 0
M  V30 3498 H 323.794 3.76677 -3.42041 0
M  V30 3499 H 323.192 5.59744 -0.818758 0
M  V30 3500 H 321.749 6.38252 -1.32202 0
M  V30 3501 N 325.182 1.32811 0.848464 0
M  V30 3502 C 326.115 1.16601 1.96162 0
M  V30 3503 C 327.093 0.0638855 1.62474 0
M  V30 3504 O 328.277 0.224348 1.8716 0
M  V30 3505 C 325.404 0.786333 3.29446 0
M  V30 3506 C 324.45 1.89459 3.8211 0
M  V30 3507 S 325.283 3.50395 4.04949 0
M  V30 3508 C 326.439 3.14413 5.41198 0
M  V30 3509 H 326.672 2.10832 2.09612 0
M  V30 3510 H 324.205 1.17543 1.00115 0
M  V30 3511 H 326.163 0.574044 4.06466 0
M  V30 3512 H 324.824 -0.137218 3.138 0
M  V30 3513 H 324.017 1.58207 4.78526 0
M  V30 3514 H 323.619 2.06304 3.11953 0
M  V30 3515 H 325.911 2.64642 6.23675 0
M  V30 3516 H 326.854 4.09874 5.77416 0
M  V30 3517 H 327.262 2.51266 5.05495 0
M  V30 3518 N 326.66 -1.06551 1.16123 0
M  V30 3519 C 327.89 -1.8274 0.963838 0
M  V30 3520 C 328.298 -1.82712 -0.491228 0
M  V30 3521 O 327.641 -1.24294 -1.35265 0
M  V30 3522 C 327.703 -3.3065 1.41106 0
M  V30 3523 C 327.367 -3.54384 2.88549 0
M  V30 3524 C 328.364 -3.4765 3.86569 0
M  V30 3525 C 326.049 -3.81789 3.26408 0
M  V30 3526 C 328.043 -3.67982 5.2045 0
M  V30 3527 C 325.73 -4.01772 4.60459 0
M  V30 3528 C 326.728 -3.94866 5.57288 0
M  V30 3529 O 326.416 -4.14306 6.88916 0
M  V30 3530 H 326.148 -0.583136 0.341948 0
M  V30 3531 H 328.702 -1.35351 1.54497 0
M  V30 3532 H 326.932 -3.78887 0.773394 0
M  V30 3533 H 328.621 -3.88324 1.1815 0
M  V30 3534 H 329.387 -3.2647 3.58667 0
M  V30 3535 H 325.266 -3.86276 2.51619 0
M  V30 3536 H 328.81 -3.62507 5.96015 0
M  V30 3537 H 324.707 -4.2244 4.88072 0
M  V30 3538 H 325.475 -4.31609 6.95454 0
M  V30 3539 N 328.138 -0.959301 -1.25041 0
M  V30 3540 C 329.387 -0.612254 -1.92183 0
M  V30 3541 C 329.7 0.855347 -1.75907 0
M  V30 3542 O 330.906 1.31256 -2.37664 0
M  V30 3543 C 329.362 -1.04435 -3.44414 0
M  V30 3544 C 328.97 -2.53482 -3.69393 0
M  V30 3545 C 330.714 -0.770055 -4.17457 0
M  V30 3546 C 328.621 -2.90468 -5.15153 0
M  V30 3547 H 327.551 -0.225279 -0.719559 0
M  V30 3548 H 330.202 -1.16438 -1.41825 0
M  V30 3549 H 328.584 -0.4206 -3.9376 0
M  V30 3550 H 329.758 -3.20916 -3.30681 0
M  V30 3551 H 328.073 -2.78432 -3.0962 0
M  V30 3552 H 330.67 -1.02249 -5.24832 0
M  V30 3553 H 331.013 0.293611 -4.15263 0
M  V30 3554 H 331.546 -1.35437 -3.74034 0
M  V30 3555 H 328.285 -3.95871 -5.22462 0
M  V30 3556 H 327.805 -2.27711 -5.54894 0
M  V30 3557 H 329.484 -2.79914 -5.83315 0
M  V30 3558 N 329.616 1.39756 -0.72842 0
M  V30 3559 C 330.546 2.33289 -0.0991354 0
M  V30 3560 C 331.527 1.53568 0.731489 0
M  V30 3561 O 332.712 1.81987 0.677807 0
M  V30 3562 C 329.842 3.3763 0.813834 0
M  V30 3563 C 328.796 4.2791 0.0878663 0
M  V30 3564 C 328.122 5.22894 1.11741 0
M  V30 3565 C 329.422 5.11314 -1.06563 0
M  V30 3566 H 331.116 2.86163 -0.880408 0
M  V30 3567 H 328.662 1.37591 -0.424819 0
M  V30 3568 H 330.615 4.0201 1.26355 0
M  V30 3569 H 329.339 2.83181 1.62715 0
M  V30 3570 H 327.998 3.65 -0.342159 0
M  V30 3571 H 327.646 4.64744 1.92412 0
M  V30 3572 H 327.346 5.84143 0.636477 0
M  V30 3573 H 328.87 5.90151 1.56697 0
M  V30 3574 H 330.284 5.69076 -0.694671 0
M  V30 3575 H 328.681 5.81671 -1.47577 0
M  V30 3576 H 329.751 4.46534 -1.89038 0
M  V30 3577 N 331.094 0.475555 1.50254 0
M  V30 3578 C 332.044 -0.335025 2.25525 0
M  V30 3579 C 333.028 -0.957625 1.29299 0
M  V30 3580 O 334.22 -0.869436 1.54175 0
M  V30 3581 C 331.349 -1.41385 3.12834 0
M  V30 3582 C 330.435 -0.798762 4.1651 0
M  V30 3583 N 330.826 0.0835815 5.05731 0
M  V30 3584 C 329.124 -1.06221 4.33166 0
M  V30 3585 C 329.825 0.433113 5.80085 0
M  V30 3586 N 328.801 -0.1928 5.43258 0
M  V30 3587 H 332.603 0.344612 2.91873 0
M  V30 3588 H 330.117 0.289986 1.5979 0
M  V30 3589 H 332.114 -2.00777 3.65368 0
M  V30 3590 H 330.774 -2.09543 2.48036 0
M  V30 3591 H 331.785 0.452715 5.15918 0
M  V30 3592 H 328.462 -1.73844 3.79585 0
M  V30 3593 H 329.852 1.15346 6.61925 0
M  V30 3594 N 332.573 -1.56217 0.208337 0
M  V30 3595 C 333.503 -2.22694 -0.702116 0
M  V30 3596 C 334.484 -1.19432 -1.2112 0
M  V30 3597 O 335.669 -1.47978 -1.25762 0
M  V30 3598 C 332.799 -2.8966 -1.9161 0
M  V30 3599 C 331.753 -3.9928 -1.5414 0
M  V30 3600 C 331.079 -4.53476 -2.83308 0
M  V30 3601 C 332.379 -5.17012 -0.741339 0
M  V30 3602 H 334.073 -2.99034 -0.147898 0
M  V30 3603 H 331.619 -1.43831 -0.0696951 0
M  V30 3604 H 333.572 -3.34852 -2.55836 0
M  V30 3605 H 332.296 -2.10746 -2.49507 0
M  V30 3606 H 330.955 -3.54799 -0.922668 0
M  V30 3607 H 330.603 -3.71308 -3.39322 0
M  V30 3608 H 330.303 -5.27451 -2.58976 0
M  V30 3609 H 331.827 -5.01378 -3.485 0
M  V30 3610 H 333.241 -5.58667 -1.28699 0
M  V30 3611 H 331.638 -5.97137 -0.595627 0
M  V30 3612 H 332.708 -4.8423 0.254851 0
M  V30 3613 N 334.051 0.0651679 -1.57465 0
M  V30 3614 C 335.328 0.79644 -1.78651 0
M  V30 3615 C 335.708 1.95454 -0.797566 0
M  V30 3616 O 335.056 2.27882 0.167946 0
M  V30 3617 C 335.266 1.26322 -3.25337 0
M  V30 3618 C 336.614 1.6939 -3.89348 0
M  V30 3619 O 337.638 1.35872 -3.29268 0
M  V30 3620 O 336.497 2.31471 -4.95059 0
M  V30 3621 H 333.591 0.382157 -0.733407 0
M  V30 3622 H 336.137 0.0447311 -1.69641 0
M  V30 3623 H 334.909 0.434859 -3.88876 0
M  V30 3624 H 334.532 2.07604 -3.39096 0
M  V30 3625 N 335.529 1.53961 0.336706 0
M  V30 3626 C 336.459 1.85417 1.41925 0
M  V30 3627 C 337.44 0.709856 1.5458 0
M  V30 3628 O 338.625 0.962396 1.68676 0
M  V30 3629 C 335.755 2.06985 2.78881 0
M  V30 3630 C 334.709 3.22813 2.81026 0
M  V30 3631 C 334.035 3.29727 4.20932 0
M  V30 3632 C 335.335 4.60767 2.45949 0
M  V30 3633 H 337.029 2.76079 1.15848 0
M  V30 3634 H 334.575 1.32839 0.555859 0
M  V30 3635 H 336.528 2.27575 3.54665 0
M  V30 3636 H 335.252 1.13061 3.06406 0
M  V30 3637 H 333.911 3.0209 2.07695 0
M  V30 3638 H 333.559 2.33385 4.45579 0
M  V30 3639 H 333.259 4.07566 4.23277 0
M  V30 3640 H 334.783 3.52536 4.98549 0
M  V30 3641 H 336.197 4.81325 3.11446 0
M  V30 3642 H 334.594 5.4106 2.59566 0
M  V30 3643 H 335.664 4.6391 1.41122 0
M  V30 3644 N 337.007 -0.598083 1.45811 0
M  V30 3645 C 337.954 -1.7082 1.55207 0
M  V30 3646 C 338.924 -1.61278 0.39732 0
M  V30 3647 O 340.109 -1.80717 0.612038 0
M  V30 3648 C 337.249 -3.09144 1.53376 0
M  V30 3649 C 336.362 -3.29423 2.79472 0
M  V30 3650 C 335.497 -4.57907 2.69248 0
M  V30 3651 C 334.536 -4.71476 3.90354 0
M  V30 3652 N 333.673 -5.9127 3.78608 0
M  V30 3653 H 338.513 -1.62125 2.50039 0
M  V30 3654 H 336.05 -0.790389 1.24062 0
M  V30 3655 H 338.008 -3.89186 1.50301 0
M  V30 3656 H 336.638 -3.16773 0.620876 0
M  V30 3657 H 335.69 -2.43091 2.92594 0
M  V30 3658 H 337.002 -3.3532 3.69272 0
M  V30 3659 H 336.156 -5.46157 2.64192 0
M  V30 3660 H 334.895 -4.54423 1.77063 0
M  V30 3661 H 333.9 -3.81648 3.95759 0
M  V30 3662 H 335.125 -4.76751 4.83617 0
M  V30 3663 H 333.071 -5.88813 2.89199 0
M  V30 3664 H 332.988 -5.98369 4.6205 0
M  V30 3665 H 334.256 -6.81992 3.77501 0
M  V30 3666 N 338.485 -1.33259 -0.841409 0
M  V30 3667 C 339.896 -1.22066 -1.41269 0
M  V30 3668 C 340.247 0.161479 -1.95534 0
M  V30 3669 O 339.372 1.06094 -1.88608 0
M  V30 3670 C 339.967 -2.20996 -2.568 0
M  V30 3671 C 338.526 -2.13649 -3.09888 0
M  V30 3672 C 337.673 -2.08623 -1.82679 0
M  V30 3673 H 340.624 -1.44895 -0.647395 0
M  V30 3674 H 340.645 -1.81621 -3.34356 0
M  V30 3675 H 340.157 -3.2158 -2.17274 0
M  V30 3676 H 338.258 -1.16359 -3.53965 0
M  V30 3677 H 338.371 -3.04079 -3.70234 0
M  V30 3678 H 336.735 -1.54061 -2.02824 0
M  V30 3679 H 337.518 -3.1101 -1.45353 0
M  V30 3680 N 339.963 1.05934 -1.16686 0
M  V30 3681 C 340.873 2.17014 -0.891183 0
M  V30 3682 C 341.889 1.73453 0.137907 0
M  V30 3683 O 343.065 2.01361 -0.039592 0
M  V30 3684 C 340.13 3.44384 -0.400099 0
M  V30 3685 C 339.191 4.02433 -1.49486 0
M  V30 3686 C 338.424 5.23723 -1.02711 0
M  V30 3687 O 338.647 5.7027 0.121716 0
M  V30 3688 O 337.581 5.7382 -1.81699 0
M  V30 3689 H 341.407 2.43113 -1.82015 0
M  V30 3690 H 338.992 1.15541 -0.947132 0
M  V30 3691 H 340.874 4.21189 -0.133392 0
M  V30 3692 H 339.549 3.19802 0.500817 0
M  V30 3693 H 338.456 3.27102 -1.81535 0
M  V30 3694 H 339.789 4.31317 -2.37121 0
M  V30 3695 N 341.441 0.965919 1.2453 0
M  V30 3696 C 342.389 0.486506 2.27455 0
M  V30 3697 C 343.383 -0.449041 1.6334 0
M  V30 3698 O 344.589 -0.324527 1.7705 0
M  V30 3699 H 340.964 0.138857 0.739069 0
M  V30 3700 H 342.935 1.3666 2.65267 0
M  V30 3701 C 341.684 -0.209481 3.47068 0
M  V30 3702 H 341.007 0.50129 3.96645 0
M  V30 3703 H 342.447 -0.508775 4.20936 0
M  V30 3704 C 340.906 -1.43586 3.0477 0
M  V30 3705 O 341.436 -2.53299 3.11773 0
M  V30 3706 N 339.642 -1.30126 2.59838 0
M  V30 3707 H 339.189 -0.408583 2.54339 0
M  V30 3708 H 339.147 -2.12294 2.31902 0
M  V30 3709 N 342.919 -1.39368 0.735821 0
M  V30 3710 C 344.168 -1.99733 0.281004 0
M  V30 3711 C 344.481 -1.59055 -1.13846 0
M  V30 3712 O 345.687 -2.12262 -1.69284 0
M  V30 3713 C 344.143 -3.57057 0.451462 0
M  V30 3714 C 343.751 -4.06697 1.87886 0
M  V30 3715 C 345.495 -4.2446 0.0584616 0
M  V30 3716 C 343.402 -5.56598 1.99883 0
M  V30 3717 H 342.332 -0.747163 0.101311 0
M  V30 3718 H 344.983 -1.59357 0.909819 0
M  V30 3719 H 343.365 -3.95234 -0.246263 0
M  V30 3720 H 344.539 -3.79853 2.60861 0
M  V30 3721 H 342.854 -3.5196 2.22515 0
M  V30 3722 H 345.451 -5.34549 0.127099 0
M  V30 3723 H 345.794 -4.04444 -0.986433 0
M  V30 3724 H 346.327 -3.9146 0.707374 0
M  V30 3725 H 343.066 -5.81494 3.02564 0
M  V30 3726 H 342.586 -5.85242 1.31346 0
M  V30 3727 H 344.265 -6.22022 1.78039 0
M  V30 3728 N 344.397 -0.483516 -1.5 0
M  V30 3729 C 345.327 0.293829 -2.31644 0
M  V30 3730 C 346.308 0.978864 -1.39112 0
M  V30 3731 O 347.493 0.973644 -1.68029 0
M  V30 3732 C 344.623 1.36897 -3.19181 0
M  V30 3733 C 343.577 0.804833 -4.20365 0
M  V30 3734 C 342.903 1.9792 -4.96721 0
M  V30 3735 C 344.203 -0.192313 -5.21946 0
M  V30 3736 H 345.897 -0.387616 -2.9688 0
M  V30 3737 H 343.443 -0.187856 -1.42769 0
M  V30 3738 H 345.396 1.92037 -3.751 0
M  V30 3739 H 344.12 2.07936 -2.51853 0
M  V30 3740 H 342.779 0.275319 -3.65565 0
M  V30 3741 H 342.427 2.67686 -4.25856 0
M  V30 3742 H 342.127 1.60789 -5.65173 0
M  V30 3743 H 343.651 2.53526 -5.55479 0
M  V30 3744 H 345.065 0.270333 -5.72662 0
M  V30 3745 H 343.462 -0.478543 -5.98189 0
M  V30 3746 H 344.532 -1.11409 -4.71928 0
M  V30 3747 N 345.875 1.56104 -0.216619 0
M  V30 3748 C 347.115 2.00074 0.418322 0
M  V30 3749 C 347.479 1.10098 1.57297 0
M  V30 3750 O 348.68 1.43393 2.27359 0
M  V30 3751 C 346.951 3.47231 0.846477 0
M  V30 3752 S 348.51 4.13223 1.47622 0
M  V30 3753 H 345.328 0.698457 0.132962 0
M  V30 3754 H 347.93 1.92784 -0.324748 0
M  V30 3755 H 346.634 4.104 -0.0036319 0
M  V30 3756 H 346.165 3.58384 1.62248 0
M  V30 3757 H 348.18 4.12005 2.76526 0
M  V30 3758 N 347.353 -0.0568162 1.57498 0
M  V30 3759 C 348.599 -0.75422 1.88253 0
M  V30 3760 C 348.932 -1.76461 0.810865 0
M  V30 3761 O 348.207 -1.93691 -0.177259 0
M  V30 3762 C 348.49 -1.44878 3.2967 0
M  V30 3763 C 348.343 -0.453789 4.47505 0
M  V30 3764 C 349.662 -2.38994 3.69554 0
M  V30 3765 H 346.781 -0.272724 0.684683 0
M  V30 3766 H 349.423 -0.0172113 1.89992 0
M  V30 3767 H 347.573 -2.077 3.28318 0
M  V30 3768 H 349.245 0.170371 4.60985 0
M  V30 3769 H 347.488 0.229552 4.33192 0
M  V30 3770 H 348.159 -0.977699 5.43273 0
M  V30 3771 H 350.635 -1.86239 3.72095 0
M  V30 3772 H 349.511 -2.84587 4.69363 0
M  V30 3773 H 349.772 -3.24461 3.00296 0
M  V30 3774 N 348.832 -1.54138 -0.328536 0
M  V30 3775 C 349.78 -1.83894 -1.42428 0
M  V30 3776 C 350.774 -0.710478 -1.53781 0
M  V30 3777 O 351.98 -0.894062 -1.56226 0
M  V30 3778 H 348.355 -0.582837 -0.475189 0
M  V30 3779 H 350.326 -2.75537 -1.14552 0
M  V30 3780 C 349.075 -2.07866 -2.78724 0
M  V30 3781 H 348.398 -2.94158 -2.7076 0
M  V30 3782 H 349.838 -2.32644 -3.54476 0
M  V30 3783 C 348.297 -0.868689 -3.25508 0
M  V30 3784 O 348.827 -0.0754908 -4.01629 0
M  V30 3785 N 347.033 -0.681711 -2.82491 0
M  V30 3786 H 346.58 -1.32838 -2.20708 0
M  V30 3787 H 346.538 0.126374 -3.14146 0
M  V30 3788 N 350.31 0.590341 -1.46126 0
M  V30 3789 C 351.726 0.912917 -1.30912 0
M  V30 3790 C 351.926 1.99616 -0.274893 0
M  V30 3791 O 350.982 2.50397 0.325197 0
M  V30 3792 C 352.295 1.3375 -2.69317 0
M  V30 3793 C 353.843 1.45077 -2.77348 0
M  V30 3794 C 354.318 1.90904 -4.16317 0
M  V30 3795 N 355.809 1.9811 -4.18696 0
M  V30 3796 C 356.544 2.34828 -5.23109 0
M  V30 3797 N 356.04 2.70393 -6.37856 0
M  V30 3798 N 357.833 2.35317 -5.10473 0
M  V30 3799 H 349.984 -0.125358 -2.1203 0
M  V30 3800 H 352.247 0.00658481 -0.947977 0
M  V30 3801 H 351.953 0.615614 -3.4627 0
M  V30 3802 H 351.827 2.30058 -2.9892 0
M  V30 3803 H 354.214 2.16353 -2.00687 0
M  V30 3804 H 354.295 0.4704 -2.51438 0
M  V30 3805 H 353.939 1.20209 -4.9347 0
M  V30 3806 H 353.869 2.89886 -4.39629 0
M  V30 3807 H 356.36 1.73146 -3.359 0
M  V30 3808 H 356.673 2.97341 -7.13308 0
M  V30 3809 H 355.018 2.68048 -6.41229 0
M  V30 3810 H 358.209 2.0695 -4.19868 0
M  V30 3811 H 358.382 2.63605 -5.9196 0
M  V30 3812 N 351.788 1.33704 0.83433 0
M  V30 3813 C 353.065 1.16011 1.57483 0
M  V30 3814 C 353.445 -0.27176 2.09343 0
M  V30 3815 O 352.793 -1.27146 1.89858 0
M  V30 3816 C 353.003 2.20507 2.70514 0
M  V30 3817 C 354.351 2.54898 3.39577 0
M  V30 3818 O 355.375 2.19209 2.80759 0
M  V30 3819 O 354.234 3.16158 4.45765 0
M  V30 3820 H 351.328 0.448992 0.694503 0
M  V30 3821 H 353.874 1.453 0.876691 0
M  V30 3822 H 352.646 3.16667 2.29865 0
M  V30 3823 H 352.269 1.92329 3.47987 0
M  V30 3824 N 353.266 -1.05314 1.17247 0
M  V30 3825 C 354.229 -2.112 0.890357 0
M  V30 3826 C 355.229 -1.60359 -0.118943 0
M  V30 3827 O 356.419 -1.73833 0.113086 0
M  V30 3828 C 353.551 -3.39266 0.333422 0
M  V30 3829 H 354.744 -2.37659 1.82916 0
M  V30 3830 H 352.297 -1.21538 0.982758 0
M  V30 3831 H 353.032 -3.18462 -0.612587 0
M  V30 3832 H 352.817 -3.77477 1.06082 0
M  V30 3833 H 354.307 -4.17315 0.154322 0
M  V30 3834 N 354.744 -0.972509 -1.24016 0
M  V30 3835 C 355.691 -0.505969 -2.25186 0
M  V30 3836 C 356.661 0.451009 -1.5986 0
M  V30 3837 O 357.846 0.360307 -1.87367 0
M  V30 3838 C 354.986 0.193089 -3.44559 0
M  V30 3839 C 354.099 -0.803222 -4.24467 0
M  V30 3840 C 353.234 -0.0797793 -5.3114 0
M  V30 3841 C 352.273 -1.06583 -6.02749 0
M  V30 3842 N 351.41 -0.372074 -7.01113 0
M  V30 3843 H 356.25 -1.37351 -2.64459 0
M  V30 3844 H 353.787 -0.688419 -1.29997 0
M  V30 3845 H 355.745 0.615125 -4.1264 0
M  V30 3846 H 354.375 1.02455 -3.06109 0
M  V30 3847 H 353.427 -1.34368 -3.55878 0
M  V30 3848 H 354.739 -1.55494 -4.73944 0
M  V30 3849 H 353.893 0.400015 -6.0538 0
M  V30 3850 H 352.632 0.704597 -4.82583 0
M  V30 3851 H 351.637 -1.55645 -5.27309 0
M  V30 3852 H 352.862 -1.85074 -6.53395 0
M  V30 3853 H 350.808 0.393238 -6.5482 0
M  V30 3854 H 350.725 -1.06258 -7.48495 0
M  V30 3855 H 351.993 0.0855932 -7.79453 0
M  V30 3856 N 356.222 1.38976 -0.743202 0
M  V30 3857 C 357.154 2.29096 -0.0689228 0
M  V30 3858 C 358.167 1.47229 0.694791 0
M  V30 3859 O 359.356 1.70212 0.537597 0
M  V30 3860 C 356.456 3.25988 0.926548 0
M  V30 3861 C 355.629 4.36833 0.222647 0
M  V30 3862 C 354.688 5.13981 1.12739 0
M  V30 3863 O 353.714 5.6601 0.601795 0
M  V30 3864 N 354.916 5.25966 2.45641 0
M  V30 3865 H 357.681 2.87604 -0.842846 0
M  V30 3866 H 355.242 1.50645 -0.593109 0
M  V30 3867 H 357.234 3.74476 1.5346 0
M  V30 3868 H 355.804 2.68453 1.60162 0
M  V30 3869 H 355.024 3.90116 -0.565983 0
M  V30 3870 H 356.312 5.0811 -0.264841 0
M  V30 3871 H 355.71 4.85228 2.9081 0
M  V30 3872 H 354.267 5.77865 3.01522 0
M  V30 3873 N 357.7 0.491464 1.49741 0
M  V30 3874 C 358.949 -0.0582189 2.01616 0
M  V30 3875 C 359.262 -1.38927 1.3769 0
M  V30 3876 O 360.468 -2.02509 1.80838 0
M  V30 3877 C 358.924 -0.154235 3.59569 0
M  V30 3878 C 358.532 1.1696 4.32463 0
M  V30 3879 C 360.276 -0.65479 4.1942 0
M  V30 3880 C 358.183 1.03627 5.8225 0
M  V30 3881 H 357.113 -0.0255317 0.753568 0
M  V30 3882 H 359.764 0.629445 1.72367 0
M  V30 3883 H 358.146 -0.906138 3.85493 0
M  V30 3884 H 359.32 1.93405 4.18248 0
M  V30 3885 H 357.635 1.60285 3.84315 0
M  V30 3886 H 360.232 -0.771903 5.29099 0
M  V30 3887 H 360.575 -1.65127 3.8215 0
M  V30 3888 H 361.108 0.040304 3.9778 0
M  V30 3889 H 357.847 2.00672 6.24028 0
M  V30 3890 H 357.367 0.312546 5.98985 0
M  V30 3891 H 359.046 0.711114 6.4308 0
M  V30 3892 N 359.178 -1.55987 0.224894 0
M  V30 3893 C 360.125 -2.20436 -0.68385 0
M  V30 3894 C 361.095 -1.16102 -1.18783 0
M  V30 3895 O 362.28 -1.4447 -1.24632 0
M  V30 3896 C 359.42 -2.89076 -1.88491 0
M  V30 3897 C 358.533 -4.08012 -1.41951 0
M  V30 3898 C 357.668 -4.64426 -2.5784 0
M  V30 3899 C 356.707 -5.75656 -2.08053 0
M  V30 3900 N 355.844 -6.26347 -3.17227 0
M  V30 3901 H 360.684 -2.97727 -0.12754 0
M  V30 3902 H 358.221 -1.47011 -0.0511978 0
M  V30 3903 H 360.179 -3.27059 -2.59014 0
M  V30 3904 H 358.809 -2.14298 -2.41405 0
M  V30 3905 H 357.861 -3.75492 -0.609095 0
M  V30 3906 H 359.173 -4.88375 -1.01447 0
M  V30 3907 H 358.327 -5.04869 -3.3644 0
M  V30 3908 H 357.066 -3.83233 -3.01635 0
M  V30 3909 H 356.071 -5.34712 -1.27916 0
M  V30 3910 H 357.296 -6.58686 -1.65255 0
M  V30 3911 H 355.242 -5.48067 -3.60497 0
M  V30 3912 H 355.159 -7.01843 -2.80986 0
M  V30 3913 H 356.427 -6.71447 -3.95953 0
M  V30 3914 N 360.656 0.0484629 -1.57525 0
M  V30 3915 C 361.905 0.742065 -1.87553 0
M  V30 3916 C 362.218 1.77545 -0.820802 0
M  V30 3917 O 363.424 2.52027 -1.00967 0
M  V30 3918 C 361.88 1.37081 -3.32771 0
M  V30 3919 C 361.488 0.374786 -4.4643 0
M  V30 3920 C 363.232 2.04542 -3.71972 0
M  V30 3921 C 361.139 1.01077 -5.82698 0
M  V30 3922 H 360.069 0.280903 -0.699721 0
M  V30 3923 H 362.72 -0.00411877 -1.835 0
M  V30 3924 H 361.102 2.16605 -3.31509 0
M  V30 3925 H 362.276 -0.392331 -4.59127 0
M  V30 3926 H 360.591 -0.196653 -4.15935 0
M  V30 3927 H 363.188 2.52943 -4.71088 0
M  V30 3928 H 363.531 2.85515 -3.02964 0
M  V30 3929 H 364.064 1.31819 -3.75325 0
M  V30 3930 H 360.803 0.240878 -6.55057 0
M  V30 3931 H 360.323 1.74819 -5.73758 0
M  V30 3932 H 362.002 1.52383 -6.28799 0
M  V30 3933 N 362.134 1.5431 0.320358 0
M  V30 3934 C 363.383 1.7188 1.05546 0
M  V30 3935 C 363.696 0.501143 1.89071 0
M  V30 3936 O 364.902 0.558258 2.65699 0
M  V30 3937 C 363.358 3.04025 1.92605 0
M  V30 3938 C 362.966 4.33207 1.14176 0
M  V30 3939 C 364.71 3.30959 2.65832 0
M  V30 3940 C 362.617 5.56412 2.00399 0
M  V30 3941 H 361.547 0.640547 0.397763 0
M  V30 3942 H 364.198 1.80802 0.313522 0
M  V30 3943 H 362.58 2.89019 2.7071 0
M  V30 3944 H 363.754 4.58989 0.40819 0
M  V30 3945 H 362.069 4.13062 0.526165 0
M  V30 3946 H 364.666 4.20203 3.30656 0
M  V30 3947 H 365.009 2.48979 3.33639 0
M  V30 3948 H 365.542 3.46847 1.94787 0
M  V30 3949 H 362.281 6.41004 1.37094 0
M  V30 3950 H 361.801 5.34844 2.7148 0
M  V30 3951 H 363.48 5.92938 2.58908 0
M  V30 3952 N 363.613 -0.582584 1.46437 0
M  V30 3953 C 364.89 -1.34276 1.4223 0
M  V30 3954 C 365.27 -2.10835 0.10583 0
M  V30 3955 O 364.618 -2.09485 -0.912596 0
M  V30 3956 C 364.828 -2.26865 2.65204 0
M  V30 3957 C 366.176 -2.88691 3.11356 0
M  V30 3958 O 367.2 -2.37178 2.65753 0
M  V30 3959 O 366.059 -3.82255 3.90568 0
M  V30 3960 H 363.153 -0.603326 0.565621 0
M  V30 3961 H 365.699 -0.603591 1.58603 0
M  V30 3962 H 364.471 -1.69724 3.52576 0
M  V30 3963 H 364.094 -3.08122 2.5129 0
M  V30 3964 N 365.091 -1.34144 -0.827227 0
M  V30 3965 C 366.338 -1.26258 -1.58319 0
M  V30 3966 C 366.666 0.168595 -1.93768 0
M  V30 3967 O 365.921 1.12877 -1.59866 0
M  V30 3968 C 366.22 -2.09464 -2.89585 0
M  V30 3969 C 365.886 -3.58521 -2.73448 0
M  V30 3970 C 364.548 -3.99155 -2.68754 0
M  V30 3971 C 366.9 -4.53189 -2.57428 0
M  V30 3972 C 364.228 -5.32656 -2.45957 0
M  V30 3973 C 366.58 -5.86864 -2.36163 0
M  V30 3974 C 365.244 -6.26667 -2.29879 0
M  V30 3975 H 364.514 -0.462013 -0.579332 0
M  V30 3976 H 367.161 -1.65845 -0.95748 0
M  V30 3977 H 365.466 -1.62692 -3.56425 0
M  V30 3978 H 367.163 -2.00712 -3.47154 0
M  V30 3979 H 363.753 -3.26264 -2.77939 0
M  V30 3980 H 367.937 -4.22696 -2.60081 0
M  V30 3981 H 363.193 -5.62519 -2.39546 0
M  V30 3982 H 367.367 -6.59813 -2.22754 0
M  V30 3983 H 364.994 -7.30049 -2.11975 0
M  V30 3984 N 366.569 1.04691 -1.17803 0
M  V30 3985 C 367.817 1.7743 -0.967617 0
M  V30 3986 C 368.138 1.88359 0.504574 0
M  V30 3987 O 367.408 1.40402 1.36617 0
M  V30 3988 H 365.988 0.657242 -0.355024 0
M  V30 3989 H 368.65 1.2638 -1.48371 0
M  V30 3990 H 367.746 2.78924 -1.40027 0
M  V30 3991 N 368.047 0.979072 1.23499 0
M  V30 3992 C 368.977 0.537606 2.27227 0
M  V30 3993 C 369.958 -0.428539 1.64613 0
M  V30 3994 O 371.143 -0.322191 1.91509 0
M  V30 3995 C 368.273 -0.162052 3.46922 0
M  V30 3996 C 367.227 0.721242 4.21879 0
M  V30 3997 C 366.553 -0.110555 5.34586 0
M  V30 3998 C 367.853 2.01141 4.82016 0
M  V30 3999 H 369.547 1.40462 2.64406 0
M  V30 4000 H 367.093 0.67684 1.27102 0
M  V30 4001 H 369.046 -0.482192 4.18632 0
M  V30 4002 H 367.77 -1.06351 3.08799 0
M  V30 4003 H 366.429 1.02482 3.51984 0
M  V30 4004 H 366.077 -1.0125 4.92704 0
M  V30 4005 H 365.777 0.477325 5.85658 0
M  V30 4006 H 367.301 -0.425107 6.09118 0
M  V30 4007 H 368.715 1.75612 5.45741 0
M  V30 4008 H 367.112 2.54695 5.43369 0
M  V30 4009 H 368.182 2.69909 4.02836 0
M  V30 4010 N 369.525 -1.3858 0.750561 0
M  V30 4011 C 370.488 -2.28836 0.129152 0
M  V30 4012 C 371.488 -1.47045 -0.650714 0
M  V30 4013 O 372.678 -1.6753 -0.477428 0
M  V30 4014 C 369.81 -3.30751 -0.825622 0
M  V30 4015 H 371.003 -2.85294 0.924516 0
M  V30 4016 H 368.556 -1.47489 0.517376 0
M  V30 4017 H 369.291 -2.79378 -1.64677 0
M  V30 4018 H 369.076 -3.91177 -0.268852 0
M  V30 4019 H 370.566 -3.98249 -1.2565 0
M  V30 4020 N 371.003 -0.499398 -1.49478 0
M  V30 4021 C 372.419 -0.155261 -1.58843 0
M  V30 4022 C 372.619 1.34008 -1.50479 0
M  V30 4023 O 371.675 2.11589 -1.37791 0
M  V30 4024 C 372.988 -0.730636 -2.91689 0
M  V30 4025 C 374.536 -0.696599 -3.0515 0
M  V30 4026 C 375.011 -1.25001 -4.40612 0
M  V30 4027 N 376.502 -1.21064 -4.47099 0
M  V30 4028 C 377.237 -1.60905 -5.50361 0
M  V30 4029 N 376.733 -2.08331 -6.60735 0
M  V30 4030 N 378.526 -1.52331 -5.41065 0
M  V30 4031 H 370.677 -1.47162 -1.53158 0
M  V30 4032 H 372.94 -0.610309 -0.725415 0
M  V30 4033 H 372.646 -1.77928 -3.03372 0
M  V30 4034 H 372.52 -0.190161 -3.7672 0
M  V30 4035 H 374.907 0.343204 -2.93097 0
M  V30 4036 H 374.988 -1.2742 -2.21806 0
M  V30 4037 H 374.632 -2.28859 -4.53416 0
M  V30 4038 H 374.562 -0.64836 -5.22593 0
M  V30 4039 H 377.053 -0.863128 -3.67911 0
M  V30 4040 H 377.366 -2.36805 -7.35624 0
M  V30 4041 H 375.711 -2.12304 -6.6178 0
M  V30 4042 H 378.902 -1.151 -4.53729 0
M  V30 4043 H 379.075 -1.83704 -6.21415 0
M  V30 4044 N 372.481 1.55866 -0.233164 0
M  V30 4045 C 373.897 1.59133 0.121988 0
M  V30 4046 C 374.097 1.25016 1.58029 0
M  V30 4047 O 373.153 0.990922 2.32243 0
M  V30 4048 C 374.466 2.99932 -0.214792 0
M  V30 4049 C 376.014 3.12601 -0.157971 0
M  V30 4050 C 376.489 4.55597 -0.46859 0
M  V30 4051 N 377.98 4.61305 -0.418585 0
M  V30 4052 C 378.715 5.69903 -0.63227 0
M  V30 4053 N 378.211 6.86819 -0.90835 0
M  V30 4054 N 380.004 5.59264 -0.563913 0
M  V30 4055 H 372.155 1.76315 -1.18434 0
M  V30 4056 H 374.418 0.820093 -0.475553 0
M  V30 4057 H 374.124 3.29588 -1.22739 0
M  V30 4058 H 373.998 3.74327 0.464691 0
M  V30 4059 H 376.385 2.82735 0.845283 0
M  V30 4060 H 376.466 2.40511 -0.871102 0
M  V30 4061 H 376.11 4.86182 -1.46934 0
M  V30 4062 H 376.04 5.25928 0.265865 0
M  V30 4063 H 378.531 3.77297 -0.213368 0
M  V30 4064 H 378.844 7.65507 -1.05919 0
M  V30 4065 H 377.189 6.88536 -0.945673 0
M  V30 4066 H 380.38 4.66802 -0.348372 0
M  V30 4067 H 380.553 6.43831 -0.733847 0
M  V30 4068 N 373.959 -0.0401083 1.57549 0
M  V30 4069 C 375.189 -0.744115 1.92734 0
M  V30 4070 C 375.597 -1.70005 0.830348 0
M  V30 4071 O 374.94 -1.82576 -0.20286 0
M  V30 4072 C 375.002 -1.56516 3.2364 0
M  V30 4073 C 374.666 -0.7752 4.50377 0
M  V30 4074 C 375.663 -0.0803326 5.19838 0
M  V30 4075 C 373.348 -0.733002 4.96923 0
M  V30 4076 C 375.342 0.646154 6.34116 0
M  V30 4077 C 373.029 -0.00276321 6.111 0
M  V30 4078 C 374.027 0.685585 6.7955 0
M  V30 4079 O 373.715 1.40399 7.91545 0
M  V30 4080 H 373.447 -0.214861 0.640945 0
M  V30 4081 H 376.001 -0.00503675 2.05399 0
M  V30 4082 H 374.231 -2.3478 3.07271 0
M  V30 4083 H 375.92 -2.15076 3.44234 0
M  V30 4084 H 376.686 -0.104035 4.84888 0
M  V30 4085 H 372.565 -1.25827 4.43496 0
M  V30 4086 H 376.109 1.18398 6.87479 0
M  V30 4087 H 372.006 0.0229012 6.45496 0
M  V30 4088 H 372.774 1.31653 8.07843 0
M  V30 4089 N 375.437 -1.54477 -0.31217 0
M  V30 4090 C 376.384 -1.84655 -1.38461 0
M  V30 4091 C 377.354 -0.694536 -1.50882 0
M  V30 4092 O 378.539 -0.942081 -1.6592 0
M  V30 4093 C 375.679 -2.0896 -2.74645 0
M  V30 4094 C 374.792 -3.36618 -2.70763 0
M  V30 4095 C 373.927 -3.50824 -3.98868 0
M  V30 4096 C 372.966 -4.72315 -3.89339 0
M  V30 4097 N 372.103 -4.83387 -5.09197 0
M  V30 4098 H 376.943 -2.76142 -1.12026 0
M  V30 4099 H 374.48 -1.36748 -0.542065 0
M  V30 4100 H 376.438 -2.21045 -3.53829 0
M  V30 4101 H 375.068 -1.20752 -2.99364 0
M  V30 4102 H 374.12 -3.33211 -1.83506 0
M  V30 4103 H 375.432 -4.25917 -2.59608 0
M  V30 4104 H 374.586 -3.62513 -4.86486 0
M  V30 4105 H 373.325 -2.59638 -4.12843 0
M  V30 4106 H 372.33 -4.6067 -3.00105 0
M  V30 4107 H 373.555 -5.64897 -3.76919 0
M  V30 4108 H 371.501 -3.9512 -5.23657 0
M  V30 4109 H 371.418 -5.66669 -5.00422 0
M  V30 4110 H 372.686 -4.9942 -5.98498 0
M  V30 4111 N 376.915 0.57481 -1.46744 0
M  V30 4112 C 378.326 1.15695 -1.46532 0
M  V30 4113 C 378.677 1.95068 -0.210425 0
M  V30 4114 O 377.802 2.05241 0.685944 0
M  V30 4115 C 378.397 2.1048 -2.65487 0
M  V30 4116 C 376.956 2.64002 -2.68291 0
M  V30 4117 C 376.103 1.40026 -2.39349 0
M  V30 4118 H 379.054 0.362325 -1.54509 0
M  V30 4119 H 379.075 2.94074 -2.41455 0
M  V30 4120 H 378.587 1.52683 -3.56805 0
M  V30 4121 H 376.688 3.25646 -1.81067 0
M  V30 4122 H 376.801 3.06197 -3.68483 0
M  V30 4123 H 375.165 1.70106 -1.89568 0
M  V30 4124 H 375.948 0.840485 -3.32852 0
M  V30 4125 N 378.394 1.34581 0.820102 0
M  V30 4126 C 379.81 1.14325 1.11364 0
M  V30 4127 C 380.01 -0.0533648 2.01429 0
M  V30 4128 O 379.066 -0.728044 2.41776 0
M  V30 4129 C 380.379 2.43983 1.75764 0
M  V30 4130 C 381.927 2.50065 1.88246 0
M  V30 4131 C 382.402 3.79732 2.56061 0
M  V30 4132 N 383.893 3.80908 2.63558 0
M  V30 4133 C 384.628 4.77961 3.16766 0
M  V30 4134 N 384.124 5.85397 3.70517 0
M  V30 4135 N 385.917 4.65413 3.15194 0
M  V30 4136 H 378.068 2.11246 0.221096 0
M  V30 4137 H 380.331 0.934289 0.160649 0
M  V30 4138 H 380.037 3.31651 1.1705 0
M  V30 4139 H 379.911 2.57531 2.75604 0
M  V30 4140 H 382.298 1.62834 2.46108 0
M  V30 4141 H 382.379 2.40442 0.873006 0
M  V30 4142 H 382.023 4.67354 1.98853 0
M  V30 4143 H 381.953 3.86639 3.57516 0
M  V30 4144 H 384.444 3.03274 2.25463 0
M  V30 4145 H 384.757 6.55463 4.09376 0
M  V30 4146 H 383.102 5.89107 3.68752 0
M  V30 4147 H 386.293 3.80627 2.72471 0
M  V30 4148 H 386.466 5.41216 3.56356 0
M  V30 4149 N 379.872 -1.04064 1.18357 0
M  V30 4150 C 380.782 -2.15569 0.925596 0
M  V30 4151 C 381.798 -1.7365 -0.110295 0
M  V30 4152 O 382.974 -2.01273 0.0716218 0
M  V30 4153 C 380.039 -3.43704 0.454836 0
M  V30 4154 C 379.1 -4.00004 1.55869 0
M  V30 4155 C 378.333 -5.22023 1.1103 0
M  V30 4156 O 378.556 -5.70392 -0.0309756 0
M  V30 4157 O 377.49 -5.70856 1.90805 0
M  V30 4158 H 381.316 -2.40187 1.8586 0
M  V30 4159 H 378.901 -1.1402 0.965394 0
M  V30 4160 H 380.783 -4.20923 0.200382 0
M  V30 4161 H 379.458 -3.20559 -0.449876 0
M  V30 4162 H 378.365 -3.24172 1.86716 0
M  V30 4163 H 379.698 -4.2749 2.43953 0
M  V30 4164 N 381.35 -0.985608 -1.22978 0
M  V30 4165 C 382.297 -0.529825 -2.24636 0
M  V30 4166 C 383.267 0.434028 -1.60329 0
M  V30 4167 O 384.452 0.340414 -1.87739 0
M  V30 4168 C 381.592 0.156533 -3.44745 0
M  V30 4169 C 380.705 -0.848197 -4.23591 0
M  V30 4170 C 379.84 -0.136109 -5.31026 0
M  V30 4171 C 378.879 -1.1297 -6.01585 0
M  V30 4172 N 378.016 -0.446415 -7.00679 0
M  V30 4173 H 382.856 -1.40148 -2.62988 0
M  V30 4174 H 380.393 -0.702168 -1.29259 0
M  V30 4175 H 382.351 0.571324 -4.1327 0
M  V30 4176 H 380.981 0.992025 -3.07179 0
M  V30 4177 H 380.033 -1.38135 -3.54433 0
M  V30 4178 H 381.345 -1.60512 -4.72268 0
M  V30 4179 H 380.499 0.335784 -6.0577 0
M  V30 4180 H 379.238 0.653373 -4.83304 0
M  V30 4181 H 378.243 -1.6123 -5.25628 0
M  V30 4182 H 379.468 -1.91993 -6.51395 0
M  V30 4183 H 377.414 0.323763 -6.55201 0
M  V30 4184 H 377.331 -1.1419 -7.47326 0
M  V30 4185 H 378.599 0.00291697 -7.795 0
M  V30 4186 N 382.828 1.3818 -0.7579 0
M  V30 4187 C 383.758 2.33027 -0.148597 0
M  V30 4188 C 384.739 1.55085 0.69875 0
M  V30 4189 O 385.924 1.83384 0.639053 0
M  V30 4190 C 383.054 3.3928 0.742034 0
M  V30 4191 C 382.008 4.28 -0.00291946 0
M  V30 4192 C 381.334 5.25146 1.00625 0
M  V30 4193 C 382.634 5.08938 -1.17385 0
M  V30 4194 H 384.328 2.84231 -0.940909 0
M  V30 4195 H 381.874 1.36659 -0.453908 0
M  V30 4196 H 383.827 4.046 1.17799 0
M  V30 4197 H 382.551 2.86569 1.56671 0
M  V30 4198 H 381.21 3.64192 -0.419504 0
M  V30 4199 H 380.858 4.68721 1.8251 0
M  V30 4200 H 380.558 5.85361 0.512428 0
M  V30 4201 H 382.082 5.93342 1.44143 0
M  V30 4202 H 383.496 5.67474 -0.815224 0
M  V30 4203 H 381.893 5.7841 -1.59882 0
M  V30 4204 H 382.963 4.42424 -1.98468 0
M  V30 4205 N 384.306 0.507319 1.49211 0
M  V30 4206 C 385.253 -0.267728 2.29242 0
M  V30 4207 C 386.223 -0.954609 1.35928 0
M  V30 4208 O 387.408 -0.960046 1.64887 0
M  V30 4209 C 384.548 -1.32243 3.18756 0
M  V30 4210 C 383.661 -0.64669 4.27132 0
M  V30 4211 C 382.796 -1.68238 5.03855 0
M  V30 4212 C 381.835 -0.98885 6.0406 0
M  V30 4213 N 380.972 -1.96903 6.73924 0
M  V30 4214 H 385.812 0.420968 2.95012 0
M  V30 4215 H 383.349 0.219443 1.45454 0
M  V30 4216 H 385.307 -1.94599 3.69036 0
M  V30 4217 H 383.937 -1.97981 2.54958 0
M  V30 4218 H 382.989 0.0902926 3.80293 0
M  V30 4219 H 384.301 -0.101058 4.98698 0
M  V30 4220 H 383.455 -2.38081 5.58034 0
M  V30 4221 H 382.194 -2.26187 4.32077 0
M  V30 4222 H 381.199 -0.276222 5.49106 0
M  V30 4223 H 382.424 -0.415767 6.77826 0
M  V30 4224 H 380.37 -2.53803 6.04913 0
M  V30 4225 H 380.287 -1.47423 7.41487 0
M  V30 4226 H 381.555 -2.66015 7.32705 0
M  V30 4227 N 385.784 -1.5574 0.241426 0
M  V30 4228 C 387.03 -1.99104 -0.385406 0
M  V30 4229 C 387.363 -1.1293 -1.57988 0
M  V30 4230 O 386.638 -0.191449 -1.93555 0
M  V30 4231 C 386.921 -3.51087 -0.800616 0
M  V30 4232 C 386.774 -4.48028 0.398874 0
M  V30 4233 C 388.093 -4.08015 -1.64959 0
M  V30 4234 H 385.212 -0.723848 -0.138614 0
M  V30 4235 H 387.854 -1.86903 0.341642 0
M  V30 4236 H 386.004 -3.61615 -1.4201 0
M  V30 4237 H 387.676 -4.49487 1.03726 0
M  V30 4238 H 385.919 -4.21077 1.04293 0
M  V30 4239 H 386.59 -5.51962 0.0651056 0
M  V30 4240 H 389.066 -4.00555 -1.12672 0
M  V30 4241 H 387.942 -5.14635 -1.90898 0
M  V30 4242 H 388.203 -3.56131 -2.61961 0
M  V30 4243 N 387.262 0.0317525 -1.57568 0
M  V30 4244 C 388.21 1.05165 -2.07468 0
M  V30 4245 C 389.204 1.3761 -0.98792 0
M  V30 4246 O 390.41 1.36546 -1.17282 0
M  V30 4247 H 386.785 0.35666 -0.66204 0
M  V30 4248 H 388.756 0.604958 -2.92203 0
M  V30 4249 C 387.505 2.34488 -2.56731 0
M  V30 4250 H 386.828 2.10383 -3.39969 0
M  V30 4251 H 388.268 3.04203 -2.95358 0
M  V30 4252 C 386.727 3.03266 -1.46736 0
M  V30 4253 O 387.257 3.92988 -0.832069 0
M  V30 4254 N 385.463 2.6455 -1.20256 0
M  V30 4255 H 385.01 1.91674 -1.72102 0
M  V30 4256 H 384.968 3.10886 -0.468737 0
M  V30 4257 N 388.74 1.54641 0.303973 0
M  V30 4258 C 389.987 1.7378 1.03955 0
M  V30 4259 C 390.315 0.521986 1.87365 0
M  V30 4260 O 389.57 -0.496099 1.89308 0
M  V30 4261 C 389.869 2.97753 1.97681 0
M  V30 4262 C 389.535 4.31671 1.30271 0
M  V30 4263 C 388.197 4.68075 1.11619 0
M  V30 4264 C 390.549 5.147 0.82055 0
M  V30 4265 C 387.877 5.8509 0.434304 0
M  V30 4266 C 390.229 6.32416 0.152395 0
M  V30 4267 C 388.893 6.67484 -0.0461067 0
M  V30 4268 H 388.163 0.635908 0.380398 0
M  V30 4269 H 390.81 1.88896 0.314718 0
M  V30 4270 H 389.115 2.77406 2.76682 0
M  V30 4271 H 390.812 3.09756 2.54661 0
M  V30 4272 H 387.402 4.03041 1.45795 0
M  V30 4273 H 391.586 4.87077 0.952374 0
M  V30 4274 H 386.842 6.10806 0.269495 0
M  V30 4275 H 391.016 6.96023 -0.229126 0
M  V30 4276 H 388.643 7.58011 -0.576494 0
M  V30 4277 N 390.218 -0.567019 1.47046 0
M  V30 4278 C 391.466 -1.322 1.52864 0
M  V30 4279 C 391.787 -1.94088 0.188388 0
M  V30 4280 O 391.057 -1.7941 -0.786693 0
M  V30 4281 H 389.637 -0.490894 0.563056 0
M  V30 4282 H 392.299 -0.662879 1.83281 0
M  V30 4283 H 391.395 -2.12062 2.2899 0
M  V30 4284 N 391.696 -1.35014 -0.812953 0
M  V30 4285 C 392.924 -1.31031 -1.6012 0
M  V30 4286 C 393.339 0.113558 -1.88458 0
M  V30 4287 O 392.696 1.06363 -1.48301 0
M  V30 4288 C 392.747 -2.10872 -2.93624 0
M  V30 4289 O 392.468 -3.47706 -2.66518 0
M  V30 4290 C 393.969 -2.14401 -3.88004 0
M  V30 4291 H 391.189 -0.45037 -0.497401 0
M  V30 4292 H 393.733 -1.77775 -1.01076 0
M  V30 4293 H 391.888 -1.67744 -3.492 0
M  V30 4294 H 392.302 -3.89097 -3.51715 0
M  V30 4295 H 393.776 -2.74669 -4.78812 0
M  V30 4296 H 394.253 -1.14105 -4.24119 0
M  V30 4297 H 394.859 -2.57662 -3.38364 0
M  V30 4298 N 393.175 1.03435 -1.18907 0
M  V30 4299 C 394.586 1.58195 -0.991523 0
M  V30 4300 C 394.937 1.90801 0.457081 0
M  V30 4301 O 394.062 1.70272 1.33553 0
M  V30 4302 C 394.657 2.87432 -1.79355 0
M  V30 4303 C 393.216 3.38785 -1.64017 0
M  V30 4304 C 392.363 2.12292 -1.78402 0
M  V30 4305 H 395.314 0.860299 -1.33359 0
M  V30 4306 H 395.335 3.58096 -1.28638 0
M  V30 4307 H 394.847 2.63669 -2.84781 0
M  V30 4308 H 392.948 3.67547 -0.611536 0
M  V30 4309 H 393.061 4.12186 -2.44212 0
M  V30 4310 H 391.425 2.23901 -1.2141 0
M  V30 4311 H 392.208 1.90977 -2.85277 0
M  V30 4312 N 394.653 0.992116 1.22453 0
M  V30 4313 C 395.563 0.55065 2.28046 0
M  V30 4314 C 396.579 -0.400189 1.69335 0
M  V30 4315 O 397.755 -0.267215 1.99619 0
M  V30 4316 C 394.82 -0.128496 3.46462 0
M  V30 4317 C 393.881 0.865208 4.20491 0
M  V30 4318 C 393.114 0.218377 5.33253 0
M  V30 4319 O 393.337 -0.987894 5.6178 0
M  V30 4320 O 392.271 0.922845 5.94783 0
M  V30 4321 H 396.097 1.4291 2.67975 0
M  V30 4322 H 393.682 0.760326 1.28606 0
M  V30 4323 H 395.564 -0.508947 4.18315 0
M  V30 4324 H 394.239 -0.981526 3.0846 0
M  V30 4325 H 393.146 1.29658 3.50913 0
M  V30 4326 H 394.479 1.68741 4.62371 0
M  V30 4327 N 396.131 -1.37776 0.765217 0
M  V30 4328 C 397.378 -1.99849 0.326588 0
M  V30 4329 C 397.706 -1.60746 -1.09504 0
M  V30 4330 O 396.961 -0.84202 -1.76659 0
M  V30 4331 C 397.26 -3.5504 0.410053 0
M  V30 4332 C 396.926 -4.13891 1.78899 0
M  V30 4333 C 395.588 -4.29678 2.16635 0
M  V30 4334 C 397.94 -4.46236 2.69301 0
M  V30 4335 C 395.268 -4.7511 3.44221 0
M  V30 4336 C 397.62 -4.93089 3.9629 0
M  V30 4337 C 396.284 -5.07082 4.34078 0
M  V30 4338 H 395.554 -0.7313 0.119507 0
M  V30 4339 H 398.201 -1.64645 0.977968 0
M  V30 4340 H 396.506 -3.90451 -0.324878 0
M  V30 4341 H 398.203 -4.00966 0.0520699 0
M  V30 4342 H 394.793 -4.02026 1.48569 0
M  V30 4343 H 398.977 -4.3363 2.41409 0
M  V30 4344 H 394.233 -4.84129 3.73402 0
M  V30 4345 H 398.407 -5.17084 4.66472 0
M  V30 4346 H 396.034 -5.42046 5.33001 0
M  V30 4347 N 397.609 -0.515225 -1.4894 0
M  V30 4348 C 398.539 0.244628 -2.32215 0
M  V30 4349 C 399.52 0.949136 -1.41157 0
M  V30 4350 O 400.705 0.937783 -1.70057 0
M  V30 4351 C 397.835 1.30096 -3.22013 0
M  V30 4352 C 396.789 0.715486 -4.21977 0
M  V30 4353 C 396.115 1.87339 -5.00808 0
M  V30 4354 C 397.415 -0.302982 -5.2142 0
M  V30 4355 H 399.109 -0.450501 -2.95991 0
M  V30 4356 H 396.655 -0.218098 -1.42339 0
M  V30 4357 H 398.608 1.84037 -3.79089 0
M  V30 4358 H 397.332 2.02547 -2.56207 0
M  V30 4359 H 395.991 0.197715 -3.66066 0
M  V30 4360 H 395.639 2.58592 -4.31438 0
M  V30 4361 H 395.339 1.48764 -5.68457 0
M  V30 4362 H 396.863 2.41686 -5.60732 0
M  V30 4363 H 398.277 0.148802 -5.73107 0
M  V30 4364 H 396.674 -0.60532 -5.97039 0
M  V30 4365 H 397.744 -1.21395 -4.69459 0
M  V30 4366 N 399.087 1.5561 -0.249682 0
M  V30 4367 C 400.05 2.20217 0.635394 0
M  V30 4368 C 401.05 1.17227 1.10066 0
M  V30 4369 O 402.24 1.42292 1.00492 0
M  V30 4370 C 399.372 2.84794 1.87363 0
M  V30 4371 H 400.565 2.99814 0.0716752 0
M  V30 4372 H 398.118 1.563 -0.000153234 0
M  V30 4373 H 398.853 2.09142 2.47851 0
M  V30 4374 H 398.638 3.60241 1.5482 0
M  V30 4375 H 400.128 3.3423 2.5036 0
M  V30 4376 N 400.565 -0.0233959 1.57583 0
M  V30 4377 C 401.976 -0.56927 1.77809 0
M  V30 4378 C 402.327 -1.75284 0.881472 0
M  V30 4379 O 401.452 -2.1626 0.0777805 0
M  V30 4380 C 402.047 -1.03949 3.22459 0
M  V30 4381 C 400.606 -1.53084 3.43864 0
M  V30 4382 C 399.753 -0.471454 2.73263 0
M  V30 4383 H 402.704 0.202825 1.57399 0
M  V30 4384 H 402.725 -1.90661 3.29285 0
M  V30 4385 H 402.237 -0.177865 3.87692 0
M  V30 4386 H 400.338 -2.41414 2.83814 0
M  V30 4387 H 400.451 -1.57443 4.52491 0
M  V30 4388 H 398.815 -0.927788 2.37201 0
M  V30 4389 H 399.598 0.380808 3.41181 0
M  V30 4390 N 402.043 -1.548 -0.295768 0
M  V30 4391 C 402.953 -1.89177 -1.38742 0
M  V30 4392 C 403.969 -0.786481 -1.55211 0
M  V30 4393 O 405.145 -1.08344 -1.69775 0
M  V30 4394 C 402.21 -2.13663 -2.73036 0
M  V30 4395 C 401.271 -3.37349 -2.65508 0
M  V30 4396 C 400.504 -3.60658 -3.93398 0
M  V30 4397 O 400.727 -2.86882 -4.93006 0
M  V30 4398 O 399.661 -4.54179 -3.94975 0
M  V30 4399 H 403.487 -2.82059 -1.12589 0
M  V30 4400 H 401.072 -1.41056 -0.492295 0
M  V30 4401 H 402.954 -2.3094 -3.52484 0
M  V30 4402 H 401.629 -1.23967 -2.99022 0
M  V30 4403 H 400.536 -3.25431 -1.84514 0
M  V30 4404 H 401.869 -4.27192 -2.44474 0
M  V30 4405 N 403.521 0.559213 -1.47345 0
M  V30 4406 C 404.767 1.31843 -1.54095 0
M  V30 4407 C 405.1 1.93149 -0.201726 0
M  V30 4408 O 404.375 1.77759 0.789428 0
M  V30 4409 C 404.658 2.43006 -2.65744 0
M  V30 4410 C 404.511 1.86581 -4.09277 0
M  V30 4411 C 405.83 3.44943 -2.73318 0
M  V30 4412 H 402.949 0.478012 -0.560957 0
M  V30 4413 H 405.591 0.625977 -1.79392 0
M  V30 4414 H 403.741 3.02072 -2.44305 0
M  V30 4415 H 405.413 1.31792 -4.42073 0
M  V30 4416 H 403.656 1.17268 -4.17649 0
M  V30 4417 H 404.327 2.66933 -4.83168 0
M  V30 4418 H 406.803 2.95793 -2.92653 0
M  V30 4419 H 405.679 4.20153 -3.53218 0
M  V30 4420 H 405.94 4.03665 -1.80296 0
M  V30 4421 N 404.999 1.35443 0.805782 0
M  V30 4422 C 406.245 1.28952 1.56522 0
M  V30 4423 C 406.578 -0.135597 1.93726 0
M  V30 4424 O 405.853 -1.08516 1.61414 0
M  V30 4425 C 406.136 2.19678 2.85331 0
M  V30 4426 C 405.989 3.7081 2.54598 0
M  V30 4427 C 407.308 2.09495 3.8704 0
M  V30 4428 H 404.427 0.469764 0.567883 0
M  V30 4429 H 407.069 1.65851 0.927001 0
M  V30 4430 H 405.219 1.8834 3.39795 0
M  V30 4431 H 406.891 4.12593 2.06312 0
M  V30 4432 H 405.134 3.91051 1.8778 0
M  V30 4433 H 405.805 4.29679 3.46525 0
M  V30 4434 H 408.281 2.37045 3.41978 0
M  V30 4435 H 407.157 2.75173 4.74943 0
M  V30 4436 H 407.418 1.07714 4.28777 0
M  V30 4437 N 406.477 -1.02803 1.19454 0
M  V30 4438 C 407.425 -2.13213 0.929673 0
M  V30 4439 C 408.419 -1.69011 -0.114806 0
M  V30 4440 O 409.625 -1.79967 0.0345147 0
M  V30 4441 H 406 -0.69662 0.28324 0
M  V30 4442 H 407.971 -2.32744 1.86743 0
M  V30 4443 C 406.72 -3.4429 0.485797 0
M  V30 4444 H 406.043 -3.7872 1.28105 0
M  V30 4445 H 407.483 -4.22638 0.339582 0
M  V30 4446 C 405.942 -3.27258 -0.800244 0
M  V30 4447 O 406.472 -3.55967 -1.86146 0
M  V30 4448 N 404.678 -2.80545 -0.75781 0
M  V30 4449 H 404.225 -2.57382 0.106039 0
M  V30 4450 H 404.183 -2.6953 -1.61867 0
M  V30 4451 N 407.956 -0.998596 -1.21925 0
M  V30 4452 C 409.186 -0.695276 -1.94549 0
M  V30 4453 C 409.594 0.745079 -1.73911 0
M  V30 4454 O 408.937 1.51507 -1.03881 0
M  V30 4455 C 408.999 -0.928485 -3.47303 0
M  V30 4456 C 408.663 -2.35443 -3.91683 0
M  V30 4457 C 409.66 -3.33428 -3.98901 0
M  V30 4458 C 407.345 -2.69038 -4.24174 0
M  V30 4459 C 409.339 -4.63079 -4.37992 0
M  V30 4460 C 407.026 -3.98906 -4.62944 0
M  V30 4461 C 408.024 -4.95738 -4.69822 0
M  V30 4462 O 407.712 -6.23285 -5.07711 0
M  V30 4463 H 407.444 -0.255902 -0.625692 0
M  V30 4464 H 409.998 -1.33767 -1.5587 0
M  V30 4465 H 408.228 -0.228917 -3.86022 0
M  V30 4466 H 409.917 -0.619539 -4.01144 0
M  V30 4467 H 410.683 -3.08807 -3.73983 0
M  V30 4468 H 406.562 -1.94367 -4.18022 0
M  V30 4469 H 410.106 -5.38658 -4.43275 0
M  V30 4470 H 406.003 -4.23314 -4.87314 0
M  V30 4471 H 406.771 -6.27306 -5.25766 0
M  V30 4472 N 409.434 1.37368 -0.772513 0
M  V30 4473 C 410.711 1.93839 -0.26188 0
M  V30 4474 C 411.091 1.7061 1.24319 0
M  V30 4475 O 410.439 1.05534 2.02669 0
M  V30 4476 C 410.649 3.43154 -0.636102 0
M  V30 4477 C 411.997 4.20249 -0.606324 0
M  V30 4478 O 413.021 3.5152 -0.575538 0
M  V30 4479 O 411.88 5.42809 -0.634086 0
M  V30 4480 H 408.974 0.82478 -0.0605555 0
M  V30 4481 H 411.52 1.4665 -0.853917 0
M  V30 4482 H 410.292 3.53647 -1.6748 0
M  V30 4483 H 409.915 3.97596 -0.0170516 0
M  V30 4484 N 410.912 0.523116 1.48665 0
M  V30 4485 C 412.159 -0.0134763 2.02496 0
M  V30 4486 C 412.487 -1.3493 1.40086 0
M  V30 4487 O 411.742 -1.88286 0.533567 0
M  V30 4488 C 412.041 -0.191671 3.56886 0
M  V30 4489 C 411.707 1.06893 4.38046 0
M  V30 4490 C 410.369 1.41443 4.59943 0
M  V30 4491 C 412.721 1.90584 4.85106 0
M  V30 4492 C 410.049 2.59594 5.26144 0
M  V30 4493 C 412.401 3.07907 5.52609 0
M  V30 4494 C 411.065 3.42811 5.72745 0
M  V30 4495 H 410.335 -0.00493133 0.740984 0
M  V30 4496 H 412.982 0.687751 1.78724 0
M  V30 4497 H 411.287 -0.97561 3.79459 0
M  V30 4498 H 412.984 -0.621659 3.96152 0
M  V30 4499 H 409.574 0.789848 4.21259 0
M  V30 4500 H 413.758 1.65203 4.67997 0
M  V30 4501 H 409.014 2.86847 5.39934 0
M  V30 4502 H 413.188 3.73066 5.88043 0
M  V30 4503 H 410.815 4.34462 6.23816 0
M  V30 4504 N 412.39 -1.55475 0.257931 0
M  V30 4505 C 413.636 -1.99502 -0.364266 0
M  V30 4506 C 413.969 -1.146 -1.56782 0
M  V30 4507 O 413.244 -0.211968 -1.93342 0
M  V30 4508 C 413.527 -3.51917 -0.763333 0
M  V30 4509 C 413.38 -4.4758 0.446371 0
M  V30 4510 C 414.699 -4.09742 -1.60623 0
M  V30 4511 H 411.818 -0.725277 -0.130929 0
M  V30 4512 H 414.46 -1.8653 0.361446 0
M  V30 4513 H 412.61 -3.63101 -1.38166 0
M  V30 4514 H 414.282 -4.48362 1.08487 0
M  V30 4515 H 412.525 -4.19947 1.08753 0
M  V30 4516 H 413.196 -5.51862 0.123645 0
M  V30 4517 H 415.672 -4.01727 -1.08418 0
M  V30 4518 H 414.548 -5.16631 -1.85429 0
M  V30 4519 H 414.809 -3.58889 -2.58169 0
M  V30 4520 N 413.868 0.0150385 -1.57593 0
M  V30 4521 C 415.093 0.718067 -1.94573 0
M  V30 4522 C 415.518 1.6734 -0.859005 0
M  V30 4523 O 414.876 1.80362 0.184147 0
M  V30 4524 C 414.924 1.43918 -3.30636 0
M  V30 4525 O 414.028 2.55299 -3.23876 0
M  V30 4526 H 413.369 0.192125 -0.635597 0
M  V30 4527 H 415.899 -0.0336708 -2.04572 0
M  V30 4528 H 415.909 1.80598 -3.65853 0
M  V30 4529 H 414.584 0.738619 -4.09289 0
M  V30 4530 H 413.161 2.21058 -3.00312 0
M  V30 4531 N 415.346 1.54954 0.287554 0
M  V30 4532 C 416.593 1.74873 1.02106 0
M  V30 4533 C 416.921 0.541829 1.86801 0
M  V30 4534 O 416.176 -0.475992 1.89823 0
M  V30 4535 C 416.475 2.99833 1.94512 0
M  V30 4536 C 416.141 4.33029 1.25686 0
M  V30 4537 C 414.803 4.69233 1.06649 0
M  V30 4538 C 417.155 5.15542 0.765913 0
M  V30 4539 C 414.483 5.85518 0.372222 0
M  V30 4540 C 416.835 6.32542 0.0853101 0
M  V30 4541 C 415.499 6.67398 -0.1169 0
M  V30 4542 H 414.769 0.639906 0.373632 0
M  V30 4543 H 417.416 1.89219 0.294665 0
M  V30 4544 H 415.721 2.80325 2.73725 0
M  V30 4545 H 417.418 3.1244 2.51361 0
M  V30 4546 H 414.008 4.04564 1.41512 0
M  V30 4547 H 418.192 4.88059 0.90066 0
M  V30 4548 H 413.448 6.11057 0.204695 0
M  V30 4549 H 417.622 6.95741 -0.302936 0
M  V30 4550 H 415.249 7.57357 -0.656859 0
M  V30 4551 N 416.824 -0.551391 1.4764 0
M  V30 4552 C 418.235 -1.13349 1.48354 0
M  V30 4553 C 418.586 -1.94709 0.241432 0
M  V30 4554 O 417.711 -2.06306 -0.653205 0
M  V30 4555 C 418.306 -2.0623 2.68802 0
M  V30 4556 C 416.865 -2.597 2.72457 0
M  V30 4557 C 416.012 -1.36201 2.41546 0
M  V30 4558 H 418.963 -0.337698 1.55065 0
M  V30 4559 H 418.984 -2.90196 2.46103 0
M  V30 4560 H 418.496 -1.46987 3.59188 0
M  V30 4561 H 416.597 -3.22724 1.86225 0
M  V30 4562 H 416.71 -3.00296 3.73308 0
M  V30 4563 H 415.074 -1.67068 1.9225 0
M  V30 4564 H 415.857 -0.787425 3.34147 0
M  V30 4565 N 418.302 -1.35869 -0.798587 0
M  V30 4566 C 419.53 -1.32722 -1.58722 0
M  V30 4567 C 419.945 0.0935631 -1.88568 0
M  V30 4568 O 419.302 1.04784 -1.49421 0
M  V30 4569 C 419.353 -2.13974 -2.91371 0
M  V30 4570 O 419.074 -3.50514 -2.62815 0
M  V30 4571 C 420.575 -2.18504 -3.85708 0
M  V30 4572 H 417.795 -0.45562 -0.492596 0
M  V30 4573 H 420.339 -1.78837 -0.991843 0
M  V30 4574 H 418.494 -1.71438 -3.47402 0
M  V30 4575 H 418.908 -3.92806 -3.47568 0
M  V30 4576 H 420.382 -2.79732 -4.75872 0
M  V30 4577 H 420.859 -1.18597 -4.22885 0
M  V30 4578 H 421.465 -2.61236 -3.35612 0
M  V30 4579 N 419.78 1.02168 -1.19998 0
M  V30 4580 C 421.057 1.72816 -0.916191 0
M  V30 4581 C 421.437 2.03081 0.576325 0
M  V30 4582 O 420.785 1.69122 1.53656 0
M  V30 4583 C 420.995 2.9997 -1.78378 0
M  V30 4584 C 422.343 3.73336 -2.02251 0
M  V30 4585 O 423.367 3.09914 -1.75589 0
M  V30 4586 O 422.226 4.87371 -2.47249 0
M  V30 4587 H 419.32 0.752924 -0.342103 0
M  V30 4588 H 421.866 1.08062 -1.30846 0
M  V30 4589 H 420.638 2.73888 -2.79466 0
M  V30 4590 H 420.261 3.72464 -1.39126 0
M  V30 4591 N 421.258 1.00505 1.21394 0
M  V30 4592 C 422.191 0.51032 2.22421 0
M  V30 4593 C 423.169 -0.436 1.56645 0
M  V30 4594 O 424.353 -0.358709 1.85055 0
M  V30 4595 C 421.48 -0.258733 3.3771 0
M  V30 4596 C 420.526 0.635395 4.2174 0
M  V30 4597 S 421.359 2.09783 4.92698 0
M  V30 4598 C 422.515 1.33862 6.11418 0
M  V30 4599 H 422.748 1.36637 2.64041 0
M  V30 4600 H 420.281 0.812991 1.31262 0
M  V30 4601 H 422.239 -0.696372 4.0455 0
M  V30 4602 H 420.9 -1.0902 2.94573 0
M  V30 4603 H 420.093 0.0430189 5.03982 0
M  V30 4604 H 419.695 1.01031 3.60095 0
M  V30 4605 H 421.987 0.612541 6.74725 0
M  V30 4606 H 422.93 2.13675 6.75092 0
M  V30 4607 H 423.338 0.846568 5.58116 0
M  V30 4608 N 422.737 -1.36956 0.779787 0
M  V30 4609 C 423.983 -2.00237 0.357324 0
M  V30 4610 C 424.338 -1.60787 -1.05666 0
M  V30 4611 O 423.631 -0.847836 -1.71821 0
M  V30 4612 C 423.825 -3.54585 0.447686 0
M  V30 4613 C 423.654 -4.09025 1.86891 0
M  V30 4614 C 422.424 -4.39612 2.49138 0
M  V30 4615 C 424.622 -4.29461 2.82963 0
M  V30 4616 N 422.604 -4.79816 3.82949 0
M  V30 4617 C 423.975 -4.72363 4.01588 0
M  V30 4618 C 426.03 -4.1161 2.80145 0
M  V30 4619 C 424.733 -4.99284 5.17791 0
M  V30 4620 C 426.759 -4.39672 3.95528 0
M  V30 4621 C 426.121 -4.82822 5.12896 0
M  V30 4622 H 422.22 -0.76148 0.177968 0
M  V30 4623 H 424.804 -1.6613 1.01533 0
M  V30 4624 H 422.975 -3.87982 -0.180184 0
M  V30 4625 H 424.707 -4.047 0.0023955 0
M  V30 4626 H 421.462 -4.28975 2.00693 0
M  V30 4627 H 421.886 -5.04216 4.51769 0
M  V30 4628 H 426.528 -3.77415 1.90572 0
M  V30 4629 H 424.246 -5.32365 6.07958 0
M  V30 4630 H 427.832 -4.27441 3.94697 0
M  V30 4631 H 426.712 -5.04118 6.00695 0
M  V30 4632 N 424.215 -0.530993 -1.48385 0
M  V30 4633 C 425.44 0.000729535 -2.074 0
M  V30 4634 C 425.865 1.27298 -1.3848 0
M  V30 4635 O 425.223 1.75599 -0.451081 0
M  V30 4636 C 425.271 0.206697 -3.60007 0
M  V30 4637 O 424.375 1.27514 -3.92191 0
M  V30 4638 H 423.716 -0.039583 -0.662819 0
M  V30 4639 H 426.246 -0.739194 -1.9078 0
M  V30 4640 H 426.256 0.42904 -4.05738 0
M  V30 4641 H 424.931 -0.722675 -4.09573 0
M  V30 4642 H 423.508 1.03537 -3.58238 0
M  V30 4643 N 425.693 1.55336 -0.266172 0
M  V30 4644 C 426.939 1.99692 0.353681 0
M  V30 4645 C 427.272 1.1543 1.56172 0
M  V30 4646 O 426.547 0.222218 1.93226 0
M  V30 4647 C 426.83 3.52316 0.74466 0
M  V30 4648 C 426.683 4.47337 -0.470101 0
M  V30 4649 C 428.002 4.10588 1.58447 0
M  V30 4650 H 425.121 0.725961 0.12708 0
M  V30 4651 H 427.763 1.86336 -0.371333 0
M  V30 4652 H 425.913 3.63829 1.36239 0
M  V30 4653 H 427.585 4.4778 -1.10864 0
M  V30 4654 H 425.828 4.19364 -1.10978 0
M  V30 4655 H 426.499 5.51788 -0.15291 0
M  V30 4656 H 428.975 4.02297 1.06286 0
M  V30 4657 H 427.851 5.17607 1.82686 0
M  V30 4658 H 428.112 3.60253 2.56262 0
M  V30 4659 N 427.171 -0.0066808 1.57599 0
M  V30 4660 C 428.419 -0.691552 1.899 0
M  V30 4661 C 428.74 -1.74682 0.866672 0
M  V30 4662 O 428.01 -1.95661 -0.0968189 0
M  V30 4663 H 426.59 -0.258416 0.700878 0
M  V30 4664 H 429.252 0.0326655 1.94873 0
M  V30 4665 H 428.348 -1.16702 2.8946 0
M  V30 4666 N 428.649 -1.55105 -0.279332 0
M  V30 4667 C 429.895 -1.75672 -1.01327 0
M  V30 4668 C 430.228 -0.552739 -1.86168 0
M  V30 4669 O 429.503 0.449827 -1.89227 0
M  V30 4670 C 429.786 -3.05825 -1.90114 0
M  V30 4671 C 429.639 -4.36565 -1.08309 0
M  V30 4672 C 430.958 -3.31975 -2.8893 0
M  V30 4673 H 428.077 -0.639149 -0.366957 0
M  V30 4674 H 430.719 -1.87833 -0.286154 0
M  V30 4675 H 428.869 -2.95588 -2.52111 0
M  V30 4676 H 430.541 -4.58751 -0.484314 0
M  V30 4677 H 428.784 -4.32076 -0.386362 0
M  V30 4678 H 429.455 -5.23946 -1.73737 0
M  V30 4679 H 431.931 -3.41963 -2.37067 0
M  V30 4680 H 430.807 -4.2432 -3.48201 0
M  V30 4681 H 431.068 -2.51309 -3.63725 0
M  V30 4682 N 430.127 0.543554 -1.4793 0
M  V30 4683 C 431.376 1.29649 -1.54512 0
M  V30 4684 C 431.689 1.94382 -0.217973 0
M  V30 4685 O 432.895 2.71017 -0.161908 0
M  V30 4686 C 431.351 2.35175 -2.72435 0
M  V30 4687 C 430.959 1.76572 -4.11736 0
M  V30 4688 C 432.703 3.11564 -2.8832 0
M  V30 4689 C 430.61 2.79958 -5.20939 0
M  V30 4690 H 429.54 0.487541 -0.57517 0
M  V30 4691 H 432.191 0.575708 -1.74235 0
M  V30 4692 H 430.573 3.10229 -2.46118 0
M  V30 4693 H 431.747 1.07799 -4.48013 0
M  V30 4694 H 430.062 1.12722 -4.00852 0
M  V30 4695 H 432.659 3.88794 -3.67074 0
M  V30 4696 H 433.002 3.66594 -1.97268 0
M  V30 4697 H 433.535 2.43623 -3.14472 0
M  V30 4698 H 430.274 2.29766 -6.13912 0
M  V30 4699 H 429.794 3.47101 -4.89164 0
M  V30 4700 H 431.473 3.43198 -5.48474 0
M  V30 4701 N 431.605 1.3629 0.791371 0
M  V30 4702 C 432.568 1.30309 1.88553 0
M  V30 4703 C 433.568 0.211204 1.59407 0
M  V30 4704 O 434.758 0.465865 1.67855 0
M  V30 4705 C 431.89 1.01956 3.25297 0
M  V30 4706 H 433.083 2.27614 1.95273 0
M  V30 4707 H 430.636 1.21035 0.988953 0
M  V30 4708 H 431.371 0.050998 3.2426 0
M  V30 4709 H 431.156 1.80968 3.4784 0
M  V30 4710 H 432.646 1.0037 4.05359 0
M  V30 4711 N 433.083 -1.0153 1.20538 0
M  V30 4712 C 434.313 -1.78487 1.04048 0
M  V30 4713 C 434.721 -1.84631 -0.413292 0
M  V30 4714 O 434.064 -1.29919 -1.29872 0
M  V30 4715 C 434.126 -3.24367 1.55003 0
M  V30 4716 C 433.79 -3.41827 3.0332 0
M  V30 4717 C 434.787 -3.30941 4.00966 0
M  V30 4718 C 432.472 -3.67602 3.42307 0
M  V30 4719 C 434.466 -3.45577 5.35589 0
M  V30 4720 C 432.153 -3.81881 4.77085 0
M  V30 4721 C 433.151 -3.70874 5.73534 0
M  V30 4722 O 432.839 -3.84714 7.05868 0
M  V30 4723 H 432.571 -0.568108 0.366373 0
M  V30 4724 H 435.125 -1.28677 1.60098 0
M  V30 4725 H 433.355 -3.75266 0.933397 0
M  V30 4726 H 435.044 -3.82963 1.34514 0
M  V30 4727 H 435.81 -3.10964 3.72191 0
M  V30 4728 H 431.689 -3.75256 2.67776 0
M  V30 4729 H 435.233 -3.36902 6.10854 0
M  V30 4730 H 431.13 -4.01359 5.0555 0
M  V30 4731 H 431.898 -4.01724 7.13134 0
M  V30 4732 N 434.561 -1.01147 -1.20859 0
M  V30 4733 C 435.494 -0.522108 -2.22147 0
M  V30 4734 C 436.472 0.427686 -1.56874 0
M  V30 4735 O 437.656 0.34889 -1.85243 0
M  V30 4736 C 434.783 0.240819 -3.37843 0
M  V30 4737 C 433.829 -0.657752 -4.21398 0
M  V30 4738 S 434.662 -2.12393 -4.91578 0
M  V30 4739 C 435.818 -1.37102 -6.10699 0
M  V30 4740 H 436.051 -1.38035 -2.63313 0
M  V30 4741 H 433.584 -0.819941 -1.30829 0
M  V30 4742 H 435.542 0.674908 -4.04914 0
M  V30 4743 H 434.203 1.07457 -2.95147 0
M  V30 4744 H 433.396 -0.0697456 -5.03952 0
M  V30 4745 H 432.998 -1.0294 -3.59555 0
M  V30 4746 H 435.29 -0.648315 -6.74391 0
M  V30 4747 H 436.233 -2.17252 -6.73949 0
M  V30 4748 H 436.641 -0.876154 -5.57659 0
M  V30 4749 N 436.039 1.36541 -0.78704 0
M  V30 4750 C 436.969 2.32659 -0.197992 0
M  V30 4751 C 437.95 1.56533 0.665697 0
M  V30 4752 O 439.135 1.84698 0.60001 0
M  V30 4753 C 436.265 3.40778 0.669901 0
M  V30 4754 C 435.219 4.27897 -0.0937039 0
M  V30 4755 C 434.545 5.27163 0.894629 0
M  V30 4756 C 435.845 5.06334 -1.28154 0
M  V30 4757 H 437.539 2.82171 -1.00099 0
M  V30 4758 H 435.085 1.35665 -0.482793 0
M  V30 4759 H 437.038 4.07008 1.09191 0
M  V30 4760 H 435.762 2.89827 1.50558 0
M  V30 4761 H 434.421 3.6322 -0.49666 0
M  V30 4762 H 434.069 4.72486 1.72527 0
M  V30 4763 H 433.769 5.86317 0.388149 0
M  V30 4764 H 435.293 5.96266 1.31525 0
M  V30 4765 H 436.707 5.65617 -0.93541 0
M  V30 4766 H 435.104 5.74888 -1.72115 0
M  V30 4767 H 436.174 4.38114 -2.07807 0
M  V30 4768 N 437.518 0.538854 1.48102 0
M  V30 4769 C 438.448 -0.207654 2.32575 0
M  V30 4770 C 439.429 -0.926559 1.4265 0
M  V30 4771 O 440.614 -0.91061 1.71527 0
M  V30 4772 C 437.744 -1.24957 3.24042 0
M  V30 4773 C 436.698 -0.648263 4.23062 0
M  V30 4774 C 436.024 -1.79348 5.03725 0
M  V30 4775 C 437.324 0.385897 5.20872 0
M  V30 4776 H 439.018 0.497534 2.95237 0
M  V30 4777 H 436.564 0.240715 1.41974 0
M  V30 4778 H 438.517 -1.77983 3.81969 0
M  V30 4779 H 437.241 -1.98446 2.59397 0
M  V30 4780 H 435.9 -0.139452 3.66335 0
M  V30 4781 H 435.548 -2.51696 4.35498 0
M  V30 4782 H 435.248 -1.39702 5.70751 0
M  V30 4783 H 436.772 -2.32735 5.64506 0
M  V30 4784 H 438.186 -0.057607 5.73271 0
M  V30 4785 H 436.583 0.700227 5.96001 0
M  V30 4786 H 437.653 1.28848 4.67468 0
M  V30 4787 N 438.996 -1.55193 0.274407 0
M  V30 4788 C 440.221 -2.04446 -0.348824 0
M  V30 4789 C 440.646 -1.15149 -1.48735 0
M  V30 4790 O 440.004 -0.149952 -1.80679 0
M  V30 4791 C 440.052 -3.51431 -0.808009 0
M  V30 4792 O 439.156 -3.65225 -1.91531 0
M  V30 4793 H 438.497 -0.66006 -0.0722276 0
M  V30 4794 H 441.027 -2.00481 0.408498 0
M  V30 4795 H 441.037 -3.92781 -1.10395 0
M  V30 4796 H 439.712 -4.15892 0.0249865 0
M  V30 4797 H 438.289 -3.35778 -1.62196 0
M  V30 4798 N 440.474 -0.00167713 -1.576 0
M  V30 4799 C 441.722 0.681471 -1.90264 0
M  V30 4800 C 442.043 1.7422 -0.875924 0
M  V30 4801 O 441.313 1.95709 0.0864412 0
M  V30 4802 H 439.893 0.254696 -0.702239 0
M  V30 4803 H 442.555 -0.0429996 -1.94853 0
M  V30 4804 H 441.651 1.15166 -2.90075 0
M  V30 4805 N 441.952 1.55251 0.271103 0
M  V30 4806 C 442.882 1.9127 1.33933 0
M  V30 4807 C 443.863 0.77478 1.5143 0
M  V30 4808 O 445.048 1.03307 1.64442 0
M  V30 4809 C 442.178 2.18627 2.69851 0
M  V30 4810 C 441.132 3.34442 2.67081 0
M  V30 4811 C 440.458 3.47284 4.06569 0
M  V30 4812 C 441.758 4.70784 2.26185 0
M  V30 4813 H 443.452 2.80744 1.04035 0
M  V30 4814 H 440.998 1.35077 0.499017 0
M  V30 4815 H 442.951 2.42413 3.44694 0
M  V30 4816 H 441.675 1.25955 3.01335 0
M  V30 4817 H 440.334 3.10627 1.94695 0
M  V30 4818 H 439.982 2.52074 4.35279 0
M  V30 4819 H 439.682 4.25152 4.0561 0
M  V30 4820 H 441.206 3.73363 4.83148 0
M  V30 4821 H 442.62 4.94102 2.90751 0
M  V30 4822 H 441.017 5.51582 2.36384 0
M  V30 4823 H 442.087 4.69478 1.21319 0
M  V30 4824 N 443.43 -0.535701 1.48216 0
M  V30 4825 C 444.655 -1.32149 1.59848 0
M  V30 4826 C 445.08 -1.86338 0.256842 0
M  V30 4827 O 444.438 -1.64107 -0.770632 0
M  V30 4828 C 444.486 -2.45224 2.64381 0
M  V30 4829 O 443.59 -3.48093 2.21144 0
M  V30 4830 H 442.931 -0.391634 0.536208 0
M  V30 4831 H 445.461 -0.645202 1.94161 0
M  V30 4832 H 445.471 -2.91491 2.85476 0
M  V30 4833 H 444.146 -2.05143 3.61786 0
M  V30 4834 H 442.723 -3.07984 2.10239 0
M  V30 4835 N 444.908 -1.36708 -0.784132 0
M  V30 4836 C 446.319 -1.27947 -1.35965 0
M  V30 4837 C 446.67 0.0784013 -1.96043 0
M  V30 4838 O 445.795 0.979989 -1.92938 0
M  V30 4839 C 446.39 -2.31689 -2.47195 0
M  V30 4840 C 444.949 -2.26601 -3.00548 0
M  V30 4841 C 444.096 -2.16184 -1.73666 0
M  V30 4842 H 447.047 -1.4751 -0.585358 0
M  V30 4843 H 447.068 -1.95638 -3.26352 0
M  V30 4844 H 446.58 -3.30506 -2.03439 0
M  V30 4845 H 444.681 -1.31268 -3.48711 0
M  V30 4846 H 444.794 -3.19508 -3.57004 0
M  V30 4847 H 443.158 -1.62524 -1.96107 0
M  V30 4848 H 443.941 -3.16896 -1.32031 0
M  V30 4849 N 446.386 1.0089 -1.21074 0
M  V30 4850 C 447.633 1.74607 -1.0256 0
M  V30 4851 C 447.961 1.89426 0.44136 0
M  V30 4852 O 447.216 1.42266 1.34384 0
M  V30 4853 C 447.515 3.16335 -1.66334 0
M  V30 4854 C 447.181 3.21474 -3.16173 0
M  V30 4855 C 445.843 3.22583 -3.57062 0
M  V30 4856 C 448.195 3.19025 -4.12156 0
M  V30 4857 C 445.523 3.18925 -4.92446 0
M  V30 4858 C 447.875 3.16909 -5.47496 0
M  V30 4859 C 446.539 3.16326 -5.87787 0
M  V30 4860 H 445.809 0.638933 -0.375294 0
M  V30 4861 H 448.456 1.18274 -1.50611 0
M  V30 4862 H 446.761 3.75876 -1.10566 0
M  V30 4863 H 448.458 3.72083 -1.49516 0
M  V30 4864 H 445.048 3.2135 -2.83605 0
M  V30 4865 H 449.232 3.17332 -3.81595 0
M  V30 4866 H 444.488 3.16809 -5.22917 0
M  V30 4867 H 448.662 3.13968 -6.21609 0
M  V30 4868 H 446.289 3.13246 -6.92662 0
M  V30 4869 N 447.864 1.01787 1.20321 0
M  V30 4870 C 448.794 0.609625 2.25401 0
M  V30 4871 C 449.775 -0.375951 1.65893 0
M  V30 4872 O 450.96 -0.261101 1.92437 0
M  V30 4873 C 448.09 -0.0515995 3.47262 0
M  V30 4874 C 447.044 0.855095 4.19371 0
M  V30 4875 C 446.37 0.0595757 5.34667 0
M  V30 4876 C 447.67 2.16374 4.75373 0
M  V30 4877 H 449.364 1.48803 2.59804 0
M  V30 4878 H 446.91 0.716934 1.24884 0
M  V30 4879 H 448.863 -0.348764 4.19954 0
M  V30 4880 H 447.587 -0.964726 3.12027 0
M  V30 4881 H 446.246 1.13628 3.48546 0
M  V30 4882 H 445.894 -0.85524 4.95676 0
M  V30 4883 H 445.594 0.663406 5.83843 0
M  V30 4884 H 447.118 -0.231105 6.10162 0
M  V30 4885 H 448.532 1.92885 5.39878 0
M  V30 4886 H 446.929 2.71853 5.34991 0
M  V30 4887 H 447.999 2.82589 3.94045 0
M  V30 4888 N 449.342 -1.36122 0.79427 0
M  V30 4889 C 450.59 -1.98718 0.368177 0
M  V30 4890 C 450.911 -1.63345 -1.06506 0
M  V30 4891 O 450.181 -0.909825 -1.73491 0
M  V30 4892 H 448.761 -0.735038 0.133146 0
M  V30 4893 H 451.423 -1.66239 1.01739 0
M  V30 4894 H 450.519 -3.08633 0.463923 0
M  V30 4895 N 450.82 -0.546701 -1.47814 0
M  V30 4896 C 452.097 0.0464413 -1.95545 0
M  V30 4897 C 452.477 1.4962 -1.48919 0
M  V30 4898 O 451.825 2.16752 -0.723232 0
M  V30 4899 C 452.035 -0.0881298 -3.48889 0
M  V30 4900 C 453.383 0.0626059 -4.24554 0
M  V30 4901 O 454.407 -0.0151555 -3.56197 0
M  V30 4902 O 453.266 0.228071 -5.46024 0
M  V30 4903 H 450.36 0.0700004 -0.824032 0
M  V30 4904 H 452.906 -0.612482 -1.58262 0
M  V30 4905 H 451.678 -1.09737 -3.75597 0
M  V30 4906 H 451.301 0.608886 -3.9291 0
M  V30 4907 N 452.299 1.55045 -0.282633 0
M  V30 4908 C 453.247 2.24254 0.617478 0
M  V30 4909 C 454.241 1.24215 1.15183 0
M  V30 4910 O 455.447 1.42123 1.10459 0
M  V30 4911 H 451.822 0.719801 0.217693 0
M  V30 4912 H 453.793 2.98398 0.0110076 0
M  V30 4913 C 452.542 2.98281 1.78672 0
M  V30 4914 H 451.865 3.75053 1.38475 0
M  V30 4915 H 453.305 3.50017 2.393 0
M  V30 4916 C 451.764 2.04184 2.67975 0
M  V30 4917 O 452.294 1.59792 3.6855 0
M  V30 4918 N 450.5 1.70526 2.35307 0
M  V30 4919 H 450.047 2.06821 1.53567 0
M  V30 4920 H 450.005 1.07839 2.95327 0
M  V30 4921 N 453.777 0.010035 1.57597 0
M  V30 4922 C 455.054 -0.710296 1.82248 0
M  V30 4923 C 455.434 -1.91426 0.889911 0
M  V30 4924 O 454.782 -2.28424 -0.0590292 0
M  V30 4925 C 454.992 -1.10655 3.30993 0
M  V30 4926 C 456.34 -1.50621 3.96987 0
M  V30 4927 O 457.364 -1.20007 3.35375 0
M  V30 4928 O 456.223 -2.07587 5.05539 0
M  V30 4929 H 453.317 -0.34673 0.750804 0
M  V30 4930 H 455.863 0.0362578 1.69661 0
M  V30 4931 H 454.635 -0.248826 3.90508 0
M  V30 4932 H 454.258 -1.91189 3.48615 0
M  V30 4933 N 455.255 -1.55392 -0.262866 0
M  V30 4934 C 456.218 -1.88181 -1.30846 0
M  V30 4935 C 457.218 -0.757079 -1.41862 0
M  V30 4936 O 458.408 -1.02519 -1.40838 0
M  V30 4937 C 455.54 -2.09609 -2.68844 0
M  V30 4938 H 456.733 -2.81659 -1.02997 0
M  V30 4939 H 454.286 -1.48039 -0.501414 0
M  V30 4940 H 455.021 -1.18547 -3.01856 0
M  V30 4941 H 454.806 -2.91508 -2.62231 0
M  V30 4942 H 456.296 -2.36215 -3.44372 0
M  V30 4943 N 456.733 0.527833 -1.48498 0
M  V30 4944 C 457.643 1.65907 -1.65867 0
M  V30 4945 C 458.659 1.6537 -0.541192 0
M  V30 4946 O 459.835 1.84282 -0.812534 0
M  V30 4947 C 456.9 3.02364 -1.69637 0
M  V30 4948 C 455.961 3.1374 -2.93028 0
M  V30 4949 C 455.194 4.43688 -2.96609 0
M  V30 4950 O 455.417 5.30913 -2.08538 0
M  V30 4951 O 454.351 4.59475 -3.88802 0
M  V30 4952 H 458.177 1.5419 -2.61647 0
M  V30 4953 H 455.762 0.701163 -1.31924 0
M  V30 4954 H 457.644 3.83515 -1.74625 0
M  V30 4955 H 456.319 3.14401 -0.770312 0
M  V30 4956 H 455.226 2.31877 -2.93571 0
M  V30 4957 H 456.559 3.06621 -3.85026 0
M  V30 4958 N 458.211 1.37122 0.776871 0
M  V30 4959 C 459.439 1.3523 1.5659 0
M  V30 4960 C 459.854 -0.0635518 1.88693 0
M  V30 4961 O 459.211 -1.02394 1.51069 0
M  V30 4962 C 459.262 2.18583 2.8793 0
M  V30 4963 O 458.983 3.5465 2.57206 0
M  V30 4964 C 460.484 2.24612 3.82183 0
M  V30 4965 H 457.704 0.4634 0.485285 0
M  V30 4966 H 460.248 1.80392 0.963266 0
M  V30 4967 H 458.403 1.76943 3.4463 0
M  V30 4968 H 458.817 3.98286 3.41275 0
M  V30 4969 H 460.291 2.87267 4.71361 0
M  V30 4970 H 460.768 1.25309 4.20944 0
M  V30 4971 H 461.374 2.66543 3.31414 0
M  V30 4972 N 459.689 -1.00246 1.21608 0
M  V30 4973 C 460.619 -2.10921 1.00172 0
M  V30 4974 C 461.6 -1.69938 -0.0741587 0
M  V30 4975 O 462.785 -1.94009 0.0861753 0
M  V30 4976 C 459.915 -3.42618 0.568355 0
M  V30 4977 C 458.869 -3.97407 1.58909 0
M  V30 4978 C 458.195 -5.25038 1.01187 0
M  V30 4979 C 459.495 -4.2918 2.97661 0
M  V30 4980 H 461.189 -2.29112 1.92739 0
M  V30 4981 H 458.735 -1.10101 0.928102 0
M  V30 4982 H 460.688 -4.19444 0.405555 0
M  V30 4983 H 459.412 -3.24227 -0.392961 0
M  V30 4984 H 458.071 -3.22703 1.73949 0
M  V30 4985 H 457.719 -5.02982 0.0421965 0
M  V30 4986 H 457.419 -5.62661 1.6937 0
M  V30 4987 H 458.943 -6.04507 0.860448 0
M  V30 4988 H 460.357 -4.96839 2.86049 0
M  V30 4989 H 458.754 -4.77952 3.6288 0
M  V30 4990 H 459.824 -3.3735 3.48315 0
M  V30 4991 N 461.167 -1.02423 -1.1978 0
M  V30 4992 C 462.115 -0.594474 -2.24875 0
M  V30 4993 C 463.109 0.370598 -1.65296 0
M  V30 4994 O 464.315 0.239684 -1.78397 0
M  V30 4995 H 460.69 -0.173961 -0.731602 0
M  V30 4996 H 462.661 -1.4916 -2.58445 0
M  V30 4997 C 461.41 0.0436512 -3.47673 0
M  V30 4998 H 460.733 -0.689963 -3.93801 0
M  V30 4999 H 462.173 0.307362 -4.22884 0
M  V30 5000 C 460.632 1.28881 -3.11274 0
M  V30 5001 O 461.162 2.38135 -3.23503 0
M  V30 5002 N 459.368 1.1758 -2.6575 0
M  V30 5003 H 458.915 0.286769 -2.55999 0
M  V30 5004 H 458.873 2.00988 -2.41767 0
M  V30 5005 N 462.645 1.35699 -0.801477 0
M  V30 5006 C 463.593 2.3177 -0.196317 0
M  V30 5007 C 464.587 1.56388 0.651081 0
M  V30 5008 O 465.793 1.71557 0.544815 0
M  V30 5009 H 462.168 0.750669 -0.0447189 0
M  V30 5010 H 464.139 2.8036 -1.02181 0
M  V30 5011 C 462.888 3.41671 0.644702 0
M  V30 5012 H 462.211 3.998 0.0019921 0
M  V30 5013 H 463.651 4.11184 1.0346 0
M  V30 5014 C 462.11 2.84271 1.80808 0
M  V30 5015 O 462.64 2.77408 2.9053 0
M  V30 5016 N 460.846 2.41391 1.61799 0
M  V30 5017 H 460.393 2.47173 0.725493 0
M  V30 5018 H 460.351 2.03334 2.39797 0
M  V30 5019 N 464.123 0.554532 1.47522 0
M  V30 5020 C 465.372 0.0273458 2.01681 0
M  V30 5021 C 465.685 -1.32962 1.43459 0
M  V30 5022 O 466.891 -1.94657 1.89265 0
M  V30 5023 C 465.347 -0.00159057 3.599 0
M  V30 5024 C 464.955 1.35197 4.27113 0
M  V30 5025 C 466.699 -0.476311 4.21819 0
M  V30 5026 C 464.606 1.28229 5.77331 0
M  V30 5027 H 463.536 0.00645269 0.753972 0
M  V30 5028 H 466.187 0.701985 1.69542 0
M  V30 5029 H 464.569 -0.741821 3.8899 0
M  V30 5030 H 465.743 2.1097 4.09668 0
M  V30 5031 H 464.058 1.76441 3.77171 0
M  V30 5032 H 466.655 -0.5468 5.31897 0
M  V30 5033 H 466.998 -1.4877 3.8881 0
M  V30 5034 H 467.531 0.20898 3.97251 0
M  V30 5035 H 464.27 2.26959 6.14955 0
M  V30 5036 H 463.79 0.566314 5.97121 0
M  V30 5037 H 465.469 0.983226 6.39485 0
M  V30 5038 N 465.601 -1.54893 0.290851 0
M  V30 5039 C 466.531 -2.26103 -0.583084 0
M  V30 5040 C 467.512 -1.25684 -1.14619 0
M  V30 5041 O 468.697 -1.54436 -1.17741 0
M  V30 5042 C 465.827 -2.99409 -1.75987 0
M  V30 5043 C 464.781 -4.0689 -1.32758 0
M  V30 5044 C 464.107 -4.67856 -2.58872 0
M  V30 5045 C 465.407 -5.20215 -0.46624 0
M  V30 5046 H 467.101 -2.99398 0.0108214 0
M  V30 5047 H 464.647 -1.43998 0.00664468 0
M  V30 5048 H 466.6 -3.47943 -2.37727 0
M  V30 5049 H 465.324 -2.23675 -2.37985 0
M  V30 5050 H 463.983 -3.59191 -0.733299 0
M  V30 5051 H 463.631 -3.88772 -3.19163 0
M  V30 5052 H 463.331 -5.40438 -2.30653 0
M  V30 5053 H 464.855 -5.19147 -3.21433 0
M  V30 5054 H 466.269 -5.64704 -0.989047 0
M  V30 5055 H 464.666 -5.99455 -0.27826 0
M  V30 5056 H 465.736 -4.82198 0.511173 0
M  V30 5057 N 467.08 -0.0183926 -1.57589 0
M  V30 5058 C 468.043 0.951986 -2.08494 0
M  V30 5059 C 469.043 1.26092 -0.997874 0
M  V30 5060 O 470.233 1.20304 -1.25987 0
M  V30 5061 C 467.365 2.27165 -2.54182 0
M  V30 5062 H 468.558 0.511307 -2.95509 0
M  V30 5063 H 466.111 0.229444 -1.54607 0
M  V30 5064 H 466.846 2.75884 -1.70465 0
M  V30 5065 H 466.631 2.06057 -3.33591 0
M  V30 5066 H 468.121 2.9674 -2.93828 0
M  V30 5067 N 468.558 1.5553 0.254621 0
M  V30 5068 C 469.798 1.7876 0.991179 0
M  V30 5069 C 470.162 0.586669 1.82817 0
M  V30 5070 O 471.363 0.697585 2.5959 0
M  V30 5071 C 469.634 3.06679 1.83529 0
M  V30 5072 S 471.193 3.511 2.632 0
M  V30 5073 H 468.011 0.627916 0.333531 0
M  V30 5074 H 470.613 1.93766 0.259778 0
M  V30 5075 H 469.317 3.92158 1.20996 0
M  V30 5076 H 468.848 2.94388 2.60958 0
M  V30 5077 H 470.863 3.11823 3.8598 0
M  V30 5078 N 470.036 -0.519951 1.48776 0
M  V30 5079 C 471.452 -0.849418 1.35119 0
M  V30 5080 C 471.652 -1.98077 0.36982 0
M  V30 5081 O 470.708 -2.51664 -0.205359 0
M  V30 5082 C 472.021 -1.20748 2.75391 0
M  V30 5083 C 473.569 -1.31679 2.83954 0
M  V30 5084 C 474.044 -1.70824 4.24951 0
M  V30 5085 N 475.535 -1.77908 4.27672 0
M  V30 5086 C 476.27 -2.09603 5.33717 0
M  V30 5087 N 475.766 -2.39652 6.5003 0
M  V30 5088 N 477.559 -2.10694 5.21119 0
M  V30 5089 H 469.71 0.226377 2.1119 0
M  V30 5090 H 471.973 0.0386519 0.947212 0
M  V30 5091 H 471.679 -0.449703 3.48813 0
M  V30 5092 H 471.553 -2.15534 3.09556 0
M  V30 5093 H 473.94 -2.06532 2.10781 0
M  V30 5094 H 474.021 -0.3499 2.53396 0
M  V30 5095 H 473.665 -0.965282 4.98643 0
M  V30 5096 H 473.595 -2.6858 4.52959 0
M  V30 5097 H 476.086 -1.56923 3.43779 0
M  V30 5098 H 476.399 -2.6297 7.26682 0
M  V30 5099 H 474.744 -2.37149 6.53288 0
M  V30 5100 H 477.935 -1.86682 4.29264 0
M  V30 5101 H 478.108 -2.35062 6.03863 0
M  V30 5102 N 471.514 -1.37532 -0.769588 0
M  V30 5103 C 472.76 -1.34063 -1.52966 0
M  V30 5104 C 473.115 0.0737942 -1.92258 0
M  V30 5105 O 472.408 1.03291 -1.61374 0
M  V30 5106 C 472.602 -2.21558 -2.8044 0
M  V30 5107 C 472.431 -3.71367 -2.53608 0
M  V30 5108 C 471.201 -4.40464 -2.47628 0
M  V30 5109 C 473.399 -4.64177 -2.21459 0
M  V30 5110 N 471.381 -5.758 -2.12902 0
M  V30 5111 C 472.752 -5.87907 -1.9689 0
M  V30 5112 C 474.807 -4.52541 -2.07633 0
M  V30 5113 C 473.51 -7.01304 -1.59892 0
M  V30 5114 C 475.536 -5.65825 -1.72034 0
M  V30 5115 C 474.898 -6.88606 -1.48327 0
M  V30 5116 H 470.997 -0.545856 -0.559969 0
M  V30 5117 H 473.581 -1.72773 -0.897634 0
M  V30 5118 H 471.752 -1.85061 -3.41478 0
M  V30 5119 H 473.484 -2.09332 -3.46356 0
M  V30 5120 H 470.239 -3.93491 -2.63556 0
M  V30 5121 H 470.663 -6.47328 -1.9823 0
M  V30 5122 H 475.305 -3.58183 -2.24643 0
M  V30 5123 H 473.023 -7.95594 -1.4162 0
M  V30 5124 H 476.609 -5.58793 -1.61991 0
M  V30 5125 H 475.489 -7.74779 -1.21189 0
M  V30 5126 N 472.992 0.995999 -1.22138 0
M  V30 5127 C 474.269 1.70834 -0.952642 0
M  V30 5128 C 474.649 2.04257 0.533119 0
M  V30 5129 O 473.997 1.72343 1.50034 0
M  V30 5130 C 474.207 2.96119 -1.84701 0
M  V30 5131 C 475.555 3.68962 -2.10124 0
M  V30 5132 O 476.579 3.0612 -1.82124 0
M  V30 5133 O 475.438 4.82017 -2.57531 0
M  V30 5134 H 472.532 0.745498 -0.357997 0
M  V30 5135 H 475.078 1.05262 -1.33109 0
M  V30 5136 H 473.85 2.67898 -2.85213 0
M  V30 5137 H 473.473 3.6943 -1.46995 0
M  V30 5138 N 474.47 1.03057 1.19235 0
M  V30 5139 C 475.4 0.633497 2.24742 0
M  V30 5140 C 476.381 -0.358335 1.66283 0
M  V30 5141 O 477.566 -0.240676 1.92703 0
M  V30 5142 C 474.696 -0.0147648 3.47297 0
M  V30 5143 C 473.65 0.899527 4.18441 0
M  V30 5144 C 472.976 0.116281 5.34574 0
M  V30 5145 C 474.276 2.21404 4.73051 0
M  V30 5146 H 475.97 1.5155 2.58211 0
M  V30 5147 H 473.516 0.73014 1.24117 0
M  V30 5148 H 475.469 -0.304202 4.20301 0
M  V30 5149 H 474.193 -0.931577 3.13032 0
M  V30 5150 H 472.852 1.17319 3.47321 0
M  V30 5151 H 472.5 -0.802619 4.96555 0
M  V30 5152 H 472.2 0.725293 5.83107 0
M  V30 5153 H 473.724 -0.166376 6.10373 0
M  V30 5154 H 475.138 1.98601 5.37802 0
M  V30 5155 H 473.535 2.77512 5.32078 0
M  V30 5156 H 474.605 2.86752 3.91026 0
M  V30 5157 N 475.948 -1.35272 0.808662 0
M  V30 5158 C 476.858 -2.33546 0.222079 0
M  V30 5159 C 477.874 -1.6196 -0.636011 0
M  V30 5160 O 479.05 -1.93822 -0.547274 0
M  V30 5161 C 476.115 -3.41148 -0.61795 0
M  V30 5162 C 475.176 -4.28507 0.260875 0
M  V30 5163 C 474.409 -5.3097 -0.539156 0
M  V30 5164 O 474.632 -5.42123 -1.77367 0
M  V30 5165 O 473.566 -6.01858 0.0710526 0
M  V30 5166 H 477.392 -2.85515 1.03512 0
M  V30 5167 H 474.977 -1.38079 0.570495 0
M  V30 5168 H 476.859 -4.06889 -1.09634 0
M  V30 5169 H 475.534 -2.91447 -1.40855 0
M  V30 5170 H 474.441 -3.6574 0.786451 0
M  V30 5171 H 475.774 -4.81611 1.01547 0
M  V30 5172 N 477.426 -0.562348 -1.47226 0
M  V30 5173 C 478.703 0.0256985 -1.95583 0
M  V30 5174 C 479.083 1.48032 -1.50498 0
M  V30 5175 O 478.431 2.15973 -0.746181 0
M  V30 5176 C 478.641 -0.125129 -3.48776 0
M  V30 5177 C 479.989 0.0175728 -4.24596 0
M  V30 5178 O 481.013 -0.0529341 -3.56161 0
M  V30 5179 O 479.872 0.170145 -5.46235 0
M  V30 5180 H 476.966 0.0612565 -0.824728 0
M  V30 5181 H 479.512 -0.629233 -1.57603 0
M  V30 5182 H 478.284 -1.13715 -3.74412 0
M  V30 5183 H 477.907 0.567178 -3.93534 0
M  V30 5184 N 478.904 1.54736 -0.299062 0
M  V30 5185 C 479.814 2.27127 0.587413 0
M  V30 5186 C 480.83 1.30575 1.15005 0
M  V30 5187 O 482.006 1.63554 1.17525 0
M  V30 5188 C 479.071 2.99645 1.74395 0
M  V30 5189 C 478.132 4.11731 1.21559 0
M  V30 5190 C 477.365 4.80781 2.317 0
M  V30 5191 O 477.588 4.4918 3.51558 0
M  V30 5192 O 476.522 5.68226 1.98501 0
M  V30 5193 H 480.348 3.037 0.000250109 0
M  V30 5194 H 477.933 1.49256 -0.0655919 0
M  V30 5195 H 479.815 3.45138 2.4178 0
M  V30 5196 H 478.49 2.25969 2.31775 0
M  V30 5197 H 477.397 3.70641 0.507514 0
M  V30 5198 H 478.73 4.87379 0.687233 0
M  V30 5199 N 480.382 0.0267497 1.57577 0
M  V30 5200 C 481.292 -0.971633 2.13533 0
M  V30 5201 C 482.308 -1.35868 1.08701 0
M  V30 5202 O 483.484 -1.44058 1.40746 0
M  V30 5203 C 480.549 -2.23622 2.64941 0
M  V30 5204 C 479.61 -1.90982 3.8448 0
M  V30 5205 C 478.843 -3.11411 4.33427 0
M  V30 5206 O 479.066 -4.23992 3.81558 0
M  V30 5207 O 478 -2.93848 5.25297 0
M  V30 5208 H 481.826 -0.525853 2.99113 0
M  V30 5209 H 479.411 -0.193712 1.48139 0
M  V30 5210 H 481.293 -2.97864 2.98086 0
M  V30 5211 H 479.968 -2.67386 1.82446 0
M  V30 5212 H 478.875 -1.14132 3.56265 0
M  V30 5213 H 480.208 -1.52036 4.6813 0
M  V30 5214 N 481.861 -1.55662 -0.24637 0
M  V30 5215 C 483.108 -1.77519 -0.974335 0
M  V30 5216 C 483.436 -0.591165 -1.85298 0
M  V30 5217 O 482.691 0.425497 -1.91018 0
M  V30 5218 C 482.99 -3.04885 -1.86494 0
M  V30 5219 C 482.656 -4.36209 -1.14161 0
M  V30 5220 C 481.318 -4.71896 -0.941701 0
M  V30 5221 C 483.67 -5.17391 -0.628957 0
M  V30 5222 C 480.998 -5.86299 -0.216852 0
M  V30 5223 C 483.35 -6.32546 0.0824273 0
M  V30 5224 C 482.014 -6.66853 0.293807 0
M  V30 5225 H 481.284 -0.649588 -0.356535 0
M  V30 5226 H 483.931 -1.89934 -0.244394 0
M  V30 5227 H 482.236 -2.87484 -2.66196 0
M  V30 5228 H 483.933 -3.18994 -2.42989 0
M  V30 5229 H 480.523 -4.08174 -1.30736 0
M  V30 5230 H 484.707 -4.90276 -0.770943 0
M  V30 5231 H 479.963 -6.11385 -0.0426124 0
M  V30 5232 H 484.137 -6.94693 0.487292 0
M  V30 5233 H 481.764 -7.55349 0.857428 0
M  V30 5234 N 483.339 0.512053 -1.4905 0
M  V30 5235 C 484.271 1.63121 -1.6101 0
M  V30 5236 C 485.284 1.55145 -0.493352 0
M  V30 5237 O 486.473 1.61278 -0.764955 0
M  V30 5238 C 483.573 3.01863 -1.54052 0
M  V30 5239 C 482.746 3.35138 -2.81072 0
M  V30 5240 C 481.805 4.5324 -2.67319 0
M  V30 5241 O 480.831 4.55571 -3.41238 0
M  V30 5242 N 482.033 5.52495 -1.78127 0
M  V30 5243 H 484.798 1.53292 -2.5753 0
M  V30 5244 H 482.359 0.699706 -1.45999 0
M  V30 5245 H 484.351 3.78774 -1.42521 0
M  V30 5246 H 482.921 3.05675 -0.654345 0
M  V30 5247 H 482.141 2.4723 -3.07036 0
M  V30 5248 H 483.429 3.54162 -3.65304 0
M  V30 5249 H 482.827 5.53403 -1.17308 0
M  V30 5250 H 481.384 6.28553 -1.72525 0
M  V30 5251 N 484.817 1.37938 0.762283 0
M  V30 5252 C 486.094 1.24196 1.51112 0
M  V30 5253 C 486.474 -0.160409 2.1049 0
M  V30 5254 O 485.822 -1.16904 1.96331 0
M  V30 5255 C 486.032 2.34537 2.58445 0
M  V30 5256 C 487.38 2.7254 3.25588 0
M  V30 5257 O 488.404 2.33783 2.68745 0
M  V30 5258 O 487.263 3.39343 4.28379 0
M  V30 5259 H 484.357 0.485175 0.669727 0
M  V30 5260 H 486.903 1.49743 0.798438 0
M  V30 5261 H 485.675 3.28406 2.12756 0
M  V30 5262 H 485.298 2.10505 3.37303 0
M  V30 5263 N 486.295 -0.989507 1.22664 0
M  V30 5264 C 487.544 -1.72375 1.04737 0
M  V30 5265 C 487.857 -1.91096 -0.417316 0
M  V30 5266 O 489.063 -2.6188 -0.716334 0
M  V30 5267 C 487.519 -3.10161 1.82561 0
M  V30 5268 C 487.127 -2.99358 3.333 0
M  V30 5269 C 488.871 -3.87607 1.73093 0
M  V30 5270 C 486.778 -4.32319 4.03552 0
M  V30 5271 H 485.708 -0.646326 0.388302 0
M  V30 5272 H 488.359 -1.10437 1.46546 0
M  V30 5273 H 486.741 -3.728 1.33552 0
M  V30 5274 H 487.915 -2.45863 3.89728 0
M  V30 5275 H 486.23 -2.35392 3.43481 0
M  V30 5276 H 488.827 -4.86025 2.22899 0
M  V30 5277 H 489.17 -4.10509 0.691976 0
M  V30 5278 H 489.703 -3.31652 2.19663 0
M  V30 5279 H 486.442 -4.14616 5.07714 0
M  V30 5280 H 485.962 -4.85714 3.51911 0
M  V30 5281 H 487.641 -5.01051 4.09337 0
M  V30 5282 N 487.773 -1.03688 -1.18687 0
M  V30 5283 C 488.998 -0.757819 -1.93059 0
M  V30 5284 C 489.423 0.678353 -1.75442 0
M  V30 5285 O 488.781 1.46938 -1.06203 0
M  V30 5286 C 488.829 -1.12423 -3.42627 0
M  V30 5287 O 487.933 -0.247505 -4.11657 0
M  V30 5288 H 487.274 -0.279245 -0.602427 0
M  V30 5289 H 489.804 -1.3857 -1.5053 0
M  V30 5290 H 489.814 -1.08454 -3.93322 0
M  V30 5291 H 488.489 -2.17049 -3.54771 0
M  V30 5292 H 487.066 -0.34649 -3.71287 0
M  V30 5293 N 489.251 1.34841 -0.815825 0
M  V30 5294 C 490.161 2.33425 -0.234462 0
M  V30 5295 C 491.177 1.62295 0.627413 0
M  V30 5296 O 492.353 1.94109 0.536987 0
M  V30 5297 C 489.418 3.41471 0.599849 0
M  V30 5298 C 488.479 4.28362 -0.283596 0
M  V30 5299 C 487.712 5.31248 0.51099 0
M  V30 5300 O 487.935 5.43056 1.7449 0
M  V30 5301 O 486.869 6.01812 -0.10297 0
M  V30 5302 H 490.695 2.84962 -1.05024 0
M  V30 5303 H 488.28 1.37774 -0.577809 0
M  V30 5304 H 490.162 4.07464 1.07475 0
M  V30 5305 H 488.837 2.9219 1.39308 0
M  V30 5306 H 487.744 3.65318 -0.805836 0
M  V30 5307 H 489.077 4.81066 -1.041 0
M  V30 5308 N 490.729 0.570148 1.46925 0
M  V30 5309 C 491.639 -0.173061 2.33961 0
M  V30 5310 C 492.655 -0.898825 1.48987 0
M  V30 5311 O 493.831 -0.864825 1.81887 0
M  V30 5312 C 490.896 -1.18177 3.25937 0
M  V30 5313 C 489.957 -0.462041 4.26806 0
M  V30 5314 C 489.19 -1.4227 5.14388 0
M  V30 5315 O 489.413 -2.65842 5.04662 0
M  V30 5316 O 488.347 -0.940127 5.94513 0
M  V30 5317 H 492.173 0.541216 2.98839 0
M  V30 5318 H 489.758 0.330647 1.45695 0
M  V30 5319 H 491.64 -1.76372 3.82715 0
M  V30 5320 H 490.315 -1.87774 2.63671 0
M  V30 5321 H 489.222 0.161429 3.73752 0
M  V30 5322 H 490.555 0.192719 4.91823 0
M  V30 5323 N 492.207 -1.54576 0.307264 0
M  V30 5324 C 493.17 -2.22423 -0.553224 0
M  V30 5325 C 494.17 -1.21231 -1.05639 0
M  V30 5326 O 495.36 -1.45923 -0.951419 0
M  V30 5327 C 492.492 -2.91552 -1.76664 0
M  V30 5328 H 493.685 -2.99874 0.0396484 0
M  V30 5329 H 491.238 -1.56192 0.0581629 0
M  V30 5330 H 491.973 -2.18196 -2.39918 0
M  V30 5331 H 491.758 -3.65738 -1.41343 0
M  V30 5332 H 493.248 -3.43292 -2.37783 0
M  V30 5333 N 493.685 -0.035106 -1.57561 0
M  V30 5334 C 494.632 0.94474 -2.10578 0
M  V30 5335 C 495.602 1.3192 -1.00927 0
M  V30 5336 O 496.787 1.41147 -1.28382 0
M  V30 5337 C 493.927 2.21982 -2.64231 0
M  V30 5338 C 493.04 1.90128 -3.87911 0
M  V30 5339 C 492.175 3.11975 -4.29936 0
M  V30 5340 C 491.214 2.75968 -5.46359 0
M  V30 5341 N 490.351 3.90459 -5.83512 0
M  V30 5342 H 495.191 0.485717 -2.94015 0
M  V30 5343 H 492.728 0.228143 -1.4532 0
M  V30 5344 H 494.686 2.96572 -2.9343 0
M  V30 5345 H 493.316 2.6549 -1.83616 0
M  V30 5346 H 492.368 1.05755 -3.65404 0
M  V30 5347 H 493.68 1.59613 -4.72573 0
M  V30 5348 H 492.834 3.9488 -4.60603 0
M  V30 5349 H 491.573 3.45657 -3.44053 0
M  V30 5350 H 490.578 1.91478 -5.1538 0
M  V30 5351 H 491.803 2.43497 -6.33945 0
M  V30 5352 H 489.749 4.23971 -5.00584 0
M  V30 5353 H 489.666 3.63588 -6.62827 0
M  V30 5354 H 490.934 4.7405 -6.18787 0
M  V30 5355 N 495.163 1.55791 0.238111 0
M  V30 5356 C 496.073 1.94196 1.31625 0
M  V30 5357 C 497.089 0.843545 1.52185 0
M  V30 5358 O 498.265 1.1457 1.65637 0
M  V30 5359 C 495.33 2.2365 2.64918 0
M  V30 5360 C 494.391 3.46971 2.52804 0
M  V30 5361 C 493.624 3.7501 3.79741 0
M  V30 5362 O 493.847 3.04982 4.82019 0
M  V30 5363 O 492.781 4.68525 3.77846 0
M  V30 5364 H 496.607 2.86044 1.02043 0
M  V30 5365 H 494.192 1.42786 0.439603 0
M  V30 5366 H 496.074 2.43863 3.4367 0
M  V30 5367 H 494.749 1.34979 2.94215 0
M  V30 5368 H 493.656 3.32055 1.72309 0
M  V30 5369 H 494.989 4.35971 2.28451 0
M  V30 5370 N 496.642 -0.504142 1.49319 0
M  V30 5371 C 497.889 -1.25846 1.58647 0
M  V30 5372 C 498.217 -1.92592 0.27177 0
M  V30 5373 O 497.472 -1.81167 -0.74007 0
M  V30 5374 C 497.771 -2.35021 2.69258 0
M  V30 5375 C 497.437 -1.85755 4.1086 0
M  V30 5376 C 496.099 -1.72038 4.49395 0
M  V30 5377 C 498.451 -1.48844 4.99495 0
M  V30 5378 C 495.779 -1.19783 5.74342 0
M  V30 5379 C 498.131 -0.980422 6.24956 0
M  V30 5380 C 496.795 -0.829622 6.62324 0
M  V30 5381 H 496.065 -0.460505 0.580531 0
M  V30 5382 H 498.712 -0.559716 1.83138 0
M  V30 5383 H 497.017 -3.10672 2.38726 0
M  V30 5384 H 498.714 -2.93083 2.73685 0
M  V30 5385 H 495.304 -1.9739 3.80441 0
M  V30 5386 H 499.488 -1.5829 4.70381 0
M  V30 5387 H 494.744 -1.06817 6.01997 0
M  V30 5388 H 498.918 -0.685608 6.93017 0
M  V30 5389 H 496.545 -0.42253 7.59025 0
M  V30 5390 N 498.12 -1.38341 -0.754957 0
M  V30 5391 C 499.369 -1.33791 -1.5094 0
M  V30 5392 C 499.682 0.0699267 -1.95475 0
M  V30 5393 O 500.888 0.237956 -2.70455 0
M  V30 5394 C 499.344 -2.34934 -2.72643 0
M  V30 5395 C 498.952 -3.81332 -2.35138 0
M  V30 5396 C 500.696 -2.39425 -3.50536 0
M  V30 5397 C 498.603 -4.74164 -3.53444 0
M  V30 5398 H 497.533 -0.497314 -0.566741 0
M  V30 5399 H 500.184 -1.63888 -0.825403 0
M  V30 5400 H 498.566 -1.97878 -3.43017 0
M  V30 5401 H 499.74 -4.27319 -1.7244 0
M  V30 5402 H 498.055 -3.79946 -1.70382 0
M  V30 5403 H 500.652 -3.0598 -4.38498 0
M  V30 5404 H 500.995 -1.41278 -3.91594 0
M  V30 5405 H 501.528 -2.75274 -2.87174 0
M  V30 5406 H 498.267 -5.73501 -3.17453 0
M  V30 5407 H 497.787 -4.3287 -4.15191 0
M  V30 5408 H 499.466 -4.92111 -4.20043 0
M  V30 5409 N 499.598 0.982988 -1.23187 0
M  V30 5410 C 500.823 1.76455 -1.08988 0
M  V30 5411 C 501.248 1.84726 0.354691 0
M  V30 5412 O 500.606 1.30699 1.25649 0
M  V30 5413 C 500.654 3.17094 -1.71708 0
M  V30 5414 O 499.758 4.00648 -0.977477 0
M  V30 5415 H 499.099 0.542988 -0.382177 0
M  V30 5416 H 501.629 1.23413 -1.63188 0
M  V30 5417 H 501.639 3.67684 -1.76841 0
M  V30 5418 H 500.314 3.10389 -2.76823 0
M  V30 5419 H 498.891 3.59161 -1.0029 0
M  V30 5420 N 501.076 1.04316 1.18135 0
M  V30 5421 C 502.023 0.636398 2.21853 0
M  V30 5422 C 502.993 -0.357039 1.62217 0
M  V30 5423 O 504.178 -0.250453 1.89149 0
M  V30 5424 C 501.318 0.00812779 3.45099 0
M  V30 5425 C 500.431 1.04933 4.19062 0
M  V30 5426 C 499.566 0.389313 5.29771 0
M  V30 5427 C 498.605 1.41544 5.9551 0
M  V30 5428 N 497.742 0.78021 6.97751 0
M  V30 5429 H 502.582 1.52536 2.56002 0
M  V30 5430 H 500.119 0.76304 1.25762 0
M  V30 5431 H 502.077 -0.373497 4.15525 0
M  V30 5432 H 500.707 -0.844336 3.11562 0
M  V30 5433 H 499.759 1.54888 3.47439 0
M  V30 5434 H 501.071 1.82862 4.64072 0
M  V30 5435 H 500.225 -0.0463805 6.06682 0
M  V30 5436 H 498.964 -0.422038 4.8587 0
M  V30 5437 H 497.969 1.86124 5.17337 0
M  V30 5438 H 499.194 2.22854 6.41493 0
M  V30 5439 H 497.14 -0.0107899 6.55999 0
M  V30 5440 H 497.057 1.49716 7.41027 0
M  V30 5441 H 498.325 0.368996 7.78626 0
M  V30 5442 N 502.554 -1.34406 0.822964 0
M  V30 5443 C 503.484 -2.32052 0.259608 0
M  V30 5444 C 504.465 -1.58243 -0.623961 0
M  V30 5445 O 505.65 -1.86224 -0.55083 0
M  V30 5446 C 502.78 -3.42434 -0.579314 0
M  V30 5447 C 501.734 -4.27499 0.20712 0
M  V30 5448 C 501.06 -5.29349 -0.754547 0
M  V30 5449 C 502.36 -5.02758 1.41533 0
M  V30 5450 H 504.054 -2.79418 1.07545 0
M  V30 5451 H 501.6 -1.34338 0.518593 0
M  V30 5452 H 503.553 -4.0976 -0.983612 0
M  V30 5453 H 502.277 -2.93717 -1.4282 0
M  V30 5454 H 500.936 -3.61776 0.592787 0
M  V30 5455 H 500.584 -4.76895 -1.59939 0
M  V30 5456 H 500.284 -5.8714 -0.232561 0
M  V30 5457 H 501.808 -5.99544 -1.1567 0
M  V30 5458 H 503.222 -5.62938 1.08504 0
M  V30 5459 H 501.619 -5.70123 1.87296 0
M  V30 5460 H 502.689 -4.32451 2.1935 0
M  V30 5461 N 504.032 -0.577932 -1.46621 0
M  V30 5462 C 504.962 0.145917 -2.33044 0
M  V30 5463 C 505.943 0.888412 -1.45056 0
M  V30 5464 O 507.128 0.864812 -1.73881 0
M  V30 5465 C 504.258 1.16322 -3.27241 0
M  V30 5466 C 503.212 0.535868 -4.24632 0
M  V30 5467 C 502.538 1.65929 -5.08303 0
M  V30 5468 C 503.838 -0.523861 -5.19666 0
M  V30 5469 H 505.532 -0.575636 -2.93814 0
M  V30 5470 H 503.078 -0.278272 -1.41286 0
M  V30 5471 H 505.031 1.67793 -3.86553 0
M  V30 5472 H 503.755 1.91498 -2.64567 0
M  V30 5473 H 502.414 0.0422759 -3.66576 0
M  V30 5474 H 502.062 2.40061 -4.42018 0
M  V30 5475 H 501.762 1.2452 -5.74255 0
M  V30 5476 H 503.286 2.17686 -5.70478 0
M  V30 5477 H 504.7 -0.0944059 -5.73222 0
M  V30 5478 H 503.097 -0.858 -5.93935 0
M  V30 5479 H 504.167 -1.41197 -4.63887 0
M  V30 5480 N 505.51 1.54411 -0.315457 0
M  V30 5481 C 506.759 1.99599 0.290395 0
M  V30 5482 C 507.072 1.20746 1.53882 0
M  V30 5483 O 508.278 1.56272 2.22017 0
M  V30 5484 C 506.734 3.5539 0.56797 0
M  V30 5485 C 506.342 4.43068 -0.662945 0
M  V30 5486 C 508.086 4.09067 1.13422 0
M  V30 5487 C 505.993 5.90317 -0.357722 0
M  V30 5488 H 504.923 0.745592 0.112286 0
M  V30 5489 H 507.574 1.78477 -0.426418 0
M  V30 5490 H 505.956 3.72468 1.34476 0
M  V30 5491 H 507.13 4.37765 -1.43869 0
M  V30 5492 H 505.445 4.00238 -1.14884 0
M  V30 5493 H 508.042 5.16663 1.37707 0
M  V30 5494 H 508.385 3.60552 2.08106 0
M  V30 5495 H 508.918 3.95589 0.418805 0
M  V30 5496 H 505.657 6.4301 -1.27351 0
M  V30 5497 H 505.177 5.98592 0.380472 0
M  V30 5498 H 506.856 6.4699 0.0354284 0
M  V30 5499 N 506.988 0.0434614 1.5754 0
M  V30 5500 C 507.935 -0.93356 2.11077 0
M  V30 5501 C 508.905 -1.31383 1.01626 0
M  V30 5502 O 510.09 -1.40465 1.29129 0
M  V30 5503 C 507.23 -2.20578 2.65404 0
M  V30 5504 C 506.343 -1.88068 3.88914 0
M  V30 5505 C 505.478 -3.09691 4.31584 0
M  V30 5506 C 504.517 -2.73067 5.47815 0
M  V30 5507 N 503.654 -3.87359 5.85574 0
M  V30 5508 H 508.494 -0.470118 2.94268 0
M  V30 5509 H 506.031 -0.220434 1.45439 0
M  V30 5510 H 507.989 -2.95011 2.94999 0
M  V30 5511 H 506.619 -2.64513 1.85021 0
M  V30 5512 H 505.671 -1.03816 3.6596 0
M  V30 5513 H 506.983 -1.57104 4.73413 0
M  V30 5514 H 506.137 -3.92431 4.62691 0
M  V30 5515 H 504.876 -3.43827 3.45882 0
M  V30 5516 H 503.881 -1.88742 5.16388 0
M  V30 5517 H 505.106 -2.40131 6.35227 0
M  V30 5518 H 503.052 -4.21311 5.02825 0
M  V30 5519 H 502.969 -3.60068 6.64746 0
M  V30 5520 H 504.237 -4.70761 6.21292 0
M  V30 5521 N 508.466 -1.55915 -0.229846 0
M  V30 5522 C 509.376 -1.94891 -1.30593 0
M  V30 5523 C 510.392 -0.851604 -1.51736 0
M  V30 5524 O 511.568 -1.15447 -1.65027 0
M  V30 5525 C 508.633 -2.25052 -2.63728 0
M  V30 5526 C 507.694 -3.48306 -2.5096 0
M  V30 5527 C 506.927 -3.77019 -3.77747 0
M  V30 5528 O 507.15 -3.07534 -4.80395 0
M  V30 5529 O 506.084 -4.70523 -3.75356 0
M  V30 5530 H 509.91 -2.86581 -1.00525 0
M  V30 5531 H 507.495 -1.43017 -0.432025 0
M  V30 5532 H 509.377 -2.45682 -3.42372 0
M  V30 5533 H 508.052 -1.36538 -2.93495 0
M  V30 5534 H 506.959 -3.32964 -1.70546 0
M  V30 5535 H 508.292 -4.37177 -2.26136 0
M  V30 5536 N 509.944 0.496216 -1.49584 0
M  V30 5537 C 510.891 1.59722 -1.66606 0
M  V30 5538 C 511.861 1.58158 -0.507477 0
M  V30 5539 O 513.046 1.76072 -0.735076 0
M  V30 5540 C 510.186 2.97844 -1.74308 0
M  V30 5541 C 509.299 3.09388 -3.01502 0
M  V30 5542 C 508.434 4.38271 -3.00153 0
M  V30 5543 C 507.473 4.43466 -4.21906 0
M  V30 5544 N 506.61 5.63784 -4.1844 0
M  V30 5545 H 511.45 1.44515 -2.60613 0
M  V30 5546 H 508.987 0.703048 -1.29212 0
M  V30 5547 H 510.945 3.77907 -1.76754 0
M  V30 5548 H 509.575 3.11743 -0.837619 0
M  V30 5549 H 508.627 2.22357 -3.08645 0
M  V30 5550 H 509.939 3.09085 -3.91494 0
M  V30 5551 H 509.093 5.2666 -3.01188 0
M  V30 5552 H 507.832 4.41146 -2.07947 0
M  V30 5553 H 506.837 3.53478 -4.21109 0
M  V30 5554 H 508.062 4.42303 -5.1531 0
M  V30 5555 H 506.008 5.67491 -3.29074 0
M  V30 5556 H 505.925 5.65118 -5.02173 0
M  V30 5557 H 507.193 6.54367 -4.23585 0
M  V30 5558 N 511.423 1.38739 0.74761 0
M  V30 5559 C 512.648 1.38702 1.54197 0
M  V30 5560 C 513.073 -0.019664 1.8809 0
M  V30 5561 O 512.431 -1.00333 1.51006 0
M  V30 5562 C 512.479 2.25492 2.814 0
M  V30 5563 O 511.583 1.67613 3.76802 0
M  V30 5564 H 510.924 0.472863 0.466151 0
M  V30 5565 H 513.454 1.82577 0.923413 0
M  V30 5566 H 513.464 2.39561 3.30264 0
M  V30 5567 H 512.139 3.27727 2.56062 0
M  V30 5568 H 510.716 1.62718 3.35526 0
M  V30 5569 N 512.901 -0.976442 1.23707 0
M  V30 5570 C 514.147 -1.72158 1.08319 0
M  V30 5571 C 514.502 -1.88701 -0.375445 0
M  V30 5572 O 513.795 -1.43107 -1.274 0
M  V30 5573 C 513.989 -3.11814 1.74662 0
M  V30 5574 C 513.818 -3.08892 3.26827 0
M  V30 5575 C 512.588 -3.13861 3.96004 0
M  V30 5576 C 514.786 -2.9175 4.2354 0
M  V30 5577 N 512.768 -3.00867 5.35119 0
M  V30 5578 C 514.139 -2.8696 5.49595 0
M  V30 5579 C 516.194 -2.76265 4.14225 0
M  V30 5580 C 514.897 -2.68268 6.67401 0
M  V30 5581 C 516.923 -2.58938 5.317 0
M  V30 5582 C 516.285 -2.54849 6.56682 0
M  V30 5583 H 512.384 -0.638896 0.450927 0
M  V30 5584 H 514.968 -1.15835 1.56494 0
M  V30 5585 H 513.139 -3.66347 1.29014 0
M  V30 5586 H 514.871 -3.74984 1.52215 0
M  V30 5587 H 511.626 -3.22198 3.4711 0
M  V30 5588 H 512.05 -2.97634 6.08065 0
M  V30 5589 H 516.692 -2.78213 3.18366 0
M  V30 5590 H 514.41 -2.65063 7.63392 0
M  V30 5591 H 517.996 -2.47914 5.26336 0
M  V30 5592 H 516.876 -2.41611 7.46052 0
M  V30 5593 N 514.379 -1.04941 -1.1758 0
M  V30 5594 C 515.795 -0.770282 -1.39781 0
M  V30 5595 C 515.995 0.636417 -1.91186 0
M  V30 5596 O 515.051 1.39923 -2.10185 0
M  V30 5597 C 516.364 -1.82376 -2.3908 0
M  V30 5598 C 517.912 -1.84569 -2.52791 0
M  V30 5599 C 518.387 -2.88933 -3.55361 0
M  V30 5600 N 519.878 -2.8788 -3.62877 0
M  V30 5601 C 520.613 -3.65282 -4.41992 0
M  V30 5602 N 520.109 -4.52461 -5.24643 0
M  V30 5603 N 521.902 -3.53732 -4.36841 0
M  V30 5604 H 514.053 -1.95705 -0.825438 0
M  V30 5605 H 516.316 -0.847284 -0.425222 0
M  V30 5606 H 516.022 -2.83323 -2.08376 0
M  V30 5607 H 515.896 -1.66327 -3.38549 0
M  V30 5608 H 518.283 -0.842879 -2.82807 0
M  V30 5609 H 518.364 -2.04696 -1.53406 0
M  V30 5610 H 518.008 -3.89398 -3.26085 0
M  V30 5611 H 517.938 -2.66059 -4.54445 0
M  V30 5612 H 520.429 -2.24666 -3.03864 0
M  V30 5613 H 520.742 -5.08211 -5.82187 0
M  V30 5614 H 519.087 -4.56524 -5.24033 0
M  V30 5615 H 522.278 -2.85021 -3.71323 0
M  V30 5616 H 522.451 -4.14302 -4.98255 0
M  V30 5617 N 515.857 1.33968 -0.830081 0
M  V30 5618 C 517.106 1.97323 -0.417928 0
M  V30 5619 C 517.419 1.6652 1.02618 0
M  V30 5620 O 518.625 2.2342 1.54259 0
M  V30 5621 C 517.081 3.53099 -0.696359 0
M  V30 5622 C 516.689 3.92788 -2.15457 0
M  V30 5623 C 518.433 4.23049 -0.350724 0
M  V30 5624 C 516.34 5.41506 -2.37751 0
M  V30 5625 H 515.27 0.738409 -0.152541 0
M  V30 5626 H 517.921 1.52711 -1.01744 0
M  V30 5627 H 516.303 3.95991 -0.0265904 0
M  V30 5628 H 517.477 3.6098 -2.86408 0
M  V30 5629 H 515.792 3.35795 -2.46232 0
M  V30 5630 H 518.389 5.32403 -0.495036 0
M  V30 5631 H 518.732 4.10279 0.705476 0
M  V30 5632 H 519.265 3.85657 -0.975362 0
M  V30 5633 H 516.004 5.5927 -3.41903 0
M  V30 5634 H 515.524 5.74804 -1.7135 0
M  V30 5635 H 517.203 6.0828 -2.20465 0
M  V30 5636 N 517.335 0.585699 1.46312 0
M  V30 5637 C 518.56 0.0762461 2.0726 0
M  V30 5638 C 518.985 -1.22071 1.43109 0
M  V30 5639 O 518.343 -1.73804 0.515942 0
M  V30 5640 C 518.391 -0.0729404 3.60526 0
M  V30 5641 O 517.495 -1.1287 3.96654 0
M  V30 5642 H 516.836 0.0641558 0.660893 0
M  V30 5643 H 519.366 0.809492 1.87905 0
M  V30 5644 H 519.376 -0.278158 4.07051 0
M  V30 5645 H 518.051 0.874188 4.06609 0
M  V30 5646 H 516.628 -0.901703 3.61834 0
M  V30 5647 N 518.813 -1.54241 0.323641 0
M  V30 5648 C 519.776 -2.22997 -0.529602 0
M  V30 5649 C 520.776 -1.22345 -1.04347 0
M  V30 5650 O 521.966 -1.46924 -0.935889 0
M  V30 5651 C 519.098 -2.93409 -1.73562 0
M  V30 5652 H 520.291 -2.99815 0.0714518 0
M  V30 5653 H 517.844 -1.56121 0.0747258 0
M  V30 5654 H 518.579 -2.20729 -2.37591 0
M  V30 5655 H 518.364 -3.67217 -1.37456 0
M  V30 5656 H 519.854 -3.45794 -2.34128 0
M  V30 5657 N 520.291 -0.0518155 -1.57515 0
M  V30 5658 C 521.516 0.634896 -1.97443 0
M  V30 5659 C 521.941 1.63546 -0.929207 0
M  V30 5660 O 521.299 1.80981 0.107484 0
M  V30 5661 C 521.347 1.29765 -3.36442 0
M  V30 5662 O 520.451 2.41333 -3.34413 0
M  V30 5663 H 519.792 0.164994 -0.643174 0
M  V30 5664 H 522.322 -0.120407 -2.04245 0
M  V30 5665 H 522.332 1.64918 -3.73184 0
M  V30 5666 H 521.007 0.564361 -4.12053 0
M  V30 5667 H 519.584 2.08122 -3.09418 0
M  V30 5668 N 521.769 1.56035 0.221574 0
M  V30 5669 C 522.679 1.95581 1.29558 0
M  V30 5670 C 523.695 0.859639 1.51282 0
M  V30 5671 O 524.871 1.16321 1.64413 0
M  V30 5672 C 521.936 2.26447 2.62531 0
M  V30 5673 C 520.997 3.49632 2.4911 0
M  V30 5674 C 520.23 3.79017 3.75742 0
M  V30 5675 O 520.453 3.10077 4.78757 0
M  V30 5676 O 519.387 4.72507 3.72855 0
M  V30 5677 H 523.213 2.8711 0.990035 0
M  V30 5678 H 520.798 1.43244 0.424434 0
M  V30 5679 H 522.68 2.47494 3.41064 0
M  V30 5680 H 521.355 1.38092 2.92766 0
M  V30 5681 H 520.262 3.33864 1.68777 0
M  V30 5682 H 521.595 4.3837 2.23814 0
M  V30 5683 N 523.247 -0.488276 1.49845 0
M  V30 5684 C 524.21 -1.57069 1.66919 0
M  V30 5685 C 525.21 -1.51445 0.540479 0
M  V30 5686 O 526.4 -1.5437 0.807188 0
M  V30 5687 C 523.532 -2.96718 1.67844 0
M  V30 5688 H 524.725 -1.43254 2.63474 0
M  V30 5689 H 522.278 -0.713435 1.39068 0
M  V30 5690 H 523.013 -3.15996 0.7292 0
M  V30 5691 H 522.798 -3.02208 2.49826 0
M  V30 5692 H 524.288 -3.75335 1.83066 0
M  V30 5693 N 524.725 -1.39134 -0.740242 0
M  V30 5694 C 525.655 -1.40165 -1.86751 0
M  V30 5695 C 526.636 -0.265708 -1.68012 0
M  V30 5696 O 527.821 -0.47076 -1.88408 0
M  V30 5697 C 524.951 -1.2392 -3.2444 0
M  V30 5698 C 523.905 -2.34858 -3.57807 0
M  V30 5699 C 523.231 -2.03707 -4.94376 0
M  V30 5700 C 524.531 -3.77159 -3.61315 0
M  V30 5701 H 526.225 -2.345 -1.86145 0
M  V30 5702 H 523.771 -1.12875 -0.89416 0
M  V30 5703 H 525.724 -1.23263 -4.02969 0
M  V30 5704 H 524.448 -0.26051 -3.25559 0
M  V30 5705 H 523.107 -2.34723 -2.81604 0
M  V30 5706 H 522.755 -1.04289 -4.9207 0
M  V30 5707 H 522.455 -2.78016 -5.17669 0
M  V30 5708 H 523.979 -2.04691 -5.75268 0
M  V30 5709 H 525.393 -3.79252 -4.29931 0
M  V30 5710 H 523.79 -4.50784 -3.96124 0
M  V30 5711 H 524.86 -4.08513 -2.61238 0
M  V30 5712 N 526.204 0.969867 -1.24223 0
M  V30 5713 C 527.151 2.06407 -1.0327 0
M  V30 5714 C 528.121 1.66014 0.0533 0
M  V30 5715 O 529.306 1.90533 -0.100896 0
M  V30 5716 C 526.446 3.3909 -0.641262 0
M  V30 5717 C 525.559 3.9269 -1.80051 0
M  V30 5718 C 524.694 5.13631 -1.35486 0
M  V30 5719 C 523.733 5.59423 -2.48419 0
M  V30 5720 N 522.87 6.71586 -2.04737 0
M  V30 5721 H 527.71 2.23663 -1.96923 0
M  V30 5722 H 525.247 1.09624 -0.980862 0
M  V30 5723 H 527.205 4.15323 -0.395351 0
M  V30 5724 H 525.835 3.21765 0.258269 0
M  V30 5725 H 524.887 3.13116 -2.16014 0
M  V30 5726 H 526.199 4.22636 -2.64916 0
M  V30 5727 H 525.353 5.97231 -1.0677 0
M  V30 5728 H 524.092 4.85364 -0.476722 0
M  V30 5729 H 523.097 4.74398 -2.77897 0
M  V30 5730 H 524.322 5.89705 -3.36786 0
M  V30 5731 H 522.268 6.45058 -1.19318 0
M  V30 5732 H 522.185 7.0097 -2.83156 0
M  V30 5733 H 523.453 7.58633 -1.79154 0
M  V30 5734 N 527.682 1.05563 1.17022 0
M  V30 5735 C 528.632 0.630007 2.19123 0
M  V30 5736 C 529.616 -0.335472 1.57364 0
M  V30 5737 O 530.808 -0.1521 1.76345 0
M  V30 5738 C 527.937 0.0101676 3.43298 0
M  V30 5739 C 527.023 0.999698 4.12149 0
M  V30 5740 N 527.414 2.17251 4.56766 0
M  V30 5741 C 525.712 0.829 4.38228 0
M  V30 5742 C 526.413 2.79883 5.09942 0
M  V30 5743 N 525.389 2.07656 5.02374 0
M  V30 5744 H 529.191 1.52353 2.51328 0
M  V30 5745 H 526.705 0.926288 1.33393 0
M  V30 5746 H 528.702 -0.312541 4.15727 0
M  V30 5747 H 527.362 -0.878707 3.12584 0
M  V30 5748 H 528.373 2.55067 4.50734 0
M  V30 5749 H 525.05 -0.00850974 4.17499 0
M  V30 5750 H 526.44 3.79362 5.54558 0
M  V30 5751 N 529.16 -1.33526 0.837174 0
M  V30 5752 C 530.571 -1.80182 0.489017 0
M  V30 5753 C 530.922 -1.69285 -0.991826 0
M  V30 5754 O 530.047 -1.24113 -1.77271 0
M  V30 5755 C 530.642 -3.27149 0.880866 0
M  V30 5756 C 529.201 -3.71828 0.584872 0
M  V30 5757 C 528.348 -2.54974 1.09011 0
M  V30 5758 H 531.299 -1.21071 1.02603 0
M  V30 5759 H 531.32 -3.80024 0.190239 0
M  V30 5760 H 530.832 -3.35048 1.95869 0
M  V30 5761 H 528.933 -3.69457 -0.48295 0
M  V30 5762 H 529.046 -4.65366 1.13892 0
M  V30 5763 H 527.41 -2.4952 0.511047 0
M  V30 5764 H 528.193 -2.65637 2.17467 0
M  V30 5765 N 530.638 -0.59345 -1.46 0
M  V30 5766 C 531.884 -0.0916503 -2.03193 0
M  V30 5767 C 532.239 1.25839 -1.45541 0
M  V30 5768 O 531.532 1.81455 -0.615191 0
M  V30 5769 C 531.726 0.021178 -3.57394 0
M  V30 5770 C 531.555 -1.31638 -4.30002 0
M  V30 5771 C 530.325 -1.89336 -4.68487 0
M  V30 5772 C 532.523 -2.242 -4.62859 0
M  V30 5773 N 530.505 -3.1672 -5.25891 0
M  V30 5774 C 531.876 -3.36175 -5.20948 0
M  V30 5775 C 533.931 -2.23748 -4.44794 0
M  V30 5776 C 532.634 -4.47844 -5.62875 0
M  V30 5777 C 534.66 -3.34454 -4.87744 0
M  V30 5778 C 534.022 -4.4515 -5.45913 0
M  V30 5779 H 530.121 -0.0765713 -0.778242 0
M  V30 5780 H 532.705 -0.788705 -1.7801 0
M  V30 5781 H 530.876 0.687423 -3.82268 0
M  V30 5782 H 532.608 0.528343 -4.01236 0
M  V30 5783 H 529.363 -1.42704 -4.51589 0
M  V30 5784 H 529.787 -3.81746 -5.59106 0
M  V30 5785 H 534.429 -1.39433 -3.99147 0
M  V30 5786 H 532.147 -5.32894 -6.07495 0
M  V30 5787 H 535.733 -3.35234 -4.75509 0
M  V30 5788 H 534.613 -5.29398 -5.78539 0
M  V30 5789 N 532.116 1.54067 -0.331816 0
M  V30 5790 C 533.046 2.27569 0.522932 0
M  V30 5791 C 534.027 1.28679 1.11247 0
M  V30 5792 O 535.212 1.57504 1.13605 0
M  V30 5793 C 532.342 3.0397 1.67987 0
M  V30 5794 C 531.296 4.10267 1.21924 0
M  V30 5795 C 530.622 4.74555 2.46377 0
M  V30 5796 C 531.922 5.21268 0.32815 0
M  V30 5797 H 533.616 2.99264 -0.0901977 0
M  V30 5798 H 531.162 1.4393 -0.044821 0
M  V30 5799 H 533.115 3.54123 2.28418 0
M  V30 5800 H 531.839 2.29906 2.31971 0
M  V30 5801 H 530.498 3.61009 0.637809 0
M  V30 5802 H 530.146 3.97098 3.08743 0
M  V30 5803 H 529.846 5.46363 2.16243 0
M  V30 5804 H 531.37 5.27487 3.07555 0
M  V30 5805 H 532.784 5.67128 0.838978 0
M  V30 5806 H 531.181 5.99982 0.119228 0
M  V30 5807 H 532.251 4.80673 -0.638839 0
M  V30 5808 N 533.594 0.0601682 1.57485 0
M  V30 5809 C 534.819 -0.624416 1.97777 0
M  V30 5810 C 535.244 -1.63051 0.937867 0
M  V30 5811 O 534.602 -1.81036 -0.0978845 0
M  V30 5812 C 534.65 -1.27979 3.37126 0
M  V30 5813 O 533.754 -2.39556 3.35688 0
M  V30 5814 H 533.095 -0.161581 0.64404 0
M  V30 5815 H 535.625 0.131237 2.04179 0
M  V30 5816 H 535.635 -1.62937 3.74053 0
M  V30 5817 H 534.31 -0.542501 4.12347 0
M  V30 5818 H 532.887 -2.06478 3.10517 0
M  V30 5819 N 535.072 -1.5615 -0.213296 0
M  V30 5820 C 536.349 -1.70349 -0.961281 0
M  V30 5821 C 536.729 -0.609791 -2.02101 0
M  V30 5822 O 536.077 0.381987 -2.25285 0
M  V30 5823 C 536.287 -3.11982 -1.56424 0
M  V30 5824 C 537.635 -3.71649 -2.05334 0
M  V30 5825 O 538.659 -3.14995 -1.66302 0
M  V30 5826 O 537.518 -4.71038 -2.77102 0
M  V30 5827 H 534.612 -0.694121 -0.449582 0
M  V30 5828 H 537.158 -1.68464 -0.204426 0
M  V30 5829 H 535.93 -3.83046 -0.799457 0
M  V30 5830 H 535.553 -3.18019 -2.38641 0
M  V30 5831 N 536.55 0.480323 -1.50102 0
M  V30 5832 C 537.5 1.57685 -1.6468 0
M  V30 5833 C 538.484 1.52878 -0.5017 0
M  V30 5834 O 539.676 1.60058 -0.755668 0
M  V30 5835 C 536.805 2.96185 -1.73578 0
M  V30 5836 C 535.891 3.0591 -2.93734 0
M  V30 5837 N 536.282 2.85471 -4.1754 0
M  V30 5838 C 534.58 3.37036 -2.92101 0
M  V30 5839 C 535.281 2.99921 -4.9842 0
M  V30 5840 N 534.257 3.29715 -4.32191 0
M  V30 5841 H 538.059 1.40568 -2.58104 0
M  V30 5842 H 535.573 0.686874 -1.47159 0
M  V30 5843 H 537.57 3.75015 -1.82124 0
M  V30 5844 H 536.23 3.14356 -0.813057 0
M  V30 5845 H 537.241 2.61235 -4.47188 0
M  V30 5846 H 533.918 3.61253 -2.09291 0
M  V30 5847 H 535.308 2.88436 -6.06839 0
M  V30 5848 N 538.028 1.39524 0.732853 0
M  V30 5849 C 538.975 1.38416 1.84688 0
M  V30 5850 C 539.945 0.243539 1.64305 0
M  V30 5851 O 541.13 0.438979 1.85681 0
M  V30 5852 C 538.27 1.23555 3.22224 0
M  V30 5853 C 537.383 2.47179 3.54298 0
M  V30 5854 C 536.518 2.2489 4.81246 0
M  V30 5855 C 535.557 3.44178 5.0617 0
M  V30 5856 N 534.694 3.21192 6.24323 0
M  V30 5857 H 539.534 2.33645 1.84971 0
M  V30 5858 H 537.071 1.16059 0.903804 0
M  V30 5859 H 539.029 1.12949 4.0162 0
M  V30 5860 H 537.659 0.31954 3.21215 0
M  V30 5861 H 536.711 2.68379 2.69587 0
M  V30 5862 H 538.023 3.36022 3.68633 0
M  V30 5863 H 537.177 2.11538 5.68627 0
M  V30 5864 H 535.916 1.33443 4.69089 0
M  V30 5865 H 534.921 3.58025 4.17251 0
M  V30 5866 H 536.146 4.36528 5.20212 0
M  V30 5867 H 534.092 2.32413 6.1345 0
M  V30 5868 H 534.009 4.03594 6.39256 0
M  V30 5869 H 535.277 3.1154 7.14537 0
M  V30 5870 N 539.506 -0.963266 1.24736 0
M  V30 5871 C 540.436 -2.07628 1.06832 0
M  V30 5872 C 541.417 -1.70088 -0.0200566 0
M  V30 5873 O 542.602 -1.93636 0.147854 0
M  V30 5874 C 539.732 -3.40636 0.677069 0
M  V30 5875 C 538.686 -3.9215 1.71471 0
M  V30 5876 C 538.012 -5.21553 1.1784 0
M  V30 5877 C 539.312 -4.19493 3.11164 0
M  V30 5878 H 541.006 -2.22864 1.9993 0
M  V30 5879 H 538.552 -1.07093 0.96266 0
M  V30 5880 H 540.505 -4.17941 0.538792 0
M  V30 5881 H 539.229 -3.25313 -0.289612 0
M  V30 5882 H 537.888 -3.17005 1.84128 0
M  V30 5883 H 537.536 -5.02593 0.202195 0
M  V30 5884 H 537.236 -5.56988 1.87185 0
M  V30 5885 H 538.76 -6.01463 1.05233 0
M  V30 5886 H 540.174 -4.87487 3.01711 0
M  V30 5887 H 538.571 -4.66165 3.77902 0
M  V30 5888 H 539.641 -3.26097 3.58871 0
M  V30 5889 N 540.985 -1.06182 -1.16461 0
M  V30 5890 C 541.935 -0.641619 -2.18786 0
M  V30 5891 C 542.919 0.327122 -1.5754 0
M  V30 5892 O 544.111 0.142746 -1.76423 0
M  V30 5893 C 541.24 -0.0283734 -3.43288 0
M  V30 5894 C 540.326 -1.02154 -4.11613 0
M  V30 5895 N 540.717 -2.19671 -4.55608 0
M  V30 5896 C 539.015 -0.852229 -4.37782 0
M  V30 5897 C 539.716 -2.82583 -5.0845 0
M  V30 5898 N 538.692 -2.10318 -5.01266 0
M  V30 5899 H 542.494 -1.53684 -2.50516 0
M  V30 5900 H 540.008 -0.933349 -1.329 0
M  V30 5901 H 542.005 0.29049 -4.15887 0
M  V30 5902 H 540.665 0.862118 -3.13046 0
M  V30 5903 H 541.676 -2.57453 -4.49375 0
M  V30 5904 H 538.353 -0.0136314 -4.17498 0
M  V30 5905 H 539.743 -3.82298 -5.52538 0
M  V30 5906 N 542.463 1.3308 -0.844243 0
M  V30 5907 C 543.688 2.02341 -0.455282 0
M  V30 5908 C 544.113 1.6308 0.93737 0
M  V30 5909 O 543.471 0.826118 1.61385 0
M  V30 5910 C 543.519 3.55743 -0.58988 0
M  V30 5911 O 542.623 4.1063 0.38166 0
M  V30 5912 H 541.964 0.637898 -0.184343 0
M  V30 5913 H 544.494 1.6986 -1.14056 0
M  V30 5914 H 544.504 4.05243 -0.473522 0
M  V30 5915 H 543.179 3.83662 -1.60549 0
M  V30 5916 H 541.756 3.72236 0.22241 0
M  V30 5917 N 543.941 0.601185 1.45683 0
M  V30 5918 C 545.357 0.264315 1.57396 0
M  V30 5919 C 545.557 -1.23324 1.59353 0
M  V30 5920 O 544.613 -2.01594 1.52039 0
M  V30 5921 C 545.926 0.929839 2.85962 0
M  V30 5922 C 547.474 0.905156 2.99626 0
M  V30 5923 C 547.949 1.55057 4.30954 0
M  V30 5924 N 549.44 1.51576 4.37697 0
M  V30 5925 C 550.175 1.98436 5.37969 0
M  V30 5926 N 549.671 2.53352 6.44813 0
M  V30 5927 N 551.464 1.89242 5.29286 0
M  V30 5928 H 543.615 1.57363 1.42656 0
M  V30 5929 H 545.878 0.658831 0.681649 0
M  V30 5930 H 545.584 1.98404 2.90394 0
M  V30 5931 H 545.458 0.449224 3.74515 0
M  V30 5932 H 547.845 -0.14048 2.94765 0
M  V30 5933 H 547.926 1.42397 2.12501 0
M  V30 5934 H 547.57 2.5955 4.36573 0
M  V30 5935 H 547.5 1.00682 5.16886 0
M  V30 5936 H 549.991 1.11452 3.61091 0
M  V30 5937 H 550.304 2.86918 7.17564 0
M  V30 5938 H 548.649 2.57388 6.45582 0
M  V30 5939 H 551.84 1.46083 4.44722 0
M  V30 5940 H 552.013 2.26075 6.07284 0
M  V30 5941 N 545.419 -1.53889 0.339982 0
M  V30 5942 C 546.349 -2.27843 -0.510856 0
M  V30 5943 C 547.33 -1.29267 -1.10563 0
M  V30 5944 O 548.515 -1.58104 -1.12768 0
M  V30 5945 C 545.645 -3.04857 -1.66372 0
M  V30 5946 C 544.599 -4.10907 -1.19746 0
M  V30 5947 C 543.925 -4.75855 -2.43857 0
M  V30 5948 C 545.225 -5.21435 -0.300501 0
M  V30 5949 H 546.919 -2.99212 0.106067 0
M  V30 5950 H 544.465 -1.43904 0.0524533 0
M  V30 5951 H 546.418 -3.5533 -2.26537 0
M  V30 5952 H 545.142 -2.31133 -2.30749 0
M  V30 5953 H 543.801 -3.61342 -0.618654 0
M  V30 5954 H 543.449 -3.9873 -3.06633 0
M  V30 5955 H 543.149 -5.47502 -2.13343 0
M  V30 5956 H 544.673 -5.2911 -3.04754 0
M  V30 5957 H 546.087 -5.67565 -0.80889 0
M  V30 5958 H 544.484 -6.00036 -0.0874076 0
M  V30 5959 H 545.554 -4.80328 0.664321 0
M  V30 5960 N 546.897 -0.0685191 -1.57451 0
M  V30 5961 C 547.845 0.917577 -2.13736 0
M  V30 5962 C 548.839 1.31049 -1.07344 0
M  V30 5963 O 550.045 1.28811 -1.25728 0
M  V30 5964 H 546.42 0.313835 -0.683382 0
M  V30 5965 H 548.391 0.417903 -2.95459 0
M  V30 5966 C 547.14 2.17686 -2.71123 0
M  V30 5967 H 546.463 1.88336 -3.52661 0
M  V30 5968 H 547.903 2.84803 -3.14107 0
M  V30 5969 C 546.362 2.9332 -1.65726 0
M  V30 5970 O 546.892 3.86901 -1.08031 0
M  V30 5971 N 545.098 2.56367 -1.36837 0
M  V30 5972 H 544.645 1.80341 -1.83943 0
M  V30 5973 H 544.603 3.07276 -0.665501 0
M  V30 5974 N 548.375 1.56261 0.205012 0
M  V30 5975 C 549.338 1.92908 1.23771 0
M  V30 5976 C 550.338 0.809208 1.38955 0
M  V30 5977 O 551.528 1.07676 1.36936 0
M  V30 5978 C 548.66 2.19442 2.60879 0
M  V30 5979 H 549.853 2.85287 0.924728 0
M  V30 5980 H 547.406 1.49798 0.446125 0
M  V30 5981 H 548.141 1.29668 2.97248 0
M  V30 5982 H 547.926 3.0104 2.51232 0
M  V30 5983 H 549.416 2.48833 3.35368 0
M  V30 5984 N 549.853 -0.472356 1.50355 0
M  V30 5985 C 550.785 -1.58795 1.65278 0
M  V30 5986 C 551.798 -1.53782 0.534313 0
M  V30 5987 O 552.987 -1.59193 0.807446 0
M  V30 5988 C 550.087 -2.97672 1.62001 0
M  V30 5989 C 549.26 -3.27568 2.89859 0
M  V30 5990 C 548.319 -4.45993 2.79242 0
M  V30 5991 O 547.345 -4.46364 3.53197 0
M  V30 5992 N 548.547 -5.47578 1.92713 0
M  V30 5993 H 551.312 -1.46411 2.61503 0
M  V30 5994 H 548.873 -0.660751 1.47803 0
M  V30 5995 H 550.865 -3.74862 1.52513 0
M  V30 5996 H 549.435 -3.03832 0.735159 0
M  V30 5997 H 548.655 -2.39003 3.13483 0
M  V30 5998 H 549.943 -3.44352 3.74565 0
M  V30 5999 H 549.341 -5.50099 1.31939 0
M  V30 6000 H 547.898 -6.23757 1.8913 0
M  V30 6001 N 551.331 -1.39911 -0.725443 0
M  V30 6002 C 552.278 -1.39393 -1.83952 0
M  V30 6003 C 553.248 -0.252249 -1.64173 0
M  V30 6004 O 554.433 -0.44882 -1.85446 0
M  V30 6005 C 551.573 -1.25262 -3.21564 0
M  V30 6006 C 550.686 -2.49054 -3.52982 0
M  V30 6007 C 549.821 -2.27439 -4.80047 0
M  V30 6008 C 548.86 -3.46857 -5.04338 0
M  V30 6009 N 547.997 -3.24499 -6.22611 0
M  V30 6010 H 552.837 -2.34622 -1.83729 0
M  V30 6011 H 550.374 -1.16537 -0.897636 0
M  V30 6012 H 552.332 -1.15077 -4.01015 0
M  V30 6013 H 550.962 -0.33657 -3.21041 0
M  V30 6014 H 550.014 -2.69805 -2.6816 0
M  V30 6015 H 551.326 -3.37973 -3.66846 0
M  V30 6016 H 550.48 -2.14551 -5.67497 0
M  V30 6017 H 549.219 -1.35929 -4.68374 0
M  V30 6018 H 548.224 -3.60232 -4.15346 0
M  V30 6019 H 549.449 -4.3928 -5.17889 0
M  V30 6020 H 547.395 -2.35663 -6.12208 0
M  V30 6021 H 547.312 -4.06978 -6.37106 0
M  V30 6022 H 548.58 -3.15325 -7.12875 0
M  V30 6023 N 552.809 0.956637 -1.25245 0
M  V30 6024 C 553.756 2.053 -1.05454 0
M  V30 6025 C 554.726 1.66062 0.0356889 0
M  V30 6026 O 555.911 1.90415 -0.121099 0
M  V30 6027 C 553.051 3.38391 -0.677191 0
M  V30 6028 C 552.164 3.90758 -1.84206 0
M  V30 6029 C 551.299 5.12165 -1.40926 0
M  V30 6030 C 550.338 5.56757 -2.54338 0
M  V30 6031 N 549.475 6.69376 -2.11848 0
M  V30 6032 H 554.315 2.21562 -1.99284 0
M  V30 6033 H 551.852 1.08578 -0.992434 0
M  V30 6034 H 553.81 4.1488 -0.43938 0
M  V30 6035 H 552.44 3.22021 0.224127 0
M  V30 6036 H 551.492 3.10808 -2.19323 0
M  V30 6037 H 552.804 4.19802 -2.69383 0
M  V30 6038 H 551.958 5.96065 -1.13098 0
M  V30 6039 H 550.697 4.84832 -0.528175 0
M  V30 6040 H 549.702 4.71423 -2.82913 0
M  V30 6041 H 550.927 5.861 -3.43022 0
M  V30 6042 H 548.873 6.43756 -1.26153 0
M  V30 6043 H 548.79 6.97927 -2.90574 0
M  V30 6044 H 550.058 7.5669 -1.87191 0
M  V30 6045 N 554.287 1.06798 1.15896 0
M  V30 6046 C 555.234 0.683314 2.20453 0
M  V30 6047 C 556.204 -0.32255 1.62938 0
M  V30 6048 O 557.389 -0.210276 1.89638 0
M  V30 6049 C 554.529 0.0813266 3.45004 0
M  V30 6050 C 553.642 1.13799 4.16742 0
M  V30 6051 C 552.777 0.501598 5.28826 0
M  V30 6052 C 551.816 1.54144 5.92373 0
M  V30 6053 N 550.953 0.928038 6.9594 0
M  V30 6054 H 555.793 1.57932 2.52708 0
M  V30 6055 H 553.33 0.789544 1.24115 0
M  V30 6056 H 555.288 -0.285274 4.16224 0
M  V30 6057 H 553.918 -0.77806 3.13283 0
M  V30 6058 H 552.97 1.62223 3.44075 0
M  V30 6059 H 554.282 1.92664 4.60089 0
M  V30 6060 H 553.436 0.0823162 6.06644 0
M  V30 6061 H 552.175 -0.318883 4.86656 0
M  V30 6062 H 551.18 1.97056 5.13273 0
M  V30 6063 H 552.405 2.3641 6.36621 0
M  V30 6064 H 550.351 0.12836 6.55874 0
M  V30 6065 H 550.268 1.65401 7.37685 0
M  V30 6066 H 551.536 0.534071 7.77668 0
M  V30 6067 N 555.766 -1.3263 0.851289 0
M  V30 6068 C 556.714 -2.30882 0.282202 0
M  V30 6069 C 557.708 -1.58697 -0.592589 0
M  V30 6070 O 558.914 -1.73461 -0.480768 0
M  V30 6071 H 555.289 -0.748492 0.0725487 0
M  V30 6072 H 557.26 -2.76374 1.12516 0
M  V30 6073 C 556.009 -3.43828 -0.517449 0
M  V30 6074 H 555.332 -3.99532 0.146392 0
M  V30 6075 H 556.772 -4.1474 -0.88128 0
M  V30 6076 C 555.231 -2.90786 -1.70133 0
M  V30 6077 O 555.761 -2.88 -2.80034 0
M  V30 6078 N 553.967 -2.4723 -1.52728 0
M  V30 6079 H 553.514 -2.49695 -0.633257 0
M  V30 6080 H 553.472 -2.12094 -2.32085 0
M  V30 6081 N 557.244 -0.608902 -1.45362 0
M  V30 6082 C 558.66 -0.272659 -1.57254 0
M  V30 6083 C 558.86 1.22477 -1.60005 0
M  V30 6084 O 557.916 2.00785 -1.53106 0
M  V30 6085 C 559.229 -0.944991 -2.85465 0
M  V30 6086 C 560.777 -0.921033 -2.99142 0
M  V30 6087 C 561.252 -1.5734 -4.30126 0
M  V30 6088 N 562.743 -1.53895 -4.36887 0
M  V30 6089 C 563.478 -2.01286 -5.36909 0
M  V30 6090 N 562.974 -2.56768 -6.43461 0
M  V30 6091 N 564.767 -1.92046 -5.28275 0
M  V30 6092 H 556.918 -1.58117 -1.4182 0
M  V30 6093 H 559.181 -0.662437 -0.678146 0
M  V30 6094 H 558.887 -1.99941 -2.89338 0
M  V30 6095 H 558.761 -0.469079 -3.74272 0
M  V30 6096 H 561.148 0.124846 -2.94836 0
M  V30 6097 H 561.229 -1.43522 -2.11743 0
M  V30 6098 H 560.873 -2.61862 -4.35191 0
M  V30 6099 H 560.803 -1.03422 -5.16344 0
M  V30 6100 H 563.294 -1.13366 -3.60495 0
M  V30 6101 H 563.607 -2.9072 -7.16032 0
M  V30 6102 H 561.952 -2.60808 -6.44208 0
M  V30 6103 H 565.143 -1.48439 -4.43941 0
M  V30 6104 H 565.316 -2.29293 -6.06077 0
M  V30 6105 N 558.722 1.53707 -0.348139 0
M  V30 6106 C 559.97 2.00591 0.246478 0
M  V30 6107 C 560.291 1.23753 1.50699 0
M  V30 6108 O 559.561 0.345964 1.92821 0
M  V30 6109 H 558.141 0.741053 0.0940679 0
M  V30 6110 H 560.803 1.89139 -0.470354 0
M  V30 6111 H 559.899 3.08297 0.485714 0
M  V30 6112 N 560.2 0.0768682 1.57412 0
M  V30 6113 C 561.425 -0.603404 1.98428 0
M  V30 6114 C 561.85 -1.62047 0.955108 0
M  V30 6115 O 561.208 -1.81129 -0.0786778 0
M  V30 6116 C 561.256 -1.24396 3.38464 0
M  V30 6117 O 560.36 -2.35982 3.3821 0
M  V30 6118 H 559.701 -0.154741 0.645718 0
M  V30 6119 H 562.231 0.152885 2.04028 0
M  V30 6120 H 562.241 -1.5896 3.7576 0
M  V30 6121 H 560.916 -0.498735 4.12899 0
M  V30 6122 H 559.493 -2.03173 3.1269 0
M  V30 6123 N 561.678 -1.56367 -0.196722 0
M  V30 6124 C 562.955 -1.71359 -0.943159 0
M  V30 6125 C 563.335 -0.631192 -2.01443 0
M  V30 6126 O 562.683 0.358071 -2.25677 0
M  V30 6127 C 562.893 -3.13623 -1.53106 0
M  V30 6128 C 564.241 -3.73806 -2.01381 0
M  V30 6129 O 565.265 -3.16742 -1.62951 0
M  V30 6130 O 564.124 -4.73951 -2.7209 0
M  V30 6131 H 561.218 -0.698851 -0.442195 0
M  V30 6132 H 563.764 -1.68672 -0.186547 0
M  V30 6133 H 562.536 -3.83873 -0.758785 0
M  V30 6134 H 562.159 -3.20532 -2.35255 0
M  V30 6135 N 563.156 0.464375 -1.50603 0
M  V30 6136 C 564.119 1.54393 -1.69397 0
M  V30 6137 C 565.119 1.50566 -0.564504 0
M  V30 6138 O 566.309 1.53066 -0.831645 0
M  V30 6139 C 563.441 2.9401 -1.72543 0
M  V30 6140 H 564.634 1.39044 -2.65719 0
M  V30 6141 H 562.187 0.69122 -1.40185 0
M  V30 6142 H 562.922 3.14795 -0.77938 0
M  V30 6143 H 562.707 2.98195 -2.54602 0
M  V30 6144 H 564.197 3.72375 -1.89015 0
M  V30 6145 N 564.634 1.40294 0.718013 0
M  V30 6146 C 565.566 1.36281 1.84283 0
M  V30 6147 C 566.579 0.268621 1.60569 0
M  V30 6148 O 567.768 0.528798 1.70487 0
M  V30 6149 C 564.868 1.09741 3.2064 0
M  V30 6150 C 564.041 2.30767 3.71571 0
M  V30 6151 C 563.1 2.00424 4.86535 0
M  V30 6152 O 562.126 2.73268 4.99313 0
M  V30 6153 N 563.328 0.980724 5.72156 0
M  V30 6154 H 566.093 2.3322 1.88225 0
M  V30 6155 H 563.654 1.34616 0.899453 0
M  V30 6156 H 565.646 0.874322 3.95143 0
M  V30 6157 H 564.216 0.214771 3.11861 0
M  V30 6158 H 563.436 2.68921 2.88228 0
M  V30 6159 H 564.724 3.11455 4.02335 0
M  V30 6160 H 564.122 0.377375 5.6444 0
M  V30 6161 H 562.679 0.817538 6.46653 0
M  V30 6162 N 566.112 -0.949982 1.2575 0
M  V30 6163 C 567.389 -1.6718 1.01539 0
M  V30 6164 C 567.769 -2.06095 -0.456942 0
M  V30 6165 O 567.117 -1.77792 -1.43534 0
M  V30 6166 C 567.327 -2.8906 1.95564 0
M  V30 6167 C 568.675 -3.60909 2.23673 0
M  V30 6168 O 569.699 -2.9915 1.9336 0
M  V30 6169 O 568.558 -4.72127 2.75243 0
M  V30 6170 H 565.652 -0.731697 0.385419 0
M  V30 6171 H 568.198 -1.00249 1.36924 0
M  V30 6172 H 566.97 -2.57128 2.94959 0
M  V30 6173 H 566.593 -3.63719 1.60605 0
M  V30 6174 N 567.59 -1.07411 -1.15328 0
M  V30 6175 C 568.837 -0.797649 -1.86128 0
M  V30 6176 C 569.165 0.676298 -1.82364 0
M  V30 6177 O 568.42 1.51223 -1.24218 0
M  V30 6178 C 568.719 -1.25191 -3.34757 0
M  V30 6179 C 568.385 -2.73191 -3.58716 0
M  V30 6180 C 567.047 -3.13616 -3.64964 0
M  V30 6181 C 569.399 -3.68718 -3.6837 0
M  V30 6182 C 566.727 -4.48383 -3.78377 0
M  V30 6183 C 569.079 -5.03248 -3.83306 0
M  V30 6184 C 567.743 -5.43293 -3.878 0
M  V30 6185 H 567.013 -0.29188 -0.681092 0
M  V30 6186 H 569.66 -1.34524 -1.36292 0
M  V30 6187 H 567.965 -0.623712 -3.86804 0
M  V30 6188 H 569.662 -1.01489 -3.87945 0
M  V30 6189 H 566.252 -2.40898 -3.54494 0
M  V30 6190 H 570.436 -3.38614 -3.62842 0
M  V30 6191 H 565.692 -4.78877 -3.80114 0
M  V30 6192 H 569.866 -5.77142 -3.89718 0
M  V30 6193 H 567.493 -6.47721 -3.97946 0
M  V30 6194 N 569.068 1.32177 -0.85831 0
M  V30 6195 C 570.314 1.97417 -0.46417 0
M  V30 6196 C 570.647 1.67746 0.978514 0
M  V30 6197 O 569.922 0.967654 1.68721 0
M  V30 6198 C 570.205 3.53069 -0.708094 0
M  V30 6199 C 570.058 3.92357 -2.19946 0
M  V30 6200 C 571.377 4.39783 -0.166881 0
M  V30 6201 H 568.496 0.717097 -0.17012 0
M  V30 6202 H 571.138 1.56499 -1.07741 0
M  V30 6203 H 569.288 3.88054 -0.186128 0
M  V30 6204 H 570.96 3.67533 -2.78779 0
M  V30 6205 H 569.203 3.41384 -2.67656 0
M  V30 6206 H 569.874 5.00841 -2.32082 0
M  V30 6207 H 572.35 4.11556 -0.613285 0
M  V30 6208 H 571.226 5.47671 -0.367093 0
M  V30 6209 H 571.487 4.32196 0.930559 0
M  V30 6210 N 570.547 0.616602 1.45037 0
M  V30 6211 C 571.775 0.121968 2.0654 0
M  V30 6212 C 572.19 -1.19743 1.45969 0
M  V30 6213 O 571.547 -1.73133 0.577168 0
M  V30 6214 C 571.598 -0.0145171 3.61497 0
M  V30 6215 O 571.319 1.25269 4.19809 0
M  V30 6216 C 572.82 -0.539555 4.40004 0
M  V30 6217 H 570.04 0.0729837 0.667019 0
M  V30 6218 H 572.584 0.846891 1.8614 0
M  V30 6219 H 570.739 -0.689809 3.81209 0
M  V30 6220 H 571.153 1.08816 5.13088 0
M  V30 6221 H 572.627 -0.584112 5.48901 0
M  V30 6222 H 573.104 -1.56368 4.10421 0
M  V30 6223 H 573.71 0.101995 4.25178 0
M  V30 6224 N 572.025 -1.5352 0.356285 0
M  V30 6225 C 572.972 -2.25439 -0.494569 0
M  V30 6226 C 573.942 -1.25752 -1.08516 0
M  V30 6227 O 575.127 -1.54513 -1.1194 0
M  V30 6228 C 572.267 -3.04011 -1.63313 0
M  V30 6229 C 571.38 -4.18574 -1.06862 0
M  V30 6230 C 570.515 -4.84607 -2.17552 0
M  V30 6231 C 569.554 -5.91218 -1.58518 0
M  V30 6232 N 568.691 -6.50979 -2.63003 0
M  V30 6233 H 573.531 -2.97737 0.125244 0
M  V30 6234 H 571.068 -1.46916 0.0735789 0
M  V30 6235 H 573.026 -3.47834 -2.30363 0
M  V30 6236 H 571.656 -2.33986 -2.22374 0
M  V30 6237 H 570.708 -3.79303 -0.288672 0
M  V30 6238 H 572.02 -4.95215 -0.596924 0
M  V30 6239 H 571.174 -5.31566 -2.92442 0
M  V30 6240 H 569.913 -4.07418 -2.6807 0
M  V30 6241 H 568.918 -5.4363 -0.821391 0
M  V30 6242 H 570.143 -6.70322 -1.08836 0
M  V30 6243 H 568.089 -5.76648 -3.12751 0
M  V30 6244 H 568.006 -7.23131 -2.20493 0
M  V30 6245 H 569.274 -7.02589 -3.37623 0
M  V30 6246 O 573.542 -0.225101 -1.59924 0
M  V30 6247 H 574.233 0.354711 -1.90425 0
M  V30 END ATOM
M  V30 BEGIN BOND
M  V30 END BOND
M  V30 END CTAB
M  END
$$$$
