drugbank_target|Q4W9V8 Polyhydroxybutyrate depolymerase, putative (DB04773)
 OpenBabel12092120303D

  0  0  0     0  0            999 V3000
M  V30 BEGIN CTAB
M  V30 COUNTS 6562 6645 0 0 0
M  V30 BEGIN ATOM
M  V30 1 H -0.908 1.98254 -0.117106 0
M  V30 2 N 0 1.576 0 0
M  V30 3 C 0.933 2.03868 1.02534 0
M  V30 4 C 1.911 0.928543 1.3348 0
M  V30 5 O 3.095 1.19667 1.45644 0
M  V30 6 C 0.222 2.43627 2.35294 0
M  V30 7 C -0.732 3.65373 2.2001 0
M  V30 8 S 0.101 5.13292 1.52614 0
M  V30 9 C 1.257 5.56322 2.86805 0
M  V30 10 H 1.49 2.90518 0.631377 0
M  V30 11 H -0.977 1.52953 0.210867 0
M  V30 12 H 0.981 2.67203 3.11629 0
M  V30 13 H -0.358 1.57376 2.7183 0
M  V30 14 H -1.165 3.90944 3.18086 0
M  V30 15 H -1.563 3.418 1.51819 0
M  V30 16 H 0.729 5.58782 3.83104 0
M  V30 17 H 1.672 6.56266 2.65933 0
M  V30 18 H 2.08 4.83886 2.90714 0
M  V30 19 N 1.4781 -0.272755 1.55222 0
M  V30 20 C 2.8941 -0.619959 1.47067 0
M  V30 21 C 3.0941 -1.895 0.684978 0
M  V30 22 O 2.1501 -2.51675 0.203931 0
M  V30 23 C 3.4631 -0.746693 2.91282 0
M  V30 24 C 5.0111 -0.840731 3.01497 0
M  V30 25 C 5.4861 -0.99924 4.46967 0
M  V30 26 N 6.9771 -1.06476 4.50796 0
M  V30 27 C 7.7121 -1.20621 5.6057 0
M  V30 28 N 7.2081 -1.31483 6.80209 0
M  V30 29 N 9.0011 -1.23733 5.48312 0
M  V30 30 H 1.1521 0.564606 2.04758 0
M  V30 31 H 3.4151 0.191177 0.928523 0
M  V30 32 H 3.1211 0.119753 3.51496 0
M  V30 33 H 2.9951 -1.6269 3.40311 0
M  V30 34 H 5.3821 -1.69764 2.41379 0
M  V30 35 H 5.4631 0.0640874 2.5572 0
M  V30 36 H 5.1071 -0.146984 5.07687 0
M  V30 37 H 5.0371 -1.91871 4.90401 0
M  V30 38 H 7.5281 -0.993196 3.64615 0
M  V30 39 H 7.8411 -1.42111 7.59621 0
M  V30 40 H 6.1861 -1.28487 6.8302 0
M  V30 41 H 9.3771 -1.14877 4.53785 0
M  V30 42 H 9.5501 -1.34412 6.33906 0
M  V30 43 N 2.9562 -1.48159 -0.537278 0
M  V30 44 C 4.2042 -1.55497 -1.29094 0
M  V30 45 C 4.5252 -0.227454 -1.93669 0
M  V30 46 O 3.7952 0.750386 -1.80959 0
M  V30 47 H 2.3752 -0.572832 -0.47945 0
M  V30 48 H 5.0372 -1.84579 -0.625818 0
M  V30 49 H 4.1332 -2.33216 -2.07405 0
M  V30 50 N 4.4343 0.785586 -1.36625 0
M  V30 51 C 5.6803 1.54591 -1.31261 0
M  V30 52 C 6.0133 1.93906 0.106823 0
M  V30 53 O 5.2883 1.63007 1.06108 0
M  V30 54 C 5.5713 2.82038 -2.23889 0
M  V30 55 C 5.4243 2.49066 -3.74548 0
M  V30 56 C 6.7433 3.83887 -2.15217 0
M  V30 57 H 3.8623 0.560846 -0.478143 0
M  V30 58 H 6.5043 0.902278 -1.67209 0
M  V30 59 H 4.6543 3.36961 -1.93363 0
M  V30 60 H 6.3263 2.00164 -4.15611 0
M  V30 61 H 4.5693 1.81954 -3.93796 0
M  V30 62 H 5.2403 3.40109 -4.34776 0
M  V30 63 H 7.7163 3.38421 -2.42096 0
M  V30 64 H 6.5923 4.70806 -2.82193 0
M  V30 65 H 6.8533 4.27131 -1.14068 0
M  V30 66 N 5.9124 1.20967 1.01018 0
M  V30 67 C 7.1584 1.0353 1.7508 0
M  V30 68 C 7.5134 -0.42734 1.87594 0
M  V30 69 O 6.8064 -1.31298 1.3954 0
M  V30 70 C 7.0004 1.65997 3.16512 0
M  V30 71 C 6.8294 3.18184 3.17788 0
M  V30 72 C 5.5994 3.87198 3.24662 0
M  V30 73 C 7.7974 4.15334 3.03319 0
M  V30 74 N 5.7794 5.26618 3.15509 0
M  V30 75 C 7.1504 5.41472 3.02007 0
M  V30 76 C 9.2054 4.06449 2.87583 0
M  V30 77 C 7.9084 6.5975 2.86571 0
M  V30 78 C 9.9344 5.24357 2.73503 0
M  V30 79 C 9.2964 6.49404 2.72862 0
M  V30 80 H 5.3954 0.433137 0.651089 0
M  V30 81 H 7.9794 1.5324 1.20107 0
M  V30 82 H 6.1504 1.18863 3.69765 0
M  V30 83 H 7.8824 1.41816 3.79039 0
M  V30 84 H 4.6374 3.38093 3.31648 0
M  V30 85 H 5.0614 5.99626 3.14289 0
M  V30 86 H 9.7034 3.10573 2.86887 0
M  V30 87 H 7.4214 7.55792 2.86015 0
M  V30 88 H 11.0074 5.19299 2.62334 0
M  V30 89 H 9.8874 7.39105 2.62093 0
M  V30 90 N 7.3905 -1.2043 1.01659 0
M  V30 91 C 8.8065 -1.41852 0.731442 0
M  V30 92 C 9.0065 -1.89358 -0.688898 0
M  V30 93 O 8.0625 -2.06247 -1.45666 0
M  V30 94 C 9.3755 -2.44019 1.75714 0
M  V30 95 C 10.9235 -2.57785 1.77527 0
M  V30 96 C 11.3985 -3.63194 2.79023 0
M  V30 97 N 12.8895 -3.70678 2.77763 0
M  V30 98 C 13.6245 -4.51897 3.52954 0
M  V30 99 N 13.1205 -5.36921 4.37821 0
M  V30 100 N 14.9135 -4.4643 3.41551 0
M  V30 101 H 7.0645 -0.879093 1.93354 0
M  V30 102 H 9.3275 -0.448425 0.835236 0
M  V30 103 H 9.0335 -2.1611 2.77469 0
M  V30 104 H 8.9075 -3.43007 1.56927 0
M  V30 105 H 11.2945 -2.85023 0.764569 0
M  V30 106 H 11.3755 -1.58992 2.00387 0
M  V30 107 H 11.0195 -3.36699 3.80258 0
M  V30 108 H 10.9495 -4.61609 2.53425 0
M  V30 109 H 13.4405 -3.09944 2.16201 0
M  V30 110 H 13.7535 -5.95981 4.91962 0
M  V30 111 H 12.0985 -5.36424 4.41899 0
M  V30 112 H 15.2895 -3.79042 2.74672 0
M  V30 113 H 15.4625 -5.09491 4.00404 0
M  V30 114 N 8.8686 -0.792821 -1.36206 0
M  V30 115 C 10.0986 -0.378275 -2.03107 0
M  V30 116 C 10.5066 1.01119 -1.59911 0
M  V30 117 O 9.8496 1.66052 -0.785658 0
M  V30 118 C 9.9116 -0.366535 -3.57627 0
M  V30 119 C 9.5756 -1.70416 -4.24037 0
M  V30 120 C 10.5726 -2.6602 -4.46687 0
M  V30 121 C 8.2576 -1.98439 -4.6144 0
M  V30 122 C 10.2516 -3.8784 -5.05825 0
M  V30 123 C 7.9386 -3.20525 -5.20295 0
M  V30 124 C 8.9366 -4.15044 -5.42427 0
M  V30 125 O 8.6246 -5.34978 -6.00045 0
M  V30 126 H 8.3566 -0.153543 -0.658332 0
M  V30 127 H 10.9106 -1.07383 -1.75094 0
M  V30 128 H 9.1406 0.385539 -3.84773 0
M  V30 129 H 10.8296 0.0238088 -4.05893 0
M  V30 130 H 11.5956 -2.45658 -4.18183 0
M  V30 131 H 7.4746 -1.25686 -4.43536 0
M  V30 132 H 11.0186 -4.61628 -5.23015 0
M  V30 133 H 6.9156 -3.40764 -5.48225 0
M  V30 134 H 7.6836 -5.36088 -6.18508 0
M  V30 135 N 10.3467 1.47872 -0.545128 0
M  V30 136 C 11.2797 2.2675 0.256885 0
M  V30 137 C 12.2577 1.33293 0.931228 0
M  V30 138 O 13.4417 1.62657 0.95262 0
M  V30 139 C 10.5687 3.09976 1.36501 0
M  V30 140 C 9.6147 4.1892 0.800496 0
M  V30 141 S 10.4477 5.34397 -0.343505 0
M  V30 142 C 11.6037 6.21186 0.766733 0
M  V30 143 H 11.8367 2.94425 -0.412479 0
M  V30 144 H 9.3697 1.50806 -0.331204 0
M  V30 145 H 11.3277 3.585 1.9997 0
M  V30 146 H 9.9887 2.41686 2.00616 0
M  V30 147 H 9.1817 4.76836 1.63227 0
M  V30 148 H 8.7837 3.73215 0.242217 0
M  V30 149 H 11.0757 6.56804 1.66178 0
M  V30 150 H 12.0187 7.07742 0.225204 0
M  V30 151 H 12.4267 5.54574 1.05396 0
M  V30 152 N 11.8248 0.280983 1.55075 0
M  V30 153 C 13.2358 -0.215629 1.85451 0
M  V30 154 C 13.5868 -1.54991 1.203 0
M  V30 155 O 12.7118 -2.10699 0.493435 0
M  V30 156 C 13.3068 -0.398026 3.36454 0
M  V30 157 C 11.8658 -0.838866 3.66933 0
M  V30 158 C 11.0128 0.064458 2.77225 0
M  V30 159 H 13.9638 0.502601 1.50531 0
M  V30 160 H 13.9848 -1.23569 3.59876 0
M  V30 161 H 13.4968 0.573241 3.83843 0
M  V30 162 H 11.5978 -1.8214 3.25048 0
M  V30 163 H 11.7108 -0.672123 4.74362 0
M  V30 164 H 10.0748 -0.452863 2.50642 0
M  V30 165 H 10.8578 1.03172 3.2743 0
M  V30 166 N 13.3029 -1.57598 0.00835791 0
M  V30 167 C 14.5489 -1.91211 -0.675732 0
M  V30 168 C 14.8819 -0.883139 -1.72958 0
M  V30 169 O 14.1569 0.097016 -1.94258 0
M  V30 170 C 14.4399 -3.35379 -1.31123 0
M  V30 171 C 14.2929 -4.48999 -0.268356 0
M  V30 172 C 15.6119 -3.7912 -2.23508 0
M  V30 173 H 12.7309 -0.695374 -0.244179 0
M  V30 174 H 15.3729 -1.89901 0.0613655 0
M  V30 175 H 13.5229 -3.36626 -1.93946 0
M  V30 176 H 15.1949 -4.59887 0.360844 0
M  V30 177 H 13.4379 -4.31873 0.408482 0
M  V30 178 H 14.1089 -5.46851 -0.752218 0
M  V30 179 H 16.5849 -3.79477 -1.70693 0
M  V30 180 H 15.4609 -4.80729 -2.64936 0
M  V30 181 H 15.7219 -3.13455 -3.11766 0
M  V30 182 N 14.781 0.264519 -1.55364 0
M  V30 183 C 16.011 1.01153 -1.80143 0
M  V30 184 C 16.419 1.80115 -0.579253 0
M  V30 185 O 15.762 1.77813 0.46132 0
M  V30 186 C 15.824 2.01098 -2.97993 0
M  V30 187 C 15.488 1.40995 -4.34706 0
M  V30 188 C 16.485 0.821316 -5.13372 0
M  V30 189 C 14.17 1.43461 -4.81378 0
M  V30 190 C 16.164 0.265339 -6.36847 0
M  V30 191 C 13.851 0.874771 -6.04807 0
M  V30 192 C 14.849 0.291146 -6.82379 0
M  V30 193 O 14.537 -0.260093 -8.03479 0
M  V30 194 H 14.269 0.304125 -0.603725 0
M  V30 195 H 16.823 0.298089 -2.03225 0
M  V30 196 H 15.053 2.76224 -2.70623 0
M  V30 197 H 16.742 2.61997 -3.1002 0
M  V30 198 H 17.508 0.794903 -4.78442 0
M  V30 199 H 13.387 1.87826 -4.21002 0
M  V30 200 H 16.931 -0.190837 -6.97339 0
M  V30 201 H 12.828 0.898452 -6.39217 0
M  V30 202 H 13.596 -0.150265 -8.18362 0
M  V30 203 N 16.2591 1.48442 0.529413 0
M  V30 204 C 17.4891 1.59919 1.30804 0
M  V30 205 C 17.8971 0.258792 1.87422 0
M  V30 206 O 17.2401 -0.762096 1.67146 0
M  V30 207 C 17.3021 2.58693 2.49636 0
M  V30 208 C 16.9661 4.03745 2.14101 0
M  V30 209 C 17.9631 4.9141 1.6974 0
M  V30 210 C 15.6481 4.49285 2.24607 0
M  V30 211 C 17.6421 6.22645 1.36351 0
M  V30 212 C 15.3291 5.8054 1.9083 0
M  V30 213 C 16.3271 6.67043 1.46773 0
M  V30 214 O 16.0151 7.95856 1.1344 0
M  V30 215 H 15.7471 0.541981 0.404021 0
M  V30 216 H 18.3011 1.95 0.645309 0
M  V30 217 H 16.5311 2.18734 3.18892 0
M  V30 218 H 18.2201 2.59999 3.11698 0
M  V30 219 H 18.9861 4.57465 1.61094 0
M  V30 220 H 14.8651 3.82142 2.57854 0
M  V30 221 H 18.4091 6.90119 1.01891 0
M  V30 222 H 14.3061 6.14022 1.99117 0
M  V30 223 H 15.0741 8.08613 1.26832 0
M  V30 224 N 17.7372 -0.778329 1.37039 0
M  V30 225 C 18.9672 -1.56507 1.34868 0
M  V30 226 C 19.3752 -1.89072 -0.0694802 0
M  V30 227 O 18.7182 -1.51434 -1.03987 0
M  V30 228 C 18.7802 -2.90641 2.11585 0
M  V30 229 C 18.4442 -2.80746 3.60598 0
M  V30 230 C 19.4412 -2.52226 4.54618 0
M  V30 231 C 17.1262 -2.98974 4.03633 0
M  V30 232 C 19.1202 -2.42054 5.89651 0
M  V30 233 C 16.8072 -2.88423 5.38754 0
M  V30 234 C 17.8052 -2.60002 6.31576 0
M  V30 235 O 17.4932 -2.49465 7.64214 0
M  V30 236 H 17.2252 -0.491723 0.463879 0
M  V30 237 H 19.7792 -0.973053 1.80889 0
M  V30 238 H 18.0092 -3.51936 1.60243 0
M  V30 239 H 19.6982 -3.51992 2.0213 0
M  V30 240 H 20.4642 -2.37835 4.22681 0
M  V30 241 H 16.3432 -3.20099 3.31749 0
M  V30 242 H 19.8872 -2.19791 6.62071 0
M  V30 243 H 15.7842 -3.0238 5.70295 0
M  V30 244 H 16.5522 -2.64864 7.74461 0
M  V30 245 N 19.2153 -1.21501 -1.00376 0
M  V30 246 C 20.1623 -0.975387 -2.09177 0
M  V30 247 C 21.1323 0.0990615 -1.65804 0
M  V30 248 O 22.3173 -0.0483147 -1.90739 0
M  V30 249 C 19.4573 -0.547507 -3.40729 0
M  V30 250 C 18.5703 -1.69153 -3.97506 0
M  V30 251 C 17.7053 -1.2127 -5.17172 0
M  V30 252 C 16.7443 -2.32897 -5.66061 0
M  V30 253 N 15.8813 -1.86138 -6.76976 0
M  V30 254 H 20.7213 -1.9068 -2.29009 0
M  V30 255 H 18.2583 -0.950257 -1.12288 0
M  V30 256 H 20.2163 -0.280667 -4.16255 0
M  V30 257 H 18.8463 0.346904 -3.20931 0
M  V30 258 H 17.8983 -2.07298 -3.18954 0
M  V30 259 H 19.2103 -2.5316 -4.29781 0
M  V30 260 H 18.3643 -0.902591 -5.99948 0
M  V30 261 H 17.1033 -0.342692 -4.86495 0
M  V30 262 H 16.1083 -2.64709 -4.81881 0
M  V30 263 H 17.3333 -3.20396 -5.98768 0
M  V30 264 H 15.2793 -1.01484 -6.48103 0
M  V30 265 H 15.1963 -2.63717 -7.08512 0
M  V30 266 H 16.4643 -1.58165 -7.63285 0
M  V30 267 N 20.6934 1.19889 -1.02296 0
M  V30 268 C 21.9334 1.91125 -0.724602 0
M  V30 269 C 22.2974 1.77464 0.732835 0
M  V30 270 O 23.4984 2.43241 1.144 0
M  V30 271 C 21.7694 3.38187 -1.15604 0
M  V30 272 S 23.3284 4.27702 -0.980621 0
M  V30 273 H 20.1464 0.66018 -0.263976 0
M  V30 274 H 22.7484 1.44978 -1.31155 0
M  V30 275 H 21.4524 3.45653 -2.21251 0
M  V30 276 H 20.9834 3.89363 -0.562131 0
M  V30 277 H 22.9984 4.96073 0.112225 0
M  V30 278 N 22.1715 0.800033 1.35784 0
M  V30 279 C 23.1045 0.151499 2.27697 0
M  V30 280 C 24.0825 -0.678663 1.4776 0
M  V30 281 O 25.2665 -0.647358 1.77035 0
M  V30 282 C 22.3935 -0.790492 3.29346 0
M  V30 283 C 21.4395 -0.0407832 4.26481 0
M  V30 284 S 22.2725 1.29077 5.19711 0
M  V30 285 C 23.4285 0.353055 6.24903 0
M  V30 286 H 23.6615 0.930796 2.82353 0
M  V30 287 H 21.1945 0.594767 1.42485 0
M  V30 288 H 23.1525 -1.3285 3.88409 0
M  V30 289 H 21.8135 -1.54312 2.73581 0
M  V30 290 H 21.0065 -0.755971 4.98298 0
M  V30 291 H 20.6085 0.427063 3.71554 0
M  V30 292 H 22.9005 -0.464147 6.75908 0
M  V30 293 H 23.8435 1.04023 7.00418 0
M  V30 294 H 24.2515 -0.0483344 5.64479 0
M  V30 295 N 23.6496 -1.47581 0.552962 0
M  V30 296 C 24.5796 -2.32762 -0.185451 0
M  V30 297 C 25.5606 -1.43527 -0.912905 0
M  V30 298 O 26.7456 -1.72388 -0.894201 0
M  V30 299 C 23.8756 -3.25219 -1.21859 0
M  V30 300 C 22.8296 -4.23661 -0.607864 0
M  V30 301 C 22.1556 -5.05413 -1.74533 0
M  V30 302 C 23.4556 -5.20481 0.435582 0
M  V30 303 H 25.1496 -2.94749 0.525684 0
M  V30 304 H 22.6956 -1.41738 0.254251 0
M  V30 305 H 24.6486 -3.8365 -1.7433 0
M  V30 306 H 23.3726 -2.61279 -1.95961 0
M  V30 307 H 22.0316 -3.66451 -0.104489 0
M  V30 308 H 21.6796 -4.3788 -2.47529 0
M  V30 309 H 21.3796 -5.72059 -1.34249 0
M  V30 310 H 22.9036 -5.66701 -2.27338 0
M  V30 311 H 24.3176 -5.733 -0.00290157 0
M  V30 312 H 22.7146 -5.95305 0.757067 0
M  V30 313 H 23.7846 -4.66217 1.33303 0
M  V30 314 N 25.1277 -0.289203 -1.54924 0
M  V30 315 C 26.3767 0.324231 -1.99077 0
M  V30 316 C 26.6897 1.5591 -1.18117 0
M  V30 317 O 27.8957 2.24637 -1.52481 0
M  V30 318 C 26.3517 0.628209 -3.54375 0
M  V30 319 C 25.9597 -0.587647 -4.44129 0
M  V30 320 C 27.7037 1.20349 -4.07083 0
M  V30 321 C 25.6107 -0.257475 -5.90839 0
M  V30 322 H 24.5407 0.124924 -0.743579 0
M  V30 323 H 27.1917 -0.396063 -1.79175 0
M  V30 324 H 25.5737 1.40778 -3.70132 0
M  V30 325 H 26.7477 -1.36418 -4.40144 0
M  V30 326 H 25.0627 -1.08074 -4.0213 0
M  V30 327 H 27.6597 1.46456 -5.14252 0
M  V30 328 H 28.0027 2.14195 -3.56968 0
M  V30 329 H 28.5357 0.485889 -3.94821 0
M  V30 330 H 25.2747 -1.16419 -6.45079 0
M  V30 331 H 24.7947 0.482018 -5.9786 0
M  V30 332 H 26.4737 0.145238 -6.46837 0
M  V30 333 N 26.6058 1.57591 -0.0167156 0
M  V30 334 C 28.0168 1.79201 0.523834 0
M  V30 335 C 28.3678 0.925796 1.72984 0
M  V30 336 O 27.4928 0.132792 2.15992 0
M  V30 337 C 28.0878 3.25 0.957091 0
M  V30 338 C 26.6468 3.47648 1.44283 0
M  V30 339 C 25.7938 2.74374 0.401757 0
M  V30 340 H 28.7448 1.56831 -0.242816 0
M  V30 341 H 28.7658 3.34031 1.82219 0
M  V30 342 H 28.2778 3.88019 0.0791415 0
M  V30 343 H 26.3788 2.89866 2.34113 0
M  V30 344 H 26.4918 4.56352 1.45877 0
M  V30 345 H 24.8558 2.39485 0.867121 0
M  V30 346 H 25.6388 3.40102 -0.467513 0
M  V30 347 N 28.0839 -0.256276 1.55502 0
M  V30 348 C 29.0139 -1.32102 1.92539 0
M  V30 349 C 29.9949 -1.50684 0.789194 0
M  V30 350 O 31.1799 -1.63449 1.04872 0
M  V30 351 C 28.3099 -2.67752 2.21192 0
M  V30 352 C 27.2639 -2.63878 3.36975 0
M  V30 353 C 26.5899 -4.03236 3.51147 0
M  V30 354 C 27.8899 -2.21682 4.72921 0
M  V30 355 H 29.5839 -1.01351 2.81724 0
M  V30 356 H 27.1299 -0.486105 1.35547 0
M  V30 357 H 29.0829 -3.42365 2.45691 0
M  V30 358 H 27.8069 -3.0012 1.28824 0
M  V30 359 H 26.4659 -1.91722 3.12471 0
M  V30 360 H 26.1139 -4.32854 2.56216 0
M  V30 361 H 25.8139 -4.01535 4.29003 0
M  V30 362 H 27.3379 -4.79563 3.77957 0
M  V30 363 H 28.7519 -2.86023 4.96854 0
M  V30 364 H 27.1489 -2.3111 5.53812 0
M  V30 365 H 28.2189 -1.16833 4.70615 0
M  V30 366 N 29.562 -1.4872 -0.521534 0
M  V30 367 C 30.492 -1.66771 -1.63431 0
M  V30 368 C 31.473 -0.516499 -1.62069 0
M  V30 369 O 32.658 -0.750013 -1.79132 0
M  V30 370 C 29.788 -1.71515 -3.01993 0
M  V30 371 C 28.742 -2.86222 -3.18216 0
M  V30 372 C 28.068 -2.76061 -4.57924 0
M  V30 373 C 29.368 -4.27419 -3.00184 0
M  V30 374 H 31.062 -2.59932 -1.48579 0
M  V30 375 H 28.608 -1.25089 -0.713358 0
M  V30 376 H 30.561 -1.82731 -3.7972 0
M  V30 377 H 29.285 -0.749393 -3.17886 0
M  V30 378 H 27.944 -2.74575 -2.42908 0
M  V30 379 H 27.592 -1.77437 -4.70665 0
M  V30 380 H 27.292 -3.53037 -4.69722 0
M  V30 381 H 28.816 -2.89256 -5.37739 0
M  V30 382 H 30.23 -4.39855 -3.67697 0
M  V30 383 H 28.627 -5.05458 -3.2347 0
M  V30 384 H 29.697 -4.43293 -1.96518 0
M  V30 385 N 31.0401 0.771051 -1.3745 0
M  V30 386 C 32.2681 1.56015 -1.35893 0
M  V30 387 C 32.6831 1.88718 0.0555523 0
M  V30 388 O 32.0401 1.51502 1.01752 0
M  V30 389 C 32.0911 2.87001 -2.19801 0
M  V30 390 O 31.8121 2.557 -3.55738 0
M  V30 391 C 33.3131 3.81228 -2.26231 0
M  V30 392 H 30.5331 0.483317 -0.465453 0
M  V30 393 H 33.0771 0.955611 -1.80799 0
M  V30 394 H 31.2321 3.43877 -1.78402 0
M  V30 395 H 31.6461 3.39584 -3.99729 0
M  V30 396 H 33.1201 4.70139 -2.89263 0
M  V30 397 H 33.5971 4.20409 -1.27093 0
M  V30 398 H 34.2031 3.30281 -2.67945 0
M  V30 399 N 32.5182 1.22032 0.997298 0
M  V30 400 C 33.7652 1.04222 1.73621 0
M  V30 401 C 34.0932 -0.423264 1.89839 0
M  V30 402 O 33.3482 -1.3302 1.43542 0
M  V30 403 C 33.6472 1.69345 3.14733 0
M  V30 404 C 33.3132 3.19226 3.18442 0
M  V30 405 C 31.9752 3.60124 3.19161 0
M  V30 406 C 34.3272 4.15181 3.15078 0
M  V30 407 C 31.6552 4.95467 3.14212 0
M  V30 408 C 34.0072 5.50495 3.1167 0
M  V30 409 C 32.6712 5.90779 3.10703 0
M  V30 410 H 31.9412 0.381374 0.635323 0
M  V30 411 H 34.5882 1.51732 1.16831 0
M  V30 412 H 32.8932 1.14147 3.74803 0
M  V30 413 H 34.5902 1.53059 3.7064 0
M  V30 414 H 31.1802 2.86659 3.18629 0
M  V30 415 H 35.3642 3.84605 3.13676 0
M  V30 416 H 30.6202 5.25916 3.11805 0
M  V30 417 H 34.7942 6.24576 3.08022 0
M  V30 418 H 32.4212 6.9562 3.06622 0
M  V30 419 N 33.9963 -1.19345 1.0293 0
M  V30 420 C 35.2243 -1.92997 0.745644 0
M  V30 421 C 35.6393 -1.75519 -0.695589 0
M  V30 422 O 34.9963 -1.07737 -1.47306 0
M  V30 423 C 35.0473 -3.44741 1.08792 0
M  V30 424 O 34.7683 -3.61658 2.47256 0
M  V30 425 C 36.2693 -4.35515 0.827129 0
M  V30 426 H 33.4893 -0.613042 0.272801 0
M  V30 427 H 36.0333 -1.51473 1.3739 0
M  V30 428 H 34.1883 -3.84097 0.504832 0
M  V30 429 H 34.6023 -4.55514 2.60015 0
M  V30 430 H 36.0763 -5.40589 1.11658 0
M  V30 431 H 36.5533 -4.38552 -0.238436 0
M  V30 432 H 37.1593 -4.01841 1.39297 0
M  V30 433 N 35.4744 -0.807222 -1.35358 0
M  V30 434 C 36.4214 -0.216037 -2.29787 0
M  V30 435 C 37.3914 0.650278 -1.52842 0
M  V30 436 O 38.5764 0.595227 -1.81278 0
M  V30 437 C 35.7164 0.628893 -3.39321 0
M  V30 438 C 34.8294 -0.257927 -4.31229 0
M  V30 439 C 33.9644 0.595069 -5.27856 0
M  V30 440 C 33.0034 -0.292111 -6.11403 0
M  V30 441 N 32.1404 0.520895 -7.00165 0
M  V30 442 H 36.9804 -1.02671 -2.79755 0
M  V30 443 H 34.5174 -0.517839 -1.37684 0
M  V30 444 H 36.4754 1.13393 -4.01494 0
M  V30 445 H 35.1054 1.40482 -2.90628 0
M  V30 446 H 34.1574 -0.881076 -3.70056 0
M  V30 447 H 35.4694 -0.940759 -4.89848 0
M  V30 448 H 34.6234 1.16522 -5.95405 0
M  V30 449 H 33.3624 1.31146 -4.69736 0
M  V30 450 H 32.3674 -0.874525 -5.428 0
M  V30 451 H 33.5924 -1.00638 -6.71602 0
M  V30 452 H 31.5384 1.22125 -6.44532 0
M  V30 453 H 31.4554 -0.103877 -7.55929 0
M  V30 454 H 32.7234 1.0743 -7.72062 0
M  V30 455 N 36.9525 1.47285 -0.560781 0
M  V30 456 C 38.2015 2.01668 -0.035895 0
M  V30 457 C 38.5145 1.44021 1.32353 0
M  V30 458 O 39.7205 1.90088 1.93853 0
M  V30 459 C 38.1765 3.59897 -0.0136659 0
M  V30 460 C 37.7845 4.26536 -1.37006 0
M  V30 461 C 39.5285 4.22017 0.458425 0
M  V30 462 C 37.4355 5.76782 -1.30675 0
M  V30 463 H 36.3655 0.753938 -0.00964879 0
M  V30 464 H 39.0165 1.69243 -0.709166 0
M  V30 465 H 37.3985 3.89301 0.725325 0
M  V30 466 H 38.5725 4.0877 -2.12705 0
M  V30 467 H 36.8875 3.76419 -1.78038 0
M  V30 468 H 39.4845 5.32124 0.524247 0
M  V30 469 H 39.8275 3.89437 1.4712 0
M  V30 470 H 40.3605 3.97159 -0.225818 0
M  V30 471 H 37.0995 6.13988 -2.29564 0
M  V30 472 H 36.6195 5.96875 -0.591622 0
M  V30 473 H 38.2985 6.39063 -1.01033 0
M  V30 474 N 38.4306 0.297415 1.54768 0
M  V30 475 C 39.6556 -0.318435 2.04941 0
M  V30 476 C 40.0806 -1.4701 1.17345 0
M  V30 477 O 39.4386 -1.80436 0.176758 0
M  V30 478 C 39.4866 -0.755749 3.52592 0
M  V30 479 O 38.5906 -1.86088 3.68028 0
M  V30 480 H 37.9316 -0.062421 0.661059 0
M  V30 481 H 40.4616 0.438215 1.99852 0
M  V30 482 H 40.4716 -1.04552 3.94376 0
M  V30 483 H 39.1466 0.0867233 4.1581 0
M  V30 484 H 37.7236 -1.57193 3.38149 0
M  V30 485 N 39.9087 -1.5758 0.0250728 0
M  V30 486 C 41.1577 -1.90811 -0.653767 0
M  V30 487 C 41.4707 -0.90273 -1.73523 0
M  V30 488 O 42.6767 -1.12614 -2.47043 0
M  V30 489 C 41.1327 -3.38804 -1.21409 0
M  V30 490 C 40.7407 -4.47692 -0.166126 0
M  V30 491 C 42.4847 -3.81108 -1.86967 0
M  V30 492 C 40.3917 -5.86779 -0.737856 0
M  V30 493 H 39.3217 -0.712063 -0.247956 0
M  V30 494 H 41.9727 -1.83281 0.0897137 0
M  V30 495 H 40.3547 -3.41252 -2.00905 0
M  V30 496 H 41.5287 -4.56797 0.606079 0
M  V30 497 H 39.8437 -4.14565 0.390466 0
M  V30 498 H 42.4407 -4.82375 -2.30692 0
M  V30 499 H 42.7837 -3.15953 -2.71071 0
M  V30 500 H 43.3167 -3.81065 -1.14167 0
M  V30 501 H 40.0557 -6.55468 0.0649577 0
M  V30 502 H 39.5757 -5.81288 -1.47864 0
M  V30 503 H 41.2547 -6.35223 -1.22884 0
M  V30 504 N 41.3868 0.248026 -1.55636 0
M  V30 505 C 42.6358 0.974134 -1.76617 0
M  V30 506 C 42.9488 1.86528 -0.588796 0
M  V30 507 O 44.1548 2.62805 -0.681594 0
M  V30 508 C 42.6108 1.78213 -3.12679 0
M  V30 509 C 42.2188 0.93843 -4.38061 0
M  V30 510 C 43.9628 2.50104 -3.42999 0
M  V30 511 C 41.8698 1.74225 -5.65155 0
M  V30 512 H 40.7998 0.36745 -0.658405 0
M  V30 513 H 43.4508 0.22884 -1.82067 0
M  V30 514 H 41.8328 2.56933 -3.01333 0
M  V30 515 H 43.0068 0.193635 -4.60393 0
M  V30 516 H 41.3218 0.332905 -4.15067 0
M  V30 517 H 43.9188 3.10694 -4.3517 0
M  V30 518 H 44.2618 3.21662 -2.64271 0
M  V30 519 H 44.7948 1.78395 -3.55556 0
M  V30 520 H 41.5338 1.07043 -6.46701 0
M  V30 521 H 41.0538 2.46235 -5.46926 0
M  V30 522 H 42.7328 2.30967 -6.0437 0
M  V30 523 N 42.8649 1.48995 0.513639 0
M  V30 524 C 44.0899 1.61792 1.29762 0
M  V30 525 C 44.5149 0.284475 1.85936 0
M  V30 526 O 43.8729 -0.746185 1.65232 0
M  V30 527 C 43.9209 2.67993 2.41272 0
M  V30 528 O 43.0249 2.26287 3.44772 0
M  V30 529 H 42.3659 0.541963 0.38363 0
M  V30 530 H 44.8959 1.95097 0.616307 0
M  V30 531 H 44.9059 2.89772 2.87221 0
M  V30 532 H 43.5809 3.64791 1.9975 0
M  V30 533 H 42.1579 2.14788 3.04829 0
M  V30 534 N 44.343 -0.763751 1.37857 0
M  V30 535 C 45.29 -1.87726 1.34267 0
M  V30 536 C 46.26 -1.64807 0.206879 0
M  V30 537 O 47.445 -1.86613 0.397508 0
M  V30 538 C 44.585 -3.24896 1.16346 0
M  V30 539 C 43.698 -3.59716 2.39225 0
M  V30 540 C 42.833 -4.86137 2.14114 0
M  V30 541 C 41.872 -5.13711 3.32817 0
M  V30 542 N 41.009 -6.31323 3.07206 0
M  V30 543 H 45.849 -1.90129 2.29466 0
M  V30 544 H 43.386 -0.929433 1.14017 0
M  V30 545 H 45.344 -4.04036 1.03975 0
M  V30 546 H 43.974 -3.21847 0.247909 0
M  V30 547 H 43.026 -2.75498 2.62307 0
M  V30 548 H 44.338 -3.76027 3.27728 0
M  V30 549 H 43.492 -5.73198 1.9882 0
M  V30 550 H 42.231 -4.71945 1.22961 0
M  V30 551 H 41.236 -4.25123 3.48641 0
M  V30 552 H 42.461 -5.29807 4.24832 0
M  V30 553 H 40.407 -6.18474 2.1869 0
M  V30 554 H 40.324 -6.48087 3.89254 0
M  V30 555 H 41.592 -7.213 2.95546 0
M  V30 556 N 45.8211 -1.22559 -0.990812 0
M  V30 557 C 47.2321 -1.04791 -1.54518 0
M  V30 558 C 47.5831 0.387998 -1.92325 0
M  V30 559 O 46.7081 1.27328 -1.74976 0
M  V30 560 C 47.3031 -1.896 -2.80779 0
M  V30 561 C 45.8621 -1.76124 -3.32652 0
M  V30 562 C 45.0091 -1.8594 -2.05722 0
M  V30 563 H 47.9601 -1.36374 -0.811662 0
M  V30 564 H 47.9811 -1.41464 -3.53225 0
M  V30 565 H 47.4931 -2.94101 -2.53231 0
M  V30 566 H 45.5941 -0.743643 -3.65104 0
M  V30 567 H 45.7071 -2.58913 -4.03114 0
M  V30 568 H 44.0711 -1.29403 -2.19379 0
M  V30 569 H 44.8541 -2.91976 -1.80568 0
M  V30 570 N 47.2992 1.18797 -1.03562 0
M  V30 571 C 48.2312 2.21731 -0.580337 0
M  V30 572 C 49.2442 1.59051 0.347349 0
M  V30 573 O 50.4332 1.77929 0.142669 0
M  V30 574 C 47.5332 3.38459 0.172805 0
M  V30 575 C 46.7062 4.3072 -0.761496 0
M  V30 576 C 45.7652 5.26174 -0.0525547 0
M  V30 577 O 44.7912 5.65108 -0.681333 0
M  V30 578 N 45.9932 5.67624 1.21586 0
M  V30 579 H 48.7582 2.61417 -1.46565 0
M  V30 580 H 46.3192 1.33531 -0.915476 0
M  V30 581 H 48.3112 3.99335 0.656793 0
M  V30 582 H 46.8812 2.97507 0.959602 0
M  V30 583 H 46.1012 3.67525 -1.42544 0
M  V30 584 H 47.3892 4.89267 -1.39626 0
M  V30 585 H 46.7872 5.38038 1.74732 0
M  V30 586 H 45.3442 6.30721 1.64421 0
M  V30 587 N 48.7773 0.814389 1.34928 0
M  V30 588 C 49.6873 0.231978 2.3345 0
M  V30 589 C 50.7033 -0.629139 1.62228 0
M  V30 590 O 51.8793 -0.539052 1.94052 0
M  V30 591 C 48.9443 -0.603482 3.41407 0
M  V30 592 C 48.0053 0.279037 4.28392 0
M  V30 593 C 47.2383 -0.516643 5.31193 0
M  V30 594 O 47.4613 -1.75068 5.4287 0
M  V30 595 O 46.3953 0.0965652 6.01823 0
M  V30 596 H 50.2213 1.04721 2.85074 0
M  V30 597 H 47.8063 0.576343 1.37836 0
M  V30 598 H 49.6883 -1.07908 4.0735 0
M  V30 599 H 48.3633 -1.39618 2.92042 0
M  V30 600 H 47.2703 0.801948 3.65403 0
M  V30 601 H 48.6033 1.03588 4.81176 0
M  V30 602 N 50.2554 -1.46986 0.568584 0
M  V30 603 C 51.4804 -2.07335 0.0520528 0
M  V30 604 C 51.9054 -1.41675 -1.23733 0
M  V30 605 O 51.2634 -0.495623 -1.74394 0
M  V30 606 C 51.3114 -3.60417 -0.11501 0
M  V30 607 O 50.4154 -3.95309 -1.17492 0
M  V30 608 H 49.7564 -0.661597 0.0564385 0
M  V30 609 H 52.2864 -1.88837 0.787507 0
M  V30 610 H 52.2964 -4.06698 -0.325644 0
M  V30 611 H 50.9714 -4.07601 0.826675 0
M  V30 612 H 49.5484 -3.60757 -0.943869 0
M  V30 613 N 51.7335 -0.305618 -1.54608 0
M  V30 614 C 53.1495 0.0476228 -1.59529 0
M  V30 615 C 53.3495 1.52025 -1.32252 0
M  V30 616 O 52.4055 2.27368 -1.09818 0
M  V30 617 C 53.7185 -0.354471 -2.98603 0
M  V30 618 C 55.2665 -0.303622 -3.11524 0
M  V30 619 C 55.7415 -0.680608 -4.52915 0
M  V30 620 N 57.2325 -0.63332 -4.5885 0
M  V30 621 C 57.9675 -0.897432 -5.66334 0
M  V30 622 N 57.4635 -1.22775 -6.81834 0
M  V30 623 N 59.2565 -0.824186 -5.56025 0
M  V30 624 H 51.4075 -1.2653 -1.70599 0
M  V30 625 H 53.6705 -0.513291 -0.797017 0
M  V30 626 H 53.3765 -1.3798 -3.23503 0
M  V30 627 H 53.2505 0.289568 -3.76087 0
M  V30 628 H 55.6375 0.712472 -2.8637 0
M  V30 629 H 55.7185 -0.982348 -2.36185 0
M  V30 630 H 55.3625 -1.69453 -4.78799 0
M  V30 631 H 55.2925 0.0202385 -5.26596 0
M  V30 632 H 57.7835 -0.389138 -3.75891 0
M  V30 633 H 58.0965 -1.41513 -7.59733 0
M  V30 634 H 56.4415 -1.26583 -6.83375 0
M  V30 635 H 59.6325 -0.565748 -4.64669 0
M  V30 636 H 59.8055 -1.03338 -6.39707 0
M  V30 637 N 53.2116 1.57565 -0.0334293 0
M  V30 638 C 54.4606 1.91155 0.643639 0
M  V30 639 C 54.7736 0.91192 1.73042 0
M  V30 640 O 55.9796 1.13923 2.46442 0
M  V30 641 C 54.4356 3.39443 1.1961 0
M  V30 642 C 54.0436 4.47774 0.142381 0
M  V30 643 C 55.7876 3.82094 1.84944 0
M  V30 644 C 53.6946 5.87162 0.706727 0
M  V30 645 H 52.6246 0.713368 0.244176 0
M  V30 646 H 55.2756 1.8323 -0.0994323 0
M  V30 647 H 53.6576 3.42313 1.99092 0
M  V30 648 H 54.8316 4.56469 -0.630296 0
M  V30 649 H 53.1466 4.14352 -0.412446 0
M  V30 650 H 55.7436 4.83591 2.2813 0
M  V30 651 H 56.0866 3.17386 2.69392 0
M  V30 652 H 56.6196 3.81665 1.12145 0
M  V30 653 H 53.3586 6.55424 -0.0997178 0
M  V30 654 H 52.8786 5.82064 1.44779 0
M  V30 655 H 54.5576 6.35866 1.19514 0
M  V30 656 N 54.6897 -0.239769 1.55765 0
M  V30 657 C 55.9147 -0.988373 1.82335 0
M  V30 658 C 56.3397 -1.77886 0.611421 0
M  V30 659 O 55.6977 -1.75889 -0.439639 0
M  V30 660 C 55.7457 -1.89627 3.06715 0
M  V30 661 O 54.8497 -2.98904 2.84131 0
M  V30 662 H 54.1907 -0.280858 0.601677 0
M  V30 663 H 56.7207 -0.258597 2.02959 0
M  V30 664 H 56.7307 -2.30957 3.36338 0
M  V30 665 H 55.4057 -1.31511 3.9456 0
M  V30 666 H 53.9827 -2.61651 2.65694 0
M  V30 667 N 56.1678 -1.49265 -0.50573 0
M  V30 668 C 57.0978 -1.68495 -1.61653 0
M  V30 669 C 58.0788 -0.53366 -1.61512 0
M  V30 670 O 59.2638 -0.76897 -1.78327 0
M  V30 671 C 56.3938 -1.74709 -3.00157 0
M  V30 672 C 55.3478 -2.89581 -3.15162 0
M  V30 673 C 54.6738 -2.80903 -4.5497 0
M  V30 674 C 55.9738 -4.30578 -2.95634 0
M  V30 675 H 57.6678 -2.61493 -1.45814 0
M  V30 676 H 55.2138 -1.25838 -0.70005 0
M  V30 677 H 57.1668 -1.86748 -3.77761 0
M  V30 678 H 55.8908 -0.783067 -3.17074 0
M  V30 679 H 54.5498 -2.77136 -2.39982 0
M  V30 680 H 54.1978 -1.82419 -4.68756 0
M  V30 681 H 53.8978 -3.57999 -4.65951 0
M  V30 682 H 55.4218 -2.94944 -5.34641 0
M  V30 683 H 56.8358 -4.4373 -3.63011 0
M  V30 684 H 55.2328 -5.0886 -3.18091 0
M  V30 685 H 56.3028 -4.45352 -1.91806 0
M  V30 686 N 57.6459 0.756429 -1.3826 0
M  V30 687 C 58.8949 1.51082 -1.3363 0
M  V30 688 C 59.2079 1.95467 0.0720068 0
M  V30 689 O 60.4139 2.7043 0.240834 0
M  V30 690 C 58.8699 2.72893 -2.34644 0
M  V30 691 C 58.4779 2.35544 -3.81081 0
M  V30 692 C 60.2219 3.50791 -2.39052 0
M  V30 693 C 58.1289 3.53948 -4.73787 0
M  V30 694 H 57.0589 0.56727 -0.49671 0
M  V30 695 H 59.7099 0.827147 -1.638 0
M  V30 696 H 58.0919 3.43227 -1.97513 0
M  V30 697 H 59.2659 1.72894 -4.27135 0
M  V30 698 H 57.5809 1.70786 -3.79764 0
M  V30 699 H 60.1779 4.38823 -3.05513 0
M  V30 700 H 60.5209 3.91745 -1.40861 0
M  V30 701 H 61.0539 2.87467 -2.74968 0
M  V30 702 H 57.7929 3.18064 -5.73163 0
M  V30 703 H 57.3129 4.15651 -4.32428 0
M  V30 704 H 58.9919 4.20566 -4.91663 0
M  V30 705 N 59.124 1.23083 0.984299 0
M  V30 706 C 60.373 1.05466 1.71929 0
M  V30 707 C 60.686 -0.409211 1.91272 0
M  V30 708 O 61.892 -0.705226 2.62181 0
M  V30 709 C 60.348 1.83874 3.09384 0
M  V30 710 C 59.956 3.34566 2.97943 0
M  V30 711 C 61.7 1.74734 3.8687 0
M  V30 712 C 59.607 4.05381 4.30605 0
M  V30 713 H 58.537 0.391039 0.644674 0
M  V30 714 H 61.188 1.47013 1.09815 0
M  V30 715 H 59.57 1.35131 3.72231 0
M  V30 716 H 60.744 3.90767 2.44209 0
M  V30 717 H 59.059 3.44476 2.33934 0
M  V30 718 H 61.656 2.24957 4.85076 0
M  V30 719 H 61.999 0.709372 4.10212 0
M  V30 720 H 62.532 2.21067 3.30717 0
M  V30 721 H 59.271 5.09467 4.1246 0
M  V30 722 H 58.791 3.53967 4.84218 0
M  V30 723 H 60.47 4.11458 4.99311 0
M  V30 724 N 60.6021 -1.18246 1.0419 0
M  V30 725 C 61.8421 -1.89948 0.754916 0
M  V30 726 C 62.2061 -1.78608 -0.70451 0
M  V30 727 O 63.4071 -2.4503 -1.10516 0
M  V30 728 C 61.6781 -3.36305 1.20969 0
M  V30 729 S 63.2371 -4.26088 1.04854 0
M  V30 730 H 60.0551 -0.655897 0.274446 0
M  V30 731 H 62.6571 -1.42873 1.33445 0
M  V30 732 H 61.3611 -3.42089 2.26722 0
M  V30 733 H 60.8921 -3.8842 0.624004 0
M  V30 734 H 62.9071 -4.96189 -0.0332896 0
M  V30 735 N 62.0802 -0.821533 -1.34494 0
M  V30 736 C 63.4962 -0.507117 -1.51329 0
M  V30 737 C 63.6962 0.968964 -1.76673 0
M  V30 738 O 62.7522 1.75348 -1.81685 0
M  V30 739 C 64.0652 -1.36544 -2.67911 0
M  V30 740 C 65.6132 -1.36242 -2.81793 0
M  V30 741 C 66.0882 -2.2052 -4.01416 0
M  V30 742 N 67.5792 -2.18136 -4.08621 0
M  V30 743 C 68.3142 -2.80095 -5.00334 0
M  V30 744 N 67.8102 -3.51039 -5.9728 0
M  V30 745 N 69.6032 -2.69656 -4.93196 0
M  V30 746 H 61.7542 -1.77729 -1.16302 0
M  V30 747 H 64.0172 -0.757291 -0.570276 0
M  V30 748 H 63.7232 -2.41361 -2.55808 0
M  V30 749 H 63.5972 -1.02917 -3.62888 0
M  V30 750 H 65.9842 -0.322041 -2.93338 0
M  V30 751 H 66.0652 -1.73866 -1.87628 0
M  V30 752 H 65.7092 -3.24607 -3.90631 0
M  V30 753 H 65.6392 -1.80247 -4.94791 0
M  V30 754 H 68.1302 -1.6653 -3.39229 0
M  V30 755 H 68.4432 -3.95565 -6.63889 0
M  V30 756 H 66.7882 -3.55145 -5.97409 0
M  V30 757 H 69.9792 -2.13808 -4.16418 0
M  V30 758 H 70.1522 -3.1823 -5.64476 0
M  V30 759 N 63.5583 1.46682 -0.576371 0
M  V30 760 C 64.7863 2.06798 -0.0649635 0
M  V30 761 C 65.2013 1.42612 1.23723 0
M  V30 762 O 64.5583 0.529203 1.74659 0
M  V30 763 C 64.6093 3.6132 0.114202 0
M  V30 764 O 64.3303 4.23104 -1.13644 0
M  V30 765 C 65.8313 4.38349 0.66069 0
M  V30 766 H 63.0513 0.668778 -0.0545616 0
M  V30 767 H 65.5953 1.88404 -0.795237 0
M  V30 768 H 63.7503 3.79162 0.794673 0
M  V30 769 H 64.1643 5.15894 -0.946253 0
M  V30 770 H 65.6383 5.47081 0.73526 0
M  V30 771 H 66.1153 4.05953 1.67627 0
M  V30 772 H 66.7213 4.25297 0.0152951 0
M  V30 773 N 65.0364 0.313813 1.54444 0
M  V30 774 C 65.9694 -0.598866 2.20202 0
M  V30 775 C 66.9474 -1.12318 1.17573 0
M  V30 776 O 68.1314 -1.18899 1.46271 0
M  V30 777 C 65.2584 -1.82071 2.85601 0
M  V30 778 C 64.3044 -1.42851 4.01865 0
M  V30 779 S 65.1374 -0.473512 5.33402 0
M  V30 780 C 66.2934 -1.70286 6.0229 0
M  V30 781 H 66.5264 -0.0402532 2.97273 0
M  V30 782 H 64.0594 0.0979165 1.54089 0
M  V30 783 H 66.0174 -2.52184 3.23904 0
M  V30 784 H 64.6784 -2.3505 2.08351 0
M  V30 785 H 63.8714 -2.33871 4.46453 0
M  V30 786 H 63.4734 -0.807198 3.65185 0
M  V30 787 H 65.7654 -2.64168 6.23876 0
M  V30 788 H 66.7084 -1.29932 6.96077 0
M  V30 789 H 67.1164 -1.88541 5.32083 0
M  V30 790 N 66.5145 -1.57545 0.0417849 0
M  V30 791 C 67.9255 -1.80011 -0.495259 0
M  V30 792 C 68.2765 -0.953199 -1.71489 0
M  V30 793 O 67.4015 -0.167138 -2.15754 0
M  V30 794 C 67.9965 -3.26482 -0.905265 0
M  V30 795 C 66.5555 -3.499 -1.38734 0
M  V30 796 C 65.7025 -2.74979 -0.358056 0
M  V30 797 H 68.6535 -1.56425 0.267736 0
M  V30 798 H 68.6745 -3.36887 -1.76882 0
M  V30 799 H 68.1865 -3.88096 -0.017401 0
M  V30 800 H 66.2875 -2.93553 -2.29471 0
M  V30 801 H 66.4005 -4.58615 -1.38598 0
M  V30 802 H 64.7645 -2.40834 -0.828912 0
M  V30 803 H 65.5475 -3.39315 0.521561 0
M  V30 804 N 67.9926 0.231505 -1.5589 0
M  V30 805 C 69.2206 0.974505 -1.82513 0
M  V30 806 C 69.6356 1.78344 -0.619591 0
M  V30 807 O 68.9926 1.77792 0.411848 0
M  V30 808 C 69.0436 1.90007 -3.07538 0
M  V30 809 O 68.7646 1.12385 -4.2344 0
M  V30 810 C 70.2656 2.75779 -3.47075 0
M  V30 811 H 67.4856 0.286065 -0.606966 0
M  V30 812 H 70.0296 0.249739 -2.02969 0
M  V30 813 H 68.1846 2.57891 -2.89086 0
M  V30 814 H 68.5986 1.75125 -4.944 0
M  V30 815 H 70.0726 3.36443 -4.37619 0
M  V30 816 H 70.5496 3.47672 -2.68367 0
M  V30 817 H 71.1556 2.13323 -3.67931 0
M  V30 818 N 69.4707 1.49531 0.497807 0
M  V30 819 C 70.7167 1.59415 1.25358 0
M  V30 820 C 71.0497 0.281422 1.9215 0
M  V30 821 O 70.3247 -0.715249 1.80871 0
M  V30 822 C 70.6077 2.75566 2.3181 0
M  V30 823 C 70.4607 4.16642 1.69498 0
M  V30 824 C 71.7797 2.87347 3.33346 0
M  V30 825 H 68.8987 0.580244 0.454408 0
M  V30 826 H 71.5407 1.81827 0.551262 0
M  V30 827 H 69.6907 2.56587 2.91711 0
M  V30 828 H 71.3627 4.47145 1.13399 0
M  V30 829 H 69.6057 4.22141 0.998978 0
M  V30 830 H 70.2767 4.93792 2.46725 0
M  V30 831 H 72.7527 3.04634 2.83438 0
M  V30 832 H 71.6287 3.70289 4.05188 0
M  V30 833 H 71.8897 1.96834 3.95865 0
M  V30 834 N 70.9488 -0.749086 1.3866 0
M  V30 835 C 71.9118 -1.84457 1.36045 0
M  V30 836 C 72.9118 -1.58682 0.260122 0
M  V30 837 O 74.1018 -1.66343 0.517261 0
M  V30 838 C 71.2338 -3.22008 1.11911 0
M  V30 839 H 72.4268 -1.88182 2.33512 0
M  V30 840 H 69.9798 -0.951266 1.24019 0
M  V30 841 H 70.7148 -3.2395 0.150686 0
M  V30 842 H 70.4998 -3.42111 1.91579 0
M  V30 843 H 71.9898 -4.0208 1.12788 0
M  V30 844 N 72.4269 -1.23603 -0.977757 0
M  V30 845 C 73.6549 -1.09646 -1.75458 0
M  V30 846 C 74.0699 0.351859 -1.85492 0
M  V30 847 O 73.4269 1.24327 -1.336 0
M  V30 848 C 73.4779 -1.71895 -3.18016 0
M  V30 849 O 73.1989 -3.11063 -3.08498 0
M  V30 850 C 74.6999 -1.63415 -4.12081 0
M  V30 851 H 71.9199 -0.38359 -0.550545 0
M  V30 852 H 74.4639 -1.63507 -1.22824 0
M  V30 853 H 72.6189 -1.22061 -3.67668 0
M  V30 854 H 73.0329 -3.41305 -3.9826 0
M  V30 855 H 74.5069 -2.11669 -5.09804 0
M  V30 856 H 74.9839 -0.593462 -4.35172 0
M  V30 857 H 75.5899 -2.12628 -3.68334 0
M  V30 858 N 73.905 1.17692 -1.04816 0
M  V30 859 C 75.152 1.87859 -0.75599 0
M  V30 860 C 75.48 1.80812 0.716752 0
M  V30 861 O 74.735 1.20819 1.53952 0
M  V30 862 C 75.034 3.37462 -1.17703 0
M  V30 863 C 74.7 3.64713 -2.65133 0
M  V30 864 C 73.362 3.71859 -3.05408 0
M  V30 865 C 75.714 3.76492 -3.60421 0
M  V30 866 C 73.042 3.88271 -4.39843 0
M  V30 867 C 75.394 3.94421 -4.94585 0
M  V30 868 C 74.058 3.99806 -5.3452 0
M  V30 869 H 73.328 0.687425 -0.276636 0
M  V30 870 H 75.975 1.39255 -1.31455 0
M  V30 871 H 74.28 3.88097 -0.537395 0
M  V30 872 H 75.977 3.90109 -0.928218 0
M  V30 873 H 72.567 3.59772 -2.32942 0
M  V30 874 H 76.751 3.70295 -3.30447 0
M  V30 875 H 72.007 3.90687 -4.70291 0
M  V30 876 H 76.181 4.02477 -5.68318 0
M  V30 877 H 73.808 4.12276 -6.38696 0
M  V30 878 N 75.3831 0.828654 1.34056 0
M  V30 879 C 76.3131 0.269443 2.3194 0
M  V30 880 C 77.2941 -0.617247 1.58506 0
M  V30 881 O 78.4791 -0.542931 1.86456 0
M  V30 882 C 75.6091 -0.564793 3.42677 0
M  V30 883 C 74.5631 0.225241 4.27407 0
M  V30 884 C 73.8891 -0.7321 5.29664 0
M  V30 885 C 75.1891 1.43663 5.02154 0
M  V30 886 H 76.8831 1.08728 2.7896 0
M  V30 887 H 74.4291 0.524283 1.34117 0
M  V30 888 H 76.3821 -0.966233 4.10173 0
M  V30 889 H 75.1061 -1.41574 2.9432 0
M  V30 890 H 73.7651 0.608117 3.61521 0
M  V30 891 H 73.4131 -1.57916 4.77568 0
M  V30 892 H 73.1131 -0.20767 5.87233 0
M  V30 893 H 74.6371 -1.13128 6.00029 0
M  V30 894 H 76.0511 1.1089 5.62473 0
M  V30 895 H 74.4481 1.89711 5.69324 0
M  V30 896 H 75.5181 2.21181 4.31517 0
M  V30 897 N 76.8612 -1.46375 0.584142 0
M  V30 898 C 78.1092 -2.01978 0.0701287 0
M  V30 899 C 78.4302 -1.4579 -1.295 0
M  V30 900 O 77.7002 -0.64314 -1.85042 0
M  V30 901 H 76.2802 -0.746648 0.0229345 0
M  V30 902 H 78.9422 -1.79461 0.760245 0
M  V30 903 H 78.0382 -3.121 0.0022064 0
M  V30 904 N 78.3393 -0.321999 -1.54275 0
M  V30 905 C 79.2693 0.537411 -2.27231 0
M  V30 906 C 80.2503 1.12064 -1.27968 0
M  V30 907 O 81.4353 1.14606 -1.56777 0
M  V30 908 C 78.5653 1.69919 -3.02894 0
M  V30 909 C 77.5193 1.24534 -4.09482 0
M  V30 910 C 76.8453 2.49394 -4.72977 0
M  V30 911 C 78.1453 0.361335 -5.21049 0
M  V30 912 H 79.8393 -0.0711406 -2.99315 0
M  V30 913 H 77.3853 -0.0356555 -1.43956 0
M  V30 914 H 79.3383 2.30668 -3.52662 0
M  V30 915 H 78.0623 2.33431 -2.28424 0
M  V30 916 H 76.7213 0.660782 -3.60596 0
M  V30 917 H 76.3693 3.11265 -3.95124 0
M  V30 918 H 76.0693 2.19718 -5.44975 0
M  V30 919 H 77.5933 3.10908 -5.25517 0
M  V30 920 H 79.0073 0.875072 -5.66582 0
M  V30 921 H 77.4043 0.157428 -5.99893 0
M  V30 922 H 78.4743 -0.60822 -4.8107 0
M  V30 923 N 79.8174 1.5752 -0.0501392 0
M  V30 924 C 80.7804 2.1037 0.909786 0
M  V30 925 C 81.7804 1.02308 1.24056 0
M  V30 926 O 82.9704 1.28385 1.17741 0
M  V30 927 C 80.1024 2.58708 2.21998 0
M  V30 928 H 81.2954 2.96479 0.451665 0
M  V30 929 H 78.8484 1.55038 0.198248 0
M  V30 930 H 79.5834 1.75989 2.72394 0
M  V30 931 H 79.3684 3.37675 1.99295 0
M  V30 932 H 80.8584 2.99747 2.9076 0
M  V30 933 N 81.2955 -0.223234 1.56011 0
M  V30 934 C 82.5445 -0.945912 1.78144 0
M  V30 935 C 82.8575 -1.85567 0.618396 0
M  V30 936 O 84.0635 -2.61688 0.723318 0
M  V30 937 C 82.5195 -1.73216 3.15475 0
M  V30 938 C 82.1275 -0.868619 4.39499 0
M  V30 939 C 83.8715 -2.44615 3.46935 0
M  V30 940 C 81.7785 -1.65212 5.67855 0
M  V30 941 H 80.7085 -0.356929 0.664167 0
M  V30 942 H 83.3595 -0.199845 1.82409 0
M  V30 943 H 81.7415 -2.52107 3.05382 0
M  V30 944 H 82.9155 -0.120366 4.60643 0
M  V30 945 H 81.2305 -0.26683 4.15544 0
M  V30 946 H 83.8275 -3.03732 4.40058 0
M  V30 947 H 84.1705 -3.17417 2.69355 0
M  V30 948 H 84.7035 -1.72715 3.58349 0
M  V30 949 H 81.4425 -0.967407 6.48322 0
M  V30 950 H 80.9625 -2.37503 5.50774 0
M  V30 951 H 82.6415 -2.21322 6.07968 0
M  V30 952 N 82.7736 -1.49793 -0.48987 0
M  V30 953 C 83.9986 -1.63836 -1.27172 0
M  V30 954 C 84.4236 -0.31402 -1.8546 0
M  V30 955 O 83.7816 0.719803 -1.66399 0
M  V30 956 C 83.8296 -2.71797 -2.36978 0
M  V30 957 O 82.9336 -2.31744 -3.41128 0
M  V30 958 H 82.2746 -0.547997 -0.37496 0
M  V30 959 H 84.8046 -1.96053 -0.585191 0
M  V30 960 H 84.8146 -2.94305 -2.82575 0
M  V30 961 H 83.4896 -3.67923 -1.93921 0
M  V30 962 H 82.0666 -2.1961 -3.01373 0
M  V30 963 N 84.2517 0.741722 -1.39055 0
M  V30 964 C 85.4997 1.49818 -1.35643 0
M  V30 965 C 85.8207 1.94938 0.0491642 0
M  V30 966 O 85.0907 1.68505 0.999141 0
M  V30 967 H 83.6707 0.555755 -0.499144 0
M  V30 968 H 86.3327 0.880957 -1.73854 0
M  V30 969 H 85.4287 2.38348 -2.01486 0
M  V30 970 N 85.7298 1.2412 0.971189 0
M  V30 971 C 86.6928 1.03156 2.04674 0
M  V30 972 C 87.6928 -0.00990322 1.60797 0
M  V30 973 O 88.8828 0.230729 1.72665 0
M  V30 974 C 86.0148 0.562765 3.36223 0
M  V30 975 H 87.2078 1.98614 2.24705 0
M  V30 976 H 84.7608 1.06293 1.14593 0
M  V30 977 H 85.4958 -0.395176 3.21883 0
M  V30 978 H 85.2808 1.31441 3.69413 0
M  V30 979 H 86.7708 0.437015 4.15307 0
M  V30 980 N 87.2079 -1.17134 1.05439 0
M  V30 981 C 88.1709 -2.19439 0.661764 0
M  V30 982 C 89.1709 -1.58199 -0.288042 0
M  V30 983 O 90.3609 -1.74053 -0.0715803 0
M  V30 984 C 87.4929 -3.40889 -0.0276209 0
M  V30 985 H 88.6859 -2.55688 1.56728 0
M  V30 986 H 86.2389 -1.31259 0.848567 0
M  V30 987 H 86.9739 -3.10187 -0.94629 0
M  V30 988 H 86.7589 -3.86586 0.655238 0
M  V30 989 H 88.2489 -4.16603 -0.288342 0
M  V30 990 N 88.686 -0.835752 -1.33615 0
M  V30 991 C 89.619 -0.211815 -2.27215 0
M  V30 992 C 90.597 0.639249 -1.49507 0
M  V30 993 O 91.781 0.600193 -1.78689 0
M  V30 994 C 88.908 0.702893 -3.31326 0
M  V30 995 C 87.954 -0.0723049 -4.26439 0
M  V30 996 S 88.787 -1.42811 -5.16106 0
M  V30 997 C 89.943 -0.518613 -6.23748 0
M  V30 998 H 90.176 -1.00533 -2.79786 0
M  V30 999 H 87.709 -0.632336 -1.40858 0
M  V30 1000 H 89.667 1.22505 -3.91794 0
M  V30 1001 H 88.328 1.47004 -2.77576 0
M  V30 1002 H 87.521 0.62359 -5.00127 0
M  V30 1003 H 87.123 -0.525424 -3.70291 0
M  V30 1004 H 89.415 0.284778 -6.76901 0
M  V30 1005 H 90.358 -1.22556 -6.97413 0
M  V30 1006 H 90.766 -0.101344 -5.64409 0
M  V30 1007 N 90.1641 1.46063 -0.591896 0
M  V30 1008 C 91.1271 2.28854 0.125973 0
M  V30 1009 C 92.1271 1.38903 0.810107 0
M  V30 1010 O 93.3171 1.61186 0.66066 0
M  V30 1011 C 90.4491 3.19526 1.1881 0
M  V30 1012 H 91.6421 2.93802 -0.601717 0
M  V30 1013 H 89.1951 1.52325 -0.350254 0
M  V30 1014 H 89.9301 2.59345 1.94707 0
M  V30 1015 H 89.7151 3.85766 0.701936 0
M  V30 1016 H 91.2051 3.81817 1.69132 0
M  V30 1017 N 91.6422 0.330177 1.54103 0
M  V30 1018 C 92.8672 -0.274893 2.0557 0
M  V30 1019 C 93.2922 -1.44487 1.20437 0
M  V30 1020 O 92.6502 -1.80021 0.214991 0
M  V30 1021 C 92.6982 -0.68079 3.54115 0
M  V30 1022 O 91.8022 -1.7824 3.71893 0
M  V30 1023 H 91.1432 -0.0483849 0.662235 0
M  V30 1024 H 93.6732 0.480508 1.98878 0
M  V30 1025 H 93.6832 -0.961635 3.96505 0
M  V30 1026 H 92.3582 0.174903 4.15532 0
M  V30 1027 H 90.9352 -1.49985 3.41407 0
M  V30 1028 N 93.1203 -1.57491 0.0584922 0
M  V30 1029 C 94.3683 -1.92597 -0.612436 0
M  V30 1030 C 94.6893 -0.938162 -1.70949 0
M  V30 1031 O 93.9593 0.0158301 -1.95894 0
M  V30 1032 H 92.5393 -0.710964 -0.229214 0
M  V30 1033 H 95.2013 -1.94571 0.113218 0
M  V30 1034 H 94.2973 -2.94038 -1.04633 0
M  V30 1035 N 94.5984 0.214957 -1.56127 0
M  V30 1036 C 95.5614 1.24997 -1.92116 0
M  V30 1037 C 96.5614 1.39467 -0.800344 0
M  V30 1038 O 97.7514 1.37619 -1.06802 0
M  V30 1039 C 94.8834 2.62271 -2.17777 0
M  V30 1040 H 96.0764 0.942875 -2.84693 0
M  V30 1041 H 93.6294 0.455654 -1.49511 0
M  V30 1042 H 94.3644 2.98068 -1.27773 0
M  V30 1043 H 94.1494 2.53143 -2.99434 0
M  V30 1044 H 95.6394 3.36946 -2.46693 0
M  V30 1045 N 96.0765 1.50051 0.48192 0
M  V30 1046 C 97.0395 1.67584 1.5636 0
M  V30 1047 C 98.0395 0.546894 1.51214 0
M  V30 1048 O 99.2295 0.813725 1.54026 0
M  V30 1049 C 96.3615 1.691 2.96003 0
M  V30 1050 H 97.5545 2.64078 1.42136 0
M  V30 1051 H 95.1075 1.39369 0.707533 0
M  V30 1052 H 95.8425 0.742589 3.15684 0
M  V30 1053 H 95.6275 2.51105 3.01146 0
M  V30 1054 H 97.1175 1.84656 3.74556 0
M  V30 1055 N 97.5546 -0.734337 1.39446 0
M  V30 1056 C 98.4846 -1.86155 1.40955 0
M  V30 1057 C 99.4656 -1.67898 0.272827 0
M  V30 1058 O 100.651 -1.88207 0.478743 0
M  V30 1059 C 97.7806 -3.23912 1.25294 0
M  V30 1060 C 96.7346 -3.56808 2.36373 0
M  V30 1061 C 96.0606 -4.93508 2.058 0
M  V30 1062 C 97.3606 -3.59713 3.78687 0
M  V30 1063 H 99.0546 -1.8515 2.35287 0
M  V30 1064 H 96.6006 -0.889367 1.13253 0
M  V30 1065 H 98.5536 -4.02443 1.2497 0
M  V30 1066 H 97.2776 -3.25446 0.274308 0
M  V30 1067 H 95.9366 -2.80606 2.35914 0
M  V30 1068 H 95.5846 -4.91623 1.06374 0
M  V30 1069 H 95.2846 -5.16486 2.80208 0
M  V30 1070 H 96.8086 -5.74396 2.07128 0
M  V30 1071 H 98.2226 -4.2832 3.81071 0
M  V30 1072 H 96.6196 -3.94209 4.52459 0
M  V30 1073 H 97.6896 -2.59504 4.09617 0
M  V30 1074 N 99.0327 -1.24633 -0.964593 0
M  V30 1075 C 100.281 -1.08573 -1.70459 0
M  V30 1076 C 100.602 0.375655 -1.91347 0
M  V30 1077 O 99.8717 1.26779 -1.49345 0
M  V30 1078 H 98.4517 -0.398784 -0.631649 0
M  V30 1079 H 101.114 -1.56601 -1.16026 0
M  V30 1080 H 100.21 -1.58623 -2.68785 0
M  V30 1081 N 100.511 1.16574 -1.06058 0
M  V30 1082 C 101.474 2.19085 -0.673392 0
M  V30 1083 C 102.474 1.5835 0.279648 0
M  V30 1084 O 103.664 1.74088 0.0623488 0
M  V30 1085 C 100.796 3.40899 0.00954234 0
M  V30 1086 H 101.989 2.54853 -1.58081 0
M  V30 1087 H 99.5418 1.30808 -0.855516 0
M  V30 1088 H 100.277 3.10684 0.929826 0
M  V30 1089 H 100.062 3.86233 -0.67573 0
M  V30 1090 H 101.552 4.1675 0.266245 0
M  V30 1091 N 101.989 0.842826 1.3317 0
M  V30 1092 C 103.219 0.453397 2.01564 0
M  V30 1093 C 103.627 -0.951147 1.63554 0
M  V30 1094 O 102.97 -1.63021 0.846746 0
M  V30 1095 C 103.032 0.499013 3.5602 0
M  V30 1096 C 102.696 1.86037 4.1742 0
M  V30 1097 C 103.693 2.82416 4.36506 0
M  V30 1098 C 101.378 2.15428 4.53757 0
M  V30 1099 C 103.372 4.06346 4.91082 0
M  V30 1100 C 101.059 3.39615 5.0804 0
M  V30 1101 C 102.057 4.3489 5.26649 0
M  V30 1102 O 101.745 5.5688 5.79776 0
M  V30 1103 H 101.477 0.177871 0.652179 0
M  V30 1104 H 104.031 1.13808 1.70988 0
M  V30 1105 H 102.261 -0.242467 3.85939 0
M  V30 1106 H 103.95 0.126852 4.05702 0
M  V30 1107 H 104.716 2.6101 4.08777 0
M  V30 1108 H 100.595 1.42061 4.38565 0
M  V30 1109 H 104.139 4.80722 5.05522 0
M  V30 1110 H 100.036 3.60876 5.352 0
M  V30 1111 H 100.804 5.58674 5.98185 0
M  V30 1112 N 103.467 -1.45747 0.599634 0
M  V30 1113 C 104.415 -2.322 -0.136426 0
M  V30 1114 C 105.409 -1.45497 -0.867583 0
M  V30 1115 O 106.615 -1.62027 -0.78405 0
M  V30 1116 H 102.99 -0.749368 -0.0628588 0
M  V30 1117 H 104.961 -2.92072 0.611281 0
M  V30 1118 C 103.71 -3.28974 -1.12567 0
M  V30 1119 H 103.033 -3.9568 -0.572484 0
M  V30 1120 H 104.473 -3.92212 -1.61077 0
M  V30 1121 C 102.932 -2.55561 -2.19523 0
M  V30 1122 O 103.462 -2.33111 -3.27143 0
M  V30 1123 N 101.668 -2.15832 -1.94589 0
M  V30 1124 H 101.215 -2.3429 -1.07078 0
M  V30 1125 H 101.173 -1.67034 -2.66359 0
M  V30 1126 N 104.945 -0.338344 -1.53925 0
M  V30 1127 C 106.191 0.260143 -2.01125 0
M  V30 1128 C 106.524 1.50617 -1.22589 0
M  V30 1129 O 105.799 1.91979 -0.312113 0
M  V30 1130 C 106.082 0.579499 -3.55407 0
M  V30 1131 C 105.935 -0.678264 -4.44657 0
M  V30 1132 C 107.254 1.39122 -4.17532 0
M  V30 1133 H 104.373 0.0930772 -0.731099 0
M  V30 1134 H 107.015 -0.457852 -1.84401 0
M  V30 1135 H 105.165 1.19118 -3.69788 0
M  V30 1136 H 106.837 -1.31631 -4.42121 0
M  V30 1137 H 105.08 -1.3042 -4.13731 0
M  V30 1138 H 105.751 -0.410143 -5.50474 0
M  V30 1139 H 108.227 0.874035 -4.06817 0
M  V30 1140 H 107.103 1.58342 -5.25565 0
M  V30 1141 H 107.364 2.39178 -3.71815 0
M  V30 1142 N 106.423 1.57458 -0.0668435 0
M  V30 1143 C 107.7 1.8469 0.644132 0
M  V30 1144 C 108.08 0.958343 1.88093 0
M  V30 1145 O 107.428 0.0233579 2.28488 0
M  V30 1146 C 107.638 3.34767 0.986509 0
M  V30 1147 C 108.986 4.02159 1.36212 0
M  V30 1148 O 110.01 3.39484 1.07839 0
M  V30 1149 O 108.869 5.12694 1.89227 0
M  V30 1150 H 105.963 0.762816 0.319437 0
M  V30 1151 H 108.509 1.6942 -0.0973986 0
M  V30 1152 H 107.281 3.91151 0.107883 0
M  V30 1153 H 106.904 3.55281 1.78497 0
M  V30 1154 N 107.901 -0.206675 1.56239 0
M  V30 1155 C 109.312 -0.772383 1.69974 0
M  V30 1156 C 109.663 -1.84353 0.671436 0
M  V30 1157 O 108.788 -2.15695 -0.174491 0
M  V30 1158 C 109.383 -1.40779 3.08167 0
M  V30 1159 C 107.942 -1.92072 3.23706 0
M  V30 1160 C 107.089 -0.786347 2.65917 0
M  V30 1161 H 110.04 0.0182223 1.5869 0
M  V30 1162 H 110.061 -2.27696 3.04852 0
M  V30 1163 H 109.573 -0.627958 3.82986 0
M  V30 1164 H 107.674 -2.7281 2.53782 0
M  V30 1165 H 107.787 -2.09046 4.31087 0
M  V30 1166 H 106.151 -1.1976 2.24788 0
M  V30 1167 H 106.934 -0.0189416 3.43295 0
M  V30 1168 N 109.379 -1.50304 -0.473955 0
M  V30 1169 C 110.327 -1.69482 -1.59307 0
M  V30 1170 C 111.321 -0.560669 -1.59853 0
M  V30 1171 O 112.527 -0.741087 -1.64036 0
M  V30 1172 H 108.902 -0.534892 -0.528578 0
M  V30 1173 H 110.873 -2.63364 -1.40293 0
M  V30 1174 C 109.622 -1.80354 -2.97267 0
M  V30 1175 H 108.945 -2.67012 -2.97564 0
M  V30 1176 H 110.385 -1.97798 -3.75036 0
M  V30 1177 C 108.844 -0.55448 -3.32306 0
M  V30 1178 O 109.374 0.307661 -4.0052 0
M  V30 1179 N 107.58 -0.409354 -2.87702 0
M  V30 1180 H 107.127 -1.11196 -2.32364 0
M  V30 1181 H 107.085 0.425223 -3.11511 0
M  V30 1182 N 110.857 0.726932 -1.39834 0
M  V30 1183 C 112.082 1.52121 -1.40976 0
M  V30 1184 C 112.507 1.88098 -0.00826029 0
M  V30 1185 O 111.865 1.52479 0.980807 0
M  V30 1186 C 111.913 2.78021 -2.29644 0
M  V30 1187 O 111.017 3.74272 -1.73188 0
M  V30 1188 H 110.358 0.45908 -0.479731 0
M  V30 1189 H 112.888 0.896207 -1.83927 0
M  V30 1190 H 112.898 3.26671 -2.44438 0
M  V30 1191 H 111.573 2.51169 -3.31492 0
M  V30 1192 H 110.15 3.33073 -1.6768 0
M  V30 1193 N 112.336 1.25143 0.95797 0
M  V30 1194 C 113.585 1.0909 1.69654 0
M  V30 1195 C 113.898 -0.368548 1.92097 0
M  V30 1196 O 115.104 -0.649455 2.63618 0
M  V30 1197 C 113.56 1.90395 3.05414 0
M  V30 1198 C 113.168 3.4081 2.90779 0
M  V30 1199 C 114.912 1.82901 3.83076 0
M  V30 1200 C 112.819 4.14423 4.21909 0
M  V30 1201 H 111.749 0.404625 0.636235 0
M  V30 1202 H 114.4 1.4931 1.06672 0
M  V30 1203 H 112.782 1.42996 3.69281 0
M  V30 1204 H 113.956 3.95859 2.35865 0
M  V30 1205 H 112.271 3.49361 2.26575 0
M  V30 1206 H 114.868 2.35196 4.80195 0
M  V30 1207 H 115.211 0.796224 4.08615 0
M  V30 1208 H 115.744 2.28033 3.25954 0
M  V30 1209 H 112.483 5.18102 4.01561 0
M  V30 1210 H 112.003 3.64159 4.76601 0
M  V30 1211 H 113.682 4.21956 4.90471 0
M  V30 1212 N 113.814 -1.1601 1.06675 0
M  V30 1213 C 115.039 -1.91068 0.806706 0
M  V30 1214 C 115.464 -1.77112 -0.633485 0
M  V30 1215 O 114.822 -1.09908 -1.44187 0
M  V30 1216 C 114.87 -3.39655 1.21106 0
M  V30 1217 O 113.974 -4.10893 0.352189 0
M  V30 1218 H 113.315 -0.595125 0.294486 0
M  V30 1219 H 115.845 -1.46955 1.42356 0
M  V30 1220 H 115.855 -3.90434 1.18428 0
M  V30 1221 H 114.53 -3.49132 2.26008 0
M  V30 1222 H 113.107 -3.70285 0.440868 0
M  V30 1223 N 115.292 -0.849877 -1.32721 0
M  V30 1224 C 116.538 -0.451591 -1.97708 0
M  V30 1225 C 116.871 0.989175 -1.6712 0
M  V30 1226 O 116.146 1.69334 -0.956891 0
M  V30 1227 C 116.429 -0.685598 -3.53513 0
M  V30 1228 C 116.282 -2.17444 -3.93749 0
M  V30 1229 C 117.601 -0.138874 -4.39881 0
M  V30 1230 H 114.72 -0.16555 -0.718166 0
M  V30 1231 H 117.362 -1.06742 -1.57182 0
M  V30 1232 H 115.512 -0.161416 -3.88165 0
M  V30 1233 H 117.184 -2.76433 -3.693 0
M  V30 1234 H 115.427 -2.65476 -3.43081 0
M  V30 1235 H 116.098 -2.28888 -5.02309 0
M  V30 1236 H 118.574 -0.587068 -4.11938 0
M  V30 1237 H 117.45 -0.332213 -5.47894 0
M  V30 1238 H 117.711 0.95806 -4.31594 0
M  V30 1239 N 116.77 1.45427 -0.607355 0
M  V30 1240 C 117.995 2.07124 -0.107006 0
M  V30 1241 C 118.42 1.44906 1.19933 0
M  V30 1242 O 117.778 0.541687 1.73019 0
M  V30 1243 C 117.826 3.60595 0.0194119 0
M  V30 1244 O 116.93 3.98285 1.0697 0
M  V30 1245 H 116.271 0.659868 -0.0739597 0
M  V30 1246 H 118.801 1.86683 -0.837297 0
M  V30 1247 H 118.811 4.07419 0.2177 0
M  V30 1248 H 117.486 4.05266 -0.934453 0
M  V30 1249 H 116.063 3.63133 0.847889 0
M  V30 1250 N 118.248 0.346503 1.53744 0
M  V30 1251 C 119.496 -0.248612 2.00565 0
M  V30 1252 C 119.817 -1.5083 1.23593 0
M  V30 1253 O 119.087 -1.92858 0.343912 0
M  V30 1254 H 117.667 -0.0948564 0.740953 0
M  V30 1255 H 120.329 0.468341 1.89189 0
M  V30 1256 H 119.425 -0.488994 3.08245 0
M  V30 1257 N 119.726 -1.57421 0.075193 0
M  V30 1258 C 120.656 -2.15942 -0.888324 0
M  V30 1259 C 121.637 -1.08737 -1.30806 0
M  V30 1260 O 122.822 -1.36787 -1.37851 0
M  V30 1261 C 119.952 -2.72379 -2.1547 0
M  V30 1262 C 118.906 -3.8478 -1.87425 0
M  V30 1263 C 118.232 -4.27834 -3.20721 0
M  V30 1264 C 119.532 -5.08869 -1.17684 0
M  V30 1265 H 121.226 -2.96705 -0.400799 0
M  V30 1266 H 118.772 -1.42723 -0.191342 0
M  V30 1267 H 120.725 -3.11965 -2.83295 0
M  V30 1268 H 119.449 -1.88841 -2.6647 0
M  V30 1269 H 118.108 -3.45703 -1.22004 0
M  V30 1270 H 117.756 -3.41214 -3.6957 0
M  V30 1271 H 117.456 -5.03605 -3.02746 0
M  V30 1272 H 118.98 -4.70039 -3.89738 0
M  V30 1273 H 120.394 -5.4575 -1.75584 0
M  V30 1274 H 118.791 -5.8994 -1.09956 0
M  V30 1275 H 119.861 -4.84648 -0.156453 0
M  V30 1276 N 121.204 0.198386 -1.56346 0
M  V30 1277 C 122.429 0.939682 -1.84891 0
M  V30 1278 C 122.854 1.76202 -0.658369 0
M  V30 1279 O 122.212 1.76993 0.392851 0
M  V30 1280 C 122.26 1.81428 -3.11635 0
M  V30 1281 O 121.364 2.91265 -2.91956 0
M  V30 1282 H 120.705 0.264807 -0.608912 0
M  V30 1283 H 123.235 0.204695 -2.03573 0
M  V30 1284 H 123.245 2.21958 -3.42343 0
M  V30 1285 H 121.92 1.21004 -3.97908 0
M  V30 1286 H 120.497 2.54514 -2.72538 0
M  V30 1287 N 122.682 1.50554 0.465978 0
M  V30 1288 C 123.907 1.65838 1.24549 0
M  V30 1289 C 124.332 0.343486 1.84937 0
M  V30 1290 O 123.69 -0.69324 1.67523 0
M  V30 1291 C 123.738 2.75533 2.32624 0
M  V30 1292 O 122.842 2.37142 3.37398 0
M  V30 1293 H 122.183 0.553893 0.366194 0
M  V30 1294 H 124.713 1.96959 0.553927 0
M  V30 1295 H 124.723 2.98763 2.77857 0
M  V30 1296 H 123.398 3.70962 1.88043 0
M  V30 1297 H 121.975 2.24377 2.97841 0
M  V30 1298 N 124.16 -0.719506 1.40217 0
M  V30 1299 C 125.408 -1.47641 1.3801 0
M  V30 1300 C 125.729 -1.94992 -0.018145 0
M  V30 1301 O 124.999 -1.70073 -0.972207 0
M  V30 1302 H 123.579 -0.547744 0.507923 0
M  V30 1303 H 126.241 -0.853187 1.75233 0
M  V30 1304 H 125.337 -2.35112 2.05253 0
M  V30 1305 N 125.638 -1.25649 -0.95132 0
M  V30 1306 C 126.886 -1.10375 -1.69298 0
M  V30 1307 C 127.207 0.355339 -1.91735 0
M  V30 1308 O 126.477 1.25188 -1.50681 0
M  V30 1309 H 125.057 -0.405461 -0.627384 0
M  V30 1310 H 127.719 -1.57823 -1.14358 0
M  V30 1311 H 126.815 -1.61465 -2.67087 0
M  V30 1312 N 127.117 1.15442 -1.07289 0
M  V30 1313 C 128.364 1.86213 -0.795668 0
M  V30 1314 C 128.692 1.82291 0.678238 0
M  V30 1315 O 127.947 1.24057 1.51355 0
M  V30 1316 C 128.246 3.3489 -1.24834 0
M  V30 1317 C 127.912 3.59007 -2.72809 0
M  V30 1318 C 126.574 3.65298 -3.13227 0
M  V30 1319 C 128.926 3.68762 -3.68326 0
M  V30 1320 C 126.254 3.78854 -4.4798 0
M  V30 1321 C 128.606 3.83842 -5.0284 0
M  V30 1322 C 127.27 3.88378 -5.4288 0
M  V30 1323 H 126.54 0.681403 -0.291155 0
M  V30 1324 H 129.187 1.36435 -1.34379 0
M  V30 1325 H 127.492 3.8687 -0.619595 0
M  V30 1326 H 129.189 3.88052 -1.01076 0
M  V30 1327 H 125.779 3.5475 -2.40521 0
M  V30 1328 H 129.963 3.63202 -3.38227 0
M  V30 1329 H 125.219 3.80623 -4.78472 0
M  V30 1330 H 129.393 3.90332 -5.76727 0
M  V30 1331 H 127.02 3.98635 -6.47298 0
M  V30 1332 N 128.595 0.856903 1.32268 0
M  V30 1333 C 129.528 0.247937 2.26849 0
M  V30 1334 C 130.506 -0.615382 1.50505 0
M  V30 1335 O 131.69 -0.571689 1.79622 0
M  V30 1336 C 128.817 -0.650093 3.32403 0
M  V30 1337 C 127.863 0.140138 4.2627 0
M  V30 1338 S 128.696 1.51004 5.13769 0
M  V30 1339 C 129.852 0.61778 6.22844 0
M  V30 1340 H 130.085 1.04971 2.78152 0
M  V30 1341 H 127.618 0.654665 1.39834 0
M  V30 1342 H 129.576 -1.16256 3.93694 0
M  V30 1343 H 128.237 -1.4257 2.7988 0
M  V30 1344 H 127.43 -0.543945 5.01056 0
M  V30 1345 H 127.032 0.584267 3.69408 0
M  V30 1346 H 129.324 -0.177053 6.77269 0
M  V30 1347 H 130.267 1.33636 6.95375 0
M  V30 1348 H 130.675 0.191124 5.64176 0
M  V30 1349 N 130.073 -1.45103 0.615059 0
M  V30 1350 C 131.298 -2.07064 0.117988 0
M  V30 1351 C 131.723 -1.4554 -1.19163 0
M  V30 1352 O 131.081 -0.550855 -1.72729 0
M  V30 1353 C 131.129 -3.606 -0.000288387 0
M  V30 1354 O 130.233 -3.98847 -1.04856 0
M  V30 1355 H 129.574 -0.659467 0.0774581 0
M  V30 1356 H 132.104 -1.86236 0.847186 0
M  V30 1357 H 132.114 -4.07529 -0.196091 0
M  V30 1358 H 130.789 -4.04765 0.955932 0
M  V30 1359 H 129.366 -3.63577 -0.828619 0
M  V30 1360 N 131.551 -0.354651 -1.53558 0
M  V30 1361 C 132.514 0.484566 -2.24019 0
M  V30 1362 C 133.514 1.01861 -1.24422 0
M  V30 1363 O 134.704 0.906097 -1.4878 0
M  V30 1364 C 131.836 1.67615 -2.96847 0
M  V30 1365 H 133.029 -0.131843 -2.9961 0
M  V30 1366 H 130.582 -0.106165 -1.55939 0
M  V30 1367 H 131.317 2.33095 -2.25471 0
M  V30 1368 H 131.102 1.30029 -3.69912 0
M  V30 1369 H 132.592 2.27114 -3.50441 0
M  V30 1370 N 133.029 1.57378 -0.0835403 0
M  V30 1371 C 133.961 2.10389 0.909338 0
M  V30 1372 C 134.974 1.03858 1.25369 0
M  V30 1373 O 136.163 1.31338 1.20882 0
M  V30 1374 C 133.263 2.55908 2.2218 0
M  V30 1375 C 132.436 3.86145 2.05453 0
M  V30 1376 C 131.495 4.17633 3.20108 0
M  V30 1377 O 130.521 4.87043 2.94581 0
M  V30 1378 N 131.723 3.72113 4.45547 0
M  V30 1379 H 134.488 2.962 0.456657 0
M  V30 1380 H 132.049 1.61579 0.101877 0
M  V30 1381 H 134.041 2.74027 2.97811 0
M  V30 1382 H 132.611 1.75171 2.58909 0
M  V30 1383 H 131.831 3.7729 1.1422 0
M  V30 1384 H 133.119 4.7137 1.91541 0
M  V30 1385 H 132.517 3.16062 4.69171 0
M  V30 1386 H 131.074 3.95409 5.18165 0
M  V30 1387 N 134.507 -0.190092 1.56449 0
M  V30 1388 C 135.437 -1.23816 1.97969 0
M  V30 1389 C 136.418 -1.47201 0.852395 0
M  V30 1390 O 137.603 -1.58854 1.1171 0
M  V30 1391 C 134.733 -2.5813 2.3235 0
M  V30 1392 C 133.687 -2.49348 3.47864 0
M  V30 1393 C 133.013 -3.8798 3.67934 0
M  V30 1394 C 134.313 -2.01424 4.81898 0
M  V30 1395 H 136.007 -0.89311 2.85769 0
M  V30 1396 H 133.553 -0.428177 1.37487 0
M  V30 1397 H 135.506 -3.31637 2.59991 0
M  V30 1398 H 134.23 -2.94386 1.41438 0
M  V30 1399 H 132.889 -1.78297 3.20321 0
M  V30 1400 H 132.537 -4.21597 2.74344 0
M  V30 1401 H 132.237 -3.82978 4.45648 0
M  V30 1402 H 133.761 -4.63101 3.97957 0
M  V30 1403 H 135.175 -2.64693 5.08538 0
M  V30 1404 H 133.572 -2.07413 5.63116 0
M  V30 1405 H 134.642 -0.967677 4.75146 0
M  V30 1406 N 135.985 -1.50799 -0.457987 0
M  V30 1407 C 137.233 -1.62121 -1.2067 0
M  V30 1408 C 137.554 -0.329793 -1.92191 0
M  V30 1409 O 136.824 0.653409 -1.84682 0
M  V30 1410 H 135.404 -0.597441 -0.448411 0
M  V30 1411 H 138.066 -1.87637 -0.527096 0
M  V30 1412 H 137.162 -2.43882 -1.94751 0
M  V30 1413 N 137.463 0.71206 -1.40597 0
M  V30 1414 C 138.709 1.47416 -1.39271 0
M  V30 1415 C 139.042 1.942 0.00388791 0
M  V30 1416 O 138.317 1.68403 0.973179 0
M  V30 1417 C 138.6 2.69774 -2.38525 0
M  V30 1418 C 138.453 2.28861 -3.87224 0
M  V30 1419 C 139.772 3.71939 -2.35264 0
M  V30 1420 H 136.891 0.534713 -0.5072 0
M  V30 1421 H 139.533 0.812375 -1.71757 0
M  V30 1422 H 137.683 3.26238 -2.10953 0
M  V30 1423 H 139.355 1.77852 -4.25636 0
M  V30 1424 H 137.598 1.60824 -4.02887 0
M  V30 1425 H 138.269 3.16584 -4.52193 0
M  V30 1426 H 140.745 3.25113 -2.59694 0
M  V30 1427 H 139.621 4.55186 -3.06753 0
M  V30 1428 H 139.882 4.20484 -1.36549 0
M  V30 1429 N 138.941 1.26152 0.944643 0
M  V30 1430 C 139.904 1.07474 2.0244 0
M  V30 1431 C 140.904 0.0242064 1.60782 0
M  V30 1432 O 142.094 0.267302 1.72137 0
M  V30 1433 C 139.226 0.633956 3.34953 0
M  V30 1434 H 140.419 2.03336 2.20442 0
M  V30 1435 H 137.972 1.087 1.12312 0
M  V30 1436 H 138.707 -0.326811 3.22649 0
M  V30 1437 H 138.492 1.39247 3.66542 0
M  V30 1438 H 139.982 0.52501 4.14287 0
M  V30 1439 N 140.419 -1.14872 1.07899 0
M  V30 1440 C 141.649 -1.89386 0.825631 0
M  V30 1441 C 142.057 -1.78565 -0.625406 0
M  V30 1442 O 141.4 -1.13918 -1.44113 0
M  V30 1443 C 141.462 -3.40206 1.16191 0
M  V30 1444 C 141.126 -3.74812 2.61467 0
M  V30 1445 C 142.123 -3.75367 3.59716 0
M  V30 1446 C 139.808 -4.0495 2.97189 0
M  V30 1447 C 141.802 -4.05574 4.9172 0
M  V30 1448 C 139.489 -4.34821 4.29388 0
M  V30 1449 C 140.487 -4.35116 5.26463 0
M  V30 1450 O 140.175 -4.64267 6.56286 0
M  V30 1451 H 139.907 -0.606894 0.297751 0
M  V30 1452 H 142.461 -1.46438 1.44031 0
M  V30 1453 H 140.691 -3.8358 0.490214 0
M  V30 1454 H 142.38 -3.96018 0.890193 0
M  V30 1455 H 143.146 -3.52176 3.33462 0
M  V30 1456 H 139.025 -4.03876 2.22273 0
M  V30 1457 H 142.569 -4.05719 5.67484 0
M  V30 1458 H 138.466 -4.5748 4.55392 0
M  V30 1459 H 139.234 -4.82007 6.61522 0
M  V30 1460 N 141.898 -0.863906 -1.31812 0
M  V30 1461 C 143.123 -0.48527 -2.01643 0
M  V30 1462 C 143.548 0.913058 -1.64453 0
M  V30 1463 O 142.906 1.6014 -0.849985 0
M  V30 1464 C 142.954 -0.642625 -3.54828 0
M  V30 1465 O 142.058 0.320659 -4.11151 0
M  V30 1466 H 141.399 -0.193793 -0.635091 0
M  V30 1467 H 143.929 -1.16565 -1.68148 0
M  V30 1468 H 143.939 -0.533628 -4.04495 0
M  V30 1469 H 142.614 -1.66227 -3.81237 0
M  V30 1470 H 141.191 0.167126 -3.72525 0
M  V30 1471 N 143.376 1.44774 -0.622745 0
M  V30 1472 C 144.653 1.95522 -0.0551974 0
M  V30 1473 C 145.033 1.5649 1.41683 0
M  V30 1474 O 144.381 0.834848 2.12703 0
M  V30 1475 C 144.591 3.4796 -0.269242 0
M  V30 1476 C 145.939 4.24306 -0.158014 0
M  V30 1477 O 146.963 3.55637 -0.200162 0
M  V30 1478 O 145.822 5.46471 -0.0558693 0
M  V30 1479 H 142.916 0.826556 0.0271015 0
M  V30 1480 H 145.462 1.54866 -0.693864 0
M  V30 1481 H 144.234 3.6939 -1.29099 0
M  V30 1482 H 143.857 3.95543 0.403966 0
M  V30 1483 N 144.854 0.36279 1.53368 0
M  V30 1484 C 146.082 -0.228613 2.05633 0
M  V30 1485 C 146.497 -1.42676 1.23649 0
M  V30 1486 O 145.854 -1.80394 0.27647 0
M  V30 1487 C 145.905 -0.624845 3.56059 0
M  V30 1488 O 145.626 0.525675 4.34935 0
M  V30 1489 C 147.127 -1.27493 4.24571 0
M  V30 1490 H 144.347 -0.0407183 0.669763 0
M  V30 1491 H 146.891 0.520352 1.97769 0
M  V30 1492 H 145.046 -1.32373 3.64083 0
M  V30 1493 H 145.46 0.205969 5.24095 0
M  V30 1494 H 146.934 -1.50277 5.31151 0
M  V30 1495 H 147.411 -2.23439 3.78116 0
M  V30 1496 H 148.017 -0.617558 4.20792 0
M  V30 1497 N 146.332 -1.57332 0.0918853 0
M  V30 1498 C 147.579 -1.94236 -0.572577 0
M  V30 1499 C 147.907 -0.973398 -1.6839 0
M  V30 1500 O 147.162 0.00756912 -1.95699 0
M  V30 1501 C 147.461 -3.37689 -1.17051 0
M  V30 1502 C 147.127 -4.50527 -0.183304 0
M  V30 1503 C 145.789 -4.81119 0.0882276 0
M  V30 1504 C 148.141 -5.18883 0.49095 0
M  V30 1505 C 145.469 -5.77395 1.04076 0
M  V30 1506 C 147.821 -6.1618 1.43193 0
M  V30 1507 C 146.485 -6.45179 1.71173 0
M  V30 1508 H 145.755 -0.710762 -0.209521 0
M  V30 1509 H 148.402 -1.9077 0.167036 0
M  V30 1510 H 146.707 -3.37718 -1.9863 0
M  V30 1511 H 148.404 -3.63543 -1.69227 0
M  V30 1512 H 144.994 -4.26681 -0.405124 0
M  V30 1513 H 149.178 -4.95427 0.294312 0
M  V30 1514 H 144.434 -5.98179 1.26457 0
M  V30 1515 H 148.608 -6.68243 1.96023 0
M  V30 1516 H 146.235 -7.1959 2.4514 0
M  V30 1517 N 147.81 0.181792 -1.56548 0
M  V30 1518 C 148.757 1.22521 -1.95595 0
M  V30 1519 C 149.727 1.4454 -0.818373 0
M  V30 1520 O 150.912 1.57454 -1.07763 0
M  V30 1521 C 148.052 2.56193 -2.31212 0
M  V30 1522 C 147.165 2.41641 -3.58097 0
M  V30 1523 C 146.3 3.68108 -3.82975 0
M  V30 1524 C 145.339 3.48445 -5.03242 0
M  V30 1525 N 144.476 4.66956 -5.24306 0
M  V30 1526 H 149.316 0.885226 -2.84548 0
M  V30 1527 H 146.853 0.425718 -1.40805 0
M  V30 1528 H 148.811 3.34088 -2.49882 0
M  V30 1529 H 147.441 2.88208 -1.45382 0
M  V30 1530 H 146.493 1.54976 -3.474 0
M  V30 1531 H 147.805 2.23052 -4.46149 0
M  V30 1532 H 146.959 4.54441 -4.01956 0
M  V30 1533 H 145.698 3.89666 -2.93278 0
M  V30 1534 H 144.703 2.60499 -4.8417 0
M  V30 1535 H 145.928 3.2832 -5.9446 0
M  V30 1536 H 143.874 4.88752 -4.37559 0
M  V30 1537 H 143.791 4.51242 -6.06561 0
M  V30 1538 H 145.059 5.54602 -5.47756 0
M  V30 1539 N 149.288 1.51039 0.449983 0
M  V30 1540 C 150.534 1.63322 1.20223 0
M  V30 1541 C 150.867 0.34241 1.91158 0
M  V30 1542 O 150.142 -0.657344 1.83055 0
M  V30 1543 C 150.425 2.82801 2.22925 0
M  V30 1544 C 150.278 4.21823 1.56157 0
M  V30 1545 C 151.597 2.97807 3.24035 0
M  V30 1546 H 148.716 0.594407 0.435718 0
M  V30 1547 H 151.358 1.83489 0.493136 0
M  V30 1548 H 149.508 2.65738 2.834 0
M  V30 1549 H 151.18 4.50526 0.991162 0
M  V30 1550 H 149.423 4.25105 0.864172 0
M  V30 1551 H 150.094 5.01391 2.30891 0
M  V30 1552 H 152.57 3.13497 2.73603 0
M  V30 1553 H 151.446 3.82992 3.93202 0
M  V30 1554 H 151.707 2.09328 3.89402 0
M  V30 1555 N 150.766 -0.704594 1.40972 0
M  V30 1556 C 152.014 -1.46169 1.39568 0
M  V30 1557 C 152.335 -1.95 0.00253745 0
M  V30 1558 O 151.605 -1.71095 -0.954114 0
M  V30 1559 H 150.185 -0.542326 0.513704 0
M  V30 1560 H 152.847 -0.834553 1.76128 0
M  V30 1561 H 151.943 -2.32922 2.07735 0
M  V30 1562 N 152.244 -1.26651 -0.937939 0
M  V30 1563 C 153.491 -1.12387 -1.6845 0
M  V30 1564 C 153.819 0.332208 -1.91642 0
M  V30 1565 O 153.074 1.2602 -1.49725 0
M  V30 1566 C 153.373 -1.84168 -3.06295 0
M  V30 1567 C 153.039 -3.34056 -3.02849 0
M  V30 1568 C 151.701 -3.74942 -3.01616 0
M  V30 1569 C 154.053 -4.29741 -2.9491 0
M  V30 1570 C 151.381 -5.09894 -2.90215 0
M  V30 1571 C 153.733 -5.64738 -2.8505 0
M  V30 1572 C 152.397 -6.0493 -2.82162 0
M  V30 1573 H 151.667 -0.411252 -0.616403 0
M  V30 1574 H 154.314 -1.57134 -1.09459 0
M  V30 1575 H 152.619 -1.319 -3.6893 0
M  V30 1576 H 154.316 -1.70569 -3.62915 0
M  V30 1577 H 150.906 -3.01534 -3.0459 0
M  V30 1578 H 155.09 -3.99133 -2.94969 0
M  V30 1579 H 150.346 -5.40194 -2.86358 0
M  V30 1580 H 154.52 -6.38561 -2.77872 0
M  V30 1581 H 152.147 -7.09457 -2.73084 0
M  V30 1582 N 153.722 1.14298 -1.08507 0
M  V30 1583 C 154.97 1.84993 -0.813763 0
M  V30 1584 C 155.291 1.83405 0.662393 0
M  V30 1585 O 154.561 1.28319 1.48024 0
M  V30 1586 H 153.141 0.684966 -0.298045 0
M  V30 1587 H 155.803 1.385 -1.37126 0
M  V30 1588 H 154.899 2.89788 -1.15884 0
M  V30 1589 N 155.201 0.870884 1.31352 0
M  V30 1590 C 156.447 0.482987 1.96965 0
M  V30 1591 C 156.78 -0.962462 1.68672 0
M  V30 1592 O 156.055 -1.6779 0.98371 0
M  V30 1593 C 156.338 0.741752 3.52378 0
M  V30 1594 C 156.191 2.2368 3.9024 0
M  V30 1595 C 157.51 0.208838 4.39604 0
M  V30 1596 H 154.629 0.176955 0.715441 0
M  V30 1597 H 157.271 1.09229 1.55464 0
M  V30 1598 H 155.421 0.223149 3.87859 0
M  V30 1599 H 157.093 2.82273 3.64856 0
M  V30 1600 H 155.336 2.70901 3.38814 0
M  V30 1601 H 156.007 2.3685 4.98604 0
M  V30 1602 H 158.483 0.652529 4.10952 0
M  V30 1603 H 157.359 0.419336 5.47296 0
M  V30 1604 H 157.62 -0.889275 4.33064 0
M  V30 1605 N 156.679 -1.44442 0.630414 0
M  V30 1606 C 157.926 -2.02052 0.134617 0
M  V30 1607 C 158.254 -1.49576 -1.24327 0
M  V30 1608 O 157.509 -0.669806 -1.83881 0
M  V30 1609 C 157.808 -3.57332 0.0697835 0
M  V30 1610 C 157.474 -4.29058 1.38635 0
M  V30 1611 C 156.136 -4.4837 1.74694 0
M  V30 1612 C 158.488 -4.69872 2.25543 0
M  V30 1613 C 155.816 -5.05756 2.97369 0
M  V30 1614 C 158.168 -5.28616 3.47487 0
M  V30 1615 C 156.832 -5.46147 3.8377 0
M  V30 1616 H 156.102 -0.739361 0.0492598 0
M  V30 1617 H 158.749 -1.73217 0.816586 0
M  V30 1618 H 157.054 -3.85577 -0.695553 0
M  V30 1619 H 158.751 -3.99637 -0.330344 0
M  V30 1620 H 155.341 -4.14357 1.09574 0
M  V30 1621 H 159.525 -4.54666 1.98979 0
M  V30 1622 H 154.781 -5.17515 3.25558 0
M  V30 1623 H 158.955 -5.59192 4.15063 0
M  V30 1624 H 156.582 -5.9038 4.7891 0
M  V30 1625 N 158.157 -0.370918 -1.53173 0
M  V30 1626 C 159.12 0.460778 -2.24521 0
M  V30 1627 C 160.12 1.00536 -1.25496 0
M  V30 1628 O 161.31 0.890266 -1.49733 0
M  V30 1629 C 158.442 1.64457 -2.98608 0
M  V30 1630 H 159.635 -0.163613 -2.99453 0
M  V30 1631 H 157.188 -0.122699 -1.55818 0
M  V30 1632 H 157.923 2.30691 -2.2793 0
M  V30 1633 H 157.708 1.26099 -3.7127 0
M  V30 1634 H 159.198 2.23384 -3.5283 0
M  V30 1635 N 159.635 1.57281 -0.100228 0
M  V30 1636 C 160.883 1.94153 0.561157 0
M  V30 1637 C 161.204 0.983157 1.68401 0
M  V30 1638 O 160.474 0.0361132 1.95867 0
M  V30 1639 H 159.054 0.716791 0.210283 0
M  V30 1640 H 161.716 1.94202 -0.164765 0
M  V30 1641 H 160.812 2.96709 0.968008 0
M  V30 1642 N 161.113 -0.173488 1.56642 0
M  V30 1643 C 162.361 -0.888706 1.81512 0
M  V30 1644 C 162.682 -1.82875 0.676872 0
M  V30 1645 O 161.952 -1.93536 -0.303414 0
M  V30 1646 H 160.532 -0.331164 0.669582 0
M  V30 1647 H 163.194 -0.173823 1.94123 0
M  V30 1648 H 162.29 -1.46691 2.75478 0
M  V30 1649 N 162.591 -1.51276 -0.441967 0
M  V30 1650 C 164.002 -1.56244 -1.02199 0
M  V30 1651 C 164.353 -0.383149 -1.92422 0
M  V30 1652 O 163.478 0.500613 -2.1053 0
M  V30 1653 C 164.073 -2.83162 -1.86024 0
M  V30 1654 C 162.632 -2.90716 -2.39084 0
M  V30 1655 C 161.779 -2.50858 -1.18175 0
M  V30 1656 H 164.73 -1.5712 -0.223416 0
M  V30 1657 H 164.751 -2.66663 -2.71425 0
M  V30 1658 H 164.263 -3.68974 -1.20331 0
M  V30 1659 H 162.364 -2.09323 -3.08244 0
M  V30 1660 H 162.477 -3.94266 -2.72198 0
M  V30 1661 H 160.841 -2.03951 -1.52565 0
M  V30 1662 H 161.624 -3.3901 -0.541001 0
M  V30 1663 N 164.069 0.697108 -1.41344 0
M  V30 1664 C 165.299 1.48377 -1.43763 0
M  V30 1665 C 165.707 1.89156 -0.0408726 0
M  V30 1666 O 165.05 1.57239 0.949812 0
M  V30 1667 C 165.112 2.7781 -2.2817 0
M  V30 1668 C 164.776 2.59244 -3.76353 0
M  V30 1669 C 165.773 2.25292 -4.68551 0
M  V30 1670 C 163.458 2.74933 -4.20378 0
M  V30 1671 C 165.452 2.07264 -6.02761 0
M  V30 1672 C 163.139 2.56521 -5.54653 0
M  V30 1673 C 164.137 2.22737 -6.4566 0
M  V30 1674 O 163.825 2.04485 -7.77458 0
M  V30 1675 H 163.557 0.463842 -0.491759 0
M  V30 1676 H 166.111 0.865934 -1.86255 0
M  V30 1677 H 164.341 3.41995 -1.8049 0
M  V30 1678 H 166.03 3.39608 -2.22309 0
M  V30 1679 H 166.796 2.12787 -4.35829 0
M  V30 1680 H 162.675 3.00213 -3.49848 0
M  V30 1681 H 166.219 1.80817 -6.73759 0
M  V30 1682 H 162.116 2.68616 -5.86955 0
M  V30 1683 H 162.884 2.1926 -7.88586 0
M  V30 1684 N 165.547 1.27147 0.931209 0
M  V30 1685 C 166.824 1.0401 1.65654 0
M  V30 1686 C 167.204 -0.426297 2.06751 0
M  V30 1687 O 166.552 -1.40879 1.79904 0
M  V30 1688 C 166.762 1.99834 2.86125 0
M  V30 1689 C 168.11 2.29007 3.57549 0
M  V30 1690 O 169.134 1.97779 2.96246 0
M  V30 1691 O 167.993 2.82222 4.67989 0
M  V30 1692 H 165.087 0.396239 0.725895 0
M  V30 1693 H 167.633 1.38397 0.982056 0
M  V30 1694 H 166.405 2.98744 2.52721 0
M  V30 1695 H 166.028 1.65987 3.61295 0
M  V30 1696 N 167.025 -1.13721 1.09112 0
M  V30 1697 C 168.265 -1.86576 0.834801 0
M  V30 1698 C 168.629 -1.81435 -0.628122 0
M  V30 1699 O 169.83 -2.49497 -1.00024 0
M  V30 1700 C 168.101 -3.30872 1.35124 0
M  V30 1701 S 169.66 -4.21257 1.22832 0
M  V30 1702 H 166.478 -0.643666 0.302017 0
M  V30 1703 H 169.08 -1.37085 1.39385 0
M  V30 1704 H 167.784 -3.32166 2.41027 0
M  V30 1705 H 167.315 -3.85423 0.788185 0
M  V30 1706 H 169.33 -4.95884 0.177191 0
M  V30 1707 N 168.503 -0.877838 -1.30888 0
M  V30 1708 C 169.466 -0.344265 -2.266 0
M  V30 1709 C 170.466 0.50922 -1.52524 0
M  V30 1710 O 171.656 0.317398 -1.71284 0
M  V30 1711 C 168.788 0.510198 -3.37061 0
M  V30 1712 H 169.981 -1.1893 -2.7531 0
M  V30 1713 H 167.534 -0.654088 -1.41956 0
M  V30 1714 H 168.269 1.37612 -2.93655 0
M  V30 1715 H 168.054 -0.101047 -3.9197 0
M  V30 1716 H 169.544 0.875537 -4.08319 0
M  V30 1717 N 169.982 1.44106 -0.638065 0
M  V30 1718 C 171.398 1.56672 -0.304286 0
M  V30 1719 C 171.598 1.6244 1.19228 0
M  V30 1720 O 170.654 1.57121 1.9766 0
M  V30 1721 C 171.967 2.83503 -1.00231 0
M  V30 1722 C 173.515 2.97226 -0.981116 0
M  V30 1723 C 173.99 4.26868 -1.65974 0
M  V30 1724 N 175.481 4.33698 -1.62666 0
M  V30 1725 C 176.216 5.32745 -2.12063 0
M  V30 1726 N 175.712 6.38157 -2.6968 0
M  V30 1727 N 177.505 5.24299 -2.02651 0
M  V30 1728 H 169.656 1.38605 -1.60942 0
M  V30 1729 H 171.919 0.664661 -0.675965 0
M  V30 1730 H 171.625 2.85251 -2.0573 0
M  V30 1731 H 171.499 3.73251 -0.54439 0
M  V30 1732 H 173.886 2.95027 0.0654188 0
M  V30 1733 H 173.967 2.08808 -1.47759 0
M  V30 1734 H 173.611 4.29826 -2.70576 0
M  V30 1735 H 173.541 5.14156 -1.13804 0
M  V30 1736 H 176.032 3.58138 -1.20606 0
M  V30 1737 H 176.345 7.10029 -3.05087 0
M  V30 1738 H 174.69 6.38823 -2.73734 0
M  V30 1739 H 177.881 4.4086 -1.57353 0
M  V30 1740 H 178.054 6.01334 -2.41457 0
M  V30 1741 N 171.46 0.379036 1.52974 0
M  V30 1742 C 172.708 -0.206014 2.01047 0
M  V30 1743 C 173.029 -1.48175 1.26765 0
M  V30 1744 O 172.299 -1.92085 0.384743 0
M  V30 1745 H 170.879 -0.0791184 0.742798 0
M  V30 1746 H 173.541 0.508366 1.88153 0
M  V30 1747 H 172.637 -0.423501 3.09213 0
M  V30 1748 N 172.938 -1.57226 0.108567 0
M  V30 1749 C 173.87 -2.11809 -0.875752 0
M  V30 1750 C 174.883 -1.05839 -1.23701 0
M  V30 1751 O 176.072 -1.33245 -1.18778 0
M  V30 1752 C 173.172 -2.59411 -2.18081 0
M  V30 1753 C 172.345 -3.89364 -1.99284 0
M  V30 1754 C 171.404 -4.22672 -3.13424 0
M  V30 1755 O 170.43 -4.91668 -2.86795 0
M  V30 1756 N 171.632 -3.79154 -4.3957 0
M  V30 1757 H 174.397 -2.9689 -0.409477 0
M  V30 1758 H 171.958 -1.61721 -0.076158 0
M  V30 1759 H 173.95 -2.7873 -2.93414 0
M  V30 1760 H 172.52 -1.79268 -2.5609 0
M  V30 1761 H 171.74 -3.79059 -1.08203 0
M  V30 1762 H 173.028 -4.74358 -1.84017 0
M  V30 1763 H 172.426 -3.23486 -4.64083 0
M  V30 1764 H 170.983 -4.03602 -5.11809 0
M  V30 1765 N 174.416 0.165178 -1.56732 0
M  V30 1766 C 175.641 0.900253 -1.86843 0
M  V30 1767 C 176.066 1.74766 -0.695596 0
M  V30 1768 O 175.424 1.77786 0.35522 0
M  V30 1769 C 175.472 1.74777 -3.15413 0
M  V30 1770 O 174.576 2.85007 -2.98068 0
M  V30 1771 H 173.917 0.251832 -0.614391 0
M  V30 1772 H 176.447 0.161468 -2.03962 0
M  V30 1773 H 176.457 2.14646 -3.46974 0
M  V30 1774 H 175.132 1.12537 -4.00385 0
M  V30 1775 H 173.709 2.48676 -2.77875 0
M  V30 1776 N 175.894 1.51508 0.433938 0
M  V30 1777 C 177.124 1.67914 1.20369 0
M  V30 1778 C 177.532 0.377461 1.85397 0
M  V30 1779 O 176.875 -0.654255 1.71654 0
M  V30 1780 C 176.937 2.74045 2.32679 0
M  V30 1781 C 176.601 4.16543 1.87991 0
M  V30 1782 C 177.598 5.01211 1.38145 0
M  V30 1783 C 175.283 4.6266 1.95579 0
M  V30 1784 C 177.277 6.30056 0.964774 0
M  V30 1785 C 174.964 5.91501 1.53523 0
M  V30 1786 C 175.962 6.75027 1.04055 0
M  V30 1787 O 175.65 8.01459 0.625964 0
M  V30 1788 H 175.382 0.566578 0.368735 0
M  V30 1789 H 177.936 1.98709 0.51999 0
M  V30 1790 H 176.166 2.38572 3.04336 0
M  V30 1791 H 177.855 2.79295 2.94532 0
M  V30 1792 H 178.621 4.66783 1.31675 0
M  V30 1793 H 174.5 3.97767 2.33029 0
M  V30 1794 H 178.044 6.95202 0.57796 0
M  V30 1795 H 173.941 6.25442 1.59665 0
M  V30 1796 H 174.709 8.15043 0.751509 0
M  V30 1797 N 177.372 -0.689602 1.41712 0
M  V30 1798 C 178.6 -1.47827 1.44758 0
M  V30 1799 C 179.015 -1.88721 0.0545703 0
M  V30 1800 O 178.372 -1.57176 -0.927463 0
M  V30 1801 C 178.423 -2.73698 2.3616 0
M  V30 1802 O 178.144 -2.34524 3.7004 0
M  V30 1803 C 179.645 -3.67389 2.48072 0
M  V30 1804 H 176.865 -0.455357 0.49284 0
M  V30 1805 H 179.409 -0.848574 1.86063 0
M  V30 1806 H 177.564 -3.32891 1.98148 0
M  V30 1807 H 177.978 -3.15701 4.18847 0
M  V30 1808 H 179.452 -4.52475 3.16181 0
M  V30 1809 H 179.929 -4.12284 1.51388 0
M  V30 1810 H 180.535 -3.14097 2.86746 0
M  V30 1811 N 178.85 -1.27639 -0.924453 0
M  V30 1812 C 180.078 -1.16989 -1.70649 0
M  V30 1813 C 180.493 0.272869 -1.86818 0
M  V30 1814 O 179.85 1.18549 -1.38753 0
M  V30 1815 C 179.901 -1.85229 -3.10439 0
M  V30 1816 O 179.622 -3.23868 -2.95028 0
M  V30 1817 C 181.123 -1.80746 -4.04779 0
M  V30 1818 H 178.343 -0.406595 -0.53378 0
M  V30 1819 H 180.887 -1.68569 -1.15778 0
M  V30 1820 H 179.042 -1.37545 -3.6216 0
M  V30 1821 H 179.456 -3.57889 -3.83426 0
M  V30 1822 H 180.93 -2.33101 -5.00368 0
M  V30 1823 H 181.407 -0.777499 -4.32263 0
M  V30 1824 H 182.013 -2.28059 -3.58984 0
M  V30 1825 N 180.328 1.1314 -1.09713 0
M  V30 1826 C 181.568 1.8613 -0.844683 0
M  V30 1827 C 181.932 1.81765 0.618491 0
M  V30 1828 O 183.133 2.50024 0.98699 0
M  V30 1829 C 181.404 3.30151 -1.36877 0
M  V30 1830 S 182.963 4.206 -1.25064 0
M  V30 1831 H 179.781 0.642056 -0.305427 0
M  V30 1832 H 182.383 1.36343 -1.4011 0
M  V30 1833 H 181.087 3.30883 -2.42786 0
M  V30 1834 H 180.618 3.85 -0.808614 0
M  V30 1835 H 182.633 4.95783 -0.203486 0
M  V30 1836 N 181.806 0.884767 1.30421 0
M  V30 1837 C 182.739 0.295999 2.26272 0
M  V30 1838 C 183.717 -0.58332 1.51777 0
M  V30 1839 O 184.901 -0.53346 1.80794 0
M  V30 1840 C 182.028 -0.57944 3.33707 0
M  V30 1841 C 181.074 0.230525 4.25877 0
M  V30 1842 S 181.907 1.61867 5.1045 0
M  V30 1843 C 183.063 0.749756 6.21393 0
M  V30 1844 H 183.296 1.10848 2.75862 0
M  V30 1845 H 180.829 0.684178 1.38414 0
M  V30 1846 H 182.787 -1.07879 3.96071 0
M  V30 1847 H 181.448 -1.36601 2.82841 0
M  V30 1848 H 180.641 -0.437542 5.02097 0
M  V30 1849 H 180.243 0.662493 3.68086 0
M  V30 1850 H 182.535 -0.0333547 6.77492 0
M  V30 1851 H 183.478 1.48356 6.92384 0
M  V30 1852 H 183.886 0.310751 5.63644 0
M  V30 1853 N 183.284 -1.43765 0.645699 0
M  V30 1854 C 184.514 -2.05953 0.163318 0
M  V30 1855 C 184.922 -1.48432 -1.17322 0
M  V30 1856 O 184.265 -0.607295 -1.73371 0
M  V30 1857 C 184.327 -3.59499 -0.0103065 0
M  V30 1858 C 183.991 -4.39563 1.25035 0
M  V30 1859 C 184.988 -4.72108 2.17739 0
M  V30 1860 C 182.673 -4.79697 1.48983 0
M  V30 1861 C 184.667 -5.43688 3.3269 0
M  V30 1862 C 182.354 -5.51023 2.64229 0
M  V30 1863 C 183.352 -5.8294 3.55908 0
M  V30 1864 O 183.04 -6.5281 4.69142 0
M  V30 1865 H 182.772 -0.670798 0.0836986 0
M  V30 1866 H 185.326 -1.85384 0.884407 0
M  V30 1867 H 183.556 -3.78613 -0.78669 0
M  V30 1868 H 185.245 -4.03408 -0.449087 0
M  V30 1869 H 186.011 -4.41627 2.00476 0
M  V30 1870 H 181.89 -4.54266 0.785078 0
M  V30 1871 H 185.434 -5.68517 4.04269 0
M  V30 1872 H 181.331 -5.8092 2.81429 0
M  V30 1873 H 182.099 -6.71288 4.6831 0
M  V30 1874 N 184.763 -0.387143 -1.52771 0
M  V30 1875 C 185.711 0.463953 -2.27926 0
M  V30 1876 C 186.705 1.06493 -1.31741 0
M  V30 1877 O 187.911 1.00565 -1.49287 0
M  V30 1878 H 184.286 0.16837 -0.732909 0
M  V30 1879 H 186.257 -0.19141 -2.97785 0
M  V30 1880 C 185.006 1.5803 -3.09713 0
M  V30 1881 H 184.329 1.12718 -3.83581 0
M  V30 1882 H 185.769 2.15008 -3.65442 0
M  V30 1883 C 184.228 2.53509 -2.2189 0
M  V30 1884 O 184.758 3.56863 -1.84422 0
M  V30 1885 N 182.964 2.23199 -1.86093 0
M  V30 1886 H 182.511 1.39185 -2.16761 0
M  V30 1887 H 182.469 2.87333 -1.27621 0
M  V30 1888 N 186.241 1.57166 -0.116904 0
M  V30 1889 C 187.173 2.12271 0.864507 0
M  V30 1890 C 188.186 1.06494 1.23138 0
M  V30 1891 O 189.375 1.33873 1.18069 0
M  V30 1892 C 186.475 2.60564 2.16702 0
M  V30 1893 C 185.648 3.90416 1.97216 0
M  V30 1894 C 184.707 4.24329 3.11178 0
M  V30 1895 O 183.733 4.93182 2.84184 0
M  V30 1896 N 184.935 3.8148 4.37554 0
M  V30 1897 H 187.7 2.97102 0.393726 0
M  V30 1898 H 185.261 1.61759 0.0675805 0
M  V30 1899 H 187.253 2.80282 2.91932 0
M  V30 1900 H 185.823 1.80623 2.55135 0
M  V30 1901 H 185.043 3.79627 1.06192 0
M  V30 1902 H 186.331 4.75327 1.81499 0
M  V30 1903 H 185.729 3.25943 4.62361 0
M  V30 1904 H 184.286 4.06311 5.09661 0
M  V30 1905 N 187.719 -0.156864 1.56817 0
M  V30 1906 C 188.667 -1.21319 1.98455 0
M  V30 1907 C 189.661 -1.45025 0.875444 0
M  V30 1908 O 190.867 -1.45435 1.0606 0
M  V30 1909 H 187.242 -0.408142 0.631605 0
M  V30 1910 H 189.213 -0.835244 2.86472 0
M  V30 1911 C 187.962 -2.54148 2.37285 0
M  V30 1912 H 187.285 -2.36733 3.22176 0
M  V30 1913 H 188.725 -3.26712 2.70251 0
M  V30 1914 C 187.184 -3.13967 1.22173 0
M  V30 1915 O 187.714 -3.98357 0.517149 0
M  V30 1916 N 185.92 -2.7327 0.988536 0
M  V30 1917 H 185.467 -2.04744 1.56326 0
M  V30 1918 H 185.425 -3.13628 0.220209 0
M  V30 1919 N 189.197 -1.51736 -0.425897 0
M  V30 1920 C 190.608 -1.5732 -1.00536 0
M  V30 1921 C 190.959 -0.403537 -1.92005 0
M  V30 1922 O 190.084 0.478256 -2.11049 0
M  V30 1923 C 190.679 -2.85119 -1.8301 0
M  V30 1924 C 189.238 -2.93236 -2.35987 0
M  V30 1925 C 188.385 -2.52098 -1.15508 0
M  V30 1926 H 191.336 -1.57348 -0.206739 0
M  V30 1927 H 191.357 -2.69526 -2.68581 0
M  V30 1928 H 190.869 -3.7023 -1.16411 0
M  V30 1929 H 188.97 -2.12581 -3.06007 0
M  V30 1930 H 189.083 -3.9713 -2.68001 0
M  V30 1931 H 187.447 -2.05558 -1.50393 0
M  V30 1932 H 188.23 -3.39565 -0.505014 0
M  V30 1933 N 190.675 0.682077 -1.42076 0
M  V30 1934 C 191.9 1.47558 -1.45744 0
M  V30 1935 C 192.325 1.87977 -0.0680981 0
M  V30 1936 O 191.683 1.55522 0.9318 0
M  V30 1937 C 191.731 2.70575 -2.38373 0
M  V30 1938 O 190.835 3.68573 -1.85007 0
M  V30 1939 H 190.176 0.443585 -0.494093 0
M  V30 1940 H 192.706 0.837238 -1.86686 0
M  V30 1941 H 192.716 3.18729 -2.54707 0
M  V30 1942 H 191.391 2.40495 -3.39315 0
M  V30 1943 H 189.968 3.2757 -1.78192 0
M  V30 1944 N 192.153 1.28127 0.917671 0
M  V30 1945 C 193.402 1.14432 1.66097 0
M  V30 1946 C 193.715 -0.307247 1.93172 0
M  V30 1947 O 194.921 -0.565259 2.65551 0
M  V30 1948 C 193.377 2.00015 2.99202 0
M  V30 1949 C 192.985 3.49889 2.79789 0
M  V30 1950 C 194.729 1.94996 3.77064 0
M  V30 1951 C 192.636 4.27636 4.08511 0
M  V30 1952 H 191.566 0.424662 0.62304 0
M  V30 1953 H 194.217 1.52628 1.01868 0
M  V30 1954 H 192.599 1.54672 3.64544 0
M  V30 1955 H 193.773 4.03162 2.23152 0
M  V30 1956 H 192.088 3.56392 2.15345 0
M  V30 1957 H 194.685 2.50354 4.72469 0
M  V30 1958 H 195.028 0.925819 4.05875 0
M  V30 1959 H 195.561 2.38287 3.18534 0
M  V30 1960 H 192.3 5.30615 3.84874 0
M  V30 1961 H 191.82 3.79137 4.64774 0
M  V30 1962 H 193.499 4.37346 4.76799 0
M  V30 1963 N 193.631 -1.12557 1.10312 0
M  V30 1964 C 194.859 -1.87864 0.866873 0
M  V30 1965 C 195.274 -1.79588 -0.582557 0
M  V30 1966 O 194.631 -1.16887 -1.40156 0
M  V30 1967 C 194.682 -3.37125 1.30496 0
M  V30 1968 O 194.403 -3.45201 2.69755 0
M  V30 1969 C 195.904 -4.29373 1.10243 0
M  V30 1970 H 193.124 -0.594452 0.311236 0
M  V30 1971 H 195.668 -1.42429 1.46745 0
M  V30 1972 H 193.823 -3.80109 0.748081 0
M  V30 1973 H 194.237 -4.38056 2.88457 0
M  V30 1974 H 195.711 -5.32394 1.45811 0
M  V30 1975 H 196.188 -4.39181 0.0409492 0
M  V30 1976 H 196.794 -3.92169 1.64571 0
M  V30 1977 N 195.109 -0.891671 -1.2995 0
M  V30 1978 C 196.337 -0.52866 -2.00032 0
M  V30 1979 C 196.752 0.884574 -1.66795 0
M  V30 1980 O 196.109 1.5827 -0.908669 0
M  V30 1981 C 196.16 -0.701814 -3.54622 0
M  V30 1982 O 195.881 -2.05942 -3.86678 0
M  V30 1983 C 197.382 -0.342683 -4.41973 0
M  V30 1984 H 194.602 -0.203659 -0.639347 0
M  V30 1985 H 197.146 -1.19881 -1.65677 0
M  V30 1986 H 195.301 -0.0789468 -3.8732 0
M  V30 1987 H 195.715 -2.08291 -4.81368 0
M  V30 1988 H 197.189 -0.514709 -5.49595 0
M  V30 1989 H 197.666 0.71975 -4.33262 0
M  V30 1990 H 198.272 -0.942154 -4.14733 0
M  V30 1991 N 196.587 1.43421 -0.653314 0
M  V30 1992 C 197.998 1.85065 -0.246537 0
M  V30 1993 C 198.349 1.54688 1.2069 0
M  V30 1994 O 197.474 0.995896 1.92122 0
M  V30 1995 C 198.069 3.35922 -0.440666 0
M  V30 1996 C 196.628 3.76297 -0.0882064 0
M  V30 1997 C 195.775 2.67147 -0.743484 0
M  V30 1998 H 198.726 1.33572 -0.856979 0
M  V30 1999 H 198.747 3.79204 0.313798 0
M  V30 2000 H 198.259 3.58 -1.49858 0
M  V30 2001 H 196.36 3.5983 0.96711 0
M  V30 2002 H 196.473 4.76338 -0.513738 0
M  V30 2003 H 194.837 2.54086 -0.176712 0
M  V30 2004 H 195.62 2.92053 -1.80443 0
M  V30 2005 N 198.065 0.39524 1.52563 0
M  V30 2006 C 199.311 -0.185318 2.01952 0
M  V30 2007 C 199.644 -1.45964 1.28095 0
M  V30 2008 O 198.919 -1.90689 0.38315 0
M  V30 2009 C 199.202 -0.447193 3.57312 0
M  V30 2010 C 199.055 0.842828 4.41833 0
M  V30 2011 C 200.374 -1.23529 4.22408 0
M  V30 2012 H 197.493 -0.0658788 0.73405 0
M  V30 2013 H 200.135 0.525975 1.82575 0
M  V30 2014 H 198.285 -1.05312 3.73954 0
M  V30 2015 H 199.957 1.4795 4.36931 0
M  V30 2016 H 198.2 1.45686 4.08605 0
M  V30 2017 H 198.871 0.614165 5.48573 0
M  V30 2018 H 201.347 -0.722445 4.0978 0
M  V30 2019 H 200.223 -1.38727 5.3108 0
M  V30 2020 H 200.484 -2.25213 3.80436 0
M  V30 2021 N 199.544 -1.57102 0.125237 0
M  V30 2022 C 200.507 -2.14471 -0.80838 0
M  V30 2023 C 201.507 -1.0811 -1.19033 0
M  V30 2024 O 202.697 -1.33856 -1.11482 0
M  V30 2025 C 199.829 -2.69005 -2.09402 0
M  V30 2026 H 201.022 -2.98297 -0.309696 0
M  V30 2027 H 198.575 -1.55807 -0.124051 0
M  V30 2028 H 199.31 -1.88785 -2.63687 0
M  V30 2029 H 199.095 -3.46799 -1.82957 0
M  V30 2030 H 200.585 -3.13278 -2.76128 0
M  V30 2031 N 201.022 0.148545 -1.56898 0
M  V30 2032 C 201.97 1.20265 -1.99096 0
M  V30 2033 C 202.964 1.44559 -0.883123 0
M  V30 2034 O 204.17 1.4487 -1.0683 0
M  V30 2035 H 200.545 0.404786 -0.63376 0
M  V30 2036 H 202.516 0.82004 -2.86911 0
M  V30 2037 C 201.265 2.52886 -2.3863 0
M  V30 2038 H 200.588 2.35021 -3.23427 0
M  V30 2039 H 202.028 3.25274 -2.7198 0
M  V30 2040 C 200.487 3.13315 -1.23837 0
M  V30 2041 O 201.017 3.98077 -0.538268 0
M  V30 2042 N 199.223 2.72742 -1.00301 0
M  V30 2043 H 198.77 2.03912 -1.5741 0
M  V30 2044 H 198.728 3.13507 -0.236838 0
M  V30 2045 N 202.5 1.5196 0.417844 0
M  V30 2046 C 203.433 1.69387 1.52916 0
M  V30 2047 C 204.411 0.541419 1.53321 0
M  V30 2048 O 205.595 0.767695 1.72159 0
M  V30 2049 C 202.722 1.72525 2.91467 0
M  V30 2050 C 201.768 2.93967 3.09008 0
M  V30 2051 S 202.601 4.54461 2.83242 0
M  V30 2052 C 203.757 4.60372 4.24038 0
M  V30 2053 H 203.99 2.63382 1.37903 0
M  V30 2054 H 201.523 1.41889 0.608845 0
M  V30 2055 H 203.481 1.75018 3.7132 0
M  V30 2056 H 202.142 0.796733 3.03827 0
M  V30 2057 H 201.335 2.92619 4.10353 0
M  V30 2058 H 200.937 2.89316 2.37007 0
M  V30 2059 H 203.229 4.37213 5.17544 0
M  V30 2060 H 204.172 5.62273 4.30412 0
M  V30 2061 H 204.58 3.89492 4.08602 0
M  V30 2062 N 203.978 -0.674533 1.42435 0
M  V30 2063 C 204.925 -1.78807 1.45934 0
M  V30 2064 C 205.895 -1.63157 0.311271 0
M  V30 2065 O 207.08 -1.83707 0.515383 0
M  V30 2066 C 204.22 -3.16839 1.36773 0
M  V30 2067 C 203.333 -3.43774 2.61617 0
M  V30 2068 C 202.468 -4.71536 2.44597 0
M  V30 2069 C 201.507 -4.91505 3.64814 0
M  V30 2070 N 200.644 -6.10508 3.46734 0
M  V30 2071 H 205.484 -1.75151 2.41093 0
M  V30 2072 H 203.021 -0.85504 1.19697 0
M  V30 2073 H 204.979 -3.96606 1.29459 0
M  V30 2074 H 203.609 -3.19619 0.452089 0
M  V30 2075 H 202.661 -2.58259 2.79297 0
M  V30 2076 H 203.973 -3.54423 3.50978 0
M  V30 2077 H 203.127 -5.59393 2.3487 0
M  V30 2078 H 201.866 -4.6317 1.52726 0
M  V30 2079 H 200.871 -4.0209 3.74972 0
M  V30 2080 H 202.096 -5.01716 4.57665 0
M  V30 2081 H 200.042 -6.03315 2.5758 0
M  V30 2082 H 199.959 -6.2202 4.29682 0
M  V30 2083 H 201.227 -7.01044 3.40819 0
M  V30 2084 N 205.456 -1.28612 -0.910864 0
M  V30 2085 C 206.681 -1.1891 -1.69927 0
M  V30 2086 C 207.106 0.248372 -1.86453 0
M  V30 2087 O 206.464 1.17961 -1.37676 0
M  V30 2088 C 206.512 -1.89578 -3.06745 0
M  V30 2089 O 205.616 -1.20521 -3.94396 0
M  V30 2090 H 204.957 -0.412632 -0.520222 0
M  V30 2091 H 207.487 -1.69985 -1.1387 0
M  V30 2092 H 207.497 -1.97597 -3.56958 0
M  V30 2093 H 206.172 -2.94136 -2.94035 0
M  V30 2094 H 204.749 -1.20684 -3.52831 0
M  V30 2095 N 206.934 1.1197 -1.10907 0
M  V30 2096 C 208.18 1.84059 -0.865674 0
M  V30 2097 C 208.535 1.82731 0.602254 0
M  V30 2098 O 207.828 1.26543 1.43866 0
M  V30 2099 C 208.022 3.30749 -1.35425 0
M  V30 2100 C 207.851 3.46363 -2.86815 0
M  V30 2101 C 206.621 3.59712 -3.54874 0
M  V30 2102 C 208.819 3.41116 -3.84895 0
M  V30 2103 N 206.801 3.63741 -4.94536 0
M  V30 2104 C 208.172 3.51698 -5.10596 0
M  V30 2105 C 210.227 3.24612 -3.77533 0
M  V30 2106 C 208.93 3.4748 -6.29802 0
M  V30 2107 C 210.956 3.21708 -4.96244 0
M  V30 2108 C 210.318 3.32856 -6.20795 0
M  V30 2109 H 206.417 0.689015 -0.369841 0
M  V30 2110 H 209.001 1.34016 -1.41237 0
M  V30 2111 H 207.172 3.79322 -0.834814 0
M  V30 2112 H 208.904 3.90718 -1.05458 0
M  V30 2113 H 205.659 3.62038 -3.05329 0
M  V30 2114 H 206.083 3.69408 -5.67333 0
M  V30 2115 H 210.725 3.14883 -2.8215 0
M  V30 2116 H 208.443 3.55978 -7.25469 0
M  V30 2117 H 212.029 3.10113 -4.92261 0
M  V30 2118 H 210.909 3.3059 -7.11112 0
M  V30 2119 N 208.412 0.89855 1.29475 0
M  V30 2120 C 209.637 0.538561 2.00285 0
M  V30 2121 C 210.062 -0.869135 1.66816 0
M  V30 2122 O 209.42 -1.57831 0.892145 0
M  V30 2123 C 209.468 0.736475 3.52999 0
M  V30 2124 O 208.572 -0.211537 4.11857 0
M  V30 2125 H 207.913 0.210563 0.62973 0
M  V30 2126 H 210.443 1.20982 1.64998 0
M  V30 2127 H 210.453 0.640685 4.02938 0
M  V30 2128 H 209.128 1.76276 3.76696 0
M  V30 2129 H 207.705 -0.0682991 3.72837 0
M  V30 2130 N 209.89 -1.43072 0.660911 0
M  V30 2131 C 211.138 -2.01323 0.177094 0
M  V30 2132 C 211.459 -1.5245 -1.2159 0
M  V30 2133 O 210.729 -0.740322 -1.81373 0
M  V30 2134 H 209.309 -0.744382 0.0624804 0
M  V30 2135 H 211.971 -1.75179 0.854305 0
M  V30 2136 H 211.067 -3.11649 0.167641 0
M  V30 2137 N 211.368 -0.403325 -1.52352 0
M  V30 2138 C 212.316 0.439752 -2.28405 0
M  V30 2139 C 213.31 1.05089 -1.32863 0
M  V30 2140 O 214.516 0.989759 -1.50345 0
M  V30 2141 H 210.891 0.160587 -0.734653 0
M  V30 2142 H 212.862 -0.222983 -2.97566 0
M  V30 2143 C 211.611 1.54736 -3.11371 0
M  V30 2144 H 210.934 1.08643 -3.84755 0
M  V30 2145 H 212.374 2.1112 -3.67701 0
M  V30 2146 C 210.833 2.51141 -2.24566 0
M  V30 2147 O 211.363 3.54887 -1.88196 0
M  V30 2148 N 209.569 2.21213 -1.8845 0
M  V30 2149 H 209.116 1.36878 -2.18225 0
M  V30 2150 H 209.074 2.85963 -1.30662 0
M  V30 2151 N 212.846 1.57033 -0.133567 0
M  V30 2152 C 213.793 2.16074 0.811208 0
M  V30 2153 C 214.763 1.08979 1.2535 0
M  V30 2154 O 215.948 1.36958 1.32843 0
M  V30 2155 C 213.088 2.77595 2.05024 0
M  V30 2156 C 212.201 3.99042 1.65498 0
M  V30 2157 C 211.336 4.48603 2.84479 0
M  V30 2158 C 210.375 5.62547 2.41262 0
M  V30 2159 N 209.512 6.06787 3.53206 0
M  V30 2160 H 214.352 2.96477 0.300906 0
M  V30 2161 H 211.889 1.46462 0.136822 0
M  V30 2162 H 213.847 3.11402 2.77642 0
M  V30 2163 H 212.477 1.99859 2.53488 0
M  V30 2164 H 211.529 3.71302 0.826981 0
M  V30 2165 H 212.841 4.81629 1.29748 0
M  V30 2166 H 211.995 4.84395 3.65303 0
M  V30 2167 H 210.734 3.64995 3.23465 0
M  V30 2168 H 209.739 5.26345 1.58874 0
M  V30 2169 H 210.964 6.47931 2.03377 0
M  V30 2170 H 208.91 5.26117 3.91838 0
M  V30 2171 H 208.827 6.84266 3.21427 0
M  V30 2172 H 210.095 6.4722 4.34427 0
M  V30 2173 N 214.325 -0.140222 1.56975 0
M  V30 2174 C 215.574 -0.850152 1.82908 0
M  V30 2175 C 215.887 -1.82028 0.715892 0
M  V30 2176 O 217.093 -2.57485 0.861016 0
M  V30 2177 C 215.549 -1.5625 3.24213 0
M  V30 2178 C 215.157 -0.63443 4.43485 0
M  V30 2179 C 216.901 -2.25881 3.59413 0
M  V30 2180 C 214.808 -1.34879 5.75814 0
M  V30 2181 H 213.738 -0.321221 0.682153 0
M  V30 2182 H 216.389 -0.102874 1.83211 0
M  V30 2183 H 214.771 -2.35565 3.18316 0
M  V30 2184 H 215.945 0.12398 4.60633 0
M  V30 2185 H 214.26 -0.0461836 4.16374 0
M  V30 2186 H 216.857 -2.79978 4.5554 0
M  V30 2187 H 217.2 -3.02693 2.85802 0
M  V30 2188 H 217.733 -1.53477 3.67001 0
M  V30 2189 H 214.472 -0.622385 6.52539 0
M  V30 2190 H 213.992 -2.07974 5.6259 0
M  V30 2191 H 215.671 -1.88784 6.18845 0
M  V30 2192 N 215.803 -1.52179 -0.40978 0
M  V30 2193 C 216.751 -1.76086 -1.51975 0
M  V30 2194 C 217.745 -0.627964 -1.57331 0
M  V30 2195 O 218.951 -0.809993 -1.60745 0
M  V30 2196 H 215.326 -0.556829 -0.505416 0
M  V30 2197 H 217.297 -2.69077 -1.28996 0
M  V30 2198 C 216.046 -1.92799 -2.8935 0
M  V30 2199 H 215.369 -2.79392 -2.85972 0
M  V30 2200 H 216.809 -2.13527 -3.66309 0
M  V30 2201 C 215.268 -0.694923 -3.29655 0
M  V30 2202 O 215.798 0.13751 -4.01465 0
M  V30 2203 N 214.004 -0.53101 -2.85707 0
M  V30 2204 H 213.551 -1.20952 -2.27439 0
M  V30 2205 H 213.509 0.292718 -3.13034 0
M  V30 2206 N 217.281 0.66697 -1.42791 0
M  V30 2207 C 218.692 1.2478 -1.38877 0
M  V30 2208 C 219.043 1.96012 -0.0859426 0
M  V30 2209 O 218.168 2.00463 0.815081 0
M  V30 2210 C 218.763 2.26938 -2.51564 0
M  V30 2211 C 217.322 2.80529 -2.50959 0
M  V30 2212 C 216.469 1.54965 -2.29959 0
M  V30 2213 H 219.42 0.459853 -1.51892 0
M  V30 2214 H 219.441 3.08834 -2.22265 0
M  V30 2215 H 218.953 1.75065 -3.46372 0
M  V30 2216 H 217.054 3.36502 -1.59991 0
M  V30 2217 H 217.167 3.29012 -3.48265 0
M  V30 2218 H 215.531 1.81817 -1.78366 0
M  V30 2219 H 216.314 1.05047 -3.26833 0
M  V30 2220 N 218.759 1.29093 0.90403 0
M  V30 2221 C 220.005 1.16986 1.65656 0
M  V30 2222 C 220.338 -0.278925 1.92186 0
M  V30 2223 O 219.613 -1.2019 1.5292 0
M  V30 2224 C 219.896 1.97908 3.0084 0
M  V30 2225 C 219.749 3.50903 2.81403 0
M  V30 2226 C 221.068 1.80208 4.01513 0
M  V30 2227 H 218.187 0.426346 0.601164 0
M  V30 2228 H 220.829 1.58518 1.04747 0
M  V30 2229 H 218.979 1.62616 3.52829 0
M  V30 2230 H 220.651 3.96153 2.36348 0
M  V30 2231 H 218.894 3.76045 2.1627 0
M  V30 2232 H 219.565 4.02791 3.77443 0
M  V30 2233 H 222.041 2.11025 3.58619 0
M  V30 2234 H 220.917 2.39184 4.94047 0
M  V30 2235 H 221.178 0.756119 4.35586 0
M  V30 2236 N 220.237 -1.11381 1.11499 0
M  V30 2237 C 221.462 -1.87475 0.887019 0
M  V30 2238 C 221.887 -1.79639 -0.557796 0
M  V30 2239 O 221.245 -1.15924 -1.39396 0
M  V30 2240 C 221.293 -3.34213 1.35403 0
M  V30 2241 O 220.397 -4.0903 0.526146 0
M  V30 2242 H 219.738 -0.582099 0.319463 0
M  V30 2243 H 222.268 -1.40785 1.48461 0
M  V30 2244 H 222.278 -3.8506 1.34881 0
M  V30 2245 H 220.953 -3.39232 2.40612 0
M  V30 2246 H 219.53 -3.68082 0.597522 0
M  V30 2247 N 221.715 -0.905404 -1.28997 0
M  V30 2248 C 222.663 -0.377431 -2.29517 0
M  V30 2249 C 223.657 0.526461 -1.61012 0
M  V30 2250 O 224.863 0.40863 -1.753 0
M  V30 2251 H 221.238 -0.103437 -0.744852 0
M  V30 2252 H 223.209 -1.23848 -2.71485 0
M  V30 2253 C 221.958 0.374833 -3.45674 0
M  V30 2254 H 221.281 -0.311474 -3.98585 0
M  V30 2255 H 222.721 0.70903 -4.1803 0
M  V30 2256 C 221.18 1.57963 -2.97572 0
M  V30 2257 O 221.71 2.67886 -2.99333 0
M  V30 2258 N 219.916 1.42375 -2.53333 0
M  V30 2259 H 219.463 0.529466 -2.521 0
M  V30 2260 H 219.421 2.23117 -2.21509 0
M  V30 2261 N 223.193 1.4272 -0.668489 0
M  V30 2262 C 224.123 2.335 -0.000100175 0
M  V30 2263 C 225.104 1.50328 0.795964 0
M  V30 2264 O 226.289 1.78949 0.754385 0
M  V30 2265 C 223.419 3.33874 0.956302 0
M  V30 2266 C 222.373 4.27152 0.269278 0
M  V30 2267 C 221.699 5.17684 1.33818 0
M  V30 2268 C 222.999 5.15373 -0.847805 0
M  V30 2269 H 224.693 2.89639 -0.758244 0
M  V30 2270 H 222.239 1.39269 -0.366079 0
M  V30 2271 H 224.192 3.9629 1.43292 0
M  V30 2272 H 222.916 2.76025 1.74579 0
M  V30 2273 H 221.575 3.66123 -0.187042 0
M  V30 2274 H 221.223 4.56165 2.1195 0
M  V30 2275 H 220.923 5.80918 0.883659 0
M  V30 2276 H 222.447 5.82974 1.81586 0
M  V30 2277 H 223.861 5.7151 -0.452681 0
M  V30 2278 H 222.258 5.87407 -1.22773 0
M  V30 2279 H 223.328 4.5415 -1.69929 0
M  V30 2280 N 224.671 0.411399 1.52136 0
M  V30 2281 C 225.603 -0.448386 2.24771 0
M  V30 2282 C 226.616 -1.00828 1.27818 0
M  V30 2283 O 227.805 -0.906841 1.53749 0
M  V30 2284 C 224.905 -1.63636 2.96777 0
M  V30 2285 C 224.078 -1.19995 4.20618 0
M  V30 2286 C 223.137 -2.25509 4.75428 0
M  V30 2287 O 222.163 -1.86007 5.3795 0
M  V30 2288 N 223.365 -3.577 4.57199 0
M  V30 2289 H 226.13 0.174025 2.99194 0
M  V30 2290 H 223.691 0.238897 1.60128 0
M  V30 2291 H 225.683 -2.33793 3.30338 0
M  V30 2292 H 224.253 -2.16465 2.25526 0
M  V30 2293 H 223.473 -0.326421 3.92846 0
M  V30 2294 H 224.761 -0.885365 5.01038 0
M  V30 2295 H 224.159 -3.92543 4.07341 0
M  V30 2296 H 222.716 -4.23827 4.95191 0
M  V30 2297 N 226.149 -1.5696 0.141893 0
M  V30 2298 C 227.374 -2.00754 -0.520838 0
M  V30 2299 C 227.799 -1.0213 -1.57959 0
M  V30 2300 O 227.157 0.00371324 -1.813 0
M  V30 2301 C 227.205 -3.43318 -1.10294 0
M  V30 2302 O 226.309 -3.47679 -2.21795 0
M  V30 2303 H 225.65 -0.651564 -0.127908 0
M  V30 2304 H 228.18 -2.03221 0.23712 0
M  V30 2305 H 228.19 -3.82012 -1.43287 0
M  V30 2306 H 226.865 -4.14608 -0.327574 0
M  V30 2307 H 225.442 -3.20824 -1.9007 0
M  V30 2308 N 227.627 0.131896 -1.57047 0
M  V30 2309 C 229.043 0.485031 -1.52051 0
M  V30 2310 C 229.243 1.82563 -0.85281 0
M  V30 2311 O 228.299 2.48817 -0.429694 0
M  V30 2312 C 229.612 0.481409 -2.96821 0
M  V30 2313 C 231.16 0.565868 -3.07842 0
M  V30 2314 C 231.635 0.592762 -4.54148 0
M  V30 2315 N 233.126 0.654564 -4.58552 0
M  V30 2316 C 233.861 0.696608 -5.69153 0
M  V30 2317 N 233.357 0.697078 -6.89284 0
M  V30 2318 N 235.15 0.738639 -5.57226 0
M  V30 2319 H 227.301 -0.746664 -1.98843 0
M  V30 2320 H 229.564 -0.273999 -0.90754 0
M  V30 2321 H 229.27 -0.435731 -3.4899 0
M  V30 2322 H 229.144 1.3139 -3.53577 0
M  V30 2323 H 231.531 1.47343 -2.55684 0
M  V30 2324 H 231.612 -0.29406 -2.54104 0
M  V30 2325 H 231.256 -0.310701 -5.06949 0
M  V30 2326 H 231.186 1.46939 -5.05684 0
M  V30 2327 H 233.677 0.660887 -3.72076 0
M  V30 2328 H 233.99 0.731426 -7.69331 0
M  V30 2329 H 232.335 0.66471 -6.91814 0
M  V30 2330 H 235.526 0.735545 -4.62285 0
M  V30 2331 H 235.699 0.767938 -6.43434 0
M  V30 2332 N 229.106 1.52395 0.401703 0
M  V30 2333 C 230.053 1.76268 1.48991 0
M  V30 2334 C 231.023 0.605386 1.54675 0
M  V30 2335 O 232.208 0.843742 1.7113 0
M  V30 2336 C 229.348 1.92592 2.86361 0
M  V30 2337 C 228.461 3.20259 2.89928 0
M  V30 2338 C 227.596 3.26972 4.18644 0
M  V30 2339 C 226.635 4.48812 4.16214 0
M  V30 2340 N 225.772 4.52877 5.36514 0
M  V30 2341 H 230.612 2.6914 1.27935 0
M  V30 2342 H 228.149 1.33355 0.620871 0
M  V30 2343 H 230.107 2.0004 3.66115 0
M  V30 2344 H 228.737 1.03093 3.05895 0
M  V30 2345 H 227.789 3.21945 2.02621 0
M  V30 2346 H 229.101 4.10056 2.83999 0
M  V30 2347 H 228.255 3.33533 5.06794 0
M  V30 2348 H 226.994 2.35126 4.27278 0
M  V30 2349 H 225.999 4.4239 3.26453 0
M  V30 2350 H 227.224 5.41961 4.09213 0
M  V30 2351 H 225.17 3.63917 5.45802 0
M  V30 2352 H 225.087 5.36529 5.32609 0
M  V30 2353 H 226.355 4.63676 6.26597 0
M  V30 2354 N 230.584 -0.659388 1.43143 0
M  V30 2355 C 231.833 -1.41518 1.43721 0
M  V30 2356 C 232.146 -1.95499 0.0628176 0
M  V30 2357 O 233.352 -2.71446 -0.0539683 0
M  V30 2358 C 231.808 -2.5608 2.52885 0
M  V30 2359 C 231.416 -2.08733 3.96402 0
M  V30 2360 C 233.16 -3.3349 2.62649 0
M  V30 2361 C 231.067 -3.20469 4.97045 0
M  V30 2362 H 229.997 -0.531705 0.534608 0
M  V30 2363 H 232.648 -0.712343 1.69109 0
M  V30 2364 H 231.03 -3.28805 2.20688 0
M  V30 2365 H 232.204 -1.43059 4.3803 0
M  V30 2366 H 230.519 -1.44219 3.90627 0
M  V30 2367 H 233.116 -4.16734 3.35017 0
M  V30 2368 H 233.459 -3.8111 1.67513 0
M  V30 2369 H 233.992 -2.67842 2.94118 0
M  V30 2370 H 230.731 -2.77824 5.93712 0
M  V30 2371 H 230.251 -3.84874 4.60034 0
M  V30 2372 H 231.93 -3.85698 5.19467 0
M  V30 2373 N 232.062 -1.29571 -0.897171 0
M  V30 2374 C 233.292 -1.20408 -1.67886 0
M  V30 2375 C 233.7 0.237429 -1.87704 0
M  V30 2376 O 233.043 1.17048 -1.41582 0
M  V30 2377 C 233.105 -1.84887 -3.08314 0
M  V30 2378 C 232.769 -3.34189 -3.11716 0
M  V30 2379 C 233.766 -4.30374 -2.91675 0
M  V30 2380 C 231.451 -3.75431 -3.33701 0
M  V30 2381 C 233.445 -5.65776 -2.93557 0
M  V30 2382 C 231.132 -5.10955 -3.35214 0
M  V30 2383 C 232.13 -6.05938 -3.15164 0
M  V30 2384 O 231.818 -7.38987 -3.1647 0
M  V30 2385 H 231.55 -0.418289 -0.531046 0
M  V30 2386 H 234.104 -1.71514 -1.13014 0
M  V30 2387 H 232.334 -1.28295 -3.64798 0
M  V30 2388 H 234.023 -1.70011 -3.6858 0
M  V30 2389 H 234.789 -3.99844 -2.74499 0
M  V30 2390 H 230.668 -3.01953 -3.48347 0
M  V30 2391 H 234.212 -6.39889 -2.77826 0
M  V30 2392 H 230.109 -5.4113 -3.51922 0
M  V30 2393 H 230.877 -7.47823 -3.3272 0
M  V30 2394 N 233.54 1.10788 -1.12088 0
M  V30 2395 C 234.473 2.16237 -0.729168 0
M  V30 2396 C 235.451 1.60207 0.277921 0
M  V30 2397 O 236.635 1.87707 0.172737 0
M  V30 2398 C 233.762 3.38609 -0.0786848 0
M  V30 2399 C 232.808 4.13322 -1.05201 0
M  V30 2400 S 233.641 4.69371 -2.57781 0
M  V30 2401 C 234.797 5.95058 -1.94053 0
M  V30 2402 H 235.03 2.4913 -1.62239 0
M  V30 2403 H 232.563 1.22519 -0.939603 0
M  V30 2404 H 234.521 4.09473 0.290254 0
M  V30 2405 H 233.182 3.03962 0.791593 0
M  V30 2406 H 232.375 5.01051 -0.544433 0
M  V30 2407 H 231.977 3.48251 -1.36371 0
M  V30 2408 H 234.269 6.65278 -1.28107 0
M  V30 2409 H 235.212 6.50472 -2.79807 0
M  V30 2410 H 235.62 5.46918 -1.39787 0
M  V30 2411 N 235.018 0.912232 1.28515 0
M  V30 2412 C 236.264 0.554851 1.95686 0
M  V30 2413 C 236.619 -0.89138 1.70506 0
M  V30 2414 O 235.912 -1.62529 1.01464 0
M  V30 2415 C 236.106 0.798392 3.48368 0
M  V30 2416 C 235.935 2.26674 3.88393 0
M  V30 2417 C 234.705 2.91657 4.12631 0
M  V30 2418 C 236.903 3.24303 3.99164 0
M  V30 2419 N 234.885 4.28805 4.39317 0
M  V30 2420 C 236.256 4.4661 4.30046 0
M  V30 2421 C 238.311 3.19723 3.81683 0
M  V30 2422 C 237.014 5.64915 4.45268 0
M  V30 2423 C 239.04 4.37325 3.98121 0
M  V30 2424 C 238.402 5.58406 4.29375 0
M  V30 2425 H 234.501 0.252876 0.739985 0
M  V30 2426 H 237.085 1.17565 1.55199 0
M  V30 2427 H 235.256 0.20688 3.87849 0
M  V30 2428 H 236.988 0.405193 4.02666 0
M  V30 2429 H 233.743 2.42393 4.06869 0
M  V30 2430 H 234.167 4.99712 4.56746 0
M  V30 2431 H 238.809 2.27191 3.56573 0
M  V30 2432 H 236.527 6.57927 4.6921 0
M  V30 2433 H 240.113 4.35282 3.86033 0
M  V30 2434 H 238.993 6.47889 4.41825 0
M  V30 2435 N 236.496 -1.42363 0.676048 0
M  V30 2436 C 237.724 -2.05859 0.207268 0
M  V30 2437 C 238.139 -1.50796 -1.13605 0
M  V30 2438 O 237.496 -0.648265 -1.70598 0
M  V30 2439 C 237.547 -3.61248 0.134975 0
M  V30 2440 O 237.268 -4.1427 1.42521 0
M  V30 2441 C 238.769 -4.41859 -0.357151 0
M  V30 2442 H 235.989 -0.663431 0.100503 0
M  V30 2443 H 238.533 -1.82479 0.923136 0
M  V30 2444 H 236.688 -3.83735 -0.531588 0
M  V30 2445 H 237.102 -5.0815 1.29939 0
M  V30 2446 H 238.576 -5.50847 -0.356641 0
M  V30 2447 H 239.053 -4.16536 -1.39264 0
M  V30 2448 H 239.659 -4.24392 0.27772 0
M  V30 2449 N 237.974 -0.419461 -1.51915 0
M  V30 2450 C 239.222 0.152637 -2.01523 0
M  V30 2451 C 239.543 1.44762 -1.30649 0
M  V30 2452 O 238.813 1.90997 -0.435535 0
M  V30 2453 H 237.393 0.0593966 -0.744635 0
M  V30 2454 H 240.055 -0.558073 -1.86739 0
M  V30 2455 H 239.151 0.341369 -3.10227 0
M  V30 2456 N 239.452 1.56882 -0.150215 0
M  V30 2457 C 240.68 2.00593 0.506948 0
M  V30 2458 C 241.095 1.03033 1.58208 0
M  V30 2459 O 240.452 0.0278396 1.82479 0
M  V30 2460 C 240.503 3.44209 1.10465 0
M  V30 2461 O 240.224 4.3804 0.0724636 0
M  V30 2462 C 241.725 4.03214 1.84211 0
M  V30 2463 H 238.945 0.65795 0.13169 0
M  V30 2464 H 241.489 2.03018 -0.245743 0
M  V30 2465 H 239.644 3.42625 1.80795 0
M  V30 2466 H 240.058 5.22007 0.510793 0
M  V30 2467 H 241.532 5.0569 2.21318 0
M  V30 2468 H 242.009 3.44107 2.72923 0
M  V30 2469 H 242.615 4.08437 1.18572 0
M  V30 2470 N 240.93 -0.123565 1.57115 0
M  V30 2471 C 241.893 -1.13583 1.99076 0
M  V30 2472 C 242.893 -1.34564 0.880296 0
M  V30 2473 O 244.083 -1.31158 1.14644 0
M  V30 2474 C 241.215 -2.49128 2.32698 0
M  V30 2475 H 242.408 -0.775287 2.89706 0
M  V30 2476 H 239.961 -0.36771 1.51913 0
M  V30 2477 H 240.696 -2.90111 1.44934 0
M  V30 2478 H 240.481 -2.35255 3.13684 0
M  V30 2479 H 241.971 -3.2199 2.65918 0
M  V30 2480 N 242.408 -1.52605 -0.393616 0
M  V30 2481 C 243.685 -1.58001 -1.15304 0
M  V30 2482 C 244.065 -0.370385 -2.07825 0
M  V30 2483 O 243.413 0.641638 -2.19306 0
M  V30 2484 C 243.623 -2.91652 -1.91677 0
M  V30 2485 C 244.971 -3.4522 -2.47201 0
M  V30 2486 O 245.995 -2.93495 -2.01839 0
M  V30 2487 O 244.854 -4.35579 -3.3005 0
M  V30 2488 H 241.948 -0.637068 -0.527327 0
M  V30 2489 H 244.494 -1.64939 -0.399141 0
M  V30 2490 H 243.266 -3.71136 -1.23992 0
M  V30 2491 H 242.889 -2.88077 -2.74039 0
M  V30 2492 N 243.887 0.651787 -1.4349 0
M  V30 2493 C 245.115 1.43937 -1.48626 0
M  V30 2494 C 245.53 1.8851 -0.104587 0
M  V30 2495 O 244.887 1.5958 0.885464 0
M  V30 2496 C 244.938 2.6734 -2.43334 0
M  V30 2497 O 244.659 2.24631 -3.76128 0
M  V30 2498 C 246.16 3.60683 -2.57726 0
M  V30 2499 H 243.38 0.44213 -0.504739 0
M  V30 2500 H 245.924 0.798944 -1.88248 0
M  V30 2501 H 244.079 3.2752 -2.06904 0
M  V30 2502 H 244.493 3.04485 -4.2707 0
M  V30 2503 H 245.967 4.43933 -3.28067 0
M  V30 2504 H 246.444 4.08126 -1.62265 0
M  V30 2505 H 247.05 3.06384 -2.94973 0
M  V30 2506 N 245.365 1.30045 0.890287 0
M  V30 2507 C 246.593 1.21472 1.67487 0
M  V30 2508 C 247.008 -0.223241 1.87476 0
M  V30 2509 O 246.365 -1.14828 1.41847 0
M  V30 2510 C 246.416 1.93394 3.05419 0
M  V30 2511 O 246.137 3.31576 2.86337 0
M  V30 2512 C 247.638 1.91414 3.99844 0
M  V30 2513 H 244.858 0.420604 0.522813 0
M  V30 2514 H 247.402 1.7158 1.11268 0
M  V30 2515 H 245.557 1.47099 3.58386 0
M  V30 2516 H 245.971 3.67929 3.73802 0
M  V30 2517 H 247.445 2.46285 4.94012 0
M  V30 2518 H 247.922 0.891833 4.3005 0
M  V30 2519 H 248.528 2.37496 3.52811 0
M  V30 2520 N 246.843 -1.10192 1.12674 0
M  V30 2521 C 248.089 -1.82475 0.884915 0
M  V30 2522 C 248.422 -1.85093 -0.58773 0
M  V30 2523 O 247.697 -1.3134 -1.43457 0
M  V30 2524 C 247.98 -3.29018 1.46353 0
M  V30 2525 C 247.833 -3.34718 3.00473 0
M  V30 2526 C 249.152 -4.25473 1.12519 0
M  V30 2527 H 246.271 -0.662492 0.322915 0
M  V30 2528 H 248.913 -1.2913 1.39375 0
M  V30 2529 H 247.063 -3.74576 1.03077 0
M  V30 2530 H 248.735 -2.97622 3.52447 0
M  V30 2531 H 246.978 -2.74541 3.35872 0
M  V30 2532 H 247.649 -4.37918 3.36053 0
M  V30 2533 H 250.125 -3.88161 1.499 0
M  V30 2534 H 249.001 -5.26365 1.55663 0
M  V30 2535 H 249.262 -4.42084 0.0377407 0
M  V30 2536 N 248.321 -0.919034 -1.28029 0
M  V30 2537 C 249.569 -0.553838 -1.94363 0
M  V30 2538 C 249.89 0.906357 -1.72656 0
M  V30 2539 O 249.16 1.64143 -1.0693 0
M  V30 2540 H 247.74 -0.201834 -0.719216 0
M  V30 2541 H 250.402 -1.16954 -1.55909 0
M  V30 2542 H 249.498 -0.752758 -3.02886 0
M  V30 2543 N 249.799 1.42003 -0.683588 0
M  V30 2544 C 251.21 1.84501 -0.285736 0
M  V30 2545 C 251.561 1.57213 1.17382 0
M  V30 2546 O 250.686 1.03642 1.89966 0
M  V30 2547 C 251.281 3.34912 -0.511821 0
M  V30 2548 C 249.84 3.76025 -0.168005 0
M  V30 2549 C 248.987 2.6551 -0.799983 0
M  V30 2550 H 251.938 1.31724 -0.885119 0
M  V30 2551 H 251.959 3.79784 0.233292 0
M  V30 2552 H 251.471 3.54741 -1.57418 0
M  V30 2553 H 249.572 3.61801 0.890567 0
M  V30 2554 H 249.685 4.75141 -0.614661 0
M  V30 2555 H 248.049 2.53654 -0.230568 0
M  V30 2556 H 248.832 2.8816 -1.86597 0
M  V30 2557 N 251.277 0.427512 1.51691 0
M  V30 2558 C 252.225 -0.403359 2.29076 0
M  V30 2559 C 253.219 -1.02962 1.34518 0
M  V30 2560 O 254.425 -0.965715 1.51901 0
M  V30 2561 H 250.8 -0.148879 0.737115 0
M  V30 2562 H 252.771 0.270295 2.97173 0
M  V30 2563 C 251.52 -1.49763 3.13794 0
M  V30 2564 H 250.843 -1.02508 3.86435 0
M  V30 2565 H 252.283 -2.05244 3.71014 0
M  V30 2566 C 250.742 -2.47536 2.28533 0
M  V30 2567 O 251.272 -3.51848 1.93819 0
M  V30 2568 N 249.478 -2.18187 1.91945 0
M  V30 2569 H 249.025 -1.33389 2.20375 0
M  V30 2570 H 248.983 -2.83848 1.35195 0
M  V30 2571 N 252.755 -1.56801 0.158532 0
M  V30 2572 C 254.001 -1.96781 -0.490405 0
M  V30 2573 C 254.334 -1.04397 -1.63753 0
M  V30 2574 O 253.609 -0.0885805 -1.94298 0
M  V30 2575 C 253.892 -3.4635 -0.985594 0
M  V30 2576 C 253.745 -4.49512 0.160824 0
M  V30 2577 C 255.064 -3.98697 -1.86355 0
M  V30 2578 H 252.183 -0.715482 -0.176788 0
M  V30 2579 H 254.825 -1.88451 0.242088 0
M  V30 2580 H 252.975 -3.53579 -1.60978 0
M  V30 2581 H 254.647 -4.54353 0.797537 0
M  V30 2582 H 252.89 -4.26013 0.818256 0
M  V30 2583 H 253.561 -5.51531 -0.227569 0
M  V30 2584 H 256.037 -3.94019 -1.33746 0
M  V30 2585 H 254.913 -5.03792 -2.17909 0
M  V30 2586 H 255.174 -3.41744 -2.8047 0
M  V30 2587 N 254.233 0.115231 -1.57178 0
M  V30 2588 C 255.166 1.17166 -1.95825 0
M  V30 2589 C 256.144 1.39912 -0.828463 0
M  V30 2590 O 257.328 1.54004 -1.08697 0
M  V30 2591 C 254.455 2.52478 -2.25771 0
M  V30 2592 C 253.501 2.46136 -3.48309 0
M  V30 2593 S 254.334 1.89736 -5.0076 0
M  V30 2594 C 255.49 3.26713 -5.33863 0
M  V30 2595 H 255.723 0.842103 -2.85124 0
M  V30 2596 H 253.256 0.322136 -1.51002 0
M  V30 2597 H 255.214 3.30332 -2.43702 0
M  V30 2598 H 253.875 2.82609 -1.37079 0
M  V30 2599 H 253.068 3.45819 -3.66641 0
M  V30 2600 H 252.67 1.76404 -3.29784 0
M  V30 2601 H 254.962 4.22935 -5.29275 0
M  V30 2602 H 255.905 3.13205 -6.35065 0
M  V30 2603 H 256.313 3.25316 -4.61335 0
M  V30 2604 N 255.711 1.52812 0.385517 0
M  V30 2605 C 256.936 1.72207 1.15583 0
M  V30 2606 C 257.361 0.441034 1.82857 0
M  V30 2607 O 256.719 -0.603465 1.70962 0
M  V30 2608 C 256.767 2.87476 2.17692 0
M  V30 2609 O 255.871 2.54693 3.24354 0
M  V30 2610 H 255.212 0.572526 0.336319 0
M  V30 2611 H 257.742 1.99618 0.448744 0
M  V30 2612 H 257.752 3.13072 2.6163 0
M  V30 2613 H 256.427 3.80408 1.68115 0
M  V30 2614 H 255.004 2.3985 2.85529 0
M  V30 2615 N 257.189 -0.644168 1.43834 0
M  V30 2616 C 258.121 -1.76955 1.45669 0
M  V30 2617 C 259.134 -1.58956 0.351666 0
M  V30 2618 O 260.323 -1.6751 0.616644 0
M  V30 2619 C 257.423 -3.14507 1.26248 0
M  V30 2620 C 256.596 -3.59083 2.49757 0
M  V30 2621 C 255.655 -4.75467 2.25427 0
M  V30 2622 O 254.681 -4.84444 2.98836 0
M  V30 2623 N 255.883 -5.66289 1.27661 0
M  V30 2624 H 258.648 -1.75856 2.42682 0
M  V30 2625 H 256.209 -0.828312 1.39106 0
M  V30 2626 H 258.201 -3.90067 1.0784 0
M  V30 2627 H 256.771 -3.10325 0.376478 0
M  V30 2628 H 255.991 -2.7387 2.8353 0
M  V30 2629 H 257.279 -3.85613 3.31934 0
M  V30 2630 H 256.677 -5.61718 0.670064 0
M  V30 2631 H 255.234 -6.41533 1.15234 0
M  V30 2632 N 258.668 -1.30515 -0.883378 0
M  V30 2633 C 259.598 -1.19607 -2.00541 0
M  V30 2634 C 260.579 -0.086346 -1.69881 0
M  V30 2635 O 261.764 -0.268654 -1.92333 0
M  V30 2636 C 258.894 -0.888758 -3.35736 0
M  V30 2637 C 257.848 -1.95659 -3.8066 0
M  V30 2638 C 257.174 -1.50224 -5.13164 0
M  V30 2639 C 258.474 -3.36788 -3.99213 0
M  V30 2640 H 260.168 -2.13476 -2.09925 0
M  V30 2641 H 257.714 -1.02775 -1.00863 0
M  V30 2642 H 259.667 -0.799094 -4.13754 0
M  V30 2643 H 258.391 0.0856125 -3.26488 0
M  V30 2644 H 257.05 -2.03591 -3.04871 0
M  V30 2645 H 256.698 -0.516092 -5.00345 0
M  V30 2646 H 256.398 -2.2165 -5.44192 0
M  V30 2647 H 257.922 -1.42639 -5.93706 0
M  V30 2648 H 259.336 -3.31605 -4.67665 0
M  V30 2649 H 257.733 -4.06314 -4.41621 0
M  V30 2650 H 258.803 -3.78561 -3.03017 0
M  V30 2651 N 260.146 1.09593 -1.13257 0
M  V30 2652 C 261.093 2.1618 -0.808381 0
M  V30 2653 C 262.063 1.64517 0.228754 0
M  V30 2654 O 263.248 1.9053 0.101381 0
M  V30 2655 C 260.388 3.43973 -0.278675 0
M  V30 2656 C 259.501 4.09545 -1.37466 0
M  V30 2657 C 258.636 5.25088 -0.803479 0
M  V30 2658 C 257.675 5.82579 -1.87799 0
M  V30 2659 N 256.812 6.89486 -1.32488 0
M  V30 2660 H 261.652 2.43254 -1.72138 0
M  V30 2661 H 259.189 1.19392 -0.859294 0
M  V30 2662 H 261.147 4.17174 0.0465583 0
M  V30 2663 H 259.777 3.17223 0.597459 0
M  V30 2664 H 258.829 3.34226 -1.81652 0
M  V30 2665 H 260.141 4.48307 -2.18684 0
M  V30 2666 H 259.295 6.05178 -0.429427 0
M  V30 2667 H 258.034 4.87684 0.0397956 0
M  V30 2668 H 257.039 5.01152 -2.26113 0
M  V30 2669 H 258.264 6.22045 -2.72463 0
M  V30 2670 H 256.21 6.54064 -0.503575 0
M  V30 2671 H 256.127 7.27007 -2.07355 0
M  V30 2672 H 257.395 7.73336 -0.978336 0
M  V30 2673 N 261.624 0.925811 1.2754 0
M  V30 2674 C 262.852 0.581509 1.9856 0
M  V30 2675 C 263.267 -0.840041 1.69082 0
M  V30 2676 O 262.624 -1.55805 0.950312 0
M  V30 2677 C 262.675 0.795589 3.52637 0
M  V30 2678 O 262.396 2.16121 3.81082 0
M  V30 2679 C 263.897 0.459744 4.4091 0
M  V30 2680 H 261.117 0.220538 0.633722 0
M  V30 2681 H 263.661 1.24232 1.6244 0
M  V30 2682 H 261.816 0.18161 3.86974 0
M  V30 2683 H 262.23 2.2098 4.75676 0
M  V30 2684 H 263.704 0.660244 5.48037 0
M  V30 2685 H 264.181 -0.604625 4.35018 0
M  V30 2686 H 264.787 1.05178 4.12089 0
M  V30 2687 N 263.102 -1.41638 0.69111 0
M  V30 2688 C 264.034 -2.29194 -0.0161523 0
M  V30 2689 C 265.047 -1.44549 -0.748955 0
M  V30 2690 O 266.236 -1.681 -0.6004 0
M  V30 2691 C 263.336 -3.22325 -1.0469 0
M  V30 2692 C 262.509 -4.35706 -0.384621 0
M  V30 2693 C 261.568 -5.09443 -1.31737 0
M  V30 2694 O 260.594 -5.63386 -0.811451 0
M  V30 2695 N 261.796 -5.16487 -2.64993 0
M  V30 2696 H 264.561 -2.90534 0.735523 0
M  V30 2697 H 262.122 -1.52742 0.53679 0
M  V30 2698 H 264.114 -3.68522 -1.67252 0
M  V30 2699 H 262.684 -2.62323 -1.70015 0
M  V30 2700 H 261.904 -3.91948 0.420804 0
M  V30 2701 H 263.192 -5.08743 0.0760765 0
M  V30 2702 H 262.59 -4.741 -3.08619 0
M  V30 2703 H 261.147 -5.66276 -3.22761 0
M  V30 2704 N 264.58 -0.43555 -1.51462 0
M  V30 2705 C 265.51 0.367376 -2.30592 0
M  V30 2706 C 266.491 1.02263 -1.35928 0
M  V30 2707 O 267.676 1.02661 -1.64847 0
M  V30 2708 C 264.806 1.46983 -3.14664 0
M  V30 2709 C 263.76 0.938161 -4.17591 0
M  V30 2710 C 263.086 2.13622 -4.90173 0
M  V30 2711 C 264.386 -0.0261621 -5.22293 0
M  V30 2712 H 266.08 -0.292969 -2.97963 0
M  V30 2713 H 263.626 -0.14234 -1.43295 0
M  V30 2714 H 265.579 2.03873 -3.688 0
M  V30 2715 H 264.303 2.15843 -2.4511 0
M  V30 2716 H 262.962 0.391481 -3.64504 0
M  V30 2717 H 262.61 2.81098 -4.17124 0
M  V30 2718 H 262.31 1.78688 -5.59772 0
M  V30 2719 H 263.834 2.7107 -5.47132 0
M  V30 2720 H 265.248 0.452384 -5.71512 0
M  V30 2721 H 263.645 -0.287992 -5.99409 0
M  V30 2722 H 264.715 -0.963391 -4.75233 0
M  V30 2723 N 266.058 1.56714 -0.166846 0
M  V30 2724 C 267.021 2.16539 0.751232 0
M  V30 2725 C 268.021 1.11228 1.16125 0
M  V30 2726 O 269.211 1.36765 1.07894 0
M  V30 2727 C 266.343 2.74462 2.02196 0
M  V30 2728 H 267.536 2.99013 0.230499 0
M  V30 2729 H 265.089 1.56081 0.0826982 0
M  V30 2730 H 265.824 1.95709 2.58589 0
M  V30 2731 H 265.609 3.51527 1.73698 0
M  V30 2732 H 267.099 3.20489 2.67725 0
M  V30 2733 N 267.536 -0.106894 1.57237 0
M  V30 2734 C 268.484 -1.14944 2.02215 0
M  V30 2735 C 269.478 -1.42167 0.92114 0
M  V30 2736 O 270.684 -1.41987 1.10634 0
M  V30 2737 H 267.059 -0.387841 0.64427 0
M  V30 2738 H 269.03 -0.743683 2.88984 0
M  V30 2739 C 267.779 -2.4647 2.4525 0
M  V30 2740 H 267.102 -2.26363 3.29545 0
M  V30 2741 H 268.542 -3.17948 2.80508 0
M  V30 2742 C 267.001 -3.09921 1.321 0
M  V30 2743 O 267.531 -3.9651 0.643622 0
M  V30 2744 N 265.737 -2.69986 1.07497 0
M  V30 2745 H 265.284 -1.99667 1.62761 0
M  V30 2746 H 265.242 -3.12769 0.319876 0
M  V30 2747 N 269.014 -1.53014 -0.377408 0
M  V30 2748 C 270.261 -1.68623 -1.12128 0
M  V30 2749 C 270.589 -0.431997 -1.89642 0
M  V30 2750 O 269.844 0.585855 -1.86725 0
M  V30 2751 C 270.143 -2.87982 -2.11663 0
M  V30 2752 C 269.809 -4.24964 -1.50719 0
M  V30 2753 C 268.471 -4.62217 -1.33825 0
M  V30 2754 C 270.823 -5.10199 -1.06519 0
M  V30 2755 C 268.151 -5.82352 -0.712963 0
M  V30 2756 C 270.503 -6.30969 -0.453955 0
M  V30 2757 C 269.167 -6.66944 -0.272411 0
M  V30 2758 H 268.437 -0.617034 -0.410305 0
M  V30 2759 H 271.084 -1.8718 -0.404484 0
M  V30 2760 H 269.389 -2.63889 -2.89603 0
M  V30 2761 H 271.086 -2.97253 -2.6915 0
M  V30 2762 H 267.676 -3.95626 -1.64858 0
M  V30 2763 H 271.86 -4.81978 -1.18368 0
M  V30 2764 H 267.116 -6.08824 -0.560611 0
M  V30 2765 H 271.29 -6.96324 -0.103217 0
M  V30 2766 H 268.917 -7.59898 0.214181 0
M  V30 2767 N 270.492 0.636531 -1.44174 0
M  V30 2768 C 271.455 1.73063 -1.50273 0
M  V30 2769 C 272.455 1.56113 -0.385397 0
M  V30 2770 O 273.645 1.61707 -0.64781 0
M  V30 2771 C 270.777 3.12096 -1.37145 0
M  V30 2772 H 271.97 1.69031 -2.47727 0
M  V30 2773 H 269.523 0.849706 -1.31186 0
M  V30 2774 H 270.258 3.21728 -0.407636 0
M  V30 2775 H 270.043 3.25805 -2.18159 0
M  V30 2776 H 271.533 3.91846 -1.44382 0
M  V30 2777 N 271.97 1.30982 0.876444 0
M  V30 2778 C 273.195 1.23373 1.66715 0
M  V30 2779 C 273.62 -0.19885 1.87046 0
M  V30 2780 O 272.978 -1.1427 1.40756 0
M  V30 2781 C 273.026 1.97644 3.01611 0
M  V30 2782 O 272.13 1.30935 3.91062 0
M  V30 2783 H 271.471 0.426279 0.509099 0
M  V30 2784 H 274.001 1.72944 1.09323 0
M  V30 2785 H 274.011 2.06992 3.51594 0
M  V30 2786 H 272.686 3.01829 2.86133 0
M  V30 2787 H 271.263 1.29996 3.49507 0
M  V30 2788 N 273.449 -1.08991 1.13837 0
M  V30 2789 C 274.412 -2.13925 0.822715 0
M  V30 2790 C 275.412 -1.599 -0.1699 0
M  V30 2791 O 276.602 -1.74104 0.0577251 0
M  V30 2792 C 273.734 -3.40155 0.225318 0
M  V30 2793 H 274.927 -2.43358 1.75262 0
M  V30 2794 H 272.48 -1.24603 0.943594 0
M  V30 2795 H 273.215 -3.16352 -0.713594 0
M  V30 2796 H 273 -3.80661 0.940193 0
M  V30 2797 H 274.49 -4.17594 0.0214784 0
M  V30 2798 N 274.927 -0.932562 -1.27047 0
M  V30 2799 C 275.89 -0.440064 -2.24936 0
M  V30 2800 C 276.89 0.444071 -1.54547 0
M  V30 2801 O 278.08 0.244465 -1.72476 0
M  V30 2802 C 275.212 0.36678 -3.38921 0
M  V30 2803 H 276.405 -1.305 -2.70018 0
M  V30 2804 H 273.958 -0.713707 -1.39054 0
M  V30 2805 H 274.693 1.25033 -2.99228 0
M  V30 2806 H 274.478 -0.267204 -3.91188 0
M  V30 2807 H 275.968 0.701567 -4.11665 0
M  V30 2808 N 276.405 1.4127 -0.698611 0
M  V30 2809 C 277.353 2.32588 -0.023855 0
M  V30 2810 C 278.347 1.51128 0.765292 0
M  V30 2811 O 279.553 1.67043 0.670571 0
M  V30 2812 H 275.928 0.751918 0.0110871 0
M  V30 2813 H 277.899 2.87167 -0.811031 0
M  V30 2814 C 276.648 3.35947 0.896369 0
M  V30 2815 H 275.971 3.98684 0.298548 0
M  V30 2816 H 277.411 4.02376 1.33676 0
M  V30 2817 C 275.87 2.70076 2.01396 0
M  V30 2818 O 276.4 2.55093 3.10307 0
M  V30 2819 N 274.606 2.28724 1.79259 0
M  V30 2820 H 274.153 2.4111 0.906841 0
M  V30 2821 H 274.111 1.84986 2.54219 0
M  V30 2822 N 277.883 0.443576 1.51229 0
M  V30 2823 C 279.129 -0.120975 2.02439 0
M  V30 2824 C 279.462 -1.41815 1.32674 0
M  V30 2825 O 278.737 -1.89373 0.443622 0
M  V30 2826 C 279.02 -0.333291 3.58554 0
M  V30 2827 C 278.873 0.982968 4.38928 0
M  V30 2828 C 280.192 -1.10028 4.26124 0
M  V30 2829 H 277.311 -0.0424923 0.735774 0
M  V30 2830 H 279.953 0.583794 1.80809 0
M  V30 2831 H 278.103 -0.933614 3.77115 0
M  V30 2832 H 279.775 1.61775 4.32003 0
M  V30 2833 H 278.018 1.58611 4.03763 0
M  V30 2834 H 278.689 0.788379 5.46341 0
M  V30 2835 H 281.165 -0.591711 4.11871 0
M  V30 2836 H 280.041 -1.21761 5.35225 0
M  V30 2837 H 280.302 -2.12996 3.87408 0
M  V30 2838 N 279.361 -1.56624 0.175154 0
M  V30 2839 C 280.586 -2.01813 -0.478137 0
M  V30 2840 C 281.011 -1.05457 -1.55757 0
M  V30 2841 O 280.369 -0.0347439 -1.81267 0
M  V30 2842 C 280.417 -3.45581 -1.02987 0
M  V30 2843 O 279.521 -3.52305 -2.14371 0
M  V30 2844 H 278.862 -0.65413 -0.114059 0
M  V30 2845 H 281.392 -2.02673 0.280173 0
M  V30 2846 H 281.402 -3.84965 -1.35151 0
M  V30 2847 H 280.077 -4.1521 -0.239556 0
M  V30 2848 H 278.654 -3.24783 -1.83222 0
M  V30 2849 N 280.839 0.0985539 -1.57292 0
M  V30 2850 C 282.069 0.815135 -1.8984 0
M  V30 2851 C 282.477 1.7297 -0.766679 0
M  V30 2852 O 281.82 1.81698 0.270483 0
M  V30 2853 C 281.882 1.6842 -3.17608 0
M  V30 2854 C 281.546 0.94182 -4.4719 0
M  V30 2855 C 282.543 0.273212 -5.19182 0
M  V30 2856 C 280.228 0.916927 -4.9386 0
M  V30 2857 C 282.222 -0.410361 -6.36078 0
M  V30 2858 C 279.909 0.229567 -6.10669 0
M  V30 2859 C 280.907 -0.432902 -6.81627 0
M  V30 2860 O 280.595 -1.10925 -7.9621 0
M  V30 2861 H 280.327 0.238501 -0.632529 0
M  V30 2862 H 282.881 0.0812659 -2.05239 0
M  V30 2863 H 281.111 2.46022 -2.98345 0
M  V30 2864 H 282.8 2.27704 -3.36015 0
M  V30 2865 H 283.566 0.283927 -4.84168 0
M  V30 2866 H 279.445 1.42201 -4.3852 0
M  V30 2867 H 282.989 -0.928013 -6.914 0
M  V30 2868 H 278.886 0.216686 -6.45136 0
M  V30 2869 H 279.654 -1.01579 -8.12172 0
M  V30 2870 N 282.317 1.53212 0.369288 0
M  V30 2871 C 283.566 1.68436 1.10961 0
M  V30 2872 C 283.879 0.440738 1.9057 0
M  V30 2873 O 285.085 0.473446 2.6734 0
M  V30 2874 C 283.541 2.97744 2.0218 0
M  V30 2875 C 283.149 4.29355 1.279 0
M  V30 2876 C 284.893 3.22334 2.76226 0
M  V30 2877 C 282.8 5.49755 2.17999 0
M  V30 2878 H 281.73 0.627568 0.41794 0
M  V30 2879 H 284.381 1.79713 0.370884 0
M  V30 2880 H 282.763 2.8026 2.79768 0
M  V30 2881 H 283.937 4.57458 0.554007 0
M  V30 2882 H 282.252 4.11179 0.657311 0
M  V30 2883 H 284.849 4.09471 3.43857 0
M  V30 2884 H 285.192 2.38238 3.41392 0
M  V30 2885 H 285.725 3.40475 2.05723 0
M  V30 2886 H 282.464 6.36318 1.57417 0
M  V30 2887 H 281.984 5.25937 2.88359 0
M  V30 2888 H 283.663 5.84401 2.77641 0
M  V30 2889 N 283.795 -0.628877 1.44509 0
M  V30 2890 C 285.023 -1.41554 1.50897 0
M  V30 2891 C 285.438 -1.8832 0.134564 0
M  V30 2892 O 284.795 -1.60969 -0.859965 0
M  V30 2893 C 284.846 -2.63435 2.47556 0
M  V30 2894 O 284.567 -2.18619 3.79654 0
M  V30 2895 C 286.068 -3.56537 2.63431 0
M  V30 2896 H 283.288 -0.434044 0.511709 0
M  V30 2897 H 285.832 -0.768895 1.89495 0
M  V30 2898 H 283.987 -3.24187 2.12089 0
M  V30 2899 H 284.401 -2.97652 4.31861 0
M  V30 2900 H 285.875 -4.38657 3.35088 0
M  V30 2901 H 286.352 -4.05493 1.68738 0
M  V30 2902 H 286.958 -3.01653 2.9981 0
M  V30 2903 N 285.273 -1.31445 -0.869486 0
M  V30 2904 C 286.501 -1.24122 -1.65534 0
M  V30 2905 C 286.916 0.193387 -1.87807 0
M  V30 2906 O 286.273 1.12557 -1.43656 0
M  V30 2907 C 286.324 -1.98229 -3.02304 0
M  V30 2908 O 286.045 -3.3609 -2.81026 0
M  V30 2909 C 287.546 -1.97751 -3.96749 0
M  V30 2910 H 284.766 -0.428868 -0.516055 0
M  V30 2911 H 287.31 -1.73328 -1.08525 0
M  V30 2912 H 285.465 -1.52782 -3.56001 0
M  V30 2913 H 285.879 -3.7383 -3.67902 0
M  V30 2914 H 287.353 -2.54114 -4.90031 0
M  V30 2915 H 287.83 -0.960137 -4.28577 0
M  V30 2916 H 288.436 -2.43079 -3.48988 0
M  V30 2917 N 286.751 1.08385 -1.14413 0
M  V30 2918 C 287.976 1.85057 -0.936413 0
M  V30 2919 C 288.401 1.81055 0.509971 0
M  V30 2920 O 287.759 1.1958 1.36273 0
M  V30 2921 C 287.807 3.30505 -1.44217 0
M  V30 2922 O 286.911 4.07491 -0.634409 0
M  V30 2923 H 286.252 0.573425 -0.334784 0
M  V30 2924 H 288.782 1.36799 -1.52142 0
M  V30 2925 H 288.792 3.81348 -1.45043 0
M  V30 2926 H 287.467 3.32734 -2.49522 0
M  V30 2927 H 286.044 3.66368 -0.694902 0
M  V30 2928 N 288.23 0.939286 1.26551 0
M  V30 2929 C 289.478 0.58469 1.93457 0
M  V30 2930 C 289.799 -0.878774 1.74076 0
M  V30 2931 O 289.069 -1.62421 1.09528 0
M  V30 2932 H 287.649 0.21325 0.715914 0
M  V30 2933 H 290.311 1.1942 1.54029 0
M  V30 2934 H 289.407 0.800849 3.0165 0
M  V30 2935 N 289.708 -1.40897 0.706093 0
M  V30 2936 C 290.671 -2.29131 0.0562841 0
M  V30 2937 C 291.671 -1.44901 -0.697166 0
M  V30 2938 O 292.861 -1.65926 -0.530484 0
M  V30 2939 C 289.993 -3.27957 -0.93043 0
M  V30 2940 H 291.186 -2.88091 0.833284 0
M  V30 2941 H 288.739 -1.4906 0.470192 0
M  V30 2942 H 289.474 -2.73997 -1.73482 0
M  V30 2943 H 289.259 -3.90124 -0.393166 0
M  V30 2944 H 290.749 -3.94049 -1.38256 0
M  V30 2945 N 291.186 -0.45159 -1.50991 0
M  V30 2946 C 292.149 0.341117 -2.26647 0
M  V30 2947 C 293.149 0.937422 -1.30649 0
M  V30 2948 O 294.339 0.809644 -1.54241 0
M  V30 2949 C 291.471 1.48398 -3.06905 0
M  V30 2950 H 292.664 -0.322117 -2.98165 0
M  V30 2951 H 290.217 -0.205122 -1.54948 0
M  V30 2952 H 290.952 2.18284 -2.39838 0
M  V30 2953 H 290.737 1.06241 -3.77432 0
M  V30 2954 H 292.227 2.04367 -3.64176 0
M  V30 2955 N 292.664 1.56529 -0.183458 0
M  V30 2956 C 293.614 2.1515 0.754605 0
M  V30 2957 C 294.598 1.08904 1.18443 0
M  V30 2958 O 295.79 1.34997 1.14476 0
M  V30 2959 C 292.919 2.80531 1.97881 0
M  V30 2960 C 292.005 3.93952 1.57043 0
M  V30 2961 N 292.396 4.98221 0.87231 0
M  V30 2962 C 290.694 4.05338 1.86057 0
M  V30 2963 C 291.395 5.77836 0.669377 0
M  V30 2964 N 290.371 5.29858 1.21454 0
M  V30 2965 H 294.173 2.93132 0.212387 0
M  V30 2966 H 291.687 1.62391 0.0167725 0
M  V30 2967 H 293.684 3.20914 2.6612 0
M  V30 2968 H 292.344 2.04035 2.52586 0
M  V30 2969 H 293.355 5.15191 0.529033 0
M  V30 2970 H 290.032 3.39957 2.42354 0
M  V30 2971 H 291.422 6.71799 0.116422 0
M  V30 2972 N 294.142 -0.090211 1.57342 0
M  V30 2973 C 295.37 -0.806224 1.90546 0
M  V30 2974 C 295.785 -1.72041 0.777644 0
M  V30 2975 O 295.142 -1.80778 -0.250103 0
M  V30 2976 C 295.193 -1.61546 3.23396 0
M  V30 2977 O 294.914 -0.738043 4.31839 0
M  V30 2978 C 296.415 -2.4341 3.70495 0
M  V30 2979 H 293.635 -0.230256 0.630257 0
M  V30 2980 H 296.179 -0.0659843 2.04394 0
M  V30 2981 H 294.334 -2.30816 3.11131 0
M  V30 2982 H 294.748 -1.29901 5.08159 0
M  V30 2983 H 296.222 -2.95676 4.66133 0
M  V30 2984 H 296.699 -3.22098 2.98579 0
M  V30 2985 H 297.305 -1.79331 3.85643 0
M  V30 2986 N 295.62 -1.53406 -0.361157 0
M  V30 2987 C 296.867 -1.69802 -1.10333 0
M  V30 2988 C 297.195 -0.452087 -1.89173 0
M  V30 2989 O 296.45 0.566017 -1.87336 0
M  V30 2990 C 296.749 -2.90211 -2.08596 0
M  V30 2991 C 296.415 -4.26539 -1.46203 0
M  V30 2992 C 295.077 -4.6361 -1.28915 0
M  V30 2993 C 297.429 -5.113 -1.01101 0
M  V30 2994 C 294.757 -5.83075 -0.651157 0
M  V30 2995 C 297.109 -6.31415 -0.387007 0
M  V30 2996 C 295.773 -6.67195 -0.201657 0
M  V30 2997 H 295.043 -0.621351 -0.403737 0
M  V30 2998 H 297.69 -1.87598 -0.384609 0
M  V30 2999 H 295.995 -2.66946 -2.86788 0
M  V30 3000 H 297.692 -3.00091 -2.65982 0
M  V30 3001 H 294.282 -3.97352 -1.60653 0
M  V30 3002 H 298.466 -4.83206 -1.13249 0
M  V30 3003 H 293.722 -6.09385 -0.496006 0
M  V30 3004 H 297.896 -6.96394 -0.0293563 0
M  V30 3005 H 295.523 -7.59628 0.294766 0
M  V30 3006 N 297.098 0.621204 -1.44841 0
M  V30 3007 C 298.509 1.20298 -1.42777 0
M  V30 3008 C 298.86 1.95639 -0.148259 0
M  V30 3009 O 297.985 2.02955 0.750892 0
M  V30 3010 C 298.58 2.1882 -2.58657 0
M  V30 3011 C 297.139 2.72403 -2.59756 0
M  V30 3012 C 296.286 1.4757 -2.34773 0
M  V30 3013 H 299.237 0.411297 -1.53278 0
M  V30 3014 H 299.258 3.01607 -2.31977 0
M  V30 3015 H 298.77 1.63957 -3.51766 0
M  V30 3016 H 296.871 3.31242 -1.70615 0
M  V30 3017 H 296.984 3.17765 -3.58556 0
M  V30 3018 H 295.348 1.76051 -1.8406 0
M  V30 3019 H 296.131 0.945954 -3.3001 0
M  V30 3020 N 298.576 1.31904 0.862503 0
M  V30 3021 C 299.804 1.24998 1.64873 0
M  V30 3022 C 300.219 -0.183425 1.87907 0
M  V30 3023 O 299.576 -1.11794 1.44251 0
M  V30 3024 C 299.627 1.99829 3.01248 0
M  V30 3025 O 299.348 3.37575 2.79239 0
M  V30 3026 C 300.849 1.99852 3.95694 0
M  V30 3027 H 298.069 0.431599 0.513773 0
M  V30 3028 H 300.613 1.73901 1.07604 0
M  V30 3029 H 298.768 1.54668 3.55185 0
M  V30 3030 H 299.182 3.75776 3.65914 0
M  V30 3031 H 300.656 2.56709 4.88676 0
M  V30 3032 H 301.133 0.982852 4.28062 0
M  V30 3033 H 301.739 2.44926 3.47694 0
M  V30 3034 N 300.054 -1.07777 1.14986 0
M  V30 3035 C 301.331 -1.7699 0.832695 0
M  V30 3036 C 301.711 -2.001 -0.672561 0
M  V30 3037 O 301.059 -1.61598 -1.6155 0
M  V30 3038 C 301.269 -3.08139 1.63863 0
M  V30 3039 C 302.617 -3.8256 1.84208 0
M  V30 3040 O 303.641 -3.17939 1.60603 0
M  V30 3041 O 302.5 -4.98612 2.23714 0
M  V30 3042 H 299.594 -0.768389 0.305791 0
M  V30 3043 H 302.14 -1.14182 1.25541 0
M  V30 3044 H 300.912 -2.86909 2.6608 0
M  V30 3045 H 300.535 -3.78678 1.21197 0
M  V30 3046 N 301.532 -0.945985 -1.26051 0
M  V30 3047 C 302.779 -0.596118 -1.93527 0
M  V30 3048 C 303.107 0.865559 -1.74179 0
M  V30 3049 O 302.362 1.63524 -1.0751 0
M  V30 3050 C 302.661 -0.890475 -3.46129 0
M  V30 3051 C 302.327 -2.3368 -3.85622 0
M  V30 3052 C 300.989 -2.73216 -3.96114 0
M  V30 3053 C 303.341 -3.27648 -4.05334 0
M  V30 3054 C 300.669 -4.05806 -4.2372 0
M  V30 3055 C 303.021 -4.59841 -4.3443 0
M  V30 3056 C 301.685 -4.99185 -4.43137 0
M  V30 3057 H 300.955 -0.218135 -0.708165 0
M  V30 3058 H 303.602 -1.1934 -1.49768 0
M  V30 3059 H 301.907 -0.210711 -3.91233 0
M  V30 3060 H 303.604 -0.598478 -3.96509 0
M  V30 3061 H 300.194 -2.02015 -3.78005 0
M  V30 3062 H 304.378 -2.98298 -3.96651 0
M  V30 3063 H 299.634 -4.35945 -4.28675 0
M  V30 3064 H 303.808 -5.32641 -4.48628 0
M  V30 3065 H 301.435 -6.01952 -4.64282 0
M  V30 3066 N 303.011 1.40521 -0.713556 0
M  V30 3067 C 304.288 1.94775 -0.17943 0
M  V30 3068 C 304.668 1.65184 1.31444 0
M  V30 3069 O 304.016 0.968429 2.06963 0
M  V30 3070 C 304.226 3.45543 -0.489986 0
M  V30 3071 C 305.574 4.22442 -0.427536 0
M  V30 3072 O 306.598 3.53644 -0.425929 0
M  V30 3073 O 305.457 5.4501 -0.403292 0
M  V30 3074 H 302.551 0.826606 -0.0255192 0
M  V30 3075 H 305.097 1.5014 -0.790949 0
M  V30 3076 H 303.869 3.60432 -1.5233 0
M  V30 3077 H 303.492 3.97311 0.151598 0
M  V30 3078 N 304.489 0.459591 1.5075 0
M  V30 3079 C 305.452 -0.329093 2.26825 0
M  V30 3080 C 306.452 -0.930481 1.31144 0
M  V30 3081 O 307.642 -0.801453 1.54669 0
M  V30 3082 C 304.774 -1.46768 3.07688 0
M  V30 3083 H 305.967 0.337924 2.9799 0
M  V30 3084 H 303.52 0.213336 1.54837 0
M  V30 3085 H 304.255 -2.17009 2.40993 0
M  V30 3086 H 304.04 -1.04238 3.77991 0
M  V30 3087 H 305.53 -2.02433 3.65254 0
M  V30 3088 N 305.967 -1.56429 0.191757 0
M  V30 3089 C 306.93 -2.17707 -0.716688 0
M  V30 3090 C 307.93 -1.13061 -1.14341 0
M  V30 3091 O 309.12 -1.38464 -1.05704 0
M  V30 3092 C 306.252 -2.77644 -1.97804 0
M  V30 3093 H 307.445 -2.99342 -0.1829 0
M  V30 3094 H 304.998 -1.56193 -0.0578566 0
M  V30 3095 H 305.733 -1.99799 -2.55443 0
M  V30 3096 H 305.518 -3.54246 -1.68083 0
M  V30 3097 H 307.008 -3.24708 -2.62592 0
M  V30 3098 N 307.445 0.0818655 -1.57387 0
M  V30 3099 C 308.693 0.781368 -1.86384 0
M  V30 3100 C 309.014 1.78618 -0.782342 0
M  V30 3101 O 308.284 1.94976 0.190061 0
M  V30 3102 H 306.864 0.291562 -0.687751 0
M  V30 3103 H 309.526 0.060348 -1.94807 0
M  V30 3104 H 308.622 1.3038 -2.83562 0
M  V30 3105 N 308.923 1.53595 0.353017 0
M  V30 3106 C 310.2 1.61002 1.11075 0
M  V30 3107 C 310.58 0.425356 2.0677 0
M  V30 3108 O 309.928 -0.583267 2.2093 0
M  V30 3109 C 310.138 2.96631 1.83877 0
M  V30 3110 C 311.486 3.51653 2.37961 0
M  V30 3111 O 312.51 2.98743 1.93987 0
M  V30 3112 O 311.369 4.44177 3.18386 0
M  V30 3113 H 308.463 0.650825 0.510251 0
M  V30 3114 H 311.009 1.6594 0.35527 0
M  V30 3115 H 309.781 3.74293 1.14108 0
M  V30 3116 H 309.404 2.95242 2.66304 0
M  V30 3117 N 310.401 -0.613514 1.45168 0
M  V30 3118 C 311.349 -1.74572 1.53712 0
M  V30 3119 C 312.343 -1.64426 0.407505 0
M  V30 3120 O 313.549 -1.70291 0.583176 0
M  V30 3121 H 309.924 -0.576641 0.48269 0
M  V30 3122 H 311.895 -1.64492 2.48968 0
M  V30 3123 C 310.644 -3.12943 1.51532 0
M  V30 3124 H 309.967 -3.21407 2.37776 0
M  V30 3125 H 311.407 -3.9201 1.61569 0
M  V30 3126 C 309.866 -3.36053 0.238798 0
M  V30 3127 O 310.396 -3.95837 -0.6838 0
M  V30 3128 N 308.602 -2.9028 0.136359 0
M  V30 3129 H 308.149 -2.41811 0.887999 0
M  V30 3130 H 308.107 -3.06116 -0.716944 0
M  V30 3131 N 311.879 -1.3236 -0.855495 0
M  V30 3132 C 313.104 -1.2601 -1.64731 0
M  V30 3133 C 313.529 0.169068 -1.87339 0
M  V30 3134 O 312.887 1.12016 -1.42556 0
M  V30 3135 C 312.935 -2.02417 -2.98429 0
M  V30 3136 O 312.039 -1.3714 -3.8893 0
M  V30 3137 H 311.38 -0.434325 -0.502253 0
M  V30 3138 H 313.91 -1.74661 -1.06558 0
M  V30 3139 H 313.92 -2.12559 -3.48257 0
M  V30 3140 H 312.595 -3.06343 -2.81295 0
M  V30 3141 H 311.172 -1.3554 -3.47395 0
M  V30 3142 N 313.357 1.07166 -1.15556 0
M  V30 3143 C 314.597 1.81391 -0.94216 0
M  V30 3144 C 314.961 1.84788 0.521272 0
M  V30 3145 O 316.162 2.54904 0.85307 0
M  V30 3146 C 314.433 3.22431 -1.54185 0
M  V30 3147 S 315.992 4.13379 -1.47183 0
M  V30 3148 H 312.81 0.624963 -0.339031 0
M  V30 3149 H 315.412 1.28725 -1.4714 0
M  V30 3150 H 314.116 3.17548 -2.59984 0
M  V30 3151 H 313.647 3.80172 -1.01156 0
M  V30 3152 H 315.662 4.94007 -0.466004 0
M  V30 3153 N 314.835 0.952656 1.25548 0
M  V30 3154 C 316.06 0.623025 1.97821 0
M  V30 3155 C 316.485 -0.7976 1.70352 0
M  V30 3156 O 315.843 -1.53905 0.958283 0
M  V30 3157 C 315.891 0.885532 3.49558 0
M  V30 3158 O 314.995 -0.0366641 4.12384 0
M  V30 3159 H 314.336 0.237082 0.620232 0
M  V30 3160 H 316.866 1.27871 1.59719 0
M  V30 3161 H 316.876 0.811009 3.99858 0
M  V30 3162 H 315.551 1.92094 3.6888 0
M  V30 3163 H 314.128 0.0898954 3.72792 0
M  V30 3164 N 316.313 -1.40141 0.720998 0
M  V30 3165 C 317.538 -2.05618 0.271258 0
M  V30 3166 C 317.963 -1.53978 -1.08039 0
M  V30 3167 O 317.321 -0.677463 -1.68167 0
M  V30 3168 C 317.369 -3.59609 0.267197 0
M  V30 3169 O 316.473 -4.05526 -0.749814 0
M  V30 3170 H 315.814 -0.651904 0.126162 0
M  V30 3171 H 318.344 -1.79439 0.982997 0
M  V30 3172 H 318.354 -4.0786 0.106744 0
M  V30 3173 H 317.029 -3.96559 1.25354 0
M  V30 3174 H 315.606 -3.68722 -0.556644 0
M  V30 3175 N 317.792 -0.46758 -1.50504 0
M  V30 3176 C 319.017 0.0886943 -2.0721 0
M  V30 3177 C 319.442 1.33057 -1.32956 0
M  V30 3178 O 318.8 1.77354 -0.376197 0
M  V30 3179 C 318.848 0.359202 -3.58806 0
M  V30 3180 O 317.952 1.44034 -3.8643 0
M  V30 3181 H 317.293 -0.0114349 -0.663902 0
M  V30 3182 H 319.823 -0.657613 -1.93744 0
M  V30 3183 H 319.833 0.600742 -4.03553 0
M  V30 3184 H 318.508 -0.548311 -4.1227 0
M  V30 3185 H 317.085 1.18638 -3.53524 0
M  V30 3186 N 319.27 1.56325 -0.20005 0
M  V30 3187 C 320.516 1.98012 0.438059 0
M  V30 3188 C 320.849 1.08702 1.60927 0
M  V30 3189 O 320.124 0.140064 1.93995 0
M  V30 3190 C 320.407 3.48841 0.893419 0
M  V30 3191 C 320.26 4.48928 -0.279947 0
M  V30 3192 C 321.579 4.03498 1.75719 0
M  V30 3193 H 318.698 0.719918 0.157757 0
M  V30 3194 H 321.34 1.87743 -0.291968 0
M  V30 3195 H 319.49 3.57723 1.51547 0
M  V30 3196 H 321.162 4.52079 -0.91772 0
M  V30 3197 H 319.405 4.23694 -0.930919 0
M  V30 3198 H 320.076 5.5194 0.0812601 0
M  V30 3199 H 322.552 3.97427 1.23253 0
M  V30 3200 H 321.428 5.09393 2.04476 0
M  V30 3201 H 321.689 3.4906 2.71311 0
M  V30 3202 N 320.748 -0.0735177 1.57428 0
M  V30 3203 C 321.973 -0.789787 1.91774 0
M  V30 3204 C 322.398 -1.70413 0.796306 0
M  V30 3205 O 321.756 -1.79555 -0.250961 0
M  V30 3206 C 321.804 -1.5609 3.25067 0
M  V30 3207 O 320.908 -2.67144 3.14178 0
M  V30 3208 H 320.249 -0.215582 0.628029 0
M  V30 3209 H 322.779 -0.0422781 2.04556 0
M  V30 3210 H 322.789 -1.94052 3.58898 0
M  V30 3211 H 321.464 -0.890015 4.06265 0
M  V30 3212 H 320.041 -2.32052 2.91901 0
M  V30 3213 N 322.226 -1.5378 -0.344866 0
M  V30 3214 C 323.637 -1.62428 -0.920552 0
M  V30 3215 C 323.988 -0.504747 -1.89596 0
M  V30 3216 O 323.113 0.365711 -2.13287 0
M  V30 3217 C 323.708 -2.94419 -1.67639 0
M  V30 3218 C 322.267 -3.05333 -2.20111 0
M  V30 3219 C 321.414 -2.57866 -1.01982 0
M  V30 3220 H 324.365 -1.58222 -0.123042 0
M  V30 3221 H 324.386 -2.83384 -2.53917 0
M  V30 3222 H 323.898 -3.7588 -0.966224 0
M  V30 3223 H 321.999 -2.28502 -2.94308 0
M  V30 3224 H 322.112 -4.10778 -2.46573 0
M  V30 3225 H 320.476 -2.13241 -1.39285 0
M  V30 3226 H 321.259 -3.41765 -0.324308 0
M  V30 3227 N 323.704 0.605807 -1.45491 0
M  V30 3228 C 324.934 1.38934 -1.52908 0
M  V30 3229 C 325.342 1.88513 -0.161086 0
M  V30 3230 O 324.685 1.62962 0.847891 0
M  V30 3231 C 324.747 2.62737 -2.45376 0
M  V30 3232 C 324.411 2.34785 -3.92078 0
M  V30 3233 C 325.408 1.95038 -4.8193 0
M  V30 3234 C 323.093 2.47642 -4.37011 0
M  V30 3235 C 325.087 1.68511 -6.14722 0
M  V30 3236 C 322.774 2.20728 -5.69844 0
M  V30 3237 C 323.772 1.81225 -6.58519 0
M  V30 3238 O 323.46 1.54627 -7.88889 0
M  V30 3239 H 323.192 0.431629 -0.520262 0
M  V30 3240 H 325.746 0.74573 -1.91384 0
M  V30 3241 H 323.976 3.29824 -2.01874 0
M  V30 3242 H 325.665 3.24783 -2.43456 0
M  V30 3243 H 326.431 1.84639 -4.48479 0
M  V30 3244 H 322.31 2.77356 -3.68232 0
M  V30 3245 H 325.854 1.37602 -6.83894 0
M  V30 3246 H 321.751 2.30744 -6.02849 0
M  V30 3247 H 322.519 1.68665 -8.00933 0
M  V30 3248 N 325.182 1.32811 0.848464 0
M  V30 3249 C 326.431 1.23075 1.59798 0
M  V30 3250 C 326.744 -0.204419 1.94529 0
M  V30 3251 O 327.95 -0.423701 2.68173 0
M  V30 3252 C 326.406 2.15594 2.88179 0
M  V30 3253 C 326.014 3.64228 2.60849 0
M  V30 3254 C 327.758 2.14709 3.66197 0
M  V30 3255 C 325.665 4.48689 3.85269 0
M  V30 3256 H 324.595 0.457091 0.599653 0
M  V30 3257 H 327.246 1.57813 0.936342 0
M  V30 3258 H 325.628 1.73778 3.55833 0
M  V30 3259 H 326.802 4.14424 2.01467 0
M  V30 3260 H 325.117 3.67306 1.96151 0
M  V30 3261 H 327.714 2.75046 4.58534 0
M  V30 3262 H 328.057 1.13966 4.00397 0
M  V30 3263 H 328.59 2.54837 3.05455 0
M  V30 3264 H 325.329 5.5027 3.56207 0
M  V30 3265 H 324.849 4.03241 4.44024 0
M  V30 3266 H 326.528 4.62006 4.52946 0
M  V30 3267 N 326.66 -1.06551 1.16123 0
M  V30 3268 C 327.885 -1.83544 0.965735 0
M  V30 3269 C 328.31 -1.81843 -0.481102 0
M  V30 3270 O 327.668 -1.21732 -1.34354 0
M  V30 3271 C 327.716 -3.28169 1.49457 0
M  V30 3272 O 326.82 -4.0643 0.699157 0
M  V30 3273 H 326.161 -0.568026 0.343864 0
M  V30 3274 H 328.691 -1.34362 1.54299 0
M  V30 3275 H 328.701 -3.78992 1.51092 0
M  V30 3276 H 327.376 -3.28722 2.54784 0
M  V30 3277 H 325.953 -3.65216 0.7531 0
M  V30 3278 N 328.138 -0.959301 -1.25041 0
M  V30 3279 C 329.086 -0.474437 -2.2771 0
M  V30 3280 C 330.08 0.457697 -1.631 0
M  V30 3281 O 331.286 0.333912 -1.76876 0
M  V30 3282 H 327.661 -0.134936 -0.739795 0
M  V30 3283 H 329.632 -1.35251 -2.65988 0
M  V30 3284 C 328.381 0.227884 -3.46952 0
M  V30 3285 H 327.704 -0.480248 -3.96905 0
M  V30 3286 H 329.144 0.531091 -4.20661 0
M  V30 3287 C 327.603 1.452 -3.04004 0
M  V30 3288 O 328.133 2.54949 -3.10426 0
M  V30 3289 N 326.339 1.31502 -2.59144 0
M  V30 3290 H 325.886 0.422065 -2.54119 0
M  V30 3291 H 325.844 2.13521 -2.30773 0
M  V30 3292 N 329.616 1.39756 -0.72842 0
M  V30 3293 C 330.856 2.025 -0.278078 0
M  V30 3294 C 331.22 1.5654 1.11173 0
M  V30 3295 O 332.421 2.11435 1.65978 0
M  V30 3296 C 330.692 3.55489 -0.369139 0
M  V30 3297 S 332.251 4.388 0.00232983 0
M  V30 3298 H 329.069 0.702534 -0.109391 0
M  V30 3299 H 331.671 1.70672 -0.95348 0
M  V30 3300 H 330.375 3.86429 -1.38204 0
M  V30 3301 H 329.906 3.92061 0.324308 0
M  V30 3302 H 331.921 4.80954 1.22055 0
M  V30 3303 N 331.094 0.475555 1.50254 0
M  V30 3304 C 332.026 -0.352649 2.26471 0
M  V30 3305 C 333.039 -0.953165 1.3198 0
M  V30 3306 O 334.228 -0.840815 1.57457 0
M  V30 3307 C 331.328 -1.50902 3.0345 0
M  V30 3308 C 330.501 -1.02047 4.25329 0
M  V30 3309 C 329.56 -2.05142 4.84565 0
M  V30 3310 O 328.586 -1.63023 5.45355 0
M  V30 3311 N 329.788 -3.37987 4.71959 0
M  V30 3312 H 332.553 0.300767 2.98187 0
M  V30 3313 H 330.114 0.306598 1.5897 0
M  V30 3314 H 332.106 -2.19572 3.39956 0
M  V30 3315 H 330.676 -2.06705 2.34504 0
M  V30 3316 H 329.896 -0.159507 3.93877 0
M  V30 3317 H 331.184 -0.672061 5.04342 0
M  V30 3318 H 330.582 -3.74913 4.23623 0
M  V30 3319 H 329.139 -4.02443 5.12721 0
M  V30 3320 N 332.573 -1.56217 0.208337 0
M  V30 3321 C 333.813 -1.99849 -0.428927 0
M  V30 3322 C 334.177 -1.09262 -1.57879 0
M  V30 3323 O 335.378 -1.42185 -2.28116 0
M  V30 3324 C 333.649 -3.46777 -0.864879 0
M  V30 3325 S 335.208 -4.12434 -1.49811 0
M  V30 3326 H 332.026 -0.697742 -0.136665 0
M  V30 3327 H 334.628 -1.92953 0.314519 0
M  V30 3328 H 333.332 -4.10396 -0.0181326 0
M  V30 3329 H 332.863 -3.57518 -1.64147 0
M  V30 3330 H 334.878 -4.10532 -2.78707 0
M  V30 3331 N 334.051 0.0651679 -1.57465 0
M  V30 3332 C 335.328 0.79644 -1.78651 0
M  V30 3333 C 335.708 1.95454 -0.797566 0
M  V30 3334 O 335.056 2.27882 0.167946 0
M  V30 3335 C 335.266 1.26322 -3.25337 0
M  V30 3336 C 336.614 1.6939 -3.89348 0
M  V30 3337 O 337.638 1.35872 -3.29268 0
M  V30 3338 O 336.497 2.31471 -4.95059 0
M  V30 3339 H 333.591 0.382157 -0.733407 0
M  V30 3340 H 336.137 0.0447311 -1.69641 0
M  V30 3341 H 334.909 0.434859 -3.88876 0
M  V30 3342 H 334.532 2.07604 -3.39096 0
M  V30 3343 N 335.529 1.53961 0.336706 0
M  V30 3344 C 336.777 1.71197 1.07405 0
M  V30 3345 C 337.098 0.481475 1.88962 0
M  V30 3346 O 336.368 -0.504585 1.8929 0
M  V30 3347 H 334.948 0.631185 0.399517 0
M  V30 3348 H 337.61 1.91232 0.376323 0
M  V30 3349 H 336.706 2.58587 1.74755 0
M  V30 3350 N 337.007 -0.598083 1.45811 0
M  V30 3351 C 337.97 -1.69018 1.54808 0
M  V30 3352 C 338.97 -1.55037 0.426652 0
M  V30 3353 O 340.16 -1.59932 0.690456 0
M  V30 3354 C 337.292 -3.0835 1.45371 0
M  V30 3355 H 338.485 -1.62403 2.52121 0
M  V30 3356 H 336.038 -0.814626 1.33392 0
M  V30 3357 H 336.773 -3.20534 0.492793 0
M  V30 3358 H 336.558 -3.19907 2.26721 0
M  V30 3359 H 338.048 -3.8788 1.54721 0
M  V30 3360 N 338.485 -1.33259 -0.841409 0
M  V30 3361 C 339.733 -1.24326 -1.59334 0
M  V30 3362 C 340.054 0.191564 -1.94057 0
M  V30 3363 O 339.324 1.11967 -1.60749 0
M  V30 3364 H 337.904 -0.457174 -0.590763 0
M  V30 3365 H 340.566 -1.66947 -1.00571 0
M  V30 3366 H 339.662 -1.8352 -2.52442 0
M  V30 3367 N 339.963 1.05934 -1.16686 0
M  V30 3368 C 340.926 2.11669 -0.879144 0
M  V30 3369 C 341.926 1.60294 0.127445 0
M  V30 3370 O 343.116 1.7389 -0.103865 0
M  V30 3371 C 340.248 3.39438 -0.315425 0
M  V30 3372 H 341.441 2.38626 -1.81653 0
M  V30 3373 H 338.994 1.22058 -0.976299 0
M  V30 3374 H 339.729 3.18132 0.629468 0
M  V30 3375 H 339.514 3.78034 -1.04079 0
M  V30 3376 H 341.004 4.17391 -0.132189 0
M  V30 3377 N 341.441 0.965919 1.2453 0
M  V30 3378 C 342.687 0.62776 1.92839 0
M  V30 3379 C 343.02 -0.834694 1.75347 0
M  V30 3380 O 342.295 -1.60031 1.10546 0
M  V30 3381 C 342.578 1.00109 3.45905 0
M  V30 3382 C 342.431 2.52011 3.72573 0
M  V30 3383 C 343.75 0.53435 4.36844 0
M  V30 3384 H 340.869 0.229537 0.700344 0
M  V30 3385 H 343.511 1.2046 1.46933 0
M  V30 3386 H 341.661 0.510238 3.85135 0
M  V30 3387 H 343.333 3.08559 3.42912 0
M  V30 3388 H 341.576 2.95287 3.17786 0
M  V30 3389 H 342.247 2.73183 4.79661 0
M  V30 3390 H 344.723 0.955565 4.04979 0
M  V30 3391 H 343.599 0.824152 5.42678 0
M  V30 3392 H 343.86 -0.565589 4.38467 0
M  V30 3393 N 342.919 -1.39368 0.735821 0
M  V30 3394 C 343.849 -2.33234 0.111506 0
M  V30 3395 C 344.83 -1.53954 -0.723334 0
M  V30 3396 O 346.015 -1.82344 -0.668147 0
M  V30 3397 C 343.145 -3.38057 -0.795917 0
M  V30 3398 C 342.099 -4.2795 -0.065172 0
M  V30 3399 C 341.425 -5.23479 -1.08967 0
M  V30 3400 C 342.725 -5.10741 1.09273 0
M  V30 3401 H 344.419 -2.85692 0.895571 0
M  V30 3402 H 341.965 -1.37364 0.432109 0
M  V30 3403 H 343.918 -4.02675 -1.24221 0
M  V30 3404 H 342.642 -2.8404 -1.61211 0
M  V30 3405 H 341.301 -3.64813 0.361511 0
M  V30 3406 H 340.949 -4.65758 -1.89944 0
M  V30 3407 H 340.649 -5.84472 -0.605489 0
M  V30 3408 H 342.173 -5.90974 -1.53565 0
M  V30 3409 H 343.587 -5.68699 0.724841 0
M  V30 3410 H 341.984 -5.8088 1.50659 0
M  V30 3411 H 343.054 -4.45525 1.91404 0
M  V30 3412 N 344.397 -0.483516 -1.5 0
M  V30 3413 C 345.329 0.340634 -2.26655 0
M  V30 3414 C 346.342 0.946152 -1.32483 0
M  V30 3415 O 347.531 0.832453 -1.579 0
M  V30 3416 C 344.631 1.4929 -3.04246 0
M  V30 3417 C 343.804 0.997903 -4.25865 0
M  V30 3418 C 342.863 2.02569 -4.85646 0
M  V30 3419 O 341.889 1.60128 -5.46212 0
M  V30 3420 N 343.091 3.3548 -4.73744 0
M  V30 3421 H 345.856 -0.316577 -2.98023 0
M  V30 3422 H 343.417 -0.315024 -1.58806 0
M  V30 3423 H 345.409 2.17766 -3.41116 0
M  V30 3424 H 343.979 2.05458 -2.35597 0
M  V30 3425 H 343.199 0.138617 -3.93956 0
M  V30 3426 H 344.487 0.645305 -5.04691 0
M  V30 3427 H 343.885 3.72661 -4.25605 0
M  V30 3428 H 342.442 3.99718 -5.14848 0
M  V30 3429 N 345.875 1.56104 -0.216619 0
M  V30 3430 C 347.121 1.99219 0.410301 0
M  V30 3431 C 347.476 1.10169 1.57735 0
M  V30 3432 O 346.769 0.150598 1.91007 0
M  V30 3433 C 346.963 3.45923 0.898464 0
M  V30 3434 C 346.792 4.49163 -0.219748 0
M  V30 3435 C 345.562 5.00642 -0.684516 0
M  V30 3436 C 347.76 5.03751 -1.03629 0
M  V30 3437 N 345.742 5.87579 -1.7783 0
M  V30 3438 C 347.113 5.87566 -1.97904 0
M  V30 3439 C 349.168 4.86128 -1.07629 0
M  V30 3440 C 347.871 6.5564 -2.95851 0
M  V30 3441 C 349.897 5.54958 -2.04392 0
M  V30 3442 C 349.259 6.38536 -2.97407 0
M  V30 3443 H 345.358 0.773206 0.11695 0
M  V30 3444 H 347.942 1.9193 -0.327258 0
M  V30 3445 H 346.113 3.53669 1.6054 0
M  V30 3446 H 347.845 3.75963 1.49779 0
M  V30 3447 H 344.6 4.72807 -0.27399 0
M  V30 3448 H 345.024 6.3575 -2.32705 0
M  V30 3449 H 349.666 4.21168 -0.371099 0
M  V30 3450 H 347.384 7.19785 -3.67335 0
M  V30 3451 H 350.97 5.43289 -2.08154 0
M  V30 3452 H 349.85 6.90858 -3.71059 0
M  V30 3453 N 347.353 -0.0568162 1.57498 0
M  V30 3454 C 348.286 -1.09817 2.00039 0
M  V30 3455 C 349.264 -1.3674 0.879819 0
M  V30 3456 O 350.448 -1.49863 1.14338 0
M  V30 3457 C 347.575 -2.43924 2.34986 0
M  V30 3458 C 346.621 -2.33039 3.57204 0
M  V30 3459 S 347.454 -1.7102 5.07457 0
M  V30 3460 C 348.61 -3.06674 5.45621 0
M  V30 3461 H 348.843 -0.735701 2.88053 0
M  V30 3462 H 346.376 -0.265871 1.52094 0
M  V30 3463 H 348.334 -3.2106 2.55795 0
M  V30 3464 H 346.995 -2.77327 1.47474 0
M  V30 3465 H 346.188 -3.31973 3.79223 0
M  V30 3466 H 345.79 -1.64043 3.36104 0
M  V30 3467 H 348.082 -4.03 5.44608 0
M  V30 3468 H 349.025 -2.8942 6.46252 0
M  V30 3469 H 349.433 -3.07969 4.73091 0
M  V30 3470 N 348.832 -1.54138 -0.328536 0
M  V30 3471 C 350.062 -1.75807 -1.08516 0
M  V30 3472 C 350.47 -0.50428 -1.82356 0
M  V30 3473 O 349.813 0.534451 -1.75754 0
M  V30 3474 C 349.875 -2.89423 -2.13248 0
M  V30 3475 C 349.539 -4.28504 -1.5885 0
M  V30 3476 C 350.536 -5.09536 -1.03289 0
M  V30 3477 C 348.221 -4.75034 -1.63243 0
M  V30 3478 C 350.215 -6.35206 -0.52845 0
M  V30 3479 C 347.902 -6.00672 -1.12411 0
M  V30 3480 C 348.9 -6.80592 -0.573062 0
M  V30 3481 O 348.588 -8.03867 -0.0723692 0
M  V30 3482 H 348.32 -0.590633 -0.328829 0
M  V30 3483 H 350.874 -2.01819 -0.381868 0
M  V30 3484 H 349.104 -2.5897 -2.87178 0
M  V30 3485 H 350.793 -2.98921 -2.74592 0
M  V30 3486 H 351.559 -4.74745 -0.99206 0
M  V30 3487 H 347.438 -4.12875 -2.05074 0
M  V30 3488 H 350.982 -6.97532 -0.0976774 0
M  V30 3489 H 346.879 -6.34955 -1.162 0
M  V30 3490 H 347.647 -8.18283 -0.188258 0
M  V30 3491 N 350.31 0.590341 -1.46126 0
M  V30 3492 C 351.558 1.34616 -1.50742 0
M  V30 3493 C 351.879 1.94363 -0.157486 0
M  V30 3494 O 351.149 1.78136 0.815136 0
M  V30 3495 H 349.729 0.499789 -0.555175 0
M  V30 3496 H 352.391 0.691953 -1.82203 0
M  V30 3497 H 351.487 2.15678 -2.25587 0
M  V30 3498 N 351.788 1.33704 0.83433 0
M  V30 3499 C 353.199 1.22813 1.4062 0
M  V30 3500 C 353.55 -0.151107 1.95617 0
M  V30 3501 O 352.675 -1.05092 1.89168 0
M  V30 3502 C 353.27 2.22355 2.55624 0
M  V30 3503 C 351.829 2.1529 3.08751 0
M  V30 3504 C 350.976 2.09589 1.8157 0
M  V30 3505 H 353.927 1.45236 0.639702 0
M  V30 3506 H 353.948 1.83391 3.33389 0
M  V30 3507 H 353.46 3.22728 2.15566 0
M  V30 3508 H 351.561 1.18235 3.53343 0
M  V30 3509 H 351.674 3.06038 3.68616 0
M  V30 3510 H 350.038 1.55134 2.02004 0
M  V30 3511 H 350.821 3.11777 1.43701 0
M  V30 3512 N 353.266 -1.05314 1.17247 0
M  V30 3513 C 354.196 -2.1498 0.911362 0
M  V30 3514 C 355.177 -1.69471 -0.146169 0
M  V30 3515 O 356.362 -1.942 0.003812 0
M  V30 3516 C 353.492 -3.4472 0.422528 0
M  V30 3517 C 352.446 -4.03789 1.4191 0
M  V30 3518 C 351.772 -5.28858 0.788274 0
M  V30 3519 C 353.072 -4.41418 2.7919 0
M  V30 3520 H 354.766 -2.3708 1.82848 0
M  V30 3521 H 352.312 -1.13938 0.880569 0
M  V30 3522 H 354.265 -4.20787 0.227289 0
M  V30 3523 H 352.989 -3.22269 -0.530123 0
M  V30 3524 H 351.648 -3.2979 1.60106 0
M  V30 3525 H 351.296 -5.02709 -0.171173 0
M  V30 3526 H 350.996 -5.69338 1.45353 0
M  V30 3527 H 352.52 -6.07612 0.603282 0
M  V30 3528 H 353.934 -5.08524 2.64719 0
M  V30 3529 H 352.331 -4.92913 3.42282 0
M  V30 3530 H 353.401 -3.51819 3.33693 0
M  V30 3531 N 354.744 -0.972509 -1.24016 0
M  V30 3532 C 355.692 -0.498562 -2.27194 0
M  V30 3533 C 356.686 0.440372 -1.63576 0
M  V30 3534 O 357.892 0.315133 -1.7722 0
M  V30 3535 H 354.267 -0.142775 -0.738322 0
M  V30 3536 H 356.238 -1.38065 -2.64539 0
M  V30 3537 C 354.987 0.191072 -3.47175 0
M  V30 3538 H 354.31 -0.522318 -3.96373 0
M  V30 3539 H 355.75 0.486445 -4.212 0
M  V30 3540 C 354.209 1.41967 -3.05527 0
M  V30 3541 O 354.739 2.51642 -3.13112 0
M  V30 3542 N 352.945 1.28746 -2.60524 0
M  V30 3543 H 352.492 0.395089 -2.54552 0
M  V30 3544 H 352.45 2.11061 -2.33025 0
M  V30 3545 N 356.222 1.38976 -0.743202 0
M  V30 3546 C 357.185 2.28901 -0.117014 0
M  V30 3547 C 358.185 1.46698 0.658503 0
M  V30 3548 O 359.375 1.67274 0.486305 0
M  V30 3549 C 356.507 3.30309 0.84315 0
M  V30 3550 H 357.7 2.8578 -0.909373 0
M  V30 3551 H 355.253 1.47761 -0.509547 0
M  V30 3552 H 355.988 2.785 1.66157 0
M  V30 3553 H 355.773 3.91029 0.289594 0
M  V30 3554 H 357.263 3.97577 1.2776 0
M  V30 3555 N 357.7 0.491464 1.49741 0
M  V30 3556 C 359.116 0.146835 1.58923 0
M  V30 3557 C 359.316 -1.34804 1.49767 0
M  V30 3558 O 358.372 -2.12317 1.36667 0
M  V30 3559 C 359.685 0.715157 2.92072 0
M  V30 3560 C 361.233 0.680407 3.05515 0
M  V30 3561 C 361.708 1.22663 4.41269 0
M  V30 3562 N 363.199 1.18691 4.47735 0
M  V30 3563 C 363.934 1.57984 5.51207 0
M  V30 3564 N 363.43 2.04824 6.6183 0
M  V30 3565 N 365.223 1.49459 5.41866 0
M  V30 3566 H 357.374 1.46347 1.53936 0
M  V30 3567 H 359.637 0.606453 0.728642 0
M  V30 3568 H 359.343 1.76317 3.04311 0
M  V30 3569 H 359.217 0.17018 3.76816 0
M  V30 3570 H 361.604 -0.358743 2.92911 0
M  V30 3571 H 361.685 1.26242 2.22478 0
M  V30 3572 H 361.329 2.26451 4.54623 0
M  V30 3573 H 361.259 0.620637 5.2293 0
M  V30 3574 H 363.75 0.843605 3.68364 0
M  V30 3575 H 364.063 2.32901 7.3687 0
M  V30 3576 H 362.408 2.08791 6.62896 0
M  V30 3577 H 365.599 1.12692 4.54333 0
M  V30 3578 H 365.772 1.80406 6.22381 0
M  V30 3579 N 359.178 -1.55987 0.224894 0
M  V30 3580 C 360.126 -2.21808 -0.700283 0
M  V30 3581 C 361.12 -1.19854 -1.19714 0
M  V30 3582 O 362.326 -1.37925 -1.15658 0
M  V30 3583 H 358.701 -0.711226 -0.244258 0
M  V30 3584 H 360.672 -2.98152 -0.121749 0
M  V30 3585 C 359.421 -2.91444 -1.8962 0
M  V30 3586 H 358.744 -3.69655 -1.52299 0
M  V30 3587 H 360.184 -3.40894 -2.52125 0
M  V30 3588 C 358.643 -1.94098 -2.75368 0
M  V30 3589 O 359.173 -1.46004 -3.74227 0
M  V30 3590 N 357.379 -1.61675 -2.41474 0
M  V30 3591 H 356.926 -2.00979 -1.61137 0
M  V30 3592 H 356.884 -0.968036 -2.99126 0
M  V30 3593 N 360.656 0.0484629 -1.57525 0
M  V30 3594 C 362.067 0.597486 -1.76881 0
M  V30 3595 C 362.418 1.76664 -0.853475 0
M  V30 3596 O 361.543 2.16357 -0.0433656 0
M  V30 3597 C 362.138 1.09066 -3.20765 0
M  V30 3598 C 360.697 1.58535 -3.41385 0
M  V30 3599 C 359.844 0.514868 -2.72478 0
M  V30 3600 H 362.795 -0.177758 -1.57701 0
M  V30 3601 H 362.816 1.95875 -3.2621 0
M  V30 3602 H 362.328 0.239521 -3.8736 0
M  V30 3603 H 360.429 2.45898 -2.79937 0
M  V30 3604 H 360.542 1.64622 -4.49929 0
M  V30 3605 H 358.906 0.965407 -2.35695 0
M  V30 3606 H 359.689 -0.32648 -3.41744 0
M  V30 3607 N 362.134 1.5431 0.320358 0
M  V30 3608 C 363.382 1.72327 1.05583 0
M  V30 3609 C 363.703 0.50149 1.88441 0
M  V30 3610 O 362.973 -0.48448 1.89815 0
M  V30 3611 H 361.553 0.635387 0.3928 0
M  V30 3612 H 364.215 1.91621 0.356019 0
M  V30 3613 H 363.311 2.60426 1.72003 0
M  V30 3614 N 363.613 -0.582584 1.46437 0
M  V30 3615 C 364.841 -1.36682 1.55324 0
M  V30 3616 C 365.256 -1.87796 0.194409 0
M  V30 3617 O 364.613 -1.63623 -0.808318 0
M  V30 3618 C 364.664 -2.55426 2.55812 0
M  V30 3619 O 364.385 -2.0643 3.86417 0
M  V30 3620 C 365.886 -3.47976 2.74641 0
M  V30 3621 H 363.106 -0.417545 0.525259 0
M  V30 3622 H 365.65 -0.708219 1.91845 0
M  V30 3623 H 363.805 -3.17275 2.22295 0
M  V30 3624 H 364.219 -2.83762 4.41111 0
M  V30 3625 H 365.693 -4.27775 3.48874 0
M  V30 3626 H 366.17 -3.99919 1.81553 0
M  V30 3627 H 366.776 -2.91962 3.09255 0
M  V30 3628 N 365.091 -1.34144 -0.827227 0
M  V30 3629 C 366.021 -1.28005 -1.95287 0
M  V30 3630 C 367.002 -0.158321 -1.69362 0
M  V30 3631 O 368.187 -0.349987 -1.9102 0
M  V30 3632 C 365.317 -1.03036 -3.31664 0
M  V30 3633 C 364.271 -2.11628 -3.72019 0
M  V30 3634 C 363.597 -1.71854 -5.0633 0
M  V30 3635 C 364.897 -3.53417 -3.8457 0
M  V30 3636 H 366.591 -2.22187 -2.00682 0
M  V30 3637 H 364.137 -1.0696 -0.964135 0
M  V30 3638 H 366.09 -0.973863 -4.09993 0
M  V30 3639 H 364.814 -0.0529391 -3.26557 0
M  V30 3640 H 363.473 -2.16339 -2.95961 0
M  V30 3641 H 363.121 -0.727841 -4.97706 0
M  V30 3642 H 362.821 -2.44531 -5.34302 0
M  V30 3643 H 364.345 -1.67692 -5.87122 0
M  V30 3644 H 365.759 -3.51142 -4.5318 0
M  V30 3645 H 364.156 -4.24679 -4.2399 0
M  V30 3646 H 365.226 -3.91072 -2.86689 0
M  V30 3647 N 366.569 1.04691 -1.17803 0
M  V30 3648 C 367.794 1.81984 -0.994813 0
M  V30 3649 C 368.219 1.82586 0.452112 0
M  V30 3650 O 367.577 1.23854 1.324 0
M  V30 3651 C 367.625 3.2575 -1.54659 0
M  V30 3652 O 366.729 4.05267 -0.763728 0
M  V30 3653 H 366.07 0.562483 -0.352857 0
M  V30 3654 H 368.6 1.3189 -1.56417 0
M  V30 3655 H 368.61 3.76541 -1.57102 0
M  V30 3656 H 367.285 3.24627 -2.59981 0
M  V30 3657 H 365.862 3.63972 -0.811108 0
M  V30 3658 N 368.047 0.979072 1.23499 0
M  V30 3659 C 369.295 0.645941 1.91499 0
M  V30 3660 C 369.616 -0.822948 1.76784 0
M  V30 3661 O 368.886 -1.58854 1.14639 0
M  V30 3662 H 367.466 0.235919 0.708767 0
M  V30 3663 H 370.128 1.2426 1.50152 0
M  V30 3664 H 369.224 0.896411 2.9895 0
M  V30 3665 N 369.525 -1.3858 0.750561 0
M  V30 3666 C 370.75 -2.04997 0.314812 0
M  V30 3667 C 371.175 -1.56235 -1.04749 0
M  V30 3668 O 370.533 -0.712981 -1.66692 0
M  V30 3669 C 370.581 -3.58961 0.343415 0
M  V30 3670 O 369.685 -4.07025 -0.663628 0
M  V30 3671 H 369.026 -0.649081 0.139962 0
M  V30 3672 H 371.556 -1.77313 1.02084 0
M  V30 3673 H 371.566 -4.07542 0.193233 0
M  V30 3674 H 370.241 -3.93811 1.33738 0
M  V30 3675 H 368.818 -3.6982 -0.478307 0
M  V30 3676 N 371.003 -0.499398 -1.49478 0
M  V30 3677 C 372.252 0.0475259 -2.01644 0
M  V30 3678 C 372.565 1.38195 -1.38425 0
M  V30 3679 O 373.771 2.01547 -1.8191 0
M  V30 3680 C 372.227 0.135164 -3.59646 0
M  V30 3681 C 371.835 -1.19252 -4.31837 0
M  V30 3682 C 373.579 0.632538 -4.19761 0
M  V30 3683 C 371.486 -1.06713 -5.81693 0
M  V30 3684 H 370.416 0.0215349 -0.753692 0
M  V30 3685 H 373.067 -0.638577 -1.7203 0
M  V30 3686 H 371.449 0.885681 -3.85969 0
M  V30 3687 H 372.623 -1.9562 -4.17216 0
M  V30 3688 H 370.938 -1.62321 -3.83459 0
M  V30 3689 H 373.535 0.743833 -5.29501 0
M  V30 3690 H 373.878 1.63098 -3.83021 0
M  V30 3691 H 374.411 -0.0613987 -3.97753 0
M  V30 3692 H 371.15 -2.03979 -6.22955 0
M  V30 3693 H 370.67 -0.344307 -5.98811 0
M  V30 3694 H 372.349 -0.745208 -6.42694 0
M  V30 3695 N 372.481 1.55866 -0.233164 0
M  V30 3696 C 373.727 1.98897 0.395959 0
M  V30 3697 C 374.06 1.12091 1.58585 0
M  V30 3698 O 373.335 0.181182 1.93654 0
M  V30 3699 C 373.618 3.50658 0.819224 0
M  V30 3700 C 373.471 4.48233 -0.375109 0
M  V30 3701 C 374.79 4.07135 1.67121 0
M  V30 3702 H 371.909 0.723102 0.142451 0
M  V30 3703 H 374.551 1.87082 -0.331725 0
M  V30 3704 H 372.701 3.60857 1.43925 0
M  V30 3705 H 374.373 4.50031 -1.01341 0
M  V30 3706 H 372.616 4.21624 -1.02058 0
M  V30 3707 H 373.287 5.51988 -0.0358328 0
M  V30 3708 H 375.763 3.99952 1.14795 0
M  V30 3709 H 374.639 5.13615 1.93625 0
M  V30 3710 H 374.9 3.54736 2.63846 0
M  V30 3711 N 373.959 -0.0401083 1.57549 0
M  V30 3712 C 375.184 -0.748931 1.93406 0
M  V30 3713 C 375.609 -1.68686 0.832274 0
M  V30 3714 O 374.967 -1.80047 -0.212818 0
M  V30 3715 C 375.015 -1.4916 3.28304 0
M  V30 3716 O 374.119 -2.6042 3.19774 0
M  V30 3717 H 373.46 -0.202212 0.63246 0
M  V30 3718 H 375.99 0.00112086 2.046 0
M  V30 3719 H 376 -1.86395 3.62934 0
M  V30 3720 H 374.675 -0.80364 4.08062 0
M  V30 3721 H 373.252 -2.25808 2.96758 0
M  V30 3722 N 375.437 -1.54477 -0.31217 0
M  V30 3723 C 376.684 -1.73227 -1.04875 0
M  V30 3724 C 377.012 -0.512042 -1.87639 0
M  V30 3725 O 376.267 0.506131 -1.89042 0
M  V30 3726 C 376.566 -2.967 -1.99258 0
M  V30 3727 C 376.232 -4.30974 -1.32559 0
M  V30 3728 C 374.894 -4.67477 -1.141 0
M  V30 3729 C 377.246 -5.14258 -0.847835 0
M  V30 3730 C 374.574 -5.84852 -0.465326 0
M  V30 3731 C 376.926 -6.32327 -0.185931 0
M  V30 3732 C 375.59 -6.67499 0.0107077 0
M  V30 3733 H 374.86 -0.633881 -0.383765 0
M  V30 3734 H 377.507 -1.88727 -0.324731 0
M  V30 3735 H 375.812 -2.75935 -2.7815 0
M  V30 3736 H 377.509 -3.08401 -2.563 0
M  V30 3737 H 374.099 -4.02262 -1.4793 0
M  V30 3738 H 378.283 -4.86565 -0.978192 0
M  V30 3739 H 373.539 -6.10654 -0.301883 0
M  V30 3740 H 377.713 -6.96135 0.192211 0
M  V30 3741 H 375.34 -7.58306 0.536287 0
M  V30 3742 N 376.915 0.57481 -1.46744 0
M  V30 3743 C 378.14 1.36341 -1.56288 0
M  V30 3744 C 378.565 1.86954 -0.207347 0
M  V30 3745 O 377.923 1.62006 0.813871 0
M  V30 3746 C 377.971 2.52147 -2.57787 0
M  V30 3747 O 377.075 3.53834 -2.11838 0
M  V30 3748 H 376.416 0.405713 -0.525636 0
M  V30 3749 H 378.946 0.696453 -1.92382 0
M  V30 3750 H 378.956 2.98958 -2.77648 0
M  V30 3751 H 377.631 2.14663 -3.5622 0
M  V30 3752 H 376.208 3.1345 -2.01999 0
M  V30 3753 N 378.394 1.34581 0.820102 0
M  V30 3754 C 379.326 1.22236 1.93884 0
M  V30 3755 C 380.339 0.148776 1.62119 0
M  V30 3756 O 381.528 0.400877 1.7394 0
M  V30 3757 C 378.628 0.856542 3.27897 0
M  V30 3758 C 377.801 2.02569 3.87666 0
M  V30 3759 C 376.86 1.63782 5.00062 0
M  V30 3760 O 375.886 2.35477 5.18208 0
M  V30 3761 N 377.088 0.553611 5.77854 0
M  V30 3762 H 379.853 2.18615 2.05006 0
M  V30 3763 H 377.414 1.27573 0.99683 0
M  V30 3764 H 379.406 0.578806 4.0054 0
M  V30 3765 H 377.976 -0.0171518 3.12595 0
M  V30 3766 H 377.196 2.468 3.07382 0
M  V30 3767 H 378.484 2.80752 4.24329 0
M  V30 3768 H 377.882 -0.0423528 5.65684 0
M  V30 3769 H 376.439 0.335614 6.50935 0
M  V30 3770 N 379.872 -1.04064 1.18357 0
M  V30 3771 C 381.1 -1.80916 1.00384 0
M  V30 3772 C 381.515 -1.83414 -0.447738 0
M  V30 3773 O 380.872 -1.26962 -1.31099 0
M  V30 3774 C 380.923 -3.26516 1.55144 0
M  V30 3775 O 380.644 -3.2424 2.94618 0
M  V30 3776 C 382.145 -4.20013 1.41789 0
M  V30 3777 H 379.365 -0.569728 0.354474 0
M  V30 3778 H 381.909 -1.31151 1.56906 0
M  V30 3779 H 380.064 -3.73512 1.02798 0
M  V30 3780 H 380.478 -4.15452 3.20156 0
M  V30 3781 H 381.952 -5.20111 1.84901 0
M  V30 3782 H 382.429 -4.37667 0.36661 0
M  V30 3783 H 383.035 -3.78881 1.93207 0
M  V30 3784 N 381.35 -0.985608 -1.22978 0
M  V30 3785 C 382.598 -0.656087 -1.91154 0
M  V30 3786 C 382.919 0.813561 -1.77218 0
M  V30 3787 O 382.189 1.58244 -1.1548 0
M  V30 3788 H 380.769 -0.239674 -0.707506 0
M  V30 3789 H 383.431 -1.25054 -1.49491 0
M  V30 3790 H 382.527 -0.912253 -2.9847 0
M  V30 3791 N 382.828 1.3818 -0.7579 0
M  V30 3792 C 383.738 2.3421 -0.135247 0
M  V30 3793 C 384.754 1.59487 0.695683 0
M  V30 3794 O 385.93 1.91657 0.618832 0
M  V30 3795 C 382.995 3.3862 0.744139 0
M  V30 3796 C 382.056 4.2918 -0.101658 0
M  V30 3797 C 381.289 5.28603 0.735851 0
M  V30 3798 O 381.512 5.35166 1.97366 0
M  V30 3799 O 380.446 6.01707 0.152372 0
M  V30 3800 H 384.272 2.8916 -0.928436 0
M  V30 3801 H 381.857 1.40101 -0.518855 0
M  V30 3802 H 383.739 4.02539 1.2466 0
M  V30 3803 H 382.414 2.86019 1.51575 0
M  V30 3804 H 381.321 3.68407 -0.650167 0
M  V30 3805 H 382.654 4.85048 -0.836024 0
M  V30 3806 N 384.306 0.507319 1.49211 0
M  V30 3807 C 385.536 -0.0315292 2.06576 0
M  V30 3808 C 385.944 -1.30791 1.36713 0
M  V30 3809 O 385.287 -1.78324 0.441181 0
M  V30 3810 C 385.349 -0.349104 3.57801 0
M  V30 3811 C 385.013 0.830475 4.49391 0
M  V30 3812 C 386.01 1.72271 4.90529 0
M  V30 3813 C 383.695 1.03107 4.91604 0
M  V30 3814 C 385.689 2.79964 5.72625 0
M  V30 3815 C 383.376 2.11116 5.73475 0
M  V30 3816 C 384.374 2.99379 6.1389 0
M  V30 3817 O 384.062 4.05523 6.94123 0
M  V30 3818 H 383.794 0.0201002 0.675701 0
M  V30 3819 H 386.348 0.705737 1.92895 0
M  V30 3820 H 384.578 -1.14005 3.69513 0
M  V30 3821 H 386.267 -0.827319 3.97379 0
M  V30 3822 H 387.033 1.57958 4.58557 0
M  V30 3823 H 382.912 0.353417 4.59643 0
M  V30 3824 H 386.456 3.48884 6.04091 0
M  V30 3825 H 382.353 2.25421 6.0486 0
M  V30 3826 H 383.121 4.02953 7.1244 0
M  V30 3827 N 385.784 -1.5574 0.241426 0
M  V30 3828 C 387.032 -1.98417 -0.384075 0
M  V30 3829 C 387.353 -1.13078 -1.58866 0
M  V30 3830 O 386.623 -0.212312 -1.94746 0
M  V30 3831 H 385.203 -0.732813 -0.144894 0
M  V30 3832 H 387.865 -1.9193 0.338943 0
M  V30 3833 H 386.961 -3.04219 -0.696939 0
M  V30 3834 N 387.262 0.0317525 -1.57568 0
M  V30 3835 C 388.225 1.01783 -2.0536 0
M  V30 3836 C 389.225 1.29203 -0.957253 0
M  V30 3837 O 390.415 1.24251 -1.22095 0
M  V30 3838 C 387.547 2.35137 -2.46827 0
M  V30 3839 H 388.74 0.605062 -2.93733 0
M  V30 3840 H 386.293 0.278514 -1.53799 0
M  V30 3841 H 387.028 2.81168 -1.61602 0
M  V30 3842 H 386.813 2.16566 -3.26866 0
M  V30 3843 H 388.303 3.05938 -2.84239 0
M  V30 3844 N 388.74 1.54641 0.303973 0
M  V30 3845 C 389.965 1.78092 1.06292 0
M  V30 3846 C 390.39 0.537342 1.80262 0
M  V30 3847 O 389.748 -0.511993 1.7392 0
M  V30 3848 C 389.796 2.98612 2.02147 0
M  V30 3849 O 388.9 2.71528 3.10397 0
M  V30 3850 H 388.241 0.589548 0.305497 0
M  V30 3851 H 390.771 2.01716 0.3423 0
M  V30 3852 H 390.781 3.265 2.44667 0
M  V30 3853 H 389.456 3.88785 1.47714 0
M  V30 3854 H 388.033 2.54648 2.72413 0
M  V30 3855 N 390.218 -0.567019 1.47046 0
M  V30 3856 C 391.466 -1.322 1.52864 0
M  V30 3857 C 391.787 -1.94088 0.188388 0
M  V30 3858 O 391.057 -1.7941 -0.786693 0
M  V30 3859 H 389.637 -0.490894 0.563056 0
M  V30 3860 H 392.299 -0.662879 1.83281 0
M  V30 3861 H 391.395 -2.12062 2.2899 0
M  V30 3862 N 391.696 -1.35014 -0.812953 0
M  V30 3863 C 392.629 -1.21761 -1.93001 0
M  V30 3864 C 393.607 -0.10694 -1.62248 0
M  V30 3865 O 394.791 -0.273891 -1.865 0
M  V30 3866 C 391.918 -0.873404 -3.27245 0
M  V30 3867 C 390.964 -1.99523 -3.76952 0
M  V30 3868 S 391.797 -3.61009 -3.95516 0
M  V30 3869 C 392.953 -3.28651 -5.32672 0
M  V30 3870 H 393.186 -2.16315 -2.03948 0
M  V30 3871 H 390.719 -1.20156 -0.969631 0
M  V30 3872 H 392.677 -0.68161 -4.04802 0
M  V30 3873 H 391.338 0.053971 -3.14054 0
M  V30 3874 H 390.531 -1.70838 -4.74163 0
M  V30 3875 H 390.133 -2.14503 -3.06373 0
M  V30 3876 H 392.425 -2.81085 -6.1644 0
M  V30 3877 H 393.368 -4.25039 -5.66346 0
M  V30 3878 H 393.776 -2.6458 -4.98656 0
M  V30 3879 N 393.175 1.03435 -1.18907 0
M  V30 3880 C 394.452 1.73778 -0.89781 0
M  V30 3881 C 394.832 2.02458 0.597832 0
M  V30 3882 O 394.18 1.67482 1.55441 0
M  V30 3883 C 394.39 3.01845 -1.75187 0
M  V30 3884 C 395.738 3.7546 -1.9828 0
M  V30 3885 O 396.762 3.11759 -1.72293 0
M  V30 3886 O 395.621 4.89966 -2.42065 0
M  V30 3887 H 392.715 0.75651 -0.334098 0
M  V30 3888 H 395.261 1.09444 -1.29693 0
M  V30 3889 H 394.033 2.76836 -2.76545 0
M  V30 3890 H 393.656 3.73919 -1.35167 0
M  V30 3891 N 394.653 0.992116 1.22453 0
M  V30 3892 C 395.881 0.685944 1.95198 0
M  V30 3893 C 396.296 -0.749233 1.73297 0
M  V30 3894 O 395.653 -1.50549 1.03156 0
M  V30 3895 C 395.704 0.981395 3.47924 0
M  V30 3896 O 395.425 2.36018 3.6909 0
M  V30 3897 C 396.926 0.692815 4.37853 0
M  V30 3898 H 394.146 0.253821 0.621141 0
M  V30 3899 H 396.69 1.32668 1.55626 0
M  V30 3900 H 394.845 0.386481 3.85467 0
M  V30 3901 H 395.259 2.45884 4.63294 0
M  V30 3902 H 396.733 0.949818 5.43767 0
M  V30 3903 H 397.21 -0.373181 4.37612 0
M  V30 3904 H 397.816 1.26874 4.05935 0
M  V30 3905 N 396.131 -1.37776 0.765217 0
M  V30 3906 C 397.359 -2.04124 0.337767 0
M  V30 3907 C 397.774 -1.57715 -1.03785 0
M  V30 3908 O 397.131 -0.755447 -1.6613 0
M  V30 3909 C 397.182 -3.59658 0.364442 0
M  V30 3910 O 396.903 -4.04367 1.68579 0
M  V30 3911 C 398.404 -4.43236 -0.0754221 0
M  V30 3912 H 395.624 -0.655696 0.142491 0
M  V30 3913 H 398.168 -1.76238 1.03732 0
M  V30 3914 H 396.323 -3.86339 -0.286471 0
M  V30 3915 H 396.737 -4.98857 1.61993 0
M  V30 3916 H 398.211 -5.52 -0.00560067 0
M  V30 3917 H 398.688 -4.2455 -1.12491 0
M  V30 3918 H 399.294 -4.21767 0.547055 0
M  V30 3919 N 397.609 -0.515225 -1.4894 0
M  V30 3920 C 398.857 0.0241671 -2.02086 0
M  V30 3921 C 399.178 1.3616 -1.3959 0
M  V30 3922 O 398.448 1.87841 -0.556121 0
M  V30 3923 H 397.028 0.0119203 -0.746905 0
M  V30 3924 H 399.69 -0.675702 -1.82812 0
M  V30 3925 H 398.786 0.143385 -3.1177 0
M  V30 3926 N 399.087 1.5561 -0.249682 0
M  V30 3927 C 400.317 2.03116 0.377803 0
M  V30 3928 C 400.725 1.12822 1.51881 0
M  V30 3929 O 400.068 0.13562 1.83199 0
M  V30 3930 C 400.13 3.46866 0.944693 0
M  V30 3931 C 399.794 4.56955 -0.0644259 0
M  V30 3932 C 400.791 5.12485 -0.874957 0
M  V30 3933 C 398.476 5.01936 -0.19132 0
M  V30 3934 C 400.47 6.11491 -1.79881 0
M  V30 3935 C 398.157 6.00773 -1.11868 0
M  V30 3936 C 399.155 6.5543 -1.92095 0
M  V30 3937 O 398.843 7.5234 -2.83267 0
M  V30 3938 H 398.575 0.669489 0.0935961 0
M  V30 3939 H 401.129 2.02004 -0.371966 0
M  V30 3940 H 399.359 3.45136 1.74407 0
M  V30 3941 H 401.048 3.77856 1.48255 0
M  V30 3942 H 401.814 4.78564 -0.787523 0
M  V30 3943 H 397.693 4.59055 0.423072 0
M  V30 3944 H 401.237 6.54078 -2.42543 0
M  V30 3945 H 397.134 6.34114 -1.20703 0
M  V30 3946 H 397.902 7.69966 -2.7766 0
M  V30 3947 N 400.565 -0.0233959 1.57583 0
M  V30 3948 C 401.495 -1.02162 2.09965 0
M  V30 3949 C 402.476 -1.3735 1.00344 0
M  V30 3950 O 403.661 -1.46135 1.27899 0
M  V30 3951 C 400.791 -2.32081 2.58371 0
M  V30 3952 C 399.745 -2.1112 3.72307 0
M  V30 3953 C 399.071 -3.46848 4.06941 0
M  V30 3954 C 400.371 -1.49276 5.00514 0
M  V30 3955 H 402.065 -0.585557 2.93618 0
M  V30 3956 H 399.611 -0.280218 1.41247 0
M  V30 3957 H 401.564 -3.02249 2.93639 0
M  V30 3958 H 400.288 -2.77758 1.71808 0
M  V30 3959 H 398.947 -1.43384 3.37397 0
M  V30 3960 H 398.595 -3.90184 3.17436 0
M  V30 3961 H 398.295 -3.33646 4.83688 0
M  V30 3962 H 399.819 -4.18369 4.44747 0
M  V30 3963 H 401.233 -2.09368 5.33702 0
M  V30 3964 H 399.63 -1.46632 5.8191 0
M  V30 3965 H 400.7 -0.459217 4.82721 0
M  V30 3966 N 402.043 -1.548 -0.295768 0
M  V30 3967 C 403.273 -1.78069 -1.04762 0
M  V30 3968 C 403.681 -0.542847 -1.81245 0
M  V30 3969 O 403.024 0.497051 -1.76848 0
M  V30 3970 C 403.086 -2.93881 -2.07061 0
M  V30 3971 C 402.75 -4.31777 -1.49725 0
M  V30 3972 C 403.747 -5.11613 -0.924581 0
M  V30 3973 C 401.432 -4.78389 -1.5313 0
M  V30 3974 C 403.426 -6.36184 -0.393594 0
M  V30 3975 C 401.113 -6.02921 -0.996447 0
M  V30 3976 C 402.111 -6.81654 -0.428569 0
M  V30 3977 O 401.799 -8.0384 0.0981593 0
M  V30 3978 H 401.531 -0.597475 -0.316226 0
M  V30 3979 H 404.085 -2.02584 -0.338973 0
M  V30 3980 H 402.315 -2.65003 -2.81621 0
M  V30 3981 H 404.004 -3.04679 -2.6819 0
M  V30 3982 H 404.77 -4.76743 -0.891136 0
M  V30 3983 H 400.649 -4.17132 -1.9627 0
M  V30 3984 H 404.193 -6.97582 0.0503014 0
M  V30 3985 H 400.09 -6.37277 -1.02706 0
M  V30 3986 H 400.858 -8.18499 -0.0146455 0
M  V30 3987 N 403.521 0.559213 -1.47345 0
M  V30 3988 C 404.767 1.31843 -1.54095 0
M  V30 3989 C 405.1 1.93149 -0.201726 0
M  V30 3990 O 404.375 1.77759 0.789428 0
M  V30 3991 C 404.658 2.43006 -2.65744 0
M  V30 3992 C 404.511 1.86581 -4.09277 0
M  V30 3993 C 405.83 3.44943 -2.73318 0
M  V30 3994 H 402.949 0.478012 -0.560957 0
M  V30 3995 H 405.591 0.625977 -1.79392 0
M  V30 3996 H 403.741 3.02072 -2.44305 0
M  V30 3997 H 405.413 1.31792 -4.42073 0
M  V30 3998 H 403.656 1.17268 -4.17649 0
M  V30 3999 H 404.327 2.66933 -4.83168 0
M  V30 4000 H 406.803 2.95793 -2.92653 0
M  V30 4001 H 405.679 4.20153 -3.53218 0
M  V30 4002 H 405.94 4.03665 -1.80296 0
M  V30 4003 N 404.999 1.35443 0.805782 0
M  V30 4004 C 406.41 1.25768 1.37983 0
M  V30 4005 C 406.761 -0.10958 1.95894 0
M  V30 4006 O 405.886 -1.01056 1.91355 0
M  V30 4007 C 406.481 2.27727 2.5085 0
M  V30 4008 C 405.04 2.2179 3.04115 0
M  V30 4009 C 404.187 2.13393 1.77084 0
M  V30 4010 H 407.138 1.4656 0.608752 0
M  V30 4011 H 407.159 1.90422 3.29424 0
M  V30 4012 H 406.671 3.27227 2.08671 0
M  V30 4013 H 404.772 1.25703 3.50756 0
M  V30 4014 H 404.885 3.13788 3.62042 0
M  V30 4015 H 403.249 1.59384 1.98668 0
M  V30 4016 H 404.032 3.14755 1.37056 0
M  V30 4017 N 406.477 -1.02803 1.19454 0
M  V30 4018 C 407.893 -1.28473 0.946937 0
M  V30 4019 C 408.093 -1.97881 -0.380202 0
M  V30 4020 O 407.149 -2.26719 -1.11151 0
M  V30 4021 C 408.462 -2.13099 2.12154 0
M  V30 4022 C 410.01 -2.26404 2.16126 0
M  V30 4023 C 410.485 -3.14402 3.33039 0
M  V30 4024 N 411.976 -3.21991 3.32981 0
M  V30 4025 C 412.711 -3.90272 4.20089 0
M  V30 4026 N 412.207 -4.60777 5.17355 0
M  V30 4027 N 414 -3.8668 4.07964 0
M  V30 4028 H 406.151 -0.561665 2.04839 0
M  V30 4029 H 408.414 -0.310438 0.89573 0
M  V30 4030 H 408.12 -1.69422 3.08203 0
M  V30 4031 H 407.994 -3.13813 2.09287 0
M  V30 4032 H 410.381 -2.69311 1.20647 0
M  V30 4033 H 410.462 -1.25237 2.23045 0
M  V30 4034 H 410.106 -2.72204 4.28798 0
M  V30 4035 H 410.036 -4.1563 3.23356 0
M  V30 4036 H 412.527 -2.71778 2.62574 0
M  V30 4037 H 412.84 -5.10513 5.80169 0
M  V30 4038 H 411.185 -4.5964 5.21302 0
M  V30 4039 H 414.376 -3.30739 3.31254 0
M  V30 4040 H 414.549 -4.39621 4.76064 0
M  V30 4041 N 407.956 -0.998596 -1.21925 0
M  V30 4042 C 408.919 -0.558679 -2.22287 0
M  V30 4043 C 409.919 0.361525 -1.56683 0
M  V30 4044 O 411.109 0.152695 -1.73529 0
M  V30 4045 C 408.241 0.18661 -3.40389 0
M  V30 4046 H 409.434 -1.4463 -2.62721 0
M  V30 4047 H 406.987 -0.786413 -1.35075 0
M  V30 4048 H 407.722 1.08996 -3.05435 0
M  V30 4049 H 407.507 -0.474188 -3.89222 0
M  V30 4050 H 408.997 0.482367 -4.14805 0
M  V30 4051 N 409.434 1.37368 -0.772513 0
M  V30 4052 C 410.674 2.01512 -0.342361 0
M  V30 4053 C 411.038 1.59997 1.06136 0
M  V30 4054 O 412.239 2.16609 1.59167 0
M  V30 4055 C 410.51 3.54134 -0.482048 0
M  V30 4056 S 412.069 4.38585 -0.137272 0
M  V30 4057 H 408.887 0.698699 -0.131686 0
M  V30 4058 H 411.489 1.67552 -1.0073 0
M  V30 4059 H 410.193 3.81837 -1.50428 0
M  V30 4060 H 409.724 3.92894 0.199413 0
M  V30 4061 H 411.739 4.84594 1.06692 0
M  V30 4062 N 410.912 0.523116 1.48665 0
M  V30 4063 C 411.844 -0.280421 2.27478 0
M  V30 4064 C 412.857 -0.910694 1.34945 0
M  V30 4065 O 414.046 -0.790295 1.60052 0
M  V30 4066 C 411.146 -1.41171 3.08097 0
M  V30 4067 C 410.319 -0.884642 4.28361 0
M  V30 4068 C 409.378 -1.89622 4.90846 0
M  V30 4069 O 408.404 -1.4559 5.50265 0
M  V30 4070 N 409.606 -3.22801 4.82472 0
M  V30 4071 H 412.371 0.395481 2.97079 0
M  V30 4072 H 409.932 0.357018 1.57915 0
M  V30 4073 H 411.924 -2.08645 3.4677 0
M  V30 4074 H 410.494 -1.99139 2.40961 0
M  V30 4075 H 409.714 -0.0341177 3.94185 0
M  V30 4076 H 411.002 -0.511268 5.06225 0
M  V30 4077 H 410.4 -3.61246 4.35336 0
M  V30 4078 H 408.957 -3.85927 5.25265 0
M  V30 4079 N 412.39 -1.55475 0.257931 0
M  V30 4080 C 413.801 -1.8511 -0.243135 0
M  V30 4081 C 414.152 -1.17986 -1.5676 0
M  V30 4082 O 413.277 -0.462102 -2.11409 0
M  V30 4083 C 413.872 -3.35826 -0.447929 0
M  V30 4084 C 412.431 -3.65647 -0.893245 0
M  V30 4085 C 411.578 -2.7729 0.0232965 0
M  V30 4086 H 414.529 -1.51261 0.480199 0
M  V30 4087 H 414.55 -3.58002 -1.28898 0
M  V30 4088 H 414.062 -3.84652 0.516196 0
M  V30 4089 H 412.163 -3.22308 -1.86945 0
M  V30 4090 H 412.276 -4.73312 -0.742469 0
M  V30 4091 H 410.64 -2.49942 -0.490021 0
M  V30 4092 H 411.423 -3.28926 0.982994 0
M  V30 4093 N 413.868 0.0150385 -1.57593 0
M  V30 4094 C 415.116 0.701613 -1.8953 0
M  V30 4095 C 415.437 1.75139 -0.857396 0
M  V30 4096 O 414.707 1.95607 0.107194 0
M  V30 4097 H 413.287 0.26213 -0.699498 0
M  V30 4098 H 415.949 -0.0223304 -1.94887 0
M  V30 4099 H 415.045 1.18236 -2.88837 0
M  V30 4100 N 415.346 1.54954 0.287554 0
M  V30 4101 C 416.571 1.79209 1.04397 0
M  V30 4102 C 416.996 0.556431 1.79682 0
M  V30 4103 O 416.354 -0.493518 1.74454 0
M  V30 4104 C 416.402 3.00739 1.98969 0
M  V30 4105 O 415.506 2.74805 3.075 0
M  V30 4106 H 414.847 0.592755 0.299227 0
M  V30 4107 H 417.377 2.02068 0.320886 0
M  V30 4108 H 417.387 3.29077 2.4119 0
M  V30 4109 H 416.062 3.90329 1.43582 0
M  V30 4110 H 414.639 2.57523 2.69697 0
M  V30 4111 N 416.824 -0.551391 1.4764 0
M  V30 4112 C 418.049 -1.33837 1.58437 0
M  V30 4113 C 418.474 -1.866 0.237063 0
M  V30 4114 O 417.832 -1.6328 -0.787994 0
M  V30 4115 C 417.88 -2.48014 2.61766 0
M  V30 4116 O 416.984 -3.50419 2.1744 0
M  V30 4117 H 416.325 -0.397299 0.532024 0
M  V30 4118 H 418.855 -0.665759 1.93465 0
M  V30 4119 H 418.865 -2.94503 2.82369 0
M  V30 4120 H 417.54 -2.08969 3.5959 0
M  V30 4121 H 416.117 -3.10196 2.06961 0
M  V30 4122 N 418.302 -1.35869 -0.798587 0
M  V30 4123 C 419.53 -1.32722 -1.58722 0
M  V30 4124 C 419.945 0.0935631 -1.88568 0
M  V30 4125 O 419.302 1.04784 -1.49421 0
M  V30 4126 C 419.353 -2.13974 -2.91371 0
M  V30 4127 O 419.074 -3.50514 -2.62815 0
M  V30 4128 C 420.575 -2.18504 -3.85708 0
M  V30 4129 H 417.795 -0.45562 -0.492596 0
M  V30 4130 H 420.339 -1.78837 -0.991843 0
M  V30 4131 H 418.494 -1.71438 -3.47402 0
M  V30 4132 H 418.908 -3.92806 -3.47568 0
M  V30 4133 H 420.382 -2.79732 -4.75872 0
M  V30 4134 H 420.859 -1.18597 -4.22885 0
M  V30 4135 H 421.465 -2.61236 -3.35612 0
M  V30 4136 N 419.78 1.02168 -1.19998 0
M  V30 4137 C 421.026 1.75945 -1.00852 0
M  V30 4138 C 421.359 1.88702 0.458828 0
M  V30 4139 O 420.634 1.40911 1.34069 0
M  V30 4140 C 420.917 3.18154 -1.68671 0
M  V30 4141 C 420.77 3.13224 -3.22817 0
M  V30 4142 C 422.089 4.16711 -1.41561 0
M  V30 4143 H 419.208 0.638673 -0.367785 0
M  V30 4144 H 421.85 1.19222 -1.4794 0
M  V30 4145 H 420 3.66586 -1.28636 0
M  V30 4146 H 421.672 2.72635 -3.72112 0
M  V30 4147 H 419.915 2.50751 -3.53986 0
M  V30 4148 H 420.586 4.13728 -3.65422 0
M  V30 4149 H 423.062 3.76913 -1.76284 0
M  V30 4150 H 421.938 5.14391 -1.91553 0
M  V30 4151 H 422.199 4.40774 -0.342193 0
M  V30 4152 N 421.258 1.00505 1.21394 0
M  V30 4153 C 422.498 0.696149 1.9218 0
M  V30 4154 C 422.862 -0.759099 1.76357 0
M  V30 4155 O 424.063 -1.17998 2.41516 0
M  V30 4156 C 422.334 1.10571 3.39866 0
M  V30 4157 S 423.893 0.91702 4.29111 0
M  V30 4158 H 420.711 0.254147 0.664026 0
M  V30 4159 H 423.313 1.28988 1.46909 0
M  V30 4160 H 422.017 2.16096 3.489 0
M  V30 4161 H 421.548 0.504268 3.90155 0
M  V30 4162 H 423.563 -0.185855 4.95852 0
M  V30 4163 N 422.737 -1.36956 0.779787 0
M  V30 4164 C 423.684 -2.30175 0.169697 0
M  V30 4165 C 424.654 -1.51501 -0.68094 0
M  V30 4166 O 425.839 -1.80042 -0.631629 0
M  V30 4167 C 422.979 -3.37985 -0.697131 0
M  V30 4168 C 422.092 -4.31661 0.170992 0
M  V30 4169 C 421.227 -5.2655 -0.701298 0
M  V30 4170 C 420.266 -6.11867 0.168869 0
M  V30 4171 N 419.403 -6.98973 -0.661855 0
M  V30 4172 H 424.243 -2.81767 0.970135 0
M  V30 4173 H 421.78 -1.38699 0.489994 0
M  V30 4174 H 423.738 -3.99128 -1.2146 0
M  V30 4175 H 422.368 -2.87739 -1.46309 0
M  V30 4176 H 421.42 -3.71756 0.80634 0
M  V30 4177 H 422.732 -4.91644 0.841875 0
M  V30 4178 H 421.886 -5.92937 -1.28494 0
M  V30 4179 H 420.625 -4.66998 -1.40584 0
M  V30 4180 H 419.63 -5.44452 0.764986 0
M  V30 4181 H 420.855 -6.73493 0.870863 0
M  V30 4182 H 418.801 -6.41941 -1.35086 0
M  V30 4183 H 418.718 -7.55984 -0.0484447 0
M  V30 4184 H 419.986 -7.6974 -1.22963 0
M  V30 4185 N 424.215 -0.530993 -1.48385 0
M  V30 4186 C 425.145 0.219985 -2.32461 0
M  V30 4187 C 426.126 0.934111 -1.42156 0
M  V30 4188 O 427.311 0.919694 -1.71042 0
M  V30 4189 C 424.441 1.26674 -3.23375 0
M  V30 4190 C 423.395 0.67069 -4.22712 0
M  V30 4191 C 422.721 1.82017 -5.02766 0
M  V30 4192 C 424.021 -0.358268 -5.2107 0
M  V30 4193 H 425.715 -0.48187 -2.95497 0
M  V30 4194 H 423.261 -0.233182 -1.42099 0
M  V30 4195 H 425.214 1.80006 -3.81019 0
M  V30 4196 H 423.938 1.99818 -2.58341 0
M  V30 4197 H 422.597 0.158878 -3.66256 0
M  V30 4198 H 422.245 2.54002 -4.34157 0
M  V30 4199 H 421.945 1.42727 -5.70003 0
M  V30 4200 H 423.469 2.35725 -5.63264 0
M  V30 4201 H 424.883 0.0880081 -5.73232 0
M  V30 4202 H 423.28 -0.66861 -5.96364 0
M  V30 4203 H 424.35 -1.26367 -4.68145 0
M  V30 4204 N 425.693 1.55336 -0.266172 0
M  V30 4205 C 426.643 2.18848 0.639497 0
M  V30 4206 C 427.627 1.1503 1.12503 0
M  V30 4207 O 428.819 1.40875 1.0716 0
M  V30 4208 C 425.948 2.90626 1.82733 0
M  V30 4209 C 425.034 4.01723 1.35939 0
M  V30 4210 N 425.425 5.02145 0.606988 0
M  V30 4211 C 423.723 4.1463 1.6431 0
M  V30 4212 C 424.424 5.80572 0.362138 0
M  V30 4213 N 423.4 5.35551 0.931971 0
M  V30 4214 H 427.202 2.93845 0.0567057 0
M  V30 4215 H 424.716 1.62252 -0.0693312 0
M  V30 4216 H 426.713 3.34569 2.48735 0
M  V30 4217 H 425.373 2.17137 2.41416 0
M  V30 4218 H 426.384 5.17271 0.255198 0
M  V30 4219 H 423.061 3.52326 2.23993 0
M  V30 4220 H 424.451 6.71472 -0.239848 0
M  V30 4221 N 427.171 -0.0066808 1.57599 0
M  V30 4222 C 428.417 -0.693947 1.90558 0
M  V30 4223 C 428.75 -1.73792 0.866594 0
M  V30 4224 O 428.025 -1.94156 -0.115548 0
M  V30 4225 C 428.308 -1.34317 3.34112 0
M  V30 4226 C 428.161 -0.311189 4.48722 0
M  V30 4227 C 429.48 -2.27116 3.7697 0
M  V30 4228 H 426.599 -0.250803 0.693013 0
M  V30 4229 H 429.241 0.043242 1.89951 0
M  V30 4230 H 427.391 -1.9715 3.3476 0
M  V30 4231 H 429.063 0.316944 4.6021 0
M  V30 4232 H 427.306 0.367253 4.32243 0
M  V30 4233 H 427.977 -0.804366 5.46108 0
M  V30 4234 H 430.453 -1.74306 3.77831 0
M  V30 4235 H 429.329 -2.69511 4.78179 0
M  V30 4236 H 429.59 -3.14743 3.10466 0
M  V30 4237 N 428.649 -1.55105 -0.279332 0
M  V30 4238 C 429.612 -1.86783 -1.32834 0
M  V30 4239 C 430.612 -0.74199 -1.42657 0
M  V30 4240 O 431.802 -1.0102 -1.41918 0
M  V30 4241 C 428.934 -2.06746 -2.71052 0
M  V30 4242 H 430.127 -2.8055 -1.05979 0
M  V30 4243 H 427.68 -1.47499 -0.517087 0
M  V30 4244 H 428.415 -1.15339 -3.03097 0
M  V30 4245 H 428.2 -2.88711 -2.65309 0
M  V30 4246 H 429.69 -2.32549 -3.46858 0
M  V30 4247 N 430.127 0.543554 -1.4793 0
M  V30 4248 C 431.057 1.65888 -1.64327 0
M  V30 4249 C 432.038 1.62818 -0.492383 0
M  V30 4250 O 433.223 1.80226 -0.723338 0
M  V30 4251 C 430.353 3.04506 -1.67013 0
M  V30 4252 C 429.307 3.2243 -2.81466 0
M  V30 4253 C 428.633 4.61972 -2.69233 0
M  V30 4254 C 429.933 3.06496 -4.22915 0
M  V30 4255 H 431.627 1.52421 -2.57698 0
M  V30 4256 H 429.173 0.731849 -1.24016 0
M  V30 4257 H 431.126 3.82391 -1.77074 0
M  V30 4258 H 429.85 3.18964 -0.70212 0
M  V30 4259 H 428.509 2.46957 -2.70938 0
M  V30 4260 H 428.157 4.73247 -1.7043 0
M  V30 4261 H 427.857 4.74911 -3.46025 0
M  V30 4262 H 429.381 5.41974 -2.81242 0
M  V30 4263 H 430.795 3.74186 -4.34348 0
M  V30 4264 H 429.192 3.30938 -5.006 0
M  V30 4265 H 430.262 2.03077 -4.40327 0
M  V30 4266 N 431.605 1.3629 0.791371 0
M  V30 4267 C 432.555 1.26988 1.89362 0
M  V30 4268 C 433.539 0.161795 1.60084 0
M  V30 4269 O 434.731 0.394426 1.72549 0
M  V30 4270 C 431.86 1.05944 3.26544 0
M  V30 4271 C 430.946 2.21211 3.61838 0
M  V30 4272 N 431.337 3.46518 3.68455 0
M  V30 4273 C 429.635 2.12933 3.91887 0
M  V30 4274 C 430.336 4.2241 3.99931 0
M  V30 4275 N 429.312 3.51329 4.14812 0
M  V30 4276 H 433.114 2.21908 1.92702 0
M  V30 4277 H 430.628 1.28982 0.986787 0
M  V30 4278 H 432.625 0.973666 4.05371 0
M  V30 4279 H 431.285 0.119223 3.24481 0
M  V30 4280 H 432.296 3.80677 3.51148 0
M  V30 4281 H 428.973 1.26855 3.97761 0
M  V30 4282 H 430.363 5.30767 4.1199 0
M  V30 4283 N 433.083 -1.0153 1.20538 0
M  V30 4284 C 434.331 -1.74803 1.01432 0
M  V30 4285 C 434.652 -1.8963 -0.454456 0
M  V30 4286 O 433.922 -1.43975 -1.32846 0
M  V30 4287 H 432.502 -0.647598 0.372324 0
M  V30 4288 H 435.164 -1.22402 1.5167 0
M  V30 4289 H 434.26 -2.75114 1.47373 0
M  V30 4290 N 434.561 -1.01147 -1.20859 0
M  V30 4291 C 435.801 -0.706331 -1.91808 0
M  V30 4292 C 436.165 0.749736 -1.76757 0
M  V30 4293 O 437.366 1.16716 -2.42138 0
M  V30 4294 C 435.637 -1.12371 -3.39275 0
M  V30 4295 S 437.196 -0.939764 -4.28619 0
M  V30 4296 H 434.014 -0.257665 -0.662669 0
M  V30 4297 H 436.616 -1.29766 -1.46223 0
M  V30 4298 H 435.32 -2.17943 -3.47749 0
M  V30 4299 H 434.851 -0.524952 -3.89882 0
M  V30 4300 H 436.866 0.159556 -4.95943 0
M  V30 4301 N 436.039 1.36541 -0.78704 0
M  V30 4302 C 436.986 2.30082 -0.181901 0
M  V30 4303 C 437.956 1.5186 0.672896 0
M  V30 4304 O 439.141 1.80374 0.622072 0
M  V30 4305 C 436.281 3.3835 0.679197 0
M  V30 4306 C 435.394 4.31565 -0.193882 0
M  V30 4307 C 434.529 5.26915 0.673364 0
M  V30 4308 C 433.568 6.11769 -0.201315 0
M  V30 4309 N 432.705 6.99315 0.624777 0
M  V30 4310 H 437.545 2.81248 -0.985064 0
M  V30 4311 H 435.082 1.38437 -0.497342 0
M  V30 4312 H 437.04 3.99767 1.19341 0
M  V30 4313 H 435.67 2.8851 1.44781 0
M  V30 4314 H 434.722 3.71323 -0.826044 0
M  V30 4315 H 436.034 4.91191 -0.867937 0
M  V30 4316 H 435.188 5.9361 1.25348 0
M  V30 4317 H 433.927 4.67737 1.38105 0
M  V30 4318 H 432.932 5.44039 -0.793849 0
M  V30 4319 H 434.157 6.73022 -0.906568 0
M  V30 4320 H 432.103 6.42648 1.3168 0
M  V30 4321 H 432.02 7.56 0.00835237 0
M  V30 4322 H 433.288 7.70382 1.18879 0
M  V30 4323 N 437.518 0.538854 1.48102 0
M  V30 4324 C 438.45 -0.256278 2.27763 0
M  V30 4325 C 439.463 -0.89633 1.35904 0
M  V30 4326 O 440.652 -0.773275 1.60881 0
M  V30 4327 C 437.752 -1.37896 3.09577 0
M  V30 4328 C 436.925 -0.839159 4.29275 0
M  V30 4329 C 435.984 -1.84405 4.9283 0
M  V30 4330 O 435.01 -1.39746 5.51779 0
M  V30 4331 N 436.212 -3.17666 4.85869 0
M  V30 4332 H 438.977 0.426968 2.96643 0
M  V30 4333 H 436.538 0.373747 1.57527 0
M  V30 4334 H 438.53 -2.04955 3.48963 0
M  V30 4335 H 437.1 -1.96572 2.4306 0
M  V30 4336 H 436.32 0.00769287 3.94199 0
M  V30 4337 H 437.608 -0.457548 5.06739 0
M  V30 4338 H 437.006 -3.56609 4.39143 0
M  V30 4339 H 435.563 -3.80334 5.29329 0
M  V30 4340 N 438.996 -1.55193 0.274407 0
M  V30 4341 C 440.221 -2.04446 -0.348824 0
M  V30 4342 C 440.646 -1.15149 -1.48735 0
M  V30 4343 O 440.004 -0.149952 -1.80679 0
M  V30 4344 C 440.052 -3.51431 -0.808009 0
M  V30 4345 O 439.156 -3.65225 -1.91531 0
M  V30 4346 H 438.497 -0.66006 -0.0722276 0
M  V30 4347 H 441.027 -2.00481 0.408498 0
M  V30 4348 H 441.037 -3.92781 -1.10395 0
M  V30 4349 H 439.712 -4.15892 0.0249865 0
M  V30 4350 H 438.289 -3.35778 -1.62196 0
M  V30 4351 N 440.474 -0.00167713 -1.576 0
M  V30 4352 C 441.704 0.692754 -1.94639 0
M  V30 4353 C 442.112 1.67744 -0.87513 0
M  V30 4354 O 441.455 1.8305 0.154382 0
M  V30 4355 C 441.517 1.47881 -3.27676 0
M  V30 4356 C 441.181 0.655518 -4.52274 0
M  V30 4357 C 442.178 -0.0575214 -5.19868 0
M  V30 4358 C 439.863 0.600994 -4.98692 0
M  V30 4359 C 441.857 -0.814052 -6.3218 0
M  V30 4360 C 439.544 -0.15926 -6.10892 0
M  V30 4361 C 440.542 -0.865515 -6.77494 0
M  V30 4362 O 440.23 -1.61336 -7.87544 0
M  V30 4363 H 439.962 0.197792 -0.646417 0
M  V30 4364 H 442.516 -0.049423 -2.05341 0
M  V30 4365 H 440.746 2.2655 -3.13388 0
M  V30 4366 H 442.435 2.05874 -3.49816 0
M  V30 4367 H 443.201 -0.0245611 -4.84994 0
M  V30 4368 H 439.08 1.14025 -4.46676 0
M  V30 4369 H 442.624 -1.36584 -6.84098 0
M  V30 4370 H 438.521 -0.194035 -6.45208 0
M  V30 4371 H 439.289 -1.53025 -8.04068 0
M  V30 4372 N 441.952 1.55251 0.271103 0
M  V30 4373 C 443.177 1.80306 1.02491 0
M  V30 4374 C 443.602 0.575457 1.79081 0
M  V30 4375 O 442.96 -0.474987 1.74967 0
M  V30 4376 C 443.008 3.02832 1.95768 0
M  V30 4377 O 442.112 2.78051 3.04568 0
M  V30 4378 H 441.453 0.595896 0.292923 0
M  V30 4379 H 443.983 2.02397 0.299436 0
M  V30 4380 H 443.993 3.31616 2.37686 0
M  V30 4381 H 442.668 3.9183 1.39434 0
M  V30 4382 H 441.245 2.60369 2.66951 0
M  V30 4383 N 443.43 -0.535701 1.48216 0
M  V30 4384 C 444.363 -1.65726 1.56876 0
M  V30 4385 C 445.341 -1.57094 0.419542 0
M  V30 4386 O 446.525 -1.77648 0.630352 0
M  V30 4387 C 443.652 -3.04096 1.49142 0
M  V30 4388 C 442.698 -3.31105 2.68834 0
M  V30 4389 S 443.531 -3.18001 4.30854 0
M  V30 4390 C 444.687 -4.58828 4.25709 0
M  V30 4391 H 444.92 -1.58129 2.51759 0
M  V30 4392 H 442.453 -0.718218 1.36678 0
M  V30 4393 H 444.411 -3.839 1.45366 0
M  V30 4394 H 443.072 -3.09139 0.556067 0
M  V30 4395 H 442.265 -4.32033 2.59545 0
M  V30 4396 H 441.867 -2.58961 2.69843 0
M  V30 4397 H 444.159 -5.5023 3.95289 0
M  V30 4398 H 445.102 -4.73172 5.26796 0
M  V30 4399 H 445.51 -4.37883 3.56257 0
M  V30 4400 N 444.908 -1.36708 -0.784132 0
M  V30 4401 C 446.157 -1.30559 -1.53744 0
M  V30 4402 C 446.47 0.111374 -1.95283 0
M  V30 4403 O 447.676 0.29527 -2.6989 0
M  V30 4404 C 446.132 -2.29098 -2.77565 0
M  V30 4405 C 445.74 -3.76258 -2.43174 0
M  V30 4406 C 447.484 -2.31936 -3.55536 0
M  V30 4407 C 445.391 -4.6656 -3.63422 0
M  V30 4408 H 444.321 -0.48518 -0.577162 0
M  V30 4409 H 446.972 -1.62101 -0.859981 0
M  V30 4410 H 445.354 -1.90557 -3.47137 0
M  V30 4411 H 446.528 -4.23565 -1.81465 0
M  V30 4412 H 444.843 -3.76246 -1.78403 0
M  V30 4413 H 447.44 -2.9661 -4.44889 0
M  V30 4414 H 447.783 -1.3294 -3.94503 0
M  V30 4415 H 448.316 -2.6912 -2.92949 0
M  V30 4416 H 445.055 -5.66638 -3.29547 0
M  V30 4417 H 444.575 -4.23966 -4.24279 0
M  V30 4418 H 446.254 -4.8309 -4.30387 0
M  V30 4419 N 446.386 1.0089 -1.21074 0
M  V30 4420 C 447.634 1.74262 -1.02358 0
M  V30 4421 C 447.955 1.89869 0.444393 0
M  V30 4422 O 447.225 1.44677 1.32081 0
M  V30 4423 H 445.805 0.645615 -0.375754 0
M  V30 4424 H 448.467 1.21596 -1.52317 0
M  V30 4425 H 447.563 2.74328 -1.4883 0
M  V30 4426 N 447.864 1.01787 1.20321 0
M  V30 4427 C 449.089 0.727009 1.9424 0
M  V30 4428 C 449.514 -0.706179 1.74341 0
M  V30 4429 O 448.872 -1.48609 1.03852 0
M  V30 4430 C 448.92 1.06958 3.44372 0
M  V30 4431 O 448.024 0.181983 4.11998 0
M  V30 4432 H 447.365 0.269626 0.606793 0
M  V30 4433 H 449.895 1.36158 1.52716 0
M  V30 4434 H 449.905 1.02182 3.94997 0
M  V30 4435 H 448.58 2.11378 3.58179 0
M  V30 4436 H 447.157 0.287378 3.71791 0
M  V30 4437 N 449.342 -1.36122 0.79427 0
M  V30 4438 C 450.289 -2.29982 0.194101 0
M  V30 4439 C 451.259 -1.52214 -0.664833 0
M  V30 4440 O 452.444 -1.80702 -0.612498 0
M  V30 4441 C 449.584 -3.38706 -0.661244 0
M  V30 4442 C 448.697 -4.31456 0.216766 0
M  V30 4443 C 447.832 -5.27265 -0.645411 0
M  V30 4444 C 446.871 -6.11653 0.233756 0
M  V30 4445 N 446.008 -6.99636 -0.587682 0
M  V30 4446 H 450.848 -2.80722 0.999965 0
M  V30 4447 H 448.385 -1.38172 0.504677 0
M  V30 4448 H 450.343 -4.00394 -1.17219 0
M  V30 4449 H 448.973 -2.89274 -1.43249 0
M  V30 4450 H 448.025 -3.7088 0.845724 0
M  V30 4451 H 449.337 -4.90724 0.893973 0
M  V30 4452 H 448.491 -5.94266 -1.22198 0
M  V30 4453 H 447.23 -4.68463 -1.35623 0
M  V30 4454 H 446.235 -5.4361 0.82269 0
M  V30 4455 H 447.46 -6.72531 0.942247 0
M  V30 4456 H 445.406 -6.43337 -1.2827 0
M  V30 4457 H 445.323 -7.55993 0.0317402 0
M  V30 4458 H 446.591 -7.71001 -1.14792 0
M  V30 4459 N 450.82 -0.546701 -1.47814 0
M  V30 4460 C 452.067 -0.0187407 -2.02491 0
M  V30 4461 C 452.395 1.32685 -1.42215 0
M  V30 4462 O 451.65 1.87413 -0.563454 0
M  V30 4463 C 451.949 0.134869 -3.57145 0
M  V30 4464 C 451.615 -1.13849 -4.3629 0
M  V30 4465 C 450.277 -1.48743 -4.57634 0
M  V30 4466 C 452.629 -1.98277 -4.82012 0
M  V30 4467 C 449.957 -2.67932 -5.21948 0
M  V30 4468 C 452.309 -3.16659 -5.4764 0
M  V30 4469 C 450.973 -3.51879 -5.67219 0
M  V30 4470 H 450.243 -0.0068577 -0.740968 0
M  V30 4471 H 452.89 -0.716097 -1.77607 0
M  V30 4472 H 451.195 0.915118 -3.80963 0
M  V30 4473 H 452.892 0.558556 -3.97091 0
M  V30 4474 H 449.482 -0.856767 -4.19949 0
M  V30 4475 H 453.666 -1.72628 -4.6531 0
M  V30 4476 H 448.922 -2.95401 -5.35302 0
M  V30 4477 H 453.096 -3.82374 -5.82033 0
M  V30 4478 H 450.723 -4.44331 -6.16825 0
M  V30 4479 N 452.299 1.55045 -0.282633 0
M  V30 4480 C 453.545 2.00056 0.332481 0
M  V30 4481 C 453.878 1.1708 1.54939 0
M  V30 4482 O 453.153 0.2427 1.9298 0
M  V30 4483 C 453.436 3.53086 0.70725 0
M  V30 4484 C 453.289 4.46813 -0.517521 0
M  V30 4485 C 454.608 4.12245 1.54084 0
M  V30 4486 H 451.727 0.727268 0.119373 0
M  V30 4487 H 454.369 1.85932 -0.391076 0
M  V30 4488 H 452.519 3.65253 1.32372 0
M  V30 4489 H 454.191 4.46579 -1.15607 0
M  V30 4490 H 452.434 4.18163 -1.1542 0
M  V30 4491 H 453.105 5.51595 -0.211426 0
M  V30 4492 H 455.581 4.03401 1.02013 0
M  V30 4493 H 454.457 5.19515 1.77186 0
M  V30 4494 H 454.718 3.62951 2.52427 0
M  V30 4495 N 453.777 0.010035 1.57597 0
M  V30 4496 C 455.002 -0.687021 1.95691 0
M  V30 4497 C 455.427 -1.65952 0.885519 0
M  V30 4498 O 454.785 -1.80633 -0.15543 0
M  V30 4499 C 454.833 -1.3864 3.32884 0
M  V30 4500 O 453.937 -2.50115 3.27897 0
M  V30 4501 H 453.278 -0.181989 0.638573 0
M  V30 4502 H 455.808 0.0662122 2.04493 0
M  V30 4503 H 455.818 -1.74754 3.6868 0
M  V30 4504 H 454.493 -0.673411 4.10412 0
M  V30 4505 H 453.07 -2.16253 3.03791 0
M  V30 4506 N 455.255 -1.55392 -0.262866 0
M  V30 4507 C 456.203 -1.8977 -1.345 0
M  V30 4508 C 457.197 -0.775063 -1.50629 0
M  V30 4509 O 458.403 -0.959519 -1.52293 0
M  V30 4510 H 454.778 -0.602467 -0.450041 0
M  V30 4511 H 456.749 -2.80147 -1.02762 0
M  V30 4512 C 455.498 -2.19501 -2.69657 0
M  V30 4513 H 454.821 -3.05378 -2.5804 0
M  V30 4514 H 456.261 -2.47469 -3.44289 0
M  V30 4515 C 454.72 -1.00597 -3.21531 0
M  V30 4516 O 455.25 -0.245768 -4.00947 0
M  V30 4517 N 453.456 -0.800911 -2.79345 0
M  V30 4518 H 453.003 -1.42079 -2.14875 0
M  V30 4519 H 452.961 -0.00697996 -3.14399 0
M  V30 4520 N 456.733 0.527833 -1.48498 0
M  V30 4521 C 457.961 1.30823 -1.6029 0
M  V30 4522 C 458.376 1.86945 -0.263974 0
M  V30 4523 O 457.733 1.6651 0.747034 0
M  V30 4524 C 457.784 2.45756 -2.65116 0
M  V30 4525 O 457.505 1.91946 -3.93813 0
M  V30 4526 C 459.006 3.37543 -2.87367 0
M  V30 4527 H 456.226 0.397763 -0.540394 0
M  V30 4528 H 458.77 0.636529 -1.94341 0
M  V30 4529 H 456.925 3.08806 -2.33917 0
M  V30 4530 H 457.339 2.67195 -4.51339 0
M  V30 4531 H 458.813 4.14532 -3.6451 0
M  V30 4532 H 459.29 3.92905 -1.9627 0
M  V30 4533 H 459.896 2.80283 -3.19878 0
M  V30 4534 N 458.211 1.37122 0.776871 0
M  V30 4535 C 459.459 1.31787 1.53221 0
M  V30 4536 C 459.78 -0.0987589 1.9475 0
M  V30 4537 O 459.05 -1.0417 1.65908 0
M  V30 4538 H 457.63 0.484839 0.568278 0
M  V30 4539 H 460.292 1.71556 0.924917 0
M  V30 4540 H 459.388 1.95355 2.43398 0
M  V30 4541 N 459.689 -1.00246 1.21608 0
M  V30 4542 C 460.919 -1.77373 1.05935 0
M  V30 4543 C 461.327 -1.85059 -0.393686 0
M  V30 4544 O 460.67 -1.31289 -1.28487 0
M  V30 4545 C 460.732 -3.22705 1.58435 0
M  V30 4546 C 460.396 -3.38591 3.06929 0
M  V30 4547 C 461.393 -3.2667 4.04454 0
M  V30 4548 C 459.078 -3.6395 3.46187 0
M  V30 4549 C 461.072 -3.39877 5.39224 0
M  V30 4550 C 458.759 -3.768 4.81108 0
M  V30 4551 C 459.757 -3.6477 5.77436 0
M  V30 4552 O 459.445 -3.77206 7.09909 0
M  V30 4553 H 459.177 -0.56419 0.372378 0
M  V30 4554 H 461.731 -1.26971 1.61454 0
M  V30 4555 H 459.961 -3.74255 0.973147 0
M  V30 4556 H 461.65 -3.81515 1.38568 0
M  V30 4557 H 462.416 -3.06999 3.75468 0
M  V30 4558 H 458.295 -3.72395 2.71741 0
M  V30 4559 H 461.839 -3.30404 6.14393 0
M  V30 4560 H 457.736 -3.95975 5.09779 0
M  V30 4561 H 458.504 -3.94138 7.17355 0
M  V30 4562 N 461.167 -1.02423 -1.1978 0
M  V30 4563 C 462.115 -0.594474 -2.24875 0
M  V30 4564 C 463.109 0.370598 -1.65296 0
M  V30 4565 O 464.315 0.239684 -1.78397 0
M  V30 4566 H 460.69 -0.173961 -0.731602 0
M  V30 4567 H 462.661 -1.4916 -2.58445 0
M  V30 4568 C 461.41 0.0436512 -3.47673 0
M  V30 4569 H 460.733 -0.689963 -3.93801 0
M  V30 4570 H 462.173 0.307362 -4.22884 0
M  V30 4571 C 460.632 1.28881 -3.11274 0
M  V30 4572 O 461.162 2.38135 -3.23503 0
M  V30 4573 N 459.368 1.1758 -2.6575 0
M  V30 4574 H 458.915 0.286769 -2.55999 0
M  V30 4575 H 458.873 2.00988 -2.41767 0
M  V30 4576 N 462.645 1.35699 -0.801477 0
M  V30 4577 C 463.578 2.2768 -0.153922 0
M  V30 4578 C 464.556 1.47832 0.67709 0
M  V30 4579 O 465.74 1.77104 0.645474 0
M  V30 4580 C 462.867 3.2943 0.786986 0
M  V30 4581 C 461.913 4.26485 0.0362447 0
M  V30 4582 S 462.746 5.19573 -1.2963 0
M  V30 4583 C 463.902 6.24866 -0.359705 0
M  V30 4584 H 464.135 2.82254 -0.9338 0
M  V30 4585 H 461.668 1.42421 -0.596283 0
M  V30 4586 H 463.626 3.8855 1.32436 0
M  V30 4587 H 462.287 2.73745 1.54021 0
M  V30 4588 H 461.48 4.98378 0.750668 0
M  V30 4589 H 461.082 3.71508 -0.431017 0
M  V30 4590 H 463.374 6.75957 0.456954 0
M  V30 4591 H 464.317 7.00307 -1.04768 0
M  V30 4592 H 464.725 5.64484 0.0423274 0
M  V30 4593 N 464.123 0.554532 1.47522 0
M  V30 4594 C 465.369 0.0377449 2.03365 0
M  V30 4595 C 465.724 -1.29654 1.42154 0
M  V30 4596 O 465.017 -1.83022 0.566865 0
M  V30 4597 C 465.211 -0.115927 3.57212 0
M  V30 4598 C 465.04 1.20191 4.33341 0
M  V30 4599 C 463.81 1.76849 4.73342 0
M  V30 4600 C 466.008 2.11849 4.68641 0
M  V30 4601 N 463.99 3.02665 5.34104 0
M  V30 4602 C 465.361 3.22245 5.29677 0
M  V30 4603 C 467.416 2.11876 4.5057 0
M  V30 4604 C 466.119 4.32763 5.74551 0
M  V30 4605 C 468.145 3.21405 4.9644 0
M  V30 4606 C 467.507 4.30519 5.57523 0
M  V30 4607 H 463.606 0.0559107 0.779999 0
M  V30 4608 H 466.19 0.741232 1.80038 0
M  V30 4609 H 464.361 -0.788533 3.80311 0
M  V30 4610 H 466.093 -0.634538 3.99695 0
M  V30 4611 H 462.848 1.30681 4.55214 0
M  V30 4612 H 463.272 3.66788 5.69031 0
M  V30 4613 H 467.914 1.28801 4.02704 0
M  V30 4614 H 465.632 5.166 6.2141 0
M  V30 4615 H 469.218 3.22509 4.8423 0
M  V30 4616 H 468.098 5.13873 5.92371 0
M  V30 4617 N 465.601 -1.54893 0.290851 0
M  V30 4618 C 466.564 -2.21824 -0.576784 0
M  V30 4619 C 467.564 -1.20104 -1.06919 0
M  V30 4620 O 468.754 -1.44906 -0.966843 0
M  V30 4621 C 465.886 -2.89662 -1.79747 0
M  V30 4622 H 467.079 -2.99899 0.00784051 0
M  V30 4623 H 464.632 -1.56245 0.0415934 0
M  V30 4624 H 465.367 -2.15639 -2.42219 0
M  V30 4625 H 465.152 -3.64219 -1.45214 0
M  V30 4626 H 466.642 -3.4075 -2.4141 0
M  V30 4627 N 467.08 -0.0183926 -1.57589 0
M  V30 4628 C 468.357 0.700621 -1.82622 0
M  V30 4629 C 468.737 1.90951 -0.90005 0
M  V30 4630 O 468.085 2.28452 0.0469145 0
M  V30 4631 C 468.295 1.08899 -3.31575 0
M  V30 4632 C 469.643 1.48514 -3.9778 0
M  V30 4633 O 470.667 1.18227 -3.36007 0
M  V30 4634 O 469.526 2.04903 -5.06633 0
M  V30 4635 H 466.62 0.342743 -0.752633 0
M  V30 4636 H 469.166 -0.0452548 -1.6964 0
M  V30 4637 H 467.938 0.228113 -3.90635 0
M  V30 4638 H 467.561 1.89338 -3.49624 0
M  V30 4639 N 468.558 1.5553 0.254621 0
M  V30 4640 C 469.786 1.81046 1.00149 0
M  V30 4641 C 470.201 0.593047 1.79244 0
M  V30 4642 O 469.558 -0.438196 1.77161 0
M  V30 4643 C 469.609 3.04684 1.94551 0
M  V30 4644 O 469.33 4.21725 1.18658 0
M  V30 4645 C 470.831 3.42943 2.80901 0
M  V30 4646 H 468.051 0.602653 0.295044 0
M  V30 4647 H 470.595 2.02576 0.279842 0
M  V30 4648 H 468.75 2.85226 2.62154 0
M  V30 4649 H 469.164 4.91746 1.82445 0
M  V30 4650 H 470.638 4.32576 3.42902 0
M  V30 4651 H 471.115 2.63176 3.51617 0
M  V30 4652 H 471.721 3.64724 2.18762 0
M  V30 4653 N 470.036 -0.519951 1.48776 0
M  V30 4654 C 470.984 -1.64443 1.64503 0
M  V30 4655 C 471.978 -1.61501 0.511248 0
M  V30 4656 O 473.184 -1.66238 0.690294 0
M  V30 4657 H 469.559 -0.544776 0.518385 0
M  V30 4658 H 471.53 -1.48325 2.58925 0
M  V30 4659 C 470.279 -3.02673 1.71127 0
M  V30 4660 H 469.602 -3.05635 2.57735 0
M  V30 4661 H 471.042 -3.80941 1.86172 0
M  V30 4662 C 469.501 -3.33854 0.452032 0
M  V30 4663 O 470.031 -3.99385 -0.430678 0
M  V30 4664 N 468.237 -2.88825 0.32069 0
M  V30 4665 H 467.784 -2.35674 1.03998 0
M  V30 4666 H 467.742 -3.10056 -0.520814 0
M  V30 4667 N 471.514 -1.37532 -0.769588 0
M  V30 4668 C 472.791 -1.23392 -1.51768 0
M  V30 4669 C 473.171 0.17157 -2.10402 0
M  V30 4670 O 472.519 1.17943 -1.95708 0
M  V30 4671 C 472.729 -2.33163 -2.59685 0
M  V30 4672 C 474.077 -2.70809 -3.27028 0
M  V30 4673 O 475.101 -2.32355 -2.69981 0
M  V30 4674 O 473.96 -3.37066 -4.30173 0
M  V30 4675 H 471.054 -0.481617 -0.67229 0
M  V30 4676 H 473.6 -1.49318 -0.806368 0
M  V30 4677 H 472.372 -3.27273 -2.14494 0
M  V30 4678 H 471.995 -2.08713 -3.38415 0
M  V30 4679 N 472.992 0.995999 -1.22138 0
M  V30 4680 C 474.241 1.72928 -1.03821 0
M  V30 4681 C 474.554 1.90872 0.427444 0
M  V30 4682 O 475.76 2.61496 0.730212 0
M  V30 4683 C 474.216 3.11124 -1.80913 0
M  V30 4684 C 473.824 3.01122 -3.31707 0
M  V30 4685 C 475.568 3.8852 -1.71035 0
M  V30 4686 C 473.475 4.34453 -4.01253 0
M  V30 4687 H 472.405 0.648376 -0.384869 0
M  V30 4688 H 475.056 1.11213 -1.45959 0
M  V30 4689 H 473.438 3.73503 -1.31573 0
M  V30 4690 H 474.612 2.47926 -3.88419 0
M  V30 4691 H 472.927 2.3721 -3.42228 0
M  V30 4692 H 475.524 4.872 -2.20318 0
M  V30 4693 H 475.867 4.1087 -0.670196 0
M  V30 4694 H 476.4 3.32812 -2.17902 0
M  V30 4695 H 473.139 4.17303 -5.05508 0
M  V30 4696 H 472.659 4.87574 -3.49331 0
M  V30 4697 H 474.338 5.03215 -4.06674 0
M  V30 4698 N 474.47 1.03057 1.19235 0
M  V30 4699 C 475.719 0.72326 1.88287 0
M  V30 4700 C 476.032 -0.751333 1.80594 0
M  V30 4701 O 477.238 -1.17176 2.44912 0
M  V30 4702 C 475.694 1.24338 3.3774 0
M  V30 4703 C 475.302 2.74587 3.53986 0
M  V30 4704 C 477.046 1.01213 4.12257 0
M  V30 4705 C 474.953 3.20009 4.97341 0
M  V30 4706 H 473.883 0.266848 0.705201 0
M  V30 4707 H 476.534 1.24509 1.34795 0
M  V30 4708 H 474.916 0.649457 3.90638 0
M  V30 4709 H 476.09 3.39649 3.11408 0
M  V30 4710 H 474.405 2.9601 2.9286 0
M  V30 4711 H 477.002 1.32675 5.17978 0
M  V30 4712 H 477.345 -0.051001 4.16269 0
M  V30 4713 H 477.878 1.57014 3.65501 0
M  V30 4714 H 474.617 4.25659 4.98493 0
M  V30 4715 H 474.137 2.59676 5.40674 0
M  V30 4716 H 475.816 3.13447 5.66003 0
M  V30 4717 N 475.948 -1.35272 0.808662 0
M  V30 4718 C 477.197 -1.97963 0.386483 0
M  V30 4719 C 477.51 -1.64866 -1.05255 0
M  V30 4720 O 478.716 -2.20937 -1.57794 0
M  V30 4721 C 477.172 -3.54162 0.640096 0
M  V30 4722 C 476.78 -3.96166 2.0918 0
M  V30 4723 C 478.524 -4.23553 0.283376 0
M  V30 4724 C 476.431 -5.4522 2.29106 0
M  V30 4725 H 475.361 -0.740742 0.140774 0
M  V30 4726 H 478.012 -1.5431 0.993012 0
M  V30 4727 H 476.394 -3.95983 -0.0364117 0
M  V30 4728 H 477.568 -3.65491 2.80629 0
M  V30 4729 H 475.883 -3.3967 2.40859 0
M  V30 4730 H 478.48 -5.33124 0.410273 0
M  V30 4731 H 478.823 -4.09105 -0.770659 0
M  V30 4732 H 479.356 -3.8716 0.913884 0
M  V30 4733 H 476.095 -5.64638 3.32962 0
M  V30 4734 H 475.615 -5.77457 1.62184 0
M  V30 4735 H 477.294 -6.1171 2.1076 0
M  V30 4736 N 477.426 -0.562348 -1.47226 0
M  V30 4737 C 478.356 0.170627 -2.32876 0
M  V30 4738 C 479.337 0.903748 -1.44106 0
M  V30 4739 O 480.522 0.883206 -1.72954 0
M  V30 4740 C 477.652 1.19786 -3.25989 0
M  V30 4741 C 476.606 0.580875 -4.2404 0
M  V30 4742 C 475.932 1.71311 -5.06514 0
M  V30 4743 C 477.232 -0.468714 -5.20193 0
M  V30 4744 H 478.926 -0.544441 -2.94408 0
M  V30 4745 H 476.472 -0.263271 -1.41573 0
M  V30 4746 H 478.425 1.71884 -3.84752 0
M  V30 4747 H 477.149 1.94294 -2.62521 0
M  V30 4748 H 475.808 0.0811538 -3.6651 0
M  V30 4749 H 475.456 2.44736 -4.39447 0
M  V30 4750 H 475.156 1.30604 -5.72902 0
M  V30 4751 H 476.68 2.23725 -5.68137 0
M  V30 4752 H 478.094 -0.0336028 -5.7329 0
M  V30 4753 H 476.491 -0.794957 -5.94811 0
M  V30 4754 H 477.561 -1.36269 -4.65359 0
M  V30 4755 N 478.904 1.54736 -0.299062 0
M  V30 4756 C 480.134 2.04215 0.312992 0
M  V30 4757 C 480.542 1.17596 1.48215 0
M  V30 4758 O 479.885 0.193835 1.82674 0
M  V30 4759 C 479.947 3.49696 0.833862 0
M  V30 4760 C 479.611 4.56518 -0.20977 0
M  V30 4761 C 480.608 5.09442 -1.03756 0
M  V30 4762 C 478.293 5.01073 -0.35091 0
M  V30 4763 C 480.287 6.05459 -1.99244 0
M  V30 4764 C 477.974 5.9691 -1.30924 0
M  V30 4765 C 478.972 6.48987 -2.1285 0
M  V30 4766 O 478.66 7.42947 -3.07059 0
M  V30 4767 H 478.392 0.672128 0.0722494 0
M  V30 4768 H 480.946 2.00718 -0.436043 0
M  V30 4769 H 479.176 3.5051 1.63339 0
M  V30 4770 H 480.865 3.82381 1.36159 0
M  V30 4771 H 481.631 4.75816 -0.939376 0
M  V30 4772 H 477.51 4.60168 0.276813 0
M  V30 4773 H 481.054 6.46031 -2.63229 0
M  V30 4774 H 476.951 6.29953 -1.40815 0
M  V30 4775 H 477.719 7.60743 -3.02015 0
M  V30 4776 N 480.382 0.0267497 1.57577 0
M  V30 4777 C 481.793 -0.512413 1.79531 0
M  V30 4778 C 482.144 -1.72391 0.936791 0
M  V30 4779 O 481.269 -2.15903 0.146543 0
M  V30 4780 C 481.864 -0.936378 3.25603 0
M  V30 4781 C 480.423 -1.42067 3.4856 0
M  V30 4782 C 479.57 -0.384278 2.74624 0
M  V30 4783 H 482.521 0.252797 1.56674 0
M  V30 4784 H 482.542 -1.80088 3.35184 0
M  V30 4785 H 482.054 -0.0544332 3.88062 0
M  V30 4786 H 480.155 -2.32262 2.9135 0
M  V30 4787 H 480.268 -1.42968 4.57271 0
M  V30 4788 H 478.632 -0.851855 2.40032 0
M  V30 4789 H 479.415 0.489159 3.39797 0
M  V30 4790 N 481.861 -1.55662 -0.24637 0
M  V30 4791 C 482.793 -1.86811 -1.32794 0
M  V30 4792 C 483.806 -0.754413 -1.44265 0
M  V30 4793 O 484.995 -1.03253 -1.45606 0
M  V30 4794 C 482.095 -2.0397 -2.70646 0
M  V30 4795 C 481.268 -3.34832 -2.81436 0
M  V30 4796 C 480.327 -3.41727 -4.00136 0
M  V30 4797 O 479.353 -4.14934 -3.89639 0
M  V30 4798 N 480.555 -2.71058 -5.1333 0
M  V30 4799 H 483.32 -2.80174 -1.06409 0
M  V30 4800 H 480.881 -1.55906 -0.43647 0
M  V30 4801 H 482.873 -2.05924 -3.48393 0
M  V30 4802 H 481.443 -1.1735 -2.89738 0
M  V30 4803 H 480.663 -3.4519 -1.90361 0
M  V30 4804 H 481.951 -4.21085 -2.85595 0
M  V30 4805 H 481.349 -2.11314 -5.2475 0
M  V30 4806 H 479.906 -2.78704 -5.89209 0
M  V30 4807 N 483.339 0.512053 -1.4905 0
M  V30 4808 C 484.302 1.59704 -1.64399 0
M  V30 4809 C 485.302 1.52285 -0.516317 0
M  V30 4810 O 486.492 1.55635 -0.782527 0
M  V30 4811 C 483.624 2.9935 -1.63102 0
M  V30 4812 H 484.817 1.47428 -2.61161 0
M  V30 4813 H 482.37 0.735469 -1.37915 0
M  V30 4814 H 483.105 3.17116 -0.678836 0
M  V30 4815 H 482.89 3.06144 -2.44986 0
M  V30 4816 H 484.38 3.782 -1.77072 0
M  V30 4817 N 484.817 1.37938 0.762283 0
M  V30 4818 C 486.063 1.33866 1.52341 0
M  V30 4819 C 486.396 -0.0738961 1.94059 0
M  V30 4820 O 485.671 -1.03326 1.64785 0
M  V30 4821 C 485.954 2.28644 2.78197 0
M  V30 4822 C 485.807 3.78722 2.42672 0
M  V30 4823 C 487.126 2.21702 3.80179 0
M  V30 4824 H 484.245 0.487593 0.55265 0
M  V30 4825 H 486.887 1.68717 0.873767 0
M  V30 4826 H 485.037 1.99055 3.33631 0
M  V30 4827 H 486.709 4.18948 1.93081 0
M  V30 4828 H 484.952 3.96827 1.75244 0
M  V30 4829 H 485.623 4.40486 3.3268 0
M  V30 4830 H 488.099 2.47805 3.34263 0
M  V30 4831 H 486.975 2.90143 4.65949 0
M  V30 4832 H 487.236 1.21301 4.25133 0
M  V30 4833 N 486.295 -0.989507 1.22664 0
M  V30 4834 C 487.258 -2.06183 1.00106 0
M  V30 4835 C 488.258 -1.60765 -0.0337726 0
M  V30 4836 O 489.448 -1.72989 0.205072 0
M  V30 4837 C 486.58 -3.37021 0.51279 0
M  V30 4838 H 487.773 -2.27629 1.95256 0
M  V30 4839 H 485.326 -1.16158 1.0458 0
M  V30 4840 H 486.061 -3.21261 -0.442917 0
M  V30 4841 H 485.846 -3.71323 1.25942 0
M  V30 4842 H 487.336 -4.1591 0.375315 0
M  V30 4843 N 487.773 -1.03688 -1.18687 0
M  V30 4844 C 489.05 -0.652397 -1.84399 0
M  V30 4845 C 489.43 0.868386 -1.92412 0
M  V30 4846 O 488.778 1.76832 -1.44716 0
M  V30 4847 C 488.988 -1.3238 -3.22919 0
M  V30 4848 C 490.336 -1.45216 -3.98996 0
M  V30 4849 O 491.36 -1.2816 -3.32345 0
M  V30 4850 O 490.219 -1.72975 -5.18403 0
M  V30 4851 H 487.313 -0.227793 -0.795009 0
M  V30 4852 H 489.859 -1.13553 -1.2611 0
M  V30 4853 H 488.631 -2.36202 -3.11968 0
M  V30 4854 H 488.254 -0.829039 -3.88861 0
M  V30 4855 N 489.251 1.34841 -0.815825 0
M  V30 4856 C 490.199 2.31549 -0.220888 0
M  V30 4857 C 491.193 1.5707 0.634457 0
M  V30 4858 O 492.399 1.72125 0.526589 0
M  V30 4859 H 488.774 0.750153 -0.0526782 0
M  V30 4860 H 490.745 2.7926 -1.05149 0
M  V30 4861 C 489.494 3.42335 0.608427 0
M  V30 4862 H 488.817 3.9978 -0.0404121 0
M  V30 4863 H 490.257 4.12258 0.990931 0
M  V30 4864 C 488.716 2.86173 1.77782 0
M  V30 4865 O 489.246 2.80474 2.87571 0
M  V30 4866 N 487.452 2.43093 1.59229 0
M  V30 4867 H 486.999 2.47928 0.699237 0
M  V30 4868 H 486.957 2.05866 2.37627 0
M  V30 4869 N 490.729 0.570148 1.46925 0
M  V30 4870 C 491.957 0.0561966 2.06824 0
M  V30 4871 C 492.372 -1.24326 1.42086 0
M  V30 4872 O 491.729 -1.74882 0.521794 0
M  V30 4873 C 491.78 -0.129517 3.61268 0
M  V30 4874 O 491.501 1.1185 4.23581 0
M  V30 4875 C 493.002 -0.679266 4.38065 0
M  V30 4876 H 490.222 0.0517261 0.669003 0
M  V30 4877 H 492.766 0.787243 1.8874 0
M  V30 4878 H 490.921 -0.810739 3.78822 0
M  V30 4879 H 491.335 0.924375 5.1629 0
M  V30 4880 H 492.809 -0.758445 5.46765 0
M  V30 4881 H 493.286 -1.69346 4.05239 0
M  V30 4882 H 493.892 -0.0333237 4.25287 0
M  V30 4883 N 492.207 -1.54576 0.307264 0
M  V30 4884 C 493.14 -2.19946 -0.608195 0
M  V30 4885 C 494.118 -1.17096 -1.12815 0
M  V30 4886 O 495.302 -1.45766 -1.19518 0
M  V30 4887 C 492.429 -2.84826 -1.8328 0
M  V30 4888 C 491.475 -4.01256 -1.44554 0
M  V30 4889 S 492.308 -5.33197 -0.49612 0
M  V30 4890 C 493.464 -6.01563 -1.72838 0
M  V30 4891 H 493.697 -2.97253 -0.0528544 0
M  V30 4892 H 491.23 -1.54129 0.0913837 0
M  V30 4893 H 493.188 -3.22832 -2.53554 0
M  V30 4894 H 491.849 -2.07353 -2.35931 0
M  V30 4895 H 491.042 -4.45457 -2.35762 0
M  V30 4896 H 490.644 -3.6484 -0.822671 0
M  V30 4897 H 492.936 -6.22751 -2.6681 0
M  V30 4898 H 493.879 -6.9552 -1.32882 0
M  V30 4899 H 494.287 -5.31279 -1.90795 0
M  V30 4900 N 493.685 -0.035106 -1.57561 0
M  V30 4901 C 494.635 0.954034 -2.0708 0
M  V30 4902 C 495.619 1.2818 -0.972558 0
M  V30 4903 O 496.811 1.26691 -1.23606 0
M  V30 4904 C 493.94 2.23442 -2.60631 0
M  V30 4905 C 493.026 1.93475 -3.77396 0
M  V30 4906 N 493.417 1.33802 -4.87781 0
M  V30 4907 C 491.715 2.23434 -3.85996 0
M  V30 4908 C 492.416 1.21103 -5.68954 0
M  V30 4909 N 491.392 1.70855 -5.16052 0
M  V30 4910 H 495.194 0.487731 -2.89825 0
M  V30 4911 H 492.708 0.169759 -1.6151 0
M  V30 4912 H 494.705 2.95183 -2.94402 0
M  V30 4913 H 493.365 2.70693 -1.79319 0
M  V30 4914 H 494.376 1.01227 -5.07911 0
M  V30 4915 H 491.053 2.73317 -3.15601 0
M  V30 4916 H 492.443 0.749105 -6.67711 0
M  V30 4917 N 495.163 1.55791 0.238111 0
M  V30 4918 C 496.391 1.82098 0.982233 0
M  V30 4919 C 496.806 0.612025 1.78605 0
M  V30 4920 O 496.163 -0.419381 1.77616 0
M  V30 4921 C 496.214 3.0673 1.91309 0
M  V30 4922 O 495.935 4.2296 1.14179 0
M  V30 4923 C 497.436 3.45903 2.77248 0
M  V30 4924 H 494.656 0.605748 0.288635 0
M  V30 4925 H 497.2 2.02862 0.258341 0
M  V30 4926 H 495.355 2.87991 2.59114 0
M  V30 4927 H 495.769 4.93653 1.7722 0
M  V30 4928 H 497.243 4.36189 3.38295 0
M  V30 4929 H 497.72 2.66891 3.48806 0
M  V30 4930 H 498.326 3.67024 2.14881 0
M  V30 4931 N 496.642 -0.504142 1.49319 0
M  V30 4932 C 497.891 -1.25507 1.57895 0
M  V30 4933 C 498.204 -1.93735 0.269433 0
M  V30 4934 O 499.41 -2.70492 0.233706 0
M  V30 4935 C 497.866 -2.27869 2.78574 0
M  V30 4936 C 497.474 -1.65594 4.16272 0
M  V30 4937 C 499.218 -3.0381 2.96479 0
M  V30 4938 C 497.125 -2.66048 5.28178 0
M  V30 4939 H 496.055 -0.47212 0.587894 0
M  V30 4940 H 498.706 -0.52931 1.757 0
M  V30 4941 H 497.088 -3.03594 2.54257 0
M  V30 4942 H 498.262 -0.958826 4.50714 0
M  V30 4943 H 496.577 -1.02055 4.037 0
M  V30 4944 H 499.174 -3.78925 3.77253 0
M  V30 4945 H 499.517 -3.61235 2.06918 0
M  V30 4946 H 500.05 -2.352 3.20821 0
M  V30 4947 H 496.789 -2.13408 6.19788 0
M  V30 4948 H 496.309 -3.34009 4.98195 0
M  V30 4949 H 497.988 -3.28536 5.57381 0
M  V30 4950 N 498.12 -1.38341 -0.754957 0
M  V30 4951 C 499.366 -1.35678 -1.51536 0
M  V30 4952 C 499.721 0.0533985 -1.92326 0
M  V30 4953 O 499.014 1.01573 -1.6246 0
M  V30 4954 C 499.208 -2.2452 -2.78075 0
M  V30 4955 C 499.037 -3.74035 -2.49655 0
M  V30 4956 C 497.807 -4.43066 -2.42942 0
M  V30 4957 C 500.005 -4.665 -2.16523 0
M  V30 4958 N 497.987 -5.78026 -2.06783 0
M  V30 4959 C 499.358 -5.89962 -1.90644 0
M  V30 4960 C 501.413 -4.54718 -2.02821 0
M  V30 4961 C 500.116 -7.0296 -1.52444 0
M  V30 4962 C 502.142 -5.67618 -1.66023 0
M  V30 4963 C 501.504 -6.90141 -1.41015 0
M  V30 4964 H 497.603 -0.551764 -0.554148 0
M  V30 4965 H 500.187 -1.73716 -0.879258 0
M  V30 4966 H 498.358 -1.88673 -3.39496 0
M  V30 4967 H 500.09 -2.12993 -3.44116 0
M  V30 4968 H 496.845 -3.96264 -2.59367 0
M  V30 4969 H 497.269 -6.49394 -1.91353 0
M  V30 4970 H 501.911 -3.60546 -2.20831 0
M  V30 4971 H 499.629 -7.97051 -1.33174 0
M  V30 4972 H 503.215 -5.6048 -1.56055 0
M  V30 4973 H 502.095 -7.76021 -1.12965 0
M  V30 4974 N 499.598 0.982988 -1.23187 0
M  V30 4975 C 500.826 1.75921 -1.08901 0
M  V30 4976 C 501.241 1.85341 0.359719 0
M  V30 4977 O 500.598 1.33072 1.24892 0
M  V30 4978 C 500.649 3.18742 -1.70545 0
M  V30 4979 O 500.37 3.09814 -3.09753 0
M  V30 4980 C 501.871 4.1277 -1.61667 0
M  V30 4981 H 499.091 0.552166 -0.381252 0
M  V30 4982 H 501.635 1.23516 -1.62985 0
M  V30 4983 H 499.79 3.68182 -1.20501 0
M  V30 4984 H 500.204 3.99703 -3.39614 0
M  V30 4985 H 501.678 5.10697 -2.09506 0
M  V30 4986 H 502.155 4.3542 -0.575009 0
M  V30 4987 H 502.761 3.69232 -2.11064 0
M  V30 4988 N 501.076 1.04316 1.18135 0
M  V30 4989 C 502.324 0.746542 1.87806 0
M  V30 4990 C 502.645 -0.728082 1.80898 0
M  V30 4991 O 501.915 -1.52554 1.22899 0
M  V30 4992 H 500.495 0.273157 0.695265 0
M  V30 4993 H 503.157 1.32044 1.43354 0
M  V30 4994 H 502.253 1.05362 2.93778 0
M  V30 4995 N 502.554 -1.34406 0.822964 0
M  V30 4996 C 503.487 -2.27407 0.190124 0
M  V30 4997 C 504.465 -1.4889 -0.653486 0
M  V30 4998 O 505.649 -1.78109 -0.617216 0
M  V30 4999 C 502.776 -3.3064 -0.734477 0
M  V30 5000 C 501.822 -4.26488 0.0316099 0
M  V30 5001 S 502.655 -5.17445 1.3788 0
M  V30 5002 C 503.811 -6.24214 0.45907 0
M  V30 5003 H 504.044 -2.80733 0.978586 0
M  V30 5004 H 501.577 -1.41455 0.618866 0
M  V30 5005 H 503.535 -3.90607 -1.26238 0
M  V30 5006 H 502.196 -2.76161 -1.49646 0
M  V30 5007 H 501.389 -4.9951 -0.671285 0
M  V30 5008 H 500.991 -3.70775 0.490066 0
M  V30 5009 H 503.283 -6.76599 -0.349357 0
M  V30 5010 H 504.226 -6.98551 1.15896 0
M  V30 5011 H 504.634 -5.6448 0.0474825 0
M  V30 5012 N 504.032 -0.577932 -1.46621 0
M  V30 5013 C 505.443 -0.150071 -1.86096 0
M  V30 5014 C 505.794 1.28563 -1.48209 0
M  V30 5015 O 504.919 1.97036 -0.894754 0
M  V30 5016 C 505.514 -0.265576 -3.37758 0
M  V30 5017 C 504.073 0.10738 -3.76247 0
M  V30 5018 C 503.22 -0.603711 -2.70649 0
M  V30 5019 H 506.171 -0.786438 -1.37844 0
M  V30 5020 H 506.192 0.510352 -3.77062 0
M  V30 5021 H 505.704 -1.3106 -3.65301 0
M  V30 5022 H 503.805 1.15272 -3.54321 0
M  V30 5023 H 503.918 -0.26561 -4.78363 0
M  V30 5024 H 502.282 -0.0444884 -2.54661 0
M  V30 5025 H 503.065 -1.65029 -3.01032 0
M  V30 5026 N 505.51 1.54411 -0.315457 0
M  V30 5027 C 506.44 2.27002 0.547039 0
M  V30 5028 C 507.421 1.27492 1.12605 0
M  V30 5029 O 508.606 1.5629 1.15269 0
M  V30 5030 C 505.736 3.02171 1.71201 0
M  V30 5031 C 504.69 4.0895 1.26268 0
M  V30 5032 C 504.016 4.71915 2.51396 0
M  V30 5033 C 505.316 5.20891 0.383419 0
M  V30 5034 H 507.01 2.99343 -0.0584517 0
M  V30 5035 H 504.556 1.4397 -0.0295527 0
M  V30 5036 H 506.509 3.51681 2.32161 0
M  V30 5037 H 505.233 2.27433 2.34397 0
M  V30 5038 H 503.892 3.60312 0.676062 0
M  V30 5039 H 503.54 3.93801 3.12937 0
M  V30 5040 H 503.24 5.44039 2.22026 0
M  V30 5041 H 504.764 5.24195 3.13133 0
M  V30 5042 H 506.178 5.66206 0.899082 0
M  V30 5043 H 504.575 5.99821 0.182857 0
M  V30 5044 H 505.645 4.81324 -0.587821 0
M  V30 5045 N 506.988 0.0434614 1.5754 0
M  V30 5046 C 508.399 -0.493343 1.80064 0
M  V30 5047 C 508.75 -1.71388 0.955023 0
M  V30 5048 O 507.875 -2.15736 0.169434 0
M  V30 5049 C 508.47 -0.90179 3.26578 0
M  V30 5050 C 507.029 -1.38362 3.50047 0
M  V30 5051 C 506.176 -0.355129 2.75017 0
M  V30 5052 H 509.127 0.2694 1.56397 0
M  V30 5053 H 509.148 -1.76523 3.37075 0
M  V30 5054 H 508.66 -0.013271 3.88098 0
M  V30 5055 H 506.761 -2.29159 2.93798 0
M  V30 5056 H 506.874 -1.3811 4.58762 0
M  V30 5057 H 505.238 -0.826348 2.40922 0
M  V30 5058 H 506.021 0.525172 3.39259 0
M  V30 5059 N 508.466 -1.55915 -0.229846 0
M  V30 5060 C 509.414 -1.9258 -1.30444 0
M  V30 5061 C 510.408 -0.806839 -1.48951 0
M  V30 5062 O 511.614 -0.991606 -1.50224 0
M  V30 5063 H 507.989 -0.611878 -0.437161 0
M  V30 5064 H 509.96 -2.82264 -0.96797 0
M  V30 5065 C 508.709 -2.25171 -2.6494 0
M  V30 5066 H 508.032 -3.10782 -2.51504 0
M  V30 5067 H 509.472 -2.54716 -3.38963 0
M  V30 5068 C 507.931 -1.07394 -3.19324 0
M  V30 5069 O 508.461 -0.330759 -4.00336 0
M  V30 5070 N 506.667 -0.859984 -2.77584 0
M  V30 5071 H 506.214 -1.46605 -2.11813 0
M  V30 5072 H 506.172 -0.0736671 -3.14314 0
M  V30 5073 N 509.944 0.496216 -1.49584 0
M  V30 5074 C 511.355 1.07765 -1.52459 0
M  V30 5075 C 511.706 1.93679 -0.31353 0
M  V30 5076 O 510.831 2.08588 0.576186 0
M  V30 5077 C 511.426 1.96111 -2.76271 0
M  V30 5078 C 509.985 2.49409 -2.81908 0
M  V30 5079 C 509.132 1.27142 -2.46435 0
M  V30 5080 H 512.083 0.279914 -1.56212 0
M  V30 5081 H 512.104 2.80862 -2.56704 0
M  V30 5082 H 511.616 1.33555 -3.64396 0
M  V30 5083 H 509.717 3.1559 -1.98074 0
M  V30 5084 H 509.83 2.86234 -3.84196 0
M  V30 5085 H 508.194 1.59818 -1.98319 0
M  V30 5086 H 508.977 0.662866 -3.3684 0
M  V30 5087 N 511.423 1.38739 0.74761 0
M  V30 5088 C 512.371 1.36573 1.88283 0
M  V30 5089 C 513.365 0.250712 1.67534 0
M  V30 5090 O 514.571 0.420073 1.7503 0
M  V30 5091 H 510.946 0.42619 0.619569 0
M  V30 5092 H 512.917 2.32356 1.87226 0
M  V30 5093 C 511.666 1.21361 3.25832 0
M  V30 5094 H 510.989 2.06424 3.42388 0
M  V30 5095 H 512.429 1.23901 4.05493 0
M  V30 5096 C 510.888 -0.0790099 3.36807 0
M  V30 5097 O 511.418 -1.05385 3.8763 0
M  V30 5098 N 509.624 -0.13785 2.90273 0
M  V30 5099 H 509.171 0.656128 2.49104 0
M  V30 5100 H 509.129 -1.00228 2.97996 0
M  V30 5101 N 512.901 -0.976442 1.23707 0
M  V30 5102 C 514.149 -1.71487 1.06942 0
M  V30 5103 C 514.47 -1.9098 -0.393897 0
M  V30 5104 O 513.74 -1.48128 -1.28198 0
M  V30 5105 H 512.32 -0.635425 0.392739 0
M  V30 5106 H 514.982 -1.17515 1.55487 0
M  V30 5107 H 514.078 -2.70286 1.56051 0
M  V30 5108 N 514.379 -1.04941 -1.1758 0
M  V30 5109 C 515.619 -0.766996 -1.89464 0
M  V30 5110 C 515.983 0.693123 -1.79053 0
M  V30 5111 O 517.184 1.08953 -2.45729 0
M  V30 5112 C 515.455 -1.23108 -3.35528 0
M  V30 5113 S 517.014 -1.07565 -4.25412 0
M  V30 5114 H 513.832 -0.278616 -0.654136 0
M  V30 5115 H 516.434 -1.34352 -1.4202 0
M  V30 5116 H 515.138 -2.28896 -3.40639 0
M  V30 5117 H 514.669 -0.648724 -3.88014 0
M  V30 5118 H 516.684 0.00169467 -4.962 0
M  V30 5119 N 515.857 1.33968 -0.830081 0
M  V30 5120 C 517.103 1.98773 -0.431394 0
M  V30 5121 C 517.458 1.64598 0.99626 0
M  V30 5122 O 516.751 0.911022 1.68555 0
M  V30 5123 C 516.945 3.52679 -0.57898 0
M  V30 5124 C 516.774 4.01807 -2.01943 0
M  V30 5125 C 515.544 4.30062 -2.65282 0
M  V30 5126 C 517.742 4.18663 -2.98707 0
M  V30 5127 N 515.724 4.65272 -4.00493 0
M  V30 5128 C 517.095 4.57133 -4.18843 0
M  V30 5129 C 519.15 4.00929 -2.95229 0
M  V30 5130 C 517.853 4.79723 -5.35965 0
M  V30 5131 C 519.879 4.2469 -4.11573 0
M  V30 5132 C 519.241 4.63454 -5.30462 0
M  V30 5133 H 515.34 0.75435 -0.206107 0
M  V30 5134 H 517.924 1.62247 -1.07629 0
M  V30 5135 H 516.095 3.88383 0.0360632 0
M  V30 5136 H 517.827 4.04412 -0.152596 0
M  V30 5137 H 514.582 4.21231 -2.16475 0
M  V30 5138 H 515.006 4.87101 -4.70172 0
M  V30 5139 H 519.648 3.70082 -2.04448 0
M  V30 5140 H 517.366 5.09434 -6.27297 0
M  V30 5141 H 520.952 4.12497 -4.10289 0
M  V30 5142 H 519.832 4.81476 -6.18992 0
M  V30 5143 N 517.335 0.585699 1.46312 0
M  V30 5144 C 518.612 0.00542031 1.95599 0
M  V30 5145 C 518.992 -1.45619 1.52834 0
M  V30 5146 O 518.34 -2.14759 0.780446 0
M  V30 5147 C 518.55 0.180601 3.48532 0
M  V30 5148 C 519.898 0.049979 4.24571 0
M  V30 5149 O 520.922 0.109589 3.56031 0
M  V30 5150 O 519.781 -0.0832226 5.46437 0
M  V30 5151 H 516.875 -0.0481281 0.825598 0
M  V30 5152 H 519.421 0.654227 1.56582 0
M  V30 5153 H 518.193 1.19657 3.72556 0
M  V30 5154 H 517.816 -0.504498 3.94386 0
M  V30 5155 N 518.813 -1.54241 0.323641 0
M  V30 5156 C 520.059 -2.01572 -0.272089 0
M  V30 5157 C 520.414 -1.20774 -1.49771 0
M  V30 5158 O 519.707 -0.281821 -1.89516 0
M  V30 5159 C 519.901 -3.5129 -0.658031 0
M  V30 5160 C 519.73 -4.46582 0.528645 0
M  V30 5161 C 518.5 -4.94737 1.02777 0
M  V30 5162 C 520.698 -4.95416 1.38086 0
M  V30 5163 N 518.68 -5.73933 2.17885 0
M  V30 5164 C 520.051 -5.72537 2.3791 0
M  V30 5165 C 522.106 -4.77559 1.40861 0
M  V30 5166 C 520.809 -6.33702 3.40314 0
M  V30 5167 C 522.835 -5.39559 2.42136 0
M  V30 5168 C 522.197 -6.16532 3.40688 0
M  V30 5169 H 518.296 -0.779425 -0.0634072 0
M  V30 5170 H 520.88 -1.8922 0.458697 0
M  V30 5171 H 519.051 -3.63888 -1.35795 0
M  V30 5172 H 520.783 -3.85388 -1.23524 0
M  V30 5173 H 517.538 -4.69796 0.599046 0
M  V30 5174 H 517.962 -6.18209 2.75947 0
M  V30 5175 H 522.604 -4.17611 0.660352 0
M  V30 5176 H 520.322 -6.9277 4.16047 0
M  V30 5177 H 523.908 -5.27659 2.45086 0
M  V30 5178 H 522.788 -6.63655 4.1777 0
M  V30 5179 N 520.291 -0.0518155 -1.57515 0
M  V30 5180 C 521.537 0.622745 -1.93002 0
M  V30 5181 C 521.87 1.70456 -0.930499 0
M  V30 5182 O 521.145 1.94452 0.0434086 0
M  V30 5183 C 521.428 1.21824 -3.38867 0
M  V30 5184 C 521.281 0.144434 -4.49568 0
M  V30 5185 C 522.6 2.12968 -3.8514 0
M  V30 5186 H 519.719 0.22491 -0.701844 0
M  V30 5187 H 522.361 -0.113711 -1.89659 0
M  V30 5188 H 520.511 1.8459 -3.41846 0
M  V30 5189 H 522.183 -0.48753 -4.58717 0
M  V30 5190 H 520.426 -0.527424 -4.30582 0
M  V30 5191 H 521.097 0.601127 -5.48717 0
M  V30 5192 H 523.573 1.60163 -3.8404 0
M  V30 5193 H 522.449 2.51578 -4.87852 0
M  V30 5194 H 522.71 3.03004 -3.21934 0
M  V30 5195 N 521.769 1.56035 0.221574 0
M  V30 5196 C 523.017 1.78693 0.944102 0
M  V30 5197 C 523.338 0.620317 1.8487 0
M  V30 5198 O 522.608 -0.362784 1.92512 0
M  V30 5199 H 521.188 0.659082 0.351597 0
M  V30 5200 H 523.85 1.93497 0.233435 0
M  V30 5201 H 522.946 2.70837 1.55093 0
M  V30 5202 N 523.247 -0.488276 1.49845 0
M  V30 5203 C 524.493 -1.24065 1.61182 0
M  V30 5204 C 524.848 -1.9004 0.300435 0
M  V30 5205 O 524.141 -1.78341 -0.700365 0
M  V30 5206 C 524.335 -2.32152 2.71735 0
M  V30 5207 C 524.164 -1.76778 4.13497 0
M  V30 5208 C 522.934 -1.57513 4.80123 0
M  V30 5209 C 525.132 -1.27242 4.98311 0
M  V30 5210 N 523.114 -0.972015 6.06156 0
M  V30 5211 C 524.485 -0.791457 6.14928 0
M  V30 5212 C 526.54 -1.15934 4.84214 0
M  V30 5213 C 525.243 -0.208593 7.18997 0
M  V30 5214 C 527.269 -0.590436 5.88445 0
M  V30 5215 C 526.631 -0.119767 7.04298 0
M  V30 5216 H 522.73 -0.443487 0.644083 0
M  V30 5217 H 525.314 -0.545551 1.86901 0
M  V30 5218 H 523.485 -2.99108 2.47768 0
M  V30 5219 H 525.217 -2.99187 2.72523 0
M  V30 5220 H 521.972 -1.82247 4.37131 0
M  V30 5221 H 522.396 -0.689367 6.73481 0
M  V30 5222 H 527.038 -1.5092 3.94947 0
M  V30 5223 H 524.756 0.153501 8.07954 0
M  V30 5224 H 528.342 -0.505548 5.79599 0
M  V30 5225 H 527.222 0.313568 7.83573 0
M  V30 5226 N 524.725 -1.39134 -0.740242 0
M  V30 5227 C 525.955 -1.39132 -1.52728 0
M  V30 5228 C 526.363 0.0173133 -1.89192 0
M  V30 5229 O 525.706 0.997715 -1.54244 0
M  V30 5230 C 525.768 -2.1952 -2.84695 0
M  V30 5231 C 525.432 -3.68203 -2.70695 0
M  V30 5232 C 526.429 -4.61401 -2.39593 0
M  V30 5233 C 524.114 -4.11724 -2.8773 0
M  V30 5234 C 526.108 -5.96102 -2.25701 0
M  V30 5235 C 523.795 -5.46503 -2.73456 0
M  V30 5236 C 524.793 -6.38506 -2.42486 0
M  V30 5237 O 524.481 -7.70803 -2.28295 0
M  V30 5238 H 524.213 -0.477263 -0.478744 0
M  V30 5239 H 526.767 -1.83504 -0.922799 0
M  V30 5240 H 524.997 -1.69888 -3.47383 0
M  V30 5241 H 526.686 -2.1176 -3.46284 0
M  V30 5242 H 527.452 -4.29079 -2.26088 0
M  V30 5243 H 523.331 -3.4045 -3.10829 0
M  V30 5244 H 526.875 -6.6788 -2.0145 0
M  V30 5245 H 522.772 -5.78417 -2.86538 0
M  V30 5246 H 523.54 -7.8147 -2.43405 0
M  V30 5247 N 526.204 0.969867 -1.24223 0
M  V30 5248 C 527.452 1.70918 -1.0785 0
M  V30 5249 C 527.773 1.91186 0.383763 0
M  V30 5250 O 527.043 1.48806 1.27411 0
M  V30 5251 H 525.623 0.633334 -0.396103 0
M  V30 5252 H 528.285 1.16689 -1.56108 0
M  V30 5253 H 527.381 2.69455 -1.57482 0
M  V30 5254 N 527.682 1.05563 1.17022 0
M  V30 5255 C 528.645 0.664098 2.19368 0
M  V30 5256 C 529.645 -0.286358 1.5823 0
M  V30 5257 O 530.835 -0.069728 1.7406 0
M  V30 5258 C 527.967 -0.0239932 3.40892 0
M  V30 5259 H 529.16 1.57 2.55521 0
M  V30 5260 H 526.713 0.849964 1.31169 0
M  V30 5261 H 527.448 -0.942988 3.10287 0
M  V30 5262 H 527.233 0.659351 3.86516 0
M  V30 5263 H 528.723 -0.283909 4.16634 0
M  V30 5264 N 529.16 -1.33526 0.837174 0
M  V30 5265 C 530.108 -2.31168 0.257698 0
M  V30 5266 C 531.102 -1.5806 -0.609388 0
M  V30 5267 O 532.308 -1.72941 -0.499139 0
M  V30 5268 H 528.683 -0.74922 0.0646058 0
M  V30 5269 H 530.654 -2.77552 1.09578 0
M  V30 5270 C 529.403 -3.4326 -0.553887 0
M  V30 5271 H 528.726 -3.99665 0.104008 0
M  V30 5272 H 530.166 -4.13782 -0.925219 0
M  V30 5273 C 528.625 -2.88965 -1.73207 0
M  V30 5274 O 529.155 -2.85013 -2.83073 0
M  V30 5275 N 527.361 -2.45596 -1.55342 0
M  V30 5276 H 526.908 -2.49009 -0.659705 0
M  V30 5277 H 526.866 -2.0962 -2.34322 0
M  V30 5278 N 530.638 -0.59345 -1.46 0
M  V30 5279 C 531.601 0.123538 -2.28867 0
M  V30 5280 C 532.601 0.808628 -1.38989 0
M  V30 5281 O 533.791 0.658945 -1.61256 0
M  V30 5282 C 530.923 1.1847 -3.19653 0
M  V30 5283 H 532.116 -0.604843 -2.93737 0
M  V30 5284 H 529.669 -0.351875 -1.52288 0
M  V30 5285 H 530.404 1.94431 -2.59552 0
M  V30 5286 H 530.189 0.69783 -3.8584 0
M  V30 5287 H 531.679 1.68726 -3.81997 0
M  V30 5288 N 532.116 1.54067 -0.331816 0
M  V30 5289 C 533.393 1.92915 0.322955 0
M  V30 5290 C 533.773 1.26225 1.69205 0
M  V30 5291 O 533.121 0.408919 2.24811 0
M  V30 5292 C 533.331 3.46619 0.406946 0
M  V30 5293 C 534.679 4.19386 0.663339 0
M  V30 5294 O 535.703 3.5282 0.489536 0
M  V30 5295 O 534.562 5.37288 0.999193 0
M  V30 5296 H 531.656 0.805808 0.186016 0
M  V30 5297 H 534.202 1.65342 -0.382135 0
M  V30 5298 H 532.974 3.87354 -0.554287 0
M  V30 5299 H 532.597 3.80324 1.15929 0
M  V30 5300 N 533.594 0.0601682 1.57485 0
M  V30 5301 C 534.526 -0.94047 2.09016 0
M  V30 5302 C 535.539 -1.26897 1.01985 0
M  V30 5303 O 536.728 -1.22819 1.29529 0
M  V30 5304 C 533.828 -2.25955 2.52582 0
M  V30 5305 C 533.001 -2.11163 3.83052 0
M  V30 5306 C 532.06 -3.26273 4.12835 0
M  V30 5307 O 531.086 -3.01779 4.82616 0
M  V30 5308 N 532.288 -4.51022 3.65458 0
M  V30 5309 H 535.053 -0.500578 2.9549 0
M  V30 5310 H 532.614 -0.125852 1.6141 0
M  V30 5311 H 534.606 -3.01846 2.69575 0
M  V30 5312 H 533.176 -2.61481 1.71308 0
M  V30 5313 H 532.396 -1.19808 3.75552 0
M  V30 5314 H 533.684 -1.98517 4.68475 0
M  V30 5315 H 533.082 -4.73811 3.09062 0
M  V30 5316 H 531.639 -5.23978 3.87673 0
M  V30 5317 N 535.072 -1.5615 -0.213296 0
M  V30 5318 C 536.318 -1.79812 -0.937849 0
M  V30 5319 C 536.651 -0.631201 -1.83656 0
M  V30 5320 O 535.926 0.369165 -1.90964 0
M  V30 5321 C 536.209 -3.13613 -1.76972 0
M  V30 5322 C 536.062 -4.40766 -0.89695 0
M  V30 5323 C 537.381 -3.43931 -2.7459 0
M  V30 5324 H 534.5 -0.654138 -0.339518 0
M  V30 5325 H 537.142 -1.88877 -0.20623 0
M  V30 5326 H 535.292 -3.06015 -2.39347 0
M  V30 5327 H 536.964 -4.60392 -0.289306 0
M  V30 5328 H 535.207 -4.33326 -0.202756 0
M  V30 5329 H 535.878 -5.30843 -1.51358 0
M  V30 5330 H 538.354 -3.5171 -2.22349 0
M  V30 5331 H 537.23 -4.38706 -3.29891 0
M  V30 5332 H 537.491 -2.6651 -3.52739 0
M  V30 5333 N 536.55 0.480323 -1.50102 0
M  V30 5334 C 537.798 1.23063 -1.60312 0
M  V30 5335 C 538.119 1.92659 -0.301226 0
M  V30 5336 O 537.389 1.83691 0.680753 0
M  V30 5337 H 535.969 0.457231 -0.590719 0
M  V30 5338 H 538.631 0.554893 -1.86834 0
M  V30 5339 H 537.727 1.9835 -2.40964 0
M  V30 5340 N 538.028 1.39524 0.732853 0
M  V30 5341 C 539.276 1.36594 1.48951 0
M  V30 5342 C 539.597 -0.0367507 1.94965 0
M  V30 5343 O 538.867 -0.988391 1.69138 0
M  V30 5344 H 537.447 0.502673 0.552566 0
M  V30 5345 H 540.109 1.74411 0.869869 0
M  V30 5346 H 539.205 2.03 2.3706 0
M  V30 5347 N 539.506 -0.963266 1.24736 0
M  V30 5348 C 540.752 -1.70933 1.09131 0
M  V30 5349 C 541.085 -1.90676 -0.368273 0
M  V30 5350 O 540.36 -1.47147 -1.27193 0
M  V30 5351 C 540.643 -3.09744 1.83658 0
M  V30 5352 C 540.496 -2.97465 3.37394 0
M  V30 5353 C 541.815 -4.09483 1.61282 0
M  V30 5354 H 538.934 -0.620398 0.397838 0
M  V30 5355 H 541.576 -1.12028 1.53459 0
M  V30 5356 H 539.726 -3.60031 1.4598 0
M  V30 5357 H 541.398 -2.54571 3.84696 0
M  V30 5358 H 539.641 -2.33576 3.65547 0
M  V30 5359 H 540.312 -3.95822 3.84745 0
M  V30 5360 H 542.788 -3.68073 1.94066 0
M  V30 5361 H 541.664 -5.04666 2.15878 0
M  V30 5362 H 541.925 -4.38639 0.552102 0
M  V30 5363 N 540.985 -1.06182 -1.16461 0
M  V30 5364 C 541.917 -0.629584 -2.20383 0
M  V30 5365 C 542.93 0.311834 -1.59786 0
M  V30 5366 O 544.119 0.103 -1.78203 0
M  V30 5367 C 541.219 0.0973695 -3.3876 0
M  V30 5368 C 540.392 -0.857252 -4.28917 0
M  V30 5369 C 539.451 -0.169749 -5.25926 0
M  V30 5370 O 538.477 -0.807044 -5.6345 0
M  V30 5371 N 539.679 1.08911 -5.70192 0
M  V30 5372 H 542.444 -1.52352 -2.58087 0
M  V30 5373 H 540.005 -0.944993 -1.31459 0
M  V30 5374 H 541.997 0.567676 -4.00699 0
M  V30 5375 H 540.567 0.893093 -2.99571 0
M  V30 5376 H 539.787 -1.50696 -3.64259 0
M  V30 5377 H 541.075 -1.50489 -4.86035 0
M  V30 5378 H 540.473 1.62703 -5.41797 0
M  V30 5379 H 539.03 1.50331 -6.34227 0
M  V30 5380 N 542.463 1.3308 -0.844243 0
M  V30 5381 C 543.396 2.27075 -0.226279 0
M  V30 5382 C 544.374 1.49911 0.629716 0
M  V30 5383 O 545.558 1.79068 0.588803 0
M  V30 5384 C 542.685 3.31767 0.681782 0
M  V30 5385 C 541.731 4.26384 -0.0994565 0
M  V30 5386 S 542.564 5.15186 -1.46094 0
M  V30 5387 C 543.72 6.23405 -0.558319 0
M  V30 5388 H 543.953 2.79141 -1.02312 0
M  V30 5389 H 541.486 1.40452 -0.641292 0
M  V30 5390 H 543.444 3.92566 1.20008 0
M  V30 5391 H 542.105 2.78507 1.45234 0
M  V30 5392 H 541.298 5.00514 0.591733 0
M  V30 5393 H 540.9 3.69949 -0.548991 0
M  V30 5394 H 543.192 6.77069 0.241672 0
M  V30 5395 H 544.135 6.96619 -1.26995 0
M  V30 5396 H 544.543 5.64333 -0.13728 0
M  V30 5397 N 543.941 0.601185 1.45683 0
M  V30 5398 C 544.904 -0.111398 2.28929 0
M  V30 5399 C 545.904 -0.801246 1.39416 0
M  V30 5400 O 547.094 -0.650383 1.61603 0
M  V30 5401 C 544.226 -1.16773 3.20276 0
M  V30 5402 H 545.419 0.620412 2.93413 0
M  V30 5403 H 542.972 0.359946 1.52099 0
M  V30 5404 H 543.707 -1.93051 2.60579 0
M  V30 5405 H 543.492 -0.677358 3.86205 0
M  V30 5406 H 544.982 -1.66698 3.82886 0
M  V30 5407 N 545.419 -1.53889 0.339982 0
M  V30 5408 C 546.382 -2.23547 -0.50592 0
M  V30 5409 C 547.382 -1.23445 -1.03044 0
M  V30 5410 O 548.572 -1.47909 -0.920253 0
M  V30 5411 C 545.704 -2.95234 -1.7044 0
M  V30 5412 H 546.897 -2.99722 0.103247 0
M  V30 5413 H 544.45 -1.56033 0.0912804 0
M  V30 5414 H 545.185 -2.23236 -2.35236 0
M  V30 5415 H 544.97 -3.68654 -1.33553 0
M  V30 5416 H 546.46 -3.48258 -2.30447 0
M  V30 5417 N 546.897 -0.0685191 -1.57451 0
M  V30 5418 C 548.146 0.600898 -1.92541 0
M  V30 5419 C 548.459 1.70967 -0.950239 0
M  V30 5420 O 549.665 2.43844 -1.19384 0
M  V30 5421 C 548.121 1.12019 -3.42023 0
M  V30 5422 C 547.729 0.0426028 -4.4798 0
M  V30 5423 C 549.473 1.76386 -3.86119 0
M  V30 5424 C 547.38 0.575759 -5.88591 0
M  V30 5425 H 546.31 0.228225 -0.71863 0
M  V30 5426 H 548.961 -0.140223 -1.82963 0
M  V30 5427 H 547.343 1.91418 -3.46663 0
M  V30 5428 H 548.517 -0.73182 -4.54952 0
M  V30 5429 H 546.832 -0.504642 -4.13331 0
M  V30 5430 H 549.429 2.17302 -4.88553 0
M  V30 5431 H 549.772 2.62255 -3.23308 0
M  V30 5432 H 550.305 1.03615 -3.84069 0
M  V30 5433 H 547.044 -0.245691 -6.55039 0
M  V30 5434 H 546.564 1.31778 -5.85145 0
M  V30 5435 H 548.243 1.0532 -6.3837 0
M  V30 5436 N 548.375 1.56261 0.205012 0
M  V30 5437 C 549.621 1.80306 0.9283 0
M  V30 5438 C 549.954 0.640932 1.83319 0
M  V30 5439 O 549.229 -0.359032 1.91158 0
M  V30 5440 C 549.512 3.14547 1.75306 0
M  V30 5441 C 549.365 4.41236 0.873562 0
M  V30 5442 C 550.684 3.45382 2.72762 0
M  V30 5443 H 547.803 0.655929 0.336044 0
M  V30 5444 H 550.445 1.88984 0.196211 0
M  V30 5445 H 548.595 3.0728 2.37721 0
M  V30 5446 H 550.267 4.60539 0.264887 0
M  V30 5447 H 548.51 4.33427 0.179773 0
M  V30 5448 H 549.181 5.31639 1.48541 0
M  V30 5449 H 551.657 3.52884 2.20481 0
M  V30 5450 H 550.533 4.40449 3.2756 0
M  V30 5451 H 550.794 2.68377 3.51321 0
M  V30 5452 N 549.853 -0.472356 1.50355 0
M  V30 5453 C 550.801 -1.59126 1.69651 0
M  V30 5454 C 551.795 -1.59793 0.56237 0
M  V30 5455 O 553.001 -1.63957 0.742832 0
M  V30 5456 H 549.376 -0.528008 0.535454 0
M  V30 5457 H 551.347 -1.40013 2.63513 0
M  V30 5458 C 550.096 -2.97075 1.8067 0
M  V30 5459 H 549.419 -2.9728 2.67329 0
M  V30 5460 H 550.859 -3.74825 1.98197 0
M  V30 5461 C 549.318 -3.32247 0.558016 0
M  V30 5462 O 549.848 -4.00553 -0.303399 0
M  V30 5463 N 548.054 -2.87659 0.412415 0
M  V30 5464 H 547.601 -2.32246 1.11443 0
M  V30 5465 H 547.559 -3.11556 -0.421908 0
M  V30 5466 N 551.331 -1.39911 -0.725443 0
M  V30 5467 C 552.263 -1.35301 -1.85003 0
M  V30 5468 C 553.276 -0.260102 -1.60709 0
M  V30 5469 O 554.465 -0.519749 -1.70766 0
M  V30 5470 C 551.565 -1.08039 -3.21218 0
M  V30 5471 C 550.738 -2.28793 -3.7279 0
M  V30 5472 C 549.797 -1.97841 -4.87591 0
M  V30 5473 O 548.823 -2.70616 -5.00755 0
M  V30 5474 N 550.025 -0.950367 -5.72668 0
M  V30 5475 H 552.79 -2.32218 -1.89459 0
M  V30 5476 H 550.351 -1.34137 -0.90658 0
M  V30 5477 H 552.343 -0.853354 -3.95601 0
M  V30 5478 H 550.913 -0.198229 -3.11971 0
M  V30 5479 H 550.133 -2.67388 -2.8965 0
M  V30 5480 H 551.421 -3.09317 -4.03981 0
M  V30 5481 H 550.819 -0.347436 -5.64632 0
M  V30 5482 H 549.376 -0.783232 -6.47077 0
M  V30 5483 N 552.809 0.956637 -1.25245 0
M  V30 5484 C 554.055 1.70352 -1.10036 0
M  V30 5485 C 554.388 1.90869 0.358156 0
M  V30 5486 O 553.663 1.47819 1.26411 0
M  V30 5487 C 553.946 3.08766 -1.85298 0
M  V30 5488 C 553.799 2.95672 -3.38966 0
M  V30 5489 C 555.118 4.08622 -1.63451 0
M  V30 5490 H 552.237 0.618279 -0.401123 0
M  V30 5491 H 554.879 1.11212 -1.54051 0
M  V30 5492 H 553.029 3.59252 -1.47887 0
M  V30 5493 H 554.701 2.52527 -3.86041 0
M  V30 5494 H 552.944 2.31634 -3.6678 0
M  V30 5495 H 553.615 3.93776 -3.86839 0
M  V30 5496 H 556.091 3.67038 -1.96015 0
M  V30 5497 H 554.967 5.03514 -2.18551 0
M  V30 5498 H 555.228 4.3834 -0.575357 0
M  V30 5499 N 554.287 1.06798 1.15896 0
M  V30 5500 C 555.25 0.687328 2.18651 0
M  V30 5501 C 556.25 -0.269559 1.58524 0
M  V30 5502 O 557.44 -0.0512627 1.74125 0
M  V30 5503 C 554.572 0.0121642 3.40898 0
M  V30 5504 H 555.765 1.59701 2.53842 0
M  V30 5505 H 553.318 0.863828 1.3026 0
M  V30 5506 H 554.053 -0.910025 3.1127 0
M  V30 5507 H 553.838 0.700309 3.85795 0
M  V30 5508 H 555.328 -0.239703 4.16911 0
M  V30 5509 N 555.766 -1.3263 0.851289 0
M  V30 5510 C 557.182 -1.50162 0.5407 0
M  V30 5511 C 557.382 -1.78788 -0.929369 0
M  V30 5512 O 556.438 -1.85545 -1.71258 0
M  V30 5513 C 557.751 -2.64803 1.42478 0
M  V30 5514 C 559.299 -2.78688 1.42485 0
M  V30 5515 C 559.774 -3.96405 2.29407 0
M  V30 5516 N 561.265 -4.0366 2.27184 0
M  V30 5517 C 562 -4.93971 2.9117 0
M  V30 5518 N 561.496 -5.89313 3.64256 0
M  V30 5519 N 563.289 -4.87066 2.80576 0
M  V30 5520 H 555.44 -1.12315 1.80275 0
M  V30 5521 H 557.703 -0.553266 0.769806 0
M  V30 5522 H 557.409 -2.50368 2.46999 0
M  V30 5523 H 557.283 -3.60506 1.10974 0
M  V30 5524 H 559.67 -2.92547 0.387304 0
M  V30 5525 H 559.751 -1.83708 1.78002 0
M  V30 5526 H 559.395 -3.83304 3.33228 0
M  V30 5527 H 559.325 -4.90654 1.91224 0
M  V30 5528 H 561.816 -3.35435 1.74045 0
M  V30 5529 H 562.129 -6.54913 4.10255 0
M  V30 5530 H 560.474 -5.8935 3.68364 0
M  V30 5531 H 563.665 -4.11552 2.23031 0
M  V30 5532 H 563.838 -5.57248 3.30725 0
M  V30 5533 N 557.244 -0.608902 -1.45362 0
M  V30 5534 C 558.49 -0.104762 -2.02529 0
M  V30 5535 C 558.823 1.26191 -1.47613 0
M  V30 5536 O 558.098 1.8327 -0.65134 0
M  V30 5537 C 558.381 -0.0672661 -3.60037 0
M  V30 5538 C 558.234 -1.4647 -4.25284 0
M  V30 5539 C 559.553 0.619877 -4.35713 0
M  V30 5540 H 556.672 -0.0395438 -0.735938 0
M  V30 5541 H 559.314 -0.781126 -1.73201 0
M  V30 5542 H 557.464 0.50871 -3.85155 0
M  V30 5543 H 559.136 -2.08785 -4.11347 0
M  V30 5544 H 557.379 -2.02502 -3.83634 0
M  V30 5545 H 558.05 -1.39069 -5.34195 0
M  V30 5546 H 560.526 0.130297 -4.15896 0
M  V30 5547 H 559.402 0.615224 -5.45441 0
M  V30 5548 H 559.663 1.68621 -4.0868 0
M  V30 5549 N 558.722 1.53707 -0.348139 0
M  V30 5550 C 559.968 2.01286 0.247332 0
M  V30 5551 C 560.301 1.23546 1.49834 0
M  V30 5552 O 559.576 0.324331 1.91777 0
M  V30 5553 C 559.859 3.55768 0.556858 0
M  V30 5554 C 559.712 4.44216 -0.706564 0
M  V30 5555 C 561.031 4.1841 1.3646 0
M  V30 5556 H 558.15 0.731677 0.0884201 0
M  V30 5557 H 560.792 1.84106 -0.469584 0
M  V30 5558 H 558.942 3.70539 1.16761 0
M  V30 5559 H 560.614 4.41274 -1.34444 0
M  V30 5560 H 558.857 4.12892 -1.33052 0
M  V30 5561 H 559.528 5.50202 -0.445186 0
M  V30 5562 H 562.004 4.07365 0.848113 0
M  V30 5563 H 560.88 5.26563 1.54992 0
M  V30 5564 H 561.141 3.7333 2.36805 0
M  V30 5565 N 560.2 0.0768682 1.57412 0
M  V30 5566 C 561.425 -0.603404 1.98428 0
M  V30 5567 C 561.85 -1.62047 0.955108 0
M  V30 5568 O 561.208 -1.81129 -0.0786778 0
M  V30 5569 C 561.256 -1.24396 3.38464 0
M  V30 5570 O 560.36 -2.35982 3.3821 0
M  V30 5571 H 559.701 -0.154741 0.645718 0
M  V30 5572 H 562.231 0.152885 2.04028 0
M  V30 5573 H 562.241 -1.5896 3.7576 0
M  V30 5574 H 560.916 -0.498735 4.12899 0
M  V30 5575 H 559.493 -2.03173 3.1269 0
M  V30 5576 N 561.678 -1.56367 -0.196722 0
M  V30 5577 C 562.926 -1.80172 -0.915554 0
M  V30 5578 C 563.247 -0.649649 -1.8386 0
M  V30 5579 O 562.517 0.332111 -1.93064 0
M  V30 5580 H 561.097 -0.664592 -0.341067 0
M  V30 5581 H 563.759 -1.93844 -0.202622 0
M  V30 5582 H 562.855 -2.7327 -1.50764 0
M  V30 5583 N 563.156 0.464375 -1.50603 0
M  V30 5584 C 564.386 1.23727 -1.65454 0
M  V30 5585 C 564.794 1.86119 -0.340032 0
M  V30 5586 O 564.137 1.70301 0.688706 0
M  V30 5587 C 564.199 2.38153 -2.69301 0
M  V30 5588 C 563.863 1.96345 -4.12671 0
M  V30 5589 C 564.86 1.48215 -4.98326 0
M  V30 5590 C 562.545 2.04861 -4.58625 0
M  V30 5591 C 564.539 1.09152 -6.27985 0
M  V30 5592 C 562.226 1.65409 -5.88288 0
M  V30 5593 C 563.224 1.17634 -6.72794 0
M  V30 5594 O 562.912 0.787312 -8.00035 0
M  V30 5595 H 562.644 0.380075 -0.559034 0
M  V30 5596 H 565.198 0.559919 -1.97621 0
M  V30 5597 H 563.428 3.09081 -2.32392 0
M  V30 5598 H 565.117 3.00099 -2.73304 0
M  V30 5599 H 565.883 1.41052 -4.64036 0
M  V30 5600 H 561.762 2.40996 -3.92991 0
M  V30 5601 H 565.306 0.717909 -6.93896 0
M  V30 5602 H 561.203 1.72233 -6.22098 0
M  V30 5603 H 561.971 0.915567 -8.13363 0
M  V30 5604 N 564.634 1.40294 0.718013 0
M  V30 5605 C 565.882 1.38167 1.47494 0
M  V30 5606 C 566.203 -0.01607 1.94993 0
M  V30 5607 O 565.473 -0.970396 1.70177 0
M  V30 5608 H 564.053 0.508505 0.547203 0
M  V30 5609 H 566.715 1.75324 0.851322 0
M  V30 5610 H 565.811 2.05503 2.34894 0
M  V30 5611 N 566.112 -0.949982 1.2575 0
M  V30 5612 C 567.075 -2.02894 1.06615 0
M  V30 5613 C 568.075 -1.60791 0.0173905 0
M  V30 5614 O 569.265 -1.72249 0.260003 0
M  V30 5615 C 566.397 -3.35219 0.619751 0
M  V30 5616 H 567.59 -2.21302 2.02399 0
M  V30 5617 H 565.143 -1.12772 1.08223 0
M  V30 5618 H 565.878 -3.22508 -0.340486 0
M  V30 5619 H 565.663 -3.67129 1.37692 0
M  V30 5620 H 567.153 -4.14505 0.507443 0
M  V30 5621 N 567.59 -1.07411 -1.15328 0
M  V30 5622 C 568.838 -0.796073 -1.85761 0
M  V30 5623 C 569.159 0.679864 -1.82764 0
M  V30 5624 O 568.429 1.49242 -1.269 0
M  V30 5625 H 567.009 -0.291495 -0.687779 0
M  V30 5626 H 569.671 -1.35799 -1.39802 0
M  V30 5627 H 568.767 -1.13114 -2.90881 0
M  V30 5628 N 569.068 1.32177 -0.85831 0
M  V30 5629 C 570.293 2.01847 -0.476718 0
M  V30 5630 C 570.718 1.64065 0.920021 0
M  V30 5631 O 570.076 0.843189 1.60499 0
M  V30 5632 C 570.124 3.55097 -0.627578 0
M  V30 5633 O 569.228 4.11012 0.338086 0
M  V30 5634 H 568.569 0.635907 -0.191099 0
M  V30 5635 H 571.099 1.68641 -1.15851 0
M  V30 5636 H 571.109 4.04718 -0.516476 0
M  V30 5637 H 569.784 3.81938 -1.64609 0
M  V30 5638 H 568.361 3.72451 0.182917 0
M  V30 5639 N 570.547 0.616602 1.45037 0
M  V30 5640 C 571.772 0.120192 2.07051 0
M  V30 5641 C 572.197 -1.19008 1.45666 0
M  V30 5642 O 571.555 -1.7267 0.552692 0
M  V30 5643 C 571.603 0.00354901 3.606 0
M  V30 5644 O 570.707 -1.04431 3.98958 0
M  V30 5645 H 570.048 0.0781599 0.659384 0
M  V30 5646 H 572.578 0.849167 1.86146 0
M  V30 5647 H 572.588 -0.191754 4.07549 0
M  V30 5648 H 571.263 0.960239 4.04663 0
M  V30 5649 H 569.84 -0.824749 3.63665 0
M  V30 5650 N 572.025 -1.5352 0.356285 0
M  V30 5651 C 573.25 -2.06007 -0.239961 0
M  V30 5652 C 573.675 -1.22872 -1.42422 0
M  V30 5653 O 573.033 -0.245516 -1.7963 0
M  V30 5654 C 573.081 -3.5522 -0.620587 0
M  V30 5655 O 572.185 -3.74864 -1.71902 0
M  V30 5656 H 571.526 -0.662961 -0.0371377 0
M  V30 5657 H 574.056 -1.98033 0.514194 0
M  V30 5658 H 574.066 -3.98081 -0.894197 0
M  V30 5659 H 572.741 -4.15175 0.245407 0
M  V30 5660 H 571.318 -3.43904 -1.44169 0
M  V30 5661 N 573.503 -0.0852151 -1.57369 0
M  V30 5662 C 574.728 0.592872 -1.98746 0
M  V30 5663 C 575.153 1.61538 -0.963689 0
M  V30 5664 O 574.511 1.81168 0.069071 0
M  V30 5665 C 574.559 1.22599 -3.39119 0
M  V30 5666 O 573.663 2.34185 -3.39457 0
M  V30 5667 H 573.004 0.151314 -0.646529 0
M  V30 5668 H 575.534 -0.163703 -2.03944 0
M  V30 5669 H 575.544 1.56965 -3.76598 0
M  V30 5670 H 574.219 0.476831 -4.13158 0
M  V30 5671 H 572.796 2.01512 -3.13763 0
M  V30 5672 N 574.981 1.5647 0.188427 0
M  V30 5673 C 576.209 1.85131 0.923803 0
M  V30 5674 C 576.624 0.668537 1.76567 0
M  V30 5675 O 575.981 -0.362662 1.7886 0
M  V30 5676 C 576.032 3.12661 1.81453 0
M  V30 5677 O 575.753 4.26378 1.00665 0
M  V30 5678 C 577.254 3.54548 2.66103 0
M  V30 5679 H 574.474 0.614624 0.269218 0
M  V30 5680 H 577.018 2.03581 0.193671 0
M  V30 5681 H 575.173 2.96088 2.49821 0
M  V30 5682 H 575.587 4.99041 1.61425 0
M  V30 5683 H 577.061 4.4673 3.24247 0
M  V30 5684 H 577.538 2.77853 3.40139 0
M  V30 5685 H 578.144 3.73674 2.03096 0
M  V30 5686 N 576.459 -0.456382 1.50847 0
M  V30 5687 C 577.687 -1.23026 1.66349 0
M  V30 5688 C 578.102 -1.85473 0.352868 0
M  V30 5689 O 577.459 -1.69885 -0.666739 0
M  V30 5690 C 577.51 -2.32827 2.76539 0
M  V30 5691 O 577.231 -1.72938 4.02522 0
M  V30 5692 C 578.732 -3.23448 3.03144 0
M  V30 5693 H 575.952 -0.371527 0.558756 0
M  V30 5694 H 578.496 -0.543082 1.97157 0
M  V30 5695 H 576.651 -2.97294 2.48384 0
M  V30 5696 H 577.065 -2.45357 4.63573 0
M  V30 5697 H 578.539 -3.96669 3.83872 0
M  V30 5698 H 579.016 -3.83094 2.14793 0
M  V30 5699 H 579.622 -2.64702 3.32886 0
M  V30 5700 N 577.937 -1.40673 -0.710563 0
M  V30 5701 C 578.9 -1.4108 -1.80635 0
M  V30 5702 C 579.9 -0.303783 -1.57904 0
M  V30 5703 O 581.09 -0.562937 -1.64853 0
M  V30 5704 C 578.222 -1.20748 -3.18799 0
M  V30 5705 H 579.415 -2.38612 -1.81671 0
M  V30 5706 H 576.968 -1.26595 -0.916704 0
M  V30 5707 H 577.703 -0.239964 -3.23411 0
M  V30 5708 H 577.488 -2.00941 -3.36698 0
M  V30 5709 H 578.978 -1.23833 -3.98817 0
M  V30 5710 N 579.415 0.9433 -1.26252 0
M  V30 5711 C 580.378 2.02326 -1.07689 0
M  V30 5712 C 581.378 1.60779 -0.0259174 0
M  V30 5713 O 582.568 1.72108 -0.269134 0
M  V30 5714 C 579.7 3.34886 -0.63752 0
M  V30 5715 H 580.893 2.20225 -2.0357 0
M  V30 5716 H 578.446 1.12197 -1.08819 0
M  V30 5717 H 579.181 3.22684 0.323377 0
M  V30 5718 H 578.966 3.66393 -1.39637 0
M  V30 5719 H 580.456 4.14231 -0.529418 0
M  V30 5720 N 580.893 1.08022 1.14757 0
M  V30 5721 C 582.121 0.828847 1.89572 0
M  V30 5722 C 582.536 -0.618621 1.78377 0
M  V30 5723 O 581.893 -1.42482 1.1404 0
M  V30 5724 C 581.944 1.23677 3.39685 0
M  V30 5725 O 581.665 2.62746 3.50566 0
M  V30 5726 C 583.166 1.01569 4.31507 0
M  V30 5727 H 580.386 0.299196 0.600602 0
M  V30 5728 H 582.93 1.43846 1.45357 0
M  V30 5729 H 581.085 0.671347 3.81539 0
M  V30 5730 H 581.499 2.79573 4.43778 0
M  V30 5731 H 582.973 1.35055 5.35223 0
M  V30 5732 H 583.45 -0.0475433 4.39174 0
M  V30 5733 H 584.056 1.56636 3.95405 0
M  V30 5734 N 582.371 -1.3172 0.865308 0
M  V30 5735 C 583.782 -1.79104 0.527126 0
M  V30 5736 C 584.133 -1.7135 -0.955695 0
M  V30 5737 O 583.258 -1.27845 -1.74598 0
M  V30 5738 C 583.853 -3.25207 0.950061 0
M  V30 5739 C 582.412 -3.70504 0.663611 0
M  V30 5740 C 581.559 -2.52605 1.14395 0
M  V30 5741 H 584.51 -1.18868 1.05148 0
M  V30 5742 H 584.531 -3.79535 0.270805 0
M  V30 5743 H 584.043 -3.30818 2.02931 0
M  V30 5744 H 582.144 -3.70398 -0.404474 0
M  V30 5745 H 582.257 -4.62845 1.23737 0
M  V30 5746 H 580.621 -2.4838 0.563859 0
M  V30 5747 H 581.404 -2.60964 2.23053 0
M  V30 5748 N 583.85 -0.624285 -1.44708 0
M  V30 5749 C 585.077 -0.132919 -2.06473 0
M  V30 5750 C 585.493 1.18967 -1.46602 0
M  V30 5751 O 584.85 1.72824 -0.586341 0
M  V30 5752 C 584.901 -0.00465418 -3.615 0
M  V30 5753 O 584.622 -1.27494 -4.19138 0
M  V30 5754 C 586.123 0.516213 -4.40284 0
M  V30 5755 H 583.343 -0.0765201 -0.666623 0
M  V30 5756 H 585.887 -0.856751 -1.85688 0
M  V30 5757 H 584.042 0.669583 -3.8157 0
M  V30 5758 H 584.456 -1.11536 -5.12504 0
M  V30 5759 H 585.93 0.554994 -5.49203 0
M  V30 5760 H 586.407 1.5419 -4.11245 0
M  V30 5761 H 587.013 -0.124542 -4.25118 0
M  V30 5762 N 585.328 1.53329 -0.364422 0
M  V30 5763 C 586.556 2.05657 0.226424 0
M  V30 5764 C 586.971 1.23801 1.42544 0
M  V30 5765 O 586.328 0.27839 1.80364 0
M  V30 5766 C 586.379 3.56125 0.621056 0
M  V30 5767 O 586.1 4.34879 -0.530304 0
M  V30 5768 C 587.601 4.24706 1.27041 0
M  V30 5769 H 584.821 0.669806 0.0400056 0
M  V30 5770 H 587.365 1.97714 -0.522456 0
M  V30 5771 H 585.52 3.64223 1.31985 0
M  V30 5772 H 585.934 5.24073 -0.211546 0
M  V30 5773 H 587.408 5.3131 1.49711 0
M  V30 5774 H 587.885 3.78354 2.23036 0
M  V30 5775 H 588.491 4.20858 0.613079 0
M  V30 5776 N 586.806 0.0935595 1.57322 0
M  V30 5777 C 588.034 -0.578934 1.98635 0
M  V30 5778 C 588.449 -1.61819 0.972626 0
M  V30 5779 O 587.806 -1.82461 -0.0379638 0
M  V30 5780 C 587.857 -1.22802 3.40003 0
M  V30 5781 O 587.578 -0.230334 4.37494 0
M  V30 5782 C 589.079 -1.98627 3.96311 0
M  V30 5783 H 586.299 -0.155324 0.652775 0
M  V30 5784 H 588.843 0.172393 2.03772 0
M  V30 5785 H 586.998 -1.93029 3.35885 0
M  V30 5786 H 587.412 -0.698649 5.19826 0
M  V30 5787 H 588.886 -2.39405 4.97382 0
M  V30 5788 H 589.363 -2.85151 3.34044 0
M  V30 5789 H 589.969 -1.3322 4.03897 0
M  V30 5790 N 588.284 -1.56567 -0.180126 0
M  V30 5791 C 589.512 -1.85618 -0.913972 0
M  V30 5792 C 589.927 -0.677892 -1.7621 0
M  V30 5793 O 589.284 0.353171 -1.7905 0
M  V30 5794 C 589.335 -3.13619 -1.79793 0
M  V30 5795 O 589.056 -4.26906 -0.98402 0
M  V30 5796 C 590.557 -3.55954 -2.64219 0
M  V30 5797 H 587.777 -0.616043 -0.265954 0
M  V30 5798 H 590.321 -2.03681 -0.182872 0
M  V30 5799 H 588.476 -2.97409 -2.48247 0
M  V30 5800 H 588.89 -4.9989 -1.58776 0
M  V30 5801 H 590.364 -4.48444 -3.21873 0
M  V30 5802 H 590.841 -2.79653 -3.38661 0
M  V30 5803 H 591.447 -3.74746 -2.01111 0
M  V30 5804 N 589.762 0.448376 -1.51087 0
M  V30 5805 C 591.01 1.19635 -1.62886 0
M  V30 5806 C 591.331 1.91977 -0.342024 0
M  V30 5807 O 590.601 1.85094 0.641636 0
M  V30 5808 H 589.181 0.444598 -0.600285 0
M  V30 5809 H 591.843 0.515138 -1.87969 0
M  V30 5810 H 590.939 1.93194 -2.45117 0
M  V30 5811 N 591.24 1.41047 0.703093 0
M  V30 5812 C 592.465 1.43537 1.49706 0
M  V30 5813 C 592.89 0.0401853 1.88057 0
M  V30 5814 O 592.248 -0.954785 1.54122 0
M  V30 5815 C 592.296 2.3433 2.74084 0
M  V30 5816 O 591.4 1.79515 3.71279 0
M  V30 5817 H 590.741 0.487454 0.450871 0
M  V30 5818 H 593.271 1.85422 0.86486 0
M  V30 5819 H 593.281 2.49947 3.22476 0
M  V30 5820 H 591.956 3.35708 2.45506 0
M  V30 5821 H 590.533 1.7331 3.30179 0
M  V30 5822 N 592.718 -0.936591 1.26751 0
M  V30 5823 C 593.967 -1.67778 1.11953 0
M  V30 5824 C 594.28 -1.92694 -0.33589 0
M  V30 5825 O 595.486 -2.64682 -0.604618 0
M  V30 5826 C 593.942 -3.02138 1.95551 0
M  V30 5827 C 593.55 -2.84953 3.45696 0
M  V30 5828 C 595.294 -3.79917 1.89377 0
M  V30 5829 C 593.201 -4.14814 4.21525 0
M  V30 5830 H 592.131 -0.629275 0.415366 0
M  V30 5831 H 594.782 -1.04122 1.51099 0
M  V30 5832 H 593.164 -3.668 1.49243 0
M  V30 5833 H 594.338 -2.29112 3.99805 0
M  V30 5834 H 592.653 -2.20612 3.53156 0
M  V30 5835 H 595.25 -4.76134 2.43312 0
M  V30 5836 H 595.593 -4.07204 0.865464 0
M  V30 5837 H 596.126 -3.22037 2.33532 0
M  V30 5838 H 592.865 -3.92709 5.24843 0
M  V30 5839 H 592.385 -4.70352 3.72195 0
M  V30 5840 H 594.064 -4.83239 4.3022 0
M  V30 5841 N 594.196 -1.08629 -1.14182 0
M  V30 5842 C 595.424 -0.838889 -1.8913 0
M  V30 5843 C 595.839 0.609153 -1.78703 0
M  V30 5844 O 595.196 1.41876 -1.14794 0
M  V30 5845 C 595.247 -1.25477 -3.39025 0
M  V30 5846 O 594.968 -2.64601 -3.49167 0
M  V30 5847 C 596.469 -1.03856 -4.30963 0
M  V30 5848 H 593.689 -0.302377 -0.599007 0
M  V30 5849 H 596.233 -1.44615 -1.44592 0
M  V30 5850 H 594.388 -0.691571 -3.81177 0
M  V30 5851 H 594.802 -2.81922 -4.42289 0
M  V30 5852 H 596.276 -1.37892 -5.345 0
M  V30 5853 H 596.753 0.0242522 -4.39193 0
M  V30 5854 H 597.359 -1.58731 -3.94569 0
M  V30 5855 N 595.674 1.31259 -0.872281 0
M  V30 5856 C 596.902 2.00795 -0.498907 0
M  V30 5857 C 597.317 1.65464 0.909238 0
M  V30 5858 O 596.674 0.885073 1.59602 0
M  V30 5859 C 596.725 3.55625 -0.649092 0
M  V30 5860 O 596.446 3.89692 -2.00179 0
M  V30 5861 C 597.947 4.42434 -0.277034 0
M  V30 5862 H 595.167 0.642299 -0.194145 0
M  V30 5863 H 597.711 1.67438 -1.17408 0
M  V30 5864 H 595.866 3.87394 -0.0214402 0
M  V30 5865 H 596.28 4.84407 -2.01122 0
M  V30 5866 H 597.754 5.50299 -0.433064 0
M  V30 5867 H 598.231 4.32146 0.783989 0
M  V30 5868 H 598.837 4.16086 -0.880483 0
M  V30 5869 N 597.152 0.631951 1.44375 0
M  V30 5870 C 598.38 0.143867 2.06399 0
M  V30 5871 C 598.795 -1.18188 1.47231 0
M  V30 5872 O 598.152 -1.72511 0.595498 0
M  V30 5873 C 598.203 0.0238253 3.61492 0
M  V30 5874 O 597.924 1.29715 4.18456 0
M  V30 5875 C 599.425 -0.492856 4.40552 0
M  V30 5876 H 596.645 0.0800542 0.666207 0
M  V30 5877 H 599.189 0.866586 1.85231 0
M  V30 5878 H 597.344 -0.649338 3.81919 0
M  V30 5879 H 597.758 1.14252 5.11905 0
M  V30 5880 H 599.232 -0.525861 5.49489 0
M  V30 5881 H 599.709 -1.52006 4.12057 0
M  V30 5882 H 600.315 0.147085 4.25046 0
M  V30 5883 N 598.631 -1.53133 0.372548 0
M  V30 5884 C 599.859 -2.05774 -0.215515 0
M  V30 5885 C 600.274 -1.24555 -1.41886 0
M  V30 5886 O 599.631 -0.287951 -1.80214 0
M  V30 5887 C 599.682 -3.5645 -0.602161 0
M  V30 5888 O 599.403 -4.34591 0.553359 0
M  V30 5889 C 600.904 -4.25374 -1.24787 0
M  V30 5890 H 598.124 -0.670009 -0.0364529 0
M  V30 5891 H 600.668 -1.97434 0.532934 0
M  V30 5892 H 598.823 -3.64918 -1.30052 0
M  V30 5893 H 599.237 -5.23954 0.239336 0
M  V30 5894 H 600.711 -5.32097 -1.46891 0
M  V30 5895 H 601.188 -3.79531 -2.21026 0
M  V30 5896 H 601.794 -4.21177 -0.590752 0
M  V30 5897 N 600.109 -0.101901 -1.5727 0
M  V30 5898 C 601.337 0.568392 -1.98939 0
M  V30 5899 C 601.752 1.61301 -0.981194 0
M  V30 5900 O 601.109 1.82478 0.0282869 0
M  V30 5901 C 601.16 1.20997 -3.40649 0
M  V30 5902 O 600.881 0.207129 -4.3761 0
M  V30 5903 C 602.382 1.96523 -3.97358 0
M  V30 5904 H 599.602 0.15186 -0.65359 0
M  V30 5905 H 602.146 -0.183198 -2.03678 0
M  V30 5906 H 600.301 1.91245 -3.36904 0
M  V30 5907 H 600.715 0.671071 -5.20189 0
M  V30 5908 H 602.189 2.36764 -4.98645 0
M  V30 5909 H 602.666 2.83376 -3.35552 0
M  V30 5910 H 603.272 1.31076 -4.04598 0
M  V30 5911 N 601.587 1.56661 0.17182 0
M  V30 5912 C 602.815 1.861 0.904115 0
M  V30 5913 C 603.23 0.687227 1.75848 0
M  V30 5914 O 602.587 -0.343671 1.79235 0
M  V30 5915 C 602.638 3.14568 1.78127 0
M  V30 5916 O 602.359 4.27422 0.961366 0
M  V30 5917 C 603.86 3.5735 2.62327 0
M  V30 5918 H 601.08 0.617445 0.262684 0
M  V30 5919 H 603.624 2.03775 0.172068 0
M  V30 5920 H 601.779 2.98721 2.46666 0
M  V30 5921 H 602.193 5.00725 1.56123 0
M  V30 5922 H 603.667 4.50144 3.1949 0
M  V30 5923 H 604.144 2.81445 3.37173 0
M  V30 5924 H 604.75 3.75807 1.99121 0
M  V30 5925 N 603.065 -0.440357 1.51323 0
M  V30 5926 C 604.293 -1.21255 1.67645 0
M  V30 5927 C 604.708 -1.85088 0.37252 0
M  V30 5928 O 604.065 -1.70582 -0.648683 0
M  V30 5929 C 604.116 -2.29881 2.78993 0
M  V30 5930 O 603.837 -1.68659 4.04334 0
M  V30 5931 C 605.338 -3.20214 3.06558 0
M  V30 5932 H 602.558 -0.36558 0.562666 0
M  V30 5933 H 605.102 -0.52214 1.97722 0
M  V30 5934 H 603.257 -2.94643 2.51524 0
M  V30 5935 H 603.671 -2.40426 4.6615 0
M  V30 5936 H 605.145 -3.92575 3.88058 0
M  V30 5937 H 605.622 -3.80794 2.18844 0
M  V30 5938 H 606.228 -2.61156 3.35675 0
M  V30 5939 N 604.543 -1.41418 -0.695603 0
M  V30 5940 C 605.506 -1.42988 -1.79129 0
M  V30 5941 C 606.506 -0.320514 -1.57573 0
M  V30 5942 O 607.696 -0.58039 -1.64247 0
M  V30 5943 C 604.828 -1.24122 -3.175 0
M  V30 5944 H 606.021 -2.40526 -1.7913 0
M  V30 5945 H 603.574 -1.2756 -0.903225 0
M  V30 5946 H 604.309 -0.274253 -3.23138 0
M  V30 5947 H 604.094 -2.045 -3.34547 0
M  V30 5948 H 605.584 -1.28056 -3.97481 0
M  V30 5949 N 606.021 0.929856 -1.27246 0
M  V30 5950 C 607.249 1.71144 -1.16265 0
M  V30 5951 C 607.664 1.867 0.280786 0
M  V30 5952 O 607.021 1.38249 1.19136 0
M  V30 5953 C 607.072 3.11222 -1.83911 0
M  V30 5954 O 606.793 2.96398 -3.22614 0
M  V30 5955 C 608.294 4.05541 -1.79028 0
M  V30 5956 H 605.514 0.535499 -0.404328 0
M  V30 5957 H 608.058 1.16492 -1.68077 0
M  V30 5958 H 606.213 3.6274 -1.36009 0
M  V30 5959 H 606.627 3.8494 -3.56261 0
M  V30 5960 H 608.101 5.01351 -2.30978 0
M  V30 5961 H 608.578 4.32589 -0.759168 0
M  V30 5962 H 609.184 3.59947 -2.26535 0
M  V30 5963 N 607.499 1.09233 1.13605 0
M  V30 5964 C 608.745 0.828385 1.8511 0
M  V30 5965 C 609.078 -0.64437 1.83198 0
M  V30 5966 O 608.353 -1.47428 1.26867 0
M  V30 5967 C 608.636 1.36167 3.33363 0
M  V30 5968 C 608.489 2.90038 3.438 0
M  V30 5969 C 609.808 0.993819 4.28732 0
M  V30 5970 H 606.927 0.30239 0.672108 0
M  V30 5971 H 609.569 1.35339 1.33355 0
M  V30 5972 H 607.719 0.9151 3.77569 0
M  V30 5973 H 609.391 3.43128 3.08319 0
M  V30 5974 H 607.634 3.27271 2.84739 0
M  V30 5975 H 608.305 3.22428 4.48045 0
M  V30 5976 H 610.781 1.37893 3.92587 0
M  V30 5977 H 609.657 1.39403 5.30903 0
M  V30 5978 H 609.918 -0.0982206 4.41991 0
M  V30 5979 N 608.977 -1.30795 0.87923 0
M  V30 5980 C 610.205 -2.00527 0.509548 0
M  V30 5981 C 610.62 -1.65944 -0.90045 0
M  V30 5982 O 609.977 -0.893525 -1.5913 0
M  V30 5983 C 610.028 -3.55276 0.667943 0
M  V30 5984 O 609.749 -3.88625 2.02242 0
M  V30 5985 C 611.25 -4.4228 0.300494 0
M  V30 5986 H 608.47 -0.641261 0.197549 0
M  V30 5987 H 611.014 -1.66813 1.18295 0
M  V30 5988 H 609.169 -3.87377 0.0419843 0
M  V30 5989 H 609.583 -4.83334 2.03688 0
M  V30 5990 H 611.057 -5.50061 0.462242 0
M  V30 5991 H 611.534 -4.32556 -0.76106 0
M  V30 5992 H 612.14 -4.15613 0.902536 0
M  V30 5993 N 610.455 -0.639598 -1.44038 0
M  V30 5994 C 611.683 -0.154811 -2.0632 0
M  V30 5995 C 612.098 1.17406 -1.47856 0
M  V30 5996 O 611.455 1.72193 -0.604638 0
M  V30 5997 C 611.506 -0.0429958 -3.61474 0
M  V30 5998 O 611.227 -1.31932 -4.17763 0
M  V30 5999 C 612.728 0.469486 -4.40807 0
M  V30 6000 H 609.948 -0.0835862 -0.665773 0
M  V30 6001 H 612.492 -0.876397 -1.84769 0
M  V30 6002 H 610.647 0.629075 -3.82258 0
M  V30 6003 H 611.061 -1.16965 -5.11292 0
M  V30 6004 H 612.535 0.496712 -5.49761 0
M  V30 6005 H 613.012 1.49819 -4.12857 0
M  V30 6006 H 613.618 -0.169624 -4.24962 0
M  V30 6007 N 611.933 1.52934 -0.380664 0
M  V30 6008 C 613.161 2.05886 0.204599 0
M  V30 6009 C 613.576 1.25305 1.41223 0
M  V30 6010 O 612.933 0.297504 1.80059 0
M  V30 6011 C 612.984 3.56764 0.583249 0
M  V30 6012 O 612.705 4.34292 -0.576398 0
M  V30 6013 C 614.206 4.2603 1.2253 0
M  V30 6014 H 611.426 0.670193 0.0328991 0
M  V30 6015 H 613.97 1.97148 -0.543397 0
M  V30 6016 H 612.125 3.65603 1.28115 0
M  V30 6017 H 612.539 5.23819 -0.267119 0
M  V30 6018 H 614.013 5.32868 1.44068 0
M  V30 6019 H 614.49 3.80698 2.19011 0
M  V30 6020 H 615.096 4.21485 0.568407 0
M  V30 6021 N 613.412 0.11024 1.57214 0
M  V30 6022 C 614.375 -0.828808 2.1369 0
M  V30 6023 C 615.375 -1.20059 1.06969 0
M  V30 6024 O 616.565 -1.12754 1.32786 0
M  V30 6025 C 613.697 -2.11959 2.66994 0
M  V30 6026 H 614.89 -0.338146 2.97988 0
M  V30 6027 H 612.443 -0.138913 1.55681 0
M  V30 6028 H 613.178 -2.65476 1.8626 0
M  V30 6029 H 612.963 -1.86258 3.45037 0
M  V30 6030 H 614.453 -2.79105 3.10629 0
M  V30 6031 N 614.89 -1.56749 -0.16351 0
M  V30 6032 C 616.136 -1.82704 -0.880168 0
M  V30 6033 C 616.469 -0.689311 -1.81555 0
M  V30 6034 O 615.744 0.308224 -1.92042 0
M  V30 6035 C 616.027 -3.19084 -1.66905 0
M  V30 6036 C 615.88 -4.43397 -0.756269 0
M  V30 6037 C 617.199 -3.52493 -2.63509 0
M  V30 6038 H 614.318 -0.664608 -0.318535 0
M  V30 6039 H 616.96 -1.89438 -0.146036 0
M  V30 6040 H 615.11 -3.13475 -2.2949 0
M  V30 6041 H 616.782 -4.61079 -0.14269 0
M  V30 6042 H 615.025 -4.33752 -0.0647944 0
M  V30 6043 H 615.696 -5.3539 -1.34393 0
M  V30 6044 H 618.172 -3.58606 -2.11047 0
M  V30 6045 H 617.048 -4.48979 -3.15767 0
M  V30 6046 H 617.309 -2.77597 -3.44082 0
M  V30 6047 N 616.368 0.432326 -1.51554 0
M  V30 6048 C 617.331 1.50765 -1.72634 0
M  V30 6049 C 618.331 1.49334 -0.596314 0
M  V30 6050 O 619.521 1.51268 -0.863925 0
M  V30 6051 C 616.653 2.90284 -1.7874 0
M  V30 6052 H 617.846 1.33377 -2.68609 0
M  V30 6053 H 615.399 0.661329 -1.4162 0
M  V30 6054 H 616.134 3.13071 -0.845977 0
M  V30 6055 H 615.919 2.92727 -2.6087 0
M  V30 6056 H 617.409 3.68282 -1.96871 0
M  V30 6057 N 617.846 1.41785 0.688094 0
M  V30 6058 C 619.257 1.3701 1.26828 0
M  V30 6059 C 619.608 0.056835 1.96118 0
M  V30 6060 O 618.733 -0.84475 1.99231 0
M  V30 6061 C 619.328 2.48168 2.30648 0
M  V30 6062 C 617.887 2.46766 2.84224 0
M  V30 6063 C 617.034 2.27633 1.58361 0
M  V30 6064 H 619.985 1.51192 0.482351 0
M  V30 6065 H 620.006 2.17655 3.121 0
M  V30 6066 H 619.518 3.43735 1.80188 0
M  V30 6067 H 617.619 1.54978 3.3884 0
M  V30 6068 H 617.732 3.43342 3.34145 0
M  V30 6069 H 616.096 1.75648 1.84445 0
M  V30 6070 H 616.879 3.25238 1.09887 0
M  V30 6071 N 619.324 -0.923095 1.27737 0
M  V30 6072 C 620.254 -2.04124 1.13383 0
M  V30 6073 C 621.235 -1.70066 0.0340658 0
M  V30 6074 O 622.42 -1.93068 0.209383 0
M  V30 6075 C 619.55 -3.3831 0.785097 0
M  V30 6076 C 618.504 -3.86496 1.8386 0
M  V30 6077 C 617.83 -5.1754 1.34373 0
M  V30 6078 C 619.13 -4.09381 3.24353 0
M  V30 6079 H 620.824 -2.1639 2.06919 0
M  V30 6080 H 618.37 -1.03976 0.996243 0
M  V30 6081 H 620.323 -4.16016 0.671485 0
M  V30 6082 H 619.047 -3.2607 -0.185969 0
M  V30 6083 H 617.706 -3.10987 1.9412 0
M  V30 6084 H 617.354 -5.01696 0.361989 0
M  V30 6085 H 617.054 -5.50751 2.04811 0
M  V30 6086 H 618.578 -5.97811 1.24315 0
M  V30 6087 H 619.992 -4.77641 3.17067 0
M  V30 6088 H 618.389 -4.53906 3.92542 0
M  V30 6089 H 619.459 -3.14515 3.69064 0
M  V30 6090 N 620.802 -1.09834 -1.13024 0
M  V30 6091 C 622.032 -0.857657 -1.87957 0
M  V30 6092 C 622.44 0.595008 -1.796 0
M  V30 6093 O 621.783 1.42158 -1.16347 0
M  V30 6094 C 621.845 -1.21949 -3.38185 0
M  V30 6095 C 621.509 -2.67791 -3.7032 0
M  V30 6096 C 622.506 -3.66036 -3.69207 0
M  V30 6097 C 620.191 -3.04019 -3.99847 0
M  V30 6098 C 622.185 -4.98533 -3.9717 0
M  V30 6099 C 619.872 -4.36706 -4.27471 0
M  V30 6100 C 620.87 -5.33772 -4.26118 0
M  V30 6101 O 620.558 -6.64072 -4.53061 0
M  V30 6102 H 620.29 -0.308009 -0.601753 0
M  V30 6103 H 622.844 -1.46496 -1.43973 0
M  V30 6104 H 621.074 -0.555249 -3.82693 0
M  V30 6105 H 622.763 -0.957281 -3.9445 0
M  V30 6106 H 623.529 -3.39392 -3.46465 0
M  V30 6107 H 619.408 -2.29096 -4.00045 0
M  V30 6108 H 622.952 -5.74288 -3.96029 0
M  V30 6109 H 618.849 -4.63091 -4.49685 0
M  V30 6110 H 619.617 -6.69608 -4.7071 0
M  V30 6111 N 622.28 1.30327 -0.886154 0
M  V30 6112 C 623.528 1.9571 -0.504195 0
M  V30 6113 C 623.849 1.70294 0.950003 0
M  V30 6114 O 623.119 1.02718 1.66811 0
M  V30 6115 H 621.699 0.72412 -0.183465 0
M  V30 6116 H 624.361 1.58835 -1.12949 0
M  V30 6117 H 623.457 3.04704 -0.675431 0
M  V30 6118 N 623.758 0.647228 1.43697 0
M  V30 6119 C 624.69 -0.0866232 2.29036 0
M  V30 6120 C 625.703 -0.793051 1.42178 0
M  V30 6121 O 626.892 -0.651807 1.66174 0
M  V30 6122 C 623.992 -1.14552 3.18953 0
M  V30 6123 C 623.165 -0.518422 4.34317 0
M  V30 6124 C 622.224 -1.4734 5.05151 0
M  V30 6125 O 621.25 -0.984312 5.60625 0
M  V30 6126 N 622.452 -2.8075 5.08094 0
M  V30 6127 H 625.217 0.645834 2.92659 0
M  V30 6128 H 622.778 0.489567 1.54321 0
M  V30 6129 H 624.77 -1.78505 3.63205 0
M  V30 6130 H 623.34 -1.78001 2.56971 0
M  V30 6131 H 622.56 0.300079 3.93056 0
M  V30 6132 H 623.848 -0.080401 5.08736 0
M  V30 6133 H 623.246 -3.23052 4.64386 0
M  V30 6134 H 621.803 -3.40022 5.56083 0
M  V30 6135 N 625.236 -1.5273 0.388769 0
M  V30 6136 C 626.476 -2.03483 -0.193372 0
M  V30 6137 C 626.84 -1.26897 -1.44087 0
M  V30 6138 O 628.041 -1.67773 -2.10014 0
M  V30 6139 C 626.312 -3.54488 -0.455325 0
M  V30 6140 S 627.871 -4.27069 -1.00783 0
M  V30 6141 H 624.689 -0.708907 -0.0545131 0
M  V30 6142 H 627.291 -1.8798 0.536993 0
M  V30 6143 H 625.995 -4.07817 0.459722 0
M  V30 6144 H 625.526 -3.74196 -1.21413 0
M  V30 6145 H 627.541 -4.40185 -2.29023 0
M  V30 6146 N 626.714 -0.118576 -1.57153 0
M  V30 6147 C 627.962 0.538461 -1.94795 0
M  V30 6148 C 628.283 1.67243 -1.00274 0
M  V30 6149 O 627.553 1.95811 -0.0589692 0
M  V30 6150 H 626.133 0.201904 -0.719197 0
M  V30 6151 H 628.795 -0.187418 -1.93997 0
M  V30 6152 H 627.891 0.933315 -2.97818 0
M  V30 6153 N 628.193 1.56834 0.155195 0
M  V30 6154 C 629.441 1.82536 0.867462 0
M  V30 6155 C 629.762 0.698168 1.82073 0
M  V30 6156 O 629.032 -0.280807 1.93877 0
M  V30 6157 H 627.612 0.673401 0.323327 0
M  V30 6158 H 630.274 1.94313 0.151156 0
M  V30 6159 H 629.37 2.77171 1.43466 0
M  V30 6160 N 629.671 -0.424282 1.51781 0
M  V30 6161 C 630.92 -1.16961 1.64326 0
M  V30 6162 C 631.233 -1.92035 0.371749 0
M  V30 6163 O 632.439 -2.68873 0.37676 0
M  V30 6164 C 630.895 -2.12782 2.90262 0
M  V30 6165 C 630.503 -1.43295 4.24465 0
M  V30 6166 C 632.247 -2.87667 3.12166 0
M  V30 6167 C 630.154 -2.37676 5.41538 0
M  V30 6168 H 629.084 -0.440293 0.612093 0
M  V30 6169 H 631.735 -0.435431 1.78259 0
M  V30 6170 H 630.117 -2.8969 2.69992 0
M  V30 6171 H 631.291 -0.718564 4.55163 0
M  V30 6172 H 629.606 -0.805118 4.08542 0
M  V30 6173 H 632.203 -3.58395 3.96808 0
M  V30 6174 H 632.546 -3.49758 2.25776 0
M  V30 6175 H 633.079 -2.17863 3.32837 0
M  V30 6176 H 629.818 -1.80255 6.30229 0
M  V30 6177 H 629.338 -3.07132 5.15199 0
M  V30 6178 H 631.017 -2.98529 5.74012 0
M  V30 6179 N 631.149 -1.42148 -0.680565 0
M  V30 6180 C 632.397 -1.42029 -1.43779 0
M  V30 6181 C 632.718 -0.0356347 -1.94967 0
M  V30 6182 O 631.988 0.924936 -1.7269 0
M  V30 6183 H 630.568 -0.522835 -0.533529 0
M  V30 6184 H 633.23 -1.7752 -0.804538 0
M  V30 6185 H 632.326 -2.11658 -2.29363 0
M  V30 6186 N 632.627 0.916307 -1.28225 0
M  V30 6187 C 633.873 1.66794 -1.1641 0
M  V30 6188 C 634.228 1.90278 0.284986 0
M  V30 6189 O 633.521 1.49023 1.20427 0
M  V30 6190 C 633.715 3.03125 -1.8934 0
M  V30 6191 C 633.544 2.92947 -3.41192 0
M  V30 6192 C 632.314 2.9461 -4.10528 0
M  V30 6193 C 634.512 2.7121 -4.36978 0
M  V30 6194 N 632.494 2.74993 -5.48864 0
M  V30 6195 C 633.865 2.60411 -5.6266 0
M  V30 6196 C 635.92 2.56187 -4.26934 0
M  V30 6197 C 634.623 2.3612 -6.79441 0
M  V30 6198 C 636.649 2.33275 -5.43449 0
M  V30 6199 C 636.011 2.23228 -6.68093 0
M  V30 6200 H 632.11 0.616654 -0.480896 0
M  V30 6201 H 634.694 1.08237 -1.61842 0
M  V30 6202 H 632.865 3.59774 -1.46346 0
M  V30 6203 H 634.597 3.67294 -1.69932 0
M  V30 6204 H 631.352 3.0527 -3.62087 0
M  V30 6205 H 631.776 2.68284 -6.21573 0
M  V30 6206 H 636.418 2.62707 -3.31278 0
M  V30 6207 H 634.136 2.28339 -7.75169 0
M  V30 6208 H 637.722 2.22519 -5.37565 0
M  V30 6209 H 636.602 2.05741 -7.5673 0
M  V30 6210 N 634.105 1.10431 1.1244 0
M  V30 6211 C 635.333 0.868872 1.87772 0
M  V30 6212 C 635.748 -0.580645 1.7965 0
M  V30 6213 O 635.105 -1.40031 1.17036 0
M  V30 6214 C 635.156 1.30855 3.36986 0
M  V30 6215 O 634.877 2.70123 3.44914 0
M  V30 6216 C 636.378 1.107 4.29256 0
M  V30 6217 H 633.598 0.311868 0.59412 0
M  V30 6218 H 636.142 1.46897 1.42273 0
M  V30 6219 H 634.297 0.752126 3.80029 0
M  V30 6220 H 634.711 2.88923 4.37748 0
M  V30 6221 H 636.185 1.46378 5.32238 0
M  V30 6222 H 636.662 0.0456228 4.39176 0
M  V30 6223 H 637.268 1.64988 3.91994 0
M  V30 6224 N 635.583 -1.29855 0.893053 0
M  V30 6225 C 636.831 -1.9544 0.514566 0
M  V30 6226 C 637.152 -1.70795 -0.940959 0
M  V30 6227 O 636.422 -1.03601 -1.66264 0
M  V30 6228 H 635.002 -0.723137 0.187302 0
M  V30 6229 H 637.664 -1.58234 1.13789 0
M  V30 6230 H 636.76 -3.04341 0.691581 0
M  V30 6231 N 637.061 -0.65484 -1.43351 0
M  V30 6232 C 638.472 -0.248506 -1.85039 0
M  V30 6233 C 638.823 1.20526 -1.54816 0
M  V30 6234 O 637.948 1.92016 -0.99794 0
M  V30 6235 C 638.543 -0.444241 -3.35875 0
M  V30 6236 C 637.102 -0.0922108 -3.76287 0
M  V30 6237 C 636.249 -0.746327 -2.67068 0
M  V30 6238 H 639.2 -0.8584 -1.33481 0
M  V30 6239 H 639.221 0.309762 -3.79237 0
M  V30 6240 H 638.733 -1.50239 -3.5784 0
M  V30 6241 H 636.834 0.96328 -3.59933 0
M  V30 6242 H 636.947 -0.518807 -4.76283 0
M  V30 6243 H 635.311 -0.179416 -2.54067 0
M  V30 6244 H 636.094 -1.80754 -2.91861 0
M  V30 6245 N 638.539 1.52521 -0.396863 0
M  V30 6246 C 639.767 2.06091 0.18275 0
M  V30 6247 C 640.182 1.26796 1.39886 0
M  V30 6248 O 639.539 0.316585 1.79733 0
M  V30 6249 C 639.59 3.57362 0.545377 0
M  V30 6250 O 639.311 4.33656 -0.622428 0
M  V30 6251 C 640.812 4.27305 1.18004 0
M  V30 6252 H 638.032 0.670504 0.025789 0
M  V30 6253 H 640.576 1.96561 -0.564276 0
M  V30 6254 H 638.731 3.66941 1.2423 0
M  V30 6255 H 639.145 5.23507 -0.322662 0
M  V30 6256 H 640.619 5.34366 1.38408 0
M  V30 6257 H 641.096 3.83 2.1496 0
M  V30 6258 H 641.702 4.22064 0.523671 0
M  V30 6259 N 640.017 0.126909 1.57088 0
M  V30 6260 C 640.98 -0.806097 2.14557 0
M  V30 6261 C 641.98 -1.18918 1.08236 0
M  V30 6262 O 643.17 -1.11339 1.33975 0
M  V30 6263 C 640.302 -2.09116 2.69227 0
M  V30 6264 H 641.495 -0.306522 2.98329 0
M  V30 6265 H 639.048 -0.122393 1.5582 0
M  V30 6266 H 639.783 -2.63486 1.89065 0
M  V30 6267 H 639.568 -1.82588 3.46993 0
M  V30 6268 H 641.058 -2.75794 3.13572 0
M  V30 6269 N 641.495 -1.56914 -0.146875 0
M  V30 6270 C 642.735 -1.85163 -0.86568 0
M  V30 6271 C 643.099 -0.711215 -1.78342 0
M  V30 6272 O 644.3 -0.874754 -2.54168 0
M  V30 6273 C 642.571 -3.18593 -1.61967 0
M  V30 6274 S 644.13 -3.68397 -2.38388 0
M  V30 6275 H 640.948 -0.6494 -0.289483 0
M  V30 6276 H 643.55 -1.95096 -0.125679 0
M  V30 6277 H 642.254 -3.99562 -0.93694 0
M  V30 6278 H 641.785 -3.11666 -2.40058 0
M  V30 6279 H 643.8 -3.37672 -3.63582 0
M  V30 6280 N 642.974 0.416227 -1.52004 0
M  V30 6281 C 643.937 1.48926 -1.74223 0
M  V30 6282 C 644.937 1.48693 -0.612119 0
M  V30 6283 O 646.127 1.50343 -0.879921 0
M  V30 6284 C 643.259 2.88372 -1.81809 0
M  V30 6285 H 644.452 1.3052 -2.70008 0
M  V30 6286 H 642.005 0.646271 -1.42313 0
M  V30 6287 H 642.74 3.12157 -0.879135 0
M  V30 6288 H 642.525 2.89944 -2.6396 0
M  V30 6289 H 644.015 3.66173 -2.00766 0
M  V30 6290 N 644.452 1.42507 0.673017 0
M  V30 6291 C 645.68 1.46473 1.46128 0
M  V30 6292 C 646.095 0.0765912 1.88645 0
M  V30 6293 O 645.452 -0.909057 1.58248 0
M  V30 6294 C 645.503 2.39339 2.70923 0
M  V30 6295 O 645.224 3.72752 2.3019 0
M  V30 6296 C 646.725 2.52343 3.64469 0
M  V30 6297 H 643.945 0.49812 0.449575 0
M  V30 6298 H 646.489 1.87041 0.826802 0
M  V30 6299 H 644.644 2.02019 3.30556 0
M  V30 6300 H 645.058 4.22503 3.10791 0
M  V30 6301 H 646.532 3.2144 4.48754 0
M  V30 6302 H 647.009 1.56189 4.1049 0
M  V30 6303 H 647.615 2.90392 3.10729 0
M  V30 6304 N 645.93 -0.909495 1.28709 0
M  V30 6305 C 647.178 -1.65577 1.15882 0
M  V30 6306 C 647.499 -1.928 -0.292108 0
M  V30 6307 O 646.769 -1.54716 -1.20166 0
M  V30 6308 H 645.349 -0.613714 0.425869 0
M  V30 6309 H 648.011 -1.09108 1.61498 0
M  V30 6310 H 647.107 -2.61634 1.70159 0
M  V30 6311 N 647.408 -1.11026 -1.11852 0
M  V30 6312 C 648.654 -0.857729 -1.83768 0
M  V30 6313 C 648.987 0.615143 -1.842 0
M  V30 6314 O 648.262 1.45391 -1.29196 0
M  V30 6315 C 648.545 -1.41453 -3.31154 0
M  V30 6316 C 648.398 -2.95471 -3.39142 0
M  V30 6317 C 649.717 -1.0619 -4.27097 0
M  V30 6318 H 646.836 -0.313044 -0.667212 0
M  V30 6319 H 649.478 -1.37443 -1.31185 0
M  V30 6320 H 647.628 -0.975052 -3.76065 0
M  V30 6321 H 649.3 -3.4799 -3.02821 0
M  V30 6322 H 647.543 -3.31759 -2.79497 0
M  V30 6323 H 648.214 -3.29515 -4.42859 0
M  V30 6324 H 650.69 -1.44122 -3.90344 0
M  V30 6325 H 649.566 -1.47832 -5.28618 0
M  V30 6326 H 649.827 0.0278912 -4.42091 0
M  V30 6327 N 648.886 1.2938 -0.899927 0
M  V30 6328 C 650.126 1.97332 -0.532871 0
M  V30 6329 C 650.49 1.69385 0.904029 0
M  V30 6330 O 651.691 2.30793 1.37797 0
M  V30 6331 C 649.962 3.47927 -0.817393 0
M  V30 6332 S 651.521 4.3528 -0.55468 0
M  V30 6333 H 648.339 0.682966 -0.197683 0
M  V30 6334 H 650.941 1.57189 -1.16241 0
M  V30 6335 H 649.645 3.65761 -1.86138 0
M  V30 6336 H 649.176 3.93006 -0.175978 0
M  V30 6337 H 651.191 4.92557 0.600182 0
M  V30 6338 N 650.364 0.662433 1.43002 0
M  V30 6339 C 651.592 0.187615 2.06048 0
M  V30 6340 C 652.007 -1.15039 1.49705 0
M  V30 6341 O 651.364 -1.71209 0.631956 0
M  V30 6342 C 651.415 0.100498 3.6136 0
M  V30 6343 O 651.136 1.38562 4.15611 0
M  V30 6344 C 652.637 -0.399298 4.41498 0
M  V30 6345 H 649.857 0.0941675 0.664359 0
M  V30 6346 H 652.401 0.905681 1.83351 0
M  V30 6347 H 650.556 -0.568181 3.83211 0
M  V30 6348 H 650.97 1.25084 5.09366 0
M  V30 6349 H 652.444 -0.409187 5.50481 0
M  V30 6350 H 652.921 -1.43232 4.15188 0
M  V30 6351 H 653.527 0.23721 4.24638 0
M  V30 6352 N 651.842 -1.52309 0.404946 0
M  V30 6353 C 652.805 -2.25491 -0.410651 0
M  V30 6354 C 653.805 -1.27704 -0.977154 0
M  V30 6355 O 654.995 -1.51679 -0.856691 0
M  V30 6356 C 652.127 -3.02197 -1.57765 0
M  V30 6357 H 653.32 -2.99015 0.230277 0
M  V30 6358 H 650.873 -1.55506 0.157377 0
M  V30 6359 H 651.608 -2.33013 -2.25556 0
M  V30 6360 H 651.393 -3.73987 -1.17797 0
M  V30 6361 H 652.883 -3.57719 -2.15469 0
M  V30 6362 N 653.32 -0.135238 -1.57019 0
M  V30 6363 C 654.55 0.525303 -1.9981 0
M  V30 6364 C 654.958 1.59724 -1.01415 0
M  V30 6365 O 654.301 1.837 -0.00130938 0
M  V30 6366 C 654.363 1.19578 -3.3903 0
M  V30 6367 C 654.027 0.269855 -4.56203 0
M  V30 6368 C 655.024 -0.497905 -5.1751 0
M  V30 6369 C 652.709 0.176188 -5.01991 0
M  V30 6370 C 654.703 -1.3469 -6.23007 0
M  V30 6371 C 652.39 -0.676422 -6.07345 0
M  V30 6372 C 653.388 -1.43658 -6.67721 0
M  V30 6373 O 653.076 -2.27501 -7.71037 0
M  V30 6374 H 652.808 0.142296 -0.660854 0
M  V30 6375 H 655.362 -0.223272 -2.04183 0
M  V30 6376 H 653.592 1.99176 -3.3146 0
M  V30 6377 H 655.281 1.75486 -3.66005 0
M  V30 6378 H 656.047 -0.435507 -4.83041 0
M  V30 6379 H 651.926 0.757583 -4.54733 0
M  V30 6380 H 655.47 -1.9407 -6.70062 0
M  V30 6381 H 651.367 -0.740154 -6.41243 0
M  V30 6382 H 652.135 -2.20619 -7.88206 0
M  V30 6383 N 654.798 1.5699 0.138552 0
M  V30 6384 C 656.023 1.88344 0.86841 0
M  V30 6385 C 656.448 0.725159 1.7356 0
M  V30 6386 O 655.806 -0.324992 1.78363 0
M  V30 6387 C 655.854 3.18334 1.69398 0
M  V30 6388 O 654.958 3.02863 2.79907 0
M  V30 6389 H 654.299 0.618577 0.241367 0
M  V30 6390 H 656.829 2.04207 0.126826 0
M  V30 6391 H 656.839 3.50567 2.08726 0
M  V30 6392 H 655.514 4.02238 1.05725 0
M  V30 6393 H 654.091 2.82056 2.43924 0
M  V30 6394 N 656.276 -0.40816 1.52223 0
M  V30 6395 C 657.687 -0.986929 1.58482 0
M  V30 6396 C 658.038 -1.91521 0.425917 0
M  V30 6397 O 657.163 -2.11593 -0.453593 0
M  V30 6398 C 657.758 -1.7967 2.87235 0
M  V30 6399 C 656.317 -2.32549 2.9597 0
M  V30 6400 C 655.464 -1.12558 2.53428 0
M  V30 6401 H 658.415 -0.188362 1.57578 0
M  V30 6402 H 658.436 -2.65417 2.72642 0
M  V30 6403 H 657.948 -1.12082 3.71563 0
M  V30 6404 H 656.049 -3.03505 2.16137 0
M  V30 6405 H 656.162 -2.63348 4.00231 0
M  V30 6406 H 654.526 -1.47984 2.07299 0
M  V30 6407 H 655.309 -0.465351 3.40131 0
M  V30 6408 N 657.755 -1.42862 -0.66545 0
M  V30 6409 C 658.985 -1.47032 -1.45138 0
M  V30 6410 C 659.393 -0.0829977 -1.89018 0
M  V30 6411 O 658.736 0.914551 -1.59316 0
M  V30 6412 C 658.798 -2.34302 -2.72659 0
M  V30 6413 C 658.462 -3.82034 -2.50796 0
M  V30 6414 C 659.459 -4.73453 -2.14799 0
M  V30 6415 C 657.144 -4.26397 -2.655 0
M  V30 6416 C 659.138 -6.07228 -1.93785 0
M  V30 6417 C 656.825 -5.6023 -2.44103 0
M  V30 6418 C 657.823 -6.50462 -2.08299 0
M  V30 6419 O 657.511 -7.8182 -1.87116 0
M  V30 6420 H 657.243 -0.501969 -0.452772 0
M  V30 6421 H 659.797 -1.88137 -0.82423 0
M  V30 6422 H 658.027 -1.88063 -3.37889 0
M  V30 6423 H 659.716 -2.29818 -3.34572 0
M  V30 6424 H 660.482 -4.4046 -2.03026 0
M  V30 6425 H 656.361 -3.56448 -2.92345 0
M  V30 6426 H 659.905 -6.7762 -1.65763 0
M  V30 6427 H 655.802 -5.92793 -2.55475 0
M  V30 6428 H 656.57 -7.93274 -2.01639 0
M  V30 6429 N 659.233 0.902656 -1.29189 0
M  V30 6430 C 660.463 1.68394 -1.19695 0
M  V30 6431 C 660.871 1.87602 0.245384 0
M  V30 6432 O 660.214 1.41084 1.17648 0
M  V30 6433 C 660.276 3.09094 -1.83578 0
M  V30 6434 C 659.94 3.1313 -3.32864 0
M  V30 6435 C 660.937 2.93497 -4.29134 0
M  V30 6436 C 658.622 3.3529 -3.74013 0
M  V30 6437 C 660.616 2.95953 -5.64527 0
M  V30 6438 C 658.303 3.37377 -5.09529 0
M  V30 6439 C 659.301 3.1773 -6.04596 0
M  V30 6440 O 658.989 3.196 -7.37639 0
M  V30 6441 H 658.721 0.532815 -0.416034 0
M  V30 6442 H 661.275 1.1374 -1.71033 0
M  V30 6443 H 659.505 3.65338 -1.26747 0
M  V30 6444 H 661.194 3.69297 -1.68447 0
M  V30 6445 H 661.96 2.76192 -3.98677 0
M  V30 6446 H 657.839 3.49623 -3.00474 0
M  V30 6447 H 661.383 2.80536 -6.38706 0
M  V30 6448 H 657.28 3.54213 -5.39633 0
M  V30 6449 H 658.048 3.35887 -7.46406 0
M  V30 6450 N 660.711 1.11618 1.11262 0
M  V30 6451 C 661.674 0.779447 2.15539 0
M  V30 6452 C 662.674 -0.202081 1.59525 0
M  V30 6453 O 663.864 0.0226356 1.74185 0
M  V30 6454 C 660.996 0.15674 3.40539 0
M  V30 6455 H 662.189 1.70324 2.4684 0
M  V30 6456 H 659.742 0.918298 1.26479 0
M  V30 6457 H 660.477 -0.777186 3.1485 0
M  V30 6458 H 660.262 0.863308 3.82478 0
M  V30 6459 H 661.752 -0.062661 4.17553 0
M  V30 6460 N 662.189 -1.289 0.906776 0
M  V30 6461 C 663.121 -2.26556 0.347159 0
M  V30 6462 C 664.134 -1.54589 -0.51049 0
M  V30 6463 O 665.323 -1.75489 -0.326501 0
M  V30 6464 C 662.423 -3.3484 -0.523024 0
M  V30 6465 C 661.596 -4.36296 0.310515 0
M  V30 6466 C 660.655 -5.23879 -0.493634 0
M  V30 6467 O 659.681 -5.69127 0.0913569 0
M  V30 6468 N 660.883 -5.51946 -1.7982 0
M  V30 6469 H 663.648 -2.75212 1.18652 0
M  V30 6470 H 661.209 -1.42309 0.771996 0
M  V30 6471 H 663.201 -3.90366 -1.06756 0
M  V30 6472 H 661.771 -2.85946 -1.26309 0
M  V30 6473 H 660.991 -3.80331 1.03644 0
M  V30 6474 H 662.279 -5.01113 0.881106 0
M  V30 6475 H 661.677 -5.17006 -2.2961 0
M  V30 6476 H 660.234 -6.10258 -2.28971 0
M  V30 6477 N 663.667 -0.670007 -1.42649 0
M  V30 6478 C 664.907 -0.194106 -2.03476 0
M  V30 6479 C 665.271 1.1755 -1.51809 0
M  V30 6480 O 666.472 1.74579 -2.04391 0
M  V30 6481 C 664.743 -0.221828 -3.56711 0
M  V30 6482 S 666.302 0.183772 -4.38415 0
M  V30 6483 H 663.12 -0.0802478 -0.706457 0
M  V30 6484 H 665.722 -0.882092 -1.74469 0
M  V30 6485 H 664.426 -1.22107 -3.91814 0
M  V30 6486 H 663.957 0.486149 -3.90385 0
M  V30 6487 H 665.972 1.41839 -4.75496 0
M  V30 6488 N 665.145 1.52092 -0.413018 0
M  V30 6489 C 666.075 2.30021 0.401567 0
M  V30 6490 C 667.056 1.34395 1.04269 0
M  V30 6491 O 668.241 1.63304 1.05097 0
M  V30 6492 C 665.371 3.12447 1.51638 0
M  V30 6493 C 664.325 4.16153 1.00005 0
M  V30 6494 C 663.651 4.86948 2.20875 0
M  V30 6495 C 664.951 5.22275 0.0513757 0
M  V30 6496 H 666.645 2.98365 -0.248704 0
M  V30 6497 H 664.191 1.4349 -0.121052 0
M  V30 6498 H 666.144 3.65733 2.09326 0
M  V30 6499 H 664.868 2.41879 2.19458 0
M  V30 6500 H 663.527 3.63882 0.445549 0
M  V30 6501 H 663.175 4.12905 2.8726 0
M  V30 6502 H 662.875 5.57057 1.86978 0
M  V30 6503 H 664.399 5.43048 2.79162 0
M  V30 6504 H 665.813 5.70778 0.537176 0
M  V30 6505 H 664.21 5.9977 -0.198977 0
M  V30 6506 H 665.28 4.76611 -0.892736 0
M  V30 6507 N 666.623 0.143563 1.56945 0
M  V30 6508 C 667.553 -0.7936 2.196 0
M  V30 6509 C 668.534 -1.25955 1.14321 0
M  V30 6510 O 669.719 -1.31773 1.42651 0
M  V30 6511 C 666.849 -2.03424 2.81489 0
M  V30 6512 C 665.803 -1.70519 3.92565 0
M  V30 6513 C 665.129 -3.01817 4.41373 0
M  V30 6514 C 666.429 -0.95449 5.13504 0
M  V30 6515 H 668.123 -0.271423 2.98167 0
M  V30 6516 H 665.669 -0.12911 1.4342 0
M  V30 6517 H 667.622 -2.69463 3.23987 0
M  V30 6518 H 666.346 -2.58008 2.00248 0
M  V30 6519 H 665.005 -1.06859 3.5068 0
M  V30 6520 H 664.653 -3.54386 3.56959 0
M  V30 6521 H 664.353 -2.80565 5.16292 0
M  V30 6522 H 665.877 -3.68934 4.86539 0
M  V30 6523 H 667.291 -1.5169 5.52868 0
M  V30 6524 H 665.688 -0.842035 5.94163 0
M  V30 6525 H 666.758 0.0544033 4.84869 0
M  V30 6526 N 668.101 -1.57061 -0.130224 0
M  V30 6527 C 669.35 -1.83446 -0.838488 0
M  V30 6528 C 669.663 -0.727468 -1.81569 0
M  V30 6529 O 670.869 -0.877394 -2.56932 0
M  V30 6530 C 669.325 -3.25201 -1.54182 0
M  V30 6531 C 668.933 -4.4388 -0.606178 0
M  V30 6532 C 670.677 -3.60844 -2.23588 0
M  V30 6533 C 668.584 -5.76661 -1.31209 0
M  V30 6534 H 667.514 -0.684185 -0.316871 0
M  V30 6535 H 670.165 -1.83273 -0.0912059 0
M  V30 6536 H 668.547 -3.1981 -2.33533 0
M  V30 6537 H 669.721 -4.60545 0.153308 0
M  V30 6538 H 668.036 -4.16395 -0.0196705 0
M  V30 6539 H 670.633 -4.57313 -2.77072 0
M  V30 6540 H 670.976 -2.87724 -3.00867 0
M  V30 6541 H 671.509 -3.67971 -1.51137 0
M  V30 6542 H 668.248 -6.52922 -0.580823 0
M  V30 6543 H 667.768 -5.63902 -2.04387 0
M  V30 6544 H 669.447 -6.20035 -1.8484 0
M  V30 6545 N 669.579 0.400081 -1.52437 0
M  V30 6546 C 670.825 1.14788 -1.67187 0
M  V30 6547 C 671.158 1.89928 -0.405074 0
M  V30 6548 O 670.433 1.85118 0.596804 0
M  V30 6549 C 670.716 2.13507 -2.89977 0
M  V30 6550 C 670.569 1.42204 -4.2673 0
M  V30 6551 C 671.888 3.14069 -3.083 0
M  V30 6552 H 669.007 0.415939 -0.608411 0
M  V30 6553 H 671.649 0.432542 -1.85011 0
M  V30 6554 H 669.799 2.7451 -2.74912 0
M  V30 6555 H 671.471 0.842503 -4.53541 0
M  V30 6556 H 669.714 0.723939 -4.27717 0
M  V30 6557 H 670.385 2.14281 -5.08712 0
M  V30 6558 H 672.861 2.63148 -3.22323 0
M  V30 6559 H 671.737 3.80398 -3.95713 0
M  V30 6560 H 671.998 3.82309 -2.22018 0
M  V30 6561 O 671.096 1.51991 0.545992 0
M  V30 6562 H 671.787 1.51962 1.20114 0
M  V30 END ATOM
M  V30 BEGIN BOND
M  V30 END BOND
M  V30 END CTAB
M  END
$$$$
