drugbank_target|P25787 Proteasome subunit alpha type-2 (DB08515)
 OpenBabel12092120433D

  0  0  0     0  0            999 V3000
M  V30 BEGIN CTAB
M  V30 COUNTS 3649 3688 0 0 0
M  V30 BEGIN ATOM
M  V30 1 H -0.908 1.98254 -0.117106 0
M  V30 2 N 0 1.576 0 0
M  V30 3 C 0.933 2.03868 1.02534 0
M  V30 4 C 1.911 0.928543 1.3348 0
M  V30 5 O 3.095 1.19667 1.45644 0
M  V30 6 C 0.222 2.43627 2.35294 0
M  V30 7 C -0.732 3.65373 2.2001 0
M  V30 8 S 0.101 5.13292 1.52614 0
M  V30 9 C 1.257 5.56322 2.86805 0
M  V30 10 H 1.49 2.90518 0.631377 0
M  V30 11 H -0.977 1.52953 0.210867 0
M  V30 12 H 0.981 2.67203 3.11629 0
M  V30 13 H -0.358 1.57376 2.7183 0
M  V30 14 H -1.165 3.90944 3.18086 0
M  V30 15 H -1.563 3.418 1.51819 0
M  V30 16 H 0.729 5.58782 3.83104 0
M  V30 17 H 1.672 6.56266 2.65933 0
M  V30 18 H 2.08 4.83886 2.90714 0
M  V30 19 N 1.4781 -0.272755 1.55222 0
M  V30 20 C 2.4411 -1.32041 1.87344 0
M  V30 21 C 3.4411 -1.42342 0.74803 0
M  V30 22 O 4.6311 -1.41488 1.0162 0
M  V30 23 C 1.7631 -2.70173 2.07893 0
M  V30 24 H 2.9561 -1.04789 2.80997 0
M  V30 25 H 0.5091 -0.51083 1.47717 0
M  V30 26 H 1.2441 -3.02605 1.16622 0
M  V30 27 H 1.0291 -2.64082 2.89833 0
M  V30 28 H 2.5191 -3.45869 2.34017 0
M  V30 29 N 2.9562 -1.48159 -0.537278 0
M  V30 30 C 3.8662 -1.64807 -1.6696 0
M  V30 31 C 4.8822 -0.530651 -1.65711 0
M  V30 32 O 6.0582 -0.800784 -1.84796 0
M  V30 33 C 3.1232 -1.67708 -3.03438 0
M  V30 34 C 2.1842 -2.91025 -3.156 0
M  V30 35 C 1.4172 -2.93778 -4.45567 0
M  V30 36 O 1.6402 -2.05153 -5.3223 0
M  V30 37 O 0.5742 -3.85868 -4.61941 0
M  V30 38 H 4.4002 -2.6066 -1.55853 0
M  V30 39 H 1.9852 -1.31475 -0.709549 0
M  V30 40 H 3.8672 -1.7218 -3.84619 0
M  V30 41 H 2.5422 -0.750278 -3.14885 0
M  V30 42 H 1.4492 -2.92089 -2.33741 0
M  V30 43 H 2.7822 -3.83065 -3.09066 0
M  V30 44 N 4.4343 0.785586 -1.36625 0
M  V30 45 C 5.8503 1.08419 -1.17122 0
M  V30 46 C 6.0503 2.015 0.00208491 0
M  V30 47 O 5.1063 2.43551 0.666278 0
M  V30 48 C 6.4193 1.69498 -2.48377 0
M  V30 49 C 7.9673 1.81821 -2.54775 0
M  V30 50 C 8.4423 2.46315 -3.86126 0
M  V30 51 N 9.9333 2.53779 -3.87492 0
M  V30 52 C 10.6683 3.045 -4.85868 0
M  V30 53 N 10.1643 3.55499 -5.94637 0
M  V30 54 N 11.9573 3.03247 -4.73284 0
M  V30 55 H 4.1083 0.167264 -2.1174 0
M  V30 56 H 6.3713 0.13682 -0.938075 0
M  V30 57 H 6.0773 1.08571 -3.34522 0
M  V30 58 H 5.9513 2.6896 -2.64462 0
M  V30 59 H 8.3383 2.41884 -1.69045 0
M  V30 60 H 8.4193 0.811532 -2.42586 0
M  V30 61 H 8.0633 1.86895 -4.72263 0
M  V30 62 H 7.9933 3.47561 -3.95612 0
M  V30 63 H 10.4843 2.17672 -3.08913 0
M  V30 64 H 10.7973 3.92562 -6.65669 0
M  V30 65 H 9.1423 3.5364 -5.98301 0
M  V30 66 H 12.3333 2.62696 -3.87438 0
M  V30 67 H 12.5063 3.42467 -5.50109 0
M  V30 68 N 5.9124 1.20967 1.01018 0
M  V30 69 C 7.1604 1.02172 1.74371 0
M  V30 70 C 7.4814 -0.446414 1.89821 0
M  V30 71 O 6.7514 -1.32234 1.44537 0
M  V30 72 H 5.3314 0.375066 0.646014 0
M  V30 73 H 7.9934 1.52187 1.21758 0
M  V30 74 H 7.0894 1.48538 2.74487 0
M  V30 75 N 7.3905 -1.2043 1.01659 0
M  V30 76 C 8.6205 -1.93496 0.724081 0
M  V30 77 C 9.0285 -1.74998 -0.71918 0
M  V30 78 O 8.3715 -1.06118 -1.49949 0
M  V30 79 C 8.4335 -3.45886 0.97994 0
M  V30 80 C 8.0975 -3.88145 2.41232 0
M  V30 81 C 9.0945 -3.93907 3.39313 0
M  V30 82 C 6.7795 -4.20134 2.75305 0
M  V30 83 C 8.7735 -4.31069 4.6953 0
M  V30 84 C 6.4605 -4.56971 4.05735 0
M  V30 85 C 7.4585 -4.62411 5.02658 0
M  V30 86 O 7.1465 -4.98403 6.30754 0
M  V30 87 H 6.8785 -0.621824 0.265162 0
M  V30 88 H 9.4325 -1.53867 1.36066 0
M  V30 89 H 7.6625 -3.85639 0.286198 0
M  V30 90 H 9.3515 -4.0018 0.679021 0
M  V30 91 H 10.1175 -3.69357 3.14325 0
M  V30 92 H 5.9965 -4.1509 2.00551 0
M  V30 93 H 9.5405 -4.3523 5.45179 0
M  V30 94 H 5.4375 -4.80977 4.30502 0
M  V30 95 H 6.2055 -5.16395 6.35042 0
M  V30 96 N 8.8686 -0.792821 -1.36206 0
M  V30 97 C 10.0936 -0.377701 -2.03932 0
M  V30 98 C 10.5186 0.998947 -1.59382 0
M  V30 99 O 9.8766 1.64421 -0.763903 0
M  V30 100 C 9.9246 -0.453635 -3.57735 0
M  V30 101 O 9.0286 0.538151 -4.08874 0
M  V30 102 H 8.3696 -0.159855 -0.644471 0
M  V30 103 H 10.8996 -1.07488 -1.7409 0
M  V30 104 H 10.9096 -0.318464 -4.06755 0
M  V30 105 H 9.5846 -1.45784 -3.89512 0
M  V30 106 H 8.1616 0.364359 -3.71116 0
M  V30 107 N 10.3467 1.47872 -0.545128 0
M  V30 108 C 11.5937 2.02493 -0.0165858 0
M  V30 109 C 11.9217 1.42073 1.32836 0
M  V30 110 O 11.1767 0.561459 1.87473 0
M  V30 111 C 11.4757 3.57131 0.13867 0
M  V30 112 C 11.1417 4.36411 -1.13384 0
M  V30 113 C 9.8037 4.57792 -1.48256 0
M  V30 114 C 12.1557 4.82223 -1.97764 0
M  V30 115 C 9.4837 5.22233 -2.67376 0
M  V30 116 C 11.8357 5.47977 -3.16076 0
M  V30 117 C 10.4997 5.67593 -3.51275 0
M  V30 118 H 9.7697 0.740975 -0.00606918 0
M  V30 119 H 12.4167 1.77683 -0.714207 0
M  V30 120 H 10.7217 3.80865 0.919172 0
M  V30 121 H 12.4187 3.97031 0.562782 0
M  V30 122 H 9.0087 4.2004 -0.852297 0
M  V30 123 H 13.1927 4.65493 -1.72132 0
M  V30 124 H 8.4487 5.35616 -2.94831 0
M  V30 125 H 12.6227 5.8244 -3.81755 0
M  V30 126 H 10.2497 6.17298 -4.43675 0
M  V30 127 N 11.8248 0.280983 1.55075 0
M  V30 128 C 13.0498 -0.340154 2.04592 0
M  V30 129 C 13.4748 -1.48246 1.15779 0
M  V30 130 O 12.8328 -1.80614 0.15761 0
M  V30 131 C 12.8808 -0.793104 3.5177 0
M  V30 132 O 11.9848 -1.89981 3.66034 0
M  V30 133 H 11.3258 -0.0694289 0.66036 0
M  V30 134 H 13.8558 0.416993 2.00306 0
M  V30 135 H 13.8658 -1.08729 3.93245 0
M  V30 136 H 12.5408 0.0426163 4.15878 0
M  V30 137 H 11.1178 -1.60771 3.36463 0
M  V30 138 N 13.3029 -1.57598 0.00835791 0
M  V30 139 C 14.2329 -2.1198 -0.979113 0
M  V30 140 C 15.2139 -1.03091 -1.35301 0
M  V30 141 O 16.3989 -1.30818 -1.43528 0
M  V30 142 C 13.5289 -2.62995 -2.26828 0
M  V30 143 C 12.4829 -3.76485 -2.03576 0
M  V30 144 C 11.8089 -4.13846 -3.38579 0
M  V30 145 C 13.1089 -5.0342 -1.39161 0
M  V30 146 H 14.8029 -2.94738 -0.526281 0
M  V30 147 H 12.3489 -1.41783 -0.251704 0
M  V30 148 H 14.3019 -2.99669 -2.96271 0
M  V30 149 H 13.0259 -1.7737 -2.7424 0
M  V30 150 H 11.6849 -3.40217 -1.36557 0
M  V30 151 H 11.3329 -3.25232 -3.83709 0
M  V30 152 H 11.0329 -4.90312 -3.23834 0
M  V30 153 H 12.5569 -4.53086 -4.09323 0
M  V30 154 H 13.9709 -5.37812 -1.98573 0
M  V30 155 H 12.3679 -5.84746 -1.34878 0
M  V30 156 H 13.4379 -4.83548 -0.361868 0
M  V30 157 N 14.781 0.264519 -1.55364 0
M  V30 158 C 16.009 1.013 -1.80405 0
M  V30 159 C 16.424 1.79618 -0.581622 0
M  V30 160 O 15.781 1.76879 0.449468 0
M  V30 161 C 15.832 1.96487 -3.03439 0
M  V30 162 O 15.553 1.21341 -4.20961 0
M  V30 163 C 17.054 2.83079 -3.41147 0
M  V30 164 H 14.274 0.298875 -0.600762 0
M  V30 165 H 16.818 0.292736 -2.02394 0
M  V30 166 H 14.973 2.63965 -2.83551 0
M  V30 167 H 15.387 1.85573 -4.90574 0
M  V30 168 H 16.861 3.4565 -4.30384 0
M  V30 169 H 17.338 3.53286 -2.60932 0
M  V30 170 H 17.944 2.2108 -3.63323 0
M  V30 171 N 16.2591 1.48442 0.529413 0
M  V30 172 C 17.4871 1.60151 1.30994 0
M  V30 173 C 17.9021 0.261985 1.86973 0
M  V30 174 O 17.2591 -0.748805 1.66431 0
M  V30 175 C 17.3101 2.64854 2.46038 0
M  V30 176 O 17.0311 3.93608 1.92365 0
M  V30 177 C 18.5321 2.87007 3.37849 0
M  V30 178 H 15.7521 0.539971 0.398338 0
M  V30 179 H 18.2961 1.94273 0.638597 0
M  V30 180 H 16.4511 2.33589 3.09055 0
M  V30 181 H 16.8651 4.51055 2.67675 0
M  V30 182 H 18.3391 3.64068 4.14919 0
M  V30 183 H 18.8161 1.95852 3.93114 0
M  V30 184 H 19.4221 3.19579 2.80623 0
M  V30 185 N 17.7372 -0.778329 1.37039 0
M  V30 186 C 18.9842 -1.53665 1.31884 0
M  V30 187 C 19.3122 -1.9425 -0.0986303 0
M  V30 188 O 18.5672 -1.63832 -1.07041 0
M  V30 189 C 18.8662 -2.81845 2.19768 0
M  V30 190 C 18.5322 -2.60345 3.68146 0
M  V30 191 C 17.1942 -2.5419 4.08584 0
M  V30 192 C 19.5462 -2.40923 4.62175 0
M  V30 193 C 16.8742 -2.26594 5.41177 0
M  V30 194 C 19.2262 -2.14852 5.94997 0
M  V30 195 C 17.8902 -2.07137 6.34547 0
M  V30 196 H 17.1602 -0.562299 0.482598 0
M  V30 197 H 19.8072 -0.897069 1.69189 0
M  V30 198 H 18.1122 -3.50328 1.75436 0
M  V30 199 H 19.8092 -3.39692 2.13097 0
M  V30 200 H 16.3992 -2.65996 3.36072 0
M  V30 201 H 20.5832 -2.44673 4.31797 0
M  V30 202 H 15.8392 -2.19111 5.70789 0
M  V30 203 H 20.0132 -1.98822 6.67415 0
M  V30 204 H 17.6402 -1.85518 7.37216 0
M  V30 205 N 19.2153 -1.21501 -1.00376 0
M  V30 206 C 20.4403 -1.05977 -1.78279 0
M  V30 207 C 20.8653 0.385994 -1.84097 0
M  V30 208 O 20.2233 1.27849 -1.28547 0
M  V30 209 C 20.2713 -1.66302 -3.19963 0
M  V30 210 O 19.3753 -0.909333 -4.0225 0
M  V30 211 H 18.7163 -0.372906 -0.549397 0
M  V30 212 H 21.2463 -1.6107 -1.26165 0
M  V30 213 H 21.2563 -1.70574 -3.70632 0
M  V30 214 H 19.9313 -2.71515 -3.15043 0
M  V30 215 H 18.5083 -0.941795 -3.60811 0
M  V30 216 N 20.6934 1.19889 -1.02296 0
M  V30 217 C 22.1044 1.71124 -0.746568 0
M  V30 218 C 22.4554 1.81939 0.734335 0
M  V30 219 O 21.5804 1.48639 1.57275 0
M  V30 220 C 22.1754 3.10804 -1.34857 0
M  V30 221 C 20.7344 3.59323 -1.1209 0
M  V30 222 C 19.8814 2.3635 -1.45031 0
M  V30 223 H 22.8324 1.04813 -1.19163 0
M  V30 224 H 22.8534 3.73186 -0.742437 0
M  V30 225 H 22.3654 3.029 -2.42638 0
M  V30 226 H 20.4664 3.7255 -0.0610337 0
M  V30 227 H 20.5794 4.4378 -1.80544 0
M  V30 228 H 18.9434 2.39399 -0.869487 0
M  V30 229 H 19.7264 2.31081 -2.53883 0
M  V30 230 N 22.1715 0.800033 1.35784 0
M  V30 231 C 23.3965 0.388511 2.03729 0
M  V30 232 C 23.8215 -0.990481 1.5991 0
M  V30 233 O 23.1795 -1.64013 0.772612 0
M  V30 234 C 23.2275 0.4726 3.5749 0
M  V30 235 O 22.3315 -0.51646 4.09153 0
M  V30 236 H 21.6725 0.163271 0.643614 0
M  V30 237 H 24.2025 1.0841 1.73518 0
M  V30 238 H 24.2125 0.34003 4.06581 0
M  V30 239 H 22.8875 1.47848 3.88734 0
M  V30 240 H 21.4645 -0.344673 3.71304 0
M  V30 241 N 23.6496 -1.47581 0.552962 0
M  V30 242 C 24.8976 -2.02082 0.0272703 0
M  V30 243 C 25.2186 -1.4301 -1.32563 0
M  V30 244 O 24.4886 -0.603745 -1.86365 0
M  V30 245 H 23.0686 -0.746966 0.00709182 0
M  V30 246 H 25.7306 -1.81033 0.722008 0
M  V30 247 H 24.8266 -3.12034 -0.0639951 0
M  V30 248 N 25.1277 -0.289203 -1.54924 0
M  V30 249 C 26.0747 0.592115 -2.23075 0
M  V30 250 C 27.0447 1.13881 -1.20915 0
M  V30 251 O 28.2297 1.18551 -1.495 0
M  V30 252 C 25.3697 1.76376 -2.96623 0
M  V30 253 C 24.4827 1.24959 -4.13533 0
M  V30 254 C 23.6177 2.38416 -4.74691 0
M  V30 255 C 22.6567 1.84072 -5.83767 0
M  V30 256 N 21.7937 2.91057 -6.38929 0
M  V30 257 H 26.6337 0.00432038 -2.98 0
M  V30 258 H 24.1707 -0.00963529 -1.47097 0
M  V30 259 H 26.1287 2.45268 -3.3749 0
M  V30 260 H 24.7587 2.32337 -2.24097 0
M  V30 261 H 23.8107 0.453307 -3.77689 0
M  V30 262 H 25.1227 0.811662 -4.92152 0
M  V30 263 H 24.2767 3.15276 -5.18349 0
M  V30 264 H 23.0157 2.8553 -3.95378 0
M  V30 265 H 22.0207 1.05697 -5.39545 0
M  V30 266 H 23.2457 1.37877 -6.64956 0
M  V30 267 H 21.1917 3.37526 -5.62505 0
M  V30 268 H 21.1087 2.51724 -7.12861 0
M  V30 269 H 22.3767 3.6785 -6.87246 0
M  V30 270 N 26.6058 1.57591 -0.0167156 0
M  V30 271 C 27.5358 2.12496 0.967858 0
M  V30 272 C 28.5168 1.03807 1.34752 0
M  V30 273 O 29.7018 1.31577 1.42833 0
M  V30 274 C 26.8318 2.64194 2.25431 0
M  V30 275 C 25.7858 3.77559 2.01576 0
M  V30 276 C 25.1118 4.15636 3.36379 0
M  V30 277 C 26.4118 5.04151 1.36489 0
M  V30 278 H 28.1058 2.95013 0.510643 0
M  V30 279 H 25.6518 1.41915 0.244181 0
M  V30 280 H 27.6048 3.01236 2.94678 0
M  V30 281 H 26.3288 1.78821 2.73296 0
M  V30 282 H 24.9878 3.40937 1.34751 0
M  V30 283 H 24.6358 3.27263 3.81979 0
M  V30 284 H 24.3358 4.92022 3.21229 0
M  V30 285 H 25.8598 4.5525 4.06915 0
M  V30 286 H 27.2738 5.38857 1.95718 0
M  V30 287 H 25.6708 5.85453 1.31776 0
M  V30 288 H 26.7408 4.83733 0.336219 0
M  V30 289 N 28.0839 -0.256276 1.55502 0
M  V30 290 C 29.3299 -0.987079 1.77157 0
M  V30 291 C 29.6629 -1.85327 0.580315 0
M  V30 292 O 28.9379 -1.89874 -0.421686 0
M  V30 293 C 29.2209 -1.85553 3.08613 0
M  V30 294 C 29.0739 -1.01816 4.38125 0
M  V30 295 C 30.3929 -2.8397 3.36228 0
M  V30 296 H 27.5119 -0.357428 0.644526 0
M  V30 297 H 30.1539 -0.258239 1.88237 0
M  V30 298 H 28.3039 -2.47695 2.99298 0
M  V30 299 H 29.9759 -0.416159 4.59419 0
M  V30 300 H 28.2189 -0.322178 4.32602 0
M  V30 301 H 28.8899 -1.65939 5.26468 0
M  V30 302 H 31.3659 -2.31964 3.45445 0
M  V30 303 H 30.2419 -3.41864 4.29442 0
M  V30 304 H 30.5029 -3.59955 2.56681 0
M  V30 305 N 29.562 -1.4872 -0.521534 0
M  V30 306 C 30.494 -1.59968 -1.64143 0
M  V30 307 C 31.507 -0.483463 -1.55456 0
M  V30 308 O 32.696 -0.75467 -1.61762 0
M  V30 309 C 29.796 -1.52127 -3.02838 0
M  V30 310 C 28.969 -2.78932 -3.36921 0
M  V30 311 C 28.028 -2.64428 -4.54933 0
M  V30 312 O 27.054 -3.38331 -4.57735 0
M  V30 313 N 28.256 -1.74606 -5.53618 0
M  V30 314 H 31.021 -2.56548 -1.54929 0
M  V30 315 H 28.582 -1.45551 -0.708988 0
M  V30 316 H 30.574 -1.40106 -3.79674 0
M  V30 317 H 29.144 -0.634868 -3.06085 0
M  V30 318 H 28.364 -3.05455 -2.4918 0
M  V30 319 H 29.652 -3.63041 -3.56481 0
M  V30 320 H 29.05 -1.13782 -5.54139 0
M  V30 321 H 27.607 -1.6852 -6.29638 0
M  V30 322 N 31.0401 0.771051 -1.3745 0
M  V30 323 C 32.2891 1.52491 -1.3202 0
M  V30 324 C 32.6021 1.9538 0.0927347 0
M  V30 325 O 33.8081 2.70159 0.269503 0
M  V30 326 C 32.2641 2.75366 -2.31736 0
M  V30 327 C 31.8721 2.39573 -3.78562 0
M  V30 328 C 33.6161 3.53307 -2.35318 0
M  V30 329 C 31.5231 3.58954 -4.70007 0
M  V30 330 H 30.4531 0.572506 -0.490666 0
M  V30 331 H 33.1041 0.844474 -1.62914 0
M  V30 332 H 31.4861 3.45303 -1.93861 0
M  V30 333 H 32.6601 1.77415 -4.25277 0
M  V30 334 H 30.9751 1.74805 -3.77932 0
M  V30 335 H 33.5721 4.42039 -3.00842 0
M  V30 336 H 33.9151 3.93217 -1.36698 0
M  V30 337 H 34.4481 2.90367 -2.71904 0
M  V30 338 H 31.1871 3.24125 -5.69757 0
M  V30 339 H 30.7071 4.20214 -4.27996 0
M  V30 340 H 32.3861 4.25758 -4.87175 0
M  V30 341 N 32.5182 1.22032 0.997298 0
M  V30 342 C 33.4282 1.00271 2.12092 0
M  V30 343 C 34.4442 -0.047621 1.73935 0
M  V30 344 O 35.6202 0.144136 2.00884 0
M  V30 345 C 32.6852 0.578449 3.4184 0
M  V30 346 C 31.7462 1.70189 3.94125 0
M  V30 347 C 30.9792 1.29778 5.17681 0
M  V30 348 O 31.2022 0.174676 5.70132 0
M  V30 349 O 30.1362 2.11261 5.63607 0
M  V30 350 H 33.9622 1.94398 2.3333 0
M  V30 351 H 31.5472 1.00587 1.10465 0
M  V30 352 H 33.4292 0.351998 4.19927 0
M  V30 353 H 32.1042 -0.334019 3.21972 0
M  V30 354 H 31.0112 1.98282 3.1723 0
M  V30 355 H 32.3442 2.59206 4.18417 0
M  V30 356 N 33.9963 -1.19345 1.0293 0
M  V30 357 C 35.2263 -1.92717 0.744563 0
M  V30 358 C 35.6343 -1.75751 -0.700579 0
M  V30 359 O 34.9773 -1.07703 -1.48815 0
M  V30 360 C 35.0393 -3.44828 1.01657 0
M  V30 361 C 34.7033 -3.85564 2.45335 0
M  V30 362 C 35.7003 -3.90286 3.43472 0
M  V30 363 C 33.3853 -4.1719 2.79746 0
M  V30 364 C 35.3793 -4.26065 4.74075 0
M  V30 365 C 33.0663 -4.52642 4.10559 0
M  V30 366 C 34.0643 -4.57054 5.07534 0
M  V30 367 O 33.7523 -4.91685 6.36004 0
M  V30 368 H 33.4843 -0.618977 0.271742 0
M  V30 369 H 36.0383 -1.52415 1.37691 0
M  V30 370 H 34.2683 -3.85314 0.327084 0
M  V30 371 H 35.9573 -3.99437 0.721427 0
M  V30 372 H 36.7233 -3.66002 3.18225 0
M  V30 373 H 32.6023 -4.1294 2.04943 0
M  V30 374 H 36.1463 -4.29423 5.49765 0
M  V30 375 H 32.0433 -4.76383 4.35579 0
M  V30 376 H 32.8113 -5.09631 6.40483 0
M  V30 377 N 35.4744 -0.807222 -1.35358 0
M  V30 378 C 36.4374 -0.223665 -2.28106 0
M  V30 379 C 37.4374 0.589354 -1.4961 0
M  V30 380 O 38.6274 0.407745 -1.69361 0
M  V30 381 C 35.7594 0.688149 -3.33882 0
M  V30 382 H 36.9524 -1.04169 -2.81227 0
M  V30 383 H 34.5054 -0.577921 -1.45223 0
M  V30 384 H 35.2404 1.52984 -2.85948 0
M  V30 385 H 35.0254 0.10687 -3.91954 0
M  V30 386 H 36.5154 1.09075 -4.03104 0
M  V30 387 N 36.9525 1.47285 -0.560781 0
M  V30 388 C 37.8825 2.32857 0.173105 0
M  V30 389 C 38.8635 1.44009 0.905281 0
M  V30 390 O 40.0485 1.7286 0.885046 0
M  V30 391 C 37.1785 3.25861 1.20133 0
M  V30 392 C 36.1325 4.23978 0.585388 0
M  V30 393 C 35.4585 5.06332 1.7185 0
M  V30 394 C 36.7585 5.20242 -0.463178 0
M  V30 395 H 38.4525 2.94466 -0.541307 0
M  V30 396 H 35.9985 1.41601 -0.261764 0
M  V30 397 H 37.9515 3.84569 1.72293 0
M  V30 398 H 36.6755 2.62315 1.94573 0
M  V30 399 H 35.3345 3.66501 0.085054 0
M  V30 400 H 34.9825 4.39186 2.45203 0
M  V30 401 H 34.6825 5.72762 1.31213 0
M  V30 402 H 36.2065 5.67899 2.24329 0
M  V30 403 H 37.6205 5.73293 -0.027502 0
M  V30 404 H 36.0175 5.94896 -0.788627 0
M  V30 405 H 37.0875 4.65504 -1.35773 0
M  V30 406 N 38.4306 0.297415 1.54768 0
M  V30 407 C 39.3936 -0.567375 2.22066 0
M  V30 408 C 40.3936 -1.06409 1.20556 0
M  V30 409 O 41.5836 -0.960691 1.45315 0
M  V30 410 C 38.7156 -1.78517 2.90421 0
M  V30 411 H 39.9086 0.0205534 2.99893 0
M  V30 412 H 37.4616 0.0482163 1.56226 0
M  V30 413 H 38.1966 -2.41303 2.16664 0
M  V30 414 H 37.9816 -1.43669 3.64831 0
M  V30 415 H 39.4716 -2.39964 3.41771 0
M  V30 416 N 39.9087 -1.5758 0.0250728 0
M  V30 417 C 40.8717 -2.08896 -0.943139 0
M  V30 418 C 41.8717 -1.00321 -1.25668 0
M  V30 419 O 43.0617 -1.26495 -1.19769 0
M  V30 420 C 40.1937 -2.55143 -2.26086 0
M  V30 421 H 41.3867 -2.95723 -0.498775 0
M  V30 422 H 38.9397 -1.54703 -0.222888 0
M  V30 423 H 39.6747 -1.71633 -2.75159 0
M  V30 424 H 39.4597 -3.34461 -2.04641 0
M  V30 425 H 40.9497 -2.95083 -2.95492 0
M  V30 426 N 41.3868 0.248026 -1.55636 0
M  V30 427 C 42.6328 0.97767 -1.77678 0
M  V30 428 C 42.9658 1.85016 -0.590135 0
M  V30 429 O 42.2408 1.90095 0.411611 0
M  V30 430 C 42.5238 1.83914 -3.09593 0
M  V30 431 C 42.3768 0.99491 -4.38659 0
M  V30 432 C 43.6958 2.82183 -3.37729 0
M  V30 433 H 40.8148 0.354005 -0.646413 0
M  V30 434 H 43.4568 0.248253 -1.88371 0
M  V30 435 H 41.6068 2.46104 -3.00608 0
M  V30 436 H 43.2788 0.391789 -4.59633 0
M  V30 437 H 41.5218 0.299231 -4.32767 0
M  V30 438 H 42.1928 1.63145 -5.2734 0
M  V30 439 H 44.6688 2.30129 -3.4667 0
M  V30 440 H 43.5448 3.39582 -4.31249 0
M  V30 441 H 43.8058 3.58588 -2.58586 0
M  V30 442 N 42.8649 1.48995 0.513639 0
M  V30 443 C 43.8279 1.64229 1.59879 0
M  V30 444 C 44.8279 0.514696 1.5234 0
M  V30 445 O 46.0179 0.78087 1.55718 0
M  V30 446 C 43.1499 1.62783 2.99524 0
M  V30 447 H 44.3429 2.61004 1.47705 0
M  V30 448 H 41.8959 1.37837 0.736936 0
M  V30 449 H 42.6309 0.675461 3.17188 0
M  V30 450 H 42.4159 2.4466 3.06404 0
M  V30 451 H 43.9059 1.76669 3.78388 0
M  V30 452 N 44.343 -0.763751 1.37857 0
M  V30 453 C 45.591 -1.51957 1.33243 0
M  V30 454 C 45.912 -1.94835 -0.0801709 0
M  V30 455 O 45.182 -1.66894 -1.02582 0
M  V30 456 H 43.762 -0.563626 0.49024 0
M  V30 457 H 46.424 -0.908504 1.7243 0
M  V30 458 H 45.52 -2.41523 1.97669 0
M  V30 459 N 45.8211 -1.22559 -0.990812 0
M  V30 460 C 47.0691 -1.04933 -1.72724 0
M  V30 461 C 47.3901 0.416158 -1.90508 0
M  V30 462 O 46.6601 1.29918 -1.46622 0
M  V30 463 H 45.2401 -0.385296 -0.639965 0
M  V30 464 H 47.9021 -1.54105 -1.19322 0
M  V30 465 H 46.9981 -1.52886 -2.72089 0
M  V30 466 N 47.2992 1.18797 -1.03562 0
M  V30 467 C 48.2622 2.20464 -0.626769 0
M  V30 468 C 49.2622 1.57721 0.313173 0
M  V30 469 O 50.4522 1.73917 0.0992615 0
M  V30 470 C 47.5842 3.40802 0.0818498 0
M  V30 471 H 48.7772 2.58149 -1.5264 0
M  V30 472 H 46.3302 1.32593 -0.827578 0
M  V30 473 H 47.0652 3.08642 0.995518 0
M  V30 474 H 46.8502 3.8758 -0.593652 0
M  V30 475 H 48.3402 4.16092 0.354584 0
M  V30 476 N 48.7773 0.814389 1.34928 0
M  V30 477 C 50.1883 0.458364 1.80986 0
M  V30 478 C 50.5393 -1.02042 1.67577 0
M  V30 479 O 49.6643 -1.79352 1.21086 0
M  V30 480 C 50.2593 0.825212 3.28597 0
M  V30 481 C 48.8183 0.521677 3.72767 0
M  V30 482 C 47.9653 1.04668 2.56788 0
M  V30 483 H 50.9163 1.00533 1.22795 0
M  V30 484 H 50.9373 0.12571 3.80292 0
M  V30 485 H 50.4493 1.90154 3.38324 0
M  V30 486 H 48.5503 -0.545589 3.68584 0
M  V30 487 H 48.6633 1.05977 4.67232 0
M  V30 488 H 47.0273 0.468622 2.50352 0
M  V30 489 H 47.8103 2.12927 2.6929 0
M  V30 490 N 50.2554 -1.46986 0.568584 0
M  V30 491 C 51.4804 -2.07335 0.0520528 0
M  V30 492 C 51.9054 -1.41675 -1.23733 0
M  V30 493 O 51.2634 -0.495623 -1.74394 0
M  V30 494 C 51.3114 -3.60417 -0.11501 0
M  V30 495 O 50.4154 -3.95309 -1.17492 0
M  V30 496 H 49.7564 -0.661597 0.0564385 0
M  V30 497 H 52.2864 -1.88837 0.787507 0
M  V30 498 H 52.2964 -4.06698 -0.325644 0
M  V30 499 H 50.9714 -4.07601 0.826675 0
M  V30 500 H 49.5484 -3.60757 -0.943869 0
M  V30 501 N 51.7335 -0.305618 -1.54608 0
M  V30 502 C 52.9795 0.302746 -2.00528 0
M  V30 503 C 53.3125 1.53184 -1.19367 0
M  V30 504 O 52.5875 1.92598 -0.271321 0
M  V30 505 C 52.8705 0.654756 -3.54097 0
M  V30 506 C 52.7235 -0.583793 -4.45995 0
M  V30 507 C 54.0425 1.47947 -4.14487 0
M  V30 508 H 51.1615 0.108564 -0.72896 0
M  V30 509 H 53.8035 -0.418634 -1.85331 0
M  V30 510 H 51.9535 1.26935 -3.67178 0
M  V30 511 H 53.6255 -1.22224 -4.44814 0
M  V30 512 H 51.8685 -1.21615 -4.16404 0
M  V30 513 H 52.5395 -0.293287 -5.5122 0
M  V30 514 H 55.0155 0.96013 -4.04871 0
M  V30 515 H 53.8915 1.69454 -5.22088 0
M  V30 516 H 54.1525 2.47011 -3.66658 0
M  V30 517 N 53.2116 1.57565 -0.0334293 0
M  V30 518 C 54.4596 1.91598 0.642999 0
M  V30 519 C 54.7806 0.910847 1.7242 0
M  V30 520 O 54.0506 -0.0469931 1.95844 0
M  V30 521 H 52.6306 0.707228 0.240496 0
M  V30 522 H 55.2926 1.94726 -0.0822488 0
M  V30 523 H 54.3886 2.92336 1.09298 0
M  V30 524 N 54.6897 -0.239769 1.55765 0
M  V30 525 C 55.9387 -0.964754 1.77131 0
M  V30 526 C 56.2517 -1.86213 0.59868 0
M  V30 527 O 57.4577 -2.6244 0.695522 0
M  V30 528 C 55.9137 -1.76552 3.1362 0
M  V30 529 C 55.5217 -0.915185 4.38553 0
M  V30 530 C 57.2657 -2.48281 3.44321 0
M  V30 531 C 55.1727 -1.71225 5.66071 0
M  V30 532 H 54.1027 -0.363953 0.660344 0
M  V30 533 H 56.7537 -0.219181 1.82186 0
M  V30 534 H 55.1357 -2.55331 3.02691 0
M  V30 535 H 56.3097 -0.169217 4.60489 0
M  V30 536 H 54.6247 -0.310889 4.15238 0
M  V30 537 H 57.2217 -3.08382 4.36812 0
M  V30 538 H 57.5647 -3.20256 2.65973 0
M  V30 539 H 58.0977 -1.76507 3.56497 0
M  V30 540 H 54.8367 -1.03612 6.4726 0
M  V30 541 H 54.3567 -2.43331 5.48224 0
M  V30 542 H 56.0357 -2.27758 6.05587 0
M  V30 543 N 56.1678 -1.49265 -0.50573 0
M  V30 544 C 57.1148 -1.65585 -1.6078 0
M  V30 545 C 58.0848 -0.497396 -1.58478 0
M  V30 546 O 59.2698 -0.72385 -1.76536 0
M  V30 547 C 56.4098 -1.72408 -2.98948 0
M  V30 548 C 55.5228 -2.99525 -3.11301 0
M  V30 549 C 54.6578 -2.97356 -4.40174 0
M  V30 550 C 53.6968 -4.19074 -4.46143 0
M  V30 551 N 52.8338 -4.14841 -5.66437 0
M  V30 552 H 57.6738 -2.59688 -1.46172 0
M  V30 553 H 55.2108 -1.28761 -0.711261 0
M  V30 554 H 57.1688 -1.74344 -3.79025 0
M  V30 555 H 55.7988 -0.817753 -3.1227 0
M  V30 556 H 54.8508 -3.07222 -2.24318 0
M  V30 557 H 56.1628 -3.89518 -3.11572 0
M  V30 558 H 55.3168 -2.97829 -5.28567 0
M  V30 559 H 54.0558 -2.05133 -4.42461 0
M  V30 560 H 53.0608 -4.1885 -3.56153 0
M  V30 561 H 54.2858 -5.12483 -4.45575 0
M  V30 562 H 52.2318 -3.25453 -5.69575 0
M  V30 563 H 52.1488 -4.98564 -5.68304 0
M  V30 564 H 53.4168 -4.1941 -6.57051 0
M  V30 565 N 57.6459 0.756429 -1.3826 0
M  V30 566 C 58.6089 1.85176 -1.35065 0
M  V30 567 C 59.6089 1.58818 -0.251703 0
M  V30 568 O 60.7989 1.66615 -0.508433 0
M  V30 569 C 57.9309 3.22596 -1.10201 0
M  V30 570 H 59.1239 1.89417 -2.3251 0
M  V30 571 H 56.6769 0.95783 -1.23512 0
M  V30 572 H 57.4119 3.24025 -0.133504 0
M  V30 573 H 57.1969 3.43122 -1.89762 0
M  V30 574 H 58.6869 4.02673 -1.10654 0
M  V30 575 N 59.124 1.23083 0.984299 0
M  V30 576 C 60.087 1.00979 2.05757 0
M  V30 577 C 61.087 -0.0269573 1.60777 0
M  V30 578 O 62.277 0.212403 1.729 0
M  V30 579 C 59.409 0.527072 3.36801 0
M  V30 580 H 60.602 1.9622 2.26799 0
M  V30 581 H 58.155 1.05072 1.15714 0
M  V30 582 H 58.89 -0.429294 3.21446 0
M  V30 583 H 58.675 1.27515 3.70786 0
M  V30 584 H 60.165 0.392942 4.15747 0
M  V30 585 N 60.6021 -1.18246 1.0419 0
M  V30 586 C 61.5501 -2.23968 0.627792 0
M  V30 587 C 62.5441 -1.65828 -0.346019 0
M  V30 588 O 63.7501 -1.78733 -0.213175 0
M  V30 589 H 60.1251 -0.728939 0.184802 0
M  V30 590 H 62.0961 -2.56202 1.52981 0
M  V30 591 C 60.8451 -3.47699 0.00796591 0
M  V30 592 H 60.1681 -3.92734 0.748347 0
M  V30 593 H 61.6081 -4.23294 -0.24455 0
M  V30 594 C 60.0671 -3.13153 -1.24246 0
M  V30 595 O 60.5971 -3.27003 -2.33307 0
M  V30 596 N 58.8031 -2.67467 -1.13622 0
M  V30 597 H 58.3501 -2.56396 -0.248734 0
M  V30 598 H 58.3081 -2.44724 -1.97377 0
M  V30 599 N 62.0802 -0.821533 -1.34494 0
M  V30 600 C 63.3282 -0.408139 -1.97936 0
M  V30 601 C 63.6492 1.03193 -1.65457 0
M  V30 602 O 62.9192 1.71622 -0.944595 0
M  V30 603 H 61.4992 -0.147928 -0.732206 0
M  V30 604 H 64.1612 -1.05067 -1.64155 0
M  V30 605 H 63.2572 -0.52601 -3.07635 0
M  V30 606 N 63.5583 1.46682 -0.576371 0
M  V30 607 C 64.8043 2.02712 -0.0596221 0
M  V30 608 C 65.1373 1.44765 1.29448 0
M  V30 609 O 64.4123 0.610355 1.84675 0
M  V30 610 C 64.6953 3.60098 0.0129503 0
M  V30 611 C 64.5483 4.28441 -1.3696 0
M  V30 612 C 65.8673 4.34224 0.71678 0
M  V30 613 H 62.9863 0.736637 -0.0231407 0
M  V30 614 H 65.6283 1.74898 -0.742351 0
M  V30 615 H 63.7783 3.83926 0.594378 0
M  V30 616 H 65.4503 4.15896 -1.9957 0
M  V30 617 H 63.6933 3.8805 -1.93907 0
M  V30 618 H 64.3643 5.3716 -1.27135 0
M  V30 619 H 66.8403 4.15503 0.222908 0
M  V30 620 H 65.7163 5.43936 0.73657 0
M  V30 621 H 65.9773 4.04823 1.77682 0
M  V30 622 N 65.0364 0.313813 1.54444 0
M  V30 623 C 66.2824 -0.292108 2.00685 0
M  V30 624 C 66.6154 -1.52548 1.20177 0
M  V30 625 O 65.8904 -1.92452 0.281531 0
M  V30 626 C 66.1734 -0.635968 3.5444 0
M  V30 627 C 66.0264 0.607437 4.4568 0
M  V30 628 C 67.3454 -1.45747 4.15266 0
M  V30 629 H 64.4644 -0.104697 0.729526 0
M  V30 630 H 67.1064 0.428457 1.85106 0
M  V30 631 H 65.2564 -1.24986 3.67846 0
M  V30 632 H 66.9284 1.24581 4.44159 0
M  V30 633 H 65.1714 1.23822 4.15753 0
M  V30 634 H 65.8424 0.322515 5.51057 0
M  V30 635 H 68.3184 -0.938645 4.05375 0
M  V30 636 H 67.1944 -1.66683 5.2298 0
M  V30 637 H 67.4554 -2.45063 3.67963 0
M  V30 638 N 66.5145 -1.57545 0.0417849 0
M  V30 639 C 67.4445 -2.14009 -0.933929 0
M  V30 640 C 68.4255 -1.05938 -1.33083 0
M  V30 641 O 69.6105 -1.33833 -1.40721 0
M  V30 642 C 66.7405 -2.67747 -2.21199 0
M  V30 643 C 65.6945 -3.80718 -1.95544 0
M  V30 644 C 65.0205 -4.20935 -3.29724 0
M  V30 645 C 66.3205 -5.06258 -1.28452 0
M  V30 646 H 68.0145 -2.95788 -0.463645 0
M  V30 647 H 65.5605 -1.42285 -0.221573 0
M  V30 648 H 67.5135 -3.05886 -2.89848 0
M  V30 649 H 66.2375 -1.83147 -2.70416 0
M  V30 650 H 64.8965 -3.43037 -1.2931 0
M  V30 651 H 64.5445 -3.33298 -3.76724 0
M  V30 652 H 64.2445 -4.9707 -3.13361 0
M  V30 653 H 65.7685 -4.61666 -3.9962 0
M  V30 654 H 67.1825 -5.41903 -1.8712 0
M  V30 655 H 65.5795 -5.87475 -1.22445 0
M  V30 656 H 66.6495 -4.84207 -0.259219 0
M  V30 657 N 67.9926 0.231505 -1.5589 0
M  V30 658 C 68.9556 1.27028 -1.90779 0
M  V30 659 C 69.9556 1.40308 -0.785507 0
M  V30 660 O 71.1456 1.38744 -1.05336 0
M  V30 661 C 68.2776 2.64566 -2.14983 0
M  V30 662 H 69.4706 0.973017 -2.83677 0
M  V30 663 H 67.0236 0.471486 -1.49019 0
M  V30 664 H 67.7586 2.99406 -1.24604 0
M  V30 665 H 67.5436 2.56305 -2.96732 0
M  V30 666 H 69.0336 3.39543 -2.43105 0
M  V30 667 N 69.4707 1.49531 0.497807 0
M  V30 668 C 70.6987 1.62893 1.27567 0
M  V30 669 C 71.1137 0.301585 1.86376 0
M  V30 670 O 70.4707 -0.713335 1.67982 0
M  V30 671 C 70.5217 2.70013 2.40364 0
M  V30 672 O 70.2427 3.976 1.83972 0
M  V30 673 C 71.7437 2.94109 3.31685 0
M  V30 674 H 68.9637 0.548298 0.386794 0
M  V30 675 H 71.5077 1.95584 0.597245 0
M  V30 676 H 69.6627 2.40092 3.04031 0
M  V30 677 H 70.0767 4.56631 2.58047 0
M  V30 678 H 71.5507 3.72788 4.07104 0
M  V30 679 H 72.0277 2.04147 3.88871 0
M  V30 680 H 72.6337 3.2546 2.73781 0
M  V30 681 N 70.9488 -0.749086 1.3866 0
M  V30 682 C 71.8588 -1.89358 1.38494 0
M  V30 683 C 72.8748 -1.71708 0.281476 0
M  V30 684 O 74.0508 -1.94554 0.520643 0
M  V30 685 C 71.1158 -3.24782 1.21316 0
M  V30 686 C 70.1768 -3.54926 2.41508 0
M  V30 687 C 69.4098 -4.83888 2.2514 0
M  V30 688 O 69.6328 -5.56592 1.24746 0
M  V30 689 O 68.5668 -5.13612 3.13826 0
M  V30 690 H 72.3928 -1.92452 2.34938 0
M  V30 691 H 69.9778 -0.894981 1.19626 0
M  V30 692 H 71.8598 -4.05739 1.13814 0
M  V30 693 H 70.5348 -3.2249 0.279592 0
M  V30 694 H 69.4418 -2.74112 2.54585 0
M  V30 695 H 70.7748 -3.61983 3.3351 0
M  V30 696 N 72.4269 -1.23603 -0.977757 0
M  V30 697 C 73.3739 -1.01954 -2.07061 0
M  V30 698 C 74.3439 0.0638697 -1.65977 0
M  V30 699 O 75.5289 -0.0887624 -1.90593 0
M  V30 700 C 72.6689 -0.619658 -3.39491 0
M  V30 701 C 71.7819 -1.77547 -3.93829 0
M  V30 702 C 70.9169 -1.32212 -5.14484 0
M  V30 703 C 69.9559 -2.44852 -5.60994 0
M  V30 704 N 69.0929 -2.00456 -6.72876 0
M  V30 705 H 73.9329 -1.95495 -2.24913 0
M  V30 706 H 71.4699 -0.973861 -1.10247 0
M  V30 707 H 73.4279 -0.368898 -4.15566 0
M  V30 708 H 72.0579 0.278752 -3.21594 0
M  V30 709 H 71.1099 -2.14016 -3.14486 0
M  V30 710 H 72.4219 -2.62219 -4.24314 0
M  V30 711 H 71.5759 -1.02965 -5.97899 0
M  V30 712 H 70.3149 -0.445808 -4.85658 0
M  V30 713 H 69.3199 -2.74871 -4.76157 0
M  V30 714 H 70.5449 -3.33024 -5.91837 0
M  V30 715 H 68.4909 -1.15208 -6.45804 0
M  V30 716 H 68.4079 -2.78687 -7.02759 0
M  V30 717 H 69.6759 -1.7432 -7.59758 0
M  V30 718 N 73.905 1.17692 -1.04816 0
M  V30 719 C 74.852 2.21581 -0.645797 0
M  V30 720 C 75.822 1.62367 0.350159 0
M  V30 721 O 77.007 1.89254 0.242433 0
M  V30 722 C 74.147 3.45092 -0.0227568 0
M  V30 723 C 73.26 4.18613 -1.06709 0
M  V30 724 C 72.395 5.29602 -0.411767 0
M  V30 725 C 71.434 5.94904 -1.44067 0
M  V30 726 N 70.571 6.97414 -0.809781 0
M  V30 727 H 75.411 2.55353 -1.5362 0
M  V30 728 H 72.948 1.25438 -0.768364 0
M  V30 729 H 74.906 4.15679 0.35588 0
M  V30 730 H 73.536 3.11917 0.831122 0
M  V30 731 H 72.588 3.46779 -1.5636 0
M  V30 732 H 73.9 4.63293 -1.84827 0
M  V30 733 H 73.054 6.06696 0.0206623 0
M  V30 734 H 71.793 4.86045 0.401438 0
M  V30 735 H 70.798 5.16544 -1.88316 0
M  V30 736 H 72.023 6.40542 -2.25571 0
M  V30 737 H 69.969 6.55998 -0.0170186 0
M  V30 738 H 69.886 7.40386 -1.52856 0
M  V30 739 H 71.154 7.78463 -0.401999 0
M  V30 740 N 75.3831 0.828654 1.34056 0
M  V30 741 C 76.3151 0.212052 2.28217 0
M  V30 742 C 77.3281 -0.601362 1.51286 0
M  V30 743 O 78.5171 -0.430104 1.73241 0
M  V30 744 C 75.6171 -0.72088 3.31144 0
M  V30 745 C 74.7901 0.0509587 4.3737 0
M  V30 746 C 73.8491 -0.803766 5.20025 0
M  V30 747 O 72.8751 -0.246667 5.68665 0
M  V30 748 N 74.0771 -2.1227 5.40298 0
M  V30 749 H 76.8421 1.02105 2.81771 0
M  V30 750 H 74.4031 0.686153 1.46641 0
M  V30 751 H 76.3951 -1.29742 3.8334 0
M  V30 752 H 74.9651 -1.43061 2.77943 0
M  V30 753 H 74.1851 0.808831 3.85813 0
M  V30 754 H 75.4731 0.582065 5.0546 0
M  V30 755 H 74.8711 -2.59898 5.02464 0
M  V30 756 H 73.4281 -2.64796 5.95589 0
M  V30 757 N 76.8612 -1.46375 0.584142 0
M  V30 758 C 77.8082 -2.30323 -0.148286 0
M  V30 759 C 78.7782 -1.40703 -0.882713 0
M  V30 760 O 79.9632 -1.69651 -0.873099 0
M  V30 761 C 77.1032 -3.25196 -1.15507 0
M  V30 762 C 76.2162 -4.29915 -0.423943 0
M  V30 763 C 75.3512 -5.11914 -1.41838 0
M  V30 764 C 74.3902 -6.08381 -0.673736 0
M  V30 765 N 73.5272 -6.83242 -1.6163 0
M  V30 766 H 78.3672 -2.92427 0.573644 0
M  V30 767 H 75.9042 -1.44118 0.294703 0
M  V30 768 H 77.8622 -3.78646 -1.75166 0
M  V30 769 H 76.4922 -2.64898 -1.8447 0
M  V30 770 H 75.5442 -3.7931 0.287714 0
M  V30 771 H 76.8562 -4.98549 0.158128 0
M  V30 772 H 76.0102 -5.69648 -2.08773 0
M  V30 773 H 74.7492 -4.43243 -2.03438 0
M  V30 774 H 73.7542 -5.49799 0.00938483 0
M  V30 775 H 74.9792 -6.79071 -0.0631082 0
M  V30 776 H 72.9252 -6.1728 -2.22038 0
M  V30 777 H 72.8422 -7.48144 -1.08707 0
M  V30 778 H 74.1102 -7.45534 -2.27596 0
M  V30 779 N 78.3393 -0.321999 -1.54275 0
M  V30 780 C 79.5643 0.285791 -2.05422 0
M  V30 781 C 79.9893 1.45124 -1.19669 0
M  V30 782 O 79.3473 1.80132 -0.205441 0
M  V30 783 C 79.3953 0.69956 -3.53749 0
M  V30 784 O 78.4993 1.8021 -3.70942 0
M  V30 785 H 77.8403 0.0518962 -0.661969 0
M  V30 786 H 80.3703 -0.469954 -1.9913 0
M  V30 787 H 80.3803 0.982649 -3.9599 0
M  V30 788 H 79.0553 -0.152864 -4.15619 0
M  V30 789 H 77.6323 1.51794 -3.40607 0
M  V30 790 N 79.8174 1.5752 -0.0501392 0
M  V30 791 C 81.0664 1.91827 0.623328 0
M  V30 792 C 81.3794 0.930222 1.72065 0
M  V30 793 O 82.5854 1.1653 2.4522 0
M  V30 794 C 81.0414 3.40692 1.16003 0
M  V30 795 C 80.6494 4.479 0.0948811 0
M  V30 796 C 82.3934 3.84034 1.80881 0
M  V30 797 C 80.3004 5.87879 0.644411 0
M  V30 798 H 79.2304 0.715918 0.236596 0
M  V30 799 H 81.8814 1.83115 -0.118861 0
M  V30 800 H 80.2634 3.44405 1.9545 0
M  V30 801 H 81.4374 4.55775 -0.678675 0
M  V30 802 H 79.7524 4.13892 -0.45637 0
M  V30 803 H 82.3494 4.85984 2.22988 0
M  V30 804 H 82.6924 3.20225 2.6601 0
M  V30 805 H 83.2254 3.82833 1.0809 0
M  V30 806 H 79.9644 6.55282 -0.169229 0
M  V30 807 H 79.4844 5.83567 1.38598 0
M  V30 808 H 81.1634 6.37098 1.12763 0
M  V30 809 N 81.2955 -0.223234 1.56011 0
M  V30 810 C 82.2255 -1.27988 1.95298 0
M  V30 811 C 83.2065 -1.48976 0.820979 0
M  V30 812 O 84.3915 -1.61188 1.08315 0
M  V30 813 C 81.5215 -2.63 2.26822 0
M  V30 814 C 80.4755 -2.56671 3.42497 0
M  V30 815 C 79.8015 -3.95697 3.59622 0
M  V30 816 C 81.1015 -2.11601 4.77517 0
M  V30 817 H 82.7955 -0.953525 2.8381 0
M  V30 818 H 80.3415 -0.457244 1.36548 0
M  V30 819 H 82.2945 -3.37077 2.52898 0
M  V30 820 H 81.0185 -2.9732 1.35161 0
M  V30 821 H 79.6775 -1.85051 3.16467 0
M  V30 822 H 79.3255 -4.27322 2.6534 0
M  V30 823 H 79.0255 -3.92345 4.37424 0
M  V30 824 H 80.5495 -4.71438 3.88044 0
M  V30 825 H 81.9635 -2.7542 5.02809 0
M  V30 826 H 80.3605 -2.19311 5.5859 0
M  V30 827 H 81.4305 -1.06824 4.72987 0
M  V30 828 N 82.7736 -1.49793 -0.48987 0
M  V30 829 C 84.0036 -1.6333 -1.26518 0
M  V30 830 C 84.4116 -0.308392 -1.8667 0
M  V30 831 O 83.7546 0.717512 -1.69108 0
M  V30 832 C 83.8166 -2.6522 -2.4269 0
M  V30 833 C 83.4806 -4.09279 -2.03321 0
M  V30 834 C 84.4776 -4.95738 -1.56652 0
M  V30 835 C 82.1626 -4.55082 -2.12616 0
M  V30 836 C 84.1566 -6.26041 -1.19795 0
M  V30 837 C 81.8436 -5.85396 -1.75371 0
M  V30 838 C 82.8416 -6.707 -1.29036 0
M  V30 839 O 82.5296 -7.98584 -0.92299 0
M  V30 840 H 82.2616 -0.552502 -0.389509 0
M  V30 841 H 84.8156 -1.96642 -0.593381 0
M  V30 842 H 83.0456 -2.27112 -3.12981 0
M  V30 843 H 84.7346 -2.68171 -3.04695 0
M  V30 844 H 85.5006 -4.61575 -1.48908 0
M  V30 845 H 81.3796 -3.88844 -2.47631 0
M  V30 846 H 84.9236 -6.92578 -0.835582 0
M  V30 847 H 80.8206 -6.19085 -1.82768 0
M  V30 848 H 81.5886 -8.11692 -1.05349 0
M  V30 849 N 84.2517 0.741722 -1.39055 0
M  V30 850 C 85.5287 1.49252 -1.26425 0
M  V30 851 C 85.9087 2.10705 0.129144 0
M  V30 852 O 85.2567 1.98045 1.13976 0
M  V30 853 C 85.4667 2.54934 -2.38347 0
M  V30 854 C 86.8147 3.21506 -2.77343 0
M  V30 855 O 87.8387 2.65245 -2.37747 0
M  V30 856 O 86.6977 4.23294 -3.45665 0
M  V30 857 H 83.7917 0.662451 -0.495064 0
M  V30 858 H 86.3377 0.776121 -1.50912 0
M  V30 859 H 85.1097 2.07857 -3.31529 0
M  V30 860 H 84.7327 3.34141 -2.15489 0
M  V30 861 N 85.7298 1.2412 0.971189 0
M  V30 862 C 86.6398 1.04747 2.09917 0
M  V30 863 C 87.6558 -0.0107162 1.73997 0
M  V30 864 O 88.8318 0.186714 2.00533 0
M  V30 865 C 85.8968 0.650828 3.40537 0
M  V30 866 C 84.9578 1.7851 3.90426 0
M  V30 867 C 84.1908 1.40729 5.14812 0
M  V30 868 O 84.4138 0.29557 5.69634 0
M  V30 869 O 83.3478 2.23168 5.58999 0
M  V30 870 H 87.1738 1.99304 2.29154 0
M  V30 871 H 84.7588 1.02908 1.08307 0
M  V30 872 H 86.6408 0.440992 4.19086 0
M  V30 873 H 85.3158 -0.265649 3.22608 0
M  V30 874 H 84.2228 2.04966 3.12953 0
M  V30 875 H 85.5558 2.68023 4.12825 0
M  V30 876 N 87.2079 -1.17134 1.05439 0
M  V30 877 C 88.6239 -1.39454 0.776201 0
M  V30 878 C 88.8239 -1.91454 -0.628307 0
M  V30 879 O 87.8799 -2.10777 -1.39031 0
M  V30 880 C 89.1929 -2.38305 1.83388 0
M  V30 881 C 90.7409 -2.52006 1.85639 0
M  V30 882 C 91.2159 -3.54133 2.90437 0
M  V30 883 N 92.7069 -3.61653 2.89415 0
M  V30 884 C 93.4419 -4.4044 3.67152 0
M  V30 885 N 92.9379 -5.22721 4.54681 0
M  V30 886 N 94.7309 -4.35337 3.55581 0
M  V30 887 H 86.8819 -0.817134 1.96053 0
M  V30 888 H 89.1449 -0.421626 0.849079 0
M  V30 889 H 88.8509 -2.07173 2.84204 0
M  V30 890 H 88.7249 -3.37841 1.67761 0
M  V30 891 H 91.1119 -2.82447 0.85486 0
M  V30 892 H 91.1929 -1.52537 2.05344 0
M  V30 893 H 90.8369 -3.24431 3.90777 0
M  V30 894 H 90.7669 -4.53313 2.67983 0
M  V30 895 H 93.2579 -3.02909 2.25952 0
M  V30 896 H 93.5709 -5.80027 5.10674 0
M  V30 897 H 91.9159 -5.22093 4.58741 0
M  V30 898 H 95.1069 -3.70112 2.86592 0
M  V30 899 H 95.2799 -4.96494 4.1641 0
M  V30 900 N 88.686 -0.835752 -1.33615 0
M  V30 901 C 89.911 -0.442389 -2.02627 0
M  V30 902 C 90.336 0.947735 -1.62479 0
M  V30 903 O 89.694 1.61907 -0.815826 0
M  V30 904 C 89.742 -0.567216 -3.56111 0
M  V30 905 O 88.846 0.407799 -4.10379 0
M  V30 906 H 88.187 -0.180278 -0.639059 0
M  V30 907 H 90.717 -1.12972 -1.70583 0
M  V30 908 H 90.727 -0.447708 -4.05536 0
M  V30 909 H 89.402 -1.58103 -3.84677 0
M  V30 910 H 87.979 0.246107 -3.72087 0
M  V30 911 N 90.1641 1.46063 -0.591896 0
M  V30 912 C 91.4101 2.02638 -0.0811191 0
M  V30 913 C 91.7431 1.4613 1.27905 0
M  V30 914 O 91.0181 0.629908 1.84017 0
M  V30 915 C 91.3011 3.60091 -0.0252436 0
M  V30 916 C 91.1541 4.26965 -1.41496 0
M  V30 917 C 92.4731 4.3496 0.670685 0
M  V30 918 H 89.5921 0.73635 -0.0309524 0
M  V30 919 H 92.2341 1.741 -0.760859 0
M  V30 920 H 90.3841 3.84535 0.553624 0
M  V30 921 H 92.0561 4.13756 -2.0397 0
M  V30 922 H 90.2991 3.85971 -1.98011 0
M  V30 923 H 90.9701 5.35781 -1.32825 0
M  V30 924 H 93.4461 4.15716 0.178825 0
M  V30 925 H 92.3221 5.44686 0.678837 0
M  V30 926 H 92.5831 4.06685 1.73379 0
M  V30 927 N 91.6422 0.330177 1.54103 0
M  V30 928 C 92.5922 -0.548456 2.21305 0
M  V30 929 C 93.5762 -1.07651 1.19583 0
M  V30 930 O 94.7682 -1.01243 1.45186 0
M  V30 931 C 91.8972 -1.70559 2.97934 0
M  V30 932 C 90.9832 -1.19212 4.07 0
M  V30 933 N 91.3742 -0.398831 5.04225 0
M  V30 934 C 89.6722 -1.47024 4.2107 0
M  V30 935 C 90.3732 -0.121761 5.81573 0
M  V30 936 N 89.3492 -0.709722 5.38947 0
M  V30 937 H 93.1512 0.0648483 2.93828 0
M  V30 938 H 90.6652 0.136363 1.61826 0
M  V30 939 H 92.6622 -2.34688 3.44568 0
M  V30 940 H 91.3222 -2.32231 2.26934 0
M  V30 941 H 92.3332 -0.0410869 5.17884 0
M  V30 942 H 89.0102 -2.09232 3.61287 0
M  V30 943 H 90.4002 0.517298 6.69906 0
M  V30 944 N 93.1203 -1.57491 0.0584922 0
M  V30 945 C 94.0673 -2.11958 -0.913376 0
M  V30 946 C 95.0373 -1.02875 -1.30407 0
M  V30 947 O 96.2223 -1.30464 -1.39226 0
M  V30 948 C 93.3623 -2.67497 -2.18035 0
M  V30 949 C 92.4753 -3.90691 -1.84349 0
M  V30 950 C 91.6103 -4.3452 -3.05559 0
M  V30 951 C 90.6493 -5.50395 -2.67827 0
M  V30 952 N 89.7863 -5.89244 -3.81754 0
M  V30 953 H 94.6263 -2.94704 -0.442017 0
M  V30 954 H 92.1633 -1.45643 -0.206545 0
M  V30 955 H 94.1213 -2.978 -2.92183 0
M  V30 956 H 92.7513 -1.87537 -2.62735 0
M  V30 957 H 91.8033 -3.66934 -1.00319 0
M  V30 958 H 93.1153 -4.7489 -1.5258 0
M  V30 959 H 92.2693 -4.66414 -3.87998 0
M  V30 960 H 91.0083 -3.49147 -3.40511 0
M  V30 961 H 90.0133 -5.18165 -1.83806 0
M  V30 962 H 91.2383 -6.3749 -2.34059 0
M  V30 963 H 89.1843 -5.06823 -4.16493 0
M  V30 964 H 89.1013 -6.68151 -3.53708 0
M  V30 965 H 90.3693 -6.25756 -4.64811 0
M  V30 966 N 94.5984 0.214957 -1.56127 0
M  V30 967 C 95.8444 0.939762 -1.79712 0
M  V30 968 C 96.1774 1.83723 -0.629247 0
M  V30 969 O 95.4524 1.90925 0.371197 0
M  V30 970 C 95.7354 1.77306 -3.13424 0
M  V30 971 C 95.5884 0.90164 -4.40671 0
M  V30 972 C 96.9074 2.74956 -3.43638 0
M  V30 973 H 94.0264 0.340214 -0.653776 0
M  V30 974 H 96.6684 0.20824 -1.88855 0
M  V30 975 H 94.8184 2.39673 -3.0576 0
M  V30 976 H 96.4904 0.294206 -4.60361 0
M  V30 977 H 94.7334 0.207368 -4.33304 0
M  V30 978 H 95.4044 1.51923 -5.30682 0
M  V30 979 H 97.8804 2.22724 -3.51473 0
M  V30 980 H 96.7564 3.30358 -4.38355 0
M  V30 981 H 97.0174 3.53023 -2.66134 0
M  V30 982 N 96.0765 1.50051 0.48192 0
M  V30 983 C 96.9865 1.7089 1.60728 0
M  V30 984 C 98.0025 0.591788 1.63627 0
M  V30 985 O 99.1785 0.868817 1.81696 0
M  V30 986 C 96.2435 1.78855 2.97005 0
M  V30 987 C 95.3045 3.02537 3.04581 0
M  V30 988 C 94.5375 3.10112 4.34357 0
M  V30 989 O 94.7605 2.24765 5.24249 0
M  V30 990 O 93.6945 4.02747 4.47301 0
M  V30 991 H 97.5205 2.66264 1.46072 0
M  V30 992 H 95.1055 1.34018 0.660264 0
M  V30 993 H 96.9875 1.86336 3.77964 0
M  V30 994 H 95.6625 0.866628 3.11883 0
M  V30 995 H 94.5695 3.00563 2.22739 0
M  V30 996 H 95.9025 3.94272 2.94636 0
M  V30 997 N 97.5546 -0.734337 1.39446 0
M  V30 998 C 98.9656 -1.31264 1.32766 0
M  V30 999 C 99.3166 -1.96198 -0.00767497 0
M  V30 1000 O 98.4416 -1.96346 -0.909796 0
M  V30 1001 C 99.0366 -2.38682 2.4045 0
M  V30 1002 C 97.5956 -2.92184 2.37288 0
M  V30 1003 C 96.7426 -1.6576 2.22304 0
M  V30 1004 H 99.6936 -0.531799 1.49525 0
M  V30 1005 H 99.7146 -3.19087 2.07276 0
M  V30 1006 H 99.2266 -1.91392 3.37625 0
M  V30 1007 H 97.3276 -3.43752 1.43754 0
M  V30 1008 H 97.4406 -3.45253 3.3217 0
M  V30 1009 H 95.8046 -1.9012 1.69489 0
M  V30 1010 H 96.5876 -1.20521 3.21449 0
M  V30 1011 N 99.0327 -1.24633 -0.964593 0
M  V30 1012 C 100.282 -1.08188 -1.7023 0
M  V30 1013 C 100.595 0.37873 -1.91898 0
M  V30 1014 O 101.801 0.663427 -2.6327 0
M  V30 1015 C 100.257 -1.88773 -3.06419 0
M  V30 1016 C 99.8647 -3.39263 -2.92582 0
M  V30 1017 C 101.609 -1.80867 -3.84041 0
M  V30 1018 C 99.5157 -4.1218 -4.24101 0
M  V30 1019 H 98.4457 -0.401245 -0.638372 0
M  V30 1020 H 101.097 -1.48742 -1.07462 0
M  V30 1021 H 99.4787 -1.41035 -3.70034 0
M  V30 1022 H 100.653 -3.94603 -2.37961 0
M  V30 1023 H 98.9677 -3.48154 -2.28424 0
M  V30 1024 H 101.565 -2.32646 -4.81435 0
M  V30 1025 H 101.908 -0.774543 -4.09031 0
M  V30 1026 H 102.441 -2.26301 -3.27159 0
M  V30 1027 H 99.1797 -5.15965 -4.04303 0
M  V30 1028 H 98.6997 -3.61626 -4.78526 0
M  V30 1029 H 100.379 -4.19349 -4.92702 0
M  V30 1030 N 100.511 1.16574 -1.06058 0
M  V30 1031 C 101.739 1.90952 -0.796552 0
M  V30 1032 C 102.154 1.77302 0.648808 0
M  V30 1033 O 101.511 1.11605 1.44397 0
M  V30 1034 C 101.562 3.41736 -1.17894 0
M  V30 1035 O 101.283 3.54975 -2.56758 0
M  V30 1036 C 102.784 4.33169 -0.942308 0
M  V30 1037 H 100.004 0.605594 -0.288959 0
M  V30 1038 H 102.548 1.47777 -1.41358 0
M  V30 1039 H 100.703 3.82623 -0.606491 0
M  V30 1040 H 101.117 4.4846 -2.72 0
M  V30 1041 H 102.591 5.37439 -1.25952 0
M  V30 1042 H 103.068 4.3903 0.122078 0
M  V30 1043 H 103.674 3.98007 -1.49902 0
M  V30 1044 N 101.989 0.842826 1.3317 0
M  V30 1045 C 102.936 0.276885 2.29133 0
M  V30 1046 C 103.906 -0.609527 1.54512 0
M  V30 1047 O 105.091 -0.546955 1.82792 0
M  V30 1048 C 102.231 -0.538707 3.40869 0
M  V30 1049 C 101.344 0.372169 4.30394 0
M  V30 1050 C 100.479 -0.454908 5.29249 0
M  V30 1051 C 99.5179 0.45411 6.10413 0
M  V30 1052 N 98.6549 -0.335075 7.013 0
M  V30 1053 H 103.495 1.10052 2.76934 0
M  V30 1054 H 101.032 0.554161 1.36262 0
M  V30 1055 H 102.99 -1.02709 4.0436 0
M  V30 1056 H 101.62 -1.32727 2.9425 0
M  V30 1057 H 100.672 0.97888 3.6759 0
M  V30 1058 H 101.984 1.0703 4.87182 0
M  V30 1059 H 101.138 -1.00695 5.98285 0
M  V30 1060 H 99.8769 -1.18646 4.73048 0
M  V30 1061 H 98.8819 1.01813 5.40291 0
M  V30 1062 H 100.107 1.18409 6.68697 0
M  V30 1063 H 98.0529 -1.04994 6.47543 0
M  V30 1064 H 97.9699 0.304262 7.55387 0
M  V30 1065 H 99.2379 -0.869224 7.74638 0
M  V30 1066 N 103.467 -1.45747 0.599634 0
M  V30 1067 C 104.417 -2.27538 -0.145107 0
M  V30 1068 C 105.401 -1.3686 -0.846055 0
M  V30 1069 O 106.593 -1.6091 -0.737357 0
M  V30 1070 C 103.722 -3.23569 -1.14708 0
M  V30 1071 C 102.808 -4.21734 -0.447383 0
M  V30 1072 N 103.199 -5.03257 0.506535 0
M  V30 1073 C 101.497 -4.40536 -0.695966 0
M  V30 1074 C 102.198 -5.74426 0.917068 0
M  V30 1075 N 101.174 -5.42966 0.26253 0
M  V30 1076 H 104.976 -2.87965 0.587672 0
M  V30 1077 H 102.49 -1.56803 0.422697 0
M  V30 1078 H 104.487 -3.8089 -1.69495 0
M  V30 1079 H 103.147 -2.64702 -1.8805 0
M  V30 1080 H 104.158 -5.10319 0.882899 0
M  V30 1081 H 100.835 -3.92802 -1.41467 0
M  V30 1082 H 102.225 -6.4995 1.70338 0
M  V30 1083 N 104.945 -0.338344 -1.53925 0
M  V30 1084 C 106.194 0.260732 -2.00008 0
M  V30 1085 C 106.507 1.52073 -1.23017 0
M  V30 1086 O 107.713 2.19672 -1.5955 0
M  V30 1087 C 106.169 0.51515 -3.56194 0
M  V30 1088 C 105.777 -0.728645 -4.42035 0
M  V30 1089 C 107.521 1.07337 -4.10706 0
M  V30 1090 C 105.428 -0.445315 -5.89721 0
M  V30 1091 H 104.358 0.101205 -0.747177 0
M  V30 1092 H 107.009 -0.452866 -1.77824 0
M  V30 1093 H 105.391 1.28932 -3.74423 0
M  V30 1094 H 106.565 -1.50352 -4.35581 0
M  V30 1095 H 104.88 -1.20813 -3.98489 0
M  V30 1096 H 107.477 1.30022 -5.18651 0
M  V30 1097 H 107.82 2.0273 -3.63602 0
M  V30 1098 H 108.353 0.360034 -3.96167 0
M  V30 1099 H 105.092 -1.36883 -6.41049 0
M  V30 1100 H 104.612 0.291569 -5.99091 0
M  V30 1101 H 106.291 -0.0606218 -6.46972 0
M  V30 1102 N 106.423 1.57458 -0.0668435 0
M  V30 1103 C 107.671 1.92919 0.602214 0
M  V30 1104 C 107.992 0.947215 1.70449 0
M  V30 1105 O 107.262 -0.00544117 1.95899 0
M  V30 1106 H 105.842 0.71217 0.22544 0
M  V30 1107 H 108.504 1.94508 -0.123535 0
M  V30 1108 H 107.6 2.94589 1.03073 0
M  V30 1109 N 107.901 -0.206675 1.56239 0
M  V30 1110 C 108.831 -1.25909 1.96645 0
M  V30 1111 C 109.812 -1.48097 0.836734 0
M  V30 1112 O 110.997 -1.6003 1.10019 0
M  V30 1113 C 108.127 -2.6058 2.29599 0
M  V30 1114 C 107.081 -2.53024 3.452 0
M  V30 1115 C 106.407 -3.91861 3.63798 0
M  V30 1116 C 107.707 -2.06524 4.79734 0
M  V30 1117 H 109.401 -0.923369 2.84806 0
M  V30 1118 H 106.947 -0.442735 1.37025 0
M  V30 1119 H 108.9 -3.34375 2.56459 0
M  V30 1120 H 107.624 -2.95869 1.38307 0
M  V30 1121 H 106.283 -1.81684 3.18412 0
M  V30 1122 H 105.931 -4.24483 2.69857 0
M  V30 1123 H 105.631 -3.87683 4.4156 0
M  V30 1124 H 107.155 -4.67296 3.93022 0
M  V30 1125 H 108.569 -2.70072 5.05702 0
M  V30 1126 H 106.966 -2.13374 5.60885 0
M  V30 1127 H 108.036 -1.01802 4.74093 0
M  V30 1128 N 109.379 -1.50304 -0.473955 0
M  V30 1129 C 110.625 -1.61389 -1.22806 0
M  V30 1130 C 110.958 -0.311955 -1.91678 0
M  V30 1131 O 110.233 0.686384 -1.81986 0
M  V30 1132 C 110.516 -2.79219 -2.27396 0
M  V30 1133 C 110.369 -4.19286 -1.62848 0
M  V30 1134 C 111.688 -2.92614 -3.28732 0
M  V30 1135 H 108.807 -0.587399 -0.445119 0
M  V30 1136 H 111.449 -1.82681 -0.522265 0
M  V30 1137 H 109.599 -2.61195 -2.87592 0
M  V30 1138 H 111.271 -4.48892 -1.06271 0
M  V30 1139 H 109.514 -4.23677 -0.931693 0
M  V30 1140 H 110.185 -4.97655 -2.38838 0
M  V30 1141 H 112.661 -3.09105 -2.78556 0
M  V30 1142 H 111.537 -3.76688 -3.99246 0
M  V30 1143 H 111.798 -2.03107 -3.92683 0
M  V30 1144 N 110.857 0.726932 -1.39834 0
M  V30 1145 C 112.087 1.51393 -1.40583 0
M  V30 1146 C 112.495 1.892 -0.000740625 0
M  V30 1147 O 111.838 1.55189 0.982951 0
M  V30 1148 C 111.9 2.82588 -2.22226 0
M  V30 1149 C 111.564 2.67169 -3.70769 0
M  V30 1150 C 112.561 2.3518 -4.63666 0
M  V30 1151 C 110.246 2.83788 -4.14451 0
M  V30 1152 C 112.24 2.20002 -5.98229 0
M  V30 1153 C 109.927 2.68229 -5.49087 0
M  V30 1154 C 110.925 2.36382 -6.4079 0
M  V30 1155 O 110.613 2.2093 -7.72946 0
M  V30 1156 H 110.345 0.474168 -0.48181 0
M  V30 1157 H 112.899 0.905247 -1.84376 0
M  V30 1158 H 111.129 3.45746 -1.73195 0
M  V30 1159 H 112.818 3.44247 -2.15055 0
M  V30 1160 H 113.584 2.21984 -4.31217 0
M  V30 1161 H 109.463 3.07566 -3.43401 0
M  V30 1162 H 113.007 1.95067 -6.69772 0
M  V30 1163 H 108.904 2.81006 -5.81125 0
M  V30 1164 H 109.672 2.35937 -7.83757 0
M  V30 1165 N 112.336 1.25143 0.95797 0
M  V30 1166 C 113.561 1.12521 1.74223 0
M  V30 1167 C 113.986 -0.317402 1.85403 0
M  V30 1168 O 113.344 -1.2299 1.33204 0
M  V30 1169 C 113.392 1.78062 3.1357 0
M  V30 1170 O 112.496 1.058 3.98598 0
M  V30 1171 H 111.837 0.39304 0.535178 0
M  V30 1172 H 114.367 1.65641 1.201 0
M  V30 1173 H 114.377 1.84213 3.64046 0
M  V30 1174 H 113.052 2.83021 3.04749 0
M  V30 1175 H 111.629 1.07506 3.57067 0
M  V30 1176 N 113.814 -1.1601 1.06675 0
M  V30 1177 C 115.062 -1.86264 0.784229 0
M  V30 1178 C 115.383 -1.82328 -0.691488 0
M  V30 1179 O 114.653 -1.25947 -1.50047 0
M  V30 1180 H 113.233 -0.689621 0.28711 0
M  V30 1181 H 115.895 -1.40664 1.34906 0
M  V30 1182 H 114.991 -2.91595 1.11259 0
M  V30 1183 N 115.292 -0.849877 -1.32721 0
M  V30 1184 C 116.225 -0.235903 -2.26977 0
M  V30 1185 C 117.203 0.623355 -1.50177 0
M  V30 1186 O 118.387 0.581207 -1.79316 0
M  V30 1187 C 115.514 0.667712 -3.32053 0
M  V30 1188 C 114.56 -0.11753 -4.26338 0
M  V30 1189 S 115.393 -1.48277 -5.14562 0
M  V30 1190 C 116.549 -0.584741 -6.23163 0
M  V30 1191 H 116.782 -1.03495 -2.78704 0
M  V30 1192 H 114.315 -0.64724 -1.40179 0
M  V30 1193 H 116.273 1.18343 -3.93072 0
M  V30 1194 H 114.934 1.44052 -2.7912 0
M  V30 1195 H 114.127 0.57051 -5.00761 0
M  V30 1196 H 113.729 -0.564668 -3.69713 0
M  V30 1197 H 116.021 0.212968 -6.77165 0
M  V30 1198 H 116.964 -1.29947 -6.96074 0
M  V30 1199 H 117.372 -0.161202 -5.6427 0
M  V30 1200 N 116.77 1.45427 -0.607355 0
M  V30 1201 C 118.018 2.01841 -0.102253 0
M  V30 1202 C 118.339 1.47832 1.27164 0
M  V30 1203 O 117.609 0.672497 1.83995 0
M  V30 1204 H 116.189 0.746188 -0.0348101 0
M  V30 1205 H 118.851 1.78229 -0.7887 0
M  V30 1206 H 117.947 3.12057 -0.0518585 0
M  V30 1207 N 118.248 0.346503 1.53744 0
M  V30 1208 C 119.659 -0.136779 1.86198 0
M  V30 1209 C 120.01 -1.49749 1.26766 0
M  V30 1210 O 119.135 -2.08417 0.582355 0
M  V30 1211 C 119.73 -0.254966 3.37839 0
M  V30 1212 C 118.289 -0.682482 3.70161 0
M  V30 1213 C 117.436 0.181981 2.76702 0
M  V30 1214 H 120.387 0.565994 1.48264 0
M  V30 1215 H 120.408 -1.08195 3.64793 0
M  V30 1216 H 119.92 0.735526 3.81066 0
M  V30 1217 H 118.021 -1.68189 3.3248 0
M  V30 1218 H 118.134 -0.470326 4.76786 0
M  V30 1219 H 116.498 -0.34615 2.52337 0
M  V30 1220 H 117.281 1.16966 3.2276 0
M  V30 1221 N 119.726 -1.57421 0.075193 0
M  V30 1222 C 121.003 -1.85029 -0.634329 0
M  V30 1223 C 121.383 -0.968305 -1.87582 0
M  V30 1224 O 120.731 -0.0354749 -2.28472 0
M  V30 1225 C 120.941 -3.35286 -0.968742 0
M  V30 1226 C 122.289 -4.02875 -1.34077 0
M  V30 1227 O 123.313 -3.40051 -1.06037 0
M  V30 1228 O 122.172 -5.13691 -1.86506 0
M  V30 1229 H 119.266 -0.7645 -0.315387 0
M  V30 1230 H 121.812 -1.69366 0.106382 0
M  V30 1231 H 120.584 -3.91203 -0.0871376 0
M  V30 1232 H 120.207 -3.56223 -1.7661 0
M  V30 1233 N 121.204 0.198386 -1.56346 0
M  V30 1234 C 122.434 0.934215 -1.84271 0
M  V30 1235 C 122.842 1.77496 -0.655125 0
M  V30 1236 O 122.185 1.7961 0.385488 0
M  V30 1237 C 122.247 1.88278 -3.06254 0
M  V30 1238 C 121.911 1.22431 -4.40295 0
M  V30 1239 C 122.908 0.602839 -5.16393 0
M  V30 1240 C 120.593 1.22915 -4.87029 0
M  V30 1241 C 122.587 -0.0050083 -6.374 0
M  V30 1242 C 120.274 0.617465 -6.07973 0
M  V30 1243 C 121.272 0.00146341 -6.83 0
M  V30 1244 O 120.96 -0.600642 -8.01653 0
M  V30 1245 H 120.692 0.278245 -0.616081 0
M  V30 1246 H 123.246 0.211626 -2.04307 0
M  V30 1247 H 121.476 2.64498 -2.82095 0
M  V30 1248 H 123.165 2.48612 -3.20853 0
M  V30 1249 H 123.931 0.591265 -4.81382 0
M  V30 1250 H 119.81 1.69801 -4.28589 0
M  V30 1251 H 123.354 -0.48643 -6.95902 0
M  V30 1252 H 119.251 0.62653 -6.42452 0
M  V30 1253 H 120.019 -0.497225 -8.16988 0
M  V30 1254 N 122.682 1.50554 0.465978 0
M  V30 1255 C 124.098 1.38093 0.800154 0
M  V30 1256 C 124.298 0.440988 1.96615 0
M  V30 1257 O 123.354 -0.114499 2.5224 0
M  V30 1258 C 124.667 2.79565 1.10742 0
M  V30 1259 C 126.215 2.88516 1.21357 0
M  V30 1260 C 126.69 4.30833 1.55393 0
M  V30 1261 N 128.181 4.33807 1.62375 0
M  V30 1262 C 128.916 5.40927 1.90225 0
M  V30 1263 N 128.412 6.58247 2.16062 0
M  V30 1264 N 130.205 5.28376 1.9177 0
M  V30 1265 H 122.356 2.10237 -0.302366 0
M  V30 1266 H 124.619 0.945203 -0.0727746 0
M  V30 1267 H 124.325 3.50208 0.323661 0
M  V30 1268 H 124.199 3.17125 2.04234 0
M  V30 1269 H 126.586 2.1809 1.98799 0
M  V30 1270 H 126.667 2.54492 0.258321 0
M  V30 1271 H 126.311 5.01799 0.784889 0
M  V30 1272 H 126.241 4.62347 2.52076 0
M  V30 1273 H 128.732 3.49212 1.44427 0
M  V30 1274 H 129.045 7.3569 2.36601 0
M  V30 1275 H 127.39 6.61413 2.13444 0
M  V30 1276 H 130.581 4.35715 1.71085 0
M  V30 1277 H 130.754 6.11944 2.13139 0
M  V30 1278 N 124.16 -0.719506 1.40217 0
M  V30 1279 C 125.406 -1.48152 1.38488 0
M  V30 1280 C 125.739 -1.94195 -0.0141867 0
M  V30 1281 O 125.014 -1.67884 -0.982096 0
M  V30 1282 C 125.297 -2.71035 2.37091 0
M  V30 1283 C 125.15 -2.30912 3.86005 0
M  V30 1284 C 126.469 -3.73182 2.33288 0
M  V30 1285 H 123.588 -0.537395 0.504357 0
M  V30 1286 H 126.23 -0.821472 1.71324 0
M  V30 1287 H 124.38 -3.27352 2.0922 0
M  V30 1288 H 126.052 -1.80107 4.24687 0
M  V30 1289 H 124.295 -1.62958 4.02029 0
M  V30 1290 H 124.966 -3.18978 4.50508 0
M  V30 1291 H 127.442 -3.26485 2.57966 0
M  V30 1292 H 126.318 -4.56806 3.04334 0
M  V30 1293 H 126.579 -4.21202 1.34317 0
M  V30 1294 N 125.638 -1.25649 -0.95132 0
M  V30 1295 C 126.568 -1.08808 -2.06599 0
M  V30 1296 C 127.549 0.00382547 -1.701 0
M  V30 1297 O 128.734 -0.166325 -1.93486 0
M  V30 1298 C 125.864 -0.709542 -3.39975 0
M  V30 1299 C 124.818 -1.75206 -3.90496 0
M  V30 1300 C 124.144 -1.22811 -5.20405 0
M  V30 1301 C 125.444 -3.15153 -4.16504 0
M  V30 1302 H 127.138 -2.02048 -2.20946 0
M  V30 1303 H 124.684 -0.972835 -1.06169 0
M  V30 1304 H 126.637 -0.578649 -4.17408 0
M  V30 1305 H 125.361 0.258556 -3.25575 0
M  V30 1306 H 124.02 -1.87145 -3.15234 0
M  V30 1307 H 123.668 -0.250145 -5.02378 0
M  V30 1308 H 123.368 -1.92492 -5.55176 0
M  V30 1309 H 124.892 -1.10968 -6.00432 0
M  V30 1310 H 126.306 -3.06349 -4.84586 0
M  V30 1311 H 124.703 -3.82333 -4.62538 0
M  V30 1312 H 125.773 -3.61966 -3.22658 0
M  V30 1313 N 127.117 1.15442 -1.07289 0
M  V30 1314 C 128.363 1.86489 -0.796846 0
M  V30 1315 C 128.696 1.82078 0.675371 0
M  V30 1316 O 127.971 1.24346 1.4956 0
M  V30 1317 C 128.254 3.35626 -1.30489 0
M  V30 1318 C 128.107 3.48673 -2.84161 0
M  V30 1319 C 129.426 4.30357 -0.920907 0
M  V30 1320 H 126.545 0.677144 -0.290939 0
M  V30 1321 H 129.187 1.35633 -1.33056 0
M  V30 1322 H 127.337 3.79068 -0.850883 0
M  V30 1323 H 129.009 3.14099 -3.37846 0
M  V30 1324 H 127.252 2.90253 -3.22391 0
M  V30 1325 H 127.923 4.53453 -3.14777 0
M  V30 1326 H 130.399 3.94871 -1.3121 0
M  V30 1327 H 129.275 5.33193 -1.30372 0
M  V30 1328 H 129.536 4.4176 0.173226 0
M  V30 1329 N 128.595 0.856903 1.32268 0
M  V30 1330 C 129.545 0.274899 2.26337 0
M  V30 1331 C 130.529 -0.580543 1.50062 0
M  V30 1332 O 131.721 -0.429559 1.71708 0
M  V30 1333 C 128.85 -0.533841 3.39124 0
M  V30 1334 C 127.936 0.334114 4.22782 0
M  V30 1335 N 128.327 1.42143 4.85416 0
M  V30 1336 C 126.625 0.124256 4.45827 0
M  V30 1337 C 127.326 1.95559 5.47843 0
M  V30 1338 N 126.302 1.25444 5.28928 0
M  V30 1339 H 130.104 1.10612 2.72291 0
M  V30 1340 H 127.618 0.703258 1.46383 0
M  V30 1341 H 129.615 -0.96722 4.05525 0
M  V30 1342 H 128.275 -1.36283 2.94715 0
M  V30 1343 H 129.286 1.80436 4.85451 0
M  V30 1344 H 125.963 -0.669837 4.12092 0
M  V30 1345 H 127.353 2.86714 6.07655 0
M  V30 1346 N 130.073 -1.45103 0.615059 0
M  V30 1347 C 131.489 -1.57137 0.279322 0
M  V30 1348 C 131.689 -1.60523 -1.21797 0
M  V30 1349 O 130.745 -1.53956 -2.00134 0
M  V30 1350 C 132.058 -2.85062 0.957083 0
M  V30 1351 C 133.606 -2.98749 0.933706 0
M  V30 1352 C 134.081 -4.29455 1.59162 0
M  V30 1353 N 135.572 -4.36231 1.55746 0
M  V30 1354 C 136.307 -5.36051 2.0356 0
M  V30 1355 N 135.803 -6.42367 2.59494 0
M  V30 1356 N 137.596 -5.27456 1.94284 0
M  V30 1357 H 129.747 -1.41148 1.58717 0
M  V30 1358 H 132.01 -0.675331 0.665306 0
M  V30 1359 H 131.716 -2.88488 2.01166 0
M  V30 1360 H 131.59 -3.7407 0.48494 0
M  V30 1361 H 133.977 -2.94886 -0.112347 0
M  V30 1362 H 134.058 -2.11132 1.44419 0
M  V30 1363 H 133.702 -4.34077 2.63704 0
M  V30 1364 H 133.632 -5.15901 1.0561 0
M  V30 1365 H 136.123 -3.60011 1.14893 0
M  V30 1366 H 136.436 -7.14793 2.93752 0
M  V30 1367 H 134.781 -6.43097 2.63537 0
M  V30 1368 H 137.972 -4.43308 1.5032 0
M  V30 1369 H 138.145 -6.05099 2.3186 0
M  V30 1370 N 131.551 -0.354651 -1.53558 0
M  V30 1371 C 132.514 0.484566 -2.24019 0
M  V30 1372 C 133.514 1.01861 -1.24422 0
M  V30 1373 O 134.704 0.906097 -1.4878 0
M  V30 1374 C 131.836 1.67615 -2.96847 0
M  V30 1375 H 133.029 -0.131843 -2.9961 0
M  V30 1376 H 130.582 -0.106165 -1.55939 0
M  V30 1377 H 131.317 2.33095 -2.25471 0
M  V30 1378 H 131.102 1.30029 -3.69912 0
M  V30 1379 H 132.592 2.27114 -3.50441 0
M  V30 1380 N 133.029 1.57378 -0.0835403 0
M  V30 1381 C 134.445 1.57246 0.273109 0
M  V30 1382 C 134.645 1.09385 1.69225 0
M  V30 1383 O 133.701 0.765051 2.40631 0
M  V30 1384 C 135.014 3.00614 0.0720628 0
M  V30 1385 C 136.562 3.12684 0.1407 0
M  V30 1386 C 137.037 4.57989 -0.0322094 0
M  V30 1387 N 138.528 4.63194 0.0230085 0
M  V30 1388 C 139.263 5.73335 -0.0861941 0
M  V30 1389 N 138.759 6.9235 -0.24958 0
M  V30 1390 N 140.552 5.62093 -0.0282886 0
M  V30 1391 H 132.703 1.86801 -1.0109 0
M  V30 1392 H 134.966 0.861687 -0.395222 0
M  V30 1393 H 134.672 3.39786 -0.907662 0
M  V30 1394 H 134.546 3.68193 0.81936 0
M  V30 1395 H 136.933 2.73391 1.11092 0
M  V30 1396 H 137.014 2.47719 -0.637896 0
M  V30 1397 H 136.658 4.97973 -0.999247 0
M  V30 1398 H 136.588 5.21 0.765937 0
M  V30 1399 H 139.079 3.77613 0.14722 0
M  V30 1400 H 139.392 7.72117 -0.324733 0
M  V30 1401 H 137.737 6.94415 -0.285097 0
M  V30 1402 H 140.928 4.67997 0.0981408 0
M  V30 1403 H 141.101 6.47895 -0.116845 0
M  V30 1404 N 134.507 -0.190092 1.56449 0
M  V30 1405 C 135.454 -1.23557 1.94942 0
M  V30 1406 C 136.424 -1.44972 0.810696 0
M  V30 1407 O 137.609 -1.58023 1.06927 0
M  V30 1408 C 134.749 -2.57416 2.2985 0
M  V30 1409 C 133.862 -2.43537 3.5681 0
M  V30 1410 C 132.997 -3.70134 3.81017 0
M  V30 1411 C 132.036 -3.51109 5.01387 0
M  V30 1412 N 131.173 -4.6973 5.21822 0
M  V30 1413 H 136.013 -0.900304 2.84075 0
M  V30 1414 H 133.55 -0.43318 1.40577 0
M  V30 1415 H 135.508 -3.35409 2.48106 0
M  V30 1416 H 134.138 -2.88975 1.43852 0
M  V30 1417 H 133.19 -1.56816 3.46573 0
M  V30 1418 H 134.502 -2.25415 4.4496 0
M  V30 1419 H 133.656 -4.56566 3.9954 0
M  V30 1420 H 132.395 -3.91215 2.91207 0
M  V30 1421 H 131.4 -2.63063 4.82782 0
M  V30 1422 H 132.625 -3.31468 5.9271 0
M  V30 1423 H 130.571 -4.91065 4.34961 0
M  V30 1424 H 130.488 -4.54452 6.0416 0
M  V30 1425 H 131.756 -5.57499 5.44808 0
M  V30 1426 N 135.985 -1.50799 -0.457987 0
M  V30 1427 C 136.915 -1.73553 -1.5621 0
M  V30 1428 C 137.896 -0.584774 -1.59732 0
M  V30 1429 O 139.081 -0.825314 -1.7579 0
M  V30 1430 C 136.211 -1.84169 -2.94447 0
M  V30 1431 C 135.165 -2.99461 -3.0579 0
M  V30 1432 C 134.491 -2.95235 -4.45803 0
M  V30 1433 C 135.791 -4.39766 -2.81786 0
M  V30 1434 H 137.485 -2.66 -1.37421 0
M  V30 1435 H 135.031 -1.28002 -0.659662 0
M  V30 1436 H 136.984 -1.98672 -3.71628 0
M  V30 1437 H 135.708 -0.883545 -3.14422 0
M  V30 1438 H 134.367 -2.8463 -2.31044 0
M  V30 1439 H 134.015 -1.97239 -4.62715 0
M  V30 1440 H 133.715 -3.72642 -4.54326 0
M  V30 1441 H 135.239 -3.11803 -5.24987 0
M  V30 1442 H 136.653 -4.55054 -3.4871 0
M  V30 1443 H 135.05 -5.18722 -3.0174 0
M  V30 1444 H 136.12 -4.51229 -1.7754 0
M  V30 1445 N 137.463 0.71206 -1.40597 0
M  V30 1446 C 138.426 1.80785 -1.40888 0
M  V30 1447 C 139.426 1.57937 -0.302103 0
M  V30 1448 O 140.616 1.64913 -0.561182 0
M  V30 1449 C 137.748 3.18927 -1.20409 0
M  V30 1450 H 138.941 1.81924 -2.38419 0
M  V30 1451 H 136.494 0.91805 -1.26497 0
M  V30 1452 H 137.229 3.23436 -0.236522 0
M  V30 1453 H 137.014 3.36911 -2.00582 0
M  V30 1454 H 138.504 3.98949 -1.23408 0
M  V30 1455 N 138.941 1.26152 0.944643 0
M  V30 1456 C 139.873 1.03199 2.04652 0
M  V30 1457 C 140.886 -0.00642356 1.62799 0
M  V30 1458 O 142.075 0.233263 1.76969 0
M  V30 1459 C 139.175 0.540111 3.34568 0
M  V30 1460 C 138.348 1.64697 4.05208 0
M  V30 1461 C 137.407 1.15374 5.13396 0
M  V30 1462 O 136.433 1.85013 5.38293 0
M  V30 1463 N 137.635 0.00031529 5.805 0
M  V30 1464 H 140.4 1.9808 2.2491 0
M  V30 1465 H 137.961 1.17491 1.11389 0
M  V30 1466 H 139.953 0.194401 4.04233 0
M  V30 1467 H 138.523 -0.315021 3.11009 0
M  V30 1468 H 137.743 2.16379 3.29506 0
M  V30 1469 H 139.031 2.3903 4.49157 0
M  V30 1470 H 138.429 -0.581336 5.62705 0
M  V30 1471 H 136.986 -0.286346 6.51171 0
M  V30 1472 N 140.419 -1.14872 1.07899 0
M  V30 1473 C 141.351 -2.19425 0.662231 0
M  V30 1474 C 142.364 -1.60231 -0.288079 0
M  V30 1475 O 143.553 -1.78336 -0.076534 0
M  V30 1476 C 140.653 -3.38867 -0.0470695 0
M  V30 1477 C 139.826 -4.27597 0.920831 0
M  V30 1478 C 138.885 -5.25616 0.247805 0
M  V30 1479 O 137.911 -5.62189 0.890599 0
M  V30 1480 N 139.113 -5.71746 -1.00435 0
M  V30 1481 H 141.878 -2.55797 1.56166 0
M  V30 1482 H 139.439 -1.30042 0.964404 0
M  V30 1483 H 141.431 -4.01497 -0.50813 0
M  V30 1484 H 140.001 -3.00864 -0.848523 0
M  V30 1485 H 139.221 -3.61982 1.56087 0
M  V30 1486 H 140.509 -4.83748 1.57688 0
M  V30 1487 H 139.907 -5.44153 -1.54642 0
M  V30 1488 H 138.464 -6.36389 -1.40899 0
M  V30 1489 N 141.898 -0.863906 -1.31812 0
M  V30 1490 C 143.128 -0.485406 -2.00817 0
M  V30 1491 C 143.536 0.925007 -1.65046 0
M  V30 1492 O 142.879 1.61653 -0.872574 0
M  V30 1493 C 142.941 -0.555589 -3.55181 0
M  V30 1494 C 142.605 -1.92654 -4.14407 0
M  V30 1495 C 143.602 -2.89324 -4.31958 0
M  V30 1496 C 141.287 -2.2262 -4.50273 0
M  V30 1497 C 143.281 -4.14108 -4.84555 0
M  V30 1498 C 140.968 -3.47654 -5.02573 0
M  V30 1499 C 141.966 -4.43214 -5.19664 0
M  V30 1500 O 141.654 -5.66033 -5.70843 0
M  V30 1501 H 141.386 -0.188224 -0.649267 0
M  V30 1502 H 143.94 -1.16514 -1.69156 0
M  V30 1503 H 142.17 0.181037 -3.86276 0
M  V30 1504 H 143.859 -0.19138 -4.05449 0
M  V30 1505 H 144.625 -2.6748 -4.04573 0
M  V30 1506 H 140.504 -1.4902 -4.3625 0
M  V30 1507 H 144.048 -4.88703 -4.9781 0
M  V30 1508 H 139.945 -3.69345 -5.29391 0
M  V30 1509 H 140.713 -5.6812 -5.89222 0
M  V30 1510 N 143.376 1.44774 -0.622745 0
M  V30 1511 C 144.606 2.06187 -0.130532 0
M  V30 1512 C 145.014 1.46547 1.19669 0
M  V30 1513 O 144.357 0.579636 1.74316 0
M  V30 1514 C 144.419 3.59437 0.0674983 0
M  V30 1515 C 144.083 4.41496 -1.18026 0
M  V30 1516 C 145.08 4.75512 -2.102 0
M  V30 1517 C 142.765 4.82007 -1.41333 0
M  V30 1518 C 144.759 5.48912 -3.23998 0
M  V30 1519 C 142.446 5.55157 -2.55429 0
M  V30 1520 C 143.444 5.88528 -3.46589 0
M  V30 1521 O 143.132 6.60191 -4.58697 0
M  V30 1522 H 142.864 0.672045 -0.0730162 0
M  V30 1523 H 145.418 1.86768 -0.854802 0
M  V30 1524 H 143.648 3.77314 0.846825 0
M  V30 1525 H 145.337 4.02642 0.513209 0
M  V30 1526 H 146.103 4.4476 -1.93425 0
M  V30 1527 H 141.982 4.55457 -0.712709 0
M  V30 1528 H 145.526 5.74877 -3.95174 0
M  V30 1529 H 141.423 5.85324 -2.72151 0
M  V30 1530 H 142.191 6.78654 -4.57571 0
M  V30 1531 N 144.854 0.36279 1.53368 0
M  V30 1532 C 145.784 -0.476976 2.28576 0
M  V30 1533 C 146.765 -1.08631 1.30894 0
M  V30 1534 O 147.95 -1.10409 1.59761 0
M  V30 1535 C 145.08 -1.61828 3.07293 0
M  V30 1536 C 144.034 -1.13633 4.1264 0
M  V30 1537 C 143.36 -2.36766 4.79423 0
M  V30 1538 C 144.66 -0.223061 5.21823 0
M  V30 1539 H 146.354 0.150474 2.99022 0
M  V30 1540 H 143.9 0.0738103 1.43811 0
M  V30 1541 H 145.853 -2.21237 3.58653 0
M  V30 1542 H 144.577 -2.27292 2.34533 0
M  V30 1543 H 143.236 -0.564945 3.62221 0
M  V30 1544 H 142.884 -3.0068 4.03238 0
M  V30 1545 H 142.584 -2.05192 5.50609 0
M  V30 1546 H 144.108 -2.96865 5.33576 0
M  V30 1547 H 145.522 -0.724545 5.68703 0
M  V30 1548 H 143.919 0.001678 6.001 0
M  V30 1549 H 144.989 0.735553 4.79289 0
M  V30 1550 N 146.332 -1.57332 0.0918853 0
M  V30 1551 C 147.578 -1.94524 -0.573425 0
M  V30 1552 C 147.911 -0.973578 -1.68033 0
M  V30 1553 O 147.186 -0.00609226 -1.94499 0
M  V30 1554 C 147.469 -3.41858 -1.13161 0
M  V30 1555 C 147.322 -4.4979 -0.0299747 0
M  V30 1556 C 148.641 -3.90435 -2.03098 0
M  V30 1557 H 145.76 -0.70734 -0.206975 0
M  V30 1558 H 148.402 -1.89309 0.161942 0
M  V30 1559 H 146.552 -3.46433 -1.7583 0
M  V30 1560 H 148.224 -4.57327 0.604112 0
M  V30 1561 H 146.467 -4.291 0.636833 0
M  V30 1562 H 147.138 -5.50069 -0.461287 0
M  V30 1563 H 149.614 -3.87992 -1.50338 0
M  V30 1564 H 148.49 -4.94097 -2.39081 0
M  V30 1565 H 148.751 -3.29541 -2.94712 0
M  V30 1566 N 147.81 0.181792 -1.56548 0
M  V30 1567 C 149.04 0.914618 -1.85252 0
M  V30 1568 C 149.448 1.76791 -0.673914 0
M  V30 1569 O 148.791 1.80009 0.366416 0
M  V30 1570 C 148.853 1.85019 -3.08234 0
M  V30 1571 C 148.517 1.17754 -4.41569 0
M  V30 1572 C 149.514 0.548035 -5.17003 0
M  V30 1573 C 147.199 1.17742 -4.88305 0
M  V30 1574 C 149.193 -0.0726128 -6.37359 0
M  V30 1575 C 146.88 0.552946 -6.08593 0
M  V30 1576 C 147.878 -0.070978 -6.82963 0
M  V30 1577 O 147.566 -0.685635 -8.00971 0
M  V30 1578 H 147.298 0.271695 -0.618998 0
M  V30 1579 H 149.852 0.189944 -2.0452 0
M  V30 1580 H 148.082 2.61491 -2.84885 0
M  V30 1581 H 149.771 2.45195 -3.23472 0
M  V30 1582 H 150.537 0.540174 -4.81982 0
M  V30 1583 H 146.416 1.65246 -4.30366 0
M  V30 1584 H 149.96 -0.560213 -6.95347 0
M  V30 1585 H 145.857 0.558354 -6.43081 0
M  V30 1586 H 146.625 -0.58385 -8.16415 0
M  V30 1587 N 149.288 1.51039 0.449983 0
M  V30 1588 C 150.22 1.67617 1.56324 0
M  V30 1589 C 151.233 0.557083 1.52972 0
M  V30 1590 O 152.422 0.830989 1.57977 0
M  V30 1591 C 149.522 1.66402 2.95235 0
M  V30 1592 C 148.695 2.9469 3.23229 0
M  V30 1593 C 147.754 2.85832 4.41799 0
M  V30 1594 O 146.78 3.59785 4.41071 0
M  V30 1595 N 147.982 2.00821 5.44657 0
M  V30 1596 H 150.747 2.63648 1.42512 0
M  V30 1597 H 148.308 1.48767 0.638737 0
M  V30 1598 H 150.3 1.58062 3.72557 0
M  V30 1599 H 148.87 0.780182 3.02708 0
M  V30 1600 H 148.09 3.16996 2.34323 0
M  V30 1601 H 149.378 3.79636 3.38754 0
M  V30 1602 H 148.776 1.40091 5.48079 0
M  V30 1603 H 147.333 1.98368 6.20881 0
M  V30 1604 N 150.766 -0.704594 1.40972 0
M  V30 1605 C 151.676 -1.84856 1.44448 0
M  V30 1606 C 152.692 -1.70726 0.335961 0
M  V30 1607 O 153.868 -1.92799 0.582276 0
M  V30 1608 C 150.933 -3.20758 1.31587 0
M  V30 1609 C 149.994 -3.47063 2.52677 0
M  V30 1610 C 149.227 -4.76481 2.4042 0
M  V30 1611 O 149.45 -5.52341 1.42391 0
M  V30 1612 O 148.384 -5.03367 3.30007 0
M  V30 1613 H 152.21 -1.8488 2.40942 0
M  V30 1614 H 149.795 -0.85647 1.22413 0
M  V30 1615 H 151.677 -4.01913 1.26665 0
M  V30 1616 H 150.352 -3.21438 0.382049 0
M  V30 1617 H 149.259 -2.65873 2.63177 0
M  V30 1618 H 150.592 -3.5119 3.44858 0
M  V30 1619 N 152.244 -1.26651 -0.937939 0
M  V30 1620 C 153.655 -1.1125 -1.49934 0
M  V30 1621 C 154.006 0.306077 -1.93798 0
M  V30 1622 O 153.131 1.19792 -1.80219 0
M  V30 1623 C 153.726 -2.01339 -2.72485 0
M  V30 1624 C 152.285 -1.90074 -3.24883 0
M  V30 1625 C 151.432 -1.94498 -1.97651 0
M  V30 1626 H 154.383 -1.39693 -0.753091 0
M  V30 1627 H 154.404 -1.56319 -3.46907 0
M  V30 1628 H 153.916 -3.04577 -2.40529 0
M  V30 1629 H 152.017 -0.897827 -3.61621 0
M  V30 1630 H 152.13 -2.75778 -3.9177 0
M  V30 1631 H 150.494 -1.38591 -2.13693 0
M  V30 1632 H 151.277 -2.99372 -1.68022 0
M  V30 1633 N 153.722 1.14298 -1.08507 0
M  V30 1634 C 154.971 1.84708 -0.810305 0
M  V30 1635 C 155.284 1.83903 0.666271 0
M  V30 1636 O 156.49 2.50112 1.05624 0
M  V30 1637 C 154.946 3.31572 -1.39957 0
M  V30 1638 C 154.554 3.40791 -2.90801 0
M  V30 1639 C 156.298 4.07087 -1.20334 0
M  V30 1640 C 154.205 4.81872 -3.4286 0
M  V30 1641 H 153.135 0.691985 -0.299454 0
M  V30 1642 H 155.786 1.28841 -1.30661 0
M  V30 1643 H 154.168 3.87183 -0.830976 0
M  V30 1644 H 155.342 2.95225 -3.53806 0
M  V30 1645 H 153.657 2.78732 -3.0935 0
M  V30 1646 H 156.254 5.11225 -1.56693 0
M  V30 1647 H 156.597 4.16054 -0.143237 0
M  V30 1648 H 157.13 3.57779 -1.73893 0
M  V30 1649 H 153.869 4.78094 -4.48449 0
M  V30 1650 H 153.389 5.27972 -2.84615 0
M  V30 1651 H 155.068 5.50765 -3.39509 0
M  V30 1652 N 155.201 0.870884 1.31352 0
M  V30 1653 C 156.612 0.534714 1.78879 0
M  V30 1654 C 156.963 -0.948423 1.71754 0
M  V30 1655 O 156.088 -1.74055 1.28584 0
M  V30 1656 C 156.683 0.963839 3.24801 0
M  V30 1657 C 155.242 0.679311 3.70219 0
M  V30 1658 C 154.389 1.15465 2.52117 0
M  V30 1659 H 157.34 1.05651 1.18421 0
M  V30 1660 H 157.361 0.286892 3.79417 0
M  V30 1661 H 156.873 2.04332 3.29955 0
M  V30 1662 H 154.974 -0.388769 3.70566 0
M  V30 1663 H 155.087 1.25698 4.62317 0
M  V30 1664 H 153.451 0.574383 2.48139 0
M  V30 1665 H 154.234 2.24157 2.60016 0
M  V30 1666 N 156.679 -1.44442 0.630414 0
M  V30 1667 C 157.907 -2.06414 0.141671 0
M  V30 1668 C 158.322 -1.47105 -1.18345 0
M  V30 1669 O 157.679 -0.593662 -1.72574 0
M  V30 1670 C 157.73 -3.61494 0.0199784 0
M  V30 1671 O 157.451 -4.18594 1.29269 0
M  V30 1672 C 158.952 -4.40499 -0.497544 0
M  V30 1673 H 156.172 -0.666292 0.0793452 0
M  V30 1674 H 158.716 -1.85323 0.864614 0
M  V30 1675 H 156.871 -3.8185 -0.653402 0
M  V30 1676 H 157.285 -5.12026 1.13707 0
M  V30 1677 H 158.759 -5.49433 -0.531708 0
M  V30 1678 H 159.236 -4.11895 -1.52445 0
M  V30 1679 H 159.842 -4.25061 0.142562 0
M  V30 1680 N 158.157 -0.370918 -1.53173 0
M  V30 1681 C 159.12 0.460778 -2.24521 0
M  V30 1682 C 160.12 1.00536 -1.25496 0
M  V30 1683 O 161.31 0.890266 -1.49733 0
M  V30 1684 C 158.442 1.64457 -2.98608 0
M  V30 1685 H 159.635 -0.163613 -2.99453 0
M  V30 1686 H 157.188 -0.122699 -1.55818 0
M  V30 1687 H 157.923 2.30691 -2.2793 0
M  V30 1688 H 157.708 1.26099 -3.7127 0
M  V30 1689 H 159.198 2.23384 -3.5283 0
M  V30 1690 N 159.635 1.57281 -0.100228 0
M  V30 1691 C 160.567 2.11342 0.886972 0
M  V30 1692 C 161.58 1.05182 1.24261 0
M  V30 1693 O 162.769 1.32613 1.19483 0
M  V30 1694 C 159.869 2.5825 2.19454 0
M  V30 1695 C 159.042 3.88302 2.01346 0
M  V30 1696 C 158.101 4.21004 3.15661 0
M  V30 1697 O 157.127 4.9014 2.89398 0
M  V30 1698 N 158.329 3.76818 4.41575 0
M  V30 1699 H 161.094 2.96668 0.425216 0
M  V30 1700 H 158.655 1.61678 0.0847334 0
M  V30 1701 H 160.647 2.7717 2.94888 0
M  V30 1702 H 159.217 1.77907 2.57037 0
M  V30 1703 H 158.437 3.7848 1.10212 0
M  V30 1704 H 159.725 4.73375 1.8653 0
M  V30 1705 H 159.123 3.2102 4.65792 0
M  V30 1706 H 157.68 4.00882 5.13942 0
M  V30 1707 N 161.113 -0.173488 1.56642 0
M  V30 1708 C 162.043 -1.2171 1.99271 0
M  V30 1709 C 163.024 -1.46289 0.867959 0
M  V30 1710 O 164.209 -1.5766 1.13388 0
M  V30 1711 C 161.339 -2.55651 2.35074 0
M  V30 1712 C 160.293 -2.45645 3.50489 0
M  V30 1713 C 159.619 -3.84056 3.72028 0
M  V30 1714 C 160.919 -1.96302 4.84007 0
M  V30 1715 H 162.613 -0.86275 2.867 0
M  V30 1716 H 160.159 -0.413571 1.37933 0
M  V30 1717 H 162.112 -3.2886 2.63494 0
M  V30 1718 H 160.836 -2.92869 1.44552 0
M  V30 1719 H 159.495 -1.7489 3.22194 0
M  V30 1720 H 159.143 -4.18664 2.788 0
M  V30 1721 H 158.843 -3.7823 4.49684 0
M  V30 1722 H 160.367 -4.58854 4.02846 0
M  V30 1723 H 161.781 -2.59284 5.11317 0
M  V30 1724 H 160.178 -2.01429 5.65284 0
M  V30 1725 H 161.248 -0.917226 4.76146 0
M  V30 1726 N 162.591 -1.51276 -0.441967 0
M  V30 1727 C 163.837 -1.63958 -1.19355 0
M  V30 1728 C 164.17 -0.352543 -1.90973 0
M  V30 1729 O 163.445 0.647627 -1.83401 0
M  V30 1730 C 163.728 -2.83979 -2.21422 0
M  V30 1731 C 163.581 -4.22646 -1.53918 0
M  V30 1732 C 164.9 -2.99521 -3.22451 0
M  V30 1733 H 162.019 -0.596709 -0.432559 0
M  V30 1734 H 164.661 -1.83748 -0.483398 0
M  V30 1735 H 162.811 -2.67237 -2.81987 0
M  V30 1736 H 164.483 -4.51045 -0.967256 0
M  V30 1737 H 162.726 -4.25558 -0.841615 0
M  V30 1738 H 163.397 -5.02609 -2.28229 0
M  V30 1739 H 165.873 -3.14944 -2.71937 0
M  V30 1740 H 164.749 -3.85072 -3.91166 0
M  V30 1741 H 165.01 -2.11391 -3.88287 0
M  V30 1742 N 164.069 0.697108 -1.41344 0
M  V30 1743 C 165.001 1.8224 -1.39001 0
M  V30 1744 C 166.014 1.60152 -0.292428 0
M  V30 1745 O 167.203 1.69684 -0.554048 0
M  V30 1746 C 164.303 3.18976 -1.14489 0
M  V30 1747 C 163.476 3.68105 -2.36258 0
M  V30 1748 C 162.535 4.83506 -2.07625 0
M  V30 1749 O 161.561 4.95201 -2.8065 0
M  V30 1750 N 162.763 5.70637 -1.06555 0
M  V30 1751 H 165.528 1.84742 -2.35988 0
M  V30 1752 H 163.089 0.87937 -1.35936 0
M  V30 1753 H 165.081 3.93801 -0.932885 0
M  V30 1754 H 163.651 3.11508 -0.261043 0
M  V30 1755 H 162.871 2.84204 -2.7317 0
M  V30 1756 H 164.159 3.97667 -3.17393 0
M  V30 1757 H 163.557 5.63817 -0.461125 0
M  V30 1758 H 162.114 6.45368 -0.913444 0
M  V30 1759 N 165.547 1.27147 0.931209 0
M  V30 1760 C 166.963 1.04475 1.20653 0
M  V30 1761 C 167.163 -0.223885 2.00252 0
M  V30 1762 O 166.219 -0.930332 2.34736 0
M  V30 1763 C 167.532 2.28209 1.95809 0
M  V30 1764 C 169.08 2.33211 2.08762 0
M  V30 1765 C 169.555 3.56665 2.87323 0
M  V30 1766 N 171.046 3.57201 2.94892 0
M  V30 1767 C 171.781 4.49395 3.56134 0
M  V30 1768 N 171.277 5.51889 4.18796 0
M  V30 1769 N 173.07 4.37026 3.53504 0
M  V30 1770 H 165.221 2.08612 0.399333 0
M  V30 1771 H 167.484 0.917312 0.239253 0
M  V30 1772 H 167.19 3.20538 1.44736 0
M  V30 1773 H 167.064 2.33247 2.96438 0
M  V30 1774 H 169.451 1.41391 2.59023 0
M  V30 1775 H 169.532 2.32178 1.07364 0
M  V30 1776 H 169.176 4.4882 2.37746 0
M  V30 1777 H 169.106 3.54948 3.88998 0
M  V30 1778 H 171.597 2.83074 2.50354 0
M  V30 1779 H 171.91 6.18409 4.63454 0
M  V30 1780 H 170.255 5.55735 4.17353 0
M  V30 1781 H 173.446 3.56166 3.03749 0
M  V30 1782 H 173.619 5.09067 4.00942 0
M  V30 1783 N 167.025 -1.13721 1.09112 0
M  V30 1784 C 168.271 -1.85198 0.826414 0
M  V30 1785 C 168.604 -1.83129 -0.646319 0
M  V30 1786 O 167.879 -1.2671 -1.47563 0
M  V30 1787 C 168.162 -3.33507 1.35812 0
M  V30 1788 C 168.015 -3.44108 2.89672 0
M  V30 1789 C 169.334 -4.28838 0.989256 0
M  V30 1790 H 166.453 -0.67243 0.301675 0
M  V30 1791 H 169.095 -1.33499 1.35197 0
M  V30 1792 H 167.245 -3.77666 0.911082 0
M  V30 1793 H 168.917 -3.08684 3.428 0
M  V30 1794 H 167.16 -2.85087 3.26967 0
M  V30 1795 H 167.831 -4.48388 3.21951 0
M  V30 1796 H 170.307 -3.92734 1.37475 0
M  V30 1797 H 169.183 -5.31051 1.38838 0
M  V30 1798 H 169.444 -4.4198 -0.102924 0
M  V30 1799 N 168.503 -0.877838 -1.30888 0
M  V30 1800 C 169.466 -0.344265 -2.266 0
M  V30 1801 C 170.466 0.50922 -1.52524 0
M  V30 1802 O 171.656 0.317398 -1.71284 0
M  V30 1803 C 168.788 0.510198 -3.37061 0
M  V30 1804 H 169.981 -1.1893 -2.7531 0
M  V30 1805 H 167.534 -0.654088 -1.41956 0
M  V30 1806 H 168.269 1.37612 -2.93655 0
M  V30 1807 H 168.054 -0.101047 -3.9197 0
M  V30 1808 H 169.544 0.875537 -4.08319 0
M  V30 1809 N 169.982 1.44106 -0.638065 0
M  V30 1810 C 171.207 2.0685 -0.150916 0
M  V30 1811 C 171.632 1.47417 1.16833 0
M  V30 1812 O 170.99 0.578264 1.71831 0
M  V30 1813 C 171.038 3.60555 -0.05708 0
M  V30 1814 O 170.142 4.00465 0.984972 0
M  V30 1815 H 169.483 0.658151 -0.0879399 0
M  V30 1816 H 172.013 1.84865 -0.876707 0
M  V30 1817 H 172.023 4.07789 0.131232 0
M  V30 1818 H 170.698 4.03193 -1.02021 0
M  V30 1819 H 169.275 3.64849 0.770672 0
M  V30 1820 N 171.46 0.379036 1.52974 0
M  V30 1821 C 172.706 -0.206727 2.01744 0
M  V30 1822 C 173.039 -1.47314 1.26539 0
M  V30 1823 O 172.314 -1.91084 0.362903 0
M  V30 1824 C 172.597 -0.485066 3.56818 0
M  V30 1825 C 172.45 0.795919 4.42702 0
M  V30 1826 C 173.769 -1.28003 4.21074 0
M  V30 1827 H 170.888 -0.0736607 0.73331 0
M  V30 1828 H 173.53 0.506581 1.83122 0
M  V30 1829 H 171.68 -1.09272 3.72816 0
M  V30 1830 H 173.352 1.43307 4.38476 0
M  V30 1831 H 171.595 1.41344 4.10127 0
M  V30 1832 H 172.266 0.555947 5.49193 0
M  V30 1833 H 174.742 -0.765867 4.08991 0
M  V30 1834 H 173.618 -1.44352 5.29579 0
M  V30 1835 H 173.879 -2.29236 3.78026 0
M  V30 1836 N 172.938 -1.57226 0.108567 0
M  V30 1837 C 173.871 -2.10447 -0.882464 0
M  V30 1838 C 174.849 -1.01829 -1.26766 0
M  V30 1839 O 176.033 -1.29415 -1.37054 0
M  V30 1840 C 173.16 -2.59258 -2.17952 0
M  V30 1841 C 172.206 -3.79662 -1.94318 0
M  V30 1842 S 173.039 -5.22586 -1.16892 0
M  V30 1843 C 174.195 -5.74758 -2.47799 0
M  V30 1844 H 174.428 -2.94178 -0.429745 0
M  V30 1845 H 171.961 -1.54043 -0.105 0
M  V30 1846 H 173.919 -2.88036 -2.92482 0
M  V30 1847 H 172.58 -1.75728 -2.60343 0
M  V30 1848 H 171.773 -4.11928 -2.90399 0
M  V30 1849 H 171.375 -3.51446 -1.27913 0
M  V30 1850 H 173.667 -5.83846 -3.43701 0
M  V30 1851 H 174.61 -6.73027 -2.20093 0
M  V30 1852 H 175.018 -5.02763 -2.56689 0
M  V30 1853 N 174.416 0.165178 -1.56732 0
M  V30 1854 C 175.348 1.22911 -1.93457 0
M  V30 1855 C 176.361 1.40152 -0.828333 0
M  V30 1856 O 177.55 1.40046 -1.10677 0
M  V30 1857 C 174.65 2.59686 -2.17753 0
M  V30 1858 C 173.823 2.63663 -3.48999 0
M  V30 1859 C 172.882 3.81845 -3.62051 0
M  V30 1860 O 171.908 3.67559 -4.34613 0
M  V30 1861 N 173.11 4.98557 -2.97357 0
M  V30 1862 H 175.875 0.917118 -2.85323 0
M  V30 1863 H 173.436 0.354895 -1.57962 0
M  V30 1864 H 175.428 3.37225 -2.23743 0
M  V30 1865 H 173.998 2.83251 -1.32242 0
M  V30 1866 H 173.218 1.72173 -3.54612 0
M  V30 1867 H 174.506 2.63336 -4.35352 0
M  V30 1868 H 173.904 5.13065 -2.38287 0
M  V30 1869 H 172.461 5.73936 -3.08934 0
M  V30 1870 N 175.894 1.51508 0.433938 0
M  V30 1871 C 176.804 1.75917 1.5521 0
M  V30 1872 C 177.82 0.643545 1.61662 0
M  V30 1873 O 178.996 0.926183 1.7884 0
M  V30 1874 C 176.061 1.88213 2.91164 0
M  V30 1875 C 175.122 3.12074 2.94802 0
M  V30 1876 C 174.355 3.23774 4.24271 0
M  V30 1877 O 174.578 2.4133 5.16833 0
M  V30 1878 O 173.512 4.16774 4.34262 0
M  V30 1879 H 177.338 2.70777 1.37527 0
M  V30 1880 H 174.923 1.36051 0.617293 0
M  V30 1881 H 176.805 1.98267 3.71845 0
M  V30 1882 H 175.48 0.965413 3.08968 0
M  V30 1883 H 174.387 3.07497 2.13065 0
M  V30 1884 H 175.72 4.03446 2.81943 0
M  V30 1885 N 177.372 -0.689602 1.41712 0
M  V30 1886 C 178.602 -1.47613 1.44548 0
M  V30 1887 C 179.01 -1.89132 0.0509034 0
M  V30 1888 O 178.353 -1.57741 -0.94146 0
M  V30 1889 C 178.415 -2.76596 2.2964 0
M  V30 1890 C 178.079 -2.57245 3.77722 0
M  V30 1891 C 179.076 -2.22804 4.69739 0
M  V30 1892 C 176.761 -2.727 4.2183 0
M  V30 1893 C 178.755 -2.04064 6.03851 0
M  V30 1894 C 176.442 -2.53576 5.56006 0
M  V30 1895 C 177.44 -2.1931 6.46832 0
M  V30 1896 O 177.128 -2.00359 7.78532 0
M  V30 1897 H 176.86 -0.461227 0.494212 0
M  V30 1898 H 179.414 -0.856045 1.86711 0
M  V30 1899 H 177.644 -3.41033 1.82301 0
M  V30 1900 H 179.333 -3.38424 2.24107 0
M  V30 1901 H 180.099 -2.10473 4.36951 0
M  V30 1902 H 175.978 -2.98353 3.51435 0
M  V30 1903 H 179.522 -1.77241 6.74708 0
M  V30 1904 H 175.419 -2.65499 5.88371 0
M  V30 1905 H 176.187 -2.15075 7.89737 0
M  V30 1906 N 178.85 -1.27639 -0.924453 0
M  V30 1907 C 180.078 -1.16989 -1.70649 0
M  V30 1908 C 180.493 0.272869 -1.86818 0
M  V30 1909 O 179.85 1.18549 -1.38753 0
M  V30 1910 C 179.901 -1.85229 -3.10439 0
M  V30 1911 O 179.622 -3.23868 -2.95028 0
M  V30 1912 C 181.123 -1.80746 -4.04779 0
M  V30 1913 H 178.343 -0.406595 -0.53378 0
M  V30 1914 H 180.887 -1.68569 -1.15778 0
M  V30 1915 H 179.042 -1.37545 -3.6216 0
M  V30 1916 H 179.456 -3.57889 -3.83426 0
M  V30 1917 H 180.93 -2.33101 -5.00368 0
M  V30 1918 H 181.407 -0.777499 -4.32263 0
M  V30 1919 H 182.013 -2.28059 -3.58984 0
M  V30 1920 N 180.328 1.1314 -1.09713 0
M  V30 1921 C 181.26 2.18343 -0.697056 0
M  V30 1922 C 182.273 1.60669 0.262551 0
M  V30 1923 O 183.462 1.78435 0.0481527 0
M  V30 1924 C 180.562 3.38899 -0.00684728 0
M  V30 1925 C 179.735 4.26078 -0.988741 0
M  V30 1926 C 178.794 5.25155 -0.331394 0
M  V30 1927 O 177.82 5.60701 -0.979926 0
M  V30 1928 N 179.022 5.73271 0.913261 0
M  V30 1929 H 181.787 2.5328 -1.60216 0
M  V30 1930 H 179.348 1.28491 -0.984971 0
M  V30 1931 H 181.34 4.02255 0.444191 0
M  V30 1932 H 179.91 3.02175 0.800551 0
M  V30 1933 H 179.13 3.59453 -1.61826 0
M  V30 1934 H 180.418 4.81178 -1.65364 0
M  V30 1935 H 179.816 5.46544 1.45966 0
M  V30 1936 H 178.373 6.3855 1.30757 0
M  V30 1937 N 181.806 0.884767 1.30421 0
M  V30 1938 C 183.031 0.517288 2.00845 0
M  V30 1939 C 183.456 -0.886779 1.65885 0
M  V30 1940 O 182.814 -1.58768 0.875354 0
M  V30 1941 C 182.862 0.698994 3.5376 0
M  V30 1942 O 181.966 -0.255208 4.1161 0
M  V30 1943 H 181.307 0.203872 0.631927 0
M  V30 1944 H 183.837 1.19225 1.66272 0
M  V30 1945 H 183.847 0.597912 4.03595 0
M  V30 1946 H 182.522 1.72271 3.78544 0
M  V30 1947 H 181.099 -0.10784 3.72744 0
M  V30 1948 N 183.284 -1.43765 0.645699 0
M  V30 1949 C 184.532 -2.01499 0.155731 0
M  V30 1950 C 184.853 -1.51151 -1.232 0
M  V30 1951 O 184.123 -0.721044 -1.82148 0
M  V30 1952 H 182.703 -0.745003 0.0545817 0
M  V30 1953 H 185.365 -1.76075 0.835677 0
M  V30 1954 H 184.461 -3.1181 0.134577 0
M  V30 1955 N 184.763 -0.387143 -1.52771 0
M  V30 1956 C 186.011 0.195349 -2.01154 0
M  V30 1957 C 186.332 1.475 -1.27549 0
M  V30 1958 O 185.602 1.91878 -0.394924 0
M  V30 1959 H 184.182 0.075178 -0.743207 0
M  V30 1960 H 186.844 -0.518337 -1.87881 0
M  V30 1961 H 185.94 0.407096 -3.09434 0
M  V30 1962 N 186.241 1.57166 -0.116904 0
M  V30 1963 C 187.487 1.95412 0.542405 0
M  V30 1964 C 187.82 1.00019 1.66463 0
M  V30 1965 O 187.095 0.0370346 1.94465 0
M  V30 1966 C 187.378 3.43615 1.07708 0
M  V30 1967 C 187.231 4.49781 -0.0415868 0
M  V30 1968 C 188.55 3.93616 1.96861 0
M  V30 1969 H 185.669 0.710543 0.195696 0
M  V30 1970 H 188.311 1.89027 -0.192038 0
M  V30 1971 H 186.461 3.49187 1.70296 0
M  V30 1972 H 188.133 4.56308 -0.676793 0
M  V30 1973 H 186.376 4.28033 -0.705019 0
M  V30 1974 H 187.047 5.50733 0.373717 0
M  V30 1975 H 189.523 3.90335 1.44146 0
M  V30 1976 H 188.399 4.97838 2.3119 0
M  V30 1977 H 188.66 3.34188 2.89432 0
M  V30 1978 N 187.719 -0.156864 1.56817 0
M  V30 1979 C 189.135 -0.50916 1.5126 0
M  V30 1980 C 189.335 -1.83897 0.823658 0
M  V30 1981 O 188.391 -2.49469 0.390055 0
M  V30 1982 C 189.704 -0.52857 2.96018 0
M  V30 1983 C 191.252 -0.614771 3.06903 0
M  V30 1984 C 191.727 -0.664938 4.53147 0
M  V30 1985 N 193.218 -0.727433 4.57452 0
M  V30 1986 C 193.953 -0.787067 5.67973 0
M  V30 1987 N 193.449 -0.806649 6.88088 0
M  V30 1988 N 195.242 -0.827195 5.5598 0
M  V30 1989 H 187.393 0.714935 2.00006 0
M  V30 1990 H 189.656 0.259526 0.911784 0
M  V30 1991 H 189.362 0.380154 3.49639 0
M  V30 1992 H 189.236 -1.36998 3.51442 0
M  V30 1993 H 191.623 -1.51392 2.53307 0
M  V30 1994 H 191.704 0.253597 2.5454 0
M  V30 1995 H 191.348 0.230011 5.07379 0
M  V30 1996 H 191.278 -1.54966 5.03282 0
M  V30 1997 H 193.769 -0.719998 3.70978 0
M  V30 1998 H 194.082 -0.853727 7.6807 0
M  V30 1999 H 192.427 -0.774687 6.90669 0
M  V30 2000 H 195.618 -0.808998 4.61056 0
M  V30 2001 H 195.791 -0.870206 6.4213 0
M  V30 2002 N 189.197 -1.51736 -0.425897 0
M  V30 2003 C 190.608 -1.5732 -1.00536 0
M  V30 2004 C 190.959 -0.403537 -1.92005 0
M  V30 2005 O 190.084 0.478256 -2.11049 0
M  V30 2006 C 190.679 -2.85119 -1.8301 0
M  V30 2007 C 189.238 -2.93236 -2.35987 0
M  V30 2008 C 188.385 -2.52098 -1.15508 0
M  V30 2009 H 191.336 -1.57348 -0.206739 0
M  V30 2010 H 191.357 -2.69526 -2.68581 0
M  V30 2011 H 190.869 -3.7023 -1.16411 0
M  V30 2012 H 188.97 -2.12581 -3.06007 0
M  V30 2013 H 189.083 -3.9713 -2.68001 0
M  V30 2014 H 187.447 -2.05558 -1.50393 0
M  V30 2015 H 188.23 -3.39565 -0.505014 0
M  V30 2016 N 190.675 0.682077 -1.42076 0
M  V30 2017 C 191.922 1.44215 -1.42156 0
M  V30 2018 C 192.25 1.94468 -0.0354186 0
M  V30 2019 O 191.505 1.70816 0.955002 0
M  V30 2020 C 191.804 2.66036 -2.38662 0
M  V30 2021 C 191.47 2.34366 -3.85206 0
M  V30 2022 C 190.132 2.25439 -4.25124 0
M  V30 2023 C 192.484 2.08513 -4.77673 0
M  V30 2024 C 189.812 1.88775 -5.55501 0
M  V30 2025 C 192.164 1.73354 -6.08384 0
M  V30 2026 C 190.828 1.62933 -6.47309 0
M  V30 2027 H 190.098 0.527718 -0.520187 0
M  V30 2028 H 192.745 0.778387 -1.74967 0
M  V30 2029 H 191.05 3.3741 -1.99152 0
M  V30 2030 H 192.747 3.24205 -2.35991 0
M  V30 2031 H 189.337 2.42213 -3.53597 0
M  V30 2032 H 193.521 2.14346 -4.47626 0
M  V30 2033 H 188.777 1.7927 -5.84527 0
M  V30 2034 H 192.951 1.52373 -6.79526 0
M  V30 2035 H 190.578 1.34292 -7.48244 0
M  V30 2036 N 192.153 1.28127 0.917671 0
M  V30 2037 C 193.401 1.14825 1.66312 0
M  V30 2038 C 193.722 -0.304379 1.9261 0
M  V30 2039 O 192.992 -1.21149 1.53947 0
M  V30 2040 H 191.572 0.421953 0.616413 0
M  V30 2041 H 194.234 1.608 1.10134 0
M  V30 2042 H 193.33 1.68489 2.62712 0
M  V30 2043 N 193.631 -1.12557 1.10312 0
M  V30 2044 C 194.877 -1.84311 0.846011 0
M  V30 2045 C 195.21 -1.83805 -0.626859 0
M  V30 2046 O 194.485 -1.28268 -1.46211 0
M  V30 2047 C 194.768 -3.32048 1.39341 0
M  V30 2048 C 194.621 -3.41016 2.93305 0
M  V30 2049 C 195.94 -4.27764 1.03468 0
M  V30 2050 H 193.059 -0.669192 0.30879 0
M  V30 2051 H 195.701 -1.32057 1.36605 0
M  V30 2052 H 193.851 -3.76678 0.951087 0
M  V30 2053 H 195.523 -3.05031 3.46055 0
M  V30 2054 H 193.766 -2.81603 3.29973 0
M  V30 2055 H 194.437 -4.44948 3.26689 0
M  V30 2056 H 196.913 -3.91253 1.41633 0
M  V30 2057 H 195.789 -5.29549 1.44463 0
M  V30 2058 H 196.05 -4.42064 -0.0560404 0
M  V30 2059 N 195.109 -0.891671 -1.2995 0
M  V30 2060 C 196.334 -0.527932 -2.00568 0
M  V30 2061 C 196.759 0.877969 -1.66353 0
M  V30 2062 O 196.117 1.58301 -0.883762 0
M  V30 2063 C 196.165 -0.717745 -3.53385 0
M  V30 2064 O 195.269 0.233376 -4.11739 0
M  V30 2065 H 194.61 -0.20722 -0.630837 0
M  V30 2066 H 197.14 -1.20105 -1.65638 0
M  V30 2067 H 197.15 -0.619307 -4.03272 0
M  V30 2068 H 195.825 -1.74276 -3.77625 0
M  V30 2069 H 194.402 0.0880706 -3.72796 0
M  V30 2070 N 196.587 1.43421 -0.653314 0
M  V30 2071 C 197.517 2.33487 0.0246656 0
M  V30 2072 C 198.498 1.49475 0.811863 0
M  V30 2073 O 199.683 1.78139 0.773322 0
M  V30 2074 C 196.813 3.32841 0.99166 0
M  V30 2075 C 195.767 4.26842 0.314568 0
M  V30 2076 C 195.093 5.16236 1.39302 0
M  V30 2077 C 196.393 5.16243 -0.793095 0
M  V30 2078 H 198.087 2.90427 -0.727481 0
M  V30 2079 H 195.633 1.39649 -0.351287 0
M  V30 2080 H 197.586 3.94747 1.47487 0
M  V30 2081 H 196.31 2.74158 1.77497 0
M  V30 2082 H 194.969 3.663 -0.148199 0
M  V30 2083 H 194.617 4.53891 2.16776 0
M  V30 2084 H 194.317 5.79948 0.945223 0
M  V30 2085 H 195.841 5.81015 1.87759 0
M  V30 2086 H 197.255 5.71958 -0.392039 0
M  V30 2087 H 195.652 5.88676 -1.16536 0
M  V30 2088 H 196.722 4.55927 -1.65103 0
M  V30 2089 N 198.065 0.39524 1.52563 0
M  V30 2090 C 198.995 -0.428384 2.29537 0
M  V30 2091 C 199.976 -1.05831 1.33169 0
M  V30 2092 O 201.161 -1.06995 1.62067 0
M  V30 2093 C 198.291 -1.55274 3.10656 0
M  V30 2094 C 197.245 -1.04855 4.14957 0
M  V30 2095 C 196.571 -2.26543 4.84337 0
M  V30 2096 C 197.871 -0.112324 5.22179 0
M  V30 2097 H 199.565 0.213867 2.98635 0
M  V30 2098 H 197.111 0.104298 1.43622 0
M  V30 2099 H 199.064 -2.1358 3.63265 0
M  V30 2100 H 197.788 -2.22266 2.39302 0
M  V30 2101 H 196.447 -0.487985 3.63338 0
M  V30 2102 H 196.095 -2.92059 4.09525 0
M  V30 2103 H 195.795 -1.93466 5.54837 0
M  V30 2104 H 197.319 -2.85481 5.39753 0
M  V30 2105 H 198.733 -0.603752 5.70112 0
M  V30 2106 H 197.13 0.128968 5.99961 0
M  V30 2107 H 198.2 0.837052 4.77621 0
M  V30 2108 N 199.544 -1.57102 0.125237 0
M  V30 2109 C 200.793 -1.94582 -0.531095 0
M  V30 2110 C 201.106 -1.01126 -1.6743 0
M  V30 2111 O 202.312 -1.28097 -2.39381 0
M  V30 2112 C 200.768 -3.45839 -0.996164 0
M  V30 2113 C 200.376 -4.47842 0.118926 0
M  V30 2114 C 202.12 -3.92227 -1.62352 0
M  V30 2115 C 200.027 -5.90284 -0.363192 0
M  V30 2116 H 198.957 -0.726391 -0.20217 0
M  V30 2117 H 201.608 -1.82339 0.206092 0
M  V30 2118 H 199.99 -3.53338 -1.78796 0
M  V30 2119 H 201.164 -4.52018 0.895358 0
M  V30 2120 H 199.479 -4.11243 0.653324 0
M  V30 2121 H 202.076 -4.96069 -1.99548 0
M  V30 2122 H 202.419 -3.32552 -2.50429 0
M  V30 2123 H 202.952 -3.87554 -0.897019 0
M  V30 2124 H 199.691 -6.53728 0.481679 0
M  V30 2125 H 199.211 -5.89515 -1.10597 0
M  V30 2126 H 200.89 -6.41752 -0.822377 0
M  V30 2127 N 201.022 0.148545 -1.56898 0
M  V30 2128 C 202.262 0.86765 -1.85071 0
M  V30 2129 C 202.626 1.78417 -0.709317 0
M  V30 2130 O 203.827 2.54261 -0.872049 0
M  V30 2131 C 202.098 1.62306 -3.1842 0
M  V30 2132 S 203.657 2.3878 -3.68143 0
M  V30 2133 H 200.475 0.290174 -0.649092 0
M  V30 2134 H 203.077 0.127755 -1.95082 0
M  V30 2135 H 201.781 0.941192 -3.99462 0
M  V30 2136 H 201.312 2.4039 -3.1141 0
M  V30 2137 H 203.327 3.63942 -3.37285 0
M  V30 2138 N 202.5 1.5196 0.417844 0
M  V30 2139 C 203.748 1.65263 1.16329 0
M  V30 2140 C 204.069 0.380634 1.91249 0
M  V30 2141 O 203.339 -0.604214 1.86349 0
M  V30 2142 H 201.919 0.60912 0.432414 0
M  V30 2143 H 204.581 1.88969 0.477162 0
M  V30 2144 H 203.677 2.4896 1.88217 0
M  V30 2145 N 203.978 -0.674533 1.42435 0
M  V30 2146 C 205.224 -1.43521 1.4413 0
M  V30 2147 C 205.579 -1.92316 0.0567773 0
M  V30 2148 O 204.872 -1.68008 -0.921076 0
M  V30 2149 C 205.066 -2.64767 2.40069 0
M  V30 2150 C 204.895 -2.27836 3.87713 0
M  V30 2151 C 203.665 -2.17183 4.56245 0
M  V30 2152 C 205.863 -1.89466 4.78129 0
M  V30 2153 N 203.845 -1.73358 5.88915 0
M  V30 2154 C 205.216 -1.56561 5.99907 0
M  V30 2155 C 207.271 -1.7646 4.65582 0
M  V30 2156 C 205.974 -1.11957 7.10534 0
M  V30 2157 C 208 -1.3326 5.76191 0
M  V30 2158 C 207.362 -1.0128 6.97081 0
M  V30 2159 H 203.461 -0.521656 0.582579 0
M  V30 2160 H 206.045 -0.778381 1.78464 0
M  V30 2161 H 204.216 -3.28139 2.07796 0
M  V30 2162 H 205.948 -3.3136 2.32342 0
M  V30 2163 H 202.703 -2.3626 4.10461 0
M  V30 2164 H 203.127 -1.53867 6.59283 0
M  V30 2165 H 207.769 -1.99831 3.72595 0
M  V30 2166 H 205.487 -0.873318 8.03367 0
M  V30 2167 H 209.073 -1.23717 5.68494 0
M  V30 2168 H 207.953 -0.683597 7.81215 0
M  V30 2169 N 205.456 -1.28612 -0.910864 0
M  V30 2170 C 206.404 -1.1265 -2.03501 0
M  V30 2171 C 207.398 -0.0450054 -1.6934 0
M  V30 2172 O 208.604 -0.203988 -1.7884 0
M  V30 2173 H 204.979 -0.347639 -0.666822 0
M  V30 2174 H 206.95 -2.07849 -2.14106 0
M  V30 2175 C 205.699 -0.808143 -3.38178 0
M  V30 2176 H 205.022 -1.63231 -3.6496 0
M  V30 2177 H 206.462 -0.736426 -4.17556 0
M  V30 2178 C 204.921 0.488226 -3.33344 0
M  V30 2179 O 205.451 1.51766 -3.71927 0
M  V30 2180 N 203.657 0.490009 -2.86439 0
M  V30 2181 H 203.204 -0.348161 -2.55236 0
M  V30 2182 H 203.162 1.35741 -2.83587 0
M  V30 2183 N 206.934 1.1197 -1.10907 0
M  V30 2184 C 207.844 2.21433 -0.774896 0
M  V30 2185 C 208.86 1.72478 0.229657 0
M  V30 2186 O 210.036 2.01288 0.0672008 0
M  V30 2187 C 207.101 3.4602 -0.216986 0
M  V30 2188 C 206.162 4.09791 -1.27944 0
M  V30 2189 C 205.395 5.28431 -0.748055 0
M  V30 2190 O 205.618 5.68823 0.423833 0
M  V30 2191 O 204.552 5.82644 -1.51027 0
M  V30 2192 H 208.378 2.5242 -1.68873 0
M  V30 2193 H 205.963 1.20399 -0.884555 0
M  V30 2194 H 207.845 4.21304 0.090059 0
M  V30 2195 H 206.52 3.16698 0.669633 0
M  V30 2196 H 205.427 3.36265 -1.63941 0
M  V30 2197 H 206.76 4.4328 -2.13925 0
M  V30 2198 N 208.412 0.89855 1.29475 0
M  V30 2199 C 209.66 0.522847 1.9522 0
M  V30 2200 C 209.981 -0.93371 1.71192 0
M  V30 2201 O 209.251 -1.65823 1.04305 0
M  V30 2202 H 207.831 0.190366 0.722336 0
M  V30 2203 H 210.493 1.14459 1.5775 0
M  V30 2204 H 209.589 0.704476 3.04045 0
M  V30 2205 N 209.89 -1.43072 0.660911 0
M  V30 2206 C 211.306 -1.56169 0.329173 0
M  V30 2207 C 211.506 -1.64317 -1.16629 0
M  V30 2208 O 210.562 -1.60245 -1.95135 0
M  V30 2209 C 211.875 -2.81873 1.04729 0
M  V30 2210 C 213.423 -2.95627 1.02828 0
M  V30 2211 C 213.898 -4.24174 1.72744 0
M  V30 2212 N 215.389 -4.31055 1.69545 0
M  V30 2213 C 216.124 -5.29304 2.20511 0
M  V30 2214 N 215.62 -6.33786 2.79799 0
M  V30 2215 N 217.413 -5.21008 2.10966 0
M  V30 2216 H 209.564 -1.36027 1.63127 0
M  V30 2217 H 211.827 -0.653823 0.686454 0
M  V30 2218 H 211.533 -2.81942 2.10242 0
M  V30 2219 H 211.407 -3.72338 0.603702 0
M  V30 2220 H 213.794 -2.95094 -0.0184742 0
M  V30 2221 H 213.875 -2.06431 1.51063 0
M  V30 2222 H 213.519 -4.25467 2.7738 0
M  V30 2223 H 213.449 -5.1228 1.2197 0
M  V30 2224 H 215.94 -3.56174 1.26288 0
M  V30 2225 H 216.253 -7.05086 3.16344 0
M  V30 2226 H 214.598 -6.34387 2.83863 0
M  V30 2227 H 217.789 -4.38301 1.64347 0
M  V30 2228 H 217.962 -5.97416 2.50993 0
M  V30 2229 N 211.368 -0.403325 -1.52352 0
M  V30 2230 C 212.779 0.0675782 -1.86578 0
M  V30 2231 C 213.13 1.44941 -1.32236 0
M  V30 2232 O 212.255 2.06112 -0.659307 0
M  V30 2233 C 212.85 0.129404 -3.38553 0
M  V30 2234 C 211.409 0.544629 -3.72439 0
M  V30 2235 C 210.556 -0.284551 -2.75836 0
M  V30 2236 H 213.507 -0.620631 -1.46061 0
M  V30 2237 H 213.528 0.94581 -3.68558 0
M  V30 2238 H 213.04 -0.87645 -3.78074 0
M  V30 2239 H 211.141 1.55734 -3.38493 0
M  V30 2240 H 211.254 0.293046 -4.78203 0
M  V30 2241 H 209.618 0.252258 -2.53448 0
M  V30 2242 H 210.401 -1.28865 -3.18196 0
M  V30 2243 N 212.846 1.57033 -0.133567 0
M  V30 2244 C 214.076 1.99754 0.527429 0
M  V30 2245 C 214.484 1.01245 1.59832 0
M  V30 2246 O 213.827 -0.000645496 1.837 0
M  V30 2247 C 213.889 3.38903 1.19939 0
M  V30 2248 C 213.553 4.56174 0.274709 0
M  V30 2249 C 214.55 5.17563 -0.492398 0
M  V30 2250 C 212.235 5.01972 0.18153 0
M  V30 2251 C 214.229 6.2315 -1.34027 0
M  V30 2252 C 211.916 6.07416 -0.669958 0
M  V30 2253 C 212.914 6.67874 -1.42947 0
M  V30 2254 O 212.602 7.71279 -2.2668 0
M  V30 2255 H 212.334 0.660702 0.142999 0
M  V30 2256 H 214.888 2.04207 -0.221099 0
M  V30 2257 H 213.118 3.31248 1.99528 0
M  V30 2258 H 214.807 3.65818 1.75875 0
M  V30 2259 H 215.573 4.83087 -0.430367 0
M  V30 2260 H 211.452 4.54652 0.762422 0
M  V30 2261 H 214.996 6.70268 -1.93357 0
M  V30 2262 H 210.893 6.41321 -0.73333 0
M  V30 2263 H 211.661 7.88441 -2.1978 0
M  V30 2264 N 214.325 -0.140222 1.56975 0
M  V30 2265 C 215.255 -1.17456 2.01808 0
M  V30 2266 C 216.236 -1.44415 0.898794 0
M  V30 2267 O 217.421 -1.5522 1.16707 0
M  V30 2268 C 214.551 -2.50607 2.40444 0
M  V30 2269 C 213.505 -2.38155 3.55621 0
M  V30 2270 C 212.831 -3.76078 3.80091 0
M  V30 2271 C 214.131 -1.85991 4.88062 0
M  V30 2272 H 215.825 -0.801743 2.88466 0
M  V30 2273 H 213.371 -0.38422 1.38779 0
M  V30 2274 H 215.324 -3.23197 2.7041 0
M  V30 2275 H 214.048 -2.89737 1.50732 0
M  V30 2276 H 212.707 -1.68016 3.25832 0
M  V30 2277 H 212.355 -4.12656 2.87618 0
M  V30 2278 H 212.055 -3.68606 4.57606 0
M  V30 2279 H 213.579 -4.50206 4.12488 0
M  V30 2280 H 214.993 -2.4838 5.16701 0
M  V30 2281 H 213.39 -1.89393 5.6943 0
M  V30 2282 H 214.46 -0.816023 4.77984 0
M  V30 2283 N 215.803 -1.52179 -0.40978 0
M  V30 2284 C 217.05 -1.66206 -1.15679 0
M  V30 2285 C 217.378 -0.391674 -1.90516 0
M  V30 2286 O 216.633 0.62533 -1.8544 0
M  V30 2287 C 216.932 -2.83428 -2.17723 0
M  V30 2288 C 216.598 -4.21672 -1.59699 0
M  V30 2289 C 215.26 -4.59274 -1.43599 0
M  V30 2290 C 217.612 -5.07825 -1.17317 0
M  V30 2291 C 214.94 -5.80709 -0.836328 0
M  V30 2292 C 217.292 -6.29864 -0.587691 0
M  V30 2293 C 215.956 -6.66216 -0.413818 0
M  V30 2294 H 215.226 -0.608192 -0.423301 0
M  V30 2295 H 217.873 -1.86279 -0.444097 0
M  V30 2296 H 216.178 -2.57687 -2.95135 0
M  V30 2297 H 217.875 -2.91477 -2.75394 0
M  V30 2298 H 214.465 -3.9204 -1.73213 0
M  V30 2299 H 218.649 -4.79359 -1.28565 0
M  V30 2300 H 213.905 -6.07498 -0.689626 0
M  V30 2301 H 218.079 -6.95948 -0.250894 0
M  V30 2302 H 215.706 -7.60182 0.0529471 0
M  V30 2303 N 217.281 0.66697 -1.42791 0
M  V30 2304 C 218.213 1.7925 -1.42836 0
M  V30 2305 C 219.226 1.59496 -0.326333 0
M  V30 2306 O 220.415 1.6847 -0.589916 0
M  V30 2307 C 217.515 3.16476 -1.21229 0
M  V30 2308 C 216.688 3.63011 -2.44013 0
M  V30 2309 C 215.747 4.78993 -2.17834 0
M  V30 2310 O 214.773 4.89137 -2.91091 0
M  V30 2311 N 215.975 5.68248 -1.18635 0
M  V30 2312 H 218.74 1.79695 -2.39854 0
M  V30 2313 H 216.301 0.850338 -1.37771 0
M  V30 2314 H 218.293 3.91734 -1.01621 0
M  V30 2315 H 216.863 3.10884 -0.32706 0
M  V30 2316 H 216.083 2.78346 -2.79137 0
M  V30 2317 H 217.371 3.90845 -3.25757 0
M  V30 2318 H 216.769 5.62712 -0.580615 0
M  V30 2319 H 215.326 6.43285 -1.05013 0
M  V30 2320 N 218.759 1.29093 0.90403 0
M  V30 2321 C 219.984 1.19809 1.69294 0
M  V30 2322 C 220.409 -0.238481 1.86582 0
M  V30 2323 O 219.767 -1.1723 1.383 0
M  V30 2324 C 219.815 1.91202 3.05736 0
M  V30 2325 O 218.919 1.22611 3.93752 0
M  V30 2326 H 218.26 0.415385 0.518027 0
M  V30 2327 H 220.79 1.70586 1.12967 0
M  V30 2328 H 220.8 1.99487 3.55906 0
M  V30 2329 H 219.475 2.95692 2.92471 0
M  V30 2330 H 218.052 1.22554 3.52186 0
M  V30 2331 N 220.237 -1.11381 1.11499 0
M  V30 2332 C 221.514 -1.7955 0.775965 0
M  V30 2333 C 221.894 -1.97859 -0.73588 0
M  V30 2334 O 221.242 -1.56376 -1.66609 0
M  V30 2335 C 221.452 -3.13196 1.53977 0
M  V30 2336 C 222.8 -3.88227 1.71944 0
M  V30 2337 O 223.824 -3.22887 1.50407 0
M  V30 2338 O 222.683 -5.05477 2.07738 0
M  V30 2339 H 219.777 -0.777728 0.28119 0
M  V30 2340 H 222.323 -1.18118 1.21845 0
M  V30 2341 H 221.095 -2.95229 2.56818 0
M  V30 2342 H 220.718 -3.82342 1.09088 0
M  V30 2343 N 221.715 -0.905404 -1.28997 0
M  V30 2344 C 223.126 -0.581953 -1.77398 0
M  V30 2345 C 223.477 0.902552 -1.74208 0
M  V30 2346 O 222.602 1.70584 -1.33154 0
M  V30 2347 C 223.197 -1.04961 -3.22131 0
M  V30 2348 C 221.756 -0.777229 -3.68288 0
M  V30 2349 C 220.903 -1.22109 -2.48967 0
M  V30 2350 H 223.854 -1.08754 -1.15578 0
M  V30 2351 H 223.875 -0.387387 -3.78523 0
M  V30 2352 H 223.387 -2.13008 -3.24421 0
M  V30 2353 H 221.488 0.290383 -3.71467 0
M  V30 2354 H 221.601 -1.37911 -4.58822 0
M  V30 2355 H 219.965 -0.639971 -2.46529 0
M  V30 2356 H 220.748 -2.30972 -2.53982 0
M  V30 2357 N 223.193 1.4272 -0.668489 0
M  V30 2358 C 224.418 2.06484 -0.194758 0
M  V30 2359 C 224.843 1.49862 1.13679 0
M  V30 2360 O 224.201 0.614582 1.70565 0
M  V30 2361 C 224.249 3.60353 -0.133546 0
M  V30 2362 O 223.353 4.02464 0.899806 0
M  V30 2363 H 222.694 0.656137 -0.10188 0
M  V30 2364 H 225.224 1.82964 -0.915722 0
M  V30 2365 H 225.234 4.07976 0.0447041 0
M  V30 2366 H 223.909 4.00938 -1.1055 0
M  V30 2367 H 222.486 3.66402 0.693109 0
M  V30 2368 N 224.671 0.411399 1.52136 0
M  V30 2369 C 225.919 -0.163322 2.01439 0
M  V30 2370 C 226.24 -1.45453 1.29879 0
M  V30 2371 O 225.51 -1.91225 0.4254 0
M  V30 2372 H 224.09 -0.0633447 0.744309 0
M  V30 2373 H 226.752 0.548161 1.87033 0
M  V30 2374 H 225.848 -0.357817 3.10042 0
M  V30 2375 N 226.149 -1.5696 0.141893 0
M  V30 2376 C 227.112 -2.15316 -0.785587 0
M  V30 2377 C 228.112 -1.09366 -1.1788 0
M  V30 2378 O 229.302 -1.35031 -1.10056 0
M  V30 2379 C 226.434 -2.71211 -2.06537 0
M  V30 2380 H 227.627 -2.98608 -0.278041 0
M  V30 2381 H 225.18 -1.5593 -0.107519 0
M  V30 2382 H 225.915 -1.91571 -2.6167 0
M  V30 2383 H 225.7 -3.4872 -1.79268 0
M  V30 2384 H 227.19 -3.16189 -2.72789 0
M  V30 2385 N 227.627 0.131896 -1.57047 0
M  V30 2386 C 228.857 0.855219 -1.88068 0
M  V30 2387 C 229.265 1.74557 -0.729817 0
M  V30 2388 O 228.608 1.81083 0.308962 0
M  V30 2389 C 228.67 1.75119 -3.13964 0
M  V30 2390 C 228.334 1.03646 -4.45091 0
M  V30 2391 C 229.331 0.383276 -5.18485 0
M  V30 2392 C 227.016 1.02148 -4.91804 0
M  V30 2393 C 229.01 -0.275347 -6.36805 0
M  V30 2394 C 226.697 0.359047 -6.10044 0
M  V30 2395 C 227.695 -0.288222 -6.82392 0
M  V30 2396 O 227.383 -0.94011 -7.98384 0
M  V30 2397 H 227.115 0.251864 -0.627328 0
M  V30 2398 H 229.669 0.124782 -2.05021 0
M  V30 2399 H 227.899 2.52295 -2.9306 0
M  V30 2400 H 229.588 2.3478 -3.31109 0
M  V30 2401 H 230.354 0.386562 -4.83457 0
M  V30 2402 H 226.233 1.5147 -4.35405 0
M  V30 2403 H 229.777 -0.781148 -6.93213 0
M  V30 2404 H 225.674 0.35348 -6.44531 0
M  V30 2405 H 226.442 -0.84329 -8.14144 0
M  V30 2406 N 229.106 1.52395 0.401703 0
M  V30 2407 C 230.353 1.66817 1.14796 0
M  V30 2408 C 230.681 0.401772 1.90305 0
M  V30 2409 O 229.936 -0.615487 1.85769 0
M  V30 2410 C 230.235 2.84578 2.16217 0
M  V30 2411 C 229.901 4.22513 1.5746 0
M  V30 2412 C 228.563 4.60029 1.41161 0
M  V30 2413 C 230.915 5.0844 1.14622 0
M  V30 2414 C 228.243 5.81144 0.80552 0
M  V30 2415 C 230.595 6.30167 0.55428 0
M  V30 2416 C 229.259 6.66426 0.378482 0
M  V30 2417 H 228.529 0.610428 0.420069 0
M  V30 2418 H 231.176 1.86512 0.434212 0
M  V30 2419 H 229.481 2.59248 2.93764 0
M  V30 2420 H 231.178 2.92933 2.73845 0
M  V30 2421 H 227.768 3.92953 1.71132 0
M  V30 2422 H 231.952 4.80034 1.26021 0
M  V30 2423 H 227.208 6.07855 0.657399 0
M  V30 2424 H 231.382 6.96071 0.213983 0
M  V30 2425 H 229.009 7.60143 -0.0932606 0
M  V30 2426 N 230.584 -0.659388 1.43143 0
M  V30 2427 C 231.547 -1.75432 1.47501 0
M  V30 2428 C 232.547 -1.56707 0.360512 0
M  V30 2429 O 233.737 -1.62717 0.622002 0
M  V30 2430 C 230.869 -3.14239 1.32162 0
M  V30 2431 H 232.062 -1.7295 2.45006 0
M  V30 2432 H 229.615 -0.870469 1.29817 0
M  V30 2433 H 230.35 -3.22336 0.356401 0
M  V30 2434 H 230.135 -3.29235 2.12948 0
M  V30 2435 H 231.625 -3.94094 1.3813 0
M  V30 2436 N 232.062 -1.29571 -0.897171 0
M  V30 2437 C 233.308 -1.18873 -1.65048 0
M  V30 2438 C 233.663 0.256707 -1.9068 0
M  V30 2439 O 232.956 1.18202 -1.50794 0
M  V30 2440 C 233.15 -1.9382 -3.00281 0
M  V30 2441 C 232.979 -3.45503 -2.8785 0
M  V30 2442 C 231.749 -4.14856 -2.88483 0
M  V30 2443 C 233.947 -4.40956 -2.64693 0
M  V30 2444 N 231.929 -5.52886 -2.66815 0
M  V30 2445 C 233.3 -5.66464 -2.5203 0
M  V30 2446 C 235.355 -4.3069 -2.49821 0
M  V30 2447 C 234.058 -6.82871 -2.26008 0
M  V30 2448 C 236.084 -5.46852 -2.25182 0
M  V30 2449 C 235.446 -6.71333 -2.13286 0
M  V30 2450 H 231.545 -0.489998 -0.609447 0
M  V30 2451 H 234.129 -1.63431 -1.05822 0
M  V30 2452 H 232.3 -1.51671 -3.57562 0
M  V30 2453 H 234.032 -1.75366 -3.64731 0
M  V30 2454 H 230.787 -3.66579 -2.99861 0
M  V30 2455 H 231.211 -6.25487 -2.59027 0
M  V30 2456 H 235.853 -3.35141 -2.5776 0
M  V30 2457 H 233.571 -7.78473 -2.16806 0
M  V30 2458 H 237.157 -5.40809 -2.14515 0
M  V30 2459 H 236.037 -7.59701 -1.94485 0
M  V30 2460 N 233.54 1.10788 -1.12088 0
M  V30 2461 C 234.487 2.17025 -0.785407 0
M  V30 2462 C 235.457 1.64265 0.246191 0
M  V30 2463 O 236.642 1.90412 0.121584 0
M  V30 2464 C 233.782 3.44249 -0.242177 0
M  V30 2465 C 232.895 4.1098 -1.33115 0
M  V30 2466 C 232.03 5.25911 -0.747741 0
M  V30 2467 C 231.069 5.84538 -1.81609 0
M  V30 2468 N 230.206 6.90853 -1.25167 0
M  V30 2469 H 235.046 2.45066 -1.69548 0
M  V30 2470 H 232.583 1.20297 -0.846582 0
M  V30 2471 H 234.541 4.17101 0.0908026 0
M  V30 2472 H 233.171 3.16571 0.631072 0
M  V30 2473 H 232.223 3.36133 -1.78097 0
M  V30 2474 H 233.535 4.50601 -2.13917 0
M  V30 2475 H 232.689 6.056 -0.365216 0
M  V30 2476 H 231.428 4.87614 0.0915188 0
M  V30 2477 H 230.433 5.03522 -2.20785 0
M  V30 2478 H 231.658 6.249 -2.6585 0
M  V30 2479 H 229.604 6.54562 -0.434174 0
M  V30 2480 H 229.521 7.29166 -1.99633 0
M  V30 2481 H 230.789 7.7433 -0.896259 0
M  V30 2482 N 235.018 0.912232 1.28515 0
M  V30 2483 C 235.981 0.404223 2.25607 0
M  V30 2484 C 236.981 -0.468602 1.53821 0
M  V30 2485 O 238.171 -0.271873 1.72065 0
M  V30 2486 C 235.303 -0.420653 3.38295 0
M  V30 2487 H 236.496 1.26188 2.7206 0
M  V30 2488 H 234.049 0.691495 1.40171 0
M  V30 2489 H 234.784 -1.29777 2.97201 0
M  V30 2490 H 234.569 0.204935 3.91564 0
M  V30 2491 H 236.059 -0.766971 4.10496 0
M  V30 2492 N 236.496 -1.42363 0.676048 0
M  V30 2493 C 237.724 -2.05859 0.207268 0
M  V30 2494 C 238.139 -1.50796 -1.13605 0
M  V30 2495 O 237.496 -0.648265 -1.70598 0
M  V30 2496 C 237.547 -3.61248 0.134975 0
M  V30 2497 O 237.268 -4.1427 1.42521 0
M  V30 2498 C 238.769 -4.41859 -0.357151 0
M  V30 2499 H 235.989 -0.663431 0.100503 0
M  V30 2500 H 238.533 -1.82479 0.923136 0
M  V30 2501 H 236.688 -3.83735 -0.531588 0
M  V30 2502 H 237.102 -5.0815 1.29939 0
M  V30 2503 H 238.576 -5.50847 -0.356641 0
M  V30 2504 H 239.053 -4.16536 -1.39264 0
M  V30 2505 H 239.659 -4.24392 0.27772 0
M  V30 2506 N 237.974 -0.419461 -1.51915 0
M  V30 2507 C 238.937 0.389116 -2.25873 0
M  V30 2508 C 239.937 0.964924 -1.28631 0
M  V30 2509 O 241.127 0.842179 -1.52489 0
M  V30 2510 C 238.259 1.54874 -3.03689 0
M  V30 2511 H 239.452 -0.258799 -2.98781 0
M  V30 2512 H 237.005 -0.172209 -1.55348 0
M  V30 2513 H 237.74 2.23323 -2.35154 0
M  V30 2514 H 237.525 1.14223 -3.75094 0
M  V30 2515 H 239.015 2.12046 -3.59759 0
M  V30 2516 N 239.452 1.56882 -0.150215 0
M  V30 2517 C 240.385 2.12712 0.826358 0
M  V30 2518 C 241.363 1.05154 1.24022 0
M  V30 2519 O 242.547 1.33004 1.33575 0
M  V30 2520 C 239.674 2.64945 2.11002 0
M  V30 2521 C 238.72 3.8468 1.84183 0
M  V30 2522 S 239.553 5.25502 1.02995 0
M  V30 2523 C 240.709 5.81125 2.32474 0
M  V30 2524 H 240.942 2.95214 0.351598 0
M  V30 2525 H 238.475 1.54267 0.0641211 0
M  V30 2526 H 240.433 2.95689 2.84742 0
M  V30 2527 H 239.094 1.82568 2.55593 0
M  V30 2528 H 238.287 4.19482 2.79375 0
M  V30 2529 H 237.889 3.54714 1.1855 0
M  V30 2530 H 240.181 5.92753 3.281 0
M  V30 2531 H 241.124 6.78625 2.02171 0
M  V30 2532 H 241.532 5.09392 2.43269 0
M  V30 2533 N 240.93 -0.123565 1.57115 0
M  V30 2534 C 242.178 -0.83051 1.84247 0
M  V30 2535 C 242.499 -1.80629 0.73471 0
M  V30 2536 O 241.769 -1.94403 -0.241688 0
M  V30 2537 H 240.349 -0.309694 0.679778 0
M  V30 2538 H 243.011 -0.111976 1.94578 0
M  V30 2539 H 242.107 -1.37852 2.80006 0
M  V30 2540 N 242.408 -1.52605 -0.393616 0
M  V30 2541 C 243.355 -1.77055 -1.48054 0
M  V30 2542 C 244.325 -0.61358 -1.54352 0
M  V30 2543 O 245.51 -0.852806 -1.70681 0
M  V30 2544 C 242.65 -1.94108 -2.85335 0
M  V30 2545 C 241.763 -3.21792 -2.88226 0
M  V30 2546 C 240.898 -3.29188 -4.16904 0
M  V30 2547 C 239.937 -4.51013 -4.13828 0
M  V30 2548 N 239.074 -4.55716 -5.34105 0
M  V30 2549 H 243.914 -2.69815 -1.26506 0
M  V30 2550 H 241.451 -1.33683 -0.61379 0
M  V30 2551 H 243.409 -2.01979 -3.65049 0
M  V30 2552 H 242.039 -1.04713 -3.05344 0
M  V30 2553 H 241.091 -3.23015 -2.00911 0
M  V30 2554 H 242.403 -4.11557 -2.8182 0
M  V30 2555 H 241.557 -3.36216 -5.05018 0
M  V30 2556 H 240.296 -2.37389 -4.26026 0
M  V30 2557 H 239.301 -4.44115 -3.24102 0
M  V30 2558 H 240.526 -5.44123 -4.06333 0
M  V30 2559 H 238.472 -3.66807 -5.43865 0
M  V30 2560 H 238.389 -5.39346 -5.29756 0
M  V30 2561 H 239.657 -4.66993 -6.2413 0
M  V30 2562 N 243.887 0.651787 -1.4349 0
M  V30 2563 C 244.835 1.78586 -1.49029 0
M  V30 2564 C 245.829 1.65448 -0.363767 0
M  V30 2565 O 247.035 1.71777 -0.537821 0
M  V30 2566 H 243.41 0.589236 -0.467231 0
M  V30 2567 H 245.381 1.71035 -2.44519 0
M  V30 2568 C 244.13 3.16851 -1.43181 0
M  V30 2569 H 243.453 3.27598 -2.29171 0
M  V30 2570 H 244.893 3.96156 -1.51118 0
M  V30 2571 C 243.352 3.36568 -0.149616 0
M  V30 2572 O 243.882 3.93885 0.788509 0
M  V30 2573 N 242.088 2.90539 -0.0593484 0
M  V30 2574 H 241.635 2.4408 -0.823575 0
M  V30 2575 H 241.593 3.04108 0.797853 0
M  V30 2576 N 245.365 1.30045 0.890287 0
M  V30 2577 C 246.595 1.21296 1.67245 0
M  V30 2578 C 247.003 -0.227471 1.87828 0
M  V30 2579 O 246.346 -1.16296 1.422 0
M  V30 2580 C 246.408 1.86519 3.07329 0
M  V30 2581 C 246.072 3.35837 3.09939 0
M  V30 2582 C 247.069 4.31915 2.89389 0
M  V30 2583 C 244.754 3.77196 3.31706 0
M  V30 2584 C 246.748 5.67325 2.90552 0
M  V30 2585 C 244.435 5.12725 3.32499 0
M  V30 2586 C 245.433 6.076 3.11947 0
M  V30 2587 O 245.121 7.40655 3.12547 0
M  V30 2588 H 244.853 0.4211 0.528821 0
M  V30 2589 H 247.407 1.72111 1.12103 0
M  V30 2590 H 245.637 1.30228 3.64112 0
M  V30 2591 H 247.326 1.71963 3.67673 0
M  V30 2592 H 248.092 4.01294 2.72375 0
M  V30 2593 H 243.971 3.03796 3.4674 0
M  V30 2594 H 247.515 6.41354 2.74429 0
M  V30 2595 H 243.412 5.42988 3.49047 0
M  V30 2596 H 244.18 7.49577 3.28749 0
M  V30 2597 N 246.843 -1.10192 1.12674 0
M  V30 2598 C 248.089 -1.82475 0.884915 0
M  V30 2599 C 248.422 -1.85093 -0.58773 0
M  V30 2600 O 247.697 -1.3134 -1.43457 0
M  V30 2601 C 247.98 -3.29018 1.46353 0
M  V30 2602 C 247.833 -3.34718 3.00473 0
M  V30 2603 C 249.152 -4.25473 1.12519 0
M  V30 2604 H 246.271 -0.662492 0.322915 0
M  V30 2605 H 248.913 -1.2913 1.39375 0
M  V30 2606 H 247.063 -3.74576 1.03077 0
M  V30 2607 H 248.735 -2.97622 3.52447 0
M  V30 2608 H 246.978 -2.74541 3.35872 0
M  V30 2609 H 247.649 -4.37918 3.36053 0
M  V30 2610 H 250.125 -3.88161 1.499 0
M  V30 2611 H 249.001 -5.26365 1.55663 0
M  V30 2612 H 249.262 -4.42084 0.0377407 0
M  V30 2613 N 248.321 -0.919034 -1.28029 0
M  V30 2614 C 249.269 -0.401753 -2.29104 0
M  V30 2615 C 250.263 0.509354 -1.61561 0
M  V30 2616 O 251.469 0.390014 -1.75724 0
M  V30 2617 H 247.844 -0.111331 -0.743713 0
M  V30 2618 H 249.815 -1.2672 -2.70156 0
M  V30 2619 C 248.564 0.338148 -3.46052 0
M  V30 2620 H 247.887 -0.353732 -3.98232 0
M  V30 2621 H 249.327 0.664653 -4.18758 0
M  V30 2622 C 247.786 1.54798 -2.99231 0
M  V30 2623 O 248.316 2.64696 -3.02157 0
M  V30 2624 N 246.522 1.3968 -2.54829 0
M  V30 2625 H 246.069 0.502698 -2.52647 0
M  V30 2626 H 246.027 2.20755 -2.23863 0
M  V30 2627 N 249.799 1.42003 -0.683588 0
M  V30 2628 C 251.047 2.01015 -0.209101 0
M  V30 2629 C 251.368 1.54365 1.19149 0
M  V30 2630 O 250.638 0.769083 1.80172 0
M  V30 2631 H 249.218 0.743294 -0.074315 0
M  V30 2632 H 251.88 1.73798 -0.882066 0
M  V30 2633 H 250.976 3.11343 -0.2172 0
M  V30 2634 N 251.277 0.427512 1.51691 0
M  V30 2635 C 252.224 -0.388867 2.275 0
M  V30 2636 C 253.194 -1.02532 1.30677 0
M  V30 2637 O 254.379 -1.0461 1.59566 0
M  V30 2638 C 251.519 -1.48954 3.11298 0
M  V30 2639 C 250.632 -0.872194 4.23104 0
M  V30 2640 C 249.767 -1.94709 4.94228 0
M  V30 2641 C 248.806 -1.30766 5.97969 0
M  V30 2642 N 247.943 -2.32349 6.62539 0
M  V30 2643 H 252.783 0.263997 2.96828 0
M  V30 2644 H 250.32 0.142033 1.46413 0
M  V30 2645 H 252.278 -2.13887 3.58201 0
M  V30 2646 H 250.908 -2.11217 2.44105 0
M  V30 2647 H 249.96 -0.111419 3.80237 0
M  V30 2648 H 251.272 -0.365264 4.97461 0
M  V30 2649 H 250.426 -2.67327 5.44629 0
M  V30 2650 H 249.165 -2.48773 4.1948 0
M  V30 2651 H 248.17 -0.566902 5.4687 0
M  V30 2652 H 249.395 -0.774483 6.74669 0
M  V30 2653 H 247.341 -2.85511 5.90609 0
M  V30 2654 H 247.258 -1.8652 7.3263 0
M  V30 2655 H 248.526 -3.04481 7.17574 0
M  V30 2656 N 252.755 -1.56801 0.158532 0
M  V30 2657 C 253.983 -2.00859 -0.496303 0
M  V30 2658 C 254.398 -1.03871 -1.57659 0
M  V30 2659 O 253.755 -0.0375165 -1.82461 0
M  V30 2660 C 253.806 -3.4479 -1.08638 0
M  V30 2661 O 253.527 -4.38072 -0.0492322 0
M  V30 2662 C 255.028 -4.04185 -1.8207 0
M  V30 2663 H 252.248 -0.65864 -0.128199 0
M  V30 2664 H 254.792 -2.02885 0.256506 0
M  V30 2665 H 252.947 -3.43579 -1.78975 0
M  V30 2666 H 253.361 -5.2227 -0.483102 0
M  V30 2667 H 254.835 -5.06857 -2.18633 0
M  V30 2668 H 255.312 -3.45549 -2.71095 0
M  V30 2669 H 255.918 -4.0906 -1.16405 0
M  V30 2670 N 254.233 0.115231 -1.57178 0
M  V30 2671 C 255.48 0.822351 -1.8505 0
M  V30 2672 C 255.808 1.79701 -0.744168 0
M  V30 2673 O 255.063 1.93909 0.26414 0
M  V30 2674 C 255.362 1.60324 -3.19423 0
M  V30 2675 C 255.028 0.772536 -4.44233 0
M  V30 2676 C 253.69 0.543468 -4.78121 0
M  V30 2677 C 256.042 0.193746 -5.2084 0
M  V30 2678 C 253.37 -0.274583 -5.86057 0
M  V30 2679 C 255.722 -0.611517 -6.29637 0
M  V30 2680 C 254.386 -0.850867 -6.62055 0
M  V30 2681 H 253.656 0.30092 -0.677147 0
M  V30 2682 H 256.303 0.0845802 -1.91313 0
M  V30 2683 H 254.608 2.41203 -3.08753 0
M  V30 2684 H 256.305 2.1544 -3.38211 0
M  V30 2685 H 252.895 0.96117 -4.17683 0
M  V30 2686 H 257.079 0.357926 -4.95008 0
M  V30 2687 H 252.335 -0.469206 -6.09597 0
M  V30 2688 H 256.509 -1.06697 -6.88178 0
M  V30 2689 H 254.136 -1.48657 -7.45523 0
M  V30 2690 N 255.711 1.52812 0.385517 0
M  V30 2691 C 256.641 1.80808 1.47752 0
M  V30 2692 C 257.622 0.660318 1.5676 0
M  V30 2693 O 258.807 0.908246 1.71652 0
M  V30 2694 C 255.937 1.98008 2.85324 0
M  V30 2695 C 254.891 3.13709 2.91154 0
M  V30 2696 C 254.217 3.16169 4.31209 0
M  V30 2697 C 255.517 4.52709 2.60483 0
M  V30 2698 H 257.211 2.72253 1.24573 0
M  V30 2699 H 254.757 1.31003 0.597839 0
M  V30 2700 H 256.71 2.16176 3.61726 0
M  V30 2701 H 255.434 1.03255 3.09848 0
M  V30 2702 H 254.093 2.95329 2.17201 0
M  V30 2703 H 253.741 2.19092 4.52778 0
M  V30 2704 H 253.441 3.93894 4.36029 0
M  V30 2705 H 254.965 3.36496 5.09512 0
M  V30 2706 H 256.379 4.71173 3.26602 0
M  V30 2707 H 254.776 5.32528 2.76648 0
M  V30 2708 H 255.846 4.59186 1.55809 0
M  V30 2709 N 257.189 -0.644168 1.43834 0
M  V30 2710 C 258.099 -1.78563 1.52159 0
M  V30 2711 C 259.115 -1.69147 0.408069 0
M  V30 2712 O 260.291 -1.90156 0.663524 0
M  V30 2713 C 257.356 -3.14888 1.45073 0
M  V30 2714 C 256.417 -3.36034 2.6717 0
M  V30 2715 C 255.65 -4.65855 2.60413 0
M  V30 2716 O 255.873 -5.45805 1.65689 0
M  V30 2717 O 254.807 -4.88918 3.5106 0
M  V30 2718 H 258.633 -1.74494 2.48567 0
M  V30 2719 H 256.218 -0.80378 1.25935 0
M  V30 2720 H 258.1 -3.96179 1.43597 0
M  V30 2721 H 256.775 -3.19528 0.518037 0
M  V30 2722 H 255.682 -2.54472 2.74217 0
M  V30 2723 H 257.015 -3.36247 3.59442 0
M  V30 2724 N 258.668 -1.30515 -0.883378 0
M  V30 2725 C 259.615 -1.17032 -1.98927 0
M  V30 2726 C 260.585 -0.0594241 -1.65994 0
M  V30 2727 O 261.77 -0.229895 -1.8941 0
M  V30 2728 C 258.91 -0.869777 -3.33959 0
M  V30 2729 C 258.023 -2.06271 -3.79574 0
M  V30 2730 C 257.158 -1.70011 -5.03259 0
M  V30 2731 C 256.197 -2.8579 -5.41286 0
M  V30 2732 N 255.334 -2.49816 -6.56153 0
M  V30 2733 H 260.174 -2.1164 -2.09792 0
M  V30 2734 H 257.711 -1.05296 -1.02719 0
M  V30 2735 H 259.669 -0.676138 -4.11685 0
M  V30 2736 H 258.299 0.0394332 -3.22776 0
M  V30 2737 H 257.351 -2.36755 -2.97744 0
M  V30 2738 H 258.663 -2.92971 -4.03694 0
M  V30 2739 H 257.817 -1.47032 -5.88614 0
M  V30 2740 H 256.556 -0.804829 -4.81013 0
M  V30 2741 H 255.561 -3.09434 -4.54456 0
M  V30 2742 H 256.786 -3.76008 -5.65504 0
M  V30 2743 H 254.732 -1.62795 -6.35479 0
M  V30 2744 H 254.649 -3.30048 -6.8015 0
M  V30 2745 H 255.917 -2.30197 -7.44735 0
M  V30 2746 N 260.146 1.09593 -1.13257 0
M  V30 2747 C 261.562 1.33775 -0.870423 0
M  V30 2748 C 261.762 1.95327 0.494926 0
M  V30 2749 O 260.818 2.19853 1.2418 0
M  V30 2750 C 262.131 2.25106 -1.99369 0
M  V30 2751 C 263.679 2.3862 -2.02558 0
M  V30 2752 C 264.154 3.33285 -3.14142 0
M  V30 2753 N 265.645 3.40857 -3.13641 0
M  V30 2754 C 266.38 4.14101 -3.96621 0
M  V30 2755 N 265.876 4.90157 -4.8961 0
M  V30 2756 N 267.669 4.09808 -3.84726 0
M  V30 2757 H 259.82 0.680136 -2.01216 0
M  V30 2758 H 262.083 0.362133 -0.876107 0
M  V30 2759 H 261.789 1.87103 -2.97801 0
M  V30 2760 H 261.663 3.25481 -1.90635 0
M  V30 2761 H 264.05 2.75887 -1.0474 0
M  V30 2762 H 264.131 1.38028 -2.15364 0
M  V30 2763 H 263.775 2.96741 -4.12198 0
M  V30 2764 H 263.705 4.33776 -2.98574 0
M  V30 2765 H 266.196 2.86624 -2.46282 0
M  V30 2766 H 266.509 5.4347 -5.49418 0
M  V30 2767 H 264.854 4.89251 -4.93617 0
M  V30 2768 H 268.045 3.4949 -3.11408 0
M  V30 2769 H 268.218 4.66629 -4.49623 0
M  V30 2770 N 261.624 0.925811 1.2754 0
M  V30 2771 C 262.854 0.580666 1.98272 0
M  V30 2772 C 263.262 -0.845207 1.69272 0
M  V30 2773 O 262.605 -1.57306 0.948707 0
M  V30 2774 C 262.667 0.724418 3.52126 0
M  V30 2775 C 262.331 2.12206 4.04744 0
M  V30 2776 C 263.328 3.09604 4.17662 0
M  V30 2777 C 261.013 2.4385 4.39138 0
M  V30 2778 C 263.007 4.36755 4.64246 0
M  V30 2779 C 260.694 3.71237 4.85414 0
M  V30 2780 C 261.692 4.67503 4.97926 0
M  V30 2781 O 261.38 5.92624 5.43187 0
M  V30 2782 H 261.112 0.218987 0.639547 0
M  V30 2783 H 263.666 1.24452 1.63404 0
M  V30 2784 H 261.896 0.0034663 3.867 0
M  V30 2785 H 263.585 0.384607 4.04074 0
M  V30 2786 H 264.351 2.86478 3.91351 0
M  V30 2787 H 260.23 1.69665 4.28643 0
M  V30 2788 H 263.774 5.11898 4.73927 0
M  V30 2789 H 259.671 3.94182 5.11166 0
M  V30 2790 H 260.439 5.95585 5.61445 0
M  V30 2791 N 263.102 -1.41638 0.69111 0
M  V30 2792 C 264.05 -2.32597 0.0115199 0
M  V30 2793 C 265.044 -1.5072 -0.773296 0
M  V30 2794 O 266.25 -1.66685 -0.67942 0
M  V30 2795 H 262.625 -0.751849 -0.0150746 0
M  V30 2796 H 264.596 -2.87593 0.795791 0
M  V30 2797 C 263.345 -3.35467 -0.914172 0
M  V30 2798 H 262.668 -3.9852 -0.319687 0
M  V30 2799 H 264.108 -4.01662 -1.35808 0
M  V30 2800 C 262.567 -2.69004 -2.02826 0
M  V30 2801 O 263.097 -2.53444 -3.11655 0
M  V30 2802 N 261.303 -2.2777 -1.80469 0
M  V30 2803 H 260.85 -2.40626 -0.919615 0
M  V30 2804 H 260.808 -1.83635 -2.55197 0
M  V30 2805 N 264.58 -0.43555 -1.51462 0
M  V30 2806 C 265.49 0.383001 -2.31453 0
M  V30 2807 C 266.506 1.02931 -1.4029 0
M  V30 2808 O 267.682 1.02507 -1.73362 0
M  V30 2809 C 264.747 1.47043 -3.13973 0
M  V30 2810 C 263.808 0.844433 -4.20913 0
M  V30 2811 C 263.041 1.88004 -4.9949 0
M  V30 2812 O 263.264 3.10199 -4.78678 0
M  V30 2813 O 262.198 1.47157 -5.83634 0
M  V30 2814 H 266.024 -0.269964 -3.02498 0
M  V30 2815 H 263.609 -0.19813 -1.4808 0
M  V30 2816 H 265.491 2.10113 -3.65281 0
M  V30 2817 H 264.166 2.10751 -2.45695 0
M  V30 2818 H 263.073 0.175729 -3.73687 0
M  V30 2819 H 264.406 0.250869 -4.9156 0
M  V30 2820 N 266.058 1.56714 -0.166846 0
M  V30 2821 C 267.335 1.88412 0.525373 0
M  V30 2822 C 267.715 1.07602 1.81618 0
M  V30 2823 O 267.063 0.168621 2.27877 0
M  V30 2824 C 267.273 3.40363 0.771613 0
M  V30 2825 C 268.621 4.10007 1.1036 0
M  V30 2826 O 269.645 3.45655 0.860304 0
M  V30 2827 O 268.504 5.2369 1.56239 0
M  V30 2828 H 265.598 0.781587 0.270278 0
M  V30 2829 H 268.144 1.68458 -0.204946 0
M  V30 2830 H 266.916 3.91046 -0.141093 0
M  V30 2831 H 266.539 3.65914 1.55541 0
M  V30 2832 N 267.536 -0.106894 1.57237 0
M  V30 2833 C 268.466 -1.13148 2.04254 0
M  V30 2834 C 269.447 -1.42476 0.929224 0
M  V30 2835 O 270.632 -1.52709 1.19973 0
M  V30 2836 C 267.762 -2.4545 2.45706 0
M  V30 2837 C 266.716 -2.30558 3.60592 0
M  V30 2838 C 266.042 -3.67931 3.87983 0
M  V30 2839 C 267.342 -1.75597 4.91897 0
M  V30 2840 H 269.036 -0.740374 2.90101 0
M  V30 2841 H 266.582 -0.354696 1.39563 0
M  V30 2842 H 268.535 -3.17389 2.77205 0
M  V30 2843 H 267.259 -2.86475 1.56843 0
M  V30 2844 H 265.918 -1.61067 3.29322 0
M  V30 2845 H 265.566 -4.06462 2.96306 0
M  V30 2846 H 265.266 -3.58817 4.65322 0
M  V30 2847 H 266.79 -4.41356 4.21945 0
M  V30 2848 H 268.204 -2.37364 5.21854 0
M  V30 2849 H 266.601 -1.77272 5.73319 0
M  V30 2850 H 267.671 -0.714451 4.79608 0
M  V30 2851 N 269.014 -1.53014 -0.377408 0
M  V30 2852 C 269.924 -1.81557 -1.48574 0
M  V30 2853 C 270.94 -0.703102 -1.59162 0
M  V30 2854 O 272.116 -0.99192 -1.75279 0
M  V30 2855 C 269.181 -1.9889 -2.83978 0
M  V30 2856 C 268.242 -3.22801 -2.83016 0
M  V30 2857 C 267.475 -3.39298 -4.11962 0
M  V30 2858 O 267.698 -2.60345 -5.0752 0
M  V30 2859 O 266.632 -4.32604 -4.18494 0
M  V30 2860 H 270.458 -2.75695 -1.27382 0
M  V30 2861 H 268.043 -1.38248 -0.566373 0
M  V30 2862 H 269.925 -2.11931 -3.6423 0
M  V30 2863 H 268.6 -1.07942 -3.05172 0
M  V30 2864 H 267.507 -3.15193 -2.01505 0
M  V30 2865 H 268.84 -4.13632 -2.66775 0
M  V30 2866 N 270.492 0.636531 -1.44174 0
M  V30 2867 C 271.422 1.76003 -1.53444 0
M  V30 2868 C 272.403 1.65619 -0.387841 0
M  V30 2869 O 273.588 1.84461 -0.607257 0
M  V30 2870 C 270.718 3.14511 -1.4731 0
M  V30 2871 C 269.672 3.39677 -2.60391 0
M  V30 2872 C 268.998 4.78159 -2.39308 0
M  V30 2873 C 270.298 3.32772 -4.02567 0
M  V30 2874 H 271.992 1.68501 -2.47483 0
M  V30 2875 H 269.538 0.809237 -1.19111 0
M  V30 2876 H 271.491 3.92878 -1.52397 0
M  V30 2877 H 270.215 3.22783 -0.49785 0
M  V30 2878 H 268.874 2.63688 -2.54684 0
M  V30 2879 H 268.522 4.83128 -1.39988 0
M  V30 2880 H 268.222 4.95956 -3.15122 0
M  V30 2881 H 269.746 5.58762 -2.46205 0
M  V30 2882 H 271.16 4.01051 -4.09672 0
M  V30 2883 H 269.557 3.62104 -4.7854 0
M  V30 2884 H 270.627 2.30669 -4.2652 0
M  V30 2885 N 271.97 1.30982 0.876444 0
M  V30 2886 C 272.88 1.2003 2.01569 0
M  V30 2887 C 273.896 0.11838 1.73597 0
M  V30 2888 O 275.072 0.33495 1.98595 0
M  V30 2889 C 272.137 0.901637 3.34771 0
M  V30 2890 C 271.198 2.06979 3.76109 0
M  V30 2891 C 270.431 1.78529 5.02954 0
M  V30 2892 O 270.654 0.717296 5.65872 0
M  V30 2893 O 269.588 2.64019 5.40905 0
M  V30 2894 H 273.414 2.15753 2.13739 0
M  V30 2895 H 270.999 1.10658 1.00375 0
M  V30 2896 H 272.881 0.750645 4.1466 0
M  V30 2897 H 271.556 -0.0256141 3.2369 0
M  V30 2898 H 270.463 2.27616 2.96887 0
M  V30 2899 H 271.796 2.97907 3.91807 0
M  V30 2900 N 273.449 -1.08991 1.13837 0
M  V30 2901 C 274.726 -1.77863 0.813876 0
M  V30 2902 C 275.106 -1.99375 -0.693746 0
M  V30 2903 O 274.454 -1.59875 -1.63255 0
M  V30 2904 C 274.664 -3.0986 1.60586 0
M  V30 2905 C 276.012 -3.84493 1.8014 0
M  V30 2906 O 277.036 -3.19624 1.57222 0
M  V30 2907 O 275.895 -5.00957 2.18413 0
M  V30 2908 H 272.989 -0.771589 0.297624 0
M  V30 2909 H 275.535 -1.15507 1.24323 0
M  V30 2910 H 274.307 -2.89715 2.63022 0
M  V30 2911 H 273.93 -3.79942 1.17173 0
M  V30 2912 N 274.927 -0.932562 -1.27047 0
M  V30 2913 C 275.89 -0.440064 -2.24936 0
M  V30 2914 C 276.89 0.444071 -1.54547 0
M  V30 2915 O 278.08 0.244465 -1.72476 0
M  V30 2916 C 275.212 0.36678 -3.38921 0
M  V30 2917 H 276.405 -1.305 -2.70018 0
M  V30 2918 H 273.958 -0.713707 -1.39054 0
M  V30 2919 H 274.693 1.25033 -2.99228 0
M  V30 2920 H 274.478 -0.267204 -3.91188 0
M  V30 2921 H 275.968 0.701567 -4.11665 0
M  V30 2922 N 276.405 1.4127 -0.698611 0
M  V30 2923 C 277.654 2.00408 -0.227949 0
M  V30 2924 C 277.967 1.55981 1.18023 0
M  V30 2925 O 279.173 2.07699 1.74852 0
M  V30 2926 C 277.629 3.58129 -0.356636 0
M  V30 2927 C 277.237 4.11536 -1.77037 0
M  V30 2928 C 278.981 4.24466 0.0540969 0
M  V30 2929 C 276.888 5.61701 -1.85055 0
M  V30 2930 H 275.818 0.749586 -0.0814657 0
M  V30 2931 H 278.469 1.61713 -0.867249 0
M  V30 2932 H 276.851 3.94442 0.350965 0
M  V30 2933 H 278.025 3.86636 -2.50698 0
M  V30 2934 H 276.34 3.57736 -2.13105 0
M  V30 2935 H 278.937 5.34698 0.0146723 0
M  V30 2936 H 279.28 4.01687 1.09332 0
M  V30 2937 H 279.813 3.93198 -0.603337 0
M  V30 2938 H 276.552 5.89312 -2.8704 0
M  V30 2939 H 276.072 5.88519 -1.15783 0
M  V30 2940 H 277.751 6.26524 -1.61484 0
M  V30 2941 N 277.883 0.443576 1.51229 0
M  V30 2942 C 278.833 -0.382787 2.24764 0
M  V30 2943 C 279.817 -0.984836 1.27239 0
M  V30 2944 O 281.009 -0.901943 1.52296 0
M  V30 2945 C 278.138 -1.47989 3.09765 0
M  V30 2946 C 277.224 -0.886931 4.14722 0
M  V30 2947 N 277.615 -0.0237103 5.05794 0
M  V30 2948 C 275.913 -1.15385 4.30816 0
M  V30 2949 C 276.614 0.309971 5.80874 0
M  V30 2950 N 275.59 -0.307989 5.42727 0
M  V30 2951 H 279.392 0.282624 2.92538 0
M  V30 2952 H 276.906 0.256027 1.60369 0
M  V30 2953 H 278.903 -2.08482 3.61027 0
M  V30 2954 H 277.563 -2.14758 2.43535 0
M  V30 2955 H 278.574 0.34318 5.16762 0
M  V30 2956 H 275.251 -1.81857 3.75812 0
M  V30 2957 H 276.641 1.01279 6.64223 0
M  V30 2958 N 279.361 -1.56624 0.175154 0
M  V30 2959 C 280.589 -2.01374 -0.474971 0
M  V30 2960 C 281.004 -1.05537 -1.56548 0
M  V30 2961 O 280.361 -0.0568668 -1.82411 0
M  V30 2962 C 280.412 -3.45923 -1.04975 0
M  V30 2963 O 280.133 -4.381 -0.00276605 0
M  V30 2964 C 281.634 -4.06093 -1.77773 0
M  V30 2965 H 278.854 -0.659962 -0.121206 0
M  V30 2966 H 281.398 -2.02601 0.27801 0
M  V30 2967 H 279.553 -3.45458 -1.75321 0
M  V30 2968 H 279.967 -5.22753 -0.427681 0
M  V30 2969 H 281.441 -5.09147 -2.13245 0
M  V30 2970 H 281.918 -3.48405 -2.67414 0
M  V30 2971 H 282.524 -4.10272 -1.12059 0
M  V30 2972 N 280.839 0.0985539 -1.57292 0
M  V30 2973 C 281.802 1.10402 -2.00858 0
M  V30 2974 C 282.802 1.33146 -0.901593 0
M  V30 2975 O 283.992 1.29318 -1.16716 0
M  V30 2976 C 281.124 2.45394 -2.36632 0
M  V30 2977 H 282.317 0.729099 -2.90902 0
M  V30 2978 H 279.87 0.343495 -1.52479 0
M  V30 2979 H 280.605 2.87769 -1.49531 0
M  V30 2980 H 280.39 2.30235 -3.17387 0
M  V30 2981 H 281.88 3.17718 -2.71007 0
M  V30 2982 N 282.317 1.53212 0.369288 0
M  V30 2983 C 283.566 1.68436 1.10961 0
M  V30 2984 C 283.879 0.440738 1.9057 0
M  V30 2985 O 285.085 0.473446 2.6734 0
M  V30 2986 C 283.541 2.97744 2.0218 0
M  V30 2987 C 283.149 4.29355 1.279 0
M  V30 2988 C 284.893 3.22334 2.76226 0
M  V30 2989 C 282.8 5.49755 2.17999 0
M  V30 2990 H 281.73 0.627568 0.41794 0
M  V30 2991 H 284.381 1.79713 0.370884 0
M  V30 2992 H 282.763 2.8026 2.79768 0
M  V30 2993 H 283.937 4.57458 0.554007 0
M  V30 2994 H 282.252 4.11179 0.657311 0
M  V30 2995 H 284.849 4.09471 3.43857 0
M  V30 2996 H 285.192 2.38238 3.41392 0
M  V30 2997 H 285.725 3.40475 2.05723 0
M  V30 2998 H 282.464 6.36318 1.57417 0
M  V30 2999 H 281.984 5.25937 2.88359 0
M  V30 3000 H 283.663 5.84401 2.77641 0
M  V30 3001 N 283.795 -0.628877 1.44509 0
M  V30 3002 C 284.725 -1.75187 1.54376 0
M  V30 3003 C 285.706 -1.65411 0.396618 0
M  V30 3004 O 286.891 -1.84137 0.617031 0
M  V30 3005 C 284.021 -3.13725 1.48976 0
M  V30 3006 C 282.975 -3.38291 2.62189 0
M  V30 3007 C 282.301 -4.76883 2.41841 0
M  V30 3008 C 283.601 -3.30632 4.04326 0
M  V30 3009 H 285.295 -1.67187 2.48373 0
M  V30 3010 H 282.841 -0.802909 1.19538 0
M  V30 3011 H 284.794 -3.92064 1.54478 0
M  V30 3012 H 283.518 -3.22515 0.514961 0
M  V30 3013 H 282.177 -2.62334 2.56079 0
M  V30 3014 H 281.825 -4.82378 1.42548 0
M  V30 3015 H 281.525 -4.94278 3.17747 0
M  V30 3016 H 283.049 -5.57449 2.49165 0
M  V30 3017 H 284.463 -3.98873 4.11793 0
M  V30 3018 H 282.86 -3.59561 4.80454 0
M  V30 3019 H 283.93 -2.28404 4.27738 0
M  V30 3020 N 285.273 -1.31445 -0.869486 0
M  V30 3021 C 286.501 -1.24122 -1.65534 0
M  V30 3022 C 286.916 0.193387 -1.87807 0
M  V30 3023 O 286.273 1.12557 -1.43656 0
M  V30 3024 C 286.324 -1.98229 -3.02304 0
M  V30 3025 O 286.045 -3.3609 -2.81026 0
M  V30 3026 C 287.546 -1.97751 -3.96749 0
M  V30 3027 H 284.766 -0.428868 -0.516055 0
M  V30 3028 H 287.31 -1.73328 -1.08525 0
M  V30 3029 H 285.465 -1.52782 -3.56001 0
M  V30 3030 H 285.879 -3.7383 -3.67902 0
M  V30 3031 H 287.353 -2.54114 -4.90031 0
M  V30 3032 H 287.83 -0.960137 -4.28577 0
M  V30 3033 H 288.436 -2.43079 -3.48988 0
M  V30 3034 N 286.751 1.08385 -1.14413 0
M  V30 3035 C 287.681 2.17321 -0.854044 0
M  V30 3036 C 288.662 1.69024 0.191049 0
M  V30 3037 O 289.847 1.94141 0.0476779 0
M  V30 3038 C 286.977 3.45719 -0.330983 0
M  V30 3039 C 285.931 4.07409 -1.31155 0
M  V30 3040 C 285.257 5.30762 -0.64778 0
M  V30 3041 C 286.557 4.48665 -2.67388 0
M  V30 3042 H 288.251 2.41845 -1.76498 0
M  V30 3043 H 285.797 1.16233 -0.850051 0
M  V30 3044 H 287.75 4.21241 -0.115645 0
M  V30 3045 H 286.474 3.2075 0.615381 0
M  V30 3046 H 285.133 3.33919 -1.51306 0
M  V30 3047 H 284.781 5.02078 0.304398 0
M  V30 3048 H 284.481 5.72992 -1.30207 0
M  V30 3049 H 286.005 6.08998 -0.441972 0
M  V30 3050 H 287.419 5.15364 -2.51143 0
M  V30 3051 H 285.816 5.01814 -3.29093 0
M  V30 3052 H 286.886 3.60543 -3.24248 0
M  V30 3053 N 288.23 0.939286 1.26551 0
M  V30 3054 C 289.177 0.446088 2.26448 0
M  V30 3055 C 290.147 -0.493234 1.58608 0
M  V30 3056 O 291.332 -0.409857 1.86346 0
M  V30 3057 C 288.472 -0.284375 3.43926 0
M  V30 3058 C 287.585 0.690399 4.26448 0
M  V30 3059 C 286.72 -0.0610712 5.31165 0
M  V30 3060 C 285.759 0.905649 6.05363 0
M  V30 3061 N 284.896 0.186055 7.01853 0
M  V30 3062 H 289.736 1.30291 2.68008 0
M  V30 3063 H 287.273 0.65371 1.31776 0
M  V30 3064 H 289.231 -0.724313 4.10864 0
M  V30 3065 H 287.861 -1.10535 3.03285 0
M  V30 3066 H 286.913 1.24885 3.59316 0
M  V30 3067 H 288.225 1.42873 4.779 0
M  V30 3068 H 287.379 -0.56038 6.04106 0
M  V30 3069 H 286.118 -0.832297 4.80546 0
M  V30 3070 H 285.123 1.4161 5.3125 0
M  V30 3071 H 286.348 1.67685 6.58072 0
M  V30 3072 H 284.294 -0.566714 6.53548 0
M  V30 3073 H 284.211 0.863752 7.51049 0
M  V30 3074 H 285.479 -0.292221 7.78952 0
M  V30 3075 N 289.708 -1.40897 0.706093 0
M  V30 3076 C 290.618 -2.3455 0.0482286 0
M  V30 3077 C 291.634 -1.56796 -0.754396 0
M  V30 3078 O 292.81 -1.89228 -0.689538 0
M  V30 3079 C 289.875 -3.35625 -0.869303 0
M  V30 3080 C 288.936 -4.29261 -0.0576994 0
M  V30 3081 C 288.169 -5.25508 -0.931531 0
M  V30 3082 O 288.392 -5.27472 -2.17092 0
M  V30 3083 O 287.326 -6.00727 -0.375587 0
M  V30 3084 H 291.152 -2.92407 0.820476 0
M  V30 3085 H 288.737 -1.4193 0.4665 0
M  V30 3086 H 290.619 -3.97635 -1.39514 0
M  V30 3087 H 289.294 -2.80196 -1.62086 0
M  V30 3088 H 288.201 -3.70566 0.512988 0
M  V30 3089 H 289.534 -4.87817 0.655426 0
M  V30 3090 N 291.186 -0.45159 -1.50991 0
M  V30 3091 C 292.411 0.110667 -2.07105 0
M  V30 3092 C 292.836 1.3446 -1.31538 0
M  V30 3093 O 292.194 1.77743 -0.357365 0
M  V30 3094 C 292.242 0.397238 -3.58405 0
M  V30 3095 O 291.346 1.48124 -3.84881 0
M  V30 3096 H 290.687 -0.00439271 -0.663985 0
M  V30 3097 H 293.217 -0.637026 -1.9443 0
M  V30 3098 H 293.227 0.64351 -4.02893 0
M  V30 3099 H 291.902 -0.504553 -4.12828 0
M  V30 3100 H 290.479 1.22381 -3.52246 0
M  V30 3101 N 292.664 1.56529 -0.183458 0
M  V30 3102 C 293.911 1.97244 0.458357 0
M  V30 3103 C 294.239 1.06992 1.62428 0
M  V30 3104 O 293.494 0.106542 1.9541 0
M  V30 3105 C 293.793 3.43939 0.971637 0
M  V30 3106 C 293.459 4.5083 -0.0796784 0
M  V30 3107 C 292.121 4.79786 -0.368584 0
M  V30 3108 C 294.473 5.15138 -0.792638 0
M  V30 3109 C 291.801 5.70345 -1.37563 0
M  V30 3110 C 294.153 6.06784 -1.78875 0
M  V30 3111 C 292.817 6.34102 -2.08497 0
M  V30 3112 H 292.087 0.721768 0.167725 0
M  V30 3113 H 294.734 1.89472 -0.277976 0
M  V30 3114 H 293.039 3.48724 1.78602 0
M  V30 3115 H 294.736 3.72791 1.47744 0
M  V30 3116 H 291.326 4.28317 0.155668 0
M  V30 3117 H 295.51 4.92868 -0.582659 0
M  V30 3118 H 290.766 5.89789 -1.61118 0
M  V30 3119 H 294.94 6.55677 -2.3465 0
M  V30 3120 H 292.567 7.04074 -2.86678 0
M  V30 3121 N 294.142 -0.090211 1.57342 0
M  V30 3122 C 295.052 -1.12735 2.05738 0
M  V30 3123 C 296.068 -1.43557 0.983231 0
M  V30 3124 O 297.244 -1.54101 1.29672 0
M  V30 3125 C 294.309 -2.42659 2.47624 0
M  V30 3126 C 293.37 -2.18975 3.69254 0
M  V30 3127 C 292.603 -3.42704 4.09133 0
M  V30 3128 O 292.826 -4.51127 3.49057 0
M  V30 3129 O 291.76 -3.32003 5.02053 0
M  V30 3130 H 295.586 -0.746279 2.94388 0
M  V30 3131 H 293.171 -0.303064 1.46294 0
M  V30 3132 H 295.053 -3.19155 2.7517 0
M  V30 3133 H 293.728 -2.80182 1.62109 0
M  V30 3134 H 292.635 -1.40244 3.46818 0
M  V30 3135 H 293.968 -1.86342 4.55563 0
M  V30 3136 N 295.62 -1.53406 -0.361157 0
M  V30 3137 C 296.868 -1.69467 -1.10115 0
M  V30 3138 C 297.189 -0.451352 -1.89705 0
M  V30 3139 O 296.459 0.534636 -1.88463 0
M  V30 3140 H 295.039 -0.624749 -0.409508 0
M  V30 3141 H 297.701 -1.90609 -0.406699 0
M  V30 3142 H 296.797 -2.55774 -1.78847 0
M  V30 3143 N 297.098 0.621204 -1.44841 0
M  V30 3144 C 298.03 1.74615 -1.48466 0
M  V30 3145 C 299.043 1.58377 -0.37691 0
M  V30 3146 O 300.232 1.66508 -0.643215 0
M  V30 3147 C 297.332 3.12459 -1.31236 0
M  V30 3148 C 296.505 3.55064 -2.55438 0
M  V30 3149 C 295.564 4.71821 -2.32963 0
M  V30 3150 O 294.59 4.79628 -3.06505 0
M  V30 3151 N 295.792 5.64186 -1.36654 0
M  V30 3152 H 298.557 1.71973 -2.45449 0
M  V30 3153 H 296.118 0.806077 -1.40407 0
M  V30 3154 H 298.11 3.88302 -1.14032 0
M  V30 3155 H 296.68 3.09686 -0.4258 0
M  V30 3156 H 295.9 2.69324 -2.87851 0
M  V30 3157 H 297.188 3.80284 -3.38026 0
M  V30 3158 H 296.586 5.6058 -0.759344 0
M  V30 3159 H 295.143 6.39618 -1.25425 0
M  V30 3160 N 298.576 1.31904 0.862503 0
M  V30 3161 C 299.509 1.14514 1.97388 0
M  V30 3162 C 300.487 0.0466493 1.62533 0
M  V30 3163 O 301.671 0.204484 1.87388 0
M  V30 3164 C 298.798 0.751347 3.30261 0
M  V30 3165 C 297.844 1.85395 3.84098 0
M  V30 3166 S 298.677 3.46081 4.08642 0
M  V30 3167 C 299.833 3.08655 5.44502 0
M  V30 3168 H 300.066 2.08597 2.11836 0
M  V30 3169 H 297.599 1.16475 1.01356 0
M  V30 3170 H 299.557 0.530901 4.07052 0
M  V30 3171 H 298.218 -0.170493 3.13637 0
M  V30 3172 H 297.411 1.53122 4.80177 0
M  V30 3173 H 297.013 2.02984 3.14123 0
M  V30 3174 H 299.305 2.58012 6.26447 0
M  V30 3175 H 300.248 4.03726 5.81731 0
M  V30 3176 H 300.656 2.45891 5.08132 0
M  V30 3177 N 300.054 -1.07777 1.14986 0
M  V30 3178 C 301.282 -1.84018 0.945773 0
M  V30 3179 C 301.697 -1.81897 -0.505863 0
M  V30 3180 O 301.054 -1.22726 -1.35072 0
M  V30 3181 C 301.105 -3.31287 1.44677 0
M  V30 3182 O 300.826 -3.33449 2.84154 0
M  V30 3183 C 302.327 -4.24311 1.28355 0
M  V30 3184 H 299.547 -0.580716 0.336169 0
M  V30 3185 H 302.091 -1.36077 1.52654 0
M  V30 3186 H 300.246 -3.76594 0.908625 0
M  V30 3187 H 300.66 -4.25427 3.06777 0
M  V30 3188 H 302.134 -5.2573 1.68261 0
M  V30 3189 H 302.611 -4.38612 0.227184 0
M  V30 3190 H 303.217 -3.84836 1.81056 0
M  V30 3191 N 301.532 -0.945985 -1.26051 0
M  V30 3192 C 302.442 -0.465633 -2.29933 0
M  V30 3193 C 303.458 0.462761 -1.67733 0
M  V30 3194 O 304.634 0.341118 -1.9849 0
M  V30 3195 C 301.699 0.256994 -3.45746 0
M  V30 3196 C 300.76 -0.708549 -4.23412 0
M  V30 3197 C 299.993 -0.0203135 -5.33696 0
M  V30 3198 O 300.216 1.19571 -5.57726 0
M  V30 3199 O 299.15 -0.701459 -5.97799 0
M  V30 3200 H 302.976 -1.32866 -2.73094 0
M  V30 3201 H 300.561 -0.712071 -1.31339 0
M  V30 3202 H 302.443 0.663852 -4.16138 0
M  V30 3203 H 301.118 1.09533 -3.04605 0
M  V30 3204 H 300.025 -1.16545 -3.55483 0
M  V30 3205 H 301.358 -1.51465 -4.68315 0
M  V30 3206 N 303.011 1.40521 -0.713556 0
M  V30 3207 C 304.288 1.94775 -0.17943 0
M  V30 3208 C 304.668 1.65184 1.31444 0
M  V30 3209 O 304.016 0.968429 2.06963 0
M  V30 3210 C 304.226 3.45543 -0.489986 0
M  V30 3211 C 305.574 4.22442 -0.427536 0
M  V30 3212 O 306.598 3.53644 -0.425929 0
M  V30 3213 O 305.457 5.4501 -0.403292 0
M  V30 3214 H 302.551 0.826606 -0.0255192 0
M  V30 3215 H 305.097 1.5014 -0.790949 0
M  V30 3216 H 303.869 3.60432 -1.5233 0
M  V30 3217 H 303.492 3.97311 0.151598 0
M  V30 3218 N 304.489 0.459591 1.5075 0
M  V30 3219 C 305.437 -0.354678 2.2988 0
M  V30 3220 C 306.431 -1.00086 1.36672 0
M  V30 3221 O 307.637 -0.933277 1.53915 0
M  V30 3222 H 304.012 -0.13321 0.740107 0
M  V30 3223 H 305.983 0.333269 2.96533 0
M  V30 3224 C 304.732 -1.43073 3.169 0
M  V30 3225 H 304.055 -0.942882 3.88523 0
M  V30 3226 H 305.495 -1.97328 3.75284 0
M  V30 3227 C 303.954 -2.42633 2.33732 0
M  V30 3228 O 304.484 -3.47658 2.01238 0
M  V30 3229 N 302.69 -2.14066 1.9653 0
M  V30 3230 H 302.237 -1.28685 2.23155 0
M  V30 3231 H 302.195 -2.80917 1.41185 0
M  V30 3232 N 305.967 -1.56429 0.191757 0
M  V30 3233 C 307.216 -1.9666 -0.448088 0
M  V30 3234 C 307.529 -1.08136 -1.62991 0
M  V30 3235 O 308.735 -1.38135 -2.33733 0
M  V30 3236 C 307.191 -3.49753 -0.848585 0
M  V30 3237 C 306.799 -4.46935 0.308764 0
M  V30 3238 C 308.543 -3.9876 -1.4557 0
M  V30 3239 C 306.45 -5.91293 -0.112506 0
M  V30 3240 H 305.38 -0.734312 -0.171179 0
M  V30 3241 H 308.031 -1.81301 0.283242 0
M  V30 3242 H 306.413 -3.60604 -1.63649 0
M  V30 3243 H 307.587 -4.47813 1.08627 0
M  V30 3244 H 305.902 -4.08102 0.827158 0
M  V30 3245 H 308.499 -5.04086 -1.78328 0
M  V30 3246 H 308.842 -3.42875 -2.36099 0
M  V30 3247 H 309.375 -3.9101 -0.731836 0
M  V30 3248 H 306.114 -6.51097 0.758514 0
M  V30 3249 H 305.634 -5.93676 -0.854941 0
M  V30 3250 H 307.313 -6.44663 -0.549448 0
M  V30 3251 N 307.445 0.0818655 -1.57387 0
M  V30 3252 C 308.355 1.11642 -2.06333 0
M  V30 3253 C 309.371 1.43033 -0.99083 0
M  V30 3254 O 310.547 1.53411 -1.30488 0
M  V30 3255 C 307.612 2.41342 -2.48907 0
M  V30 3256 C 306.673 2.17014 -3.7041 0
M  V30 3257 C 305.906 3.4053 -4.10944 0
M  V30 3258 O 306.129 4.4927 -3.51444 0
M  V30 3259 O 305.063 3.29336 -5.03807 0
M  V30 3260 H 308.889 0.730657 -2.9478 0
M  V30 3261 H 306.474 0.295301 -1.46452 0
M  V30 3262 H 308.356 3.17691 -2.76858 0
M  V30 3263 H 307.031 2.79319 -1.63593 0
M  V30 3264 H 305.938 1.38403 -3.47556 0
M  V30 3265 H 307.271 1.83923 -4.56545 0
M  V30 3266 N 308.923 1.53595 0.353017 0
M  V30 3267 C 310.169 1.70638 1.09593 0
M  V30 3268 C 310.502 0.463286 1.88593 0
M  V30 3269 O 309.777 -0.539597 1.86865 0
M  V30 3270 C 310.06 2.96406 2.04489 0
M  V30 3271 C 309.913 4.30901 1.29014 0
M  V30 3272 C 311.232 3.17812 3.0444 0
M  V30 3273 H 308.351 0.620913 0.397034 0
M  V30 3274 H 310.993 1.86254 0.375446 0
M  V30 3275 H 309.143 2.83223 2.65927 0
M  V30 3276 H 310.815 4.55917 0.702638 0
M  V30 3277 H 309.058 4.29741 0.592071 0
M  V30 3278 H 309.729 5.1506 1.98537 0
M  V30 3279 H 312.205 3.30263 2.53112 0
M  V30 3280 H 311.081 4.07223 3.6805 0
M  V30 3281 H 311.342 2.33669 3.75301 0
M  V30 3282 N 310.401 -0.613514 1.45168 0
M  V30 3283 C 311.649 -1.36997 1.48581 0
M  V30 3284 C 311.97 -1.94589 0.126545 0
M  V30 3285 O 311.24 -1.76816 -0.843372 0
M  V30 3286 H 309.82 -0.508558 0.547154 0
M  V30 3287 H 312.482 -0.720853 1.81079 0
M  V30 3288 H 311.578 -2.1924 2.22127 0
M  V30 3289 N 311.879 -1.3236 -0.855495 0
M  V30 3290 C 313.128 -1.22226 -1.60448 0
M  V30 3291 C 313.441 0.214733 -1.94418 0
M  V30 3292 O 314.647 0.437917 -2.67945 0
M  V30 3293 C 313.103 -2.14063 -2.89318 0
M  V30 3294 C 312.711 -3.62839 -2.62777 0
M  V30 3295 C 314.455 -2.12764 -3.67331 0
M  V30 3296 C 312.362 -4.4664 -3.87643 0
M  V30 3297 H 311.292 -0.453904 -0.602069 0
M  V30 3298 H 313.943 -1.57314 -0.944698 0
M  V30 3299 H 312.325 -1.71889 -3.5675 0
M  V30 3300 H 313.499 -4.1335 -2.03662 0
M  V30 3301 H 311.814 -3.66261 -1.98096 0
M  V30 3302 H 314.411 -2.72611 -4.59987 0
M  V30 3303 H 314.754 -1.11841 -4.00995 0
M  V30 3304 H 315.287 -2.53214 -3.06802 0
M  V30 3305 H 312.026 -5.48373 -3.5912 0
M  V30 3306 H 311.546 -4.0088 -4.46156 0
M  V30 3307 H 313.225 -4.59597 -4.55389 0
M  V30 3308 N 313.357 1.07166 -1.15556 0
M  V30 3309 C 314.597 1.81391 -0.94216 0
M  V30 3310 C 314.961 1.84788 0.521272 0
M  V30 3311 O 316.162 2.54904 0.85307 0
M  V30 3312 C 314.433 3.22431 -1.54185 0
M  V30 3313 S 315.992 4.13379 -1.47183 0
M  V30 3314 H 312.81 0.624963 -0.339031 0
M  V30 3315 H 315.412 1.28725 -1.4714 0
M  V30 3316 H 314.116 3.17548 -2.59984 0
M  V30 3317 H 313.647 3.80172 -1.01156 0
M  V30 3318 H 315.662 4.94007 -0.466004 0
M  V30 3319 N 314.835 0.952656 1.25548 0
M  V30 3320 C 315.783 0.462354 2.27958 0
M  V30 3321 C 316.777 -0.46634 1.62855 0
M  V30 3322 O 317.983 -0.343287 1.76696 0
M  V30 3323 H 314.358 0.13101 0.7405 0
M  V30 3324 H 316.329 1.33839 2.66702 0
M  V30 3325 C 315.078 -0.24628 3.46827 0
M  V30 3326 H 314.401 0.459192 3.97154 0
M  V30 3327 H 315.841 -0.553393 4.20373 0
M  V30 3328 C 314.3 -1.4681 3.0323 0
M  V30 3329 O 314.83 -2.56591 3.09069 0
M  V30 3330 N 313.036 -1.32874 2.58443 0
M  V30 3331 H 312.583 -0.435536 2.53891 0
M  V30 3332 H 312.541 -2.14742 2.29637 0
M  V30 3333 N 316.313 -1.40141 0.720998 0
M  V30 3334 C 317.223 -2.34486 0.0731031 0
M  V30 3335 C 318.239 -1.57587 -0.737723 0
M  V30 3336 O 319.415 -1.89949 -0.669429 0
M  V30 3337 C 316.48 -3.36528 -0.833656 0
M  V30 3338 C 315.541 -4.29298 -0.0121673 0
M  V30 3339 C 314.774 -5.26466 -0.875742 0
M  V30 3340 O 314.997 -5.29745 -2.11485 0
M  V30 3341 O 313.931 -6.01092 -0.31185 0
M  V30 3342 H 317.757 -2.9152 0.851444 0
M  V30 3343 H 315.342 -1.41427 0.481527 0
M  V30 3344 H 317.224 -3.99093 -1.35289 0
M  V30 3345 H 315.899 -2.81899 -1.59105 0
M  V30 3346 H 314.806 -3.70001 0.552262 0
M  V30 3347 H 316.139 -4.87094 0.707129 0
M  V30 3348 N 317.792 -0.46758 -1.50504 0
M  V30 3349 C 318.755 0.317059 -2.26996 0
M  V30 3350 C 319.755 0.923513 -1.31635 0
M  V30 3351 O 320.945 0.793239 -1.55091 0
M  V30 3352 C 318.077 1.45134 -3.08462 0
M  V30 3353 H 319.27 -0.353723 -2.97807 0
M  V30 3354 H 316.823 -0.221545 -1.54722 0
M  V30 3355 H 317.558 2.15728 -2.4214 0
M  V30 3356 H 317.343 1.02232 -3.78538 0
M  V30 3357 H 318.833 2.00493 -3.66323 0
M  V30 3358 N 319.27 1.56325 -0.20005 0
M  V30 3359 C 320.518 1.97329 0.436547 0
M  V30 3360 C 320.839 1.08826 1.61808 0
M  V30 3361 O 320.109 0.160604 1.95241 0
M  V30 3362 H 318.689 0.728714 0.164272 0
M  V30 3363 H 321.351 1.92761 -0.287937 0
M  V30 3364 H 320.447 3.02264 0.777353 0
M  V30 3365 N 320.748 -0.0735177 1.57428 0
M  V30 3366 C 321.995 -0.772999 1.87166 0
M  V30 3367 C 322.323 -1.77665 0.791551 0
M  V30 3368 O 321.578 -1.94541 -0.212636 0
M  V30 3369 C 321.877 -1.51799 3.23561 0
M  V30 3370 C 321.543 -0.654484 4.46125 0
M  V30 3371 C 320.205 -0.416511 4.79394 0
M  V30 3372 C 322.557 -0.0555862 5.2117 0
M  V30 3373 C 319.885 0.429869 5.85123 0
M  V30 3374 C 322.237 0.778239 6.27795 0
M  V30 3375 C 320.901 1.0261 6.59566 0
M  V30 3376 H 320.171 -0.282861 0.684888 0
M  V30 3377 H 322.818 -0.0338272 1.9147 0
M  V30 3378 H 321.123 -2.32932 3.1504 0
M  V30 3379 H 322.82 -2.06397 3.43804 0
M  V30 3380 H 319.41 -0.850091 4.20085 0
M  V30 3381 H 323.594 -0.226558 4.95783 0
M  V30 3382 H 318.85 0.630665 6.08139 0
M  V30 3383 H 323.024 1.24906 6.85107 0
M  V30 3384 H 320.651 1.68371 7.4132 0
M  V30 3385 N 322.226 -1.5378 -0.344866 0
M  V30 3386 C 323.642 -1.44015 -0.687888 0
M  V30 3387 C 323.842 -0.595834 -1.92489 0
M  V30 3388 O 322.898 -0.0863064 -2.52352 0
M  V30 3389 C 324.211 -2.87481 -0.881758 0
M  V30 3390 C 325.759 -2.97247 -0.980459 0
M  V30 3391 C 326.234 -4.41819 -1.20665 0
M  V30 3392 N 327.725 -4.45339 -1.27389 0
M  V30 3393 C 328.46 -5.54333 -1.46639 0
M  V30 3394 N 327.956 -6.73335 -1.63071 0
M  V30 3395 N 329.749 -5.41944 -1.49176 0
M  V30 3396 H 321.9 -2.07169 0.468475 0
M  V30 3397 H 324.163 -0.93643 0.147655 0
M  V30 3398 H 323.869 -3.51672 -0.0443444 0
M  V30 3399 H 323.743 -3.32352 -1.78388 0
M  V30 3400 H 326.13 -2.33197 -1.8084 0
M  V30 3401 H 326.211 -2.5574 -0.0552713 0
M  V30 3402 H 325.855 -5.06449 -0.383652 0
M  V30 3403 H 325.785 -4.80917 -2.14539 0
M  V30 3404 H 328.276 -3.59585 -1.1622 0
M  V30 3405 H 328.589 -7.52165 -1.77391 0
M  V30 3406 H 326.934 -6.76282 -1.60209 0
M  V30 3407 H 330.125 -4.47932 -1.3592 0
M  V30 3408 H 330.298 -6.26946 -1.63837 0
M  V30 3409 N 323.704 0.605807 -1.45491 0
M  V30 3410 C 325.12 0.926751 -1.29936 0
M  V30 3411 C 325.32 1.99896 -0.253706 0
M  V30 3412 O 324.376 2.50038 0.351737 0
M  V30 3413 C 325.689 1.36599 -2.67883 0
M  V30 3414 C 327.237 1.4801 -2.75793 0
M  V30 3415 C 327.712 1.95309 -4.14268 0
M  V30 3416 N 329.203 2.0254 -4.16571 0
M  V30 3417 C 329.938 2.40363 -5.20589 0
M  V30 3418 N 329.434 2.77143 -6.34952 0
M  V30 3419 N 331.227 2.40718 -5.07948 0
M  V30 3420 H 323.378 -0.102862 -2.12151 0
M  V30 3421 H 325.641 0.016639 -0.947854 0
M  V30 3422 H 325.347 0.652306 -3.45598 0
M  V30 3423 H 325.221 2.33215 -2.96463 0
M  V30 3424 H 327.608 2.1847 -1.98381 0
M  V30 3425 H 327.689 0.497041 -2.50925 0
M  V30 3426 H 327.333 1.25436 -4.92167 0
M  V30 3427 H 327.263 2.94532 -4.3653 0
M  V30 3428 H 329.754 1.76699 -3.34045 0
M  V30 3429 H 330.067 3.0489 -7.10114 0
M  V30 3430 H 328.412 2.74834 -6.3835 0
M  V30 3431 H 331.603 2.11392 -4.1765 0
M  V30 3432 H 331.776 2.69869 -5.89131 0
M  V30 3433 N 325.182 1.32811 0.848464 0
M  V30 3434 C 326.112 1.24882 1.97299 0
M  V30 3435 C 327.093 0.131357 1.69592 0
M  V30 3436 O 328.278 0.319553 1.91553 0
M  V30 3437 C 325.408 0.97746 3.33261 0
M  V30 3438 C 324.362 2.05682 3.75338 0
M  V30 3439 C 323.688 1.63777 5.09 0
M  V30 3440 C 324.988 3.47254 3.90144 0
M  V30 3441 H 326.682 2.18966 2.04191 0
M  V30 3442 H 324.228 1.05413 0.981029 0
M  V30 3443 H 326.181 0.908513 4.1149 0
M  V30 3444 H 324.905 0.000980011 3.266 0
M  V30 3445 H 323.564 2.11603 2.99366 0
M  V30 3446 H 323.212 0.648569 4.98801 0
M  V30 3447 H 322.912 2.36 5.38124 0
M  V30 3448 H 324.436 1.5833 5.89715 0
M  V30 3449 H 325.85 3.43888 4.58709 0
M  V30 3450 H 324.247 4.1788 4.30693 0
M  V30 3451 H 325.317 3.86462 2.92874 0
M  V30 3452 N 326.66 -1.06551 1.16123 0
M  V30 3453 C 327.888 -1.83005 0.965237 0
M  V30 3454 C 328.303 -1.82423 -0.486542 0
M  V30 3455 O 327.66 -1.24152 -1.33763 0
M  V30 3456 C 327.711 -3.29733 1.48183 0
M  V30 3457 O 327.432 -3.30416 2.87674 0
M  V30 3458 C 328.933 -4.22926 1.32848 0
M  V30 3459 H 326.153 -0.577118 0.342309 0
M  V30 3460 H 328.697 -1.3445 1.54089 0
M  V30 3461 H 326.852 -3.75609 0.948517 0
M  V30 3462 H 327.266 -4.22149 3.11272 0
M  V30 3463 H 328.74 -5.23916 1.73827 0
M  V30 3464 H 329.217 -4.38346 0.273692 0
M  V30 3465 H 329.823 -3.82894 1.85127 0
M  V30 3466 N 328.138 -0.959301 -1.25041 0
M  V30 3467 C 329.549 -0.65667 -1.74771 0
M  V30 3468 C 329.9 0.827852 -1.77879 0
M  V30 3469 O 329.025 1.64783 -1.40269 0
M  V30 3470 C 329.62 -1.1853 -3.1739 0
M  V30 3471 C 328.179 -0.932734 -3.6466 0
M  V30 3472 C 327.326 -1.32558 -2.43564 0
M  V30 3473 H 330.277 -1.13558 -1.10862 0
M  V30 3474 H 330.298 -0.547582 -3.76539 0
M  V30 3475 H 329.81 -2.26576 -3.15095 0
M  V30 3476 H 327.911 0.13257 -3.72364 0
M  V30 3477 H 328.024 -1.57248 -4.52559 0
M  V30 3478 H 326.388 -0.743956 -2.43593 0
M  V30 3479 H 327.171 -2.41537 -2.43957 0
M  V30 3480 N 329.616 1.39756 -0.72842 0
M  V30 3481 C 330.844 2.04948 -0.283528 0
M  V30 3482 C 331.259 1.54908 1.0793 0
M  V30 3483 O 330.616 0.711135 1.68075 0
M  V30 3484 C 330.667 3.60498 -0.268957 0
M  V30 3485 O 330.388 4.08695 -1.57798 0
M  V30 3486 C 331.889 4.4288 0.192912 0
M  V30 3487 H 329.109 0.659243 -0.125056 0
M  V30 3488 H 331.653 1.78927 -0.990226 0
M  V30 3489 H 329.808 3.85444 0.388801 0
M  V30 3490 H 330.222 5.02977 -1.48709 0
M  V30 3491 H 331.696 5.51791 0.151952 0
M  V30 3492 H 332.173 4.21418 1.23708 0
M  V30 3493 H 332.779 4.23069 -0.435039 0
M  V30 3494 N 331.094 0.475555 1.50254 0
M  V30 3495 C 332.004 -0.321501 2.32387 0
M  V30 3496 C 333.02 -0.991755 1.42969 0
M  V30 3497 O 334.196 -0.978747 1.76018 0
M  V30 3498 C 331.261 -1.38667 3.17762 0
M  V30 3499 C 330.322 -0.732538 4.23004 0
M  V30 3500 C 329.555 -1.74695 5.04299 0
M  V30 3501 O 329.778 -2.97399 4.86734 0
M  V30 3502 O 328.712 -1.31631 5.8733 0
M  V30 3503 H 332.538 0.350071 3.01676 0
M  V30 3504 H 330.123 0.237321 1.47503 0
M  V30 3505 H 332.005 -2.00354 3.70724 0
M  V30 3506 H 330.68 -2.04163 2.51196 0
M  V30 3507 H 329.587 -0.0765902 3.74022 0
M  V30 3508 H 330.92 -0.120452 4.92053 0
M  V30 3509 N 332.573 -1.56217 0.208337 0
M  V30 3510 C 333.819 -1.98242 -0.427552 0
M  V30 3511 C 334.152 -1.09554 -1.60348 0
M  V30 3512 O 333.427 -0.15035 -1.93918 0
M  V30 3513 C 333.71 -3.4931 -0.874907 0
M  V30 3514 C 333.563 -4.48773 0.303751 0
M  V30 3515 C 334.882 -4.04424 -1.73577 0
M  V30 3516 H 332.001 -0.720744 -0.153936 0
M  V30 3517 H 334.643 -1.87586 0.30192 0
M  V30 3518 H 332.793 -3.58522 -1.49648 0
M  V30 3519 H 334.465 -4.51586 0.941682 0
M  V30 3520 H 332.708 -4.23194 0.953375 0
M  V30 3521 H 333.379 -5.51976 -0.0519883 0
M  V30 3522 H 335.855 -3.98075 -1.21143 0
M  V30 3523 H 334.731 -5.1047 -2.01771 0
M  V30 3524 H 334.992 -3.50494 -2.69456 0
M  V30 3525 N 334.051 0.0651679 -1.57465 0
M  V30 3526 C 334.998 1.07675 -2.04144 0
M  V30 3527 C 335.968 1.38071 -0.923335 0
M  V30 3528 O 337.153 1.49026 -1.19146 0
M  V30 3529 C 334.293 2.38337 -2.49579 0
M  V30 3530 C 333.406 2.14413 -3.75035 0
M  V30 3531 C 332.541 3.38686 -4.09225 0
M  V30 3532 C 331.58 3.10156 -5.27702 0
M  V30 3533 N 330.717 4.26778 -5.57499 0
M  V30 3534 H 335.557 0.671716 -2.90331 0
M  V30 3535 H 333.094 0.3201 -1.43575 0
M  V30 3536 H 335.052 3.14632 -2.73975 0
M  V30 3537 H 333.682 2.7663 -1.6636 0
M  V30 3538 H 332.734 1.2878 -3.57939 0
M  V30 3539 H 334.046 1.89344 -4.61466 0
M  V30 3540 H 333.2 4.23373 -4.34558 0
M  V30 3541 H 331.939 3.66837 -3.21374 0
M  V30 3542 H 330.944 2.23866 -5.02159 0
M  V30 3543 H 332.169 2.8332 -6.17176 0
M  V30 3544 H 330.115 4.54948 -4.72608 0
M  V30 3545 H 330.032 4.05005 -6.38362 0
M  V30 3546 H 331.3 5.12443 -5.87386 0
M  V30 3547 N 335.529 1.53961 0.336706 0
M  V30 3548 C 336.806 1.62171 1.09361 0
M  V30 3549 C 337.186 0.447263 2.06307 0
M  V30 3550 O 336.534 -0.559802 2.21537 0
M  V30 3551 C 336.744 2.98565 1.80721 0
M  V30 3552 C 338.092 3.54157 2.34218 0
M  V30 3553 O 339.116 3.00784 1.90807 0
M  V30 3554 O 337.975 4.47528 3.13657 0
M  V30 3555 H 335.069 0.6562 0.503319 0
M  V30 3556 H 337.615 1.66307 0.33765 0
M  V30 3557 H 336.387 3.75482 1.10132 0
M  V30 3558 H 336.01 2.9805 2.63158 0
M  V30 3559 N 337.007 -0.598083 1.45811 0
M  V30 3560 C 338.237 -1.38121 1.53643 0
M  V30 3561 C 338.645 -1.88425 0.171081 0
M  V30 3562 O 337.988 -1.63409 -0.839237 0
M  V30 3563 C 338.05 -2.61432 2.46766 0
M  V30 3564 C 337.714 -2.32702 3.93318 0
M  V30 3565 C 338.711 -1.92479 4.82957 0
M  V30 3566 C 336.396 -2.45321 4.38318 0
M  V30 3567 C 338.39 -1.65248 6.15607 0
M  V30 3568 C 336.077 -2.17703 5.71007 0
M  V30 3569 C 337.075 -1.7773 6.5947 0
M  V30 3570 O 336.763 -1.50441 7.89698 0
M  V30 3571 H 336.495 -0.428863 0.522544 0
M  V30 3572 H 339.049 -0.73557 1.91777 0
M  V30 3573 H 337.279 -3.28749 2.0362 0
M  V30 3574 H 338.968 -3.23487 2.45175 0
M  V30 3575 H 339.734 -1.82258 4.49452 0
M  V30 3576 H 335.613 -2.75399 3.69697 0
M  V30 3577 H 339.157 -1.33973 6.84614 0
M  V30 3578 H 335.054 -2.27544 6.04065 0
M  V30 3579 H 335.822 -1.64415 8.01817 0
M  V30 3580 N 338.485 -1.33259 -0.841409 0
M  V30 3581 C 339.415 -1.25926 -1.96634 0
M  V30 3582 C 340.396 -0.140349 -1.6952 0
M  V30 3583 O 341.581 -0.329707 -1.91381 0
M  V30 3584 C 338.711 -0.99512 -3.32738 0
M  V30 3585 C 337.665 -2.0767 -3.74242 0
M  V30 3586 C 336.991 -1.66474 -5.08125 0
M  V30 3587 C 338.291 -3.49318 -3.88297 0
M  V30 3588 H 339.985 -2.20046 -2.03027 0
M  V30 3589 H 337.531 -1.05931 -0.975425 0
M  V30 3590 H 339.484 -0.930323 -4.11002 0
M  V30 3591 H 338.208 -0.0183004 -3.26595 0
M  V30 3592 H 336.867 -2.13187 -2.98239 0
M  V30 3593 H 336.515 -0.675012 -4.9845 0
M  V30 3594 H 336.215 -2.3885 -5.36865 0
M  V30 3595 H 337.739 -1.61455 -5.88867 0
M  V30 3596 H 339.153 -3.46316 -4.56879 0
M  V30 3597 H 337.55 -4.20158 -4.28471 0
M  V30 3598 H 338.62 -3.8801 -2.9082 0
M  V30 3599 N 339.963 1.05934 -1.16686 0
M  V30 3600 C 340.926 2.11669 -0.879144 0
M  V30 3601 C 341.926 1.60294 0.127445 0
M  V30 3602 O 343.116 1.7389 -0.103865 0
M  V30 3603 C 340.248 3.39438 -0.315425 0
M  V30 3604 H 341.441 2.38626 -1.81653 0
M  V30 3605 H 338.994 1.22058 -0.976299 0
M  V30 3606 H 339.729 3.18132 0.629468 0
M  V30 3607 H 339.514 3.78034 -1.04079 0
M  V30 3608 H 341.004 4.17391 -0.132189 0
M  V30 3609 N 341.441 0.965919 1.2453 0
M  V30 3610 C 342.404 0.499547 2.2369 0
M  V30 3611 C 343.404 -0.40294 1.5567 0
M  V30 3612 O 344.594 -0.19865 1.73064 0
M  V30 3613 C 341.726 -0.276792 3.39774 0
M  V30 3614 H 342.919 1.37613 2.66463 0
M  V30 3615 H 340.472 0.750324 1.37112 0
M  V30 3616 H 341.207 -1.17055 3.02438 0
M  V30 3617 H 340.992 0.370826 3.90343 0
M  V30 3618 H 342.482 -0.592175 4.1338 0
M  V30 3619 N 342.919 -1.39368 0.735821 0
M  V30 3620 C 344.168 -1.99733 0.281004 0
M  V30 3621 C 344.481 -1.59055 -1.13846 0
M  V30 3622 O 345.687 -2.12262 -1.69284 0
M  V30 3623 C 344.143 -3.57057 0.451462 0
M  V30 3624 C 343.751 -4.06697 1.87886 0
M  V30 3625 C 345.495 -4.2446 0.0584616 0
M  V30 3626 C 343.402 -5.56598 1.99883 0
M  V30 3627 H 342.332 -0.747163 0.101311 0
M  V30 3628 H 344.983 -1.59357 0.909819 0
M  V30 3629 H 343.365 -3.95234 -0.246263 0
M  V30 3630 H 344.539 -3.79853 2.60861 0
M  V30 3631 H 342.854 -3.5196 2.22515 0
M  V30 3632 H 345.451 -5.34549 0.127099 0
M  V30 3633 H 345.794 -4.04444 -0.986433 0
M  V30 3634 H 346.327 -3.9146 0.707374 0
M  V30 3635 H 343.066 -5.81494 3.02564 0
M  V30 3636 H 342.586 -5.85242 1.31346 0
M  V30 3637 H 344.265 -6.22022 1.78039 0
M  V30 3638 N 344.397 -0.483516 -1.5 0
M  V30 3639 C 345.36 0.292965 -2.2732 0
M  V30 3640 C 346.36 0.909499 -1.32608 0
M  V30 3641 O 347.55 0.776745 -1.55924 0
M  V30 3642 C 344.682 1.41854 -3.09984 0
M  V30 3643 H 345.875 -0.385289 -2.97415 0
M  V30 3644 H 343.428 -0.237942 -1.54478 0
M  V30 3645 H 344.163 2.13148 -2.44414 0
M  V30 3646 H 343.948 0.982114 -3.79601 0
M  V30 3647 H 345.438 1.96597 -3.68429 0
M  V30 3648 O 345.914 1.57479 -0.358152 0
M  V30 3649 H 346.605 1.92725 0.1941 0
M  V30 END ATOM
M  V30 BEGIN BOND
M  V30 END BOND
M  V30 END CTAB
M  END
$$$$
