drugbank_target|Q53I07 Envelope glycoprotein (DB00109)
 OpenBabel12092119313D

  0  0  0     0  0            999 V3000
M  V30 BEGIN CTAB
M  V30 COUNTS 2352 2379 0 0 0
M  V30 BEGIN ATOM
M  V30 1 H -0.908 1.98254 -0.117106 0
M  V30 2 N 0 1.576 0 0
M  V30 3 C 0.933 2.03868 1.02534 0
M  V30 4 C 1.911 0.928543 1.3348 0
M  V30 5 O 3.095 1.19667 1.45644 0
M  V30 6 C 0.222 2.43627 2.35294 0
M  V30 7 C -0.732 3.65373 2.2001 0
M  V30 8 S 0.101 5.13292 1.52614 0
M  V30 9 C 1.257 5.56322 2.86805 0
M  V30 10 H 1.49 2.90518 0.631377 0
M  V30 11 H -0.977 1.52953 0.210867 0
M  V30 12 H 0.981 2.67203 3.11629 0
M  V30 13 H -0.358 1.57376 2.7183 0
M  V30 14 H -1.165 3.90944 3.18086 0
M  V30 15 H -1.563 3.418 1.51819 0
M  V30 16 H 0.729 5.58782 3.83104 0
M  V30 17 H 1.672 6.56266 2.65933 0
M  V30 18 H 2.08 4.83886 2.90714 0
M  V30 19 N 1.4781 -0.272755 1.55222 0
M  V30 20 C 2.7261 -1.00234 1.75492 0
M  V30 21 C 3.0471 -1.8681 0.5592 0
M  V30 22 O 2.3171 -1.91215 -0.425882 0
M  V30 23 H 0.8971 -0.373076 0.647166 0
M  V30 24 H 3.5591 -0.296926 1.92625 0
M  V30 25 H 2.6551 -1.63913 2.65592 0
M  V30 26 N 2.9562 -1.48159 -0.537278 0
M  V30 27 C 3.9192 -1.61665 -1.62472 0
M  V30 28 C 4.9192 -0.490395 -1.5314 0
M  V30 29 O 6.1092 -0.755998 -1.5694 0
M  V30 30 C 3.2412 -1.57997 -3.02076 0
M  V30 31 H 4.4342 -2.58621 -1.51839 0
M  V30 32 H 1.9872 -1.36647 -0.758771 0
M  V30 33 H 2.7222 -0.624913 -3.18222 0
M  V30 34 H 2.5072 -2.39755 -3.10258 0
M  V30 35 H 3.9972 -1.70627 -3.81151 0
M  V30 36 N 4.4343 0.785586 -1.36625 0
M  V30 37 C 5.3973 1.87999 -1.31107 0
M  V30 38 C 6.3973 1.59316 -0.217959 0
M  V30 39 O 7.5873 1.67656 -0.472977 0
M  V30 40 C 4.7193 3.24861 -1.03334 0
M  V30 41 H 5.9123 1.94307 -2.2844 0
M  V30 42 H 3.4653 0.983813 -1.21453 0
M  V30 43 H 4.2003 3.24235 -0.0647432 0
M  V30 44 H 3.9853 3.4707 -1.82441 0
M  V30 45 H 5.4753 4.04929 -1.02088 0
M  V30 46 N 5.9124 1.20967 1.01018 0
M  V30 47 C 7.1374 1.0503 1.78839 0
M  V30 48 C 7.5624 -0.395752 1.8389 0
M  V30 49 O 6.9204 -1.28529 1.27867 0
M  V30 50 C 6.9684 1.64602 3.2084 0
M  V30 51 O 6.0724 0.887988 4.02726 0
M  V30 52 H 5.4134 0.369987 0.551367 0
M  V30 53 H 7.9434 1.60399 1.27018 0
M  V30 54 H 7.9534 1.68607 3.71532 0
M  V30 55 H 6.6284 2.69841 3.16479 0
M  V30 56 H 5.2054 0.922648 3.61305 0
M  V30 57 N 7.3905 -1.2043 1.01659 0
M  V30 58 C 8.6395 -1.89118 0.701237 0
M  V30 59 C 8.9525 -1.79705 -0.772358 0
M  V30 60 O 10.1585 -2.43528 -1.20026 0
M  V30 61 C 8.6145 -3.39168 1.20388 0
M  V30 62 C 8.2225 -3.57166 2.70438 0
M  V30 63 C 9.9665 -4.1341 0.963953 0
M  V30 64 C 7.8735 -5.01042 3.14183 0
M  V30 65 H 6.8035 -0.708267 0.2586 0
M  V30 66 H 9.4545 -1.36239 1.22927 0
M  V30 67 H 7.8365 -3.91369 0.603824 0
M  V30 68 H 9.0105 -3.15351 3.35992 0
M  V30 69 H 7.3255 -2.96294 2.92572 0
M  V30 70 H 9.9225 -5.19491 1.26621 0
M  V30 71 H 10.2655 -4.16181 -0.099578 0
M  V30 72 H 10.7985 -3.67309 1.52738 0
M  V30 73 H 7.5375 -5.03426 4.19812 0
M  V30 74 H 7.0575 -5.43668 2.53348 0
M  V30 75 H 8.7365 -5.69623 3.0682 0
M  V30 76 N 8.8686 -0.792821 -1.36206 0
M  V30 77 C 10.0966 -0.378825 -2.03402 0
M  V30 78 C 10.5116 1.00586 -1.59774 0
M  V30 79 O 9.8686 1.64574 -0.788764 0
M  V30 80 C 9.9196 -0.43683 -3.58851 0
M  V30 81 O 9.6406 -1.76691 -4.00889 0
M  V30 82 C 11.1416 -0.0138943 -4.43298 0
M  V30 83 H 8.3616 -0.155673 -0.652692 0
M  V30 84 H 10.9056 -1.07261 -1.74113 0
M  V30 85 H 9.0606 0.208575 -3.86838 0
M  V30 86 H 9.4746 -1.72011 -4.95492 0
M  V30 87 H 10.9486 -0.105615 -5.51899 0
M  V30 88 H 11.4256 1.03915 -4.2673 0
M  V30 89 H 12.0316 -0.63192 -4.20579 0
M  V30 90 N 10.3467 1.47872 -0.545128 0
M  V30 91 C 11.2767 2.32661 0.197793 0
M  V30 92 C 12.2577 1.43041 0.920504 0
M  V30 93 O 13.4427 1.71912 0.90333 0
M  V30 94 C 10.5727 3.24569 1.23582 0
M  V30 95 C 9.5267 4.23333 0.630323 0
M  V30 96 C 8.8527 5.0448 1.77211 0
M  V30 97 C 10.1527 5.20704 -0.407974 0
M  V30 98 H 11.8467 2.95024 -0.510045 0
M  V30 99 H 9.3927 1.4187 -0.246731 0
M  V30 100 H 11.3457 3.8272 1.76362 0
M  V30 101 H 10.0697 2.60236 1.97344 0
M  V30 102 H 8.7287 3.6639 0.123922 0
M  V30 103 H 8.3767 4.36561 2.49847 0
M  V30 104 H 8.0767 5.71339 1.37281 0
M  V30 105 H 9.6007 5.65487 2.3034 0
M  V30 106 H 11.0147 5.7329 0.033305 0
M  V30 107 H 9.4117 5.95699 -0.725486 0
M  V30 108 H 10.4817 4.66917 -1.30828 0
M  V30 109 N 11.8248 0.280983 1.55075 0
M  V30 110 C 13.0528 -0.337293 2.04132 0
M  V30 111 C 13.4678 -1.4903 1.15912 0
M  V30 112 O 12.8248 -1.81606 0.180459 0
M  V30 113 C 12.8758 -0.812706 3.52246 0
M  V30 114 O 12.5968 0.294387 4.3711 0
M  V30 115 C 14.0978 -1.4982 4.17216 0
M  V30 116 H 11.3178 -0.0761638 0.666663 0
M  V30 117 H 13.8618 0.414787 2.00249 0
M  V30 118 H 12.0168 -1.51486 3.56554 0
M  V30 119 H 12.4308 -0.0721325 5.2445 0
M  V30 120 H 13.9048 -1.7822 5.22438 0
M  V30 121 H 14.3818 -2.43168 3.65741 0
M  V30 122 H 14.9878 -0.839742 4.16927 0
M  V30 123 N 13.3029 -1.57598 0.00835791 0
M  V30 124 C 14.5489 -1.91211 -0.675732 0
M  V30 125 C 14.8819 -0.883139 -1.72958 0
M  V30 126 O 14.1569 0.097016 -1.94258 0
M  V30 127 C 14.4399 -3.35379 -1.31123 0
M  V30 128 C 14.2929 -4.48999 -0.268356 0
M  V30 129 C 15.6119 -3.7912 -2.23508 0
M  V30 130 H 12.7309 -0.695374 -0.244179 0
M  V30 131 H 15.3729 -1.89901 0.0613655 0
M  V30 132 H 13.5229 -3.36626 -1.93946 0
M  V30 133 H 15.1949 -4.59887 0.360844 0
M  V30 134 H 13.4379 -4.31873 0.408482 0
M  V30 135 H 14.1089 -5.46851 -0.752218 0
M  V30 136 H 16.5849 -3.79477 -1.70693 0
M  V30 137 H 15.4609 -4.80729 -2.64936 0
M  V30 138 H 15.7219 -3.13455 -3.11766 0
M  V30 139 N 14.781 0.264519 -1.55364 0
M  V30 140 C 15.713 1.34965 -1.85248 0
M  V30 141 C 16.726 1.45136 -0.737525 0
M  V30 142 O 17.915 1.46801 -1.01547 0
M  V30 143 C 15.015 2.73008 -2.00797 0
M  V30 144 C 14.188 2.85324 -3.31525 0
M  V30 145 C 13.247 4.04097 -3.37034 0
M  V30 146 O 12.273 3.94455 -4.10358 0
M  V30 147 N 13.475 5.16458 -2.65049 0
M  V30 148 H 16.24 1.09672 -2.78913 0
M  V30 149 H 13.801 0.454635 -1.55386 0
M  V30 150 H 15.793 3.50772 -2.01844 0
M  V30 151 H 14.363 2.91087 -1.1396 0
M  V30 152 H 13.583 1.94377 -3.42945 0
M  V30 153 H 14.871 2.9049 -4.17724 0
M  V30 154 H 14.269 5.27181 -2.05175 0
M  V30 155 H 12.826 5.92422 -2.71809 0
M  V30 156 N 16.2591 1.48442 0.529413 0
M  V30 157 C 17.4871 1.60151 1.30994 0
M  V30 158 C 17.9021 0.261985 1.86973 0
M  V30 159 O 17.2591 -0.748805 1.66431 0
M  V30 160 C 17.3101 2.64854 2.46038 0
M  V30 161 O 17.0311 3.93608 1.92365 0
M  V30 162 C 18.5321 2.87007 3.37849 0
M  V30 163 H 15.7521 0.539971 0.398338 0
M  V30 164 H 18.2961 1.94273 0.638597 0
M  V30 165 H 16.4511 2.33589 3.09055 0
M  V30 166 H 16.8651 4.51055 2.67675 0
M  V30 167 H 18.3391 3.64068 4.14919 0
M  V30 168 H 18.8161 1.95852 3.93114 0
M  V30 169 H 19.4221 3.19579 2.80623 0
M  V30 170 N 17.7372 -0.778329 1.37039 0
M  V30 171 C 19.1532 -1.07796 1.17695 0
M  V30 172 C 19.3532 -2.01498 0.00860115 0
M  V30 173 O 18.4092 -2.43901 -0.653352 0
M  V30 174 C 19.7222 -1.68178 2.49272 0
M  V30 175 C 21.2702 -1.80467 2.55735 0
M  V30 176 C 21.7452 -2.44263 3.87427 0
M  V30 177 N 23.2362 -2.51721 3.88833 0
M  V30 178 C 23.9712 -3.01919 4.87476 0
M  V30 179 N 23.4672 -3.5234 5.96513 0
M  V30 180 N 25.2602 -3.00733 4.74885 0
M  V30 181 H 17.4112 -0.156032 2.11826 0
M  V30 182 H 19.6742 -0.131844 0.938787 0
M  V30 183 H 19.3802 -1.06796 3.35093 0
M  V30 184 H 19.2542 -2.67554 2.65885 0
M  V30 185 H 21.6412 -2.40984 1.70325 0
M  V30 186 H 21.7222 -0.798656 2.43013 0
M  V30 187 H 21.3662 -1.84388 4.73248 0
M  V30 188 H 21.2962 -3.45458 3.9745 0
M  V30 189 H 23.7872 -2.1603 3.10063 0
M  V30 190 H 24.1002 -3.89027 6.67741 0
M  V30 191 H 22.4452 -3.50462 6.00168 0
M  V30 192 H 25.6362 -2.60638 3.88826 0
M  V30 193 H 25.8092 -3.39545 5.51918 0
M  V30 194 N 19.2153 -1.21501 -1.00376 0
M  V30 195 C 20.1473 -0.933174 -2.09343 0
M  V30 196 C 21.1603 0.0840896 -1.62583 0
M  V30 197 O 22.3493 -0.148563 -1.77881 0
M  V30 198 C 19.4493 -0.379869 -3.36764 0
M  V30 199 C 18.6223 -1.45176 -4.12605 0
M  V30 200 C 17.6813 -0.907476 -5.18316 0
M  V30 201 O 16.7073 -1.5912 -5.46507 0
M  V30 202 N 17.9093 0.276649 -5.7984 0
M  V30 203 H 20.6743 -1.87124 -2.34104 0
M  V30 204 H 18.2353 -1.12043 -1.16867 0
M  V30 205 H 20.2273 -0.00131488 -4.047 0
M  V30 206 H 18.7973 0.463048 -3.09151 0
M  V30 207 H 18.0173 -2.00411 -3.39454 0
M  V30 208 H 19.3053 -2.17328 -4.6005 0
M  V30 209 H 18.7033 0.849147 -5.59291 0
M  V30 210 H 17.2603 0.596702 -6.49063 0
M  V30 211 N 20.6934 1.19889 -1.02296 0
M  V30 212 C 21.6234 2.25141 -0.619174 0
M  V30 213 C 22.6044 1.66051 0.368915 0
M  V30 214 O 23.7894 1.92546 0.252941 0
M  V30 215 C 20.9194 3.4728 0.0368783 0
M  V30 216 C 19.8734 4.19005 -0.872865 0
M  V30 217 C 19.1994 5.34637 -0.0822402 0
M  V30 218 C 20.4994 4.74452 -2.18387 0
M  V30 219 H 22.1934 2.59171 -1.49903 0
M  V30 220 H 19.7394 1.24579 -0.722222 0
M  V30 221 H 21.6924 4.20098 0.330958 0
M  V30 222 H 20.4164 3.12433 0.95149 0
M  V30 223 H 19.0754 3.48061 -1.15105 0
M  V30 224 H 18.7234 4.96034 0.83422 0
M  V30 225 H 18.4234 5.83557 -0.688149 0
M  V30 226 H 19.9474 6.10255 0.205238 0
M  V30 227 H 21.3614 5.39055 -1.95172 0
M  V30 228 H 19.7584 5.33834 -2.74119 0
M  V30 229 H 20.8284 3.92844 -2.84257 0
M  V30 230 N 22.1715 0.800033 1.35784 0
M  V30 231 C 23.1015 0.220184 2.3246 0
M  V30 232 C 24.0825 -0.65073 1.57161 0
M  V30 233 O 25.2675 -0.582359 1.85263 0
M  V30 234 C 22.3975 -0.637353 3.41402 0
M  V30 235 C 21.3515 0.134531 4.27789 0
M  V30 236 C 20.6775 -0.844285 5.27992 0
M  V30 237 C 21.9775 1.32979 5.05088 0
M  V30 238 H 23.6715 1.02787 2.81203 0
M  V30 239 H 21.2175 0.495717 1.35199 0
M  V30 240 H 23.1705 -1.05302 4.08031 0
M  V30 241 H 21.8945 -1.47785 2.91251 0
M  V30 242 H 20.5535 0.531296 3.6273 0
M  V30 243 H 20.2015 -1.68011 4.74111 0
M  V30 244 H 19.9015 -0.332184 5.8666 0
M  V30 245 H 21.4255 -1.2583 5.97494 0
M  V30 246 H 22.8395 0.98934 5.64699 0
M  V30 247 H 21.2365 1.77593 5.7322 0
M  V30 248 H 22.3065 2.11978 4.36111 0
M  V30 249 N 23.6496 -1.47581 0.552962 0
M  V30 250 C 24.8746 -2.07378 0.0300593 0
M  V30 251 C 25.2996 -1.40355 -1.25229 0
M  V30 252 O 24.6576 -0.477099 -1.7491 0
M  V30 253 C 24.7056 -3.60274 -0.153231 0
M  V30 254 O 23.8096 -3.94041 -1.21678 0
M  V30 255 H 23.1506 -0.662158 0.0494182 0
M  V30 256 H 25.6806 -1.89662 0.767434 0
M  V30 257 H 25.6906 -4.0633 -0.368761 0
M  V30 258 H 24.3656 -4.08455 0.783397 0
M  V30 259 H 22.9426 -3.59735 -0.982079 0
M  V30 260 N 25.1277 -0.289203 -1.54924 0
M  V30 261 C 26.3757 0.322879 -1.99504 0
M  V30 262 C 26.6967 1.55313 -1.1791 0
M  V30 263 O 25.9667 1.94001 -0.272097 0
M  V30 264 H 24.5467 0.122291 -0.736922 0
M  V30 265 H 27.2087 -0.397802 -1.90797 0
M  V30 266 H 26.3047 0.603061 -3.06218 0
M  V30 267 N 26.6058 1.57591 -0.0167156 0
M  V30 268 C 27.8548 1.90461 0.663877 0
M  V30 269 C 28.1678 0.893515 1.73999 0
M  V30 270 O 29.3738 1.11302 2.47637 0
M  V30 271 C 27.8298 3.38155 1.23204 0
M  V30 272 C 27.4378 4.47597 0.189866 0
M  V30 273 C 29.1818 3.80111 1.88986 0
M  V30 274 C 27.0888 5.86379 0.768964 0
M  V30 275 H 26.0188 0.710738 0.251729 0
M  V30 276 H 28.6698 1.83326 -0.0799926 0
M  V30 277 H 27.0518 3.40182 2.02712 0
M  V30 278 H 28.2258 4.57112 -0.581846 0
M  V30 279 H 26.5408 4.14766 -0.368475 0
M  V30 280 H 29.1378 4.81145 2.33247 0
M  V30 281 H 29.4808 3.14511 2.72743 0
M  V30 282 H 30.0138 3.80454 1.16187 0
M  V30 283 H 26.7528 6.55493 -0.0301957 0
M  V30 284 H 26.2728 5.80496 1.50945 0
M  V30 285 H 27.9518 6.34563 1.26251 0
M  V30 286 N 28.0839 -0.256276 1.55502 0
M  V30 287 C 29.0469 -1.30047 1.88734 0
M  V30 288 C 30.0469 -1.4154 0.763086 0
M  V30 289 O 31.2369 -1.40403 1.03115 0
M  V30 290 C 28.3689 -2.67953 2.10747 0
M  V30 291 H 29.5619 -1.01802 2.82093 0
M  V30 292 H 27.1149 -0.495134 1.4825 0
M  V30 293 H 27.8499 -3.01351 1.19825 0
M  V30 294 H 27.6349 -2.60993 2.92617 0
M  V30 295 H 29.1249 -3.43368 2.37673 0
M  V30 296 N 29.562 -1.4872 -0.521534 0
M  V30 297 C 30.494 -1.59968 -1.64143 0
M  V30 298 C 31.507 -0.483463 -1.55456 0
M  V30 299 O 32.696 -0.75467 -1.61762 0
M  V30 300 C 29.796 -1.52127 -3.02838 0
M  V30 301 C 28.969 -2.78932 -3.36921 0
M  V30 302 C 28.028 -2.64428 -4.54933 0
M  V30 303 O 27.054 -3.38331 -4.57735 0
M  V30 304 N 28.256 -1.74606 -5.53618 0
M  V30 305 H 31.021 -2.56548 -1.54929 0
M  V30 306 H 28.582 -1.45551 -0.708988 0
M  V30 307 H 30.574 -1.40106 -3.79674 0
M  V30 308 H 29.144 -0.634868 -3.06085 0
M  V30 309 H 28.364 -3.05455 -2.4918 0
M  V30 310 H 29.652 -3.63041 -3.56481 0
M  V30 311 H 29.05 -1.13782 -5.54139 0
M  V30 312 H 27.607 -1.6852 -6.29638 0
M  V30 313 N 31.0401 0.771051 -1.3745 0
M  V30 314 C 31.9721 1.89352 -1.29146 0
M  V30 315 C 32.9851 1.61477 -0.207124 0
M  V30 316 O 34.1741 1.72382 -0.463324 0
M  V30 317 C 31.2741 3.24596 -0.974195 0
M  V30 318 C 30.4471 3.80111 -2.16413 0
M  V30 319 C 29.5061 4.93832 -1.81703 0
M  V30 320 O 28.5321 5.09382 -2.54006 0
M  V30 321 N 29.7341 5.75483 -0.761573 0
M  V30 322 H 32.4991 1.96991 -2.25864 0
M  V30 323 H 30.0601 0.950191 -1.31084 0
M  V30 324 H 32.0521 3.98193 -0.722828 0
M  V30 325 H 30.6221 3.12454 -0.0955527 0
M  V30 326 H 29.8421 2.98284 -2.57721 0
M  V30 327 H 31.1301 4.13932 -2.95867 0
M  V30 328 H 30.5281 5.65469 -0.161609 0
M  V30 329 H 29.0851 6.49302 -0.570064 0
M  V30 330 N 32.5182 1.22032 0.997298 0
M  V30 331 C 33.4502 0.944263 2.08845 0
M  V30 332 C 34.4632 -0.0754663 1.62625 0
M  V30 333 O 35.6522 0.157994 1.77799 0
M  V30 334 C 32.7522 0.397723 3.36558 0
M  V30 335 C 31.9252 1.47362 4.11829 0
M  V30 336 C 30.9842 0.934951 5.17827 0
M  V30 337 O 30.0102 1.62016 5.45655 0
M  V30 338 N 31.2122 -0.245895 5.79979 0
M  V30 339 H 33.9772 1.88363 2.33109 0
M  V30 340 H 31.5382 1.12661 1.16272 0
M  V30 341 H 33.5302 0.0227771 4.04694 0
M  V30 342 H 32.1002 -0.446646 3.09393 0
M  V30 343 H 31.3202 2.02208 3.38386 0
M  V30 344 H 32.6082 2.19764 4.58891 0
M  V30 345 H 32.0062 -0.819475 5.59733 0
M  V30 346 H 30.5632 -0.562272 6.4937 0
M  V30 347 N 33.9963 -1.19345 1.0293 0
M  V30 348 C 34.9443 -2.24621 0.604001 0
M  V30 349 C 35.9383 -1.65452 -0.363587 0
M  V30 350 O 37.1443 -1.78497 -0.23212 0
M  V30 351 H 33.5193 -0.730858 0.177061 0
M  V30 352 H 35.4903 -2.5781 1.50255 0
M  V30 353 C 34.2393 -3.47688 -0.0289127 0
M  V30 354 H 33.5623 -3.93505 0.706651 0
M  V30 355 H 35.0023 -4.23011 -0.289432 0
M  V30 356 C 33.4613 -3.11817 -1.2756 0
M  V30 357 O 33.9913 -3.2451 -2.36762 0
M  V30 358 N 32.1973 -2.66246 -1.16453 0
M  V30 359 H 31.7443 -2.56118 -0.275914 0
M  V30 360 H 31.7023 -2.42617 -1.99961 0
M  V30 361 N 35.4744 -0.807222 -1.35358 0
M  V30 362 C 36.4224 -0.20614 -2.31685 0
M  V30 363 C 37.4164 0.644445 -1.56663 0
M  V30 364 O 38.6224 0.537538 -1.71786 0
M  V30 365 H 34.9974 -0.0479006 -0.750473 0
M  V30 366 H 36.9684 -1.03369 -2.79924 0
M  V30 367 C 35.7174 0.630212 -3.41941 0
M  V30 368 H 35.0404 -0.0149558 -3.99797 0
M  V30 369 H 36.4804 1.01716 -4.11619 0
M  V30 370 C 34.9394 1.79601 -2.85035 0
M  V30 371 O 35.4694 2.89351 -2.78637 0
M  V30 372 N 33.6754 1.60774 -2.42074 0
M  V30 373 H 33.2224 0.715009 -2.47478 0
M  V30 374 H 33.1804 2.38933 -2.04349 0
M  V30 375 N 36.9525 1.47285 -0.560781 0
M  V30 376 C 37.8825 2.32857 0.173105 0
M  V30 377 C 38.8635 1.44009 0.905281 0
M  V30 378 O 40.0485 1.7286 0.885046 0
M  V30 379 C 37.1785 3.25861 1.20133 0
M  V30 380 C 36.1325 4.23978 0.585388 0
M  V30 381 C 35.4585 5.06332 1.7185 0
M  V30 382 C 36.7585 5.20242 -0.463178 0
M  V30 383 H 38.4525 2.94466 -0.541307 0
M  V30 384 H 35.9985 1.41601 -0.261764 0
M  V30 385 H 37.9515 3.84569 1.72293 0
M  V30 386 H 36.6755 2.62315 1.94573 0
M  V30 387 H 35.3345 3.66501 0.085054 0
M  V30 388 H 34.9825 4.39186 2.45203 0
M  V30 389 H 34.6825 5.72762 1.31213 0
M  V30 390 H 36.2065 5.67899 2.24329 0
M  V30 391 H 37.6205 5.73293 -0.027502 0
M  V30 392 H 36.0175 5.94896 -0.788627 0
M  V30 393 H 37.0875 4.65504 -1.35773 0
M  V30 394 N 38.4306 0.297415 1.54768 0
M  V30 395 C 39.3606 -0.573494 2.26348 0
M  V30 396 C 40.3416 -1.14085 1.26169 0
M  V30 397 O 41.5266 -1.17086 1.54934 0
M  V30 398 C 38.6566 -1.74716 3.00153 0
M  V30 399 C 37.6106 -1.31032 4.07449 0
M  V30 400 C 36.9366 -2.56887 4.68949 0
M  V30 401 C 38.2366 -0.444183 5.20408 0
M  V30 402 H 39.9306 0.0235131 2.99391 0
M  V30 403 H 37.4766 0.0127488 1.43994 0
M  V30 404 H 39.4296 -2.3625 3.48947 0
M  V30 405 H 38.1536 -2.37035 2.24682 0
M  V30 406 H 36.8126 -0.718066 3.59499 0
M  V30 407 H 36.4606 -3.17512 3.90122 0
M  V30 408 H 36.1606 -2.2836 5.41411 0
M  V30 409 H 37.6846 -3.19229 5.20505 0
M  V30 410 H 39.0986 -0.9651 5.65118 0
M  V30 411 H 37.4956 -0.252846 5.99567 0
M  V30 412 H 38.5656 0.531609 4.81977 0
M  V30 413 N 39.9087 -1.5758 0.0250728 0
M  V30 414 C 41.3247 -1.56124 -0.331282 0
M  V30 415 C 41.5247 -1.03029 -1.73169 0
M  V30 416 O 40.5807 -0.675215 -2.43305 0
M  V30 417 C 41.8937 -3.00139 -0.183584 0
M  V30 418 C 43.4417 -3.11946 -0.256654 0
M  V30 419 C 43.9167 -4.57793 -0.137792 0
M  V30 420 N 45.4077 -4.6279 -0.194904 0
M  V30 421 C 46.1427 -5.7326 -0.126655 0
M  V30 422 N 45.6387 -6.928 -0.00755288 0
M  V30 423 N 47.4317 -5.61811 -0.180348 0
M  V30 424 H 39.5827 -1.90424 0.94087 0
M  V30 425 H 41.8457 -0.875761 0.362968 0
M  V30 426 H 41.5517 -3.4292 0.780927 0
M  V30 427 H 41.4257 -3.64899 -0.955448 0
M  V30 428 H 43.8127 -2.69079 -1.21162 0
M  V30 429 H 43.8937 -2.49915 0.545517 0
M  V30 430 H 43.5377 -5.01339 0.813739 0
M  V30 431 H 43.4677 -5.17798 -0.958775 0
M  V30 432 H 45.9587 -3.76807 -0.287267 0
M  V30 433 H 46.2717 -7.72791 0.0379428 0
M  V30 434 H 44.6167 -6.94995 0.0271731 0
M  V30 435 H 47.8077 -4.6731 -0.271767 0
M  V30 436 H 47.9807 -6.47882 -0.123697 0
M  V30 437 N 41.3868 0.248026 -1.55636 0
M  V30 438 C 42.3498 1.29044 -1.89421 0
M  V30 439 C 43.3498 1.41134 -0.770581 0
M  V30 440 O 44.5398 1.39854 -1.03858 0
M  V30 441 C 41.6718 2.66831 -2.12165 0
M  V30 442 H 42.8648 1.00305 -2.82629 0
M  V30 443 H 40.4178 0.487265 -1.48511 0
M  V30 444 H 41.1528 3.00711 -1.21422 0
M  V30 445 H 40.9378 2.59438 -2.93997 0
M  V30 446 H 42.4278 3.42103 -2.3949 0
M  V30 447 N 42.8649 1.48995 0.513639 0
M  V30 448 C 44.1139 1.57093 1.2651 0
M  V30 449 C 44.4269 0.257091 1.93903 0
M  V30 450 O 45.6329 0.216478 2.70636 0
M  V30 451 C 44.0889 2.77118 2.29638 0
M  V30 452 C 43.6969 4.15209 1.68241 0
M  V30 453 C 45.4409 2.94538 3.05692 0
M  V30 454 C 43.3479 5.26474 2.69406 0
M  V30 455 H 42.2779 0.584876 0.475854 0
M  V30 456 H 44.9289 1.7536 0.540487 0
M  V30 457 H 43.3109 2.52319 3.05207 0
M  V30 458 H 44.4849 4.50094 0.987505 0
M  V30 459 H 42.7999 4.03042 1.04623 0
M  V30 460 H 45.3969 3.74832 3.8132 0
M  V30 461 H 45.7399 2.04614 3.62545 0
M  V30 462 H 46.2729 3.19316 2.37238 0
M  V30 463 H 43.0119 6.18417 2.17351 0
M  V30 464 H 42.5319 4.96058 3.37175 0
M  V30 465 H 44.2109 5.55277 3.32078 0
M  V30 466 N 44.343 -0.763751 1.37857 0
M  V30 467 C 45.253 -1.90817 1.36478 0
M  V30 468 C 46.269 -1.71997 0.263248 0
M  V30 469 O 47.445 -1.95095 0.499979 0
M  V30 470 C 44.51 -3.2605 1.17864 0
M  V30 471 C 43.571 -3.57467 2.3773 0
M  V30 472 C 42.804 -4.86249 2.19995 0
M  V30 473 O 43.027 -5.57884 1.18836 0
M  V30 474 O 41.961 -5.16911 3.08361 0
M  V30 475 H 45.787 -1.94933 2.32884 0
M  V30 476 H 43.372 -0.907619 1.1867 0
M  V30 477 H 45.254 -4.06924 1.09504 0
M  V30 478 H 43.929 -3.22769 0.245372 0
M  V30 479 H 42.836 -2.76796 2.51664 0
M  V30 480 H 44.169 -3.655 3.29652 0
M  V30 481 N 45.8211 -1.22559 -0.990812 0
M  V30 482 C 46.7841 -0.998863 -2.0629 0
M  V30 483 C 47.7841 0.0354834 -1.60761 0
M  V30 484 O 48.9741 -0.203231 -1.7301 0
M  V30 485 C 46.1061 -0.509203 -3.37076 0
M  V30 486 H 47.2991 -1.95014 -2.27837 0
M  V30 487 H 44.8521 -1.04456 -1.16269 0
M  V30 488 H 45.5871 0.446335 -3.21214 0
M  V30 489 H 45.3721 -1.25547 -3.71457 0
M  V30 490 H 46.8621 -0.370888 -4.1595 0
M  V30 491 N 47.2992 1.18797 -1.03562 0
M  V30 492 C 48.2312 2.21731 -0.580337 0
M  V30 493 C 49.2442 1.59051 0.347349 0
M  V30 494 O 50.4332 1.77929 0.142669 0
M  V30 495 C 47.5332 3.38459 0.172805 0
M  V30 496 C 46.7062 4.3072 -0.761496 0
M  V30 497 C 45.7652 5.26174 -0.0525547 0
M  V30 498 O 44.7912 5.65108 -0.681333 0
M  V30 499 N 45.9932 5.67624 1.21586 0
M  V30 500 H 48.7582 2.61417 -1.46565 0
M  V30 501 H 46.3192 1.33531 -0.915476 0
M  V30 502 H 48.3112 3.99335 0.656793 0
M  V30 503 H 46.8812 2.97507 0.959602 0
M  V30 504 H 46.1012 3.67525 -1.42544 0
M  V30 505 H 47.3892 4.89267 -1.39626 0
M  V30 506 H 46.7872 5.38038 1.74732 0
M  V30 507 H 45.3442 6.30721 1.64421 0
M  V30 508 N 48.7773 0.814389 1.34928 0
M  V30 509 C 49.7093 0.187834 2.28429 0
M  V30 510 C 50.7223 -0.617374 1.5064 0
M  V30 511 O 51.9113 -0.448454 1.72775 0
M  V30 512 C 49.0113 -0.755962 3.30361 0
M  V30 513 C 48.1843 0.00456686 4.374 0
M  V30 514 C 47.2433 -0.858876 5.19143 0
M  V30 515 O 46.2693 -0.306968 5.68372 0
M  V30 516 N 47.4713 -2.17988 5.38016 0
M  V30 517 H 50.2363 0.991105 2.82838 0
M  V30 518 H 47.7973 0.670561 1.4736 0
M  V30 519 H 49.7893 -1.338 3.81942 0
M  V30 520 H 48.3593 -1.46001 2.7641 0
M  V30 521 H 47.5793 0.767865 3.86649 0
M  V30 522 H 48.8673 0.528422 5.06049 0
M  V30 523 H 48.2653 -2.65212 4.99679 0
M  V30 524 H 46.8223 -2.71098 5.92747 0
M  V30 525 N 50.2554 -1.46986 0.568584 0
M  V30 526 C 51.2054 -2.27179 -0.193339 0
M  V30 527 C 52.1894 -1.35035 -0.874895 0
M  V30 528 O 53.3814 -1.5931 -0.771322 0
M  V30 529 C 50.5104 -3.21063 -1.21546 0
M  V30 530 C 49.5964 -4.2069 -0.536738 0
M  V30 531 N 49.9874 -5.04218 0.399673 0
M  V30 532 C 48.2854 -4.38961 -0.789254 0
M  V30 533 C 48.9864 -5.76242 0.795017 0
M  V30 534 N 47.9624 -5.434 0.1473 0
M  V30 535 H 51.7644 -2.89146 0.526458 0
M  V30 536 H 49.2784 -1.57664 0.389342 0
M  V30 537 H 51.2754 -3.77209 -1.77536 0
M  V30 538 H 49.9354 -2.60654 -1.93623 0
M  V30 539 H 50.9464 -5.12077 0.774454 0
M  V30 540 H 47.6234 -3.89713 -1.49767 0
M  V30 541 H 49.0134 -6.53417 1.56513 0
M  V30 542 N 51.7335 -0.305618 -1.54608 0
M  V30 543 C 52.6635 0.561482 -2.26649 0
M  V30 544 C 53.6445 1.13415 -1.26772 0
M  V30 545 O 54.8295 1.16262 -1.55553 0
M  V30 546 C 51.9595 1.73122 -3.01075 0
M  V30 547 C 50.9135 1.2887 -4.08138 0
M  V30 548 C 50.2395 2.54396 -4.70305 0
M  V30 549 C 51.5395 0.416578 -5.20636 0
M  V30 550 H 53.2335 -0.0393902 -2.99374 0
M  V30 551 H 50.7795 -0.020385 -1.43986 0
M  V30 552 H 52.7325 2.34396 -3.50195 0
M  V30 553 H 51.4565 2.3584 -2.25936 0
M  V30 554 H 50.1155 0.698991 -3.59875 0
M  V30 555 H 49.7635 3.15439 -3.918 0
M  V30 556 H 49.4635 2.25486 -5.42614 0
M  V30 557 H 50.9875 3.16464 -5.2219 0
M  V30 558 H 52.4015 0.935116 -5.65622 0
M  V30 559 H 50.7985 0.221046 -5.99693 0
M  V30 560 H 51.8685 -0.557162 -4.81688 0
M  V30 561 N 53.2116 1.57565 -0.0334293 0
M  V30 562 C 54.1416 2.13511 0.945265 0
M  V30 563 C 55.1226 1.05231 1.33643 0
M  V30 564 O 56.3076 1.33084 1.41429 0
M  V30 565 C 53.4376 2.6657 2.22616 0
M  V30 566 C 52.3916 3.79676 1.97561 0
M  V30 567 C 51.7176 4.1918 3.31952 0
M  V30 568 C 53.0176 5.0557 1.31135 0
M  V30 569 H 54.7116 2.95538 0.479325 0
M  V30 570 H 52.2576 1.42166 0.229115 0
M  V30 571 H 54.2106 3.04344 2.91466 0
M  V30 572 H 52.9346 1.8171 2.71384 0
M  V30 573 H 51.5936 3.42347 1.31127 0
M  V30 574 H 51.2416 3.31296 3.78487 0
M  V30 575 H 50.9416 4.95402 3.15992 0
M  V30 576 H 52.4656 4.59541 4.02063 0
M  V30 577 H 53.8796 5.40903 1.89992 0
M  V30 578 H 52.2766 5.86818 1.25559 0
M  V30 579 H 53.3466 4.84062 0.284894 0
M  V30 580 N 54.6897 -0.239769 1.55765 0
M  V30 581 C 55.6217 -1.32001 1.87372 0
M  V30 582 C 56.6347 -1.43944 0.760522 0
M  V30 583 O 57.8237 -1.45167 1.0387 0
M  V30 584 C 54.9237 -2.69779 2.05115 0
M  V30 585 C 54.0967 -2.80014 3.36022 0
M  V30 586 C 53.1557 -3.98684 3.4342 0
M  V30 587 O 52.1817 -3.87877 4.16582 0
M  V30 588 N 53.3837 -5.12176 2.73232 0
M  V30 589 H 56.1487 -1.0522 2.80622 0
M  V30 590 H 53.7097 -0.429857 1.56089 0
M  V30 591 H 55.7017 -3.47517 2.07399 0
M  V30 592 H 54.2717 -2.89237 1.18577 0
M  V30 593 H 53.4917 -1.88896 3.45994 0
M  V30 594 H 54.7797 -2.83808 4.22292 0
M  V30 595 H 54.1777 -5.2385 2.13536 0
M  V30 596 H 52.7347 -5.88022 2.81199 0
M  V30 597 N 56.1678 -1.49265 -0.50573 0
M  V30 598 C 57.0978 -1.68495 -1.61653 0
M  V30 599 C 58.0788 -0.53366 -1.61512 0
M  V30 600 O 59.2638 -0.76897 -1.78327 0
M  V30 601 C 56.3938 -1.74709 -3.00157 0
M  V30 602 C 55.3478 -2.89581 -3.15162 0
M  V30 603 C 54.6738 -2.80903 -4.5497 0
M  V30 604 C 55.9738 -4.30578 -2.95634 0
M  V30 605 H 57.6678 -2.61493 -1.45814 0
M  V30 606 H 55.2138 -1.25838 -0.70005 0
M  V30 607 H 57.1668 -1.86748 -3.77761 0
M  V30 608 H 55.8908 -0.783067 -3.17074 0
M  V30 609 H 54.5498 -2.77136 -2.39982 0
M  V30 610 H 54.1978 -1.82419 -4.68756 0
M  V30 611 H 53.8978 -3.57999 -4.65951 0
M  V30 612 H 55.4218 -2.94944 -5.34641 0
M  V30 613 H 56.8358 -4.4373 -3.63011 0
M  V30 614 H 55.2328 -5.0886 -3.18091 0
M  V30 615 H 56.3028 -4.45352 -1.91806 0
M  V30 616 N 57.6459 0.756429 -1.3826 0
M  V30 617 C 58.8739 1.54565 -1.3754 0
M  V30 618 C 59.2889 1.88767 0.0355331 0
M  V30 619 O 58.6459 1.52572 1.0014 0
M  V30 620 C 58.6969 2.84654 -2.22833 0
M  V30 621 O 58.4179 2.51912 -3.5843 0
M  V30 622 C 59.9189 3.78807 -2.30261 0
M  V30 623 H 57.1389 0.478353 -0.470553 0
M  V30 624 H 59.6829 0.936381 -1.81803 0
M  V30 625 H 57.8379 3.41965 -1.8204 0
M  V30 626 H 58.2519 3.35325 -4.03308 0
M  V30 627 H 59.7259 4.67045 -2.94233 0
M  V30 628 H 60.2029 4.19038 -1.31545 0
M  V30 629 H 60.8089 3.2742 -2.71433 0
M  V30 630 N 59.124 1.23083 0.984299 0
M  V30 631 C 60.37 1.06214 1.72761 0
M  V30 632 C 60.703 -0.400584 1.90024 0
M  V30 633 O 59.978 -1.29672 1.44967 0
M  V30 634 C 60.261 1.78375 3.12817 0
M  V30 635 C 60.114 3.32296 3.03149 0
M  V30 636 C 61.433 1.54309 4.12161 0
M  V30 637 H 58.552 0.387251 0.627061 0
M  V30 638 H 61.194 1.51536 1.14616 0
M  V30 639 H 59.344 1.39848 3.62457 0
M  V30 640 H 61.016 3.8032 2.61064 0
M  V30 641 H 59.259 3.6153 2.39747 0
M  V30 642 H 59.93 3.77972 4.02295 0
M  V30 643 H 62.406 1.87791 3.71314 0
M  V30 644 H 61.282 2.07281 5.08258 0
M  V30 645 H 61.543 0.477572 4.39513 0
M  V30 646 N 60.6021 -1.18246 1.0419 0
M  V30 647 C 61.8481 -1.88793 0.75689 0
M  V30 648 C 62.2031 -1.78909 -0.707767 0
M  V30 649 O 61.4961 -1.1794 -1.50999 0
M  V30 650 C 61.6901 -3.38082 1.15911 0
M  V30 651 C 61.5191 -3.62496 2.66133 0
M  V30 652 C 60.2891 -3.7979 3.33298 0
M  V30 653 C 62.4871 -3.62976 3.64353 0
M  V30 654 N 60.4691 -3.91955 4.72487 0
M  V30 655 C 61.8401 -3.80869 4.89222 0
M  V30 656 C 63.8951 -3.46071 3.57965 0
M  V30 657 C 62.5981 -3.83608 6.08471 0
M  V30 658 C 64.6241 -3.50093 4.76643 0
M  V30 659 C 63.9861 -3.68484 6.00332 0
M  V30 660 H 60.0851 -0.709406 0.32904 0
M  V30 661 H 62.6691 -1.42022 1.33183 0
M  V30 662 H 60.8401 -3.83544 0.612238 0
M  V30 663 H 62.5721 -3.96202 0.824989 0
M  V30 664 H 59.3271 -3.79224 2.83701 0
M  V30 665 H 59.7511 -4.01857 5.44831 0
M  V30 666 H 64.3931 -3.30797 2.63311 0
M  V30 667 H 62.1111 -3.97669 7.0348 0
M  V30 668 H 65.6971 -3.38285 4.73344 0
M  V30 669 H 64.5771 -3.71488 6.90627 0
M  V30 670 N 62.0802 -0.821533 -1.34494 0
M  V30 671 C 63.3282 -0.408139 -1.97936 0
M  V30 672 C 63.6492 1.03193 -1.65457 0
M  V30 673 O 62.9192 1.71622 -0.944595 0
M  V30 674 H 61.4992 -0.147928 -0.732206 0
M  V30 675 H 64.1612 -1.05067 -1.64155 0
M  V30 676 H 63.2572 -0.52601 -3.07635 0
M  V30 677 N 63.5583 1.46682 -0.576371 0
M  V30 678 C 64.8073 2.01619 -0.0572825 0
M  V30 679 C 65.1203 1.45417 1.30818 0
M  V30 680 O 66.3263 1.92133 1.91825 0
M  V30 681 C 64.7823 3.59863 -0.0518371 0
M  V30 682 C 64.3903 4.25059 -1.41523 0
M  V30 683 C 66.1343 4.2248 0.413639 0
M  V30 684 C 64.0413 5.75364 -1.36785 0
M  V30 685 H 62.9713 0.753794 -0.0176448 0
M  V30 686 H 65.6223 1.68481 -0.727076 0
M  V30 687 H 64.0043 3.90048 0.683994 0
M  V30 688 H 65.1783 4.06491 -2.17029 0
M  V30 689 H 63.4933 3.7451 -1.8202 0
M  V30 690 H 66.0903 5.3265 0.467779 0
M  V30 691 H 66.4333 3.90976 1.42982 0
M  V30 692 H 66.9663 3.96897 -0.267929 0
M  V30 693 H 63.7053 6.11518 -2.36063 0
M  V30 694 H 63.2253 5.96214 -0.654895 0
M  V30 695 H 64.9043 6.37955 -1.07805 0
M  V30 696 N 65.0364 0.313813 1.54444 0
M  V30 697 C 65.9834 -0.55655 2.23989 0
M  V30 698 C 66.9534 -1.11943 1.22711 0
M  V30 699 O 68.1384 -1.16158 1.51367 0
M  V30 700 C 65.2784 -1.71635 2.99392 0
M  V30 701 C 64.3914 -1.18364 4.15468 0
M  V30 702 C 63.5264 -2.30834 4.78424 0
M  V30 703 C 62.5654 -1.74762 5.86622 0
M  V30 704 N 61.7024 -2.80855 6.43479 0
M  V30 705 H 66.5424 0.0430893 2.97969 0
M  V30 706 H 64.0794 0.0330359 1.47063 0
M  V30 707 H 66.0374 -2.39868 3.41349 0
M  V30 708 H 64.6674 -2.28742 2.27765 0
M  V30 709 H 63.7194 -0.393163 3.78363 0
M  V30 710 H 65.0314 -0.733262 4.93381 0
M  V30 711 H 64.1854 -3.0699 5.23299 0
M  V30 712 H 62.9244 -2.79204 3.99871 0
M  V30 713 H 61.9294 -0.970995 5.41158 0
M  V30 714 H 63.1544 -1.2728 6.67066 0
M  V30 715 H 61.1004 -3.28535 5.67804 0
M  V30 716 H 61.0174 -2.40351 7.16776 0
M  V30 717 H 62.2854 -3.5687 6.93011 0
M  V30 718 N 66.5145 -1.57545 0.0417849 0
M  V30 719 C 67.4465 -2.07904 -0.964799 0
M  V30 720 C 68.4595 -1.00497 -1.28079 0
M  V30 721 O 69.6485 -1.28087 -1.24322 0
M  V30 722 C 66.7485 -2.49928 -2.28887 0
M  V30 723 C 65.9215 -3.80562 -2.15619 0
M  V30 724 C 64.9805 -4.08999 -3.31069 0
M  V30 725 O 64.0065 -4.79061 -3.0739 0
M  V30 726 N 65.2085 -3.6017 -4.55256 0
M  V30 727 H 67.9735 -2.94886 -0.535029 0
M  V30 728 H 65.5345 -1.61252 -0.144681 0
M  V30 729 H 67.5265 -2.66034 -3.04972 0
M  V30 730 H 66.0965 -1.68245 -2.63463 0
M  V30 731 H 65.3165 -3.74129 -1.24183 0
M  V30 732 H 66.6045 -4.66126 -2.03971 0
M  V30 733 H 66.0025 -3.03512 -4.77386 0
M  V30 734 H 64.5595 -3.81532 -5.28466 0
M  V30 735 N 67.9926 0.231505 -1.5589 0
M  V30 736 C 68.9226 1.29022 -1.94617 0
M  V30 737 C 69.9036 1.4941 -0.813067 0
M  V30 738 O 71.0886 1.6176 -1.07459 0
M  V30 739 C 68.2186 2.64199 -2.25424 0
M  V30 740 C 67.1726 2.58484 -3.41131 0
M  V30 741 C 66.4986 3.97599 -3.57518 0
M  V30 742 C 67.7986 2.1413 -4.76388 0
M  V30 743 H 69.4926 0.968563 -2.83301 0
M  V30 744 H 67.0386 0.464479 -1.36303 0
M  V30 745 H 68.9916 3.38413 -2.51107 0
M  V30 746 H 67.7156 2.98032 -1.33583 0
M  V30 747 H 66.3746 1.86727 -3.15481 0
M  V30 748 H 66.0226 4.28723 -2.6307 0
M  V30 749 H 65.7226 3.94659 -4.35337 0
M  V30 750 H 67.2466 4.7349 -3.85538 0
M  V30 751 H 68.6606 2.78083 -5.01341 0
M  V30 752 H 67.0576 2.2227 -5.57419 0
M  V30 753 H 68.1276 1.09331 -4.72414 0
M  V30 754 N 69.4707 1.49531 0.497807 0
M  V30 755 C 70.4027 1.62559 1.61578 0
M  V30 756 C 71.4157 0.508134 1.54667 0
M  V30 757 O 72.6047 0.780309 1.60541 0
M  V30 758 C 69.7047 1.56925 3.00379 0
M  V30 759 C 68.8777 2.84257 3.3244 0
M  V30 760 C 67.9367 2.71632 4.50669 0
M  V30 761 O 66.9627 3.4557 4.52294 0
M  V30 762 N 68.1647 1.83391 5.5077 0
M  V30 763 H 70.9297 2.58981 1.50828 0
M  V30 764 H 68.4907 1.4666 0.685743 0
M  V30 765 H 70.4827 1.46129 3.77397 0
M  V30 766 H 69.0527 0.683483 3.05037 0
M  V30 767 H 68.2727 3.09381 2.44289 0
M  V30 768 H 69.5607 3.68666 3.5066 0
M  V30 769 H 68.9587 1.22583 5.52259 0
M  V30 770 H 67.5157 1.78515 6.26878 0
M  V30 771 N 70.9488 -0.749086 1.3866 0
M  V30 772 C 71.9118 -1.84457 1.36045 0
M  V30 773 C 72.9118 -1.58682 0.260122 0
M  V30 774 O 74.1018 -1.66343 0.517261 0
M  V30 775 C 71.2338 -3.22008 1.11911 0
M  V30 776 H 72.4268 -1.88182 2.33512 0
M  V30 777 H 69.9798 -0.951266 1.24019 0
M  V30 778 H 70.7148 -3.2395 0.150686 0
M  V30 779 H 70.4998 -3.42111 1.91579 0
M  V30 780 H 71.9898 -4.0208 1.12788 0
M  V30 781 N 72.4269 -1.23603 -0.977757 0
M  V30 782 C 73.8429 -0.999251 -1.24447 0
M  V30 783 C 74.0429 0.298053 -1.99283 0
M  V30 784 O 73.0989 1.01681 -2.31122 0
M  V30 785 C 74.4119 -2.20784 -2.04144 0
M  V30 786 C 75.9599 -2.25303 -2.17273 0
M  V30 787 C 76.4349 -3.45755 -3.00362 0
M  V30 788 N 77.9259 -3.4601 -3.07947 0
M  V30 789 C 78.6609 -4.35868 -3.72568 0
M  V30 790 N 78.1569 -5.35966 -4.38991 0
M  V30 791 N 79.9499 -4.23605 -3.6948 0
M  V30 792 H 72.1009 -2.06986 -0.476483 0
M  V30 793 H 74.3639 -0.907801 -0.273134 0
M  V30 794 H 74.0699 -3.14945 -1.56533 0
M  V30 795 H 73.9439 -2.22085 -3.04891 0
M  V30 796 H 76.3309 -1.3168 -2.64092 0
M  V30 797 H 76.4119 -2.28033 -1.15907 0
M  V30 798 H 76.0559 -4.39687 -2.5424 0
M  V30 799 H 75.9859 -3.40266 -4.01904 0
M  V30 800 H 78.4769 -2.73588 -2.60688 0
M  V30 801 H 78.7899 -6.00783 -4.86086 0
M  V30 802 H 77.1349 -5.39863 -4.37691 0
M  V30 803 H 80.3259 -3.44647 -3.16759 0
M  V30 804 H 80.4989 -4.93836 -4.1956 0
M  V30 805 N 73.905 1.17692 -1.04816 0
M  V30 806 C 75.151 1.88137 -0.75711 0
M  V30 807 C 75.484 1.80604 0.713841 0
M  V30 808 O 74.759 1.21146 1.52164 0
M  V30 809 C 75.042 3.38318 -1.2334 0
M  V30 810 C 74.895 3.54622 -2.76701 0
M  V30 811 C 76.214 4.32214 -0.829415 0
M  V30 812 H 73.333 0.683163 -0.27651 0
M  V30 813 H 75.975 1.38424 -1.30149 0
M  V30 814 H 74.125 3.80787 -0.770286 0
M  V30 815 H 75.797 3.21194 -3.31107 0
M  V30 816 H 74.04 2.97026 -3.16161 0
M  V30 817 H 74.711 4.60028 -3.05088 0
M  V30 818 H 77.187 3.97565 -1.22805 0
M  V30 819 H 76.063 5.35838 -1.19033 0
M  V30 820 H 76.324 4.41294 0.266891 0
M  V30 821 N 75.3831 0.828654 1.34056 0
M  V30 822 C 76.3131 0.269443 2.3194 0
M  V30 823 C 77.2941 -0.617247 1.58506 0
M  V30 824 O 78.4791 -0.542931 1.86456 0
M  V30 825 C 75.6091 -0.564793 3.42677 0
M  V30 826 C 74.5631 0.225241 4.27407 0
M  V30 827 C 73.8891 -0.7321 5.29664 0
M  V30 828 C 75.1891 1.43663 5.02154 0
M  V30 829 H 76.8831 1.08728 2.7896 0
M  V30 830 H 74.4291 0.524283 1.34117 0
M  V30 831 H 76.3821 -0.966233 4.10173 0
M  V30 832 H 75.1061 -1.41574 2.9432 0
M  V30 833 H 73.7651 0.608117 3.61521 0
M  V30 834 H 73.4131 -1.57916 4.77568 0
M  V30 835 H 73.1131 -0.20767 5.87233 0
M  V30 836 H 74.6371 -1.13128 6.00029 0
M  V30 837 H 76.0511 1.1089 5.62473 0
M  V30 838 H 74.4481 1.89711 5.69324 0
M  V30 839 H 75.5181 2.21181 4.31517 0
M  V30 840 N 76.8612 -1.46375 0.584142 0
M  V30 841 C 77.8242 -2.28784 -0.138108 0
M  V30 842 C 78.8242 -1.38471 -0.817462 0
M  V30 843 O 80.0142 -1.60833 -0.669199 0
M  V30 844 C 77.1462 -3.18892 -1.20503 0
M  V30 845 H 78.3392 -2.94117 0.586127 0
M  V30 846 H 75.8922 -1.52509 0.342171 0
M  V30 847 H 76.6272 -2.58309 -1.96079 0
M  V30 848 H 76.4122 -3.85388 -0.722384 0
M  V30 849 H 77.9022 -3.80914 -1.71155 0
M  V30 850 N 78.3393 -0.321999 -1.54275 0
M  V30 851 C 79.2693 0.537411 -2.27231 0
M  V30 852 C 80.2503 1.12064 -1.27968 0
M  V30 853 O 81.4353 1.14606 -1.56777 0
M  V30 854 C 78.5653 1.69919 -3.02894 0
M  V30 855 C 77.5193 1.24534 -4.09482 0
M  V30 856 C 76.8453 2.49394 -4.72977 0
M  V30 857 C 78.1453 0.361335 -5.21049 0
M  V30 858 H 79.8393 -0.0711406 -2.99315 0
M  V30 859 H 77.3853 -0.0356555 -1.43956 0
M  V30 860 H 79.3383 2.30668 -3.52662 0
M  V30 861 H 78.0623 2.33431 -2.28424 0
M  V30 862 H 76.7213 0.660782 -3.60596 0
M  V30 863 H 76.3693 3.11265 -3.95124 0
M  V30 864 H 76.0693 2.19718 -5.44975 0
M  V30 865 H 77.5933 3.10908 -5.25517 0
M  V30 866 H 79.0073 0.875072 -5.66582 0
M  V30 867 H 77.4043 0.157428 -5.99893 0
M  V30 868 H 78.4743 -0.60822 -4.8107 0
M  V30 869 N 79.8174 1.5752 -0.0501392 0
M  V30 870 C 80.7274 2.14952 0.939827 0
M  V30 871 C 81.7434 1.10706 1.34239 0
M  V30 872 O 82.9194 1.42869 1.41952 0
M  V30 873 C 79.9844 2.68232 2.19665 0
M  V30 874 C 79.0454 3.87272 1.85253 0
M  V30 875 C 78.2784 4.38002 3.04943 0
M  V30 876 O 78.5014 3.87811 4.18281 0
M  V30 877 O 77.4354 5.29602 2.86017 0
M  V30 878 H 81.2614 2.9986 0.481392 0
M  V30 879 H 78.8464 1.4841 0.171699 0
M  V30 880 H 80.7284 3.02475 2.93406 0
M  V30 881 H 79.4034 1.86395 2.64648 0
M  V30 882 H 78.3104 3.5792 1.0883 0
M  V30 883 H 79.6434 4.70336 1.4507 0
M  V30 884 N 81.2955 -0.223234 1.56011 0
M  V30 885 C 82.7115 -0.572856 1.48965 0
M  V30 886 C 82.9115 -1.87225 0.74492 0
M  V30 887 O 81.9675 -2.50899 0.283896 0
M  V30 888 C 83.2805 -0.653646 2.9351 0
M  V30 889 C 84.8285 -0.744386 3.0402 0
M  V30 890 C 85.3035 -0.856535 4.49919 0
M  V30 891 N 86.7945 -0.9208 4.53955 0
M  V30 892 C 87.5295 -1.02726 5.64123 0
M  V30 893 N 87.0255 -1.09777 6.84047 0
M  V30 894 N 88.8185 -1.06226 5.51971 0
M  V30 895 H 80.9695 0.629462 2.02858 0
M  V30 896 H 83.2325 0.220621 0.921971 0
M  V30 897 H 82.9385 0.231518 3.50937 0
M  V30 898 H 82.8125 -1.51781 3.45315 0
M  V30 899 H 85.1995 -1.61999 2.46658 0
M  V30 900 H 85.2805 0.14541 2.55386 0
M  V30 901 H 84.9245 0.0146069 5.07898 0
M  V30 902 H 84.8545 -1.76172 4.96257 0
M  V30 903 H 87.3455 -0.876694 3.6759 0
M  V30 904 H 87.6585 -1.17872 7.63758 0
M  V30 905 H 86.0035 -1.06693 6.86762 0
M  V30 906 H 89.1945 -1.00382 4.5721 0
M  V30 907 H 89.3675 -1.14177 6.37862 0
M  V30 908 N 82.7736 -1.49793 -0.48987 0
M  V30 909 C 84.0036 -1.6333 -1.26518 0
M  V30 910 C 84.4116 -0.308392 -1.8667 0
M  V30 911 O 83.7546 0.717512 -1.69108 0
M  V30 912 C 83.8166 -2.6522 -2.4269 0
M  V30 913 C 83.4806 -4.09279 -2.03321 0
M  V30 914 C 84.4776 -4.95738 -1.56652 0
M  V30 915 C 82.1626 -4.55082 -2.12616 0
M  V30 916 C 84.1566 -6.26041 -1.19795 0
M  V30 917 C 81.8436 -5.85396 -1.75371 0
M  V30 918 C 82.8416 -6.707 -1.29036 0
M  V30 919 O 82.5296 -7.98584 -0.92299 0
M  V30 920 H 82.2616 -0.552502 -0.389509 0
M  V30 921 H 84.8156 -1.96642 -0.593381 0
M  V30 922 H 83.0456 -2.27112 -3.12981 0
M  V30 923 H 84.7346 -2.68171 -3.04695 0
M  V30 924 H 85.5006 -4.61575 -1.48908 0
M  V30 925 H 81.3796 -3.88844 -2.47631 0
M  V30 926 H 84.9236 -6.92578 -0.835582 0
M  V30 927 H 80.8206 -6.19085 -1.82768 0
M  V30 928 H 81.5886 -8.11692 -1.05349 0
M  V30 929 N 84.2517 0.741722 -1.39055 0
M  V30 930 C 85.1817 1.869 -1.39966 0
M  V30 931 C 86.1627 1.6804 -0.26392 0
M  V30 932 O 87.3477 1.88458 -0.468755 0
M  V30 933 C 84.4777 3.24572 -1.23574 0
M  V30 934 C 83.4317 3.58056 -2.34477 0
M  V30 935 C 82.7577 4.94593 -2.0318 0
M  V30 936 C 84.0577 3.61716 -3.76774 0
M  V30 937 H 85.7517 1.86395 -2.34302 0
M  V30 938 H 83.2977 0.895361 -1.1278 0
M  V30 939 H 85.2507 4.031 -1.22834 0
M  V30 940 H 83.9747 3.25587 -0.257045 0
M  V30 941 H 82.6337 2.81854 -2.34423 0
M  V30 942 H 82.2817 4.92181 -1.03765 0
M  V30 943 H 81.9817 5.17964 -2.77465 0
M  V30 944 H 83.5057 5.75486 -2.04079 0
M  V30 945 H 84.9197 4.30335 -3.78794 0
M  V30 946 H 83.3167 3.96603 -4.50362 0
M  V30 947 H 84.3867 2.61672 -4.08235 0
M  V30 948 N 85.7298 1.2412 0.971189 0
M  V30 949 C 86.9758 1.09048 1.71698 0
M  V30 950 C 87.3308 -0.367442 1.88859 0
M  V30 951 O 86.6238 -1.26792 1.43646 0
M  V30 952 C 86.8178 1.75983 3.11071 0
M  V30 953 C 86.6468 3.28133 3.07504 0
M  V30 954 C 85.4168 3.97331 3.1218 0
M  V30 955 C 87.6148 4.24773 2.89952 0
M  V30 956 N 85.5968 5.3639 2.98596 0
M  V30 957 C 86.9678 5.50806 2.84627 0
M  V30 958 C 89.0228 4.15392 2.74506 0
M  V30 959 C 87.7258 6.68533 2.65437 0
M  V30 960 C 89.7518 5.32793 2.56682 0
M  V30 961 C 89.1138 6.57756 2.52063 0
M  V30 962 H 85.2128 0.453632 0.636979 0
M  V30 963 H 87.7968 1.56983 1.15171 0
M  V30 964 H 85.9678 1.30566 3.65796 0
M  V30 965 H 87.6998 1.53803 3.74335 0
M  V30 966 H 84.4548 3.48473 3.20724 0
M  V30 967 H 84.8788 6.09321 2.95054 0
M  V30 968 H 89.5208 3.19543 2.76861 0
M  V30 969 H 87.2388 7.64509 2.61825 0
M  V30 970 H 90.8248 5.27383 2.4568 0
M  V30 971 H 89.7048 7.4707 2.38446 0
M  V30 972 N 87.2079 -1.17134 1.05439 0
M  V30 973 C 88.4849 -1.83411 0.679699 0
M  V30 974 C 88.8649 -1.9368 -0.839726 0
M  V30 975 O 88.2129 -1.47325 -1.74664 0
M  V30 976 C 88.4229 -3.20918 1.37159 0
M  V30 977 C 89.7709 -3.96796 1.51123 0
M  V30 978 O 90.7949 -3.30406 1.3308 0
M  V30 979 O 89.6539 -5.15778 1.80651 0
M  V30 980 H 86.7479 -0.79154 0.239569 0
M  V30 981 H 89.2939 -1.24411 1.15413 0
M  V30 982 H 88.0659 -3.08428 2.40807 0
M  V30 983 H 87.6889 -3.87587 0.886674 0
M  V30 984 N 88.686 -0.835752 -1.33615 0
M  V30 985 C 89.618 -0.224151 -2.28101 0
M  V30 986 C 90.631 0.593331 -1.51603 0
M  V30 987 O 91.82 0.420911 -1.73466 0
M  V30 988 C 88.92 0.703309 -3.31522 0
M  V30 989 C 88.093 -0.0741528 -4.37337 0
M  V30 990 C 87.152 0.776176 -5.20444 0
M  V30 991 O 86.178 0.216506 -5.68788 0
M  V30 992 N 87.38 2.09401 -5.41416 0
M  V30 993 H 90.145 -1.03598 -2.81225 0
M  V30 994 H 87.706 -0.69392 -1.46275 0
M  V30 995 H 89.698 1.27707 -3.84022 0
M  V30 996 H 88.268 1.41585 -2.78698 0
M  V30 997 H 87.488 -0.82928 -3.85378 0
M  V30 998 H 88.776 -0.608863 -5.05144 0
M  V30 999 H 88.174 2.57229 -5.03835 0
M  V30 1000 H 86.731 2.61633 -5.96985 0
M  V30 1001 N 90.1641 1.46063 -0.591896 0
M  V30 1002 C 91.0961 2.28539 0.174001 0
M  V30 1003 C 92.1091 1.39047 0.846753 0
M  V30 1004 O 93.2981 1.63564 0.714774 0
M  V30 1005 C 90.3981 3.14347 1.26645 0
M  V30 1006 C 89.5711 4.32021 0.683856 0
M  V30 1007 C 88.6301 4.99157 1.66518 0
M  V30 1008 O 87.6561 5.56458 1.19763 0
M  V30 1009 N 88.8581 4.97005 2.99943 0
M  V30 1010 H 91.6231 2.94911 -0.533633 0
M  V30 1011 H 89.1841 1.56077 -0.430294 0
M  V30 1012 H 91.1761 3.56125 1.92242 0
M  V30 1013 H 89.7461 2.49988 1.87682 0
M  V30 1014 H 88.9661 3.93915 -0.1498 0
M  V30 1015 H 90.2541 5.08059 0.274567 0
M  V30 1016 H 89.6521 4.51714 3.40545 0
M  V30 1017 H 88.2091 5.42696 3.61004 0
M  V30 1018 N 91.6422 0.330177 1.54103 0
M  V30 1019 C 92.5722 -0.525353 2.27513 0
M  V30 1020 C 93.5532 -1.11383 1.2856 0
M  V30 1021 O 94.7382 -1.13773 1.57383 0
M  V30 1022 C 91.8682 -1.6831 3.03791 0
M  V30 1023 C 90.8222 -1.2236 4.10137 0
M  V30 1024 C 90.1482 -2.46882 4.74293 0
M  V30 1025 C 91.4482 -0.333697 5.21233 0
M  V30 1026 H 93.1422 0.087013 2.99274 0
M  V30 1027 H 90.6882 0.0432893 1.43935 0
M  V30 1028 H 92.6412 -2.28795 3.5388 0
M  V30 1029 H 91.3652 -2.32216 2.29659 0
M  V30 1030 H 90.0242 -0.64165 3.60941 0
M  V30 1031 H 89.6722 -3.09165 3.96769 0
M  V30 1032 H 89.3722 -2.16825 5.46133 0
M  V30 1033 H 90.8962 -3.08117 5.27159 0
M  V30 1034 H 92.3102 -0.845013 5.67038 0
M  V30 1035 H 90.7072 -0.125612 5.99969 0
M  V30 1036 H 91.7772 0.633724 4.80741 0
M  V30 1037 N 93.1203 -1.57491 0.0584922 0
M  V30 1038 C 94.0503 -2.14988 -0.911178 0
M  V30 1039 C 95.0313 -1.07343 -1.31952 0
M  V30 1040 O 96.2163 -1.35318 -1.39294 0
M  V30 1041 C 93.3463 -2.70078 -2.18347 0
M  V30 1042 C 92.3003 -3.82771 -1.91495 0
M  V30 1043 C 91.6263 -4.24408 -3.25241 0
M  V30 1044 C 92.9263 -5.07592 -1.23075 0
M  V30 1045 H 94.6203 -2.96263 -0.432246 0
M  V30 1046 H 92.1663 -1.42512 -0.206469 0
M  V30 1047 H 94.1193 -3.08943 -2.86587 0
M  V30 1048 H 92.8433 -1.86005 -2.68458 0
M  V30 1049 H 91.5023 -3.44389 -1.25664 0
M  V30 1050 H 91.1503 -3.37275 -3.73168 0
M  V30 1051 H 90.8503 -5.00366 -3.08071 0
M  V30 1052 H 92.3743 -4.65879 -3.94701 0
M  V30 1053 H 93.7883 -5.43857 -1.81362 0
M  V30 1054 H 92.1853 -5.88741 -1.16207 0
M  V30 1055 H 93.2553 -4.84454 -0.207847 0
M  V30 1056 N 94.5984 0.214957 -1.56127 0
M  V30 1057 C 95.8464 0.936518 -1.79091 0
M  V30 1058 C 96.1674 1.84606 -0.628148 0
M  V30 1059 O 95.4374 1.92664 0.35462 0
M  V30 1060 H 94.0174 0.3488 -0.660566 0
M  V30 1061 H 96.6794 0.22523 -1.93594 0
M  V30 1062 H 95.7754 1.53943 -2.71492 0
M  V30 1063 N 96.0765 1.50051 0.48192 0
M  V30 1064 C 97.3255 1.59741 1.23149 0
M  V30 1065 C 97.6385 0.298163 1.93314 0
M  V30 1066 O 98.8445 0.273835 2.70116 0
M  V30 1067 C 97.3005 2.81926 2.23708 0
M  V30 1068 C 96.9085 4.18685 1.59396 0
M  V30 1069 C 98.6525 3.00956 2.99375 0
M  V30 1070 C 96.5595 5.3207 2.58178 0
M  V30 1071 H 95.4895 0.594838 0.46334 0
M  V30 1072 H 98.1405 1.76467 0.503169 0
M  V30 1073 H 96.5225 2.58736 2.99786 0
M  V30 1074 H 97.6965 4.52088 0.891811 0
M  V30 1075 H 96.0115 4.05171 0.960503 0
M  V30 1076 H 98.6085 3.82836 3.73283 0
M  V30 1077 H 98.9515 2.12258 3.58123 0
M  V30 1078 H 99.4845 3.24277 2.30411 0
M  V30 1079 H 96.2235 6.22888 2.04184 0
M  V30 1080 H 95.7435 5.03098 3.26577 0
M  V30 1081 H 97.4225 5.62196 3.20225 0
M  V30 1082 N 97.5546 -0.734337 1.39446 0
M  V30 1083 C 98.8006 -1.49505 1.37913 0
M  V30 1084 C 99.1556 -1.92384 -0.0248416 0
M  V30 1085 O 98.4486 -1.6395 -0.991506 0
M  V30 1086 C 98.6426 -2.74711 2.28623 0
M  V30 1087 C 98.4716 -2.44075 3.777 0
M  V30 1088 C 97.2416 -2.36338 4.46623 0
M  V30 1089 C 99.4396 -2.09574 4.69663 0
M  V30 1090 N 97.4216 -1.9818 5.81032 0
M  V30 1091 C 98.7926 -1.81865 5.92727 0
M  V30 1092 C 100.848 -1.96048 4.57678 0
M  V30 1093 C 99.5506 -1.41992 7.05146 0
M  V30 1094 C 101.577 -1.57579 5.7002 0
M  V30 1095 C 100.939 -1.30754 6.92158 0
M  V30 1096 H 97.0376 -0.545896 0.55993 0
M  V30 1097 H 99.6216 -0.853373 1.75002 0
M  V30 1098 H 97.7926 -3.36657 1.93692 0
M  V30 1099 H 99.5246 -3.40916 2.18078 0
M  V30 1100 H 96.2796 -2.53456 4.00071 0
M  V30 1101 H 96.7036 -1.81691 6.52163 0
M  V30 1102 H 101.346 -2.15455 3.63784 0
M  V30 1103 H 99.0636 -1.21327 7.9894 0
M  V30 1104 H 102.65 -1.47718 5.62735 0
M  V30 1105 H 101.53 -1.01432 7.77612 0
M  V30 1106 N 99.0327 -1.24633 -0.964593 0
M  V30 1107 C 100.281 -1.08573 -1.70459 0
M  V30 1108 C 100.602 0.375655 -1.91347 0
M  V30 1109 O 99.8717 1.26779 -1.49345 0
M  V30 1110 H 98.4517 -0.398784 -0.631649 0
M  V30 1111 H 101.114 -1.56601 -1.16026 0
M  V30 1112 H 100.21 -1.58623 -2.68785 0
M  V30 1113 N 100.511 1.16574 -1.06058 0
M  V30 1114 C 101.751 1.88723 -0.78504 0
M  V30 1115 C 102.115 1.79706 0.676006 0
M  V30 1116 O 103.316 2.46757 1.06603 0
M  V30 1117 C 101.587 3.34338 -1.26304 0
M  V30 1118 S 103.146 4.24366 -1.1162 0
M  V30 1119 H 99.9638 0.651448 -0.284846 0
M  V30 1120 H 102.566 1.40732 -1.35701 0
M  V30 1121 H 101.27 3.38439 -2.32136 0
M  V30 1122 H 100.801 3.87378 -0.685719 0
M  V30 1123 H 102.816 4.96179 -0.0456539 0
M  V30 1124 N 101.989 0.842826 1.3317 0
M  V30 1125 C 103.214 0.453129 2.02389 0
M  V30 1126 C 103.639 -0.939105 1.6298 0
M  V30 1127 O 102.997 -1.61472 0.8244 0
M  V30 1128 C 103.045 0.586094 3.55805 0
M  V30 1129 O 102.149 -0.386029 4.10589 0
M  V30 1130 H 101.49 0.183664 0.638094 0
M  V30 1131 H 104.02 1.13875 1.69981 0
M  V30 1132 H 104.03 0.469209 4.05293 0
M  V30 1133 H 102.705 1.6014 3.83833 0
M  V30 1134 H 101.282 -0.226371 3.72212 0
M  V30 1135 N 103.467 -1.45747 0.599634 0
M  V30 1136 C 104.715 -2.01893 0.0915472 0
M  V30 1137 C 105.036 -1.47155 -1.27946 0
M  V30 1138 O 104.306 -0.66273 -1.84349 0
M  V30 1139 H 102.886 -0.746363 0.0308524 0
M  V30 1140 H 105.548 -1.78645 0.779237 0
M  V30 1141 H 104.644 -3.1208 0.0353086 0
M  V30 1142 N 104.945 -0.338344 -1.53925 0
M  V30 1143 C 105.892 0.520845 -2.24846 0
M  V30 1144 C 106.862 1.09976 -1.24477 0
M  V30 1145 O 108.047 1.13735 -1.53196 0
M  V30 1146 C 105.187 1.6685 -3.02084 0
M  V30 1147 C 104.3 1.11739 -4.17299 0
M  V30 1148 C 103.435 2.23193 -4.82036 0
M  V30 1149 C 102.474 1.65407 -5.89328 0
M  V30 1150 N 101.611 2.70582 -6.47866 0
M  V30 1151 H 106.451 -0.0904881 -2.97863 0
M  V30 1152 H 103.988 -0.0564282 -1.46992 0
M  V30 1153 H 105.946 2.34407 -3.45122 0
M  V30 1154 H 104.576 2.2509 -2.31375 0
M  V30 1155 H 103.628 0.332919 -3.7894 0
M  V30 1156 H 104.94 0.654677 -4.94485 0
M  V30 1157 H 104.094 2.98626 -5.28117 0
M  V30 1158 H 102.833 2.72807 -4.04262 0
M  V30 1159 H 101.838 0.884779 -5.42634 0
M  V30 1160 H 103.063 1.16652 -6.69006 0
M  V30 1161 H 101.009 3.1946 -5.72959 0
M  V30 1162 H 100.926 2.28917 -7.20509 0
M  V30 1163 H 102.194 3.45799 -6.98601 0
M  V30 1164 N 106.423 1.57458 -0.0668435 0
M  V30 1165 C 107.672 1.92477 0.602947 0
M  V30 1166 C 107.985 0.948419 1.71068 0
M  V30 1167 O 109.191 1.19124 2.43971 0
M  V30 1168 C 107.647 3.41903 1.12383 0
M  V30 1169 C 107.255 4.47975 0.04737 0
M  V30 1170 C 108.999 3.85931 1.76797 0
M  V30 1171 C 106.906 5.88529 0.582022 0
M  V30 1172 H 105.836 0.718387 0.22899 0
M  V30 1173 H 108.487 1.82978 -0.138276 0
M  V30 1174 H 106.869 3.46459 1.91787 0
M  V30 1175 H 108.043 4.55029 -0.726978 0
M  V30 1176 H 106.358 4.13384 -0.500243 0
M  V30 1177 H 108.955 4.88322 2.17821 0
M  V30 1178 H 109.298 3.23029 2.62599 0
M  V30 1179 H 109.831 3.83958 1.04024 0
M  V30 1180 H 106.57 6.55065 -0.238721 0
M  V30 1181 H 106.09 5.85004 1.324 0
M  V30 1182 H 107.769 6.38258 1.05999 0
M  V30 1183 N 107.901 -0.206675 1.56239 0
M  V30 1184 C 109.15 -0.926964 1.79138 0
M  V30 1185 C 109.463 -1.84901 0.638043 0
M  V30 1186 O 110.669 -2.60906 0.751033 0
M  V30 1187 C 109.125 -1.6986 3.17294 0
M  V30 1188 C 108.733 -0.821956 4.40395 0
M  V30 1189 C 110.477 -2.40922 3.4951 0
M  V30 1190 C 108.384 -1.59179 5.69575 0
M  V30 1191 H 107.314 -0.349864 0.667915 0
M  V30 1192 H 109.965 -0.180487 1.8261 0
M  V30 1193 H 108.347 -2.48853 3.08039 0
M  V30 1194 H 109.521 -0.0715019 4.60745 0
M  V30 1195 H 107.836 -0.222741 4.15804 0
M  V30 1196 H 110.433 -2.99047 4.43255 0
M  V30 1197 H 110.776 -3.14542 2.72707 0
M  V30 1198 H 111.309 -1.68905 3.60161 0
M  V30 1199 H 108.048 -0.898589 6.49312 0
M  V30 1200 H 107.568 -2.31648 5.53262 0
M  V30 1201 H 109.247 -2.14862 6.10281 0
M  V30 1202 N 109.379 -1.50304 -0.473955 0
M  V30 1203 C 110.619 -1.62786 -1.23612 0
M  V30 1204 C 110.983 -0.319786 -1.89318 0
M  V30 1205 O 112.184 -0.320012 -2.66888 0
M  V30 1206 C 110.455 -2.77351 -2.25414 0
M  V30 1207 S 112.014 -3.09948 -3.10608 0
M  V30 1208 H 108.832 -0.573895 -0.419721 0
M  V30 1209 H 111.434 -1.88076 -0.533623 0
M  V30 1210 H 110.138 -3.70879 -1.75719 0
M  V30 1211 H 109.669 -2.54137 -3.00296 0
M  V30 1212 H 111.684 -2.53553 -4.26527 0
M  V30 1213 N 110.857 0.726932 -1.39834 0
M  V30 1214 C 112.085 1.51613 -1.40787 0
M  V30 1215 C 112.5 1.88799 -0.00451505 0
M  V30 1216 O 111.857 1.54662 0.968809 0
M  V30 1217 C 111.908 2.79863 -2.28821 0
M  V30 1218 O 111.629 2.44253 -3.63692 0
M  V30 1219 C 113.13 3.73837 -2.38245 0
M  V30 1220 H 110.35 0.468264 -0.480593 0
M  V30 1221 H 112.894 0.897607 -1.83748 0
M  V30 1222 H 111.049 3.38027 -1.89252 0
M  V30 1223 H 111.463 3.26695 -4.1033 0
M  V30 1224 H 112.937 4.60699 -3.04073 0
M  V30 1225 H 113.414 4.16153 -1.40403 0
M  V30 1226 H 114.02 3.21589 -2.78317 0
M  V30 1227 N 112.336 1.25143 0.95797 0
M  V30 1228 C 113.564 1.12424 1.73691 0
M  V30 1229 C 113.979 -0.322304 1.86029 0
M  V30 1230 O 113.336 -1.22186 1.35561 0
M  V30 1231 C 113.387 1.76933 3.15241 0
M  V30 1232 O 113.108 3.15932 3.03511 0
M  V30 1233 C 114.609 1.6995 4.09429 0
M  V30 1234 H 111.829 0.3923 0.544373 0
M  V30 1235 H 114.373 1.6544 1.20207 0
M  V30 1236 H 112.528 1.27895 3.6568 0
M  V30 1237 H 112.942 3.47598 3.9278 0
M  V30 1238 H 114.416 2.19753 5.06372 0
M  V30 1239 H 114.893 0.662619 4.34173 0
M  V30 1240 H 115.499 2.18461 3.64904 0
M  V30 1241 N 113.814 -1.1601 1.06675 0
M  V30 1242 C 114.777 -2.18724 0.685001 0
M  V30 1243 C 115.777 -1.58496 -0.271246 0
M  V30 1244 O 116.967 -1.74119 -0.0531156 0
M  V30 1245 C 114.099 -3.40899 0.00853648 0
M  V30 1246 H 115.292 -2.54011 1.59431 0
M  V30 1247 H 112.845 -1.30352 0.862441 0
M  V30 1248 H 113.58 -3.11173 -0.913337 0
M  V30 1249 H 113.365 -3.8587 0.696204 0
M  V30 1250 H 114.855 -4.16886 -0.24414 0
M  V30 1251 N 115.292 -0.849877 -1.32721 0
M  V30 1252 C 116.538 -0.451591 -1.97708 0
M  V30 1253 C 116.871 0.989175 -1.6712 0
M  V30 1254 O 116.146 1.69334 -0.956891 0
M  V30 1255 C 116.429 -0.685598 -3.53513 0
M  V30 1256 C 116.282 -2.17444 -3.93749 0
M  V30 1257 C 117.601 -0.138874 -4.39881 0
M  V30 1258 H 114.72 -0.16555 -0.718166 0
M  V30 1259 H 117.362 -1.06742 -1.57182 0
M  V30 1260 H 115.512 -0.161416 -3.88165 0
M  V30 1261 H 117.184 -2.76433 -3.693 0
M  V30 1262 H 115.427 -2.65476 -3.43081 0
M  V30 1263 H 116.098 -2.28888 -5.02309 0
M  V30 1264 H 118.574 -0.587068 -4.11938 0
M  V30 1265 H 117.45 -0.332213 -5.47894 0
M  V30 1266 H 117.711 0.95806 -4.31594 0
M  V30 1267 N 116.77 1.45427 -0.607355 0
M  V30 1268 C 118.181 1.85756 -0.187535 0
M  V30 1269 C 118.532 1.5077 1.25551 0
M  V30 1270 O 117.657 0.93427 1.95193 0
M  V30 1271 C 118.252 3.37154 -0.333572 0
M  V30 1272 C 116.811 3.76387 0.0315542 0
M  V30 1273 C 115.958 2.69377 -0.658117 0
M  V30 1274 H 118.909 1.36231 -0.81405 0
M  V30 1275 H 118.93 3.78014 0.43428 0
M  V30 1276 H 118.442 3.62586 -1.38393 0
M  V30 1277 H 116.543 3.56571 1.0811 0
M  V30 1278 H 116.656 4.77731 -0.361935 0
M  V30 1279 H 115.02 2.5452 -0.0957873 0
M  V30 1280 H 115.803 2.97646 -1.7106 0
M  V30 1281 N 118.248 0.346503 1.53744 0
M  V30 1282 C 119.494 -0.242135 2.01954 0
M  V30 1283 C 119.849 -1.47962 1.22984 0
M  V30 1284 O 119.142 -1.89077 0.309924 0
M  V30 1285 C 119.336 -0.605809 3.52228 0
M  V30 1286 C 119.165 0.594882 4.45748 0
M  V30 1287 C 117.935 1.1011 4.93157 0
M  V30 1288 C 120.133 1.45425 4.93311 0
M  V30 1289 N 118.115 2.26381 5.70636 0
M  V30 1290 C 119.486 2.46383 5.68942 0
M  V30 1291 C 121.541 1.47935 4.75415 0
M  V30 1292 C 120.244 3.49684 6.28581 0
M  V30 1293 C 122.27 2.50119 5.35905 0
M  V30 1294 C 121.632 3.49803 6.11406 0
M  V30 1295 H 117.731 -0.0518296 0.780281 0
M  V30 1296 H 120.315 0.486736 1.88518 0
M  V30 1297 H 118.486 -1.30378 3.65864 0
M  V30 1298 H 120.218 -1.17789 3.87179 0
M  V30 1299 H 116.973 0.668721 4.68855 0
M  V30 1300 H 117.397 2.85094 6.14044 0
M  V30 1301 H 122.039 0.722274 4.16585 0
M  V30 1302 H 119.757 4.26285 6.86518 0
M  V30 1303 H 123.343 2.52892 5.23963 0
M  V30 1304 H 122.223 4.27576 6.5738 0
M  V30 1305 N 119.726 -1.57421 0.075193 0
M  V30 1306 C 120.674 -2.14124 -0.908508 0
M  V30 1307 C 121.668 -1.07898 -1.30592 0
M  V30 1308 O 122.874 -1.26273 -1.28277 0
M  V30 1309 H 119.249 -0.684707 -0.310935 0
M  V30 1310 H 121.22 -2.95634 -0.405374 0
M  V30 1311 C 119.969 -2.72044 -2.16535 0
M  V30 1312 H 119.292 -3.53456 -1.86839 0
M  V30 1313 H 120.732 -3.15311 -2.83469 0
M  V30 1314 C 119.191 -1.66968 -2.92615 0
M  V30 1315 O 119.721 -1.0967 -3.86439 0
M  V30 1316 N 117.927 -1.37923 -2.55784 0
M  V30 1317 H 117.474 -1.84706 -1.79559 0
M  V30 1318 H 117.432 -0.67852 -3.06991 0
M  V30 1319 N 121.204 0.198386 -1.56346 0
M  V30 1320 C 122.432 0.935572 -1.84539 0
M  V30 1321 C 122.847 1.76989 -0.657281 0
M  V30 1322 O 122.204 1.78626 0.374043 0
M  V30 1323 C 122.255 1.8344 -3.11499 0
M  V30 1324 O 121.976 1.03377 -4.25728 0
M  V30 1325 C 123.477 2.68355 -3.52846 0
M  V30 1326 H 120.697 0.273126 -0.612897 0
M  V30 1327 H 123.241 0.20663 -2.03453 0
M  V30 1328 H 121.396 2.51701 -2.94492 0
M  V30 1329 H 121.81 1.64599 -4.98003 0
M  V30 1330 H 123.284 3.27085 -4.44657 0
M  V30 1331 H 123.761 3.41901 -2.75681 0
M  V30 1332 H 124.367 2.05471 -3.72373 0
M  V30 1333 N 122.682 1.50554 0.465978 0
M  V30 1334 C 123.907 1.65838 1.24549 0
M  V30 1335 C 124.332 0.343486 1.84937 0
M  V30 1336 O 123.69 -0.69324 1.67523 0
M  V30 1337 C 123.738 2.75533 2.32624 0
M  V30 1338 O 122.842 2.37142 3.37398 0
M  V30 1339 H 122.183 0.553893 0.366194 0
M  V30 1340 H 124.713 1.96959 0.553927 0
M  V30 1341 H 124.723 2.98763 2.77857 0
M  V30 1342 H 123.398 3.70962 1.88043 0
M  V30 1343 H 121.975 2.24377 2.97841 0
M  V30 1344 N 124.16 -0.719506 1.40217 0
M  V30 1345 C 125.406 -1.48034 1.39491 0
M  V30 1346 C 125.761 -1.92399 -0.00443536 0
M  V30 1347 O 125.054 -1.64993 -0.974061 0
M  V30 1348 C 125.248 -2.72271 2.31524 0
M  V30 1349 C 125.077 -2.40055 3.80268 0
M  V30 1350 C 123.847 -2.31588 4.49105 0
M  V30 1351 C 126.045 -2.04581 4.71859 0
M  V30 1352 N 124.027 -1.92006 5.83101 0
M  V30 1353 C 125.398 -1.75568 5.94623 0
M  V30 1354 C 127.453 -1.91183 4.59732 0
M  V30 1355 C 126.156 -1.34505 7.06612 0
M  V30 1356 C 128.182 -1.51524 5.71659 0
M  V30 1357 C 127.544 -1.23406 6.93506 0
M  V30 1358 H 123.643 -0.539927 0.565688 0
M  V30 1359 H 126.227 -0.834764 1.75897 0
M  V30 1360 H 124.398 -3.34584 1.97251 0
M  V30 1361 H 126.13 -3.38584 2.21682 0
M  V30 1362 H 122.885 -2.49199 4.02737 0
M  V30 1363 H 123.309 -1.74764 6.54054 0
M  V30 1364 H 127.951 -2.11584 3.66049 0
M  V30 1365 H 125.669 -1.12846 8.00182 0
M  V30 1366 H 129.255 -1.41741 5.6427 0
M  V30 1367 H 128.135 -0.931788 7.78645 0
M  V30 1368 N 125.638 -1.25649 -0.95132 0
M  V30 1369 C 126.863 -1.13443 -1.73624 0
M  V30 1370 C 127.288 0.307565 -1.85568 0
M  V30 1371 O 126.646 1.22282 -1.33854 0
M  V30 1372 C 126.694 -1.79723 -3.12621 0
M  V30 1373 O 125.798 -1.07912 -3.98031 0
M  V30 1374 H 125.139 -0.395872 -0.533086 0
M  V30 1375 H 127.669 -1.66276 -1.1922 0
M  V30 1376 H 127.679 -1.86141 -3.63064 0
M  V30 1377 H 126.354 -2.84633 -3.03244 0
M  V30 1378 H 124.931 -1.09398 -3.56492 0
M  V30 1379 N 127.117 1.15442 -1.07289 0
M  V30 1380 C 128.065 2.22225 -0.686952 0
M  V30 1381 C 129.059 1.66688 0.30193 0
M  V30 1382 O 130.265 1.79236 0.165712 0
M  V30 1383 H 126.64 0.723783 -0.204064 0
M  V30 1384 H 128.611 2.52056 -1.5972 0
M  V30 1385 C 127.36 3.47556 -0.100149 0
M  V30 1386 H 126.683 3.90612 -0.852211 0
M  V30 1387 H 128.123 4.23794 0.132235 0
M  V30 1388 C 126.582 3.16337 1.159 0
M  V30 1389 O 127.112 3.33074 2.24555 0
M  V30 1390 N 125.318 2.70385 1.06491 0
M  V30 1391 H 124.865 2.56966 0.180668 0
M  V30 1392 H 124.823 2.49871 1.90819 0
M  V30 1393 N 128.595 0.856903 1.32268 0
M  V30 1394 C 129.542 0.301172 2.28827 0
M  V30 1395 C 130.512 -0.593104 1.5515 0
M  V30 1396 O 131.697 -0.527537 1.83362 0
M  V30 1397 C 128.837 -0.502523 3.41422 0
M  V30 1398 C 127.95 0.417797 4.29975 0
M  V30 1399 C 127.085 -0.398749 5.29701 0
M  V30 1400 C 126.124 0.518827 6.09897 0
M  V30 1401 N 125.261 -0.260674 7.01616 0
M  V30 1402 H 130.101 1.12983 2.75751 0
M  V30 1403 H 127.638 0.568582 1.35667 0
M  V30 1404 H 129.596 -0.984141 4.05426 0
M  V30 1405 H 128.226 -1.29599 2.95642 0
M  V30 1406 H 127.278 1.01781 3.66531 0
M  V30 1407 H 128.59 1.12191 4.86019 0
M  V30 1408 H 127.744 -0.943435 5.9932 0
M  V30 1409 H 126.483 -1.13622 4.7428 0
M  V30 1410 H 125.488 1.07538 5.39181 0
M  V30 1411 H 126.713 1.25495 6.67404 0
M  V30 1412 H 124.659 -0.981198 6.4862 0
M  V30 1413 H 124.576 0.384364 7.55022 0
M  V30 1414 H 125.844 -0.787014 7.75517 0
M  V30 1415 N 130.073 -1.45103 0.615059 0
M  V30 1416 C 131.298 -2.07064 0.117988 0
M  V30 1417 C 131.723 -1.4554 -1.19163 0
M  V30 1418 O 131.081 -0.550855 -1.72729 0
M  V30 1419 C 131.129 -3.606 -0.000288387 0
M  V30 1420 O 130.233 -3.98847 -1.04856 0
M  V30 1421 H 129.574 -0.659467 0.0774581 0
M  V30 1422 H 132.104 -1.86236 0.847186 0
M  V30 1423 H 132.114 -4.07529 -0.196091 0
M  V30 1424 H 130.789 -4.04765 0.955932 0
M  V30 1425 H 129.366 -3.63577 -0.828619 0
M  V30 1426 N 131.551 -0.354651 -1.53558 0
M  V30 1427 C 132.481 0.489091 -2.2832 0
M  V30 1428 C 133.462 1.09324 -1.30316 0
M  V30 1429 O 134.647 1.11255 -1.59173 0
M  V30 1430 C 131.777 1.63456 -3.0643 0
M  V30 1431 C 130.731 1.1582 -4.12031 0
M  V30 1432 C 130.057 2.39305 -4.7816 0
M  V30 1433 C 131.357 0.250731 -5.21698 0
M  V30 1434 H 133.051 -0.134614 -2.99097 0
M  V30 1435 H 130.597 -0.0661826 -1.43848 0
M  V30 1436 H 132.55 2.23136 -3.57475 0
M  V30 1437 H 131.274 2.28533 -2.33325 0
M  V30 1438 H 129.933 0.584146 -3.61916 0
M  V30 1439 H 129.581 3.02814 -4.01637 0
M  V30 1440 H 129.281 2.08109 -5.49513 0
M  V30 1441 H 130.805 2.99691 -5.31994 0
M  V30 1442 H 132.219 0.754695 -5.68311 0
M  V30 1443 H 130.616 0.0301468 -6.00092 0
M  V30 1444 H 131.686 -0.710125 -4.79672 0
M  V30 1445 N 133.029 1.57378 -0.0835403 0
M  V30 1446 C 133.939 2.16897 0.894021 0
M  V30 1447 C 134.955 1.13528 1.31861 0
M  V30 1448 O 136.131 1.45848 1.3889 0
M  V30 1449 C 133.196 2.72831 2.13925 0
M  V30 1450 C 132.257 3.91115 1.76997 0
M  V30 1451 C 131.49 4.44371 2.95584 0
M  V30 1452 O 131.713 3.96596 4.09961 0
M  V30 1453 O 130.647 5.35549 2.74719 0
M  V30 1454 H 134.473 3.00814 0.417679 0
M  V30 1455 H 132.058 1.48741 0.140181 0
M  V30 1456 H 133.94 3.0863 2.86924 0
M  V30 1457 H 132.615 1.91967 2.60635 0
M  V30 1458 H 131.522 3.60148 1.01214 0
M  V30 1459 H 132.855 4.73307 1.3506 0
M  V30 1460 N 134.507 -0.190092 1.56449 0
M  V30 1461 C 135.784 -0.935886 1.71757 0
M  V30 1462 C 136.164 -2.01173 0.639726 0
M  V30 1463 O 135.512 -2.25827 -0.348502 0
M  V30 1464 C 135.722 -1.51775 3.1427 0
M  V30 1465 C 137.07 -1.99794 3.74656 0
M  V30 1466 O 138.094 -1.61607 3.1743 0
M  V30 1467 O 136.953 -2.70079 4.751 0
M  V30 1468 H 134.047 -0.439229 0.700719 0
M  V30 1469 H 136.593 -0.179395 1.68749 0
M  V30 1470 H 135.365 -0.742505 3.84191 0
M  V30 1471 H 134.988 -2.33894 3.21527 0
M  V30 1472 N 135.985 -1.50799 -0.457987 0
M  V30 1473 C 137.234 -1.6168 -1.20593 0
M  V30 1474 C 137.547 -0.32888 -1.92815 0
M  V30 1475 O 138.753 -0.316773 -2.69646 0
M  V30 1476 C 137.209 -2.8545 -2.19195 0
M  V30 1477 C 136.817 -4.21168 -1.52715 0
M  V30 1478 C 138.561 -3.05681 -2.94549 0
M  V30 1479 C 136.468 -5.3611 -2.4968 0
M  V30 1480 H 135.398 -0.602134 -0.453818 0
M  V30 1481 H 138.049 -1.77245 -0.475031 0
M  V30 1482 H 136.431 -2.63472 -2.95632 0
M  V30 1483 H 137.605 -4.53449 -0.819775 0
M  V30 1484 H 135.92 -4.06648 -0.895922 0
M  V30 1485 H 138.517 -3.88727 -3.67145 0
M  V30 1486 H 138.86 -2.17929 -3.54701 0
M  V30 1487 H 139.393 -3.27901 -2.25223 0
M  V30 1488 H 136.132 -6.26057 -1.94249 0
M  V30 1489 H 135.652 -5.0823 -3.18532 0
M  V30 1490 H 137.331 -5.6722 -3.11241 0
M  V30 1491 N 137.463 0.71206 -1.40597 0
M  V30 1492 C 138.709 1.47292 -1.40274 0
M  V30 1493 C 139.064 1.92399 -0.00576812 0
M  V30 1494 O 138.357 1.65507 0.965297 0
M  V30 1495 C 138.551 2.71039 -2.32965 0
M  V30 1496 C 138.38 2.38035 -3.81536 0
M  V30 1497 C 137.15 2.29203 -4.50327 0
M  V30 1498 C 139.348 2.02076 -4.72938 0
M  V30 1499 N 137.33 1.88911 -5.84111 0
M  V30 1500 C 138.701 1.72412 -5.95545 0
M  V30 1501 C 140.756 1.88742 -4.60739 0
M  V30 1502 C 139.459 1.30756 -7.07316 0
M  V30 1503 C 141.485 1.4849 -5.72455 0
M  V30 1504 C 140.847 1.19726 -6.94151 0
M  V30 1505 H 136.946 0.536919 -0.568544 0
M  V30 1506 H 139.53 0.825424 -1.76337 0
M  V30 1507 H 137.701 3.33533 -1.99023 0
M  V30 1508 H 139.433 3.37404 -2.23474 0
M  V30 1509 H 136.188 2.47059 -4.04053 0
M  V30 1510 H 136.612 1.71293 -6.54972 0
M  V30 1511 H 141.254 2.0964 -3.67166 0
M  V30 1512 H 138.972 1.08601 -8.00769 0
M  V30 1513 H 142.558 1.38747 -5.65014 0
M  V30 1514 H 141.438 0.890482 -7.79128 0
M  V30 1515 N 138.941 1.26152 0.944643 0
M  V30 1516 C 139.889 1.07215 2.06417 0
M  V30 1517 C 140.883 9.2007e-05 1.694 0
M  V30 1518 O 142.089 0.1565 1.79318 0
M  V30 1519 H 138.464 0.329837 0.675805 0
M  V30 1520 H 140.435 2.02099 2.19541 0
M  V30 1521 C 139.184 0.718197 3.40202 0
M  V30 1522 H 138.507 1.53497 3.69159 0
M  V30 1523 H 139.947 0.625459 4.19361 0
M  V30 1524 C 138.406 -0.576435 3.31932 0
M  V30 1525 O 138.936 -1.61574 3.67773 0
M  V30 1526 N 137.142 -0.565781 2.85039 0
M  V30 1527 H 136.689 0.280367 2.5607 0
M  V30 1528 H 136.647 -1.43213 2.79888 0
M  V30 1529 N 140.419 -1.14872 1.07899 0
M  V30 1530 C 141.366 -2.19791 0.704319 0
M  V30 1531 C 142.336 -1.63238 -0.306987 0
M  V30 1532 O 143.521 -1.8983 -0.192171 0
M  V30 1533 C 140.661 -3.44911 0.114244 0
M  V30 1534 C 139.774 -4.15637 1.1777 0
M  V30 1535 C 138.909 -5.28324 0.552037 0
M  V30 1536 C 137.948 -5.90875 1.59789 0
M  V30 1537 N 137.085 -6.95022 0.994404 0
M  V30 1538 H 141.925 -2.5119 1.60336 0
M  V30 1539 H 139.462 -1.23356 0.801352 0
M  V30 1540 H 141.42 -4.16477 -0.245544 0
M  V30 1541 H 140.05 -3.14011 -0.74813 0
M  V30 1542 H 139.102 -3.42512 1.65499 0
M  V30 1543 H 140.414 -4.5823 1.97046 0
M  V30 1544 H 139.568 -6.06538 0.1402 0
M  V30 1545 H 138.307 -4.86939 -0.272431 0
M  V30 1546 H 137.312 -5.11369 2.01945 0
M  V30 1547 H 138.537 -6.34337 2.42474 0
M  V30 1548 H 136.483 -6.55722 0.190939 0
M  V30 1549 H 136.4 -7.36073 1.72432 0
M  V30 1550 H 137.668 -7.77123 0.608253 0
M  V30 1551 N 141.898 -0.863906 -1.31812 0
M  V30 1552 C 143.126 -0.486111 -2.01108 0
M  V30 1553 C 143.541 0.919755 -1.64882 0
M  V30 1554 O 142.898 1.60162 -0.874893 0
M  V30 1555 C 142.949 -0.626435 -3.56031 0
M  V30 1556 O 142.67 -1.97693 -3.90959 0
M  V30 1557 C 144.171 -0.248857 -4.42601 0
M  V30 1558 H 141.391 -0.190052 -0.643523 0
M  V30 1559 H 143.935 -1.1634 -1.68182 0
M  V30 1560 H 142.09 0.00322717 -3.874 0
M  V30 1561 H 142.504 -1.98034 -4.85678 0
M  V30 1562 H 143.978 -0.398016 -5.50563 0
M  V30 1563 H 144.455 0.811489 -4.31638 0
M  V30 1564 H 145.061 -0.853971 -4.16638 0
M  V30 1565 N 143.376 1.44774 -0.622745 0
M  V30 1566 C 144.604 2.06487 -0.130722 0
M  V30 1567 C 145.019 1.46476 1.19123 0
M  V30 1568 O 144.376 0.584502 1.72887 0
M  V30 1569 C 144.427 3.615 -0.000807207 0
M  V30 1570 O 144.148 4.19274 -1.27048 0
M  V30 1571 C 145.649 4.40229 0.520898 0
M  V30 1572 H 142.869 0.666704 -0.0758106 0
M  V30 1573 H 145.413 1.85779 -0.854774 0
M  V30 1574 H 143.568 3.81498 0.673643 0
M  V30 1575 H 143.982 5.12622 -1.1099 0
M  V30 1576 H 145.456 5.49144 0.560838 0
M  V30 1577 H 145.933 4.1108 1.54627 0
M  V30 1578 H 146.539 4.25131 -0.120018 0
M  V30 1579 N 144.854 0.36279 1.53368 0
M  V30 1580 C 146.1 -0.220702 2.02199 0
M  V30 1581 C 146.455 -1.46649 1.24546 0
M  V30 1582 O 145.748 -1.88737 0.32996 0
M  V30 1583 C 145.942 -0.568417 3.52851 0
M  V30 1584 C 145.771 0.642126 4.45092 0
M  V30 1585 C 144.541 1.15335 4.91961 0
M  V30 1586 C 146.739 1.50649 4.91741 0
M  V30 1587 N 144.721 2.3242 5.68202 0
M  V30 1588 C 146.092 2.52404 5.66297 0
M  V30 1589 C 148.147 1.52969 4.73819 0
M  V30 1590 C 146.85 3.56331 6.24836 0
M  V30 1591 C 148.876 2.55789 5.33222 0
M  V30 1592 C 148.238 3.56268 6.07662 0
M  V30 1593 H 144.337 -0.0435508 0.780786 0
M  V30 1594 H 146.921 0.506704 1.87991 0
M  V30 1595 H 145.092 -1.2649 3.67226 0
M  V30 1596 H 146.824 -1.13676 3.88407 0
M  V30 1597 H 143.579 0.718412 4.68119 0
M  V30 1598 H 144.003 2.91591 6.10986 0
M  V30 1599 H 148.645 0.766418 4.15795 0
M  V30 1600 H 146.363 4.33543 6.81958 0
M  V30 1601 H 149.949 2.58435 5.21251 0
M  V30 1602 H 148.829 4.34524 6.52808 0
M  V30 1603 N 146.332 -1.57332 0.0918853 0
M  V30 1604 C 147.265 -2.09499 -0.904735 0
M  V30 1605 C 148.243 -1.00479 -1.27839 0
M  V30 1606 O 149.427 -1.27954 -1.38419 0
M  V30 1607 C 146.554 -2.56931 -2.2069 0
M  V30 1608 C 145.6 -3.77579 -1.98334 0
M  V30 1609 S 146.433 -5.21317 -1.22428 0
M  V30 1610 C 147.589 -5.72097 -2.53882 0
M  V30 1611 H 147.822 -2.93705 -0.460922 0
M  V30 1612 H 145.355 -1.53923 -0.121332 0
M  V30 1613 H 147.313 -2.84917 -2.95521 0
M  V30 1614 H 145.974 -1.72956 -2.62192 0
M  V30 1615 H 145.167 -4.08824 -2.94752 0
M  V30 1616 H 144.769 -3.5007 -1.31633 0
M  V30 1617 H 147.061 -5.80168 -3.49874 0
M  V30 1618 H 148.004 -6.70654 -2.27219 0
M  V30 1619 H 148.412 -5.00012 -2.62007 0
M  V30 1620 N 147.81 0.181792 -1.56548 0
M  V30 1621 C 148.758 1.24461 -1.965 0
M  V30 1622 C 149.752 1.464 -0.852261 0
M  V30 1623 O 150.958 1.47103 -1.03733 0
M  V30 1624 H 147.333 0.418138 -0.625031 0
M  V30 1625 H 149.304 0.880714 -2.85107 0
M  V30 1626 C 148.053 2.57891 -2.33212 0
M  V30 1627 H 147.376 2.41829 -3.18369 0
M  V30 1628 H 148.816 3.3097 -2.65019 0
M  V30 1629 C 147.275 3.15871 -1.17163 0
M  V30 1630 O 147.805 3.9913 -0.453708 0
M  V30 1631 N 146.011 2.74808 -0.944936 0
M  V30 1632 H 145.558 2.07205 -1.53049 0
M  V30 1633 H 145.516 3.13939 -0.170286 0
M  V30 1634 N 149.288 1.51039 0.449983 0
M  V30 1635 C 150.534 1.64287 1.19923 0
M  V30 1636 C 150.889 0.348701 1.89214 0
M  V30 1637 O 150.182 -0.654751 1.80065 0
M  V30 1638 C 150.376 2.77556 2.25161 0
M  V30 1639 C 150.205 4.17862 1.66198 0
M  V30 1640 C 148.975 4.83976 1.45243 0
M  V30 1641 C 151.173 5.01388 1.14519 0
M  V30 1642 N 149.155 6.08433 0.817437 0
M  V30 1643 C 150.526 6.16743 0.634705 0
M  V30 1644 C 152.581 4.87008 1.03574 0
M  V30 1645 C 151.284 7.19295 0.0255452 0
M  V30 1646 C 153.31 5.89757 0.440489 0
M  V30 1647 C 152.672 7.04375 -0.0595112 0
M  V30 1648 H 148.771 0.655161 0.426952 0
M  V30 1649 H 151.355 1.88228 0.49781 0
M  V30 1650 H 149.526 2.553 2.92706 0
M  V30 1651 H 151.258 2.80049 2.92155 0
M  V30 1652 H 148.013 4.41627 1.71063 0
M  V30 1653 H 148.437 6.75017 0.517747 0
M  V30 1654 H 153.079 3.9866 1.4082 0
M  V30 1655 H 150.797 8.07302 -0.359071 0
M  V30 1656 H 154.383 5.80698 0.35788 0
M  V30 1657 H 153.263 7.82521 -0.512882 0
M  V30 1658 N 150.766 -0.704594 1.40972 0
M  V30 1659 C 151.676 -1.84856 1.44448 0
M  V30 1660 C 152.692 -1.70726 0.335961 0
M  V30 1661 O 153.868 -1.92799 0.582276 0
M  V30 1662 C 150.933 -3.20758 1.31587 0
M  V30 1663 C 149.994 -3.47063 2.52677 0
M  V30 1664 C 149.227 -4.76481 2.4042 0
M  V30 1665 O 149.45 -5.52341 1.42391 0
M  V30 1666 O 148.384 -5.03367 3.30007 0
M  V30 1667 H 152.21 -1.8488 2.40942 0
M  V30 1668 H 149.795 -0.85647 1.22413 0
M  V30 1669 H 151.677 -4.01913 1.26665 0
M  V30 1670 H 150.352 -3.21438 0.382049 0
M  V30 1671 H 149.259 -2.65873 2.63177 0
M  V30 1672 H 150.592 -3.5119 3.44858 0
M  V30 1673 N 152.244 -1.26651 -0.937939 0
M  V30 1674 C 153.66 -1.03834 -1.21205 0
M  V30 1675 C 153.86 0.234502 -2.00131 0
M  V30 1676 O 152.916 0.942767 -2.3424 0
M  V30 1677 C 154.229 -2.27167 -1.97017 0
M  V30 1678 C 155.777 -2.32101 -2.09996 0
M  V30 1679 C 156.252 -3.55136 -2.8921 0
M  V30 1680 N 157.743 -3.55632 -2.96783 0
M  V30 1681 C 158.478 -4.475 -3.58512 0
M  V30 1682 N 157.974 -5.4966 -4.21717 0
M  V30 1683 N 159.767 -4.35145 -3.55816 0
M  V30 1684 H 151.918 -2.08398 -0.410391 0
M  V30 1685 H 154.181 -0.916031 -0.244114 0
M  V30 1686 H 153.887 -3.19765 -1.46434 0
M  V30 1687 H 153.761 -2.31672 -2.97671 0
M  V30 1688 H 156.148 -1.40015 -2.59769 0
M  V30 1689 H 156.229 -2.31605 -1.08594 0
M  V30 1690 H 155.873 -4.47553 -2.40123 0
M  V30 1691 H 155.803 -3.5288 -3.90875 0
M  V30 1692 H 158.294 -2.81743 -2.51852 0
M  V30 1693 H 158.607 -6.15943 -4.66727 0
M  V30 1694 H 156.952 -5.53514 -4.20294 0
M  V30 1695 H 160.143 -3.5455 -3.05634 0
M  V30 1696 H 160.316 -5.06934 -4.03636 0
M  V30 1697 N 153.722 1.14298 -1.08507 0
M  V30 1698 C 154.632 2.23027 -0.727753 0
M  V30 1699 C 155.648 1.71952 0.26619 0
M  V30 1700 O 156.824 2.011 0.109882 0
M  V30 1701 C 153.889 3.46403 -0.143541 0
M  V30 1702 C 152.95 4.12413 -1.19223 0
M  V30 1703 C 152.183 5.29899 -0.635798 0
M  V30 1704 O 152.406 5.67796 0.544393 0
M  V30 1705 O 151.34 5.85717 -1.38634 0
M  V30 1706 H 155.166 2.55945 -1.63481 0
M  V30 1707 H 152.751 1.22248 -0.858817 0
M  V30 1708 H 154.633 4.21018 0.179404 0
M  V30 1709 H 153.308 3.15206 0.736659 0
M  V30 1710 H 152.215 3.39667 -1.56772 0
M  V30 1711 H 153.548 4.47718 -2.04474 0
M  V30 1712 N 155.201 0.870884 1.31352 0
M  V30 1713 C 156.45 0.478408 1.95944 0
M  V30 1714 C 156.763 -0.974493 1.69597 0
M  V30 1715 O 157.969 -1.47316 2.28058 0
M  V30 1716 C 156.425 0.804609 3.50791 0
M  V30 1717 C 156.033 2.27433 3.85977 0
M  V30 1718 C 157.777 0.480648 4.2177 0
M  V30 1719 C 155.684 2.5429 5.33939 0
M  V30 1720 H 154.614 0.175175 0.733369 0
M  V30 1721 H 157.265 1.06391 1.4951 0
M  V30 1722 H 155.647 0.148347 3.95722 0
M  V30 1723 H 156.821 2.97373 3.52002 0
M  V30 1724 H 155.136 2.56442 3.28065 0
M  V30 1725 H 157.733 0.658519 5.30629 0
M  V30 1726 H 158.076 -0.578979 4.12254 0
M  V30 1727 H 158.609 1.09349 3.82476 0
M  V30 1728 H 155.348 3.58939 5.48491 0
M  V30 1729 H 154.868 1.88945 5.69263 0
M  V30 1730 H 156.547 2.39066 6.01212 0
M  V30 1731 N 156.679 -1.44442 0.630414 0
M  V30 1732 C 157.589 -2.34476 -0.0761693 0
M  V30 1733 C 158.605 -1.52576 -0.836449 0
M  V30 1734 O 159.781 -1.85307 -0.788874 0
M  V30 1735 C 156.846 -3.30545 -1.04599 0
M  V30 1736 C 155.907 -4.28352 -0.28516 0
M  V30 1737 C 155.14 -5.19831 -1.20878 0
M  V30 1738 O 155.363 -5.15223 -2.44747 0
M  V30 1739 O 154.297 -5.97892 -0.693491 0
M  V30 1740 H 158.123 -2.96345 0.664324 0
M  V30 1741 H 155.708 -1.44203 0.39061 0
M  V30 1742 H 157.59 -3.89681 -1.60396 0
M  V30 1743 H 156.265 -2.7121 -1.76711 0
M  V30 1744 H 155.172 -3.72764 0.315837 0
M  V30 1745 H 156.505 -4.90605 0.395924 0
M  V30 1746 N 158.157 -0.370918 -1.53173 0
M  V30 1747 C 159.105 0.488101 -2.27421 0
M  V30 1748 C 160.099 1.07884 -1.30604 0
M  V30 1749 O 161.305 1.02143 -1.48212 0
M  V30 1750 H 157.68 0.176134 -0.731082 0
M  V30 1751 H 159.651 -0.159815 -2.97972 0
M  V30 1752 C 158.4 1.61306 -3.08019 0
M  V30 1753 H 157.723 1.1678 -3.82364 0
M  V30 1754 H 159.163 2.18872 -3.63141 0
M  V30 1755 C 157.622 2.55848 -2.19188 0
M  V30 1756 O 158.152 3.58799 -1.80626 0
M  V30 1757 N 156.358 2.2516 -1.83715 0
M  V30 1758 H 155.905 1.41476 -2.15273 0
M  V30 1759 H 155.863 2.8867 -1.24567 0
M  V30 1760 N 159.635 1.57281 -0.100228 0
M  V30 1761 C 160.865 1.98591 0.569681 0
M  V30 1762 C 161.273 0.978315 1.61943 0
M  V30 1763 O 160.616 -0.0396108 1.83657 0
M  V30 1764 C 160.678 3.36282 1.271 0
M  V30 1765 C 160.342 4.55488 0.371409 0
M  V30 1766 C 161.339 5.18491 -0.382504 0
M  V30 1767 C 159.024 5.01474 0.287965 0
M  V30 1768 C 161.018 6.25852 -1.20779 0
M  V30 1769 C 158.705 6.08701 -0.540965 0
M  V30 1770 C 159.703 6.70755 -1.28749 0
M  V30 1771 O 159.391 7.75914 -2.10269 0
M  V30 1772 H 159.123 0.65752 0.156982 0
M  V30 1773 H 161.677 2.0463 -0.177734 0
M  V30 1774 H 159.907 3.26941 2.0651 0
M  V30 1775 H 161.596 3.62005 1.83595 0
M  V30 1776 H 162.362 4.83891 -0.3278 0
M  V30 1777 H 158.241 4.52932 0.858689 0
M  V30 1778 H 161.785 6.74218 -1.79096 0
M  V30 1779 H 157.682 6.42732 -0.597131 0
M  V30 1780 H 158.45 7.92925 -2.03007 0
M  V30 1781 N 161.113 -0.173488 1.56642 0
M  V30 1782 C 162.341 -0.906095 1.86004 0
M  V30 1783 C 162.756 -1.75921 0.685355 0
M  V30 1784 O 162.113 -1.79198 -0.345578 0
M  V30 1785 C 162.164 -1.78462 3.14378 0
M  V30 1786 O 161.885 -0.965914 4.27319 0
M  V30 1787 C 163.386 -2.62707 3.57071 0
M  V30 1788 H 160.606 -0.263341 0.617165 0
M  V30 1789 H 163.15 -0.174236 2.03756 0
M  V30 1790 H 161.305 -2.46984 2.98459 0
M  V30 1791 H 161.719 -1.56655 5.00559 0
M  V30 1792 H 163.193 -3.19969 4.49804 0
M  V30 1793 H 163.67 -3.37472 2.81086 0
M  V30 1794 H 164.276 -1.99521 3.75595 0
M  V30 1795 N 162.591 -1.51276 -0.441967 0
M  V30 1796 C 163.816 -1.67799 -1.21895 0
M  V30 1797 C 164.241 -0.372864 -1.84367 0
M  V30 1798 O 163.599 0.666501 -1.68604 0
M  V30 1799 C 163.647 -2.79199 -2.28211 0
M  V30 1800 O 162.751 -2.42479 -3.33583 0
M  V30 1801 H 162.092 -0.559649 -0.357336 0
M  V30 1802 H 164.622 -1.97815 -0.522522 0
M  V30 1803 H 164.632 -3.03146 -2.73069 0
M  V30 1804 H 163.307 -3.73906 -1.82118 0
M  V30 1805 H 161.884 -2.29087 -2.94234 0
M  V30 1806 N 164.069 0.697108 -1.41344 0
M  V30 1807 C 164.999 1.82353 -1.45841 0
M  V30 1808 C 165.98 1.67115 -0.317247 0
M  V30 1809 O 167.165 1.86871 -0.528474 0
M  V30 1810 C 164.295 3.20476 -1.33838 0
M  V30 1811 C 163.249 3.50415 -2.4575 0
M  V30 1812 C 162.575 4.87878 -2.18813 0
M  V30 1813 C 163.875 3.49546 -3.88091 0
M  V30 1814 H 165.569 1.78846 -2.40113 0
M  V30 1815 H 163.115 0.859028 -1.15571 0
M  V30 1816 H 165.068 3.98988 -1.35596 0
M  V30 1817 H 163.792 3.24604 -0.360498 0
M  V30 1818 H 162.451 2.74253 -2.43271 0
M  V30 1819 H 162.099 4.8863 -1.19371 0
M  V30 1820 H 161.799 5.08875 -2.93803 0
M  V30 1821 H 163.323 5.68702 -2.22284 0
M  V30 1822 H 164.737 4.18066 -3.92293 0
M  V30 1823 H 163.134 3.82075 -4.62751 0
M  V30 1824 H 164.204 2.48552 -4.16353 0
M  V30 1825 N 165.547 1.27147 0.931209 0
M  V30 1826 C 166.796 1.12664 1.67302 0
M  V30 1827 C 167.109 -0.327718 1.92835 0
M  V30 1828 O 168.315 -0.593392 2.64936 0
M  V30 1829 C 166.771 1.9683 3.01307 0
M  V30 1830 C 166.379 3.46901 2.83485 0
M  V30 1831 C 168.123 1.90985 3.79111 0
M  V30 1832 C 166.03 4.23279 4.13024 0
M  V30 1833 H 164.96 0.41803 0.627509 0
M  V30 1834 H 167.611 1.51539 1.03481 0
M  V30 1835 H 165.993 1.50797 3.66164 0
M  V30 1836 H 167.167 4.00773 2.27415 0
M  V30 1837 H 165.482 3.54088 2.19113 0
M  V30 1838 H 168.079 2.45328 4.75098 0
M  V30 1839 H 168.422 0.882718 4.06834 0
M  V30 1840 H 168.955 2.34895 3.21044 0
M  V30 1841 H 165.694 5.26503 3.90481 0
M  V30 1842 H 165.214 3.74186 4.6877 0
M  V30 1843 H 166.893 4.32265 4.81411 0
M  V30 1844 N 167.025 -1.13721 1.09112 0
M  V30 1845 C 168.255 -1.88499 0.845671 0
M  V30 1846 C 168.663 -1.79218 -0.606432 0
M  V30 1847 O 168.006 -1.1544 -1.42896 0
M  V30 1848 C 168.068 -3.38954 1.19793 0
M  V30 1849 C 167.732 -3.72018 2.65428 0
M  V30 1850 C 168.729 -3.7153 3.63677 0
M  V30 1851 C 166.414 -4.01775 3.01467 0
M  V30 1852 C 168.408 -4.00336 4.95994 0
M  V30 1853 C 166.095 -4.30243 4.33975 0
M  V30 1854 C 167.093 -4.29508 5.31048 0
M  V30 1855 O 166.781 -4.5728 6.61173 0
M  V30 1856 H 166.513 -0.603702 0.304171 0
M  V30 1857 H 169.067 -1.44903 1.45576 0
M  V30 1858 H 167.297 -3.83039 0.530871 0
M  V30 1859 H 168.986 -3.95052 0.932146 0
M  V30 1860 H 169.752 -3.4862 3.37179 0
M  V30 1861 H 165.631 -4.01496 2.26544 0
M  V30 1862 H 169.175 -3.99678 5.71755 0
M  V30 1863 H 165.072 -4.52625 4.60219 0
M  V30 1864 H 165.84 -4.74964 6.66597 0
M  V30 1865 N 168.503 -0.877838 -1.30888 0
M  V30 1866 C 169.731 -0.507414 -2.00581 0
M  V30 1867 C 170.146 0.902216 -1.65848 0
M  V30 1868 O 169.503 1.59225 -0.891831 0
M  V30 1869 C 169.554 -0.664162 -3.55347 0
M  V30 1870 O 169.275 -2.01829 -3.8884 0
M  V30 1871 C 170.776 -0.295787 -4.42312 0
M  V30 1872 H 167.996 -0.196866 -0.641471 0
M  V30 1873 H 170.54 -1.18117 -1.66939 0
M  V30 1874 H 168.695 -0.0378619 -3.87381 0
M  V30 1875 H 169.109 -2.03174 -4.8355 0
M  V30 1876 H 170.583 -0.456388 -5.5011 0
M  V30 1877 H 171.06 0.765663 -4.32475 0
M  V30 1878 H 171.666 -0.898113 -4.15709 0
M  V30 1879 N 169.982 1.44106 -0.638065 0
M  V30 1880 C 170.912 2.33448 0.0494287 0
M  V30 1881 C 171.893 1.48606 0.827672 0
M  V30 1882 O 173.078 1.77308 0.792173 0
M  V30 1883 C 170.208 3.31771 1.02691 0
M  V30 1884 C 169.162 4.26485 0.359823 0
M  V30 1885 C 168.488 5.14729 1.44769 0
M  V30 1886 C 169.788 5.17056 -0.738296 0
M  V30 1887 H 171.482 2.91183 -0.696636 0
M  V30 1888 H 169.028 1.40014 -0.336456 0
M  V30 1889 H 170.981 3.93161 1.51666 0
M  V30 1890 H 169.705 2.7226 1.80395 0
M  V30 1891 H 168.364 3.66437 -0.10934 0
M  V30 1892 H 168.012 4.51566 2.21578 0
M  V30 1893 H 167.712 5.78913 1.00668 0
M  V30 1894 H 169.236 5.78991 1.93911 0
M  V30 1895 H 170.65 5.72342 -0.331354 0
M  V30 1896 H 169.047 5.89879 -1.10286 0
M  V30 1897 H 170.117 4.57652 -1.60258 0
M  V30 1898 N 171.46 0.379036 1.52974 0
M  V30 1899 C 172.39 -0.452706 2.29069 0
M  V30 1900 C 173.371 -1.07237 1.32039 0
M  V30 1901 O 174.556 -1.08708 1.60923 0
M  V30 1902 C 171.686 -1.5856 3.08992 0
M  V30 1903 C 170.64 -1.0925 4.13822 0
M  V30 1904 C 169.966 -2.31668 4.81907 0
M  V30 1905 C 171.266 -0.167702 5.22031 0
M  V30 1906 H 172.96 0.182181 2.98845 0
M  V30 1907 H 170.506 0.0890592 1.43724 0
M  V30 1908 H 172.459 -2.1742 3.6098 0
M  V30 1909 H 171.183 -2.24792 2.36931 0
M  V30 1910 H 169.842 -0.526494 3.628 0
M  V30 1911 H 169.49 -2.96386 4.06404 0
M  V30 1912 H 169.19 -1.9934 5.52754 0
M  V30 1913 H 170.714 -2.91189 5.36695 0
M  V30 1914 H 172.128 -0.664186 5.6944 0
M  V30 1915 H 170.525 0.0653265 6.00064 0
M  V30 1916 H 171.595 0.786347 4.78482 0
M  V30 1917 N 172.938 -1.57226 0.108567 0
M  V30 1918 C 173.848 -2.18292 -0.859401 0
M  V30 1919 C 174.864 -1.15612 -1.30038 0
M  V30 1920 O 176.04 -1.48039 -1.36552 0
M  V30 1921 C 173.105 -2.762 -2.09558 0
M  V30 1922 C 172.166 -3.93881 -1.70752 0
M  V30 1923 C 171.399 -4.49018 -2.88477 0
M  V30 1924 O 171.622 -4.03068 -4.036 0
M  V30 1925 O 170.556 -5.39852 -2.66164 0
M  V30 1926 H 174.382 -3.01441 -0.369769 0
M  V30 1927 H 171.967 -1.48945 -0.1165 0
M  V30 1928 H 173.849 -3.13156 -2.81978 0
M  V30 1929 H 172.524 -1.96089 -2.57548 0
M  V30 1930 H 171.431 -3.61713 -0.954714 0
M  V30 1931 H 172.764 -4.75396 -1.27513 0
M  V30 1932 N 174.416 0.165178 -1.56732 0
M  V30 1933 C 175.348 1.22911 -1.93457 0
M  V30 1934 C 176.361 1.40152 -0.828333 0
M  V30 1935 O 177.55 1.40046 -1.10677 0
M  V30 1936 C 174.65 2.59686 -2.17753 0
M  V30 1937 C 173.823 2.63663 -3.48999 0
M  V30 1938 C 172.882 3.81845 -3.62051 0
M  V30 1939 O 171.908 3.67559 -4.34613 0
M  V30 1940 N 173.11 4.98557 -2.97357 0
M  V30 1941 H 175.875 0.917118 -2.85323 0
M  V30 1942 H 173.436 0.354895 -1.57962 0
M  V30 1943 H 175.428 3.37225 -2.23743 0
M  V30 1944 H 173.998 2.83251 -1.32242 0
M  V30 1945 H 173.218 1.72173 -3.54612 0
M  V30 1946 H 174.506 2.63336 -4.35352 0
M  V30 1947 H 173.904 5.13065 -2.38287 0
M  V30 1948 H 172.461 5.73936 -3.08934 0
M  V30 1949 N 175.894 1.51508 0.433938 0
M  V30 1950 C 177.119 1.68443 1.21003 0
M  V30 1951 C 177.544 0.382636 1.84167 0
M  V30 1952 O 176.902 -0.65755 1.68956 0
M  V30 1953 C 176.95 2.80405 2.26727 0
M  V30 1954 O 176.054 2.44245 3.32292 0
M  V30 1955 H 175.395 0.561536 0.354363 0
M  V30 1956 H 177.925 1.9809 0.512024 0
M  V30 1957 H 177.935 3.0459 2.71457 0
M  V30 1958 H 176.61 3.74867 1.80132 0
M  V30 1959 H 175.187 2.30644 2.93015 0
M  V30 1960 N 177.372 -0.689602 1.41712 0
M  V30 1961 C 178.322 -1.79571 1.40493 0
M  V30 1962 C 179.306 -1.58473 0.278409 0
M  V30 1963 O 180.498 -1.69204 0.519532 0
M  V30 1964 C 177.627 -3.17923 1.29536 0
M  V30 1965 C 176.713 -3.44695 2.47075 0
M  V30 1966 N 177.104 -3.42132 3.72531 0
M  V30 1967 C 175.402 -3.75269 2.41017 0
M  V30 1968 C 176.103 -3.67976 4.50521 0
M  V30 1969 N 175.079 -3.88014 3.80718 0
M  V30 1970 H 178.881 -1.75961 2.35404 0
M  V30 1971 H 176.395 -0.889839 1.35851 0
M  V30 1972 H 178.392 -3.97167 1.26745 0
M  V30 1973 H 177.052 -3.22741 0.356153 0
M  V30 1974 H 178.063 -3.22375 4.05333 0
M  V30 1975 H 174.74 -3.87421 1.55599 0
M  V30 1976 H 176.13 -3.7208 5.59469 0
M  V30 1977 N 178.85 -1.27639 -0.924453 0
M  V30 1978 C 180.127 -1.04887 -1.651 0
M  V30 1979 C 180.507 0.415327 -2.06974 0
M  V30 1980 O 179.855 1.39923 -1.80648 0
M  V30 1981 C 180.065 -2.01348 -2.85061 0
M  V30 1982 C 181.413 -2.30899 -3.56329 0
M  V30 1983 O 182.437 -1.99348 -2.95193 0
M  V30 1984 O 181.296 -2.84699 -4.66485 0
M  V30 1985 H 178.39 -0.400083 -0.723784 0
M  V30 1986 H 180.936 -1.38916 -0.974703 0
M  V30 1987 H 179.708 -3.0008 -2.51133 0
M  V30 1988 H 179.331 -1.679 -3.6041 0
M  V30 1989 N 180.328 1.1314 -1.09713 0
M  V30 1990 C 181.26 2.18343 -0.697056 0
M  V30 1991 C 182.273 1.60669 0.262551 0
M  V30 1992 O 183.462 1.78435 0.0481527 0
M  V30 1993 C 180.562 3.38899 -0.00684728 0
M  V30 1994 C 179.735 4.26078 -0.988741 0
M  V30 1995 C 178.794 5.25155 -0.331394 0
M  V30 1996 O 177.82 5.60701 -0.979926 0
M  V30 1997 N 179.022 5.73271 0.913261 0
M  V30 1998 H 181.787 2.5328 -1.60216 0
M  V30 1999 H 179.348 1.28491 -0.984971 0
M  V30 2000 H 181.34 4.02255 0.444191 0
M  V30 2001 H 179.91 3.02175 0.800551 0
M  V30 2002 H 179.13 3.59453 -1.61826 0
M  V30 2003 H 180.418 4.81178 -1.65364 0
M  V30 2004 H 179.816 5.46544 1.45966 0
M  V30 2005 H 178.373 6.3855 1.30757 0
M  V30 2006 N 181.806 0.884767 1.30421 0
M  V30 2007 C 182.738 0.308655 2.27112 0
M  V30 2008 C 183.751 -0.536655 1.53701 0
M  V30 2009 O 184.94 -0.35624 1.74909 0
M  V30 2010 C 182.04 -0.579782 3.33904 0
M  V30 2011 C 181.213 0.236417 4.36761 0
M  V30 2012 C 180.272 -0.582482 5.22966 0
M  V30 2013 O 179.298 -0.00525502 5.692 0
M  V30 2014 N 180.5 -1.89163 5.48815 0
M  V30 2015 H 183.265 1.13964 2.77186 0
M  V30 2016 H 180.826 0.747731 1.43599 0
M  V30 2017 H 182.818 -1.13366 3.88497 0
M  V30 2018 H 181.388 -1.31144 2.83761 0
M  V30 2019 H 180.608 0.97174 3.82035 0
M  V30 2020 H 181.896 0.795924 5.02536 0
M  V30 2021 H 181.294 -2.38352 5.13035 0
M  V30 2022 H 179.851 -2.39296 6.06284 0
M  V30 2023 N 183.284 -1.43765 0.645699 0
M  V30 2024 C 184.194 -2.34544 -0.0512957 0
M  V30 2025 C 185.21 -1.53455 -0.82022 0
M  V30 2026 O 186.386 -1.86133 -0.769176 0
M  V30 2027 C 183.451 -3.31636 -1.01087 0
M  V30 2028 C 182.512 -4.2863 -0.239712 0
M  V30 2029 C 181.745 -5.21084 -1.15358 0
M  V30 2030 O 181.968 -5.1779 -2.39269 0
M  V30 2031 O 180.902 -5.98593 -0.630038 0
M  V30 2032 H 184.728 -2.95624 0.695718 0
M  V30 2033 H 182.313 -1.43781 0.405882 0
M  V30 2034 H 184.195 -3.9136 -1.56254 0
M  V30 2035 H 182.87 -2.73069 -1.73824 0
M  V30 2036 H 181.777 -3.72408 0.355356 0
M  V30 2037 H 183.11 -4.90157 0.447936 0
M  V30 2038 N 184.763 -0.387143 -1.52771 0
M  V30 2039 C 185.71 0.449048 -2.26389 0
M  V30 2040 C 186.68 1.05961 -1.27912 0
M  V30 2041 O 187.865 1.08804 -1.56737 0
M  V30 2042 C 185.005 1.57155 -3.0724 0
M  V30 2043 C 184.118 0.984066 -4.20643 0
M  V30 2044 C 183.253 2.07745 -4.88892 0
M  V30 2045 C 182.292 1.46574 -5.94292 0
M  V30 2046 N 181.429 2.49834 -6.56146 0
M  V30 2047 H 186.269 -0.185205 -2.97424 0
M  V30 2048 H 183.806 -0.103164 -1.46738 0
M  V30 2049 H 185.764 2.23309 -3.52405 0
M  V30 2050 H 184.394 2.17615 -2.38419 0
M  V30 2051 H 183.446 0.212193 -3.79808 0
M  V30 2052 H 184.758 0.497029 -4.96318 0
M  V30 2053 H 183.912 2.81673 -5.3735 0
M  V30 2054 H 182.651 2.59807 -4.12737 0
M  V30 2055 H 181.656 0.711696 -5.45174 0
M  V30 2056 H 182.881 0.953088 -6.72379 0
M  V30 2057 H 180.827 3.0107 -5.82832 0
M  V30 2058 H 180.744 2.05879 -7.27427 0
M  V30 2059 H 182.012 3.23399 -7.09249 0
M  V30 2060 N 186.241 1.57166 -0.116904 0
M  V30 2061 C 187.189 2.16457 0.851418 0
M  V30 2062 C 188.183 1.11323 1.27686 0
M  V30 2063 O 189.389 1.2963 1.24884 0
M  V30 2064 H 185.764 0.69271 0.292672 0
M  V30 2065 H 187.735 2.96605 0.32685 0
M  V30 2066 C 186.484 2.77689 2.09246 0
M  V30 2067 H 185.807 3.58285 1.77402 0
M  V30 2068 H 187.247 3.22716 2.7501 0
M  V30 2069 C 185.706 1.74667 2.88085 0
M  V30 2070 O 186.236 1.19877 3.83396 0
M  V30 2071 N 184.442 1.44656 2.52038 0
M  V30 2072 H 183.989 1.89402 1.74599 0
M  V30 2073 H 183.947 0.759675 3.05084 0
M  V30 2074 N 187.719 -0.156864 1.56817 0
M  V30 2075 C 188.629 -1.2136 2.00771 0
M  V30 2076 C 189.645 -1.47598 0.921459 0
M  V30 2077 O 190.821 -1.59462 1.2302 0
M  V30 2078 C 187.886 -2.52943 2.37109 0
M  V30 2079 C 186.947 -2.34439 3.59634 0
M  V30 2080 C 186.18 -3.59748 3.94229 0
M  V30 2081 O 186.403 -4.65526 3.29609 0
M  V30 2082 O 185.337 -3.52998 4.8752 0
M  V30 2083 H 189.163 -0.870468 2.90958 0
M  V30 2084 H 186.748 -0.36484 1.44877 0
M  V30 2085 H 188.63 -3.30538 2.61386 0
M  V30 2086 H 187.305 -2.86806 1.5008 0
M  V30 2087 H 186.212 -1.54828 3.40557 0
M  V30 2088 H 187.545 -2.05496 4.4725 0
M  V30 2089 N 189.197 -1.51736 -0.425897 0
M  V30 2090 C 190.129 -1.70083 -1.53638 0
M  V30 2091 C 191.142 -0.581349 -1.52066 0
M  V30 2092 O 192.331 -0.856017 -1.56635 0
M  V30 2093 C 189.431 -1.71078 -2.9255 0
M  V30 2094 C 188.604 -2.99795 -3.185 0
M  V30 2095 C 187.663 -2.92825 -4.37196 0
M  V30 2096 O 186.689 -3.66756 -4.35291 0
M  V30 2097 N 187.891 -2.0946 -5.41393 0
M  V30 2098 H 190.656 -2.65882 -1.383 0
M  V30 2099 H 188.217 -1.49765 -0.614988 0
M  V30 2100 H 190.209 -1.63969 -3.69995 0
M  V30 2101 H 188.779 -0.828242 -3.01428 0
M  V30 2102 H 187.999 -3.20684 -2.2925 0
M  V30 2103 H 189.287 -3.84977 -3.32671 0
M  V30 2104 H 188.685 -1.48792 -5.45781 0
M  V30 2105 H 187.242 -2.08221 -6.17647 0
M  V30 2106 N 190.675 0.682077 -1.42076 0
M  V30 2107 C 191.585 1.82535 -1.47371 0
M  V30 2108 C 192.601 1.7017 -0.363079 0
M  V30 2109 O 193.777 1.91848 -0.612875 0
M  V30 2110 C 190.842 3.18624 -1.36674 0
M  V30 2111 C 189.903 3.42999 -2.58167 0
M  V30 2112 C 189.136 4.72595 -2.4797 0
M  V30 2113 O 189.359 5.50006 -1.5116 0
M  V30 2114 O 188.293 4.98054 -3.37974 0
M  V30 2115 H 192.119 1.81023 -2.43853 0
M  V30 2116 H 189.704 0.836887 -1.2376 0
M  V30 2117 H 191.586 3.99847 -1.33043 0
M  V30 2118 H 190.261 3.20789 -0.433138 0
M  V30 2119 H 189.168 2.61653 -2.67373 0
M  V30 2120 H 190.501 3.45659 -3.50401 0
M  V30 2121 N 192.153 1.28127 0.917671 0
M  V30 2122 C 193.083 1.14248 2.03641 0
M  V30 2123 C 194.064 0.0412748 1.7005 0
M  V30 2124 O 195.249 0.217566 1.92977 0
M  V30 2125 C 192.379 0.799431 3.37974 0
M  V30 2126 C 191.333 1.85497 3.85713 0
M  V30 2127 C 190.659 1.36565 5.16966 0
M  V30 2128 C 191.959 3.26085 4.08002 0
M  V30 2129 H 193.653 2.07835 2.15511 0
M  V30 2130 H 191.199 1.00064 1.03553 0
M  V30 2131 H 193.152 0.689114 4.15727 0
M  V30 2132 H 191.876 -0.172145 3.26146 0
M  V30 2133 H 190.535 1.95437 3.10161 0
M  V30 2134 H 190.183 0.383253 5.01538 0
M  V30 2135 H 189.883 2.07143 5.49878 0
M  V30 2136 H 191.407 1.26848 5.97279 0
M  V30 2137 H 192.821 3.19089 4.76293 0
M  V30 2138 H 191.218 3.94462 4.52238 0
M  V30 2139 H 192.288 3.70394 3.12948 0
M  V30 2140 N 193.631 -1.12557 1.10312 0
M  V30 2141 C 194.561 -2.20341 0.772798 0
M  V30 2142 C 195.542 -1.68198 -0.25365 0
M  V30 2143 O 196.727 -1.93831 -0.119699 0
M  V30 2144 C 193.857 -3.46709 0.202443 0
M  V30 2145 C 192.811 -4.11996 1.15943 0
M  V30 2146 C 192.137 -5.328 0.450345 0
M  V30 2147 C 193.437 -4.5828 2.50552 0
M  V30 2148 H 195.131 -2.48229 1.674 0
M  V30 2149 H 192.677 -1.19308 0.806326 0
M  V30 2150 H 194.63 -4.2138 -0.0407752 0
M  V30 2151 H 193.354 -3.18245 -0.734001 0
M  V30 2152 H 192.013 -3.39305 1.38808 0
M  V30 2153 H 191.661 -5.00602 -0.490531 0
M  V30 2154 H 191.361 -5.7743 1.08851 0
M  V30 2155 H 192.885 -6.10219 0.215642 0
M  V30 2156 H 194.299 -5.2433 2.31843 0
M  V30 2157 H 192.696 -5.13683 3.10242 0
M  V30 2158 H 193.766 -3.72329 3.10643 0
M  V30 2159 N 195.109 -0.891671 -1.2995 0
M  V30 2160 C 196.072 -0.36828 -2.26222 0
M  V30 2161 C 197.072 0.493014 -1.53056 0
M  V30 2162 O 198.262 0.299213 -1.71611 0
M  V30 2163 C 195.394 0.47442 -3.37583 0
M  V30 2164 H 196.587 -1.21844 -2.74033 0
M  V30 2165 H 194.14 -0.669107 -1.41254 0
M  V30 2166 H 194.875 1.34489 -2.95099 0
M  V30 2167 H 194.66 -0.142615 -3.91841 0
M  V30 2168 H 196.15 0.83218 -4.09224 0
M  V30 2169 N 196.587 1.43421 -0.653314 0
M  V30 2170 C 197.517 2.33487 0.0246656 0
M  V30 2171 C 198.498 1.49475 0.811863 0
M  V30 2172 O 199.683 1.78139 0.773322 0
M  V30 2173 C 196.813 3.32841 0.99166 0
M  V30 2174 C 195.767 4.26842 0.314568 0
M  V30 2175 C 195.093 5.16236 1.39302 0
M  V30 2176 C 196.393 5.16243 -0.793095 0
M  V30 2177 H 198.087 2.90427 -0.727481 0
M  V30 2178 H 195.633 1.39649 -0.351287 0
M  V30 2179 H 197.586 3.94747 1.47487 0
M  V30 2180 H 196.31 2.74158 1.77497 0
M  V30 2181 H 194.969 3.663 -0.148199 0
M  V30 2182 H 194.617 4.53891 2.16776 0
M  V30 2183 H 194.317 5.79948 0.945223 0
M  V30 2184 H 195.841 5.81015 1.87759 0
M  V30 2185 H 197.255 5.71958 -0.392039 0
M  V30 2186 H 195.652 5.88676 -1.16536 0
M  V30 2187 H 196.722 4.55927 -1.65103 0
M  V30 2188 N 198.065 0.39524 1.52563 0
M  V30 2189 C 199.342 -0.242908 1.94086 0
M  V30 2190 C 199.722 -1.63841 1.33114 0
M  V30 2191 O 199.07 -2.22928 0.501529 0
M  V30 2192 C 199.28 -0.26327 3.48006 0
M  V30 2193 C 200.628 -0.489354 4.21771 0
M  V30 2194 O 201.652 -0.343226 3.54543 0
M  V30 2195 O 200.511 -0.776169 5.4096 0
M  V30 2196 H 197.605 -0.152536 0.812811 0
M  V30 2197 H 200.151 0.450178 1.6362 0
M  V30 2198 H 198.923 0.713985 3.84731 0
M  V30 2199 H 198.546 -1.00103 3.84792 0
M  V30 2200 N 199.544 -1.57102 0.125237 0
M  V30 2201 C 200.491 -2.15641 -0.822655 0
M  V30 2202 C 201.461 -1.08313 -1.25927 0
M  V30 2203 O 202.646 -1.36251 -1.33567 0
M  V30 2204 C 199.786 -2.76504 -2.06494 0
M  V30 2205 C 198.899 -3.98158 -1.67612 0
M  V30 2206 C 198.034 -4.47088 -2.86854 0
M  V30 2207 C 197.073 -5.6126 -2.44242 0
M  V30 2208 N 196.21 -6.04905 -3.56419 0
M  V30 2209 H 201.05 -2.96313 -0.316625 0
M  V30 2210 H 198.587 -1.46388 -0.144588 0
M  V30 2211 H 200.545 -3.09925 -2.79289 0
M  V30 2212 H 199.175 -1.98512 -2.54545 0
M  V30 2213 H 198.227 -3.70858 -0.846661 0
M  V30 2214 H 199.539 -4.80934 -1.32301 0
M  V30 2215 H 198.693 -4.82451 -3.67867 0
M  V30 2216 H 197.432 -3.63275 -3.25396 0
M  V30 2217 H 196.437 -5.25495 -1.61663 0
M  V30 2218 H 197.662 -6.46843 -2.0681 0
M  V30 2219 H 195.608 -5.24032 -3.94623 0
M  V30 2220 H 195.525 -6.82552 -3.25051 0
M  V30 2221 H 196.793 -6.44907 -4.37853 0
M  V30 2222 N 201.022 0.148545 -1.56898 0
M  V30 2223 C 202.268 0.857877 -1.84424 0
M  V30 2224 C 202.623 1.7886 -0.709006 0
M  V30 2225 O 201.916 1.89344 0.293139 0
M  V30 2226 C 202.11 1.67064 -3.1595 0
M  V30 2227 C 201.939 0.82011 -4.42159 0
M  V30 2228 C 200.709 0.486328 -5.02954 0
M  V30 2229 C 202.907 0.151155 -5.14078 0
M  V30 2230 N 200.889 -0.377956 -6.12735 0
M  V30 2231 C 202.26 -0.573333 -6.17343 0
M  V30 2232 C 204.315 0.0716685 -4.97848 0
M  V30 2233 C 203.018 -1.3698 -7.06137 0
M  V30 2234 C 205.044 -0.711532 -5.87104 0
M  V30 2235 C 204.406 -1.42431 -6.8985 0
M  V30 2236 H 200.505 0.291798 -0.725519 0
M  V30 2237 H 203.089 0.123347 -1.94309 0
M  V30 2238 H 201.26 2.37642 -3.07215 0
M  V30 2239 H 202.992 2.32302 -3.31388 0
M  V30 2240 H 199.747 0.821753 -4.66416 0
M  V30 2241 H 200.171 -0.801077 -6.72244 0
M  V30 2242 H 204.813 0.608381 -4.184 0
M  V30 2243 H 202.531 -1.91778 -7.85014 0
M  V30 2244 H 206.117 -0.775005 -5.76615 0
M  V30 2245 H 204.997 -2.02061 -7.57721 0
M  V30 2246 N 202.5 1.5196 0.417844 0
M  V30 2247 C 203.463 1.74065 1.49111 0
M  V30 2248 C 204.463 0.610537 1.48758 0
M  V30 2249 O 205.653 0.87832 1.50437 0
M  V30 2250 C 202.785 1.81502 2.88565 0
M  V30 2251 H 203.978 2.69869 1.30807 0
M  V30 2252 H 201.531 1.42244 0.647785 0
M  V30 2253 H 202.266 0.875813 3.1225 0
M  V30 2254 H 202.051 2.63651 2.90225 0
M  V30 2255 H 203.541 2.00376 3.66387 0
M  V30 2256 N 203.978 -0.674533 1.42435 0
M  V30 2257 C 204.926 -1.80934 1.46169 0
M  V30 2258 C 205.92 -1.66006 0.3374 0
M  V30 2259 O 207.126 -1.72611 0.510425 0
M  V30 2260 H 203.501 -0.596594 0.457798 0
M  V30 2261 H 205.472 -1.74903 2.41767 0
M  V30 2262 C 204.221 -3.19088 1.38123 0
M  V30 2263 H 203.544 -3.31203 2.23931 0
M  V30 2264 H 204.984 -3.9851 1.44797 0
M  V30 2265 C 203.443 -3.36763 0.0960517 0
M  V30 2266 O 203.973 -3.92581 -0.851073 0
M  V30 2267 N 202.179 -2.90597 0.0131186 0
M  V30 2268 H 201.726 -2.45359 0.784639 0
M  V30 2269 H 201.684 -3.028 -0.846133 0
M  V30 2270 N 205.456 -1.28612 -0.910864 0
M  V30 2271 C 206.386 -1.15326 -2.03032 0
M  V30 2272 C 207.367 -0.0502924 -1.70026 0
M  V30 2273 O 208.552 -0.227797 -1.92859 0
M  V30 2274 C 205.682 -0.817343 -3.37545 0
M  V30 2275 C 204.636 -1.8754 -3.84724 0
M  V30 2276 C 203.962 -1.39305 -5.16235 0
M  V30 2277 C 205.262 -3.28244 -4.06267 0
M  V30 2278 H 206.956 -2.08975 -2.14406 0
M  V30 2279 H 204.502 -1.00612 -1.03021 0
M  V30 2280 H 206.455 -0.711151 -4.15356 0
M  V30 2281 H 205.179 0.154846 -3.26233 0
M  V30 2282 H 203.838 -1.97079 -3.09121 0
M  V30 2283 H 203.486 -0.409846 -5.01328 0
M  V30 2284 H 203.186 -2.10057 -5.48771 0
M  V30 2285 H 204.71 -1.30014 -5.96598 0
M  V30 2286 H 206.124 -3.21611 -4.74594 0
M  V30 2287 H 204.521 -3.96855 -4.5014 0
M  V30 2288 H 205.591 -3.72048 -3.10979 0
M  V30 2289 N 206.934 1.1197 -1.10907 0
M  V30 2290 C 208.18 1.84059 -0.865674 0
M  V30 2291 C 208.535 1.82731 0.602254 0
M  V30 2292 O 207.828 1.26543 1.43866 0
M  V30 2293 C 208.022 3.30749 -1.35425 0
M  V30 2294 C 207.851 3.46363 -2.86815 0
M  V30 2295 C 206.621 3.59712 -3.54874 0
M  V30 2296 C 208.819 3.41116 -3.84895 0
M  V30 2297 N 206.801 3.63741 -4.94536 0
M  V30 2298 C 208.172 3.51698 -5.10596 0
M  V30 2299 C 210.227 3.24612 -3.77533 0
M  V30 2300 C 208.93 3.4748 -6.29802 0
M  V30 2301 C 210.956 3.21708 -4.96244 0
M  V30 2302 C 210.318 3.32856 -6.20795 0
M  V30 2303 H 206.417 0.689015 -0.369841 0
M  V30 2304 H 209.001 1.34016 -1.41237 0
M  V30 2305 H 207.172 3.79322 -0.834814 0
M  V30 2306 H 208.904 3.90718 -1.05458 0
M  V30 2307 H 205.659 3.62038 -3.05329 0
M  V30 2308 H 206.083 3.69408 -5.67333 0
M  V30 2309 H 210.725 3.14883 -2.8215 0
M  V30 2310 H 208.443 3.55978 -7.25469 0
M  V30 2311 H 212.029 3.10113 -4.92261 0
M  V30 2312 H 210.909 3.3059 -7.11112 0
M  V30 2313 N 208.412 0.89855 1.29475 0
M  V30 2314 C 209.36 0.365253 2.29714 0
M  V30 2315 C 210.354 -0.534993 1.6073 0
M  V30 2316 O 211.56 -0.417921 1.75081 0
M  V30 2317 H 207.935 0.0994853 0.74539 0
M  V30 2318 H 209.906 1.22406 2.72138 0
M  V30 2319 C 208.655 -0.393159 3.4547 0
M  V30 2320 H 207.978 0.290332 3.98744 0
M  V30 2321 H 209.418 -0.731189 4.17648 0
M  V30 2322 C 207.877 -1.59539 2.9673 0
M  V30 2323 O 208.407 -2.69469 2.97908 0
M  V30 2324 N 206.613 -1.43716 2.52575 0
M  V30 2325 H 206.16 -0.542828 2.51816 0
M  V30 2326 H 206.118 -2.24288 2.20323 0
M  V30 2327 N 209.89 -1.43072 0.660911 0
M  V30 2328 C 211.136 -2.02545 0.186337 0
M  V30 2329 C 211.491 -1.51253 -1.18913 0
M  V30 2330 O 210.784 -0.699167 -1.78388 0
M  V30 2331 C 210.978 -3.57103 0.145563 0
M  V30 2332 C 210.807 -4.23393 1.51554 0
M  V30 2333 C 209.577 -4.59144 2.10984 0
M  V30 2334 C 211.775 -4.51897 2.45548 0
M  V30 2335 N 209.757 -5.10545 3.40907 0
M  V30 2336 C 211.128 -5.04698 3.6011 0
M  V30 2337 C 213.183 -4.33872 2.44253 0
M  V30 2338 C 211.886 -5.41371 4.73613 0
M  V30 2339 C 213.912 -4.71612 3.56842 0
M  V30 2340 C 213.274 -5.24553 4.70131 0
M  V30 2341 H 209.373 -0.773823 0.112792 0
M  V30 2342 H 211.957 -1.74137 0.870885 0
M  V30 2343 H 210.128 -3.85059 -0.508353 0
M  V30 2344 H 211.86 -4.03264 -0.340598 0
M  V30 2345 H 208.615 -4.4444 1.63615 0
M  V30 2346 H 209.039 -5.40689 4.07411 0
M  V30 2347 H 213.681 -3.92208 1.579 0
M  V30 2348 H 211.399 -5.81975 5.60652 0
M  V30 2349 H 214.985 -4.59354 3.57051 0
M  V30 2350 H 213.865 -5.53213 5.5581 0
M  V30 2351 O 211.407 -0.545482 -1.52009 0
M  V30 2352 H 212.098 -0.0397754 -1.93659 0
M  V30 END ATOM
M  V30 BEGIN BOND
M  V30 END BOND
M  V30 END CTAB
M  END
$$$$
