drugbank_target|Q47644 Orf protein (DB02379)
 OpenBabel12092120283D

  0  0  0     0  0            999 V3000
M  V30 BEGIN CTAB
M  V30 COUNTS 1357 1369 0 0 0
M  V30 BEGIN ATOM
M  V30 1 H -0.908 1.98254 -0.117106 0
M  V30 2 N 0 1.576 0 0
M  V30 3 C 0.933 2.03868 1.02534 0
M  V30 4 C 1.911 0.928543 1.3348 0
M  V30 5 O 3.095 1.19667 1.45644 0
M  V30 6 C 0.222 2.43627 2.35294 0
M  V30 7 C -0.732 3.65373 2.2001 0
M  V30 8 S 0.101 5.13292 1.52614 0
M  V30 9 C 1.257 5.56322 2.86805 0
M  V30 10 H 1.49 2.90518 0.631377 0
M  V30 11 H -0.977 1.52953 0.210867 0
M  V30 12 H 0.981 2.67203 3.11629 0
M  V30 13 H -0.358 1.57376 2.7183 0
M  V30 14 H -1.165 3.90944 3.18086 0
M  V30 15 H -1.563 3.418 1.51819 0
M  V30 16 H 0.729 5.58782 3.83104 0
M  V30 17 H 1.672 6.56266 2.65933 0
M  V30 18 H 2.08 4.83886 2.90714 0
M  V30 19 N 1.4781 -0.272755 1.55222 0
M  V30 20 C 2.4251 -1.33716 1.88119 0
M  V30 21 C 3.3951 -1.49066 0.73271 0
M  V30 22 O 4.5801 -1.63469 0.984002 0
M  V30 23 C 1.7201 -2.69238 2.15882 0
M  V30 24 C 0.8331 -2.62108 3.43399 0
M  V30 25 C -0.0319 -3.89811 3.60861 0
M  V30 26 C -0.9929 -3.77193 4.8207 0
M  V30 27 N -1.8559 -4.9673 4.96189 0
M  V30 28 H 2.9841 -1.04962 2.78903 0
M  V30 29 H 0.5211 -0.507088 1.38083 0
M  V30 30 H 2.4791 -3.48089 2.29978 0
M  V30 31 H 1.1091 -2.96194 1.28331 0
M  V30 32 H 0.1611 -1.74967 3.37773 0
M  V30 33 H 1.4731 -2.48685 4.32386 0
M  V30 34 H 0.6271 -4.77103 3.74777 0
M  V30 35 H -0.6339 -4.06102 2.7006 0
M  V30 36 H -1.6289 -2.88284 4.68159 0
M  V30 37 H -0.4039 -3.62421 5.74307 0
M  V30 38 H -2.4579 -5.13431 4.08319 0
M  V30 39 H -2.5409 -4.85839 5.79221 0
M  V30 40 H -1.2729 -5.85594 5.1449 0
M  V30 41 N 2.9562 -1.48159 -0.537278 0
M  V30 42 C 3.9032 -1.62138 -1.64256 0
M  V30 43 C 4.8732 -0.463668 -1.59497 0
M  V30 44 O 6.0582 -0.686241 -1.78032 0
M  V30 45 C 3.1982 -1.66028 -3.02537 0
M  V30 46 C 2.3112 -2.92855 -3.17585 0
M  V30 47 C 1.4462 -2.87952 -4.46382 0
M  V30 48 C 0.4852 -4.09516 -4.54932 0
M  V30 49 N -0.3778 -4.02733 -5.75109 0
M  V30 50 H 4.4622 -2.56529 -1.51647 0
M  V30 51 H 1.9992 -1.27224 -0.738414 0
M  V30 52 H 3.9572 -1.66265 -3.82638 0
M  V30 53 H 2.5872 -0.751331 -3.13934 0
M  V30 54 H 1.6392 -3.02395 -2.30784 0
M  V30 55 H 2.9512 -3.82822 -3.19764 0
M  V30 56 H 2.1052 -2.8655 -5.34765 0
M  V30 57 H 0.8442 -1.95702 -4.46712 0
M  V30 58 H -0.1508 -4.11201 -3.64957 0
M  V30 59 H 1.0742 -5.02917 -4.56346 0
M  V30 60 H -0.9798 -3.13299 -5.76351 0
M  V30 61 H -1.0628 -4.86397 -5.78752 0
M  V30 62 H 0.2052 -4.05379 -6.65799 0
M  V30 63 N 4.4343 0.785586 -1.36625 0
M  V30 64 C 5.3673 1.90509 -1.25625 0
M  V30 65 C 6.3453 1.62 -0.139607 0
M  V30 66 O 7.5293 1.8591 -0.31141 0
M  V30 67 C 4.6563 3.25419 -0.939158 0
M  V30 68 C 3.7023 3.72856 -2.07077 0
M  V30 69 S 4.5353 3.88162 -3.68904 0
M  V30 70 C 5.6913 5.25942 -3.39317 0
M  V30 71 H 5.9243 1.99549 -2.20381 0
M  V30 72 H 3.4573 0.945226 -1.22085 0
M  V30 73 H 5.4153 4.03346 -0.763029 0
M  V30 74 H 4.0763 3.14099 -0.00931402 0
M  V30 75 H 3.2693 4.70624 -1.80357 0
M  V30 76 H 2.8713 3.01989 -2.20632 0
M  V30 77 H 5.1633 6.10651 -2.93447 0
M  V30 78 H 6.1063 5.57668 -4.36363 0
M  V30 79 H 6.5143 4.93224 -2.74573 0
M  V30 80 N 5.9124 1.20967 1.01018 0
M  V30 81 C 7.1594 1.02374 1.74716 0
M  V30 82 C 7.4874 -0.443375 1.89379 0
M  V30 83 O 6.7424 -1.34535 1.42123 0
M  V30 84 C 7.0414 1.65997 3.16512 0
M  V30 85 C 6.7074 3.15831 3.2181 0
M  V30 86 C 5.3694 3.56719 3.22963 0
M  V30 87 C 7.7214 4.11816 3.19464 0
M  V30 88 C 5.0494 4.92107 3.19449 0
M  V30 89 C 7.4014 5.47158 3.17491 0
M  V30 90 C 6.0654 5.87451 3.16951 0
M  V30 91 H 5.3354 0.374614 0.639332 0
M  V30 92 H 7.9824 1.50485 1.18434 0
M  V30 93 H 6.2874 1.10166 3.75993 0
M  V30 94 H 7.9844 1.49119 3.72242 0
M  V30 95 H 4.5744 2.83263 3.21652 0
M  V30 96 H 8.7584 3.81257 3.17737 0
M  V30 97 H 4.0144 5.22579 3.17366 0
M  V30 98 H 8.1884 6.21274 3.14629 0
M  V30 99 H 5.8154 6.92329 3.13983 0
M  V30 100 N 7.3905 -1.2043 1.01659 0
M  V30 101 C 8.6395 -1.89118 0.701237 0
M  V30 102 C 8.9525 -1.79705 -0.772358 0
M  V30 103 O 10.1585 -2.43528 -1.20026 0
M  V30 104 C 8.6145 -3.39168 1.20388 0
M  V30 105 C 8.2225 -3.57166 2.70438 0
M  V30 106 C 9.9665 -4.1341 0.963953 0
M  V30 107 C 7.8735 -5.01042 3.14183 0
M  V30 108 H 6.8035 -0.708267 0.2586 0
M  V30 109 H 9.4545 -1.36239 1.22927 0
M  V30 110 H 7.8365 -3.91369 0.603824 0
M  V30 111 H 9.0105 -3.15351 3.35992 0
M  V30 112 H 7.3255 -2.96294 2.92572 0
M  V30 113 H 9.9225 -5.19491 1.26621 0
M  V30 114 H 10.2655 -4.16181 -0.099578 0
M  V30 115 H 10.7985 -3.67309 1.52738 0
M  V30 116 H 7.5375 -5.03426 4.19812 0
M  V30 117 H 7.0575 -5.43668 2.53348 0
M  V30 118 H 8.7365 -5.69623 3.0682 0
M  V30 119 N 8.8686 -0.792821 -1.36206 0
M  V30 120 C 9.8316 -0.199459 -2.2833 0
M  V30 121 C 10.8316 0.605189 -1.48977 0
M  V30 122 O 12.0216 0.425685 -1.68919 0
M  V30 123 C 9.1536 0.723523 -3.33134 0
M  V30 124 H 10.3466 -1.01181 -2.82316 0
M  V30 125 H 7.8996 -0.562485 -1.45828 0
M  V30 126 H 8.6346 1.56008 -2.84309 0
M  V30 127 H 8.4196 0.148436 -3.91819 0
M  V30 128 H 9.9096 1.13344 -4.01924 0
M  V30 129 N 10.3467 1.47872 -0.545128 0
M  V30 130 C 11.5927 2.02793 -0.0166104 0
M  V30 131 C 11.9257 1.41987 1.32489 0
M  V30 132 O 11.2007 0.571045 1.85928 0
M  V30 133 C 11.4837 3.59989 0.0893294 0
M  V30 134 C 11.3367 4.3125 -1.27841 0
M  V30 135 C 12.6557 4.32606 0.808724 0
M  V30 136 H 9.7747 0.736962 -0.00751035 0
M  V30 137 H 12.4167 1.76433 -0.705085 0
M  V30 138 H 10.5667 3.82579 0.675681 0
M  V30 139 H 12.2387 4.20035 -1.90704 0
M  V30 140 H 10.4817 3.92076 -1.85632 0
M  V30 141 H 11.1527 5.39736 -1.15713 0
M  V30 142 H 13.6287 4.14936 0.310992 0
M  V30 143 H 12.5047 5.42251 0.851782 0
M  V30 144 H 12.7657 4.00963 1.86229 0
M  V30 145 N 11.8248 0.280983 1.55075 0
M  V30 146 C 12.7548 -0.597469 2.25727 0
M  V30 147 C 13.7358 -1.15417 1.24952 0
M  V30 148 O 14.9208 -1.18722 1.53684 0
M  V30 149 C 12.0508 -1.7789 2.98283 0
M  V30 150 C 11.0048 -1.35347 4.06036 0
M  V30 151 C 10.3308 -2.61846 4.66198 0
M  V30 152 C 11.6308 -0.499354 5.19907 0
M  V30 153 H 13.3248 -0.00824265 2.99399 0
M  V30 154 H 10.8708 -0.0025244 1.44 0
M  V30 155 H 12.8238 -2.39937 3.46422 0
M  V30 156 H 11.5478 -2.39405 2.22155 0
M  V30 157 H 10.2068 -0.756156 3.58717 0
M  V30 158 H 9.8548 -3.21632 3.86732 0
M  V30 159 H 9.5548 -2.3409 5.38958 0
M  V30 160 H 11.0788 -3.24732 5.1709 0
M  V30 161 H 12.4928 -1.02498 5.64063 0
M  V30 162 H 10.8898 -0.316424 5.99265 0
M  V30 163 H 11.9598 0.480459 4.82514 0
M  V30 164 N 13.3029 -1.57598 0.00835791 0
M  V30 165 C 14.5499 -1.90928 -0.674732 0
M  V30 166 C 14.8779 -0.88277 -1.73313 0
M  V30 167 O 14.1329 0.111294 -1.95383 0
M  V30 168 C 14.4319 -3.3101 -1.34787 0
M  V30 169 C 14.0979 -4.48922 -0.421861 0
M  V30 170 C 12.7599 -4.8091 -0.166927 0
M  V30 171 C 15.1119 -5.20755 0.215211 0
M  V30 172 C 12.4399 -5.821 0.733232 0
M  V30 173 C 14.7919 -6.22905 1.1033 0
M  V30 174 C 13.4559 -6.53346 1.36733 0
M  V30 175 H 12.7259 -0.698656 -0.246902 0
M  V30 176 H 15.3729 -1.91387 0.0656779 0
M  V30 177 H 13.6779 -3.26714 -2.16253 0
M  V30 178 H 15.3749 -3.54061 -1.8826 0
M  V30 179 H 11.9649 -4.23934 -0.630729 0
M  V30 180 H 16.1489 -4.9629 0.0312829 0
M  V30 181 H 11.4049 -6.04042 0.945712 0
M  V30 182 H 15.5789 -6.77694 1.60325 0
M  V30 183 H 13.2059 -7.31573 2.06652 0
M  V30 184 N 14.781 0.264519 -1.55364 0
M  V30 185 C 15.744 1.31046 -1.88042 0
M  V30 186 C 16.744 1.41943 -0.755569 0
M  V30 187 O 17.934 1.40947 -1.02369 0
M  V30 188 C 15.066 2.69067 -2.09323 0
M  V30 189 H 16.259 1.03297 -2.81549 0
M  V30 190 H 13.812 0.502989 -1.47986 0
M  V30 191 H 14.547 3.01982 -1.18226 0
M  V30 192 H 14.332 2.62542 -2.91229 0
M  V30 193 H 15.822 3.44623 -2.35848 0
M  V30 194 N 16.2591 1.48442 0.529413 0
M  V30 195 C 17.1891 1.65902 1.64313 0
M  V30 196 C 18.1701 0.507897 1.6234 0
M  V30 197 O 19.3551 0.740503 1.79528 0
M  V30 198 C 16.4851 1.69911 3.02898 0
M  V30 199 C 15.4391 2.8453 3.19729 0
M  V30 200 C 14.7651 2.73629 4.59381 0
M  V30 201 C 16.0651 4.25821 3.02447 0
M  V30 202 H 17.7591 2.5914 1.49955 0
M  V30 203 H 15.3051 1.24709 0.719982 0
M  V30 204 H 17.2581 1.80715 3.80684 0
M  V30 205 H 15.9821 0.732524 3.18279 0
M  V30 206 H 14.6411 2.73283 2.44361 0
M  V30 207 H 14.2891 1.74938 4.71599 0
M  V30 208 H 13.9891 3.50541 4.71588 0
M  V30 209 H 15.5131 2.86401 5.39265 0
M  V30 210 H 16.9271 4.37898 3.70024 0
M  V30 211 H 15.3241 5.03735 3.26146 0
M  V30 212 H 16.3941 4.42244 1.98867 0
M  V30 213 N 17.7372 -0.778329 1.37039 0
M  V30 214 C 18.9832 -1.53892 1.32079 0
M  V30 215 C 19.3162 -1.9396 -0.0965386 0
M  V30 216 O 18.5912 -1.63568 -1.05242 0
M  V30 217 C 18.8742 -2.80847 2.25382 0
M  V30 218 C 18.7272 -2.47076 3.75864 0
M  V30 219 C 20.0462 -3.82741 2.1725 0
M  V30 220 H 17.1652 -0.558303 0.48111 0
M  V30 221 H 19.8072 -0.893397 1.67685 0
M  V30 222 H 17.9572 -3.35931 1.95148 0
M  V30 223 H 19.6292 -1.97957 4.16666 0
M  V30 224 H 17.8722 -1.79863 3.94755 0
M  V30 225 H 18.5432 -3.37798 4.36574 0
M  V30 226 H 21.0192 -3.37133 2.43887 0
M  V30 227 H 19.8952 -4.69303 2.84686 0
M  V30 228 H 20.1562 -4.2652 1.16331 0
M  V30 229 N 19.2153 -1.21501 -1.00376 0
M  V30 230 C 20.4403 -1.05977 -1.78279 0
M  V30 231 C 20.8653 0.385994 -1.84097 0
M  V30 232 O 20.2233 1.27849 -1.28547 0
M  V30 233 C 20.2713 -1.66302 -3.19963 0
M  V30 234 O 19.3753 -0.909333 -4.0225 0
M  V30 235 H 18.7163 -0.372906 -0.549397 0
M  V30 236 H 21.2463 -1.6107 -1.26165 0
M  V30 237 H 21.2563 -1.70574 -3.70632 0
M  V30 238 H 19.9313 -2.71515 -3.15043 0
M  V30 239 H 18.5083 -0.941795 -3.60811 0
M  V30 240 N 20.6934 1.19889 -1.02296 0
M  V30 241 C 21.9394 1.89701 -0.717033 0
M  V30 242 C 22.2724 1.7905 0.751989 0
M  V30 243 O 21.5474 1.17891 1.547 0
M  V30 244 C 21.8304 3.40858 -1.16136 0
M  V30 245 C 21.6834 3.60411 -2.69117 0
M  V30 246 C 23.0024 4.33876 -0.737549 0
M  V30 247 H 20.1214 0.688874 -0.261957 0
M  V30 248 H 22.7634 1.41154 -1.27183 0
M  V30 249 H 20.9134 3.82335 -0.689342 0
M  V30 250 H 22.5854 3.28145 -3.2422 0
M  V30 251 H 20.8284 3.03665 -3.0979 0
M  V30 252 H 21.4994 4.66396 -2.95261 0
M  V30 253 H 23.9754 4.00081 -1.14344 0
M  V30 254 H 22.8514 5.38242 -1.0764 0
M  V30 255 H 23.1124 4.40628 0.360436 0
M  V30 256 N 22.1715 0.800033 1.35784 0
M  V30 257 C 23.1195 0.193851 2.31791 0
M  V30 258 C 24.1135 -0.652744 1.56319 0
M  V30 259 O 25.3195 -0.546641 1.71499 0
M  V30 260 H 21.6945 0.04392 0.750716 0
M  V30 261 H 23.6655 1.01883 2.80468 0
M  V30 262 C 22.4145 -0.648338 3.41602 0
M  V30 263 H 21.7375 -0.00624665 3.998 0
M  V30 264 H 23.1775 -1.03898 4.11073 0
M  V30 265 C 21.6365 -1.8111 2.84079 0
M  V30 266 O 22.1665 -2.90825 2.77099 0
M  V30 267 N 20.3725 -1.62056 2.41218 0
M  V30 268 H 19.9195 -0.728123 2.47095 0
M  V30 269 H 19.8775 -2.40013 2.03079 0
M  V30 270 N 23.6496 -1.47581 0.552962 0
M  V30 271 C 24.6126 -2.28439 -0.186605 0
M  V30 272 C 25.6126 -1.36706 -0.84665 0
M  V30 273 O 26.8026 -1.59378 -0.703164 0
M  V30 274 C 23.9346 -3.16264 -1.2724 0
M  V30 275 H 25.1276 -2.95294 0.523609 0
M  V30 276 H 22.6806 -1.532 0.309745 0
M  V30 277 H 23.4156 -2.54091 -2.01514 0
M  V30 278 H 23.2006 -3.83769 -0.803968 0
M  V30 279 H 24.6906 -3.77198 -1.79196 0
M  V30 280 N 25.1277 -0.289203 -1.54924 0
M  V30 281 C 26.0607 0.633823 -2.19221 0
M  V30 282 C 27.0387 1.14174 -1.15772 0
M  V30 283 O 28.2227 1.21211 -1.44361 0
M  V30 284 C 25.3497 1.86592 -2.82668 0
M  V30 285 C 24.3957 1.49227 -3.99542 0
M  V30 286 S 25.2287 0.558312 -5.32582 0
M  V30 287 C 26.3847 1.79847 -5.99505 0
M  V30 288 H 26.6177 0.0875416 -2.97171 0
M  V30 289 H 24.1507 -0.0733899 -1.54225 0
M  V30 290 H 26.1087 2.57305 -3.19851 0
M  V30 291 H 24.7697 2.38335 -2.04585 0
M  V30 292 H 23.9627 2.40945 -4.42676 0
M  V30 293 H 23.5647 0.865193 -3.63855 0
M  V30 294 H 25.8567 2.7406 -6.19595 0
M  V30 295 H 26.7997 1.4099 -6.93922 0
M  V30 296 H 27.2077 1.96982 -5.29016 0
M  V30 297 N 26.6058 1.57591 -0.0167156 0
M  V30 298 C 27.5688 2.08393 0.954204 0
M  V30 299 C 28.5688 0.996531 1.26198 0
M  V30 300 O 29.7588 1.25858 1.20438 0
M  V30 301 C 26.8908 2.5394 2.27436 0
M  V30 302 H 28.0838 2.95455 0.514451 0
M  V30 303 H 25.6368 1.54582 0.231089 0
M  V30 304 H 26.3718 1.70171 2.76066 0
M  V30 305 H 26.1568 3.33371 2.06412 0
M  V30 306 H 27.6468 2.93512 2.97053 0
M  V30 307 N 28.0839 -0.256276 1.55502 0
M  V30 308 C 29.0469 -1.30047 1.88734 0
M  V30 309 C 30.0469 -1.4154 0.763086 0
M  V30 310 O 31.2369 -1.40403 1.03115 0
M  V30 311 C 28.3689 -2.67953 2.10747 0
M  V30 312 H 29.5619 -1.01802 2.82093 0
M  V30 313 H 27.1149 -0.495134 1.4825 0
M  V30 314 H 27.8499 -3.01351 1.19825 0
M  V30 315 H 27.6349 -2.60993 2.92617 0
M  V30 316 H 29.1249 -3.43368 2.37673 0
M  V30 317 N 29.562 -1.4872 -0.521534 0
M  V30 318 C 30.839 -1.4766 -1.2828 0
M  V30 319 C 31.219 -0.19292 -2.10217 0
M  V30 320 O 30.567 0.825193 -2.13079 0
M  V30 321 C 30.777 -2.74358 -2.15705 0
M  V30 322 C 32.125 -3.23028 -2.75569 0
M  V30 323 O 33.149 -2.75333 -2.25987 0
M  V30 324 O 32.008 -4.0604 -3.65778 0
M  V30 325 H 29.102 -0.590085 -0.579421 0
M  V30 326 H 31.648 -1.60963 -0.537492 0
M  V30 327 H 30.42 -3.59292 -1.54999 0
M  V30 328 H 30.043 -2.63816 -2.97467 0
M  V30 329 N 31.0401 0.771051 -1.3745 0
M  V30 330 C 32.2801 1.54264 -1.34096 0
M  V30 331 C 32.6441 1.91858 0.0737639 0
M  V30 332 O 33.8451 2.67797 0.23203 0
M  V30 333 C 32.1161 2.77326 -2.25445 0
M  V30 334 S 33.6751 3.67383 -2.39948 0
M  V30 335 H 30.4931 0.528122 -0.476034 0
M  V30 336 H 33.0951 0.906633 -1.73206 0
M  V30 337 H 31.7991 2.47788 -3.27153 0
M  V30 338 H 31.3301 3.45886 -1.87421 0
M  V30 339 H 33.3451 4.69334 -1.61059 0
M  V30 340 N 32.5182 1.22032 0.997298 0
M  V30 341 C 33.4812 0.987909 2.06816 0
M  V30 342 C 34.4812 -0.0440084 1.6074 0
M  V30 343 O 35.6712 0.194053 1.73116 0
M  V30 344 C 32.8032 0.49132 3.37341 0
M  V30 345 H 33.9962 1.93803 2.28868 0
M  V30 346 H 31.5492 1.03838 1.16822 0
M  V30 347 H 32.2842 -0.463364 3.20973 0
M  V30 348 H 32.0692 1.23575 3.72118 0
M  V30 349 H 33.5592 0.348824 4.16141 0
M  V30 350 N 33.9963 -1.19345 1.0293 0
M  V30 351 C 34.9433 -2.2258 0.610464 0
M  V30 352 C 35.9133 -1.6179 -0.375946 0
M  V30 353 O 37.0983 -1.88844 -0.272511 0
M  V30 354 C 34.2383 -3.45085 -0.0321473 0
M  V30 355 C 33.3513 -4.20258 1.00035 0
M  V30 356 C 32.4863 -5.3019 0.32746 0
M  V30 357 C 31.5253 -5.97121 1.34584 0
M  V30 358 N 30.6623 -6.98615 0.698726 0
M  V30 359 H 35.5023 -2.57764 1.49538 0
M  V30 360 H 33.0393 -1.26644 0.748311 0
M  V30 361 H 34.9973 -4.15061 -0.421966 0
M  V30 362 H 33.6273 -3.10555 -0.88064 0
M  V30 363 H 32.6793 -3.49223 1.50823 0
M  V30 364 H 33.9913 -4.66175 1.77433 0
M  V30 365 H 33.1453 -6.06587 -0.11718 0
M  V30 366 H 31.8843 -4.85345 -0.478713 0
M  V30 367 H 30.8893 -5.19474 1.80074 0
M  V30 368 H 32.1143 -6.4405 2.15352 0
M  V30 369 H 30.0603 -6.55942 -0.0873471 0
M  V30 370 H 29.9773 -7.42724 1.41058 0
M  V30 371 H 31.2453 -7.79004 0.278102 0
M  V30 372 N 35.4744 -0.807222 -1.35358 0
M  V30 373 C 36.7224 -0.387122 -1.98358 0
M  V30 374 C 37.0434 1.04942 -1.64354 0
M  V30 375 O 36.3134 1.72615 -0.926339 0
M  V30 376 H 34.8934 -0.140154 -0.733734 0
M  V30 377 H 37.5554 -1.0332 -1.6526 0
M  V30 378 H 36.6514 -0.493352 -3.08176 0
M  V30 379 N 36.9525 1.47285 -0.560781 0
M  V30 380 C 37.8995 2.30058 0.18491 0
M  V30 381 C 38.8695 1.39281 0.904986 0
M  V30 382 O 40.0545 1.68241 0.899979 0
M  V30 383 C 37.1945 3.23317 1.20666 0
M  V30 384 C 36.3075 4.29186 0.492285 0
M  V30 385 C 35.4425 5.09592 1.49964 0
M  V30 386 C 34.4815 6.07232 0.770439 0
M  V30 387 N 33.6185 6.80584 1.72479 0
M  V30 388 H 38.4585 2.93302 -0.527048 0
M  V30 389 H 35.9955 1.44568 -0.271738 0
M  V30 390 H 37.9535 3.75811 1.81168 0
M  V30 391 H 36.5835 2.61929 1.88661 0
M  V30 392 H 35.6355 3.7972 -0.227333 0
M  V30 393 H 36.9475 4.98738 -0.0787929 0
M  V30 394 H 36.1015 5.66254 2.17809 0
M  V30 395 H 34.8405 4.3995 2.10464 0
M  V30 396 H 33.8455 5.49745 0.0780846 0
M  V30 397 H 35.0705 6.78884 0.171134 0
M  V30 398 H 33.0165 6.1367 2.3183 0
M  V30 399 H 32.9335 7.46319 1.20596 0
M  V30 400 H 34.2015 7.41818 2.39428 0
M  V30 401 N 38.4306 0.297415 1.54768 0
M  V30 402 C 39.6796 -0.313669 1.99246 0
M  V30 403 C 39.9926 -1.55281 1.18942 0
M  V30 404 O 41.1986 -2.23825 1.5367 0
M  V30 405 C 39.6546 -0.609407 3.54703 0
M  V30 406 C 39.2626 0.611192 4.43811 0
M  V30 407 C 41.0066 -1.18188 4.07715 0
M  V30 408 C 38.9136 0.288805 5.90694 0
M  V30 409 H 37.8436 -0.120979 0.744231 0
M  V30 410 H 40.4946 0.40556 1.78962 0
M  V30 411 H 38.8766 -1.38813 3.70873 0
M  V30 412 H 40.0506 1.3875 4.39414 0
M  V30 413 H 38.3656 1.10205 4.01552 0
M  V30 414 H 40.9626 -1.43727 5.15021 0
M  V30 415 H 41.3056 -2.12299 3.58099 0
M  V30 416 H 41.8386 -0.464944 3.95074 0
M  V30 417 H 38.5776 1.19838 6.44453 0
M  V30 418 H 38.0976 -0.450305 5.98107 0
M  V30 419 H 39.7766 -0.110933 6.46905 0
M  V30 420 N 39.9087 -1.5758 0.0250728 0
M  V30 421 C 40.8187 -2.1343 -0.973905 0
M  V30 422 C 41.8347 -1.08556 -1.35984 0
M  V30 423 O 43.0107 -1.40592 -1.44207 0
M  V30 424 C 40.0757 -2.64703 -2.23904 0
M  V30 425 C 39.1367 -3.84276 -1.91391 0
M  V30 426 C 38.3697 -4.33095 -3.11873 0
M  V30 427 O 38.5927 -3.81107 -4.24398 0
M  V30 428 O 37.5267 -5.24984 -2.94406 0
M  V30 429 H 41.3527 -2.99057 -0.529036 0
M  V30 430 H 38.9377 -1.48118 -0.195288 0
M  V30 431 H 40.8197 -2.97769 -2.98181 0
M  V30 432 H 39.4947 -1.82161 -2.6758 0
M  V30 433 H 38.4017 -3.56143 -1.14511 0
M  V30 434 H 39.7347 -4.67968 -1.52534 0
M  V30 435 N 41.3868 0.248026 -1.55636 0
M  V30 436 C 42.6338 0.976224 -1.77415 0
M  V30 437 C 42.9618 1.85361 -0.589193 0
M  V30 438 O 42.2168 1.90973 0.427529 0
M  V30 439 C 42.5158 1.86819 -3.04686 0
M  V30 440 C 42.1818 1.14625 -4.36087 0
M  V30 441 C 40.8438 0.946723 -4.71795 0
M  V30 442 C 43.1958 0.634463 -5.17324 0
M  V30 443 C 40.5238 0.223091 -5.86276 0
M  V30 444 C 42.8758 -0.0756959 -6.32555 0
M  V30 445 C 41.5398 -0.286711 -6.66884 0
M  V30 446 H 40.8098 0.357226 -0.649208 0
M  V30 447 H 43.4568 0.246415 -1.89908 0
M  V30 448 H 41.7618 2.66502 -2.872 0
M  V30 449 H 43.4588 2.43329 -3.18735 0
M  V30 450 H 40.0488 1.3117 -4.08035 0
M  V30 451 H 44.2328 0.77616 -4.90193 0
M  V30 452 H 39.4888 0.0491185 -6.1138 0
M  V30 453 H 43.6628 -0.479899 -6.94745 0
M  V30 454 H 41.2898 -0.849389 -7.5544 0
M  V30 455 N 42.8649 1.48995 0.513639 0
M  V30 456 C 44.0899 1.61792 1.29762 0
M  V30 457 C 44.5149 0.284475 1.85936 0
M  V30 458 O 43.8729 -0.746185 1.65232 0
M  V30 459 C 43.9209 2.67993 2.41272 0
M  V30 460 O 43.0249 2.26287 3.44772 0
M  V30 461 H 42.3659 0.541963 0.38363 0
M  V30 462 H 44.8959 1.95097 0.616307 0
M  V30 463 H 44.9059 2.89772 2.87221 0
M  V30 464 H 43.5809 3.64791 1.9975 0
M  V30 465 H 42.1579 2.14788 3.04829 0
M  V30 466 N 44.343 -0.763751 1.37857 0
M  V30 467 C 45.29 -1.87726 1.34267 0
M  V30 468 C 46.26 -1.64807 0.206879 0
M  V30 469 O 47.445 -1.86613 0.397508 0
M  V30 470 C 44.585 -3.24896 1.16346 0
M  V30 471 C 43.698 -3.59716 2.39225 0
M  V30 472 C 42.833 -4.86137 2.14114 0
M  V30 473 C 41.872 -5.13711 3.32817 0
M  V30 474 N 41.009 -6.31323 3.07206 0
M  V30 475 H 45.849 -1.90129 2.29466 0
M  V30 476 H 43.386 -0.929433 1.14017 0
M  V30 477 H 45.344 -4.04036 1.03975 0
M  V30 478 H 43.974 -3.21847 0.247909 0
M  V30 479 H 43.026 -2.75498 2.62307 0
M  V30 480 H 44.338 -3.76027 3.27728 0
M  V30 481 H 43.492 -5.73198 1.9882 0
M  V30 482 H 42.231 -4.71945 1.22961 0
M  V30 483 H 41.236 -4.25123 3.48641 0
M  V30 484 H 42.461 -5.29807 4.24832 0
M  V30 485 H 40.407 -6.18474 2.1869 0
M  V30 486 H 40.324 -6.48087 3.89254 0
M  V30 487 H 41.592 -7.213 2.95546 0
M  V30 488 N 45.8211 -1.22559 -0.990812 0
M  V30 489 C 47.0511 -1.07623 -1.76355 0
M  V30 490 C 47.4591 0.37601 -1.85426 0
M  V30 491 O 46.8021 1.27228 -1.32509 0
M  V30 492 C 46.8641 -1.61507 -3.21179 0
M  V30 493 C 46.5281 -3.10146 -3.35646 0
M  V30 494 C 47.5251 -4.07553 -3.22796 0
M  V30 495 C 45.2101 -3.49644 -3.60631 0
M  V30 496 C 47.2041 -5.42442 -3.34716 0
M  V30 497 C 44.8911 -4.84682 -3.72192 0
M  V30 498 C 45.8891 -5.8089 -3.59243 0
M  V30 499 O 45.5771 -7.13476 -3.70415 0
M  V30 500 H 45.3091 -0.377745 -0.560611 0
M  V30 501 H 47.8631 -1.62658 -1.25425 0
M  V30 502 H 46.0931 -1.00881 -3.73309 0
M  V30 503 H 47.7821 -1.42202 -3.80175 0
M  V30 504 H 48.5481 -3.78381 -3.03403 0
M  V30 505 H 44.4271 -2.75282 -3.69785 0
M  V30 506 H 47.9711 -6.17518 -3.24526 0
M  V30 507 H 43.8681 -5.13534 -3.91092 0
M  V30 508 H 44.6361 -7.21083 -3.87275 0
M  V30 509 N 47.2992 1.18797 -1.03562 0
M  V30 510 C 48.2472 2.24297 -0.615905 0
M  V30 511 C 49.2412 1.65643 0.354808 0
M  V30 512 O 50.4472 1.78618 0.22265 0
M  V30 513 H 46.8222 0.729909 -0.180934 0
M  V30 514 H 48.7932 2.5701 -1.5162 0
M  V30 515 C 47.5422 3.47698 0.0104735 0
M  V30 516 H 46.8652 3.93125 -0.727509 0
M  V30 517 H 48.3052 4.23159 0.266995 0
M  V30 518 C 46.7642 3.12489 1.25905 0
M  V30 519 O 47.2942 3.25761 2.35038 0
M  V30 520 N 45.5002 2.6686 1.15039 0
M  V30 521 H 45.0472 2.56261 0.262328 0
M  V30 522 H 45.0052 2.43674 1.98672 0
M  V30 523 N 48.7773 0.814389 1.34928 0
M  V30 524 C 49.6873 0.231978 2.3345 0
M  V30 525 C 50.7033 -0.629139 1.62228 0
M  V30 526 O 51.8793 -0.539052 1.94052 0
M  V30 527 C 48.9443 -0.603482 3.41407 0
M  V30 528 C 48.0053 0.279037 4.28392 0
M  V30 529 C 47.2383 -0.516643 5.31193 0
M  V30 530 O 47.4613 -1.75068 5.4287 0
M  V30 531 O 46.3953 0.0965652 6.01823 0
M  V30 532 H 50.2213 1.04721 2.85074 0
M  V30 533 H 47.8063 0.576343 1.37836 0
M  V30 534 H 49.6883 -1.07908 4.0735 0
M  V30 535 H 48.3633 -1.39618 2.92042 0
M  V30 536 H 47.2703 0.801948 3.65403 0
M  V30 537 H 48.6033 1.03588 4.81176 0
M  V30 538 N 50.2554 -1.46986 0.568584 0
M  V30 539 C 51.5324 -1.95592 -0.0174074 0
M  V30 540 C 51.9124 -1.51124 -1.47393 0
M  V30 541 O 51.2604 -0.755329 -2.15655 0
M  V30 542 C 51.4704 -3.48719 0.139913 0
M  V30 543 C 52.8184 -4.246 0.000426376 0
M  V30 544 O 53.8424 -3.56135 0.0680316 0
M  V30 545 O 52.7014 -5.46302 -0.146988 0
M  V30 546 H 49.7954 -0.82498 -0.0577599 0
M  V30 547 H 52.3414 -1.57335 0.635909 0
M  V30 548 H 51.1134 -3.73927 1.15301 0
M  V30 549 H 50.7364 -3.93771 -0.550491 0
M  V30 550 N 51.7335 -0.305618 -1.54608 0
M  V30 551 C 52.6815 0.584119 -2.25146 0
M  V30 552 C 53.6755 1.13326 -1.25911 0
M  V30 553 O 54.8815 1.08337 -1.43747 0
M  V30 554 H 51.2565 0.206983 -0.722954 0
M  V30 555 H 53.2275 -0.033291 -2.98381 0
M  V30 556 C 51.9765 1.74225 -3.009 0
M  V30 557 H 51.2995 1.32892 -3.77067 0
M  V30 558 H 52.7395 2.34077 -3.53531 0
M  V30 559 C 51.1985 2.64914 -2.0814 0
M  V30 560 O 51.7285 3.66137 -1.65246 0
M  V30 561 N 49.9345 2.3275 -1.74 0
M  V30 562 H 49.4815 1.50479 -2.09078 0
M  V30 563 H 49.4395 2.93694 -1.12211 0
M  V30 564 N 53.2116 1.57565 -0.0334293 0
M  V30 565 C 54.4396 1.9628 0.654347 0
M  V30 566 C 54.8546 0.910138 1.65414 0
M  V30 567 O 54.2116 -0.107595 1.82183 0
M  V30 568 C 54.2626 3.35067 1.35693 0
M  V30 569 O 53.9836 4.36296 0.397191 0
M  V30 570 C 55.4846 3.88439 2.13613 0
M  V30 571 H 52.7046 0.646369 0.180132 0
M  V30 572 H 55.2486 2.04282 -0.0944721 0
M  V30 573 H 53.4036 3.2827 2.05712 0
M  V30 574 H 53.8176 5.1678 0.896597 0
M  V30 575 H 55.2916 4.8788 2.58219 0
M  V30 576 H 55.7686 3.22914 2.97696 0
M  V30 577 H 56.3746 3.98516 1.48543 0
M  V30 578 N 54.6897 -0.239769 1.55765 0
M  V30 579 C 55.9367 -0.966801 1.7793 0
M  V30 580 C 56.2647 -1.85046 0.599015 0
M  V30 581 O 55.5197 -1.91197 -0.417395 0
M  V30 582 C 55.8187 -1.852 3.05672 0
M  V30 583 C 55.4847 -1.1231 4.36689 0
M  V30 584 C 54.1467 -0.921689 4.72291 0
M  V30 585 C 56.4987 -0.607019 5.17653 0
M  V30 586 C 53.8267 -0.191996 5.86386 0
M  V30 587 C 56.1787 0.109241 6.32506 0
M  V30 588 C 54.8427 0.322073 6.66723 0
M  V30 589 H 54.1127 -0.353778 0.651093 0
M  V30 590 H 56.7597 -0.23634 1.90036 0
M  V30 591 H 55.0647 -2.64975 2.8861 0
M  V30 592 H 56.7617 -2.41635 3.20021 0
M  V30 593 H 53.3517 -1.29004 4.08725 0
M  V30 594 H 57.5357 -0.750153 4.90598 0
M  V30 595 H 52.7917 -0.0166949 6.11398 0
M  V30 596 H 56.9657 0.516737 6.9448 0
M  V30 597 H 54.5927 0.88944 7.54979 0
M  V30 598 N 56.1678 -1.49265 -0.50573 0
M  V30 599 C 57.3958 -1.62215 -1.28429 0
M  V30 600 C 57.8108 -0.291697 -1.86533 0
M  V30 601 O 57.1678 0.722233 -1.67601 0
M  V30 602 C 57.2188 -2.68735 -2.41793 0
M  V30 603 O 56.9398 -3.96619 -1.86078 0
M  V30 604 C 58.4408 -2.92346 -3.3324 0
M  V30 605 H 55.6608 -0.546239 -0.389697 0
M  V30 606 H 58.2048 -1.95265 -0.607609 0
M  V30 607 H 56.3598 -2.38476 -3.053 0
M  V30 608 H 56.7738 -4.55256 -2.60465 0
M  V30 609 H 58.2478 -3.70623 -4.09075 0
M  V30 610 H 58.7248 -2.02081 -3.89948 0
M  V30 611 H 59.3308 -3.24003 -2.75503 0
M  V30 612 N 57.6459 0.756429 -1.3826 0
M  V30 613 C 58.8919 1.51772 -1.34511 0
M  V30 614 C 59.2249 1.94089 0.0656691 0
M  V30 615 O 58.4999 1.65221 1.02626 0
M  V30 616 C 58.7829 2.77226 -2.29821 0
M  V30 617 C 58.6359 2.41065 -3.79747 0
M  V30 618 C 59.9549 3.79236 -2.23312 0
M  V30 619 H 57.0739 0.550578 -0.489931 0
M  V30 620 H 59.7159 0.866607 -1.69086 0
M  V30 621 H 57.8659 3.32784 -2.00467 0
M  V30 622 H 59.5379 1.91303 -4.19763 0
M  V30 623 H 57.7809 1.7356 -3.97567 0
M  V30 624 H 58.4519 3.3081 -4.41892 0
M  V30 625 H 60.9279 3.3321 -2.49219 0
M  V30 626 H 59.8039 4.64714 -2.92116 0
M  V30 627 H 60.0649 4.24615 -1.23102 0
M  V30 628 N 59.124 1.23083 0.984299 0
M  V30 629 C 60.071 1.00854 2.07598 0
M  V30 630 C 61.041 -0.0726709 1.65941 0
M  V30 631 O 62.226 0.0786535 1.90638 0
M  V30 632 C 59.366 0.601645 3.39815 0
M  V30 633 C 58.479 1.75456 3.94765 0
M  V30 634 C 57.614 1.29482 5.15177 0
M  V30 635 C 56.653 2.41873 5.62284 0
M  V30 636 N 55.79 1.96885 6.73929 0
M  V30 637 H 60.63 1.943 2.25946 0
M  V30 638 H 58.167 0.968001 1.10762 0
M  V30 639 H 60.125 0.346854 4.15756 0
M  V30 640 H 58.755 -0.295803 3.21442 0
M  V30 641 H 57.807 2.12346 3.15616 0
M  V30 642 H 59.119 2.59965 4.25699 0
M  V30 643 H 58.273 0.997923 5.98437 0
M  V30 644 H 57.012 0.420046 4.85888 0
M  V30 645 H 56.017 2.72342 4.77608 0
M  V30 646 H 57.242 3.29881 5.93595 0
M  V30 647 H 55.188 1.11782 6.46406 0
M  V30 648 H 55.105 2.74956 7.04227 0
M  V30 649 H 56.373 1.70289 7.60672 0
M  V30 650 N 60.6021 -1.18246 1.0419 0
M  V30 651 C 61.8481 -1.88536 0.747122 0
M  V30 652 C 62.1811 -1.80223 -0.723409 0
M  V30 653 O 61.4561 -1.20337 -1.52804 0
M  V30 654 C 61.7391 -3.38968 1.21544 0
M  V30 655 C 61.5921 -3.56084 2.74816 0
M  V30 656 C 62.9111 -4.32648 0.806482 0
M  V30 657 H 60.0301 -0.684619 0.272883 0
M  V30 658 H 62.6721 -1.39113 1.29413 0
M  V30 659 H 60.8221 -3.8119 0.750081 0
M  V30 660 H 62.4941 -3.22946 3.29399 0
M  V30 661 H 60.7371 -2.98699 3.14582 0
M  V30 662 H 61.4081 -4.61639 3.02644 0
M  V30 663 H 63.8841 -3.98211 1.20695 0
M  V30 664 H 62.7601 -5.36462 1.1619 0
M  V30 665 H 63.0211 -4.41146 -0.29029 0
M  V30 666 N 62.0802 -0.821533 -1.34494 0
M  V30 667 C 63.3052 -0.420873 -2.03085 0
M  V30 668 C 63.7302 0.964915 -1.61465 0
M  V30 669 O 63.0882 1.62763 -0.798607 0
M  V30 670 C 63.1362 -0.529414 -3.56693 0
M  V30 671 O 62.2402 0.451302 -4.09923 0
M  V30 672 H 61.5812 -0.173489 -0.640935 0
M  V30 673 H 64.1112 -1.11157 -1.71771 0
M  V30 674 H 64.1212 -0.404671 -4.05988 0
M  V30 675 H 62.7962 -1.54014 -3.86332 0
M  V30 676 H 61.3732 0.285558 -3.71805 0
M  V30 677 N 63.5583 1.46682 -0.576371 0
M  V30 678 C 64.8063 2.02013 -0.0594163 0
M  V30 679 C 65.1273 1.45101 1.30271 0
M  V30 680 O 64.3973 0.633317 1.8538 0
M  V30 681 H 62.9773 0.746759 -0.0189745 0
M  V30 682 H 65.6393 1.79862 -0.750717 0
M  V30 683 H 64.7353 3.12097 0.014345 0
M  V30 684 N 65.0364 0.313813 1.54444 0
M  V30 685 C 66.4524 -0.0391619 1.59552 0
M  V30 686 C 66.6524 -1.51322 1.33056 0
M  V30 687 O 65.7084 -2.26782 1.11022 0
M  V30 688 C 67.0214 0.370302 2.98411 0
M  V30 689 C 68.5694 0.320139 3.11358 0
M  V30 690 C 69.0444 0.704617 4.52547 0
M  V30 691 N 70.5354 0.657645 4.58508 0
M  V30 692 C 71.2704 0.927453 5.6585 0
M  V30 693 N 70.7664 1.26389 6.81174 0
M  V30 694 N 72.5594 0.853662 5.5558 0
M  V30 695 H 64.7104 1.27433 1.69925 0
M  V30 696 H 66.9734 0.517511 0.794284 0
M  V30 697 H 66.6794 1.39694 3.22767 0
M  V30 698 H 66.5534 -0.269619 3.76235 0
M  V30 699 H 68.9404 -0.697275 2.86744 0
M  V30 700 H 69.0214 0.99486 2.35661 0
M  V30 701 H 68.6654 1.7199 4.77893 0
M  V30 702 H 68.5954 0.00768843 5.26599 0
M  V30 703 H 71.0864 0.409067 3.75679 0
M  V30 704 H 71.3994 1.4554 7.58972 0
M  V30 705 H 69.7444 1.30206 6.82694 0
M  V30 706 H 72.9354 0.590383 4.64362 0
M  V30 707 H 73.1084 1.0673 6.3915 0
M  V30 708 N 66.5145 -1.57545 0.0417849 0
M  V30 709 C 67.4245 -2.14451 -0.951213 0
M  V30 710 C 68.4405 -1.09992 -1.34825 0
M  V30 711 O 69.6165 -1.42114 -1.42708 0
M  V30 712 C 66.6815 -2.67063 -2.21084 0
M  V30 713 C 65.7425 -3.86284 -1.87304 0
M  V30 714 C 64.9755 -4.36378 -3.07261 0
M  V30 715 O 65.1985 -3.85587 -4.20332 0
M  V30 716 O 64.1325 -5.28077 -2.88822 0
M  V30 717 H 67.9585 -2.99601 -0.497287 0
M  V30 718 H 65.5435 -1.48317 -0.179567 0
M  V30 719 H 67.4255 -3.00914 -2.95006 0
M  V30 720 H 66.1005 -1.84989 -2.65633 0
M  V30 721 H 65.0075 -3.57338 -1.10727 0
M  V30 722 H 66.3405 -4.6956 -1.47562 0
M  V30 723 N 67.9926 0.231505 -1.5589 0
M  V30 724 C 69.2226 0.973092 -1.82248 0
M  V30 725 C 69.6306 1.78845 -0.617328 0
M  V30 726 O 68.9736 1.78752 0.423499 0
M  V30 727 C 69.0356 1.94732 -3.02192 0
M  V30 728 C 68.6996 1.31743 -4.37599 0
M  V30 729 C 69.6966 0.712238 -5.14998 0
M  V30 730 C 67.3816 1.33218 -4.84312 0
M  V30 731 C 69.3756 0.130195 -6.37267 0
M  V30 732 C 67.0626 0.746286 -6.06526 0
M  V30 733 C 68.0606 0.146337 -6.82843 0
M  V30 734 O 67.7486 -0.430465 -8.02747 0
M  V30 735 H 67.4806 0.29125 -0.61004 0
M  V30 736 H 70.0346 0.254915 -2.03812 0
M  V30 737 H 68.2646 2.70422 -2.76422 0
M  V30 738 H 69.9536 2.55362 -3.15508 0
M  V30 739 H 70.7196 0.69324 -4.8002 0
M  V30 740 H 66.5986 1.78854 -4.24891 0
M  V30 741 H 70.1426 -0.33871 -6.96777 0
M  V30 742 H 66.0396 0.762663 -6.40979 0
M  V30 743 H 66.8076 -0.323818 -8.17859 0
M  V30 744 N 69.4707 1.49531 0.497807 0
M  V30 745 C 70.7167 1.60388 1.25089 0
M  V30 746 C 71.0717 0.288328 1.90227 0
M  V30 747 O 70.3647 -0.711706 1.77891 0
M  V30 748 C 70.5587 2.70252 2.33878 0
M  V30 749 C 70.3877 4.12363 1.79408 0
M  V30 750 C 69.1577 4.7911 1.60566 0
M  V30 751 C 71.3557 4.97491 1.30412 0
M  V30 752 N 69.3377 6.05525 1.01059 0
M  V30 753 C 70.7087 6.14411 0.830595 0
M  V30 754 C 72.7637 4.83466 1.19015 0
M  V30 755 C 71.4667 7.1885 0.254371 0
M  V30 756 C 73.4927 5.88057 0.627892 0
M  V30 757 C 72.8547 7.04208 0.16461 0
M  V30 758 H 68.9537 0.641246 0.447579 0
M  V30 759 H 71.5377 1.86549 0.557441 0
M  V30 760 H 69.7087 2.45858 3.0068 0
M  V30 761 H 71.4407 2.70613 3.00917 0
M  V30 762 H 68.1957 4.35961 1.85026 0
M  V30 763 H 68.6197 6.73028 0.732236 0
M  V30 764 H 73.2617 3.93978 1.53431 0
M  V30 765 H 70.9797 8.08036 -0.102052 0
M  V30 766 H 74.5657 5.79266 0.542444 0
M  V30 767 H 73.4457 7.83757 -0.263669 0
M  V30 768 N 70.9488 -0.749086 1.3866 0
M  V30 769 C 72.1768 -1.53834 1.38358 0
M  V30 770 C 72.5918 -1.88783 -0.0255219 0
M  V30 771 O 71.9488 -1.53101 -0.993292 0
M  V30 772 C 71.9998 -2.83468 2.2434 0
M  V30 773 O 71.7208 -2.50008 3.5976 0
M  V30 774 C 73.2218 -3.7758 2.32267 0
M  V30 775 H 70.4418 -0.47585 0.473083 0
M  V30 776 H 72.9858 -0.926726 1.82297 0
M  V30 777 H 71.1408 -3.40995 1.83851 0
M  V30 778 H 71.5548 -3.33182 4.05081 0
M  V30 779 H 73.0288 -4.65478 2.96706 0
M  V30 780 H 73.5058 -4.18334 1.33765 0
M  V30 781 H 74.1118 -3.25976 2.73166 0
M  V30 782 N 72.4269 -1.23603 -0.977757 0
M  V30 783 C 73.3749 -1.01704 -2.09187 0
M  V30 784 C 74.3689 0.0448214 -1.69341 0
M  V30 785 O 75.5749 -0.108902 -1.7967 0
M  V30 786 H 71.9499 -0.311803 -0.684312 0
M  V30 787 H 73.9209 -1.96207 -2.24823 0
M  V30 788 C 72.6699 -0.627746 -3.41986 0
M  V30 789 H 71.9929 -1.43656 -3.73099 0
M  V30 790 H 73.4329 -0.514053 -4.20872 0
M  V30 791 C 71.8919 0.664238 -3.30287 0
M  V30 792 O 72.4219 1.71268 -3.6336 0
M  V30 793 N 70.6279 0.641156 -2.83439 0
M  V30 794 H 70.1749 -0.212376 -2.56723 0
M  V30 795 H 70.1329 1.50583 -2.75993 0
M  V30 796 N 73.905 1.17692 -1.04816 0
M  V30 797 C 75.321 1.39863 -0.768794 0
M  V30 798 C 75.521 1.91118 0.638451 0
M  V30 799 O 74.577 2.10036 1.40146 0
M  V30 800 C 75.89 2.39274 -1.82122 0
M  V30 801 C 77.438 2.52987 -1.843 0
M  V30 802 C 77.913 3.55669 -2.88555 0
M  V30 803 N 79.404 3.63183 -2.87493 0
M  V30 804 C 80.139 4.42381 -3.64811 0
M  V30 805 N 79.635 5.25125 -4.51903 0
M  V30 806 N 81.428 4.37217 -3.53267 0
M  V30 807 H 73.579 0.82752 -1.95617 0
M  V30 808 H 75.842 0.426123 -0.846831 0
M  V30 809 H 75.548 2.08678 -2.83102 0
M  V30 810 H 75.422 3.38725 -1.65967 0
M  V30 811 H 77.809 2.82896 -0.839869 0
M  V30 812 H 77.89 1.53623 -2.04532 0
M  V30 813 H 77.534 3.26499 -3.89051 0
M  V30 814 H 77.464 4.54728 -2.65575 0
M  V30 815 H 79.955 3.04103 -2.24343 0
M  V30 816 H 80.268 5.82728 -5.07591 0
M  V30 817 H 78.613 5.24519 -4.55966 0
M  V30 818 H 81.804 3.71626 -2.84625 0
M  V30 819 H 81.977 4.98696 -4.13771 0
M  V30 820 N 75.3831 0.828654 1.34056 0
M  V30 821 C 76.6291 0.429279 1.98818 0
M  V30 822 C 76.9841 -0.998011 1.64492 0
M  V30 823 O 76.2771 -1.68652 0.909228 0
M  V30 824 C 76.4711 0.575226 3.52741 0
M  V30 825 C 76.3001 2.01515 4.02022 0
M  V30 826 C 75.0701 2.64825 4.30344 0
M  V30 827 C 77.2681 2.98261 4.18981 0
M  V30 828 N 75.2501 3.99998 4.65698 0
M  V30 829 C 76.6211 4.18356 4.57578 0
M  V30 830 C 78.6761 2.94802 4.01243 0
M  V30 831 C 77.3791 5.35454 4.80293 0
M  V30 832 C 79.4051 4.11121 4.25128 0
M  V30 833 C 78.7671 5.29969 4.64018 0
M  V30 834 H 74.8661 0.205304 0.754569 0
M  V30 835 H 77.4501 1.07457 1.62361 0
M  V30 836 H 75.6211 -0.0401962 3.88379 0
M  V30 837 H 77.3531 0.148292 4.04428 0
M  V30 838 H 74.1081 2.16027 4.21461 0
M  V30 839 H 74.5321 4.69653 4.87601 0
M  V30 840 H 79.1741 2.04054 3.70299 0
M  V30 841 H 76.8921 6.26755 5.10102 0
M  V30 842 H 80.4781 4.0985 4.12934 0
M  V30 843 H 79.3581 6.18479 4.82134 0
M  V30 844 N 76.8612 -1.46375 0.584142 0
M  V30 845 C 77.8092 -2.32042 -0.161047 0
M  V30 846 C 78.8032 -1.44569 -0.882966 0
M  V30 847 O 80.0092 -1.61186 -0.801191 0
M  V30 848 H 76.3842 -0.748659 -0.0708033 0
M  V30 849 H 78.3552 -2.92704 0.580269 0
M  V30 850 C 77.1042 -3.27762 -1.1605 0
M  V30 851 H 76.4272 -3.95051 -0.614419 0
M  V30 852 H 77.8672 -3.90481 -1.65228 0
M  V30 853 C 76.3262 -2.53218 -2.22221 0
M  V30 854 O 76.8562 -2.29628 -3.29597 0
M  V30 855 N 75.0622 -2.13756 -1.96868 0
M  V30 856 H 74.6092 -2.33142 -1.09557 0
M  V30 857 H 74.5672 -1.642 -2.68115 0
M  V30 858 N 78.3393 -0.321999 -1.54275 0
M  V30 859 C 79.2693 0.537411 -2.27231 0
M  V30 860 C 80.2503 1.12064 -1.27968 0
M  V30 861 O 81.4353 1.14606 -1.56777 0
M  V30 862 C 78.5653 1.69919 -3.02894 0
M  V30 863 C 77.5193 1.24534 -4.09482 0
M  V30 864 C 76.8453 2.49394 -4.72977 0
M  V30 865 C 78.1453 0.361335 -5.21049 0
M  V30 866 H 79.8393 -0.0711406 -2.99315 0
M  V30 867 H 77.3853 -0.0356555 -1.43956 0
M  V30 868 H 79.3383 2.30668 -3.52662 0
M  V30 869 H 78.0623 2.33431 -2.28424 0
M  V30 870 H 76.7213 0.660782 -3.60596 0
M  V30 871 H 76.3693 3.11265 -3.95124 0
M  V30 872 H 76.0693 2.19718 -5.44975 0
M  V30 873 H 77.5933 3.10908 -5.25517 0
M  V30 874 H 79.0073 0.875072 -5.66582 0
M  V30 875 H 77.4043 0.157428 -5.99893 0
M  V30 876 H 78.4743 -0.60822 -4.8107 0
M  V30 877 N 79.8174 1.5752 -0.0501392 0
M  V30 878 C 80.7494 2.08413 0.95376 0
M  V30 879 C 81.7624 1.01175 1.27544 0
M  V30 880 O 82.9514 1.28744 1.23641 0
M  V30 881 C 80.0514 2.51138 2.27559 0
M  V30 882 C 79.2244 3.817 2.13598 0
M  V30 883 C 78.2834 4.10749 3.28895 0
M  V30 884 O 77.3094 4.80685 3.04845 0
M  V30 885 N 78.5114 3.62579 4.5334 0
M  V30 886 H 81.2764 2.95165 0.519383 0
M  V30 887 H 78.8374 1.61327 0.136127 0
M  V30 888 H 80.8294 2.67648 3.03557 0
M  V30 889 H 79.3994 1.6964 2.62567 0
M  V30 890 H 78.6194 3.74782 1.22197 0
M  V30 891 H 79.9074 4.67201 2.01496 0
M  V30 892 H 79.3054 3.06039 4.75769 0
M  V30 893 H 77.8624 3.84329 5.26436 0
M  V30 894 N 81.2955 -0.223234 1.56011 0
M  V30 895 C 82.7065 -0.790368 1.69145 0
M  V30 896 C 83.0575 -1.85055 0.651845 0
M  V30 897 O 82.1825 -2.15498 -0.197359 0
M  V30 898 C 82.7775 -1.4404 3.06656 0
M  V30 899 C 81.3365 -1.95494 3.2165 0
M  V30 900 C 80.4835 -0.814506 2.65068 0
M  V30 901 H 83.4345 0.00139011 1.587 0
M  V30 902 H 83.4555 -2.30916 3.0242 0
M  V30 903 H 82.9675 -0.668543 3.82298 0
M  V30 904 H 81.0685 -2.75487 2.50874 0
M  V30 905 H 81.1815 -2.13607 4.28846 0
M  V30 906 H 79.5455 -1.22137 2.23505 0
M  V30 907 H 80.3285 -0.0553515 3.43255 0
M  V30 908 N 82.7736 -1.49793 -0.48987 0
M  V30 909 C 83.7036 -1.70201 -1.59856 0
M  V30 910 C 84.6846 -0.55076 -1.60937 0
M  V30 911 O 85.8696 -0.787841 -1.77501 0
M  V30 912 C 82.9996 -1.77882 -2.98287 0
M  V30 913 C 81.9536 -2.92907 -3.12073 0
M  V30 914 C 81.2796 -2.85712 -4.51965 0
M  V30 915 C 82.5796 -4.3369 -2.91051 0
M  V30 916 H 84.2736 -2.63025 -1.43032 0
M  V30 917 H 81.8196 -1.26574 -0.686664 0
M  V30 918 H 83.7726 -1.90744 -3.75759 0
M  V30 919 H 82.4966 -0.816653 -3.16225 0
M  V30 920 H 81.1556 -2.79665 -2.37029 0
M  V30 921 H 80.8036 -1.8738 -4.66795 0
M  V30 922 H 80.5036 -3.62921 -4.62128 0
M  V30 923 H 82.0276 -3.00598 -5.31482 0
M  V30 924 H 83.4416 -4.47555 -3.58284 0
M  V30 925 H 81.8386 -5.12205 -3.12675 0
M  V30 926 H 82.9086 -4.47362 -1.87071 0
M  V30 927 N 84.2517 0.741722 -1.39055 0
M  V30 928 C 85.1817 1.869 -1.39966 0
M  V30 929 C 86.1627 1.6804 -0.26392 0
M  V30 930 O 87.3477 1.88458 -0.468755 0
M  V30 931 C 84.4777 3.24572 -1.23574 0
M  V30 932 C 83.4317 3.58056 -2.34477 0
M  V30 933 C 82.7577 4.94593 -2.0318 0
M  V30 934 C 84.0577 3.61716 -3.76774 0
M  V30 935 H 85.7517 1.86395 -2.34302 0
M  V30 936 H 83.2977 0.895361 -1.1278 0
M  V30 937 H 85.2507 4.031 -1.22834 0
M  V30 938 H 83.9747 3.25587 -0.257045 0
M  V30 939 H 82.6337 2.81854 -2.34423 0
M  V30 940 H 82.2817 4.92181 -1.03765 0
M  V30 941 H 81.9817 5.17964 -2.77465 0
M  V30 942 H 83.5057 5.75486 -2.04079 0
M  V30 943 H 84.9197 4.30335 -3.78794 0
M  V30 944 H 83.3167 3.96603 -4.50362 0
M  V30 945 H 84.3867 2.61672 -4.08235 0
M  V30 946 N 85.7298 1.2412 0.971189 0
M  V30 947 C 86.6618 0.988349 2.06795 0
M  V30 948 C 87.6748 -0.0409541 1.62748 0
M  V30 949 O 88.8638 0.195673 1.77424 0
M  V30 950 C 85.9638 0.469023 3.35639 0
M  V30 951 C 85.1368 1.56065 4.08611 0
M  V30 952 C 84.1958 1.04458 5.15728 0
M  V30 953 O 83.2218 1.73553 5.42096 0
M  V30 954 N 84.4238 -0.122817 5.8037 0
M  V30 955 H 87.1888 1.93265 2.29061 0
M  V30 956 H 84.7498 1.15102 1.13856 0
M  V30 957 H 86.7418 0.108613 4.04554 0
M  V30 958 H 85.3118 -0.380919 3.1027 0
M  V30 959 H 84.5318 2.09341 3.34021 0
M  V30 960 H 85.8198 2.29449 4.54126 0
M  V30 961 H 85.2178 -0.700563 5.61345 0
M  V30 962 H 83.7748 -0.424404 6.50417 0
M  V30 963 N 87.2079 -1.17134 1.05439 0
M  V30 964 C 88.4329 -1.91913 0.786396 0
M  V30 965 C 88.8579 -1.7643 -0.652234 0
M  V30 966 O 88.2159 -1.08372 -1.45345 0
M  V30 967 C 88.2639 -3.40921 1.17497 0
M  V30 968 O 87.3679 -4.11244 0.308589 0
M  V30 969 H 86.7089 -0.598215 0.288158 0
M  V30 970 H 89.2389 -1.48457 1.4079 0
M  V30 971 H 89.2489 -3.91668 1.14281 0
M  V30 972 H 87.9239 -3.5151 2.22292 0
M  V30 973 H 86.5009 -3.70731 0.40157 0
M  V30 974 N 88.686 -0.835752 -1.33615 0
M  V30 975 C 89.649 -0.272 -2.2758 0
M  V30 976 C 90.649 0.557487 -1.50827 0
M  V30 977 O 91.839 0.37173 -1.70188 0
M  V30 978 C 88.971 0.617173 -3.35267 0
M  V30 979 H 90.164 -1.10111 -2.78954 0
M  V30 980 H 87.717 -0.608594 -1.43965 0
M  V30 981 H 88.452 1.46884 -2.89129 0
M  V30 982 H 88.237 0.0237066 -3.92093 0
M  V30 983 H 89.727 1.005 -4.05326 0
M  V30 984 N 90.1641 1.46063 -0.591896 0
M  V30 985 C 91.0961 2.28539 0.174001 0
M  V30 986 C 92.1091 1.39047 0.846753 0
M  V30 987 O 93.2981 1.63564 0.714774 0
M  V30 988 C 90.3981 3.14347 1.26645 0
M  V30 989 C 89.5711 4.32021 0.683856 0
M  V30 990 C 88.6301 4.99157 1.66518 0
M  V30 991 O 87.6561 5.56458 1.19763 0
M  V30 992 N 88.8581 4.97005 2.99943 0
M  V30 993 H 91.6231 2.94911 -0.533633 0
M  V30 994 H 89.1841 1.56077 -0.430294 0
M  V30 995 H 91.1761 3.56125 1.92242 0
M  V30 996 H 89.7461 2.49988 1.87682 0
M  V30 997 H 88.9661 3.93915 -0.1498 0
M  V30 998 H 90.2541 5.08059 0.274567 0
M  V30 999 H 89.6521 4.51714 3.40545 0
M  V30 1000 H 88.2091 5.42696 3.61004 0
M  V30 1001 N 91.6422 0.330177 1.54103 0
M  V30 1002 C 92.5722 -0.525353 2.27513 0
M  V30 1003 C 93.5532 -1.11383 1.2856 0
M  V30 1004 O 94.7382 -1.13773 1.57383 0
M  V30 1005 C 91.8682 -1.6831 3.03791 0
M  V30 1006 C 90.8222 -1.2236 4.10137 0
M  V30 1007 C 90.1482 -2.46882 4.74293 0
M  V30 1008 C 91.4482 -0.333697 5.21233 0
M  V30 1009 H 93.1422 0.087013 2.99274 0
M  V30 1010 H 90.6882 0.0432893 1.43935 0
M  V30 1011 H 92.6412 -2.28795 3.5388 0
M  V30 1012 H 91.3652 -2.32216 2.29659 0
M  V30 1013 H 90.0242 -0.64165 3.60941 0
M  V30 1014 H 89.6722 -3.09165 3.96769 0
M  V30 1015 H 89.3722 -2.16825 5.46133 0
M  V30 1016 H 90.8962 -3.08117 5.27159 0
M  V30 1017 H 92.3102 -0.845013 5.67038 0
M  V30 1018 H 90.7072 -0.125612 5.99969 0
M  V30 1019 H 91.7772 0.633724 4.80741 0
M  V30 1020 N 93.1203 -1.57491 0.0584922 0
M  V30 1021 C 94.3483 -1.97296 -0.623037 0
M  V30 1022 C 94.7633 -0.936338 -1.63946 0
M  V30 1023 O 94.1203 0.0785981 -1.82331 0
M  V30 1024 C 94.1713 -3.37183 -1.30345 0
M  V30 1025 O 93.8923 -4.36872 -0.32773 0
M  V30 1026 C 95.3933 -3.91788 -2.07406 0
M  V30 1027 H 92.6133 -0.649153 -0.169826 0
M  V30 1028 H 95.1573 -2.04106 0.12696 0
M  V30 1029 H 93.3123 -3.31502 -2.00463 0
M  V30 1030 H 93.7263 -5.18141 -0.814269 0
M  V30 1031 H 95.2003 -4.91926 -2.50425 0
M  V30 1032 H 95.6773 -3.27609 -2.92521 0
M  V30 1033 H 96.2833 -4.00829 -1.42184 0
M  V30 1034 N 94.5984 0.214957 -1.56127 0
M  V30 1035 C 95.8464 0.936518 -1.79091 0
M  V30 1036 C 96.1674 1.84606 -0.628148 0
M  V30 1037 O 95.4374 1.92664 0.35462 0
M  V30 1038 H 94.0174 0.3488 -0.660566 0
M  V30 1039 H 96.6794 0.22523 -1.93594 0
M  V30 1040 H 95.7754 1.53943 -2.71492 0
M  V30 1041 N 96.0765 1.50051 0.48192 0
M  V30 1042 C 97.0095 1.62749 1.59963 0
M  V30 1043 C 97.9875 0.475903 1.5548 0
M  V30 1044 O 99.1715 0.693986 1.7526 0
M  V30 1045 C 96.2985 1.60008 2.98522 0
M  V30 1046 C 95.3445 2.80596 3.21198 0
M  V30 1047 S 96.1775 4.42038 3.02262 0
M  V30 1048 C 97.3335 4.41973 4.43182 0
M  V30 1049 H 97.5665 2.57296 1.4895 0
M  V30 1050 H 95.0995 1.39179 0.668477 0
M  V30 1051 H 97.0575 1.59112 3.78409 0
M  V30 1052 H 95.7185 0.667153 3.06933 0
M  V30 1053 H 94.9115 2.74952 4.22395 0
M  V30 1054 H 94.5135 2.79003 2.49065 0
M  V30 1055 H 96.8055 4.14868 5.35622 0
M  V30 1056 H 97.7485 5.43512 4.53873 0
M  V30 1057 H 98.1565 3.71812 4.24755 0
M  V30 1058 N 97.5546 -0.734337 1.39446 0
M  V30 1059 C 98.7826 -1.52358 1.39981 0
M  V30 1060 C 99.1976 -1.88799 -0.0054975 0
M  V30 1061 O 98.5546 -1.54146 -0.976998 0
M  V30 1062 C 98.6056 -2.81072 2.27333 0
M  V30 1063 O 98.3266 -2.46178 3.62392 0
M  V30 1064 C 99.8276 -3.75096 2.36259 0
M  V30 1065 H 97.0476 -0.470806 0.478103 0
M  V30 1066 H 99.5916 -0.907339 1.83269 0
M  V30 1067 H 97.7466 -3.39026 1.87457 0
M  V30 1068 H 98.1606 -3.28866 4.08592 0
M  V30 1069 H 99.6346 -4.62305 3.01626 0
M  V30 1070 H 100.112 -4.16892 1.38194 0
M  V30 1071 H 100.718 -3.23061 2.76608 0
M  V30 1072 N 99.0327 -1.24633 -0.964593 0
M  V30 1073 C 100.279 -1.08949 -1.71049 0
M  V30 1074 C 100.612 0.370302 -1.90637 0
M  V30 1075 O 99.8867 1.27349 -1.47011 0
M  V30 1076 C 100.17 -1.83329 -3.0994 0
M  V30 1077 C 100.023 -3.37077 -2.97824 0
M  V30 1078 C 101.342 -1.60846 -4.09654 0
M  V30 1079 H 98.4607 -0.397178 -0.620821 0
M  V30 1080 H 101.103 -1.5334 -1.12191 0
M  V30 1081 H 99.2527 -1.45597 -3.60186 0
M  V30 1082 H 100.925 -3.84425 -2.5498 0
M  V30 1083 H 99.1677 -3.65298 -2.33965 0
M  V30 1084 H 99.8387 -3.84324 -3.96231 0
M  V30 1085 H 102.315 -1.93674 -3.68279 0
M  V30 1086 H 101.191 -2.1534 -5.04896 0
M  V30 1087 H 101.452 -0.547434 -4.38698 0
M  V30 1088 N 100.511 1.16574 -1.06058 0
M  V30 1089 C 101.739 1.90952 -0.796552 0
M  V30 1090 C 102.154 1.77302 0.648808 0
M  V30 1091 O 101.511 1.11605 1.44397 0
M  V30 1092 C 101.562 3.41736 -1.17894 0
M  V30 1093 O 101.283 3.54975 -2.56758 0
M  V30 1094 C 102.784 4.33169 -0.942308 0
M  V30 1095 H 100.004 0.605594 -0.288959 0
M  V30 1096 H 102.548 1.47777 -1.41358 0
M  V30 1097 H 100.703 3.82623 -0.606491 0
M  V30 1098 H 101.117 4.4846 -2.72 0
M  V30 1099 H 102.591 5.37439 -1.25952 0
M  V30 1100 H 103.068 4.3903 0.122078 0
M  V30 1101 H 103.674 3.98007 -1.49902 0
M  V30 1102 N 101.989 0.842826 1.3317 0
M  V30 1103 C 103.238 0.436738 1.96915 0
M  V30 1104 C 103.551 -1.01025 1.67491 0
M  V30 1105 O 104.757 -1.5212 2.24881 0
M  V30 1106 C 103.213 0.730021 3.52418 0
M  V30 1107 C 102.821 2.19195 3.90714 0
M  V30 1108 C 104.565 0.391076 4.22695 0
M  V30 1109 C 102.472 2.42907 5.39212 0
M  V30 1110 H 101.402 0.15958 0.736919 0
M  V30 1111 H 104.053 1.03196 1.51733 0
M  V30 1112 H 102.435 0.0643755 3.95948 0
M  V30 1113 H 103.609 2.8984 3.58231 0
M  V30 1114 H 101.924 2.49425 3.33431 0
M  V30 1115 H 104.521 0.545817 5.31907 0
M  V30 1116 H 104.864 -0.666294 4.10933 0
M  V30 1117 H 105.397 1.01212 3.84709 0
M  V30 1118 H 102.136 3.47224 5.55982 0
M  V30 1119 H 101.656 1.76827 5.73142 0
M  V30 1120 H 103.335 2.2626 6.06148 0
M  V30 1121 N 103.467 -1.45747 0.599634 0
M  V30 1122 C 104.716 -2.01502 0.0893511 0
M  V30 1123 C 105.029 -1.4748 -1.28488 0
M  V30 1124 O 106.235 -1.95161 -1.88745 0
M  V30 1125 C 104.691 -3.59735 0.109082 0
M  V30 1126 C 104.299 -4.22754 1.48267 0
M  V30 1127 C 106.043 -4.23085 -0.346374 0
M  V30 1128 C 103.95 -5.73115 1.45921 0
M  V30 1129 H 102.88 -0.753417 0.0296347 0
M  V30 1130 H 105.531 -1.67303 0.753788 0
M  V30 1131 H 103.913 -3.91087 -0.621854 0
M  V30 1132 H 105.087 -4.02987 2.23468 0
M  V30 1133 H 103.402 -3.71567 1.87955 0
M  V30 1134 H 105.999 -5.33327 -0.38298 0
M  V30 1135 H 106.342 -3.93201 -1.36743 0
M  V30 1136 H 106.875 -3.9642 0.331038 0
M  V30 1137 H 103.614 -6.07685 2.45762 0
M  V30 1138 H 103.134 -5.95097 0.749665 0
M  V30 1139 H 104.813 -6.3616 1.17941 0
M  V30 1140 N 104.945 -0.338344 -1.53925 0
M  V30 1141 C 106.17 0.263987 -2.05713 0
M  V30 1142 C 106.595 1.43847 -1.21201 0
M  V30 1143 O 105.953 1.79904 -0.224535 0
M  V30 1144 C 106.001 0.662 -3.54471 0
M  V30 1145 O 105.105 1.76265 -3.72833 0
M  V30 1146 H 104.446 0.0448722 -0.662482 0
M  V30 1147 H 106.976 -0.491048 -1.9862 0
M  V30 1148 H 106.986 0.940594 -3.9701 0
M  V30 1149 H 105.661 -0.196937 -4.15433 0
M  V30 1150 H 104.238 1.48173 -3.42198 0
M  V30 1151 N 106.423 1.57458 -0.0668435 0
M  V30 1152 C 107.371 2.13639 0.919851 0
M  V30 1153 C 108.365 1.07204 1.31163 0
M  V30 1154 O 109.571 1.25591 1.28945 0
M  V30 1155 H 105.946 0.683048 0.314562 0
M  V30 1156 H 107.917 2.95415 0.421047 0
M  V30 1157 C 106.666 2.70892 2.17975 0
M  V30 1158 H 105.989 3.5246 1.88711 0
M  V30 1159 H 107.429 3.13803 2.85138 0
M  V30 1160 C 105.888 1.65414 2.93496 0
M  V30 1161 O 106.418 1.07619 3.87015 0
M  V30 1162 N 104.624 1.36564 2.56512 0
M  V30 1163 H 104.171 1.83751 1.80536 0
M  V30 1164 H 104.129 0.66223 3.07347 0
M  V30 1165 N 107.901 -0.206675 1.56239 0
M  V30 1166 C 109.129 -0.945345 1.8404 0
M  V30 1167 C 109.544 -1.77336 0.647885 0
M  V30 1168 O 108.901 -1.78425 -0.383511 0
M  V30 1169 C 108.952 -1.8509 3.10522 0
M  V30 1170 O 108.673 -1.05634 4.25174 0
M  V30 1171 C 110.174 -2.70222 3.51418 0
M  V30 1172 H 107.394 -0.276372 0.61144 0
M  V30 1173 H 109.938 -0.217417 2.03341 0
M  V30 1174 H 108.093 -2.53259 2.93153 0
M  V30 1175 H 108.507 -1.67238 4.97124 0
M  V30 1176 H 109.981 -3.29438 4.42916 0
M  V30 1177 H 110.458 -3.43358 2.73864 0
M  V30 1178 H 111.064 -2.07443 3.71278 0
M  V30 1179 N 109.379 -1.50304 -0.473955 0
M  V30 1180 C 110.619 -1.62786 -1.23612 0
M  V30 1181 C 110.983 -0.319786 -1.89318 0
M  V30 1182 O 112.184 -0.320012 -2.66888 0
M  V30 1183 C 110.455 -2.77351 -2.25414 0
M  V30 1184 S 112.014 -3.09948 -3.10608 0
M  V30 1185 H 108.832 -0.573895 -0.419721 0
M  V30 1186 H 111.434 -1.88076 -0.533623 0
M  V30 1187 H 110.138 -3.70879 -1.75719 0
M  V30 1188 H 109.669 -2.54137 -3.00296 0
M  V30 1189 H 111.684 -2.53553 -4.26527 0
M  V30 1190 N 110.857 0.726932 -1.39834 0
M  V30 1191 C 112.082 1.52121 -1.40976 0
M  V30 1192 C 112.507 1.88098 -0.00826029 0
M  V30 1193 O 111.865 1.52479 0.980807 0
M  V30 1194 C 111.913 2.78021 -2.29644 0
M  V30 1195 O 111.017 3.74272 -1.73188 0
M  V30 1196 H 110.358 0.45908 -0.479731 0
M  V30 1197 H 112.888 0.896207 -1.83927 0
M  V30 1198 H 112.898 3.26671 -2.44438 0
M  V30 1199 H 111.573 2.51169 -3.31492 0
M  V30 1200 H 110.15 3.33073 -1.6768 0
M  V30 1201 N 112.336 1.25143 0.95797 0
M  V30 1202 C 113.561 1.12521 1.74223 0
M  V30 1203 C 113.986 -0.317402 1.85403 0
M  V30 1204 O 113.344 -1.2299 1.33204 0
M  V30 1205 C 113.392 1.78062 3.1357 0
M  V30 1206 O 112.496 1.058 3.98598 0
M  V30 1207 H 111.837 0.39304 0.535178 0
M  V30 1208 H 114.367 1.65641 1.201 0
M  V30 1209 H 114.377 1.84213 3.64046 0
M  V30 1210 H 113.052 2.83021 3.04749 0
M  V30 1211 H 111.629 1.07506 3.57067 0
M  V30 1212 N 113.814 -1.1601 1.06675 0
M  V30 1213 C 115.062 -1.86264 0.784229 0
M  V30 1214 C 115.383 -1.82328 -0.691488 0
M  V30 1215 O 114.653 -1.25947 -1.50047 0
M  V30 1216 H 113.233 -0.689621 0.28711 0
M  V30 1217 H 115.895 -1.40664 1.34906 0
M  V30 1218 H 114.991 -2.91595 1.11259 0
M  V30 1219 N 115.292 -0.849877 -1.32721 0
M  V30 1220 C 116.517 -0.463856 -2.02146 0
M  V30 1221 C 116.942 0.930449 -1.63476 0
M  V30 1222 O 116.3 1.61033 -0.832952 0
M  V30 1223 C 116.348 -0.604955 -3.55489 0
M  V30 1224 O 115.452 0.36425 -4.10788 0
M  V30 1225 H 114.793 -0.187046 -0.637111 0
M  V30 1226 H 117.323 -1.14775 -1.69375 0
M  V30 1227 H 117.333 -0.490696 -4.05038 0
M  V30 1228 H 116.008 -1.62174 -3.82978 0
M  V30 1229 H 114.585 0.206628 -3.72327 0
M  V30 1230 N 116.77 1.45427 -0.607355 0
M  V30 1231 C 118.018 2.01841 -0.102253 0
M  V30 1232 C 118.339 1.47832 1.27164 0
M  V30 1233 O 117.609 0.672497 1.83995 0
M  V30 1234 H 116.189 0.746188 -0.0348101 0
M  V30 1235 H 118.851 1.78229 -0.7887 0
M  V30 1236 H 117.947 3.12057 -0.0518585 0
M  V30 1237 N 118.248 0.346503 1.53744 0
M  V30 1238 C 119.495 -0.249104 2.00962 0
M  V30 1239 C 119.823 -1.5032 1.23426 0
M  V30 1240 O 119.078 -1.93217 0.310761 0
M  V30 1241 C 119.377 -0.605809 3.52228 0
M  V30 1242 C 119.043 0.551747 4.47512 0
M  V30 1243 C 117.705 0.86941 4.73281 0
M  V30 1244 C 120.057 1.32818 5.03993 0
M  V30 1245 C 117.385 1.96582 5.52786 0
M  V30 1246 C 119.737 2.41486 5.84694 0
M  V30 1247 C 118.401 2.73808 6.08757 0
M  V30 1248 H 117.671 -0.0911538 0.735372 0
M  V30 1249 H 120.318 0.475027 1.85515 0
M  V30 1250 H 118.623 -1.4107 3.65522 0
M  V30 1251 H 120.32 -1.07858 3.86222 0
M  V30 1252 H 116.91 0.294102 4.2759 0
M  V30 1253 H 121.094 1.09602 4.84047 0
M  V30 1254 H 116.35 2.22045 5.69654 0
M  V30 1255 H 120.524 3.02078 6.27473 0
M  V30 1256 H 118.151 3.58892 6.7015 0
M  V30 1257 N 119.726 -1.57421 0.075193 0
M  V30 1258 C 120.689 -2.11791 -0.876203 0
M  V30 1259 C 121.689 -1.04268 -1.22412 0
M  V30 1260 O 122.879 -1.30242 -1.15684 0
M  V30 1261 C 120.011 -2.62207 -2.17854 0
M  V30 1262 H 121.204 -2.9716 -0.40444 0
M  V30 1263 H 118.757 -1.55333 -0.173557 0
M  V30 1264 H 119.492 -1.803 -2.6956 0
M  V30 1265 H 119.277 -3.40802 -1.93897 0
M  V30 1266 H 120.767 -3.04335 -2.85955 0
M  V30 1267 N 121.204 0.198386 -1.56346 0
M  V30 1268 C 122.136 1.26987 -1.90806 0
M  V30 1269 C 123.149 1.41877 -0.798419 0
M  V30 1270 O 124.338 1.42362 -1.07682 0
M  V30 1271 C 121.438 2.64246 -2.12196 0
M  V30 1272 C 120.611 2.71007 -3.43328 0
M  V30 1273 C 119.67 3.89439 -3.5387 0
M  V30 1274 O 118.696 3.76695 -4.26719 0
M  V30 1275 N 119.898 5.04752 -2.86715 0
M  V30 1276 H 122.663 0.977433 -2.83313 0
M  V30 1277 H 120.224 0.388322 -1.57174 0
M  V30 1278 H 122.216 3.41896 -2.1654 0
M  V30 1279 H 120.786 2.85992 -1.26204 0
M  V30 1280 H 120.006 1.79657 -3.50881 0
M  V30 1281 H 121.294 2.72512 -4.29668 0
M  V30 1282 H 120.692 5.18004 -2.2735 0
M  V30 1283 H 119.249 5.8036 -2.96691 0
M  V30 1284 N 122.682 1.50554 0.465978 0
M  V30 1285 C 123.928 1.62038 1.21949 0
M  V30 1286 C 124.261 0.322116 1.9151 0
M  V30 1287 O 123.536 -0.676723 1.82348 0
M  V30 1288 C 123.819 2.80421 2.25912 0
M  V30 1289 C 123.672 4.20144 1.60622 0
M  V30 1290 C 124.991 2.94354 3.27176 0
M  V30 1291 H 122.11 0.589752 0.441998 0
M  V30 1292 H 124.752 1.82956 0.51257 0
M  V30 1293 H 122.902 2.62717 2.86203 0
M  V30 1294 H 124.574 4.49449 1.03889 0
M  V30 1295 H 122.817 4.24165 0.909211 0
M  V30 1296 H 123.488 4.98914 2.36196 0
M  V30 1297 H 125.964 3.10578 2.76913 0
M  V30 1298 H 124.84 3.788 3.97242 0
M  V30 1299 H 125.101 2.05186 3.916 0
M  V30 1300 N 124.16 -0.719506 1.40217 0
M  V30 1301 C 125.107 -1.83359 1.40172 0
M  V30 1302 C 126.077 -1.64065 0.259206 0
M  V30 1303 O 127.262 -1.85254 0.456677 0
M  V30 1304 C 124.402 -3.2103 1.26624 0
M  V30 1305 C 123.515 -3.51923 2.50548 0
M  V30 1306 C 122.65 -4.79079 2.29471 0
M  V30 1307 C 121.689 -5.02863 3.48992 0
M  V30 1308 N 120.826 -6.2123 3.27135 0
M  V30 1309 H 125.666 -1.82733 2.35399 0
M  V30 1310 H 123.203 -0.892688 1.16917 0
M  V30 1311 H 125.161 -4.00524 1.16776 0
M  V30 1312 H 123.791 -3.20895 0.350176 0
M  V30 1313 H 122.843 -2.67014 2.70939 0
M  V30 1314 H 124.155 -3.6541 3.39525 0
M  V30 1315 H 123.309 -5.66582 2.16955 0
M  V30 1316 H 122.048 -4.67794 1.37913 0
M  V30 1317 H 121.053 -4.13816 3.6199 0
M  V30 1318 H 122.278 -5.16023 4.41472 0
M  V30 1319 H 120.224 -6.11204 2.38256 0
M  V30 1320 H 120.141 -6.35375 4.09675 0
M  V30 1321 H 121.409 -7.11532 3.18344 0
M  V30 1322 N 125.638 -1.25649 -0.95132 0
M  V30 1323 C 126.885 -1.10594 -1.69633 0
M  V30 1324 C 127.213 0.352515 -1.91279 0
M  V30 1325 O 126.468 1.27601 -1.4838 0
M  V30 1326 C 126.767 -1.80909 -3.08231 0
M  V30 1327 C 126.433 -3.30825 -3.06375 0
M  V30 1328 C 125.095 -3.71722 -3.05576 0
M  V30 1329 C 127.447 -4.26589 -2.99452 0
M  V30 1330 C 124.775 -5.06788 -2.95606 0
M  V30 1331 C 127.127 -5.61683 -2.91024 0
M  V30 1332 C 125.791 -6.01904 -2.88562 0
M  V30 1333 H 125.061 -0.404691 -0.620731 0
M  V30 1334 H 127.708 -1.55964 -1.11119 0
M  V30 1335 H 126.013 -1.27979 -3.70309 0
M  V30 1336 H 127.71 -1.6671 -3.64704 0
M  V30 1337 H 124.3 -2.98287 -3.07771 0
M  V30 1338 H 128.484 -3.95982 -2.99185 0
M  V30 1339 H 123.74 -5.37126 -2.92071 0
M  V30 1340 H 127.914 -6.35578 -2.84629 0
M  V30 1341 H 125.541 -7.06521 -2.80593 0
M  V30 1342 N 127.117 1.15442 -1.07289 0
M  V30 1343 C 128.065 2.22225 -0.686952 0
M  V30 1344 C 129.059 1.66688 0.30193 0
M  V30 1345 O 130.265 1.79236 0.165712 0
M  V30 1346 H 126.64 0.723783 -0.204064 0
M  V30 1347 H 128.611 2.52056 -1.5972 0
M  V30 1348 C 127.36 3.47556 -0.100149 0
M  V30 1349 H 126.683 3.90612 -0.852211 0
M  V30 1350 H 128.123 4.23794 0.132235 0
M  V30 1351 C 126.582 3.16337 1.159 0
M  V30 1352 O 127.112 3.33074 2.24555 0
M  V30 1353 N 125.318 2.70385 1.06491 0
M  V30 1354 H 124.865 2.56966 0.180668 0
M  V30 1355 H 124.823 2.49871 1.90819 0
M  V30 1356 O 128.634 0.990954 1.27524 0
M  V30 1357 H 129.325 0.639759 1.8283 0
M  V30 END ATOM
M  V30 BEGIN BOND
M  V30 END BOND
M  V30 END CTAB
M  END
$$$$
