drugbank_target|P23280 Carbonic anhydrase 6 (DB00909; DB06795; DB08846)
 OpenBabel12092120363D

  0  0  0     0  0            999 V3000
M  V30 BEGIN CTAB
M  V30 COUNTS 4905 4975 0 0 0
M  V30 BEGIN ATOM
M  V30 1 H -0.908 1.98254 -0.117106 0
M  V30 2 N 0 1.576 0 0
M  V30 3 C 0.933 2.03868 1.02534 0
M  V30 4 C 1.911 0.928543 1.3348 0
M  V30 5 O 3.095 1.19667 1.45644 0
M  V30 6 C 0.222 2.43627 2.35294 0
M  V30 7 C -0.732 3.65373 2.2001 0
M  V30 8 S 0.101 5.13292 1.52614 0
M  V30 9 C 1.257 5.56322 2.86805 0
M  V30 10 H 1.49 2.90518 0.631377 0
M  V30 11 H -0.977 1.52953 0.210867 0
M  V30 12 H 0.981 2.67203 3.11629 0
M  V30 13 H -0.358 1.57376 2.7183 0
M  V30 14 H -1.165 3.90944 3.18086 0
M  V30 15 H -1.563 3.418 1.51819 0
M  V30 16 H 0.729 5.58782 3.83104 0
M  V30 17 H 1.672 6.56266 2.65933 0
M  V30 18 H 2.08 4.83886 2.90714 0
M  V30 19 N 1.4781 -0.272755 1.55222 0
M  V30 20 C 2.8941 -0.619959 1.47067 0
M  V30 21 C 3.0941 -1.895 0.684978 0
M  V30 22 O 2.1501 -2.51675 0.203931 0
M  V30 23 C 3.4631 -0.746693 2.91282 0
M  V30 24 C 5.0111 -0.840731 3.01497 0
M  V30 25 C 5.4861 -0.99924 4.46967 0
M  V30 26 N 6.9771 -1.06476 4.50796 0
M  V30 27 C 7.7121 -1.20621 5.6057 0
M  V30 28 N 7.2081 -1.31483 6.80209 0
M  V30 29 N 9.0011 -1.23733 5.48312 0
M  V30 30 H 1.1521 0.564606 2.04758 0
M  V30 31 H 3.4151 0.191177 0.928523 0
M  V30 32 H 3.1211 0.119753 3.51496 0
M  V30 33 H 2.9951 -1.6269 3.40311 0
M  V30 34 H 5.3821 -1.69764 2.41379 0
M  V30 35 H 5.4631 0.0640874 2.5572 0
M  V30 36 H 5.1071 -0.146984 5.07687 0
M  V30 37 H 5.0371 -1.91871 4.90401 0
M  V30 38 H 7.5281 -0.993196 3.64615 0
M  V30 39 H 7.8411 -1.42111 7.59621 0
M  V30 40 H 6.1861 -1.28487 6.8302 0
M  V30 41 H 9.3771 -1.14877 4.53785 0
M  V30 42 H 9.5501 -1.34412 6.33906 0
M  V30 43 N 2.9562 -1.48159 -0.537278 0
M  V30 44 C 3.9192 -1.61665 -1.62472 0
M  V30 45 C 4.9192 -0.490395 -1.5314 0
M  V30 46 O 6.1092 -0.755998 -1.5694 0
M  V30 47 C 3.2412 -1.57997 -3.02076 0
M  V30 48 H 4.4342 -2.58621 -1.51839 0
M  V30 49 H 1.9872 -1.36647 -0.758771 0
M  V30 50 H 2.7222 -0.624913 -3.18222 0
M  V30 51 H 2.5072 -2.39755 -3.10258 0
M  V30 52 H 3.9972 -1.70627 -3.81151 0
M  V30 53 N 4.4343 0.785586 -1.36625 0
M  V30 54 C 5.3643 1.91259 -1.33949 0
M  V30 55 C 6.3453 1.68795 -0.210325 0
M  V30 56 O 7.5303 1.89854 -0.408561 0
M  V30 57 C 4.6603 3.28339 -1.13186 0
M  V30 58 C 3.6143 3.65335 -2.22967 0
M  V30 59 C 2.9403 5.00806 -1.87342 0
M  V30 60 C 4.2403 3.7352 -3.65075 0
M  V30 61 H 5.9343 1.93755 -2.28253 0
M  V30 62 H 3.4803 0.930788 -1.09874 0
M  V30 63 H 5.4333 4.06804 -1.09948 0
M  V30 64 H 4.1573 3.2624 -0.153332 0
M  V30 65 H 2.8163 2.89169 -2.25337 0
M  V30 66 H 2.4643 4.95233 -0.880545 0
M  V30 67 H 2.1643 5.26529 -2.60846 0
M  V30 68 H 3.6883 5.81687 -1.85667 0
M  V30 69 H 5.1023 4.42168 -3.64911 0
M  V30 70 H 3.4993 4.10731 -4.37516 0
M  V30 71 H 4.5693 2.74527 -3.99703 0
M  V30 72 N 5.9124 1.20967 1.01018 0
M  V30 73 C 7.1584 1.02526 1.74975 0
M  V30 74 C 7.4914 -0.4408 1.89131 0
M  V30 75 O 6.7664 -1.32718 1.42184 0
M  V30 76 C 7.0494 1.71699 3.1653 0
M  V30 77 C 6.9024 3.25791 3.10129 0
M  V30 78 C 8.2214 1.45531 4.15342 0
M  V30 79 H 5.3404 0.373863 0.635134 0
M  V30 80 H 7.9824 1.49071 1.17805 0
M  V30 81 H 6.1324 1.32128 3.65341 0
M  V30 82 H 7.8044 3.74697 2.69072 0
M  V30 83 H 6.0474 3.56363 2.47362 0
M  V30 84 H 6.7184 3.69353 4.10222 0
M  V30 85 H 9.1944 1.79872 3.75213 0
M  V30 86 H 8.0704 1.96453 5.1254 0
M  V30 87 H 8.3314 0.384237 4.40427 0
M  V30 88 N 7.3905 -1.2043 1.01659 0
M  V30 89 C 8.3205 -2.25466 0.607226 0
M  V30 90 C 9.3015 -1.65853 -0.377716 0
M  V30 91 O 10.4865 -1.92409 -0.263149 0
M  V30 92 C 7.6165 -3.47256 -0.0552949 0
M  V30 93 C 6.5705 -4.19462 0.850632 0
M  V30 94 C 5.8965 -5.34673 0.0538859 0
M  V30 95 C 7.1965 -4.75603 2.15868 0
M  V30 96 H 8.8905 -2.59962 1.48526 0
M  V30 97 H 6.4365 -1.2496 0.715605 0
M  V30 98 H 8.3895 -4.19917 -0.353233 0
M  V30 99 H 7.1135 -3.11924 -0.968045 0
M  V30 100 H 5.7725 -3.48667 1.13257 0
M  V30 101 H 5.4205 -4.95585 -0.860514 0
M  V30 102 H 5.1205 -5.83913 0.657192 0
M  V30 103 H 6.6445 -6.10138 -0.237598 0
M  V30 104 H 8.0585 -5.40083 1.92311 0
M  V30 105 H 6.4555 -5.3528 2.71284 0
M  V30 106 H 7.5255 -3.94346 2.82169 0
M  V30 107 N 8.8686 -0.792821 -1.36206 0
M  V30 108 C 9.7986 -0.207853 -2.32573 0
M  V30 109 C 10.7796 0.659055 -1.56813 0
M  V30 110 O 11.9646 0.592176 -1.84951 0
M  V30 111 C 9.0946 0.655449 -3.41059 0
M  V30 112 C 8.0486 -0.111842 -4.27854 0
M  V30 113 C 7.3746 0.872274 -5.27537 0
M  V30 114 C 8.6746 -1.30299 -5.05786 0
M  V30 115 H 10.3686 -1.01294 -2.81744 0
M  V30 116 H 7.9146 -0.48854 -1.3546 0
M  V30 117 H 9.8676 1.07464 -4.07467 0
M  V30 118 H 8.5916 1.49328 -2.90463 0
M  V30 119 H 7.2506 -0.512053 -3.63006 0
M  V30 120 H 6.8986 1.70523 -4.73214 0
M  V30 121 H 6.5986 0.363291 -5.86476 0
M  V30 122 H 8.1226 1.28996 -5.96818 0
M  V30 123 H 9.5366 -0.959379 -5.65216 0
M  V30 124 H 7.9336 -1.7455 -5.74154 0
M  V30 125 H 9.0036 -2.09663 -4.37229 0
M  V30 126 N 10.3467 1.47872 -0.545128 0
M  V30 127 C 11.2767 2.32661 0.197793 0
M  V30 128 C 12.2577 1.43041 0.920504 0
M  V30 129 O 13.4427 1.71912 0.90333 0
M  V30 130 C 10.5727 3.24569 1.23582 0
M  V30 131 C 9.5267 4.23333 0.630323 0
M  V30 132 C 8.8527 5.0448 1.77211 0
M  V30 133 C 10.1527 5.20704 -0.407974 0
M  V30 134 H 11.8467 2.95024 -0.510045 0
M  V30 135 H 9.3927 1.4187 -0.246731 0
M  V30 136 H 11.3457 3.8272 1.76362 0
M  V30 137 H 10.0697 2.60236 1.97344 0
M  V30 138 H 8.7287 3.6639 0.123922 0
M  V30 139 H 8.3767 4.36561 2.49847 0
M  V30 140 H 8.0767 5.71339 1.37281 0
M  V30 141 H 9.6007 5.65487 2.3034 0
M  V30 142 H 11.0147 5.7329 0.033305 0
M  V30 143 H 9.4117 5.95699 -0.725486 0
M  V30 144 H 10.4817 4.66917 -1.30828 0
M  V30 145 N 11.8248 0.280983 1.55075 0
M  V30 146 C 13.0498 -0.340154 2.04592 0
M  V30 147 C 13.4748 -1.48246 1.15779 0
M  V30 148 O 12.8328 -1.80614 0.15761 0
M  V30 149 C 12.8808 -0.793104 3.5177 0
M  V30 150 O 11.9848 -1.89981 3.66034 0
M  V30 151 H 11.3258 -0.0694289 0.66036 0
M  V30 152 H 13.8558 0.416993 2.00306 0
M  V30 153 H 13.8658 -1.08729 3.93245 0
M  V30 154 H 12.5408 0.0426163 4.15878 0
M  V30 155 H 11.1178 -1.60771 3.36463 0
M  V30 156 N 13.3029 -1.57598 0.00835791 0
M  V30 157 C 14.2329 -2.1198 -0.979113 0
M  V30 158 C 15.2139 -1.03091 -1.35301 0
M  V30 159 O 16.3989 -1.30818 -1.43528 0
M  V30 160 C 13.5289 -2.62995 -2.26828 0
M  V30 161 C 12.4829 -3.76485 -2.03576 0
M  V30 162 C 11.8089 -4.13846 -3.38579 0
M  V30 163 C 13.1089 -5.0342 -1.39161 0
M  V30 164 H 14.8029 -2.94738 -0.526281 0
M  V30 165 H 12.3489 -1.41783 -0.251704 0
M  V30 166 H 14.3019 -2.99669 -2.96271 0
M  V30 167 H 13.0259 -1.7737 -2.7424 0
M  V30 168 H 11.6849 -3.40217 -1.36557 0
M  V30 169 H 11.3329 -3.25232 -3.83709 0
M  V30 170 H 11.0329 -4.90312 -3.23834 0
M  V30 171 H 12.5569 -4.53086 -4.09323 0
M  V30 172 H 13.9709 -5.37812 -1.98573 0
M  V30 173 H 12.3679 -5.84746 -1.34878 0
M  V30 174 H 13.4379 -4.83548 -0.361868 0
M  V30 175 N 14.781 0.264519 -1.55364 0
M  V30 176 C 16.028 0.994986 -1.7637 0
M  V30 177 C 16.356 1.85976 -0.5695 0
M  V30 178 O 15.611 1.90509 0.44776 0
M  V30 179 C 15.91 1.9004 -3.02687 0
M  V30 180 C 15.576 1.19243 -4.34847 0
M  V30 181 C 14.238 0.996709 -4.70764 0
M  V30 182 C 16.59 0.689296 -5.16622 0
M  V30 183 C 13.918 0.285261 -5.86006 0
M  V30 184 C 16.27 -0.00860079 -6.32599 0
M  V30 185 C 14.934 -0.215963 -6.67151 0
M  V30 186 H 14.204 0.364091 -0.645383 0
M  V30 187 H 16.851 0.266543 -1.89636 0
M  V30 188 H 15.156 2.69533 -2.84357 0
M  V30 189 H 16.853 2.46695 -3.16137 0
M  V30 190 H 13.443 1.3549 -4.06621 0
M  V30 191 H 17.627 0.828108 -4.89342 0
M  V30 192 H 12.883 0.113961 -6.11294 0
M  V30 193 H 17.057 -0.406186 -6.95214 0
M  V30 194 H 14.684 -0.769217 -7.56298 0
M  V30 195 N 16.2591 1.48442 0.529413 0
M  V30 196 C 17.1891 1.65902 1.64313 0
M  V30 197 C 18.1701 0.507897 1.6234 0
M  V30 198 O 19.3551 0.740503 1.79528 0
M  V30 199 C 16.4851 1.69911 3.02898 0
M  V30 200 C 15.4391 2.8453 3.19729 0
M  V30 201 C 14.7651 2.73629 4.59381 0
M  V30 202 C 16.0651 4.25821 3.02447 0
M  V30 203 H 17.7591 2.5914 1.49955 0
M  V30 204 H 15.3051 1.24709 0.719982 0
M  V30 205 H 17.2581 1.80715 3.80684 0
M  V30 206 H 15.9821 0.732524 3.18279 0
M  V30 207 H 14.6411 2.73283 2.44361 0
M  V30 208 H 14.2891 1.74938 4.71599 0
M  V30 209 H 13.9891 3.50541 4.71588 0
M  V30 210 H 15.5131 2.86401 5.39265 0
M  V30 211 H 16.9271 4.37898 3.70024 0
M  V30 212 H 15.3241 5.03735 3.26146 0
M  V30 213 H 16.3941 4.42244 1.98867 0
M  V30 214 N 17.7372 -0.778329 1.37039 0
M  V30 215 C 18.6672 -1.90546 1.34962 0
M  V30 216 C 19.6482 -1.68681 0.219274 0
M  V30 217 O 20.8332 -1.89634 0.418624 0
M  V30 218 C 17.9632 -3.27734 1.14925 0
M  V30 219 C 16.9172 -3.64147 2.24902 0
M  V30 220 C 16.2432 -4.99806 1.89996 0
M  V30 221 C 17.5432 -3.71579 3.67051 0
M  V30 222 H 19.2372 -1.92541 2.29277 0
M  V30 223 H 16.7832 -0.924948 1.10366 0
M  V30 224 H 18.7362 -4.06215 1.12104 0
M  V30 225 H 17.4602 -3.26154 0.170631 0
M  V30 226 H 16.1192 -2.8797 2.26868 0
M  V30 227 H 15.7672 -4.94759 0.906796 0
M  V30 228 H 15.4672 -5.25139 2.63634 0
M  V30 229 H 16.9912 -5.80694 1.88749 0
M  V30 230 H 18.4052 -4.40227 3.67251 0
M  V30 231 H 16.8022 -4.08405 4.39688 0
M  V30 232 H 17.8722 -2.72404 4.01154 0
M  V30 233 N 19.2153 -1.21501 -1.00376 0
M  V30 234 C 20.4633 -1.03095 -1.73827 0
M  V30 235 C 20.7843 0.436341 -1.90055 0
M  V30 236 O 20.0543 1.31466 -1.45236 0
M  V30 237 H 18.6343 -0.378487 -0.644016 0
M  V30 238 H 21.2963 -1.52831 -1.20949 0
M  V30 239 H 20.3923 -1.49991 -2.73695 0
M  V30 240 N 20.6934 1.19889 -1.02296 0
M  V30 241 C 21.9414 1.89046 -0.714558 0
M  V30 242 C 22.2624 1.79636 0.758681 0
M  V30 243 O 21.5324 1.20292 1.54618 0
M  V30 244 H 20.1124 0.699802 -0.261317 0
M  V30 245 H 22.7744 1.45574 -1.29592 0
M  V30 246 H 21.8704 2.95524 -1.0036 0
M  V30 247 N 22.1715 0.800033 1.35784 0
M  V30 248 C 23.1035 0.163596 2.28615 0
M  V30 249 C 24.1165 -0.633317 1.49976 0
M  V30 250 O 25.3055 -0.466754 1.72289 0
M  V30 251 C 22.4055 -0.790958 3.29541 0
M  V30 252 C 21.5785 -0.0418255 4.3738 0
M  V30 253 C 20.6375 -0.91389 5.18203 0
M  V30 254 O 19.6635 -0.367234 5.68014 0
M  V30 255 N 20.8655 -2.23682 5.35674 0
M  V30 256 H 23.6305 0.96105 2.83873 0
M  V30 257 H 21.1915 0.654894 1.48063 0
M  V30 258 H 23.1835 -1.37844 3.80501 0
M  V30 259 H 21.7535 -1.48925 2.74846 0
M  V30 260 H 20.9735 0.726813 3.87442 0
M  V30 261 H 22.2615 0.474719 5.06581 0
M  V30 262 H 21.6595 -2.70497 4.96838 0
M  V30 263 H 20.2165 -2.77369 5.89839 0
M  V30 264 N 23.6496 -1.47581 0.552962 0
M  V30 265 C 24.6126 -2.28439 -0.186605 0
M  V30 266 C 25.6126 -1.36706 -0.84665 0
M  V30 267 O 26.8026 -1.59378 -0.703164 0
M  V30 268 C 23.9346 -3.16264 -1.2724 0
M  V30 269 H 25.1276 -2.95294 0.523609 0
M  V30 270 H 22.6806 -1.532 0.309745 0
M  V30 271 H 23.4156 -2.54091 -2.01514 0
M  V30 272 H 23.2006 -3.83769 -0.803968 0
M  V30 273 H 24.6906 -3.77198 -1.79196 0
M  V30 274 N 25.1277 -0.289203 -1.54924 0
M  V30 275 C 26.0597 0.625583 -2.20497 0
M  V30 276 C 27.0727 1.10667 -1.19402 0
M  V30 277 O 28.2617 1.02615 -1.46056 0
M  V30 278 C 25.3617 1.86702 -2.82835 0
M  V30 279 C 24.5347 1.5304 -4.09753 0
M  V30 280 C 23.5937 2.62576 -4.56005 0
M  V30 281 O 22.6197 2.28167 -5.21468 0
M  V30 282 N 23.8217 3.92901 -4.27328 0
M  V30 283 H 26.5867 0.0642801 -2.99631 0
M  V30 284 H 24.1477 -0.110896 -1.6152 0
M  V30 285 H 26.1397 2.59304 -3.10715 0
M  V30 286 H 24.7097 2.33702 -2.07611 0
M  V30 287 H 23.9297 0.637564 -3.8901 0
M  V30 288 H 25.2177 1.28072 -4.92418 0
M  V30 289 H 24.6157 4.23671 -3.74859 0
M  V30 290 H 23.1727 4.61837 -4.59946 0
M  V30 291 N 26.6058 1.57591 -0.0167156 0
M  V30 292 C 27.5558 2.05953 0.978137 0
M  V30 293 C 28.5398 0.957532 1.29306 0
M  V30 294 O 29.7318 1.22119 1.28125 0
M  V30 295 C 26.8608 2.58006 2.26468 0
M  V30 296 C 25.9468 3.75113 1.97867 0
M  V30 297 N 26.3378 4.86187 1.39486 0
M  V30 298 C 24.6358 3.83363 2.27924 0
M  V30 299 C 25.3368 5.67502 1.27735 0
M  V30 300 N 24.3128 5.14023 1.76866 0
M  V30 301 H 28.1148 2.89236 0.521522 0
M  V30 302 H 25.6288 1.61301 0.188596 0
M  V30 303 H 27.6258 2.90937 2.98599 0
M  V30 304 H 26.2858 1.76148 2.72767 0
M  V30 305 H 27.2968 5.06695 1.07147 0
M  V30 306 H 23.9738 3.1239 2.76982 0
M  V30 307 H 25.3638 6.66791 0.826978 0
M  V30 308 N 28.0839 -0.256276 1.55502 0
M  V30 309 C 29.3299 -0.987079 1.77157 0
M  V30 310 C 29.6629 -1.85327 0.580315 0
M  V30 311 O 28.9379 -1.89874 -0.421686 0
M  V30 312 C 29.2209 -1.85553 3.08613 0
M  V30 313 C 29.0739 -1.01816 4.38125 0
M  V30 314 C 30.3929 -2.8397 3.36228 0
M  V30 315 H 27.5119 -0.357428 0.644526 0
M  V30 316 H 30.1539 -0.258239 1.88237 0
M  V30 317 H 28.3039 -2.47695 2.99298 0
M  V30 318 H 29.9759 -0.416159 4.59419 0
M  V30 319 H 28.2189 -0.322178 4.32602 0
M  V30 320 H 28.8899 -1.65939 5.26468 0
M  V30 321 H 31.3659 -2.31964 3.45445 0
M  V30 322 H 30.2419 -3.41864 4.29442 0
M  V30 323 H 30.5029 -3.59955 2.56681 0
M  V30 324 N 29.562 -1.4872 -0.521534 0
M  V30 325 C 30.787 -1.61101 -1.30618 0
M  V30 326 C 31.212 -0.274611 -1.86085 0
M  V30 327 O 30.57 0.754937 -1.64834 0
M  V30 328 C 30.618 -2.66709 -2.4269 0
M  V30 329 O 29.722 -2.24456 -3.45967 0
M  V30 330 H 29.063 -0.539921 -0.386499 0
M  V30 331 H 31.593 -1.94767 -0.626645 0
M  V30 332 H 31.603 -2.88245 -2.88754 0
M  V30 333 H 30.278 -3.63727 -2.01682 0
M  V30 334 H 28.855 -2.13168 -3.05964 0
M  V30 335 N 31.0401 0.771051 -1.3745 0
M  V30 336 C 32.3171 1.519 -1.23231 0
M  V30 337 C 32.6971 2.10383 0.173809 0
M  V30 338 O 32.0451 1.95583 1.18151 0
M  V30 339 C 32.2551 2.59933 -2.32886 0
M  V30 340 C 33.6031 3.27316 -2.70461 0
M  V30 341 O 34.6271 2.70228 -2.32068 0
M  V30 342 O 33.4861 4.30531 -3.36608 0
M  V30 343 H 30.5801 0.672803 -0.480901 0
M  V30 344 H 33.1261 0.807957 -1.49232 0
M  V30 345 H 31.8981 2.14842 -3.27045 0
M  V30 346 H 31.5211 3.38637 -2.08353 0
M  V30 347 N 32.5182 1.22032 0.997298 0
M  V30 348 C 33.7642 1.05382 1.73972 0
M  V30 349 C 34.1192 -0.407419 1.88037 0
M  V30 350 O 33.4122 -1.29811 1.40924 0
M  V30 351 C 33.6062 1.69345 3.14733 0
M  V30 352 C 33.4352 3.21537 3.14395 0
M  V30 353 C 32.2052 3.9062 3.20537 0
M  V30 354 C 34.4032 4.18527 2.98897 0
M  V30 355 N 32.3852 5.29935 3.09906 0
M  V30 356 C 33.7562 5.44645 2.96247 0
M  V30 357 C 35.8112 4.09476 2.83255 0
M  V30 358 C 34.5142 6.62752 2.79557 0
M  V30 359 C 36.5402 5.27228 2.67926 0
M  V30 360 C 35.9022 6.52262 2.65959 0
M  V30 361 H 32.0012 0.440018 0.646458 0
M  V30 362 H 34.5852 1.54505 1.18475 0
M  V30 363 H 32.7562 1.22778 3.68484 0
M  V30 364 H 34.4882 1.45828 3.77513 0
M  V30 365 H 31.2432 3.41592 3.28043 0
M  V30 366 H 31.6672 6.02926 3.07912 0
M  V30 367 H 36.3092 3.13598 2.83577 0
M  V30 368 H 34.0272 7.58783 2.77982 0
M  V30 369 H 37.6132 5.22053 2.56812 0
M  V30 370 H 36.4932 7.41844 2.54239 0
M  V30 371 N 33.9963 -1.19345 1.0293 0
M  V30 372 C 35.2243 -1.92997 0.745644 0
M  V30 373 C 35.6393 -1.75519 -0.695589 0
M  V30 374 O 34.9963 -1.07737 -1.47306 0
M  V30 375 C 35.0473 -3.44741 1.08792 0
M  V30 376 O 34.7683 -3.61658 2.47256 0
M  V30 377 C 36.2693 -4.35515 0.827129 0
M  V30 378 H 33.4893 -0.613042 0.272801 0
M  V30 379 H 36.0333 -1.51473 1.3739 0
M  V30 380 H 34.1883 -3.84097 0.504832 0
M  V30 381 H 34.6023 -4.55514 2.60015 0
M  V30 382 H 36.0763 -5.40589 1.11658 0
M  V30 383 H 36.5533 -4.38552 -0.238436 0
M  V30 384 H 37.1593 -4.01841 1.39297 0
M  V30 385 N 35.4744 -0.807222 -1.35358 0
M  V30 386 C 36.7044 -0.399796 -2.02695 0
M  V30 387 C 37.1124 0.994176 -1.60974 0
M  V30 388 O 36.4554 1.65209 -0.803226 0
M  V30 389 C 36.5174 -0.404445 -3.57218 0
M  V30 390 C 36.1814 -1.74904 -4.22206 0
M  V30 391 C 37.1784 -2.70743 -4.4384 0
M  V30 392 C 34.8634 -2.03322 -4.5931 0
M  V30 393 C 36.8574 -3.93183 -5.01683 0
M  V30 394 C 34.5444 -3.26026 -5.16866 0
M  V30 395 C 35.5424 -4.20774 -5.37994 0
M  V30 396 O 35.2304 -5.41312 -5.94337 0
M  V30 397 H 34.9624 -0.160517 -0.656666 0
M  V30 398 H 37.5164 -1.09235 -1.73945 0
M  V30 399 H 35.7464 0.344707 -3.85161 0
M  V30 400 H 37.4354 -0.0192429 -4.05895 0
M  V30 401 H 38.2014 -2.5008 -4.15554 0
M  V30 402 H 34.0804 -1.30384 -4.42178 0
M  V30 403 H 37.6244 -4.6715 -5.1809 0
M  V30 404 H 33.5214 -3.46559 -5.44579 0
M  V30 405 H 34.2894 -5.42618 -6.12787 0
M  V30 406 N 36.9525 1.47285 -0.560781 0
M  V30 407 C 38.1775 2.07359 -0.0410566 0
M  V30 408 C 38.6025 1.41017 1.24483 0
M  V30 409 O 37.9605 0.486368 1.74654 0
M  V30 410 C 38.0085 3.6035 0.134123 0
M  V30 411 O 37.1125 3.94681 1.19587 0
M  V30 412 H 36.4535 0.661887 -0.0529291 0
M  V30 413 H 38.9835 1.89252 -0.777482 0
M  V30 414 H 38.9935 4.0652 0.347207 0
M  V30 415 H 37.6685 4.08034 -0.805047 0
M  V30 416 H 36.2455 3.60251 0.962987 0
M  V30 417 N 38.4306 0.297415 1.54768 0
M  V30 418 C 39.3406 -0.58983 2.27064 0
M  V30 419 C 40.3566 -1.15144 1.30453 0
M  V30 420 O 41.5326 -1.17699 1.63428 0
M  V30 421 C 38.5976 -1.74714 2.9946 0
M  V30 422 C 37.6586 -1.21997 4.11601 0
M  V30 423 C 36.8916 -2.32212 4.80535 0
M  V30 424 O 37.1146 -3.52036 4.48806 0
M  V30 425 O 36.0486 -1.99106 5.68014 0
M  V30 426 H 39.8746 -0.00348199 3.037 0
M  V30 427 H 37.4596 0.0640035 1.49263 0
M  V30 428 H 39.3416 -2.42147 3.44881 0
M  V30 429 H 38.0166 -2.32016 2.25722 0
M  V30 430 H 36.9236 -0.511458 3.70587 0
M  V30 431 H 38.2566 -0.692419 4.87305 0
M  V30 432 N 39.9087 -1.5758 0.0250728 0
M  V30 433 C 41.1567 -1.91255 -0.653151 0
M  V30 434 C 41.4777 -0.901691 -1.729 0
M  V30 435 O 40.7477 0.0573785 -1.95816 0
M  V30 436 H 39.3277 -0.705942 -0.244243 0
M  V30 437 H 41.9897 -1.94767 0.0719209 0
M  V30 438 H 41.0857 -2.91752 -1.10847 0
M  V30 439 N 41.3868 0.248026 -1.55636 0
M  V30 440 C 42.3498 1.29044 -1.89421 0
M  V30 441 C 43.3498 1.41134 -0.770581 0
M  V30 442 O 44.5398 1.39854 -1.03858 0
M  V30 443 C 41.6718 2.66831 -2.12165 0
M  V30 444 H 42.8648 1.00305 -2.82629 0
M  V30 445 H 40.4178 0.487265 -1.48511 0
M  V30 446 H 41.1528 3.00711 -1.21422 0
M  V30 447 H 40.9378 2.59438 -2.93997 0
M  V30 448 H 42.4278 3.42103 -2.3949 0
M  V30 449 N 42.8649 1.48995 0.513639 0
M  V30 450 C 43.7949 1.67636 1.62544 0
M  V30 451 C 44.7759 0.525087 1.61793 0
M  V30 452 O 45.9609 0.759502 1.78732 0
M  V30 453 C 43.0909 1.73114 3.01079 0
M  V30 454 C 42.0449 2.87905 3.16693 0
M  V30 455 C 41.3709 2.78486 4.56453 0
M  V30 456 C 42.6709 4.29005 2.97913 0
M  V30 457 H 44.3649 2.60716 1.47198 0
M  V30 458 H 41.9109 1.25465 0.706714 0
M  V30 459 H 43.8639 1.84742 3.78746 0
M  V30 460 H 42.5879 0.766241 3.17484 0
M  V30 461 H 41.2469 2.75859 2.41448 0
M  V30 462 H 40.8949 1.7993 4.69717 0
M  V30 463 H 40.5949 3.55523 4.67843 0
M  V30 464 H 42.1189 2.92104 5.36197 0
M  V30 465 H 43.5329 4.41798 3.65359 0
M  V30 466 H 41.9299 5.07166 3.20785 0
M  V30 467 H 42.9999 4.44329 1.94165 0
M  V30 468 N 44.343 -0.763751 1.37857 0
M  V30 469 C 45.62 -1.51244 1.24035 0
M  V30 470 C 46 -2.10472 -0.162649 0
M  V30 471 O 45.348 -1.96206 -1.17112 0
M  V30 472 C 45.558 -2.58694 2.34261 0
M  V30 473 C 46.906 -3.25878 2.72193 0
M  V30 474 O 47.93 -2.68993 2.33497 0
M  V30 475 O 46.789 -4.2874 3.38887 0
M  V30 476 H 43.883 -0.670243 0.484462 0
M  V30 477 H 46.429 -0.800031 1.49658 0
M  V30 478 H 45.201 -2.13105 3.2818 0
M  V30 479 H 44.824 -3.37527 2.10146 0
M  V30 480 N 45.8211 -1.22559 -0.990812 0
M  V30 481 C 46.7311 -1.01394 -2.11557 0
M  V30 482 C 47.7471 0.0383962 -1.73958 0
M  V30 483 O 48.9231 -0.154787 -2.00804 0
M  V30 484 C 45.9881 -0.596569 -3.41529 0
M  V30 485 C 45.0491 -1.72276 -3.93217 0
M  V30 486 C 44.2821 -1.32521 -5.16985 0
M  V30 487 O 44.5051 -0.204909 -5.70032 0
M  V30 488 O 43.4391 -2.14247 -5.62478 0
M  V30 489 H 47.2651 -1.95633 -2.32296 0
M  V30 490 H 44.8501 -1.01172 -1.0993 0
M  V30 491 H 46.7321 -0.374263 -4.19735 0
M  V30 492 H 45.4071 0.316939 -3.22145 0
M  V30 493 H 44.3141 -1.99961 -3.16174 0
M  V30 494 H 45.6471 -2.61421 -4.17037 0
M  V30 495 N 47.2992 1.18797 -1.03562 0
M  V30 496 C 48.2622 2.20464 -0.626769 0
M  V30 497 C 49.2622 1.57721 0.313173 0
M  V30 498 O 50.4522 1.73917 0.0992615 0
M  V30 499 C 47.5842 3.40802 0.0818498 0
M  V30 500 H 48.7772 2.58149 -1.5264 0
M  V30 501 H 46.3302 1.32593 -0.827578 0
M  V30 502 H 47.0652 3.08642 0.995518 0
M  V30 503 H 46.8502 3.8758 -0.593652 0
M  V30 504 H 48.3402 4.16092 0.354584 0
M  V30 505 N 48.7773 0.814389 1.34928 0
M  V30 506 C 49.7273 0.202752 2.27097 0
M  V30 507 C 50.7113 -0.62799 1.48139 0
M  V30 508 O 51.9033 -0.483969 1.70255 0
M  V30 509 C 49.0323 -0.64146 3.37254 0
M  V30 510 C 48.1183 0.19944 4.23631 0
M  V30 511 N 48.5093 1.26628 4.89693 0
M  V30 512 C 46.8073 -0.0176433 4.45997 0
M  V30 513 C 47.5083 1.78031 5.53787 0
M  V30 514 N 46.4843 1.08553 5.32651 0
M  V30 515 H 50.2863 1.01893 2.75672 0
M  V30 516 H 47.8003 0.656332 1.48546 0
M  V30 517 H 49.7973 -1.09575 4.02243 0
M  V30 518 H 48.4573 -1.4559 2.9023 0
M  V30 519 H 49.4683 1.64901 4.90946 0
M  V30 520 H 46.1453 -0.800601 4.09752 0
M  V30 521 H 47.5353 2.67236 6.16469 0
M  V30 522 N 50.2554 -1.46986 0.568584 0
M  V30 523 C 51.5014 -2.0332 0.0571487 0
M  V30 524 C 51.8564 -1.43384 -1.28291 0
M  V30 525 O 51.1494 -0.584304 -1.82473 0
M  V30 526 C 51.3434 -3.57306 -0.081836 0
M  V30 527 C 51.1724 -4.32174 1.24321 0
M  V30 528 C 49.9424 -4.71633 1.81358 0
M  V30 529 C 52.1404 -4.66598 2.16312 0
M  V30 530 N 50.1224 -5.31191 3.07748 0
M  V30 531 C 51.4934 -5.26578 3.27285 0
M  V30 532 C 53.5484 -4.48527 2.16166 0
M  V30 533 C 52.2514 -5.70395 4.38226 0
M  V30 534 C 54.2774 -4.93351 3.26127 0
M  V30 535 C 53.6394 -5.5339 4.3582 0
M  V30 536 H 49.7384 -0.77943 0.063351 0
M  V30 537 H 52.3224 -1.79323 0.758378 0
M  V30 538 H 50.4934 -3.81046 -0.752207 0
M  V30 539 H 52.2254 -4.00282 -0.59637 0
M  V30 540 H 48.9804 -4.53946 1.35019 0
M  V30 541 H 49.4044 -5.65505 3.72201 0
M  V30 542 H 54.0464 -4.01456 1.32638 0
M  V30 543 H 51.7644 -6.16452 5.22506 0
M  V30 544 H 55.3504 -4.81131 3.27115 0
M  V30 545 H 54.2304 -5.87441 5.19503 0
M  V30 546 N 51.7335 -0.305618 -1.54608 0
M  V30 547 C 53.1445 0.186098 -1.8577 0
M  V30 548 C 53.4955 1.53058 -1.22751 0
M  V30 549 O 52.6205 2.09888 -0.526893 0
M  V30 550 C 53.2155 0.344449 -3.37044 0
M  V30 551 C 51.7745 0.780384 -3.68221 0
M  V30 552 C 50.9215 -0.108554 -2.77087 0
M  V30 553 H 53.8725 -0.526485 -1.49712 0
M  V30 554 H 53.8935 1.17828 -3.61796 0
M  V30 555 H 53.4055 -0.634235 -3.82883 0
M  V30 556 H 51.5065 1.76945 -3.27904 0
M  V30 557 H 51.6195 0.596572 -4.75371 0
M  V30 558 H 49.9835 0.412931 -2.5133 0
M  V30 559 H 50.7665 -1.08368 -3.25747 0
M  V30 560 N 53.2116 1.57565 -0.0334293 0
M  V30 561 C 54.1436 2.0739 0.975811 0
M  V30 562 C 55.1566 0.998166 1.2861 0
M  V30 563 O 56.3456 1.27426 1.25 0
M  V30 564 C 53.4456 2.4871 2.30209 0
M  V30 565 C 52.6186 3.79413 2.17634 0
M  V30 566 C 51.6776 4.07237 3.33233 0
M  V30 567 O 50.7036 4.77425 3.09927 0
M  V30 568 N 51.9056 3.5775 4.5716 0
M  V30 569 H 54.6706 2.94598 0.55066 0
M  V30 570 H 52.2316 1.61173 0.15323 0
M  V30 571 H 54.2236 2.64413 3.06378 0
M  V30 572 H 52.7936 1.66845 2.64351 0
M  V30 573 H 52.0136 3.73465 1.26165 0
M  V30 574 H 53.3016 4.65038 2.0644 0
M  V30 575 H 52.6996 3.00976 4.78989 0
M  V30 576 H 51.2566 3.78724 5.30482 0
M  V30 577 N 54.6897 -0.239769 1.55765 0
M  V30 578 C 55.6397 -1.30002 1.87306 0
M  V30 579 C 56.6237 -1.43156 0.73452 0
M  V30 580 O 57.8157 -1.46277 0.99659 0
M  V30 581 C 54.9447 -2.65409 2.17745 0
M  V30 582 C 54.0307 -2.56231 3.37945 0
M  V30 583 N 54.4217 -2.16689 4.57033 0
M  V30 584 C 52.7197 -2.87229 3.41197 0
M  V30 585 C 53.4207 -2.18318 5.39177 0
M  V30 586 N 52.3967 -2.58098 4.78421 0
M  V30 587 H 56.1987 -0.984912 2.76906 0
M  V30 588 H 53.7127 -0.448381 1.56087 0
M  V30 589 H 55.7097 -3.41934 2.38509 0
M  V30 590 H 54.3697 -2.97781 1.29448 0
M  V30 591 H 55.3807 -1.88116 4.82528 0
M  V30 592 H 52.0577 -3.24094 2.63191 0
M  V30 593 H 53.4477 -1.90025 6.44469 0
M  V30 594 N 56.1678 -1.49265 -0.50573 0
M  V30 595 C 57.3978 -1.61979 -1.28243 0
M  V30 596 C 57.8058 -0.288576 -1.86986 0
M  V30 597 O 57.1488 0.735408 -1.68337 0
M  V30 598 C 57.2108 -2.62632 -2.45489 0
M  V30 599 C 56.8748 -4.071 -2.07651 0
M  V30 600 C 57.8718 -4.94049 -1.61901 0
M  V30 601 C 55.5568 -4.52801 -2.17431 0
M  V30 602 C 57.5508 -6.24736 -1.26428 0
M  V30 603 C 55.2378 -5.83503 -1.8157 0
M  V30 604 C 56.2358 -6.69294 -1.36142 0
M  V30 605 O 55.9238 -7.9756 -1.00764 0
M  V30 606 H 55.6558 -0.54834 -0.395347 0
M  V30 607 H 58.2098 -1.96002 -0.614204 0
M  V30 608 H 56.4398 -2.2378 -3.15372 0
M  V30 609 H 58.1288 -2.64925 -3.07522 0
M  V30 610 H 58.8948 -4.5997 -1.53795 0
M  V30 611 H 54.7738 -3.86196 -2.51742 0
M  V30 612 H 58.3178 -6.91652 -0.908992 0
M  V30 613 H 54.2148 -6.17112 -1.89324 0
M  V30 614 H 54.9828 -8.10529 -1.13952 0
M  V30 615 N 57.6459 0.756429 -1.3826 0
M  V30 616 C 59.0569 1.33359 -1.30661 0
M  V30 617 C 59.4079 1.96161 0.0388875 0
M  V30 618 O 58.5329 1.94874 0.940918 0
M  V30 619 C 59.1279 2.42477 -2.36622 0
M  V30 620 C 57.6869 2.95922 -2.3261 0
M  V30 621 C 56.8339 1.69275 -2.19639 0
M  V30 622 H 59.7849 0.55552 -1.4866 0
M  V30 623 H 59.8059 3.22345 -2.02174 0
M  V30 624 H 59.3179 1.96739 -3.34538 0
M  V30 625 H 57.4189 3.45996 -1.38267 0
M  V30 626 H 57.5319 3.50494 -3.26636 0
M  V30 627 H 55.8959 1.92793 -1.66442 0
M  V30 628 H 56.6789 1.25619 -3.19491 0
M  V30 629 N 59.124 1.23083 0.984299 0
M  V30 630 C 60.087 1.00979 2.05757 0
M  V30 631 C 61.087 -0.0269573 1.60777 0
M  V30 632 O 62.277 0.212403 1.729 0
M  V30 633 C 59.409 0.527072 3.36801 0
M  V30 634 H 60.602 1.9622 2.26799 0
M  V30 635 H 58.155 1.05072 1.15714 0
M  V30 636 H 58.89 -0.429294 3.21446 0
M  V30 637 H 58.675 1.27515 3.70786 0
M  V30 638 H 60.165 0.392942 4.15747 0
M  V30 639 N 60.6021 -1.18246 1.0419 0
M  V30 640 C 61.8421 -1.89948 0.754916 0
M  V30 641 C 62.2061 -1.78608 -0.70451 0
M  V30 642 O 63.4071 -2.4503 -1.10516 0
M  V30 643 C 61.6781 -3.36305 1.20969 0
M  V30 644 S 63.2371 -4.26088 1.04854 0
M  V30 645 H 60.0551 -0.655897 0.274446 0
M  V30 646 H 62.6571 -1.42873 1.33445 0
M  V30 647 H 61.3611 -3.42089 2.26722 0
M  V30 648 H 60.8921 -3.8842 0.624004 0
M  V30 649 H 62.9071 -4.96189 -0.0332896 0
M  V30 650 N 62.0802 -0.821533 -1.34494 0
M  V30 651 C 63.3282 -0.408139 -1.97936 0
M  V30 652 C 63.6492 1.03193 -1.65457 0
M  V30 653 O 62.9192 1.71622 -0.944595 0
M  V30 654 H 61.4992 -0.147928 -0.732206 0
M  V30 655 H 64.1612 -1.05067 -1.64155 0
M  V30 656 H 63.2572 -0.52601 -3.07635 0
M  V30 657 N 63.5583 1.46682 -0.576371 0
M  V30 658 C 64.8063 2.02013 -0.0594163 0
M  V30 659 C 65.1273 1.45101 1.30271 0
M  V30 660 O 64.3973 0.633317 1.8538 0
M  V30 661 H 62.9773 0.746759 -0.0189745 0
M  V30 662 H 65.6393 1.79862 -0.750717 0
M  V30 663 H 64.7353 3.12097 0.014345 0
M  V30 664 N 65.0364 0.313813 1.54444 0
M  V30 665 C 65.9684 -0.590425 2.21465 0
M  V30 666 C 66.9814 -1.08753 1.21147 0
M  V30 667 O 68.1704 -1.00278 1.4767 0
M  V30 668 C 65.2704 -1.82179 2.85769 0
M  V30 669 C 64.4434 -1.46502 4.12136 0
M  V30 670 C 63.5024 -2.55288 4.60124 0
M  V30 671 O 62.5284 -2.19842 5.25032 0
M  V30 672 N 63.7304 -3.86053 4.33525 0
M  V30 673 H 66.4954 -0.0166033 2.99695 0
M  V30 674 H 64.0564 0.136578 1.61323 0
M  V30 675 H 66.0484 -2.54328 3.14801 0
M  V30 676 H 64.6184 -2.30369 2.11303 0
M  V30 677 H 63.8384 -0.575595 3.89975 0
M  V30 678 H 65.1264 -1.20221 4.94393 0
M  V30 679 H 64.5244 -4.17654 3.81552 0
M  V30 680 H 63.0814 -4.54461 4.67235 0
M  V30 681 N 66.5145 -1.57545 0.0417849 0
M  V30 682 C 67.9305 -1.56467 -0.314704 0
M  V30 683 C 68.1305 -1.04859 -1.72066 0
M  V30 684 O 67.1865 -0.700983 -2.42575 0
M  V30 685 C 68.4995 -3.00317 -0.15174 0
M  V30 686 C 70.0475 -3.12201 -0.223553 0
M  V30 687 C 70.5225 -4.57913 -0.0892295 0
M  V30 688 N 72.0135 -4.6297 -0.145808 0
M  V30 689 C 72.7485 -5.73362 -0.0658459 0
M  V30 690 N 72.2445 -6.92769 0.0659282 0
M  V30 691 N 74.0375 -5.6197 -0.12075 0
M  V30 692 H 66.1885 -1.89416 0.961014 0
M  V30 693 H 68.4515 -0.871862 0.372237 0
M  V30 694 H 68.1575 -3.42073 0.817254 0
M  V30 695 H 68.0315 -3.65892 -0.916692 0
M  V30 696 H 70.4185 -2.70349 -1.18301 0
M  V30 697 H 70.4995 -2.49323 0.571994 0
M  V30 698 H 70.1435 -5.00448 0.866867 0
M  V30 699 H 70.0735 -5.18786 -0.903802 0
M  V30 700 H 72.5645 -3.7709 -0.247286 0
M  V30 701 H 72.8775 -7.72707 0.119905 0
M  V30 702 H 71.2225 -6.94927 0.100885 0
M  V30 703 H 74.4135 -4.67572 -0.222187 0
M  V30 704 H 74.5865 -6.47977 -0.0549735 0
M  V30 705 N 67.9926 0.231505 -1.5589 0
M  V30 706 C 68.9246 1.31006 -1.8807 0
M  V30 707 C 69.9376 1.43539 -0.768145 0
M  V30 708 O 71.1266 1.44614 -1.04638 0
M  V30 709 C 68.2266 2.68688 -2.06543 0
M  V30 710 C 67.3996 2.78228 -3.37502 0
M  V30 711 C 66.4586 3.96857 -3.4553 0
M  V30 712 O 65.4846 3.85662 -4.18633 0
M  V30 713 N 66.6866 5.1072 -2.75944 0
M  V30 714 H 69.4516 1.03731 -2.81176 0
M  V30 715 H 67.0126 0.421573 -1.56315 0
M  V30 716 H 69.0046 3.46412 -2.09239 0
M  V30 717 H 67.5746 2.88605 -1.20109 0
M  V30 718 H 66.7946 1.87059 -3.46991 0
M  V30 719 H 68.0826 2.81564 -4.23791 0
M  V30 720 H 67.4806 5.2271 -2.16311 0
M  V30 721 H 66.0376 5.86523 -2.84314 0
M  V30 722 N 69.4707 1.49531 0.497807 0
M  V30 723 C 70.6957 1.63159 1.28039 0
M  V30 724 C 71.1207 0.30418 1.85624 0
M  V30 725 O 70.4787 -0.728618 1.66015 0
M  V30 726 C 70.5267 2.70537 2.38416 0
M  V30 727 O 69.6307 2.29931 3.42353 0
M  V30 728 H 68.9717 0.546001 0.377861 0
M  V30 729 H 71.5017 1.9574 0.59558 0
M  V30 730 H 71.5117 2.92802 2.84132 0
M  V30 731 H 70.1867 3.6689 1.95869 0
M  V30 732 H 68.7637 2.18009 3.02533 0
M  V30 733 N 70.9488 -0.749086 1.3866 0
M  V30 734 C 72.3598 -1.32664 1.31366 0
M  V30 735 C 72.7108 -1.96179 -0.028484 0
M  V30 736 O 71.8358 -1.9537 -0.93057 0
M  V30 737 C 72.4308 -2.41219 2.37905 0
M  V30 738 C 70.9898 -2.94684 2.34176 0
M  V30 739 C 70.1368 -1.68108 2.20533 0
M  V30 740 H 73.0878 -0.547628 1.48952 0
M  V30 741 H 73.1088 -3.21268 2.0388 0
M  V30 742 H 72.6208 -1.94962 3.35576 0
M  V30 743 H 70.7218 -3.45258 1.401 0
M  V30 744 H 70.8348 -3.48757 3.2849 0
M  V30 745 H 69.1988 -1.91907 1.67463 0
M  V30 746 H 69.9818 -1.23923 3.20153 0
M  V30 747 N 72.4269 -1.23603 -0.977757 0
M  V30 748 C 73.6759 -1.06377 -1.71368 0
M  V30 749 C 73.9889 0.399062 -1.91486 0
M  V30 750 O 75.1949 0.691312 -2.62551 0
M  V30 751 C 73.6509 -1.85512 -3.08404 0
M  V30 752 C 73.2589 -3.36141 -2.96164 0
M  V30 753 C 75.0029 -1.76783 -3.85938 0
M  V30 754 C 72.9099 -4.07659 -4.28449 0
M  V30 755 H 71.8399 -0.394452 -0.642591 0
M  V30 756 H 74.4909 -1.47594 -1.09034 0
M  V30 757 H 72.8729 -1.37103 -3.71509 0
M  V30 758 H 74.0469 -3.92056 -2.42133 0
M  V30 759 H 72.3619 -3.45712 -2.32104 0
M  V30 760 H 74.9589 -2.27526 -4.83876 0
M  V30 761 H 75.3019 -0.731116 -4.0983 0
M  V30 762 H 75.8349 -2.22818 -3.2954 0
M  V30 763 H 72.5739 -5.11648 -4.09752 0
M  V30 764 H 72.0939 -3.5653 -4.82334 0
M  V30 765 H 73.7729 -4.141 -4.97122 0
M  V30 766 N 73.905 1.17692 -1.04816 0
M  V30 767 C 74.853 2.23632 -0.63966 0
M  V30 768 C 75.847 1.6601 0.337219 0
M  V30 769 O 77.053 1.78844 0.203693 0
M  V30 770 H 73.428 0.727949 -0.188665 0
M  V30 771 H 75.399 2.55387 -1.54337 0
M  V30 772 C 74.148 3.4769 -0.0264051 0
M  V30 773 H 73.471 3.92331 -0.769164 0
M  V30 774 H 74.911 4.23418 0.222098 0
M  V30 775 C 73.37 3.13807 1.22584 0
M  V30 776 O 73.9 3.28236 2.31569 0
M  V30 777 N 72.106 2.68065 1.12202 0
M  V30 778 H 71.653 2.56525 0.235133 0
M  V30 779 H 71.611 2.45767 1.96076 0
M  V30 780 N 75.3831 0.828654 1.34056 0
M  V30 781 C 76.3131 0.269443 2.3194 0
M  V30 782 C 77.2941 -0.617247 1.58506 0
M  V30 783 O 78.4791 -0.542931 1.86456 0
M  V30 784 C 75.6091 -0.564793 3.42677 0
M  V30 785 C 74.5631 0.225241 4.27407 0
M  V30 786 C 73.8891 -0.7321 5.29664 0
M  V30 787 C 75.1891 1.43663 5.02154 0
M  V30 788 H 76.8831 1.08728 2.7896 0
M  V30 789 H 74.4291 0.524283 1.34117 0
M  V30 790 H 76.3821 -0.966233 4.10173 0
M  V30 791 H 75.1061 -1.41574 2.9432 0
M  V30 792 H 73.7651 0.608117 3.61521 0
M  V30 793 H 73.4131 -1.57916 4.77568 0
M  V30 794 H 73.1131 -0.20767 5.87233 0
M  V30 795 H 74.6371 -1.13128 6.00029 0
M  V30 796 H 76.0511 1.1089 5.62473 0
M  V30 797 H 74.4481 1.89711 5.69324 0
M  V30 798 H 75.5181 2.21181 4.31517 0
M  V30 799 N 76.8612 -1.46375 0.584142 0
M  V30 800 C 77.7932 -2.28443 -0.186119 0
M  V30 801 C 78.8062 -1.38596 -0.854115 0
M  V30 802 O 79.9952 -1.63183 -0.723438 0
M  V30 803 C 77.0952 -3.13671 -1.28311 0
M  V30 804 C 76.2682 -4.31652 -0.706758 0
M  V30 805 C 75.3272 -4.98267 -1.69163 0
M  V30 806 O 74.3532 -5.55815 -1.22712 0
M  V30 807 N 75.5552 -4.95408 -3.02575 0
M  V30 808 H 78.3202 -2.9519 0.517986 0
M  V30 809 H 75.8812 -1.56303 0.42201 0
M  V30 810 H 77.8732 -3.55101 -1.94128 0
M  V30 811 H 76.4432 -2.48989 -1.89005 0
M  V30 812 H 75.6632 -3.93989 0.128908 0
M  V30 813 H 76.9512 -5.07906 -0.301506 0
M  V30 814 H 76.3492 -4.49902 -3.42936 0
M  V30 815 H 74.9062 -5.40774 -3.63877 0
M  V30 816 N 78.3393 -0.321999 -1.54275 0
M  V30 817 C 79.7553 0.0306999 -1.5957 0
M  V30 818 C 79.9553 1.50614 -1.33857 0
M  V30 819 O 79.0113 2.2619 -1.12223 0
M  V30 820 C 80.3243 -0.386122 -2.98211 0
M  V30 821 C 81.8723 -0.336647 -3.11184 0
M  V30 822 C 82.3473 -0.728607 -4.52167 0
M  V30 823 N 83.8383 -0.681952 -4.58152 0
M  V30 824 C 84.5733 -0.957449 -5.6535 0
M  V30 825 N 84.0693 -1.3 -6.80494 0
M  V30 826 N 85.8623 -0.883113 -5.55119 0
M  V30 827 H 78.0133 -1.28332 -1.69247 0
M  V30 828 H 80.2763 -0.521716 -0.791528 0
M  V30 829 H 79.9823 -1.41404 -3.22022 0
M  V30 830 H 79.8563 0.249662 -3.76373 0
M  V30 831 H 82.2433 0.682058 -2.8711 0
M  V30 832 H 82.3243 -1.00734 -2.3513 0
M  V30 833 H 81.9683 -1.74522 -4.76974 0
M  V30 834 H 81.8983 -0.0356152 -5.26588 0
M  V30 835 H 84.3893 -0.428985 -3.75457 0
M  V30 836 H 84.7023 -1.49563 -7.58189 0
M  V30 837 H 83.0473 -1.33824 -6.81994 0
M  V30 838 H 86.2383 -0.615001 -4.64042 0
M  V30 839 H 86.4113 -1.10118 -6.38575 0
M  V30 840 N 79.8174 1.5752 -0.0501392 0
M  V30 841 C 81.0454 1.96963 0.633492 0
M  V30 842 C 81.4604 0.927631 1.6444 0
M  V30 843 O 80.8174 -0.0882665 1.82286 0
M  V30 844 C 80.8684 3.36487 1.32132 0
M  V30 845 O 80.5894 4.36693 0.350894 0
M  V30 846 C 82.0904 3.90682 2.09481 0
M  V30 847 H 79.3104 0.648244 0.173266 0
M  V30 848 H 81.8544 2.0417 -0.116134 0
M  V30 849 H 80.0094 3.30434 2.02218 0
M  V30 850 H 80.4234 5.17702 0.841735 0
M  V30 851 H 81.8974 4.90591 2.5303 0
M  V30 852 H 82.3744 3.26053 2.94255 0
M  V30 853 H 82.9804 4.00069 1.44307 0
M  V30 854 N 81.2955 -0.223234 1.56011 0
M  V30 855 C 82.2425 -1.27664 1.92277 0
M  V30 856 C 83.2125 -1.46659 0.779763 0
M  V30 857 O 84.3975 -1.60256 1.03551 0
M  V30 858 C 81.5375 -2.62234 2.24338 0
M  V30 859 C 80.6505 -2.51051 3.51564 0
M  V30 860 C 79.7855 -3.78133 3.7308 0
M  V30 861 C 78.8245 -3.61665 4.93827 0
M  V30 862 N 77.9615 -4.80693 5.11741 0
M  V30 863 H 82.8015 -0.960358 2.82101 0
M  V30 864 H 80.3385 -0.462901 1.39627 0
M  V30 865 H 82.2965 -3.40596 2.40936 0
M  V30 866 H 80.9265 -2.91961 1.3769 0
M  V30 867 H 79.9785 -1.64132 3.43169 0
M  V30 868 H 81.2905 -2.34803 4.40079 0
M  V30 869 H 80.4445 -4.64938 3.89766 0
M  V30 870 H 79.1835 -3.97304 2.82844 0
M  V30 871 H 78.1885 -2.73244 4.77093 0
M  V30 872 H 79.4135 -3.43966 5.85546 0
M  V30 873 H 77.3595 -5.00181 4.24446 0
M  V30 874 H 77.2765 -4.67165 5.94384 0
M  V30 875 H 78.5445 -5.6893 5.3286 0
M  V30 876 N 82.7736 -1.49793 -0.48987 0
M  V30 877 C 84.0196 -1.60078 -1.24511 0
M  V30 878 C 84.3526 -0.291608 -1.91998 0
M  V30 879 O 83.6276 0.705647 -1.81248 0
M  V30 880 C 83.9106 -2.76791 -2.30345 0
M  V30 881 C 83.7636 -4.17535 -1.67286 0
M  V30 882 C 85.0826 -2.89111 -3.31817 0
M  V30 883 H 82.2016 -0.582645 -0.451324 0
M  V30 884 H 84.8436 -1.82117 -0.541612 0
M  V30 885 H 82.9936 -2.5813 -2.90346 0
M  V30 886 H 84.6656 -4.4774 -1.11026 0
M  V30 887 H 82.9086 -4.22665 -0.976577 0
M  V30 888 H 83.5796 -4.95094 -2.44103 0
M  V30 889 H 86.0556 -3.06133 -2.81819 0
M  V30 890 H 84.9316 -3.72433 -4.03219 0
M  V30 891 H 85.1926 -1.9893 -3.94815 0
M  V30 892 N 84.2517 0.741722 -1.39055 0
M  V30 893 C 85.6677 1.04638 -1.20512 0
M  V30 894 C 85.8677 2.01405 -0.0620218 0
M  V30 895 O 84.9237 2.45547 0.588457 0
M  V30 896 C 86.2367 1.6151 -2.53643 0
M  V30 897 C 87.7847 1.73623 -2.6043 0
M  V30 898 C 88.2597 2.33906 -3.93767 0
M  V30 899 N 89.7507 2.41323 -3.9537 0
M  V30 900 C 90.4857 2.88888 -4.95309 0
M  V30 901 N 89.9817 3.36401 -6.05645 0
M  V30 902 N 91.7747 2.88037 -4.82692 0
M  V30 903 H 83.9257 0.0998155 -2.12165 0
M  V30 904 H 86.1887 0.106907 -0.941953 0
M  V30 905 H 85.8947 0.978739 -3.37807 0
M  V30 906 H 85.7687 2.60411 -2.72885 0
M  V30 907 H 88.1557 2.36384 -1.76655 0
M  V30 908 H 88.2367 0.733945 -2.45045 0
M  V30 909 H 87.8807 1.71776 -4.7797 0
M  V30 910 H 87.8107 3.34799 -4.06469 0
M  V30 911 H 90.3017 2.07734 -3.15682 0
M  V30 912 H 90.6147 3.71186 -6.77821 0
M  V30 913 H 88.9597 3.34427 -6.09248 0
M  V30 914 H 92.1507 2.50237 -3.95599 0
M  V30 915 H 92.3237 3.24792 -5.60726 0
M  V30 916 N 85.7298 1.2412 0.971189 0
M  V30 917 C 86.9598 1.10415 1.7462 0
M  V30 918 C 87.3678 -0.346462 1.86001 0
M  V30 919 O 86.7108 -1.25104 1.34517 0
M  V30 920 C 86.7728 1.66596 3.18568 0
M  V30 921 C 86.4368 3.15446 3.3067 0
M  V30 922 C 87.4338 4.12636 3.16271 0
M  V30 923 C 85.1188 3.55337 3.55022 0
M  V30 924 C 87.1128 5.47699 3.26044 0
M  V30 925 C 84.7998 4.90542 3.64434 0
M  V30 926 C 85.7978 5.86532 3.49956 0
M  V30 927 O 85.4858 7.19279 3.59017 0
M  V30 928 H 85.2178 0.386616 0.55453 0
M  V30 929 H 87.7718 1.64633 1.22821 0
M  V30 930 H 86.0018 1.06808 3.71657 0
M  V30 931 H 87.6908 1.48232 3.77865 0
M  V30 932 H 88.4568 3.8316 2.97344 0
M  V30 933 H 84.3358 2.8113 3.65359 0
M  V30 934 H 87.8798 6.22603 3.14661 0
M  V30 935 H 83.7768 5.19691 3.82873 0
M  V30 936 H 84.5448 7.27153 3.75754 0
M  V30 937 N 87.2079 -1.17134 1.05439 0
M  V30 938 C 88.1559 -2.23289 0.651511 0
M  V30 939 C 89.1499 -1.66186 -0.328411 0
M  V30 940 O 90.3559 -1.78949 -0.194206 0
M  V30 941 H 86.7309 -0.726938 0.192523 0
M  V30 942 H 88.7019 -2.54565 1.55689 0
M  V30 943 C 87.4509 -3.47671 0.0448436 0
M  V30 944 H 86.7739 -3.91918 0.78996 0
M  V30 945 H 88.2139 -4.2353 -0.19964 0
M  V30 946 C 86.6729 -3.14453 -1.20918 0
M  V30 947 O 87.2029 -3.29459 -2.29825 0
M  V30 948 N 85.4089 -2.68657 -1.10779 0
M  V30 949 H 84.9559 -2.56646 -0.221526 0
M  V30 950 H 84.9139 -2.46804 -1.9477 0
M  V30 951 N 88.686 -0.835752 -1.33615 0
M  V30 952 C 90.097 -0.487099 -1.80234 0
M  V30 953 C 90.448 0.993627 -1.69179 0
M  V30 954 O 89.573 1.77403 -1.23924 0
M  V30 955 C 90.168 -0.877385 -3.27242 0
M  V30 956 C 88.727 -0.580915 -3.7189 0
M  V30 957 C 87.874 -1.0874 -2.5509 0
M  V30 958 H 90.825 -1.02474 -1.2118 0
M  V30 959 H 90.846 -0.186195 -3.80044 0
M  V30 960 H 90.358 -1.95512 -3.35256 0
M  V30 961 H 88.459 0.486881 -3.69405 0
M  V30 962 H 88.572 -1.13396 -4.65487 0
M  V30 963 H 86.936 -0.508392 -2.49575 0
M  V30 964 H 87.719 -2.17184 -2.65868 0
M  V30 965 N 90.1641 1.46063 -0.591896 0
M  V30 966 C 91.3891 2.07226 -0.0850314 0
M  V30 967 C 91.8141 1.43625 1.21463 0
M  V30 968 O 91.1721 0.523305 1.73583 0
M  V30 969 C 91.2201 3.60554 0.0576567 0
M  V30 970 O 90.3241 3.97128 1.11188 0
M  V30 971 H 89.6651 0.660615 -0.0669568 0
M  V30 972 H 92.1951 1.8756 -0.81745 0
M  V30 973 H 92.2051 4.07165 0.2609 0
M  V30 974 H 90.8801 4.06235 -0.891416 0
M  V30 975 H 89.4571 3.62213 0.886356 0
M  V30 976 N 91.6422 0.330177 1.54103 0
M  V30 977 C 92.5722 -0.525353 2.27513 0
M  V30 978 C 93.5532 -1.11383 1.2856 0
M  V30 979 O 94.7382 -1.13773 1.57383 0
M  V30 980 C 91.8682 -1.6831 3.03791 0
M  V30 981 C 90.8222 -1.2236 4.10137 0
M  V30 982 C 90.1482 -2.46882 4.74293 0
M  V30 983 C 91.4482 -0.333697 5.21233 0
M  V30 984 H 93.1422 0.087013 2.99274 0
M  V30 985 H 90.6882 0.0432893 1.43935 0
M  V30 986 H 92.6412 -2.28795 3.5388 0
M  V30 987 H 91.3652 -2.32216 2.29659 0
M  V30 988 H 90.0242 -0.64165 3.60941 0
M  V30 989 H 89.6722 -3.09165 3.96769 0
M  V30 990 H 89.3722 -2.16825 5.46133 0
M  V30 991 H 90.8962 -3.08117 5.27159 0
M  V30 992 H 92.3102 -0.845013 5.67038 0
M  V30 993 H 90.7072 -0.125612 5.99969 0
M  V30 994 H 91.7772 0.633724 4.80741 0
M  V30 995 N 93.1203 -1.57491 0.0584922 0
M  V30 996 C 94.0673 -2.11958 -0.913376 0
M  V30 997 C 95.0373 -1.02875 -1.30407 0
M  V30 998 O 96.2223 -1.30464 -1.39226 0
M  V30 999 C 93.3623 -2.67497 -2.18035 0
M  V30 1000 C 92.4753 -3.90691 -1.84349 0
M  V30 1001 C 91.6103 -4.3452 -3.05559 0
M  V30 1002 C 90.6493 -5.50395 -2.67827 0
M  V30 1003 N 89.7863 -5.89244 -3.81754 0
M  V30 1004 H 94.6263 -2.94704 -0.442017 0
M  V30 1005 H 92.1633 -1.45643 -0.206545 0
M  V30 1006 H 94.1213 -2.978 -2.92183 0
M  V30 1007 H 92.7513 -1.87537 -2.62735 0
M  V30 1008 H 91.8033 -3.66934 -1.00319 0
M  V30 1009 H 93.1153 -4.7489 -1.5258 0
M  V30 1010 H 92.2693 -4.66414 -3.87998 0
M  V30 1011 H 91.0083 -3.49147 -3.40511 0
M  V30 1012 H 90.0133 -5.18165 -1.83806 0
M  V30 1013 H 91.2383 -6.3749 -2.34059 0
M  V30 1014 H 89.1843 -5.06823 -4.16493 0
M  V30 1015 H 89.1013 -6.68151 -3.53708 0
M  V30 1016 H 90.3693 -6.25756 -4.64811 0
M  V30 1017 N 94.5984 0.214957 -1.56127 0
M  V30 1018 C 95.8464 0.936518 -1.79091 0
M  V30 1019 C 96.1674 1.84606 -0.628148 0
M  V30 1020 O 95.4374 1.92664 0.35462 0
M  V30 1021 H 94.0174 0.3488 -0.660566 0
M  V30 1022 H 96.6794 0.22523 -1.93594 0
M  V30 1023 H 95.7754 1.53943 -2.71492 0
M  V30 1024 N 96.0765 1.50051 0.48192 0
M  V30 1025 C 97.0065 1.71046 1.58951 0
M  V30 1026 C 97.9875 0.559288 1.60642 0
M  V30 1027 O 99.1725 0.797243 1.77081 0
M  V30 1028 C 96.3025 1.79462 2.97339 0
M  V30 1029 C 95.2565 2.94558 3.10515 0
M  V30 1030 C 94.5825 2.88105 4.50444 0
M  V30 1031 C 95.8825 4.35227 2.88747 0
M  V30 1032 H 97.5765 2.6378 1.41635 0
M  V30 1033 H 95.1225 1.26936 0.679942 0
M  V30 1034 H 97.0755 1.92734 3.74742 0
M  V30 1035 H 95.7995 0.833412 3.15788 0
M  V30 1036 H 94.4585 2.80918 2.35543 0
M  V30 1037 H 94.1065 1.89853 4.65795 0
M  V30 1038 H 93.8065 3.65366 4.60197 0
M  V30 1039 H 95.3305 3.03412 5.29881 0
M  V30 1040 H 96.7445 4.49449 3.55905 0
M  V30 1041 H 95.1415 5.13856 3.09955 0
M  V30 1042 H 96.2115 4.48347 1.84696 0
M  V30 1043 N 97.5546 -0.734337 1.39446 0
M  V30 1044 C 98.5026 -1.86971 1.38364 0
M  V30 1045 C 99.4966 -1.67288 0.266687 0
M  V30 1046 O 100.703 -1.74621 0.436755 0
M  V30 1047 H 97.0776 -0.615474 0.432082 0
M  V30 1048 H 99.0486 -1.85 2.34132 0
M  V30 1049 C 97.7976 -3.2466 1.24465 0
M  V30 1050 H 97.1206 -3.40402 2.09682 0
M  V30 1051 H 98.5606 -4.04292 1.27764 0
M  V30 1052 C 97.0196 -3.36867 -0.0468674 0
M  V30 1053 O 97.5496 -3.88618 -1.01681 0
M  V30 1054 N 95.7556 -2.90391 -0.110145 0
M  V30 1055 H 95.3026 -2.48466 0.679868 0
M  V30 1056 H 95.2606 -2.98939 -0.973799 0
M  V30 1057 N 99.0327 -1.24633 -0.964593 0
M  V30 1058 C 99.9657 -0.984662 -2.05863 0
M  V30 1059 C 100.944 0.0826554 -1.6239 0
M  V30 1060 O 102.128 -0.0549296 -1.8842 0
M  V30 1061 C 99.2547 -0.486529 -3.35187 0
M  V30 1062 C 98.3007 -1.54286 -3.97615 0
M  V30 1063 S 99.1337 -3.12513 -4.34851 0
M  V30 1064 C 100.29 -2.6441 -5.67308 0
M  V30 1065 H 100.523 -1.91104 -2.27743 0
M  V30 1066 H 98.0557 -1.08052 -1.10291 0
M  V30 1067 H 100.014 -0.205757 -4.09984 0
M  V30 1068 H 98.6747 0.419186 -3.1129 0
M  V30 1069 H 97.8677 -1.14481 -4.90826 0
M  V30 1070 H 97.4697 -1.7738 -3.2926 0
M  V30 1071 H 99.7617 -2.07416 -6.44969 0
M  V30 1072 H 100.705 -3.56222 -6.11973 0
M  V30 1073 H 101.113 -2.04734 -5.26065 0
M  V30 1074 N 100.511 1.16574 -1.06058 0
M  V30 1075 C 101.739 1.90952 -0.796552 0
M  V30 1076 C 102.154 1.77302 0.648808 0
M  V30 1077 O 101.511 1.11605 1.44397 0
M  V30 1078 C 101.562 3.41736 -1.17894 0
M  V30 1079 O 101.283 3.54975 -2.56758 0
M  V30 1080 C 102.784 4.33169 -0.942308 0
M  V30 1081 H 100.004 0.605594 -0.288959 0
M  V30 1082 H 102.548 1.47777 -1.41358 0
M  V30 1083 H 100.703 3.82623 -0.606491 0
M  V30 1084 H 101.117 4.4846 -2.72 0
M  V30 1085 H 102.591 5.37439 -1.25952 0
M  V30 1086 H 103.068 4.3903 0.122078 0
M  V30 1087 H 103.674 3.98007 -1.49902 0
M  V30 1088 N 101.989 0.842826 1.3317 0
M  V30 1089 C 103.237 0.439577 1.97262 0
M  V30 1090 C 103.558 -1.00548 1.67078 0
M  V30 1091 O 102.828 -1.70098 0.971779 0
M  V30 1092 H 101.408 0.159558 0.72976 0
M  V30 1093 H 104.07 1.07665 1.62463 0
M  V30 1094 H 103.166 0.574886 3.0676 0
M  V30 1095 N 103.467 -1.45747 0.599634 0
M  V30 1096 C 104.697 -2.06369 0.0977132 0
M  V30 1097 C 105.105 -1.44624 -1.21985 0
M  V30 1098 O 104.448 -0.551831 -1.75216 0
M  V30 1099 C 104.51 -3.59284 -0.124673 0
M  V30 1100 C 104.174 -4.43318 1.10987 0
M  V30 1101 C 105.171 -4.78796 2.02609 0
M  V30 1102 C 102.856 -4.84194 1.33647 0
M  V30 1103 C 104.85 -5.53997 3.15224 0
M  V30 1104 C 102.537 -5.5915 2.46565 0
M  V30 1105 C 103.535 -5.93968 3.37182 0
M  V30 1106 O 103.223 -6.67405 4.48136 0
M  V30 1107 H 102.955 -0.673122 0.0623153 0
M  V30 1108 H 105.509 -1.88104 0.824981 0
M  V30 1109 H 103.739 -3.75919 -0.906745 0
M  V30 1110 H 105.428 -4.01775 -0.577201 0
M  V30 1111 H 106.194 -4.47781 1.86325 0
M  V30 1112 H 102.073 -4.56534 0.64016 0
M  V30 1113 H 105.617 -5.81091 3.85978 0
M  V30 1114 H 101.514 -5.89579 2.62805 0
M  V30 1115 H 102.282 -6.85847 4.46717 0
M  V30 1116 N 104.945 -0.338344 -1.53925 0
M  V30 1117 C 105.855 0.529421 -2.28548 0
M  V30 1118 C 106.871 1.11645 -1.3346 0
M  V30 1119 O 108.047 1.13325 -1.66492 0
M  V30 1120 C 105.112 1.66713 -3.03987 0
M  V30 1121 C 104.173 1.11041 -4.14691 0
M  V30 1122 C 103.406 2.19389 -4.86522 0
M  V30 1123 O 103.629 3.40013 -4.57982 0
M  V30 1124 O 102.563 1.83976 -5.73094 0
M  V30 1125 H 106.389 -0.0770399 -3.03602 0
M  V30 1126 H 103.974 -0.103555 -1.49041 0
M  V30 1127 H 105.856 2.32918 -3.5118 0
M  V30 1128 H 104.531 2.25949 -2.31794 0
M  V30 1129 H 103.438 0.413024 -3.71813 0
M  V30 1130 H 104.771 0.562975 -4.8897 0
M  V30 1131 N 106.423 1.57458 -0.0668435 0
M  V30 1132 C 107.651 1.97624 0.612565 0
M  V30 1133 C 108.066 0.94502 1.63447 0
M  V30 1134 O 107.423 -0.0689276 1.8237 0
M  V30 1135 C 107.474 3.37869 1.28555 0
M  V30 1136 O 107.195 4.3704 0.304557 0
M  V30 1137 C 108.696 3.92882 2.05325 0
M  V30 1138 H 105.916 0.650045 0.166381 0
M  V30 1139 H 108.46 2.04035 -0.137782 0
M  V30 1140 H 106.615 3.3256 1.98702 0
M  V30 1141 H 107.029 5.18565 0.786779 0
M  V30 1142 H 108.503 4.93247 2.47812 0
M  V30 1143 H 108.98 3.29156 2.9078 0
M  V30 1144 H 109.586 4.01577 1.40056 0
M  V30 1145 N 107.901 -0.206675 1.56239 0
M  V30 1146 C 108.833 -1.27997 1.9013 0
M  V30 1147 C 109.846 -1.42299 0.790883 0
M  V30 1148 O 111.035 -1.42931 1.06925 0
M  V30 1149 C 108.135 -2.65368 2.10792 0
M  V30 1150 C 107.308 -2.72824 3.41886 0
M  V30 1151 C 106.367 -3.9131 3.51799 0
M  V30 1152 O 105.393 -3.78953 4.24716 0
M  V30 1153 N 106.595 -5.06265 2.84035 0
M  V30 1154 H 109.36 -0.992444 2.82791 0
M  V30 1155 H 106.921 -0.396652 1.56966 0
M  V30 1156 H 108.913 -3.43039 2.14724 0
M  V30 1157 H 107.483 -2.86657 1.24685 0
M  V30 1158 H 106.703 -1.81515 3.49923 0
M  V30 1159 H 107.991 -2.74786 4.28217 0
M  V30 1160 H 107.389 -5.19203 2.246 0
M  V30 1161 H 105.946 -5.81925 2.93609 0
M  V30 1162 N 109.379 -1.50304 -0.473955 0
M  V30 1163 C 110.342 -1.6841 -1.55469 0
M  V30 1164 C 111.342 -0.554905 -1.50922 0
M  V30 1165 O 112.532 -0.821882 -1.53593 0
M  V30 1166 C 109.664 -1.70667 -2.95102 0
M  V30 1167 H 110.857 -2.64828 -1.40733 0
M  V30 1168 H 108.41 -1.39742 -0.700132 0
M  V30 1169 H 109.145 -0.75932 -3.15285 0
M  V30 1170 H 108.93 -2.52698 -2.9981 0
M  V30 1171 H 110.42 -1.8664 -3.73571 0
M  V30 1172 N 110.857 0.726932 -1.39834 0
M  V30 1173 C 112.105 1.4837 -1.37225 0
M  V30 1174 C 112.426 1.94979 0.0284857 0
M  V30 1175 O 111.696 1.69555 0.981213 0
M  V30 1176 H 110.276 0.55043 -0.505011 0
M  V30 1177 H 112.938 0.862468 -1.74778 0
M  V30 1178 H 112.034 2.36198 -2.04003 0
M  V30 1179 N 112.336 1.25143 0.95797 0
M  V30 1180 C 113.246 1.06968 2.08794 0
M  V30 1181 C 114.262 0.00773911 1.73998 0
M  V30 1182 O 115.438 0.207972 2.00323 0
M  V30 1183 C 112.503 0.68691 3.39827 0
M  V30 1184 C 111.564 1.82641 3.88511 0
M  V30 1185 C 110.797 1.46181 5.1329 0
M  V30 1186 O 111.02 0.355971 5.69288 0
M  V30 1187 O 109.954 2.29085 5.566 0
M  V30 1188 H 113.78 2.01723 2.27027 0
M  V30 1189 H 111.365 1.04051 1.07209 0
M  V30 1190 H 113.247 0.485417 4.18595 0
M  V30 1191 H 111.922 -0.231417 3.22872 0
M  V30 1192 H 110.829 2.08274 3.10762 0
M  V30 1193 H 112.162 2.72386 4.09959 0
M  V30 1194 N 113.814 -1.1601 1.06675 0
M  V30 1195 C 115.061 -1.86633 0.785781 0
M  V30 1196 C 115.389 -1.81929 -0.687896 0
M  V30 1197 O 114.644 -1.23253 -1.52011 0
M  V30 1198 C 114.943 -3.35547 1.23057 0
M  V30 1199 C 114.609 -3.60448 2.70902 0
M  V30 1200 C 113.271 -3.66954 3.11285 0
M  V30 1201 C 115.623 -3.7071 3.66365 0
M  V30 1202 C 112.951 -3.81225 4.45965 0
M  V30 1203 C 115.303 -3.86503 5.00797 0
M  V30 1204 C 113.967 -3.91252 5.40813 0
M  V30 1205 H 113.237 -0.682937 0.287538 0
M  V30 1206 H 115.884 -1.37146 1.33654 0
M  V30 1207 H 114.189 -3.87193 0.59907 0
M  V30 1208 H 115.886 -3.88583 0.990163 0
M  V30 1209 H 112.476 -3.56021 2.38636 0
M  V30 1210 H 116.66 -3.64991 3.36296 0
M  V30 1211 H 111.916 -3.83155 4.76447 0
M  V30 1212 H 116.09 -3.93385 5.74649 0
M  V30 1213 H 113.717 -4.02062 6.45174 0
M  V30 1214 N 115.292 -0.849877 -1.32721 0
M  V30 1215 C 116.703 -0.506188 -1.79707 0
M  V30 1216 C 117.054 0.975627 -1.70223 0
M  V30 1217 O 116.179 1.76078 -1.25799 0
M  V30 1218 C 116.774 -0.912044 -3.26293 0
M  V30 1219 C 115.333 -0.620326 -3.71253 0
M  V30 1220 C 114.48 -1.11439 -2.53922 0
M  V30 1221 H 117.431 -1.03754 -1.20087 0
M  V30 1222 H 117.452 -0.226493 -3.79825 0
M  V30 1223 H 116.964 -1.99057 -3.33164 0
M  V30 1224 H 115.065 0.447674 -3.69901 0
M  V30 1225 H 115.178 -1.18327 -4.64258 0
M  V30 1226 H 113.542 -0.534834 -2.49021 0
M  V30 1227 H 114.325 -2.19992 -2.6355 0
M  V30 1228 N 116.77 1.45427 -0.607355 0
M  V30 1229 C 117.703 2.27635 0.160482 0
M  V30 1230 C 118.681 1.37122 0.873857 0
M  V30 1231 O 119.865 1.66551 0.882775 0
M  V30 1232 C 116.992 3.15486 1.23231 0
M  V30 1233 C 116.038 4.21939 0.622097 0
M  V30 1234 S 116.871 5.32459 -0.569852 0
M  V30 1235 C 118.027 6.23879 0.502577 0
M  V30 1236 H 118.26 2.9241 -0.536983 0
M  V30 1237 H 115.793 1.49265 -0.394868 0
M  V30 1238 H 117.751 3.66659 1.84585 0
M  V30 1239 H 116.412 2.49977 1.90185 0
M  V30 1240 H 115.605 4.8333 1.42856 0
M  V30 1241 H 115.207 3.73906 0.0837063 0
M  V30 1242 H 117.499 6.63261 1.38171 0
M  V30 1243 H 118.442 7.0806 -0.0751759 0
M  V30 1244 H 118.85 5.58545 0.8178 0
M  V30 1245 N 118.248 0.346503 1.53744 0
M  V30 1246 C 119.494 -0.249473 2.0126 0
M  V30 1247 C 119.827 -1.49965 1.23386 0
M  V30 1248 O 119.102 -1.91811 0.32229 0
M  V30 1249 C 119.385 -0.560643 3.55709 0
M  V30 1250 C 119.238 0.701836 4.44291 0
M  V30 1251 C 120.557 -1.36905 4.18264 0
M  V30 1252 H 117.676 -0.0891987 0.731582 0
M  V30 1253 H 120.318 0.467624 1.84156 0
M  V30 1254 H 118.468 -1.17156 3.70414 0
M  V30 1255 H 120.14 1.33974 4.41417 0
M  V30 1256 H 118.383 1.32612 4.13033 0
M  V30 1257 H 119.054 0.43933 5.50249 0
M  V30 1258 H 121.53 -0.852448 4.07275 0
M  V30 1259 H 120.406 -1.55553 5.26398 0
M  V30 1260 H 120.667 -2.37203 3.73078 0
M  V30 1261 N 119.726 -1.57421 0.075193 0
M  V30 1262 C 120.674 -2.14124 -0.908508 0
M  V30 1263 C 121.668 -1.07898 -1.30592 0
M  V30 1264 O 122.874 -1.26273 -1.28277 0
M  V30 1265 H 119.249 -0.684707 -0.310935 0
M  V30 1266 H 121.22 -2.95634 -0.405374 0
M  V30 1267 C 119.969 -2.72044 -2.16535 0
M  V30 1268 H 119.292 -3.53456 -1.86839 0
M  V30 1269 H 120.732 -3.15311 -2.83469 0
M  V30 1270 C 119.191 -1.66968 -2.92615 0
M  V30 1271 O 119.721 -1.0967 -3.86439 0
M  V30 1272 N 117.927 -1.37923 -2.55784 0
M  V30 1273 H 117.474 -1.84706 -1.79559 0
M  V30 1274 H 117.432 -0.67852 -3.06991 0
M  V30 1275 N 121.204 0.198386 -1.56346 0
M  V30 1276 C 122.152 1.26538 -1.95169 0
M  V30 1277 C 123.146 1.47295 -0.836685 0
M  V30 1278 O 124.352 1.48195 -1.02167 0
M  V30 1279 H 120.727 0.424744 -0.620561 0
M  V30 1280 H 122.698 0.910904 -2.84157 0
M  V30 1281 C 121.447 2.6035 -2.30463 0
M  V30 1282 H 120.77 2.45192 -3.15786 0
M  V30 1283 H 122.21 3.33762 -2.61494 0
M  V30 1284 C 120.669 3.17096 -1.13806 0
M  V30 1285 O 121.199 3.99588 -0.41135 0
M  V30 1286 N 119.405 2.75795 -0.915736 0
M  V30 1287 H 118.952 2.08816 -1.50843 0
M  V30 1288 H 118.91 3.14101 -0.136979 0
M  V30 1289 N 122.682 1.50554 0.465978 0
M  V30 1290 C 123.93 1.61479 1.21528 0
M  V30 1291 C 124.251 0.319596 1.92363 0
M  V30 1292 O 123.521 -0.663194 1.84333 0
M  V30 1293 H 122.101 0.595055 0.451573 0
M  V30 1294 H 124.763 1.87355 0.53704 0
M  V30 1295 H 123.859 2.42846 1.96042 0
M  V30 1296 N 124.16 -0.719506 1.40217 0
M  V30 1297 C 125.11 -1.8251 1.36653 0
M  V30 1298 C 126.094 -1.59028 0.244732 0
M  V30 1299 O 127.286 -1.70268 0.483524 0
M  V30 1300 C 124.415 -3.20599 1.22763 0
M  V30 1301 C 123.501 -3.49858 2.39708 0
M  V30 1302 N 123.892 -3.49957 3.6519 0
M  V30 1303 C 122.19 -3.80297 2.33002 0
M  V30 1304 C 122.891 -3.77449 4.42614 0
M  V30 1305 N 121.867 -3.96002 3.72402 0
M  V30 1306 H 125.669 -1.80914 2.31619 0
M  V30 1307 H 123.183 -0.918455 1.33933 0
M  V30 1308 H 125.18 -3.99766 1.18292 0
M  V30 1309 H 123.84 -3.23424 0.287614 0
M  V30 1310 H 124.851 -3.309 3.98404 0
M  V30 1311 H 121.528 -3.90635 1.47346 0
M  V30 1312 H 122.918 -3.83863 5.51451 0
M  V30 1313 N 125.638 -1.25649 -0.95132 0
M  V30 1314 C 126.866 -1.13343 -1.73092 0
M  V30 1315 C 127.281 0.312434 -1.86197 0
M  V30 1316 O 126.638 1.21465 -1.36207 0
M  V30 1317 C 126.689 -1.78602 -3.14299 0
M  V30 1318 O 126.41 -3.17537 -3.01831 0
M  V30 1319 C 127.911 -1.72119 -4.08522 0
M  V30 1320 H 125.131 -0.395181 -0.542285 0
M  V30 1321 H 127.675 -1.66076 -1.19328 0
M  V30 1322 H 125.83 -1.29832 -3.64996 0
M  V30 1323 H 126.244 -3.49676 -3.90931 0
M  V30 1324 H 127.718 -2.22435 -5.052 0
M  V30 1325 H 128.195 -0.685635 -4.33815 0
M  V30 1326 H 128.801 -2.20393 -3.63741 0
M  V30 1327 N 127.117 1.15442 -1.07289 0
M  V30 1328 C 128.363 1.86489 -0.796846 0
M  V30 1329 C 128.696 1.82078 0.675371 0
M  V30 1330 O 127.971 1.24346 1.4956 0
M  V30 1331 C 128.254 3.35626 -1.30489 0
M  V30 1332 C 128.107 3.48673 -2.84161 0
M  V30 1333 C 129.426 4.30357 -0.920907 0
M  V30 1334 H 126.545 0.677144 -0.290939 0
M  V30 1335 H 129.187 1.35633 -1.33056 0
M  V30 1336 H 127.337 3.79068 -0.850883 0
M  V30 1337 H 129.009 3.14099 -3.37846 0
M  V30 1338 H 127.252 2.90253 -3.22391 0
M  V30 1339 H 127.923 4.53453 -3.14777 0
M  V30 1340 H 130.399 3.94871 -1.3121 0
M  V30 1341 H 129.275 5.33193 -1.30372 0
M  V30 1342 H 129.536 4.4176 0.173226 0
M  V30 1343 N 128.595 0.856903 1.32268 0
M  V30 1344 C 129.527 0.260412 2.27716 0
M  V30 1345 C 130.54 -0.569137 1.52528 0
M  V30 1346 O 131.729 -0.39326 1.74114 0
M  V30 1347 C 128.829 -0.650477 3.32599 0
M  V30 1348 C 128.002 0.14372 4.37164 0
M  V30 1349 C 127.061 -0.69328 5.21613 0
M  V30 1350 O 126.087 -0.12599 5.69061 0
M  V30 1351 N 127.289 -2.00761 5.44679 0
M  V30 1352 H 130.054 1.08059 2.79541 0
M  V30 1353 H 127.615 0.717103 1.45152 0
M  V30 1354 H 129.607 -1.21581 3.86005 0
M  V30 1355 H 128.177 -1.37133 2.80915 0
M  V30 1356 H 127.397 0.890486 3.8401 0
M  V30 1357 H 128.685 0.68915 5.04111 0
M  V30 1358 H 128.083 -2.49181 5.07863 0
M  V30 1359 H 126.64 -2.52103 6.01072 0
M  V30 1360 N 130.073 -1.45103 0.615059 0
M  V30 1361 C 131.322 -2.01396 0.110718 0
M  V30 1362 C 131.635 -1.48834 -1.26916 0
M  V30 1363 O 132.841 -1.97152 -1.86664 0
M  V30 1364 C 131.297 -3.59599 0.14723 0
M  V30 1365 C 130.905 -4.21158 1.52743 0
M  V30 1366 C 132.649 -4.23428 -0.30148 0
M  V30 1367 C 130.556 -5.71535 1.51992 0
M  V30 1368 H 129.486 -0.753061 0.0376241 0
M  V30 1369 H 132.137 -1.66494 0.77149 0
M  V30 1370 H 130.519 -3.91724 -0.580339 0
M  V30 1371 H 131.693 -4.00594 2.2773 0
M  V30 1372 H 130.008 -3.69552 1.91886 0
M  V30 1373 H 132.605 -5.33703 -0.326392 0
M  V30 1374 H 132.948 -3.94629 -1.32565 0
M  V30 1375 H 133.481 -3.96047 0.373065 0
M  V30 1376 H 130.22 -6.05044 2.52193 0
M  V30 1377 H 129.74 -5.94268 0.81274 0
M  V30 1378 H 131.419 -6.34873 1.24681 0
M  V30 1379 N 131.551 -0.354651 -1.53558 0
M  V30 1380 C 132.776 0.242153 -2.05981 0
M  V30 1381 C 133.201 1.42553 -1.2272 0
M  V30 1382 O 132.559 1.79656 -0.243604 0
M  V30 1383 C 132.607 0.624367 -3.55154 0
M  V30 1384 O 131.711 1.72301 -3.74681 0
M  V30 1385 H 131.052 0.0378432 -0.662921 0
M  V30 1386 H 133.582 -0.512087 -1.98088 0
M  V30 1387 H 133.592 0.898433 -3.97985 0
M  V30 1388 H 132.267 -0.240989 -4.15201 0
M  V30 1389 H 130.844 1.44535 -3.4375 0
M  V30 1390 N 133.029 1.57378 -0.0835403 0
M  V30 1391 C 133.959 2.1641 0.87686 0
M  V30 1392 C 134.94 1.09429 1.30228 0
M  V30 1393 O 136.125 1.37516 1.37124 0
M  V30 1394 C 133.255 2.73517 2.14022 0
M  V30 1395 C 132.209 3.85769 1.85381 0
M  V30 1396 C 131.535 4.29529 3.18448 0
M  V30 1397 C 132.835 5.09486 1.14984 0
M  V30 1398 H 134.529 2.96914 0.385059 0
M  V30 1399 H 132.075 1.42823 0.18377 0
M  V30 1400 H 134.028 3.13463 2.81636 0
M  V30 1401 H 132.752 1.90252 2.65465 0
M  V30 1402 H 131.411 3.46345 1.20169 0
M  V30 1403 H 131.059 3.43169 3.67755 0
M  V30 1404 H 130.759 5.05204 3.00071 0
M  V30 1405 H 132.283 4.72099 3.8724 0
M  V30 1406 H 133.697 5.46674 1.72687 0
M  V30 1407 H 132.094 5.90515 1.06826 0
M  V30 1408 H 133.164 4.84724 0.130749 0
M  V30 1409 N 134.507 -0.190092 1.56449 0
M  V30 1410 C 135.918 -0.754312 1.70784 0
M  V30 1411 C 136.269 -1.83631 0.690951 0
M  V30 1412 O 135.394 -2.15868 -0.151604 0
M  V30 1413 C 135.989 -1.37503 3.09642 0
M  V30 1414 C 134.548 -1.88628 3.25725 0
M  V30 1415 C 133.695 -0.758098 2.66736 0
M  V30 1416 H 136.646 0.0350524 1.58661 0
M  V30 1417 H 136.667 -2.2445 3.0725 0
M  V30 1418 H 136.179 -0.587302 3.83631 0
M  V30 1419 H 134.28 -2.70103 2.56661 0
M  V30 1420 H 134.393 -2.04462 4.3328 0
M  V30 1421 H 132.757 -1.17369 2.26046 0
M  V30 1422 H 133.54 0.0174705 3.43296 0
M  V30 1423 N 135.985 -1.50799 -0.457987 0
M  V30 1424 C 137.21 -1.66496 -1.23668 0
M  V30 1425 C 137.635 -0.353288 -1.84752 0
M  V30 1426 O 136.993 0.684346 -1.67888 0
M  V30 1427 C 137.041 -2.76763 -2.3116 0
M  V30 1428 O 136.145 -2.38928 -3.36136 0
M  V30 1429 H 135.486 -0.555828 -0.363252 0
M  V30 1430 H 138.016 -1.9725 -0.543474 0
M  V30 1431 H 138.026 -3.00232 -2.76269 0
M  V30 1432 H 136.701 -3.71954 -1.86073 0
M  V30 1433 H 135.278 -2.25953 -2.96647 0
M  V30 1434 N 137.463 0.71206 -1.40597 0
M  V30 1435 C 138.691 1.50111 -1.42388 0
M  V30 1436 C 139.106 1.88784 -0.0245395 0
M  V30 1437 O 138.463 1.55681 0.952351 0
M  V30 1438 C 138.514 2.7742 -2.31776 0
M  V30 1439 O 138.235 2.40382 -3.66262 0
M  V30 1440 C 139.736 3.7129 -2.42196 0
M  V30 1441 H 136.956 0.46314 -0.485533 0
M  V30 1442 H 139.5 0.878068 -1.8469 0
M  V30 1443 H 137.655 3.36001 -1.92827 0
M  V30 1444 H 138.069 3.22324 -4.13772 0
M  V30 1445 H 139.543 4.57448 -3.08943 0
M  V30 1446 H 140.02 4.14641 -1.44809 0
M  V30 1447 H 140.626 3.18619 -2.81712 0
M  V30 1448 N 138.941 1.26152 0.944643 0
M  V30 1449 C 139.874 1.01729 2.04271 0
M  V30 1450 C 140.852 -0.0568101 1.62501 0
M  V30 1451 O 142.036 0.0848987 1.88309 0
M  V30 1452 C 139.163 0.539792 3.34371 0
M  V30 1453 C 138.209 1.60593 3.9511 0
M  V30 1454 S 139.042 3.19392 4.29825 0
M  V30 1455 C 140.198 2.73402 5.63029 0
M  V30 1456 H 140.431 1.94703 2.24673 0
M  V30 1457 H 137.964 1.09793 1.08558 0
M  V30 1458 H 139.922 0.270956 4.09605 0
M  V30 1459 H 138.583 -0.369609 3.11918 0
M  V30 1460 H 137.776 1.22275 4.88943 0
M  V30 1461 H 137.378 1.82596 3.26397 0
M  V30 1462 H 139.67 2.1765 6.41588 0
M  V30 1463 H 140.613 3.65913 6.06229 0
M  V30 1464 H 141.021 2.13077 5.22741 0
M  V30 1465 N 140.419 -1.14872 1.07899 0
M  V30 1466 C 141.835 -1.37776 0.805606 0
M  V30 1467 C 142.035 -1.92743 -0.587555 0
M  V30 1468 O 141.091 -2.13678 -1.34528 0
M  V30 1469 C 142.404 -2.34361 1.88402 0
M  V30 1470 C 143.952 -2.48012 1.90942 0
M  V30 1471 C 144.427 -3.47893 2.97883 0
M  V30 1472 N 145.918 -3.55433 2.97021 0
M  V30 1473 C 146.653 -4.32553 3.76412 0
M  V30 1474 N 146.149 -5.12959 4.65666 0
M  V30 1475 N 147.942 -4.27697 3.64735 0
M  V30 1476 H 140.093 -0.775365 1.97742 0
M  V30 1477 H 142.356 -0.403521 0.857831 0
M  V30 1478 H 142.062 -2.01098 2.88535 0
M  V30 1479 H 141.936 -3.34206 1.74889 0
M  V30 1480 H 144.323 -2.8057 0.914579 0
M  V30 1481 H 144.404 -1.48147 2.08534 0
M  V30 1482 H 144.048 -3.16069 3.97571 0
M  V30 1483 H 143.978 -4.47527 2.77538 0
M  V30 1484 H 146.469 -2.98048 2.32326 0
M  V30 1485 H 146.782 -5.69065 5.22862 0
M  V30 1486 H 145.127 -5.12245 4.69712 0
M  V30 1487 H 148.318 -3.63949 2.94378 0
M  V30 1488 H 148.491 -4.8755 4.26848 0
M  V30 1489 N 141.898 -0.863906 -1.31812 0
M  V30 1490 C 142.831 -0.259963 -2.26714 0
M  V30 1491 C 143.809 0.607392 -1.50829 0
M  V30 1492 O 144.993 0.562155 -1.79922 0
M  V30 1493 C 142.12 0.632456 -3.32743 0
M  V30 1494 C 141.166 -0.162743 -4.26189 0
M  V30 1495 S 141.999 -1.53726 -5.12961 0
M  V30 1496 C 143.155 -0.650803 -6.22507 0
M  V30 1497 H 143.388 -1.06445 -2.77591 0
M  V30 1498 H 140.921 -0.662071 -1.39485 0
M  V30 1499 H 142.879 1.14167 -3.94305 0
M  V30 1500 H 141.54 1.41083 -2.80632 0
M  V30 1501 H 140.733 0.517366 -5.01338 0
M  V30 1502 H 140.335 -0.60385 -3.69093 0
M  V30 1503 H 142.627 0.141134 -6.77353 0
M  V30 1504 H 143.57 -1.37322 -6.94657 0
M  V30 1505 H 143.978 -0.221041 -5.64067 0
M  V30 1506 N 143.376 1.44774 -0.622745 0
M  V30 1507 C 144.604 2.06487 -0.130722 0
M  V30 1508 C 145.019 1.46476 1.19123 0
M  V30 1509 O 144.376 0.584502 1.72887 0
M  V30 1510 C 144.427 3.615 -0.000807207 0
M  V30 1511 O 144.148 4.19274 -1.27048 0
M  V30 1512 C 145.649 4.40229 0.520898 0
M  V30 1513 H 142.869 0.666704 -0.0758106 0
M  V30 1514 H 145.413 1.85779 -0.854774 0
M  V30 1515 H 143.568 3.81498 0.673643 0
M  V30 1516 H 143.982 5.12622 -1.1099 0
M  V30 1517 H 145.456 5.49144 0.560838 0
M  V30 1518 H 145.933 4.1108 1.54627 0
M  V30 1519 H 146.539 4.25131 -0.120018 0
M  V30 1520 N 144.854 0.36279 1.53368 0
M  V30 1521 C 146.1 -0.228113 2.01513 0
M  V30 1522 C 146.433 -1.48648 1.2497 0
M  V30 1523 O 145.708 -1.91459 0.342616 0
M  V30 1524 C 145.991 -0.522884 3.56284 0
M  V30 1525 C 145.844 0.74892 4.43521 0
M  V30 1526 C 147.163 -1.32461 4.19693 0
M  V30 1527 H 144.282 -0.0814343 0.732487 0
M  V30 1528 H 146.924 0.48713 1.83649 0
M  V30 1529 H 145.074 -1.1322 3.71636 0
M  V30 1530 H 146.746 1.38648 4.39971 0
M  V30 1531 H 144.989 1.36986 4.11603 0
M  V30 1532 H 145.66 0.497667 5.49752 0
M  V30 1533 H 148.136 -0.809203 4.08156 0
M  V30 1534 H 147.012 -1.49961 5.28018 0
M  V30 1535 H 147.273 -2.33232 3.75573 0
M  V30 1536 N 146.332 -1.57332 0.0918853 0
M  V30 1537 C 147.295 -2.12708 -0.85369 0
M  V30 1538 C 148.295 -1.05561 -1.213 0
M  V30 1539 O 149.485 -1.31461 -1.14296 0
M  V30 1540 C 146.617 -2.64503 -2.15061 0
M  V30 1541 H 147.81 -2.97573 -0.3729 0
M  V30 1542 H 145.363 -1.55509 -0.157072 0
M  V30 1543 H 146.098 -1.83149 -2.67632 0
M  V30 1544 H 145.883 -3.4284 -1.90272 0
M  V30 1545 H 147.373 -3.07351 -2.82711 0
M  V30 1546 N 147.81 0.181792 -1.56548 0
M  V30 1547 C 149.087 0.926765 -1.72251 0
M  V30 1548 C 149.467 2.00831 -0.650386 0
M  V30 1549 O 148.815 2.26008 0.336521 0
M  V30 1550 C 149.025 1.50106 -3.1507 0
M  V30 1551 C 150.373 1.97805 -3.75711 0
M  V30 1552 O 151.397 1.59922 -3.18282 0
M  V30 1553 O 150.256 2.67555 -4.76525 0
M  V30 1554 H 147.35 0.435506 -0.703039 0
M  V30 1555 H 149.896 0.170443 -1.68842 0
M  V30 1556 H 148.668 0.72212 -3.84579 0
M  V30 1557 H 148.291 2.32186 -3.22763 0
M  V30 1558 N 149.288 1.51039 0.449983 0
M  V30 1559 C 150.536 1.62759 1.19808 0
M  V30 1560 C 150.857 0.339981 1.92013 0
M  V30 1561 O 150.127 -0.643606 1.85026 0
M  V30 1562 H 148.707 0.599811 0.445237 0
M  V30 1563 H 151.369 1.87914 0.517138 0
M  V30 1564 H 150.465 2.44911 1.93455 0
M  V30 1565 N 150.766 -0.704594 1.40972 0
M  V30 1566 C 151.994 -1.49354 1.43182 0
M  V30 1567 C 152.409 -1.88768 0.0345508 0
M  V30 1568 O 151.766 -1.56184 -0.944081 0
M  V30 1569 C 151.817 -2.76187 2.33244 0
M  V30 1570 O 151.538 -2.38436 3.67532 0
M  V30 1571 C 153.039 -3.7 2.44162 0
M  V30 1572 H 150.259 -0.460559 0.487982 0
M  V30 1573 H 152.803 -0.868261 1.85153 0
M  V30 1574 H 150.958 -3.34974 1.94606 0
M  V30 1575 H 151.372 -3.20126 4.15475 0
M  V30 1576 H 152.846 -4.55803 3.11364 0
M  V30 1577 H 153.323 -4.13867 1.47006 0
M  V30 1578 H 153.929 -3.17121 2.83398 0
M  V30 1579 N 152.244 -1.26651 -0.937939 0
M  V30 1580 C 153.49 -1.12553 -1.687 0
M  V30 1581 C 153.823 0.329782 -1.91379 0
M  V30 1582 O 153.098 1.24202 -1.4968 0
M  V30 1583 C 153.381 -1.89862 -3.05981 0
M  V30 1584 C 153.234 -3.43318 -2.90607 0
M  V30 1585 C 154.553 -1.69499 -4.0615 0
M  V30 1586 H 151.672 -0.410257 -0.612257 0
M  V30 1587 H 154.314 -1.55685 -1.08913 0
M  V30 1588 H 152.464 -1.53204 -3.57017 0
M  V30 1589 H 154.136 -3.89747 -2.46769 0
M  V30 1590 H 152.379 -3.70179 -2.26164 0
M  V30 1591 H 153.05 -3.92642 -3.8799 0
M  V30 1592 H 155.526 -2.01442 -3.64088 0
M  V30 1593 H 154.402 -2.26002 -5.00214 0
M  V30 1594 H 154.663 -0.640365 -4.37438 0
M  V30 1595 N 153.722 1.14298 -1.08507 0
M  V30 1596 C 154.952 1.88945 -0.835663 0
M  V30 1597 C 155.36 1.78894 0.615928 0
M  V30 1598 O 154.703 1.1468 1.43506 0
M  V30 1599 C 154.765 3.39585 -1.17994 0
M  V30 1600 C 154.429 3.7342 -2.63451 0
M  V30 1601 C 155.426 3.73454 -3.61702 0
M  V30 1602 C 153.111 4.03368 -2.99332 0
M  V30 1603 C 155.105 4.02961 -4.93864 0
M  V30 1604 C 152.792 4.32538 -4.31687 0
M  V30 1605 C 153.79 4.32318 -5.28763 0
M  V30 1606 O 153.478 4.6078 -6.58739 0
M  V30 1607 H 153.21 0.605307 -0.300965 0
M  V30 1608 H 155.764 1.45673 -1.44806 0
M  V30 1609 H 153.994 3.83315 -0.51055 0
M  V30 1610 H 155.683 3.9554 -0.911182 0
M  V30 1611 H 156.449 3.50403 -3.35325 0
M  V30 1612 H 152.328 4.02692 -2.24411 0
M  V30 1613 H 155.872 4.02704 -5.69627 0
M  V30 1614 H 151.769 4.55059 -4.57812 0
M  V30 1615 H 152.537 4.78492 -6.64069 0
M  V30 1616 N 155.201 0.870884 1.31352 0
M  V30 1617 C 156.45 0.478408 1.95944 0
M  V30 1618 C 156.763 -0.974493 1.69597 0
M  V30 1619 O 157.969 -1.47316 2.28058 0
M  V30 1620 C 156.425 0.804609 3.50791 0
M  V30 1621 C 156.033 2.27433 3.85977 0
M  V30 1622 C 157.777 0.480648 4.2177 0
M  V30 1623 C 155.684 2.5429 5.33939 0
M  V30 1624 H 154.614 0.175175 0.733369 0
M  V30 1625 H 157.265 1.06391 1.4951 0
M  V30 1626 H 155.647 0.148347 3.95722 0
M  V30 1627 H 156.821 2.97373 3.52002 0
M  V30 1628 H 155.136 2.56442 3.28065 0
M  V30 1629 H 157.733 0.658519 5.30629 0
M  V30 1630 H 158.076 -0.578979 4.12254 0
M  V30 1631 H 158.609 1.09349 3.82476 0
M  V30 1632 H 155.348 3.58939 5.48491 0
M  V30 1633 H 154.868 1.88945 5.69263 0
M  V30 1634 H 156.547 2.39066 6.01212 0
M  V30 1635 N 156.679 -1.44442 0.630414 0
M  V30 1636 C 157.642 -2.29107 -0.0652523 0
M  V30 1637 C 158.642 -1.41002 -0.772995 0
M  V30 1638 O 159.832 -1.62881 -0.617692 0
M  V30 1639 C 156.964 -3.22564 -1.10296 0
M  V30 1640 H 158.157 -2.92103 0.679401 0
M  V30 1641 H 155.71 -1.51343 0.390517 0
M  V30 1642 H 156.445 -2.64416 -1.87762 0
M  V30 1643 H 156.23 -3.87491 -0.59941 0
M  V30 1644 H 157.72 -3.86167 -1.5895 0
M  V30 1645 N 158.157 -0.370918 -1.53173 0
M  V30 1646 C 159.089 0.507823 -2.23503 0
M  V30 1647 C 160.102 1.04182 -1.251 0
M  V30 1648 O 161.291 0.947286 -1.5129 0
M  V30 1649 C 158.391 1.71447 -2.92334 0
M  V30 1650 C 157.564 1.31105 -4.17289 0
M  V30 1651 C 156.623 2.38035 -4.69282 0
M  V30 1652 O 155.649 2.00204 -5.32829 0
M  V30 1653 N 156.851 3.69697 -4.47554 0
M  V30 1654 H 159.616 -0.0946382 -2.99551 0
M  V30 1655 H 157.177 -0.196358 -1.60705 0
M  V30 1656 H 159.169 2.42469 -3.24023 0
M  V30 1657 H 157.739 2.22368 -2.19707 0
M  V30 1658 H 156.959 0.430462 -3.91843 0
M  V30 1659 H 158.247 1.0179 -4.98514 0
M  V30 1660 H 157.645 4.03205 -3.9679 0
M  V30 1661 H 156.202 4.36807 -4.8378 0
M  V30 1662 N 159.635 1.57281 -0.100228 0
M  V30 1663 C 160.567 2.11342 0.886972 0
M  V30 1664 C 161.58 1.05182 1.24261 0
M  V30 1665 O 162.769 1.32613 1.19483 0
M  V30 1666 C 159.869 2.5825 2.19454 0
M  V30 1667 C 159.042 3.88302 2.01346 0
M  V30 1668 C 158.101 4.21004 3.15661 0
M  V30 1669 O 157.127 4.9014 2.89398 0
M  V30 1670 N 158.329 3.76818 4.41575 0
M  V30 1671 H 161.094 2.96668 0.425216 0
M  V30 1672 H 158.655 1.61678 0.0847334 0
M  V30 1673 H 160.647 2.7717 2.94888 0
M  V30 1674 H 159.217 1.77907 2.57037 0
M  V30 1675 H 158.437 3.7848 1.10212 0
M  V30 1676 H 159.725 4.73375 1.8653 0
M  V30 1677 H 159.123 3.2102 4.65792 0
M  V30 1678 H 157.68 4.00882 5.13942 0
M  V30 1679 N 161.113 -0.173488 1.56642 0
M  V30 1680 C 162.046 -1.24353 1.91342 0
M  V30 1681 C 163.024 -1.4289 0.775965 0
M  V30 1682 O 164.208 -1.57932 1.02907 0
M  V30 1683 C 161.335 -2.60683 2.16245 0
M  V30 1684 C 160.381 -2.58894 3.38934 0
M  V30 1685 S 161.214 -2.0819 4.93373 0
M  V30 1686 C 162.37 -3.46302 5.21369 0
M  V30 1687 H 162.603 -0.947345 2.81803 0
M  V30 1688 H 160.136 -0.377958 1.49703 0
M  V30 1689 H 162.094 -3.39149 2.31275 0
M  V30 1690 H 160.755 -2.87502 1.26496 0
M  V30 1691 H 159.948 -3.59188 3.53553 0
M  V30 1692 H 159.55 -1.88522 3.2301 0
M  V30 1693 H 161.842 -4.42287 5.13214 0
M  V30 1694 H 162.785 -3.3656 6.23003 0
M  V30 1695 H 163.193 -3.42214 4.48943 0
M  V30 1696 N 162.591 -1.51276 -0.441967 0
M  V30 1697 C 163.541 -1.6864 -1.53442 0
M  V30 1698 C 164.525 -0.540444 -1.51552 0
M  V30 1699 O 165.717 -0.796157 -1.58083 0
M  V30 1700 C 162.846 -1.8106 -2.91672 0
M  V30 1701 C 161.932 -3.01424 -2.98336 0
M  V30 1702 N 162.323 -4.2467 -2.74752 0
M  V30 1703 C 160.621 -3.00584 -3.29493 0
M  V30 1704 C 161.322 -5.05891 -2.87139 0
M  V30 1705 N 160.298 -4.40442 -3.18609 0
M  V30 1706 H 164.1 -2.61598 -1.33954 0
M  V30 1707 H 161.614 -1.4886 -0.6492 0
M  V30 1708 H 163.611 -1.91609 -3.70259 0
M  V30 1709 H 162.271 -0.892795 -3.12185 0
M  V30 1710 H 163.282 -4.53691 -2.49769 0
M  V30 1711 H 159.959 -2.18417 -3.55809 0
M  V30 1712 H 161.349 -6.13983 -2.72899 0
M  V30 1713 N 164.069 0.697108 -1.41344 0
M  V30 1714 C 165.316 1.45714 -1.40619 0
M  V30 1715 C 165.644 1.94494 -0.0147907 0
M  V30 1716 O 164.899 1.69794 0.973066 0
M  V30 1717 C 165.198 2.68553 -2.35826 0
M  V30 1718 C 164.864 2.38438 -3.82698 0
M  V30 1719 C 163.526 2.29936 -4.22709 0
M  V30 1720 C 165.878 2.13567 -4.75435 0
M  V30 1721 C 163.206 1.94656 -5.53467 0
M  V30 1722 C 165.558 1.79797 -6.06511 0
M  V30 1723 C 164.222 1.69789 -6.45545 0
M  V30 1724 H 163.492 0.533206 -0.51456 0
M  V30 1725 H 166.139 0.796901 -1.74131 0
M  V30 1726 H 164.444 3.39503 -1.95563 0
M  V30 1727 H 166.141 3.2669 -2.32539 0
M  V30 1728 H 162.731 2.4595 -3.51008 0
M  V30 1729 H 166.915 2.19082 -4.45328 0
M  V30 1730 H 162.171 1.8546 -5.82593 0
M  V30 1731 H 166.345 1.59572 -6.77872 0
M  V30 1732 H 163.972 1.4222 -7.46778 0
M  V30 1733 N 165.547 1.27147 0.931209 0
M  V30 1734 C 166.497 1.06227 2.01742 0
M  V30 1735 C 167.481 -0.00859065 1.60898 0
M  V30 1736 O 168.673 0.209537 1.75755 0
M  V30 1737 C 165.802 0.707787 3.35924 0
M  V30 1738 C 164.888 1.81661 3.83223 0
M  V30 1739 N 165.279 3.05564 4.03069 0
M  V30 1740 C 163.577 1.70249 4.12227 0
M  V30 1741 C 164.278 3.77697 4.42403 0
M  V30 1742 N 163.254 3.0544 4.49675 0
M  V30 1743 H 167.056 2.00261 2.15111 0
M  V30 1744 H 164.57 1.1781 1.11779 0
M  V30 1745 H 166.567 0.539043 4.134 0
M  V30 1746 H 165.227 -0.224964 3.2392 0
M  V30 1747 H 166.238 3.41363 3.89476 0
M  V30 1748 H 162.915 0.840329 4.08956 0
M  V30 1749 H 164.305 4.84168 4.65866 0
M  V30 1750 N 167.025 -1.13721 1.09112 0
M  V30 1751 C 168.271 -1.85413 0.836283 0
M  V30 1752 C 168.626 -1.8175 -0.631249 0
M  V30 1753 O 167.919 -1.24238 -1.45861 0
M  V30 1754 C 168.113 -3.32861 1.30146 0
M  V30 1755 C 167.942 -3.50882 2.81268 0
M  V30 1756 C 166.712 -3.65312 3.49106 0
M  V30 1757 C 168.91 -3.47196 3.7942 0
M  V30 1758 N 166.892 -3.71563 4.88686 0
M  V30 1759 C 168.263 -3.59777 5.04936 0
M  V30 1760 C 170.318 -3.30577 3.72321 0
M  V30 1761 C 169.021 -3.57455 6.24194 0
M  V30 1762 C 171.047 -3.29562 4.91063 0
M  V30 1763 C 170.409 -3.42691 6.15421 0
M  V30 1764 H 166.508 -0.694812 0.358832 0
M  V30 1765 H 169.092 -1.36246 1.39087 0
M  V30 1766 H 167.263 -3.80602 0.774361 0
M  V30 1767 H 168.995 -3.92346 0.99229 0
M  V30 1768 H 165.75 -3.6685 2.9953 0
M  V30 1769 H 166.174 -3.78387 5.61384 0
M  V30 1770 H 170.816 -3.19332 2.77105 0
M  V30 1771 H 168.534 -3.67475 7.19714 0
M  V30 1772 H 172.12 -3.17905 4.87266 0
M  V30 1773 H 171 -3.41862 7.05762 0
M  V30 1774 N 168.503 -0.877838 -1.30888 0
M  V30 1775 C 169.751 -0.491723 -1.96027 0
M  V30 1776 C 170.072 0.960827 -1.69685 0
M  V30 1777 O 169.342 1.67462 -1.01654 0
M  V30 1778 H 167.922 -0.17885 -0.725273 0
M  V30 1779 H 170.584 -1.11935 -1.59551 0
M  V30 1780 H 169.68 -0.656016 -3.05128 0
M  V30 1781 N 169.982 1.44106 -0.638065 0
M  V30 1782 C 171.23 2.01579 -0.145043 0
M  V30 1783 C 171.551 1.50496 1.24 0
M  V30 1784 O 170.821 0.711374 1.82527 0
M  V30 1785 H 169.401 0.745282 -0.05063 0
M  V30 1786 H 172.063 1.76516 -0.826327 0
M  V30 1787 H 171.159 3.11877 -0.118039 0
M  V30 1788 N 171.46 0.379036 1.52974 0
M  V30 1789 C 172.423 -0.448865 2.24762 0
M  V30 1790 C 173.423 -0.998689 1.26027 0
M  V30 1791 O 174.613 -0.882313 1.50203 0
M  V30 1792 C 171.745 -1.62872 2.99476 0
M  V30 1793 H 172.938 0.179491 2.99362 0
M  V30 1794 H 170.491 0.13096 1.5575 0
M  V30 1795 H 171.226 -2.29479 2.29151 0
M  V30 1796 H 171.011 -1.24128 3.71934 0
M  V30 1797 H 172.501 -2.2151 3.5401 0
M  V30 1798 N 172.938 -1.57226 0.108567 0
M  V30 1799 C 174.163 -1.99604 -0.563303 0
M  V30 1800 C 174.588 -0.987563 -1.6009 0
M  V30 1801 O 173.946 0.0421687 -1.81251 0
M  V30 1802 C 173.994 -3.40902 -1.17552 0
M  V30 1803 O 173.098 -3.42896 -2.2912 0
M  V30 1804 H 172.439 -0.648704 -0.1417 0
M  V30 1805 H 174.969 -2.03679 0.193961 0
M  V30 1806 H 174.979 -3.78886 -1.51357 0
M  V30 1807 H 173.654 -4.1382 -0.415445 0
M  V30 1808 H 172.231 -3.1672 -1.96832 0
M  V30 1809 N 174.416 0.165178 -1.56732 0
M  V30 1810 C 175.641 0.900253 -1.86843 0
M  V30 1811 C 176.066 1.74766 -0.695596 0
M  V30 1812 O 175.424 1.77786 0.35522 0
M  V30 1813 C 175.472 1.74777 -3.15413 0
M  V30 1814 O 174.576 2.85007 -2.98068 0
M  V30 1815 H 173.917 0.251832 -0.614391 0
M  V30 1816 H 176.447 0.161468 -2.03962 0
M  V30 1817 H 176.457 2.14646 -3.46974 0
M  V30 1818 H 175.132 1.12537 -4.00385 0
M  V30 1819 H 173.709 2.48676 -2.77875 0
M  V30 1820 N 175.894 1.51508 0.433938 0
M  V30 1821 C 176.804 1.75917 1.5521 0
M  V30 1822 C 177.82 0.643545 1.61662 0
M  V30 1823 O 178.996 0.926183 1.7884 0
M  V30 1824 C 176.061 1.88213 2.91164 0
M  V30 1825 C 175.122 3.12074 2.94802 0
M  V30 1826 C 174.355 3.23774 4.24271 0
M  V30 1827 O 174.578 2.4133 5.16833 0
M  V30 1828 O 173.512 4.16774 4.34262 0
M  V30 1829 H 177.338 2.70777 1.37527 0
M  V30 1830 H 174.923 1.36051 0.617293 0
M  V30 1831 H 176.805 1.98267 3.71845 0
M  V30 1832 H 175.48 0.965413 3.08968 0
M  V30 1833 H 174.387 3.07497 2.13065 0
M  V30 1834 H 175.72 4.03446 2.81943 0
M  V30 1835 N 177.372 -0.689602 1.41712 0
M  V30 1836 C 178.621 -1.44534 1.40686 0
M  V30 1837 C 178.934 -1.95588 0.0213352 0
M  V30 1838 O 180.14 -2.71271 -0.111534 0
M  V30 1839 C 178.596 -2.61387 2.47396 0
M  V30 1840 C 178.204 -2.17094 3.91885 0
M  V30 1841 C 179.948 -3.38986 2.55517 0
M  V30 1842 C 177.855 -3.3094 4.90135 0
M  V30 1843 H 176.785 -0.542925 0.52321 0
M  V30 1844 H 179.436 -0.748054 1.6756 0
M  V30 1845 H 177.818 -3.33412 2.13664 0
M  V30 1846 H 178.992 -1.52318 4.34897 0
M  V30 1847 H 177.307 -1.52473 3.8748 0
M  V30 1848 H 179.904 -4.23747 3.26102 0
M  V30 1849 H 180.247 -3.84578 1.59391 0
M  V30 1850 H 180.78 -2.74021 2.8837 0
M  V30 1851 H 177.519 -2.90355 5.87685 0
M  V30 1852 H 177.039 -3.94546 4.51767 0
M  V30 1853 H 178.718 -3.9663 5.11169 0
M  V30 1854 N 178.85 -1.27639 -0.924453 0
M  V30 1855 C 180.075 -1.17101 -1.71179 0
M  V30 1856 C 180.5 0.268134 -1.86179 0
M  V30 1857 O 179.858 1.19415 -1.36418 0
M  V30 1858 C 179.906 -1.86313 -3.08739 0
M  V30 1859 O 179.01 -1.16331 -3.95652 0
M  V30 1860 H 178.351 -0.407091 -0.524569 0
M  V30 1861 H 180.881 -1.68767 -1.15666 0
M  V30 1862 H 180.891 -1.938 -3.59034 0
M  V30 1863 H 179.566 -2.91001 -2.97138 0
M  V30 1864 H 178.143 -1.16935 -3.54091 0
M  V30 1865 N 180.328 1.1314 -1.09713 0
M  V30 1866 C 181.576 1.84119 -0.833338 0
M  V30 1867 C 181.897 1.84097 0.642904 0
M  V30 1868 O 181.167 1.29881 1.46655 0
M  V30 1869 H 179.747 0.681766 -0.305293 0
M  V30 1870 H 182.409 1.37038 -1.38588 0
M  V30 1871 H 181.505 2.88543 -1.18951 0
M  V30 1872 N 181.806 0.884767 1.30421 0
M  V30 1873 C 183.031 0.517288 2.00845 0
M  V30 1874 C 183.456 -0.886779 1.65885 0
M  V30 1875 O 182.814 -1.58768 0.875354 0
M  V30 1876 C 182.862 0.698994 3.5376 0
M  V30 1877 O 181.966 -0.255208 4.1161 0
M  V30 1878 H 181.307 0.203872 0.631927 0
M  V30 1879 H 183.837 1.19225 1.66272 0
M  V30 1880 H 183.847 0.597912 4.03595 0
M  V30 1881 H 182.522 1.72271 3.78544 0
M  V30 1882 H 181.099 -0.10784 3.72744 0
M  V30 1883 N 183.284 -1.43765 0.645699 0
M  V30 1884 C 184.194 -2.34544 -0.0512957 0
M  V30 1885 C 185.21 -1.53455 -0.82022 0
M  V30 1886 O 186.386 -1.86133 -0.769176 0
M  V30 1887 C 183.451 -3.31636 -1.01087 0
M  V30 1888 C 182.512 -4.2863 -0.239712 0
M  V30 1889 C 181.745 -5.21084 -1.15358 0
M  V30 1890 O 181.968 -5.1779 -2.39269 0
M  V30 1891 O 180.902 -5.98593 -0.630038 0
M  V30 1892 H 184.728 -2.95624 0.695718 0
M  V30 1893 H 182.313 -1.43781 0.405882 0
M  V30 1894 H 184.195 -3.9136 -1.56254 0
M  V30 1895 H 182.87 -2.73069 -1.73824 0
M  V30 1896 H 181.777 -3.72408 0.355356 0
M  V30 1897 H 183.11 -4.90157 0.447936 0
M  V30 1898 N 184.763 -0.387143 -1.52771 0
M  V30 1899 C 185.713 0.465942 -2.23188 0
M  V30 1900 C 186.697 1.03138 -1.23496 0
M  V30 1901 O 187.889 0.957845 -1.48843 0
M  V30 1902 C 185.018 1.59384 -3.04059 0
M  V30 1903 C 184.104 1.04024 -4.11144 0
M  V30 1904 N 184.495 0.211416 -5.05358 0
M  V30 1905 C 182.793 1.31295 -4.26237 0
M  V30 1906 C 183.494 -0.0941698 -5.81624 0
M  V30 1907 N 182.47 0.509207 -5.4121 0
M  V30 1908 H 186.272 -0.173856 -2.93385 0
M  V30 1909 H 183.786 -0.19633 -1.61209 0
M  V30 1910 H 185.783 2.21738 -3.53041 0
M  V30 1911 H 184.443 2.23648 -2.35397 0
M  V30 1912 H 185.454 -0.151151 -5.17679 0
M  V30 1913 H 182.131 1.95679 -3.68803 0
M  V30 1914 H 183.521 -0.765572 -6.67524 0
M  V30 1915 N 186.241 1.57166 -0.116904 0
M  V30 1916 C 187.469 1.99473 0.549383 0
M  V30 1917 C 187.884 0.996541 1.60357 0
M  V30 1918 O 187.241 -0.0108731 1.82497 0
M  V30 1919 C 187.292 3.41788 1.17741 0
M  V30 1920 O 187.013 4.37788 0.165362 0
M  V30 1921 C 188.514 3.99216 1.92722 0
M  V30 1922 H 185.734 0.655009 0.145616 0
M  V30 1923 H 188.278 2.03494 -0.202625 0
M  V30 1924 H 186.433 3.38713 1.88021 0
M  V30 1925 H 186.847 5.20806 0.621403 0
M  V30 1926 H 188.321 5.00882 2.31995 0
M  V30 1927 H 188.798 3.3824 2.80161 0
M  V30 1928 H 189.404 4.0583 1.27209 0
M  V30 1929 N 187.719 -0.156864 1.56817 0
M  V30 1930 C 188.965 -0.872416 1.83076 0
M  V30 1931 C 189.298 -1.81261 0.697001 0
M  V30 1932 O 188.573 -1.92171 -0.30008 0
M  V30 1933 C 188.856 -1.65551 3.19789 0
M  V30 1934 C 188.709 -0.737467 4.43713 0
M  V30 1935 C 190.028 -2.62012 3.53606 0
M  V30 1936 H 187.147 -0.315715 0.665953 0
M  V30 1937 H 189.789 -0.138004 1.89498 0
M  V30 1938 H 187.939 -2.28159 3.14445 0
M  V30 1939 H 189.611 -0.123143 4.61136 0
M  V30 1940 H 187.854 -0.0464067 4.33775 0
M  V30 1941 H 188.525 -1.32122 5.35955 0
M  V30 1942 H 191.001 -2.09525 3.59497 0
M  V30 1943 H 189.877 -3.13861 4.50314 0
M  V30 1944 H 190.138 -3.42902 2.79053 0
M  V30 1945 N 189.197 -1.51736 -0.425897 0
M  V30 1946 C 190.474 -1.55519 -1.1863 0
M  V30 1947 C 190.854 -0.326219 -2.08564 0
M  V30 1948 O 190.202 0.688012 -2.17896 0
M  V30 1949 C 190.412 -2.87521 -1.9782 0
M  V30 1950 C 191.76 -3.39899 -2.54468 0
M  V30 1951 O 192.784 -2.89148 -2.08019 0
M  V30 1952 O 191.643 -4.2848 -3.39215 0
M  V30 1953 H 188.737 -0.625739 -0.540721 0
M  V30 1954 H 191.283 -1.64055 -0.434038 0
M  V30 1955 H 190.055 -3.68422 -1.31836 0
M  V30 1956 H 189.678 -2.822 -2.80088 0
M  V30 1957 N 190.675 0.682077 -1.42076 0
M  V30 1958 C 191.923 1.4393 -1.41876 0
M  V30 1959 C 192.244 1.94971 -0.0335599 0
M  V30 1960 O 191.514 1.72591 0.926773 0
M  V30 1961 H 190.094 0.534085 -0.522267 0
M  V30 1962 H 192.756 0.806427 -1.77434 0
M  V30 1963 H 191.852 2.29588 -2.11414 0
M  V30 1964 N 192.153 1.28127 0.917671 0
M  V30 1965 C 193.402 1.14432 1.66097 0
M  V30 1966 C 193.715 -0.307247 1.93172 0
M  V30 1967 O 194.921 -0.565259 2.65551 0
M  V30 1968 C 193.377 2.00015 2.99202 0
M  V30 1969 C 192.985 3.49889 2.79789 0
M  V30 1970 C 194.729 1.94996 3.77064 0
M  V30 1971 C 192.636 4.27636 4.08511 0
M  V30 1972 H 191.566 0.424662 0.62304 0
M  V30 1973 H 194.217 1.52628 1.01868 0
M  V30 1974 H 192.599 1.54672 3.64544 0
M  V30 1975 H 193.773 4.03162 2.23152 0
M  V30 1976 H 192.088 3.56392 2.15345 0
M  V30 1977 H 194.685 2.50354 4.72469 0
M  V30 1978 H 195.028 0.925819 4.05875 0
M  V30 1979 H 195.561 2.38287 3.18534 0
M  V30 1980 H 192.3 5.30615 3.84874 0
M  V30 1981 H 191.82 3.79137 4.64774 0
M  V30 1982 H 193.499 4.37346 4.76799 0
M  V30 1983 N 193.631 -1.12557 1.10312 0
M  V30 1984 C 195.047 -1.36036 0.834649 0
M  V30 1985 C 195.247 -1.93946 -0.546539 0
M  V30 1986 O 194.303 -2.16484 -1.29966 0
M  V30 1987 C 195.616 -2.30312 1.9333 0
M  V30 1988 C 197.164 -2.43906 1.9616 0
M  V30 1989 C 197.639 -3.41496 3.05195 0
M  V30 1990 N 199.13 -3.49053 3.04494 0
M  V30 1991 C 199.865 -4.24471 3.85502 0
M  V30 1992 N 199.361 -5.02966 4.76442 0
M  V30 1993 N 201.154 -4.19864 3.73725 0
M  V30 1994 H 193.305 -0.733246 1.99342 0
M  V30 1995 H 195.568 -0.385234 0.866198 0
M  V30 1996 H 195.274 -1.94933 2.92735 0
M  V30 1997 H 195.148 -3.30421 1.81939 0
M  V30 1998 H 197.535 -2.78567 0.973886 0
M  V30 1999 H 197.616 -1.4369 2.11629 0
M  V30 2000 H 197.26 -3.07565 4.04186 0
M  V30 2001 H 197.19 -4.41539 2.86968 0
M  V30 2002 H 199.681 -2.93053 2.38596 0
M  V30 2003 H 199.994 -5.57846 5.34815 0
M  V30 2004 H 198.339 -5.02167 4.80472 0
M  V30 2005 H 201.53 -3.57623 3.02032 0
M  V30 2006 H 201.703 -4.78386 4.37093 0
M  V30 2007 N 195.109 -0.891671 -1.2995 0
M  V30 2008 C 196.059 -0.334811 -2.25528 0
M  V30 2009 C 197.043 0.540553 -1.51548 0
M  V30 2010 O 198.235 0.383882 -1.72787 0
M  V30 2011 C 195.364 0.44374 -3.4042 0
M  V30 2012 C 194.45 -0.44609 -4.21747 0
M  V30 2013 N 194.841 -1.54963 -4.81477 0
M  V30 2014 C 193.139 -0.242415 -4.45341 0
M  V30 2015 C 193.84 -2.10015 -5.42465 0
M  V30 2016 N 192.816 -1.39423 -5.25416 0
M  V30 2017 H 196.618 -1.17792 -2.69262 0
M  V30 2018 H 194.132 -0.741822 -1.44467 0
M  V30 2019 H 196.129 0.859362 -4.07947 0
M  V30 2020 H 194.789 1.28421 -2.98225 0
M  V30 2021 H 195.8 -1.93244 -4.80497 0
M  V30 2022 H 192.477 0.560342 -4.13723 0
M  V30 2023 H 193.867 -3.02724 -5.9984 0
M  V30 2024 N 196.587 1.43421 -0.653314 0
M  V30 2025 C 197.833 2.02111 -0.166992 0
M  V30 2026 C 198.166 1.51423 1.21592 0
M  V30 2027 O 197.441 0.707389 1.8118 0
M  V30 2028 C 197.724 3.5966 -0.177948 0
M  V30 2029 C 197.577 4.20579 -1.59478 0
M  V30 2030 C 198.896 4.37413 0.4856 0
M  V30 2031 H 196.015 0.734374 -0.0621557 0
M  V30 2032 H 198.657 1.70717 -0.834016 0
M  V30 2033 H 196.807 3.86537 0.390032 0
M  V30 2034 H 198.479 4.04732 -2.21336 0
M  V30 2035 H 196.722 3.77226 -2.14204 0
M  V30 2036 H 197.393 5.29665 -1.5543 0
M  V30 2037 H 199.869 4.161 0.00234528 0
M  V30 2038 H 198.745 5.47075 0.447207 0
M  V30 2039 H 199.006 4.13672 1.55974 0
M  V30 2040 N 198.065 0.39524 1.52563 0
M  V30 2041 C 199.314 -0.186321 2.00838 0
M  V30 2042 C 199.627 -1.47402 1.28577 0
M  V30 2043 O 200.833 -2.13599 1.67593 0
M  V30 2044 C 199.289 -0.382595 3.57861 0
M  V30 2045 C 198.897 0.892202 4.39026 0
M  V30 2046 C 200.641 -0.9202 4.14406 0
M  V30 2047 C 198.548 0.66388 5.87662 0
M  V30 2048 H 197.478 -0.0734041 0.750418 0
M  V30 2049 H 200.129 0.518552 1.76021 0
M  V30 2050 H 198.511 -1.14946 3.7895 0
M  V30 2051 H 199.685 1.66414 4.29701 0
M  V30 2052 H 198 1.35519 3.9373 0
M  V30 2053 H 200.597 -1.10683 5.23119 0
M  V30 2054 H 200.94 -1.89096 3.70875 0
M  V30 2055 H 201.473 -0.212751 3.97231 0
M  V30 2056 H 198.212 1.6058 6.35527 0
M  V30 2057 H 197.732 -0.0690193 5.9976 0
M  V30 2058 H 199.411 0.300699 6.46301 0
M  V30 2059 N 199.544 -1.57102 0.125237 0
M  V30 2060 C 200.454 -2.19191 -0.8362 0
M  V30 2061 C 201.47 -1.16985 -1.28805 0
M  V30 2062 O 202.646 -1.49479 -1.34974 0
M  V30 2063 C 199.711 -2.78407 -2.06617 0
M  V30 2064 C 198.772 -3.9567 -1.66565 0
M  V30 2065 C 198.005 -4.52052 -2.83698 0
M  V30 2066 O 198.228 -4.07326 -3.99302 0
M  V30 2067 O 197.162 -5.42645 -2.60423 0
M  V30 2068 H 200.988 -3.01816 -0.337776 0
M  V30 2069 H 198.573 -1.4906 -0.100695 0
M  V30 2070 H 200.455 -3.16129 -2.7864 0
M  V30 2071 H 199.13 -1.9881 -2.55453 0
M  V30 2072 H 198.037 -3.62705 -0.916296 0
M  V30 2073 H 199.37 -4.76722 -1.22464 0
M  V30 2074 N 201.022 0.148545 -1.56898 0
M  V30 2075 C 202.271 0.85984 -1.82454 0
M  V30 2076 C 202.584 1.82406 -0.706229 0
M  V30 2077 O 203.79 2.57938 -0.847349 0
M  V30 2078 C 202.246 1.57967 -3.2338 0
M  V30 2079 C 201.854 0.65794 -4.43142 0
M  V30 2080 C 203.598 2.27784 -3.58211 0
M  V30 2081 C 201.505 1.3793 -5.75091 0
M  V30 2082 H 200.435 0.324834 -0.68044 0
M  V30 2083 H 203.086 0.112588 -1.83154 0
M  V30 2084 H 201.468 2.37249 -3.17063 0
M  V30 2085 H 202.642 -0.0995497 -4.60692 0
M  V30 2086 H 200.957 0.0682643 -4.16344 0
M  V30 2087 H 203.554 2.8239 -4.54048 0
M  V30 2088 H 203.897 3.04204 -2.84193 0
M  V30 2089 H 204.43 1.55421 -3.66182 0
M  V30 2090 H 201.169 0.656982 -6.52199 0
M  V30 2091 H 200.689 2.10954 -5.61479 0
M  V30 2092 H 202.368 1.92063 -6.17835 0
M  V30 2093 N 202.5 1.5196 0.417844 0
M  V30 2094 C 203.45 1.7106 1.5074 0
M  V30 2095 C 204.434 0.564487 1.50673 0
M  V30 2096 O 205.626 0.821206 1.56797 0
M  V30 2097 C 202.755 1.85677 2.88754 0
M  V30 2098 C 201.841 3.06133 2.93502 0
M  V30 2099 N 202.232 4.28987 2.67962 0
M  V30 2100 C 200.53 3.05787 3.24669 0
M  V30 2101 C 201.231 5.10395 2.79055 0
M  V30 2102 N 200.207 4.45455 3.11561 0
M  V30 2103 H 204.009 2.63696 1.29775 0
M  V30 2104 H 201.523 1.49873 0.625436 0
M  V30 2105 H 203.52 1.97475 3.67164 0
M  V30 2106 H 202.18 0.942348 3.10725 0
M  V30 2107 H 203.191 4.57607 2.4252 0
M  V30 2108 H 199.868 2.2405 3.52289 0
M  V30 2109 H 201.258 6.18247 2.63097 0
M  V30 2110 N 203.978 -0.674533 1.42435 0
M  V30 2111 C 205.227 -1.43034 1.42212 0
M  V30 2112 C 205.54 -1.95555 0.0420788 0
M  V30 2113 O 206.746 -2.71374 -0.0827558 0
M  V30 2114 C 205.202 -2.58748 2.50155 0
M  V30 2115 C 204.81 -2.12925 3.94166 0
M  V30 2116 C 206.554 -3.36257 2.59098 0
M  V30 2117 C 204.461 -3.25723 4.93618 0
M  V30 2118 H 203.391 -0.537345 0.528939 0
M  V30 2119 H 206.042 -0.73024 1.68344 0
M  V30 2120 H 204.424 -3.31128 2.17188 0
M  V30 2121 H 205.598 -1.47697 4.36488 0
M  V30 2122 H 203.913 -1.48354 3.89076 0
M  V30 2123 H 206.51 -4.20264 3.30578 0
M  V30 2124 H 206.853 -3.82866 1.63461 0
M  V30 2125 H 207.386 -2.70947 2.9126 0
M  V30 2126 H 204.125 -2.84105 5.90732 0
M  V30 2127 H 203.645 -3.89732 4.55926 0
M  V30 2128 H 205.324 -3.91186 5.15347 0
M  V30 2129 N 205.456 -1.28612 -0.910864 0
M  V30 2130 C 206.702 -1.16106 -1.66274 0
M  V30 2131 C 207.035 0.289113 -1.92036 0
M  V30 2132 O 206.31 1.21 -1.52281 0
M  V30 2133 C 206.593 -1.96309 -3.01885 0
M  V30 2134 C 206.446 -3.49405 -2.8326 0
M  V30 2135 C 207.765 -1.78076 -4.02463 0
M  V30 2136 H 204.884 -0.423152 -0.603417 0
M  V30 2137 H 207.526 -1.57961 -1.05586 0
M  V30 2138 H 205.676 -1.60742 -3.53687 0
M  V30 2139 H 207.348 -3.94894 -2.38446 0
M  V30 2140 H 205.591 -3.74893 -2.18261 0
M  V30 2141 H 206.262 -4.00784 -3.79574 0
M  V30 2142 H 208.738 -2.0912 -3.59733 0
M  V30 2143 H 207.614 -2.36561 -4.95308 0
M  V30 2144 H 207.875 -0.733008 -4.35981 0
M  V30 2145 N 206.934 1.1197 -1.10907 0
M  V30 2146 C 207.884 2.15946 -0.731538 0
M  V30 2147 C 208.868 1.58758 0.261699 0
M  V30 2148 O 210.06 1.76863 0.0696722 0
M  V30 2149 C 207.189 3.42877 -0.170299 0
M  V30 2150 C 206.275 4.07037 -1.19087 0
M  V30 2151 N 206.666 4.46135 -2.38322 0
M  V30 2152 C 204.964 4.33884 -1.03252 0
M  V30 2153 C 205.665 4.96331 -3.03366 0
M  V30 2154 N 204.641 4.9214 -2.30865 0
M  V30 2155 H 208.443 2.43947 -1.63912 0
M  V30 2156 H 205.957 1.28927 -0.987505 0
M  V30 2157 H 207.954 4.16732 0.118271 0
M  V30 2158 H 206.614 3.16343 0.731935 0
M  V30 2159 H 207.625 4.38345 -2.75815 0
M  V30 2160 H 204.302 4.17084 -0.186256 0
M  V30 2161 H 205.692 5.36257 -4.04818 0
M  V30 2162 N 208.412 0.89855 1.29475 0
M  V30 2163 C 209.642 0.538479 1.99459 0
M  V30 2164 C 210.05 -0.880922 1.67441 0
M  V30 2165 O 209.393 -1.59283 0.915127 0
M  V30 2166 C 209.455 0.649564 3.53583 0
M  V30 2167 C 209.119 2.03573 4.09154 0
M  V30 2168 C 210.116 3.00675 4.24135 0
M  V30 2169 C 207.801 2.3448 4.44212 0
M  V30 2170 C 209.795 4.26809 4.73405 0
M  V30 2171 C 207.482 3.60857 4.93179 0
M  V30 2172 C 208.48 4.56836 5.0773 0
M  V30 2173 O 208.168 5.80969 5.55635 0
M  V30 2174 H 207.9 0.205372 0.644048 0
M  V30 2175 H 210.454 1.20958 1.66007 0
M  V30 2176 H 208.684 -0.0785592 3.8662 0
M  V30 2177 H 210.373 0.29881 4.04799 0
M  V30 2178 H 211.139 2.78112 3.97339 0
M  V30 2179 H 207.018 1.60534 4.32145 0
M  V30 2180 H 210.562 5.0173 4.84678 0
M  V30 2181 H 206.459 3.83251 5.19412 0
M  V30 2182 H 207.227 5.83542 5.73952 0
M  V30 2183 N 209.89 -1.43072 0.660911 0
M  V30 2184 C 210.838 -2.32569 -0.0378199 0
M  V30 2185 C 211.832 -1.49046 -0.805092 0
M  V30 2186 O 213.038 -1.65206 -0.714624 0
M  V30 2187 H 209.413 -0.75136 -0.031019 0
M  V30 2188 H 211.384 -2.89216 0.734609 0
M  V30 2189 C 210.133 -3.33453 -0.985124 0
M  V30 2190 H 209.456 -3.97752 -0.404147 0
M  V30 2191 H 210.896 -3.98691 -1.44297 0
M  V30 2192 C 209.355 -2.64642 -2.08486 0
M  V30 2193 O 209.885 -2.46776 -3.16961 0
M  V30 2194 N 208.091 -2.23891 -1.8526 0
M  V30 2195 H 207.638 -2.38621 -0.970449 0
M  V30 2196 H 207.596 -1.78181 -2.59034 0
M  V30 2197 N 211.368 -0.403325 -1.52352 0
M  V30 2198 C 212.593 0.176499 -2.06648 0
M  V30 2199 C 213.018 1.38577 -1.27193 0
M  V30 2200 O 212.376 1.7879 -0.300637 0
M  V30 2201 C 212.424 0.511061 -3.5696 0
M  V30 2202 O 211.528 1.60294 -3.79973 0
M  V30 2203 H 210.869 0.0167337 -0.663789 0
M  V30 2204 H 213.399 -0.574848 -1.96359 0
M  V30 2205 H 213.409 0.771362 -4.00642 0
M  V30 2206 H 212.084 -0.37296 -4.14224 0
M  V30 2207 H 210.661 1.33526 -3.48174 0
M  V30 2208 N 212.846 1.57033 -0.133567 0
M  V30 2209 C 213.793 2.16074 0.811208 0
M  V30 2210 C 214.763 1.08979 1.2535 0
M  V30 2211 O 215.948 1.36958 1.32843 0
M  V30 2212 C 213.088 2.77595 2.05024 0
M  V30 2213 C 212.201 3.99042 1.65498 0
M  V30 2214 C 211.336 4.48603 2.84479 0
M  V30 2215 C 210.375 5.62547 2.41262 0
M  V30 2216 N 209.512 6.06787 3.53206 0
M  V30 2217 H 214.352 2.96477 0.300906 0
M  V30 2218 H 211.889 1.46462 0.136822 0
M  V30 2219 H 213.847 3.11402 2.77642 0
M  V30 2220 H 212.477 1.99859 2.53488 0
M  V30 2221 H 211.529 3.71302 0.826981 0
M  V30 2222 H 212.841 4.81629 1.29748 0
M  V30 2223 H 211.995 4.84395 3.65303 0
M  V30 2224 H 210.734 3.64995 3.23465 0
M  V30 2225 H 209.739 5.26345 1.58874 0
M  V30 2226 H 210.964 6.47931 2.03377 0
M  V30 2227 H 208.91 5.26117 3.91838 0
M  V30 2228 H 208.827 6.84266 3.21427 0
M  V30 2229 H 210.095 6.4722 4.34427 0
M  V30 2230 N 214.325 -0.140222 1.56975 0
M  V30 2231 C 215.555 -0.865181 1.87612 0
M  V30 2232 C 215.963 -1.74942 0.72055 0
M  V30 2233 O 215.306 -1.80917 -0.318561 0
M  V30 2234 C 215.368 -1.76782 3.13031 0
M  V30 2235 C 215.032 -1.06005 4.44536 0
M  V30 2236 C 216.029 -0.410768 5.18275 0
M  V30 2237 C 213.714 -1.04754 4.91255 0
M  V30 2238 C 215.708 0.241572 6.36942 0
M  V30 2239 C 213.395 -0.391394 6.09845 0
M  V30 2240 C 214.393 0.252029 6.82535 0
M  V30 2241 O 214.081 0.897757 7.98871 0
M  V30 2242 H 213.813 -0.255188 0.625983 0
M  V30 2243 H 216.367 -0.135653 2.04952 0
M  V30 2244 H 214.597 -2.53846 2.91718 0
M  V30 2245 H 216.286 -2.36533 3.29859 0
M  V30 2246 H 217.052 -0.412195 4.83245 0
M  V30 2247 H 212.931 -1.53777 4.34596 0
M  V30 2248 H 216.475 0.744375 6.93617 0
M  V30 2249 H 212.372 -0.387656 6.44335 0
M  V30 2250 H 213.14 0.800102 8.1458 0
M  V30 2251 N 215.803 -1.52179 -0.40978 0
M  V30 2252 C 216.75 -1.75475 -1.49924 0
M  V30 2253 C 217.72 -0.597175 -1.54994 0
M  V30 2254 O 218.905 -0.834655 -1.71575 0
M  V30 2255 C 216.045 -1.9107 -2.87378 0
M  V30 2256 C 215.158 -3.18717 -2.91622 0
M  V30 2257 C 214.293 -3.24747 -4.20372 0
M  V30 2258 C 213.332 -4.46598 -4.18588 0
M  V30 2259 N 212.469 -4.50025 -5.38908 0
M  V30 2260 H 217.309 -2.68458 -1.29361 0
M  V30 2261 H 214.846 -1.33024 -0.627934 0
M  V30 2262 H 216.804 -1.98096 -3.6717 0
M  V30 2263 H 215.434 -1.01469 -3.06437 0
M  V30 2264 H 214.486 -3.20866 -2.04326 0
M  V30 2265 H 215.798 -4.08544 -2.86169 0
M  V30 2266 H 214.952 -3.30841 -5.08556 0
M  V30 2267 H 213.691 -2.32857 -4.28519 0
M  V30 2268 H 212.696 -4.40652 -3.28794 0
M  V30 2269 H 213.921 -5.39783 -4.12081 0
M  V30 2270 H 211.867 -3.61017 -5.47725 0
M  V30 2271 H 211.784 -5.33697 -5.35447 0
M  V30 2272 H 213.052 -4.60347 -6.29048 0
M  V30 2273 N 217.281 0.66697 -1.42791 0
M  V30 2274 C 218.506 1.46004 -1.47301 0
M  V30 2275 C 218.931 1.87894 -0.0880317 0
M  V30 2276 O 218.289 1.56502 0.915253 0
M  V30 2277 C 218.337 2.68031 -2.41229 0
M  V30 2278 O 217.441 3.6659 -1.88906 0
M  V30 2279 H 216.782 0.43832 -0.49877 0
M  V30 2280 H 219.312 0.817391 -1.87563 0
M  V30 2281 H 219.322 3.1601 -2.58073 0
M  V30 2282 H 217.997 2.36883 -3.41847 0
M  V30 2283 H 216.574 3.25661 -1.81656 0
M  V30 2284 N 218.759 1.29093 0.90403 0
M  V30 2285 C 219.989 1.19516 1.68522 0
M  V30 2286 C 220.397 -0.24738 1.87576 0
M  V30 2287 O 219.74 -1.17798 1.40959 0
M  V30 2288 C 219.802 1.83249 3.0929 0
M  V30 2289 C 219.466 3.32531 3.13484 0
M  V30 2290 C 220.463 4.28821 2.93953 0
M  V30 2291 C 218.148 3.73656 3.35688 0
M  V30 2292 C 220.142 5.64212 2.96553 0
M  V30 2293 C 217.829 5.0917 3.37919 0
M  V30 2294 C 218.827 6.04258 3.18373 0
M  V30 2295 O 218.515 7.37298 3.20385 0
M  V30 2296 H 218.247 0.415467 0.533257 0
M  V30 2297 H 220.801 1.70912 1.13922 0
M  V30 2298 H 219.031 1.26358 3.65473 0
M  V30 2299 H 220.72 1.68054 3.69476 0
M  V30 2300 H 221.486 3.98382 2.76616 0
M  V30 2301 H 217.365 3.00101 3.49943 0
M  V30 2302 H 220.909 6.38407 2.81216 0
M  V30 2303 H 216.806 5.39256 3.54787 0
M  V30 2304 H 217.574 7.46048 3.36681 0
M  V30 2305 N 220.237 -1.11381 1.11499 0
M  V30 2306 C 221.514 -1.7955 0.775965 0
M  V30 2307 C 221.894 -1.97859 -0.73588 0
M  V30 2308 O 221.242 -1.56376 -1.66609 0
M  V30 2309 C 221.452 -3.13196 1.53977 0
M  V30 2310 C 222.8 -3.88227 1.71944 0
M  V30 2311 O 223.824 -3.22887 1.50407 0
M  V30 2312 O 222.683 -5.05477 2.07738 0
M  V30 2313 H 219.777 -0.777728 0.28119 0
M  V30 2314 H 222.323 -1.18118 1.21845 0
M  V30 2315 H 221.095 -2.95229 2.56818 0
M  V30 2316 H 220.718 -3.82342 1.09088 0
M  V30 2317 N 221.715 -0.905404 -1.28997 0
M  V30 2318 C 222.964 -0.530191 -1.94607 0
M  V30 2319 C 223.277 0.929185 -1.72121 0
M  V30 2320 O 224.483 1.41218 -2.31883 0
M  V30 2321 C 222.939 -0.897333 -3.48534 0
M  V30 2322 C 222.547 -2.37587 -3.79811 0
M  V30 2323 C 224.291 -0.592304 -4.20347 0
M  V30 2324 C 222.198 -2.68357 -5.27009 0
M  V30 2325 H 221.128 -0.194558 -0.728466 0
M  V30 2326 H 223.779 -1.10318 -1.46636 0
M  V30 2327 H 222.161 -0.253214 -3.9519 0
M  V30 2328 H 223.335 -3.06602 -3.43994 0
M  V30 2329 H 221.65 -2.6505 -3.2115 0
M  V30 2330 H 224.247 -0.798975 -5.28697 0
M  V30 2331 H 224.59 0.469474 -4.13644 0
M  V30 2332 H 225.123 -1.19452 -3.79442 0
M  V30 2333 H 221.862 -3.73355 -5.38782 0
M  V30 2334 H 221.382 -2.03971 -5.64053 0
M  V30 2335 H 223.061 -2.54922 -5.94663 0
M  V30 2336 N 223.193 1.4272 -0.668489 0
M  V30 2337 C 224.156 2.292 0.00448567 0
M  V30 2338 C 225.156 1.43001 0.735339 0
M  V30 2339 O 226.346 1.64461 0.57429 0
M  V30 2340 C 223.478 3.25375 1.01705 0
M  V30 2341 H 224.671 2.90199 -0.756608 0
M  V30 2342 H 222.224 1.50254 -0.430506 0
M  V30 2343 H 222.959 2.69301 1.80686 0
M  V30 2344 H 222.744 3.88944 0.496463 0
M  V30 2345 H 224.234 3.90245 1.48655 0
M  V30 2346 N 224.671 0.411399 1.52136 0
M  V30 2347 C 225.603 -0.448386 2.24771 0
M  V30 2348 C 226.616 -1.00828 1.27818 0
M  V30 2349 O 227.805 -0.906841 1.53749 0
M  V30 2350 C 224.905 -1.63636 2.96777 0
M  V30 2351 C 224.078 -1.19995 4.20618 0
M  V30 2352 C 223.137 -2.25509 4.75428 0
M  V30 2353 O 222.163 -1.86007 5.3795 0
M  V30 2354 N 223.365 -3.577 4.57199 0
M  V30 2355 H 226.13 0.174025 2.99194 0
M  V30 2356 H 223.691 0.238897 1.60128 0
M  V30 2357 H 225.683 -2.33793 3.30338 0
M  V30 2358 H 224.253 -2.16465 2.25526 0
M  V30 2359 H 223.473 -0.326421 3.92846 0
M  V30 2360 H 224.761 -0.885365 5.01038 0
M  V30 2361 H 224.159 -3.92543 4.07341 0
M  V30 2362 H 222.716 -4.23827 4.95191 0
M  V30 2363 N 226.149 -1.5696 0.141893 0
M  V30 2364 C 227.426 -1.87553 -0.555281 0
M  V30 2365 C 227.806 -1.04699 -1.83306 0
M  V30 2366 O 227.154 -0.132346 -2.28116 0
M  V30 2367 C 227.364 -3.39093 -0.825664 0
M  V30 2368 C 228.712 -4.08199 -1.16869 0
M  V30 2369 O 229.736 -3.44242 -0.915185 0
M  V30 2370 O 228.595 -5.21139 -1.6455 0
M  V30 2371 H 225.689 -0.777188 -0.282679 0
M  V30 2372 H 228.235 -1.68763 0.17812 0
M  V30 2373 H 227.007 -3.91221 0.0788633 0
M  V30 2374 H 226.63 -3.63393 -1.61343 0
M  V30 2375 N 227.627 0.131896 -1.57047 0
M  V30 2376 C 228.59 1.14638 -1.98471 0
M  V30 2377 C 229.59 1.35029 -0.873148 0
M  V30 2378 O 230.78 1.31764 -1.13946 0
M  V30 2379 C 227.912 2.50358 -2.31373 0
M  V30 2380 H 229.105 0.79064 -2.8929 0
M  V30 2381 H 226.658 0.375761 -1.51716 0
M  V30 2382 H 227.393 2.90876 -1.43393 0
M  V30 2383 H 227.178 2.36915 -3.12432 0
M  V30 2384 H 228.668 3.23395 -2.64207 0
M  V30 2385 N 229.106 1.52395 0.401703 0
M  V30 2386 C 230.517 1.58899 0.980202 0
M  V30 2387 C 230.868 0.434032 1.91339 0
M  V30 2388 O 229.993 -0.444619 2.11783 0
M  V30 2389 C 230.588 2.87994 1.78451 0
M  V30 2390 C 229.147 2.96953 2.31292 0
M  V30 2391 C 228.294 2.53903 1.11483 0
M  V30 2392 H 231.245 1.57657 0.18168 0
M  V30 2393 H 231.266 2.73765 2.64259 0
M  V30 2394 H 230.778 3.72035 1.10506 0
M  V30 2395 H 228.879 2.17422 3.02586 0
M  V30 2396 H 228.992 4.01344 2.61649 0
M  V30 2397 H 227.356 2.07925 1.47104 0
M  V30 2398 H 228.139 3.40326 0.450928 0
M  V30 2399 N 230.584 -0.659388 1.43143 0
M  V30 2400 C 231.861 -1.41627 1.34912 0
M  V30 2401 C 232.241 -2.11099 -0.00607785 0
M  V30 2402 O 231.589 -2.04353 -1.02236 0
M  V30 2403 C 231.799 -2.40604 2.52805 0
M  V30 2404 C 233.147 -3.04789 2.95616 0
M  V30 2405 O 234.171 -2.50932 2.52807 0
M  V30 2406 O 233.03 -4.02421 3.69756 0
M  V30 2407 H 230.124 -0.63246 0.532844 0
M  V30 2408 H 232.67 -0.686814 1.5518 0
M  V30 2409 H 231.442 -1.88174 3.43083 0
M  V30 2410 H 231.065 -3.21009 2.34604 0
M  V30 2411 N 232.062 -1.29571 -0.897171 0
M  V30 2412 C 233.31 -1.17456 -1.64464 0
M  V30 2413 C 233.631 0.273698 -1.9307 0
M  V30 2414 O 232.901 1.18684 -1.55855 0
M  V30 2415 H 231.481 -0.431706 -0.609622 0
M  V30 2416 H 234.143 -1.62531 -1.07562 0
M  V30 2417 H 233.239 -1.72648 -2.59998 0
M  V30 2418 N 233.54 1.10788 -1.12088 0
M  V30 2419 C 234.47 2.19083 -0.807755 0
M  V30 2420 C 235.451 1.6858 0.226859 0
M  V30 2421 O 236.636 1.93997 0.0888475 0
M  V30 2422 C 233.766 3.46344 -0.257576 0
M  V30 2423 C 232.72 4.101 -1.22483 0
M  V30 2424 C 232.046 5.32016 -0.535052 0
M  V30 2425 C 233.346 4.54236 -2.57811 0
M  V30 2426 H 235.04 2.45534 -1.71328 0
M  V30 2427 H 232.586 1.1801 -0.825205 0
M  V30 2428 H 234.539 4.21392 -0.0262679 0
M  V30 2429 H 233.263 3.19373 0.683278 0
M  V30 2430 H 231.922 3.37054 -1.44189 0
M  V30 2431 H 231.57 5.01319 0.410827 0
M  V30 2432 H 231.27 5.75625 -1.18024 0
M  V30 2433 H 232.794 6.09799 -0.312695 0
M  V30 2434 H 234.208 5.20575 -2.40155 0
M  V30 2435 H 232.605 5.08682 -3.18375 0
M  V30 2436 H 233.675 3.6734 -3.16528 0
M  V30 2437 N 235.018 0.912232 1.28515 0
M  V30 2438 C 235.981 0.404223 2.25607 0
M  V30 2439 C 236.981 -0.468602 1.53821 0
M  V30 2440 O 238.171 -0.271873 1.72065 0
M  V30 2441 C 235.303 -0.420653 3.38295 0
M  V30 2442 H 236.496 1.26188 2.7206 0
M  V30 2443 H 234.049 0.691495 1.40171 0
M  V30 2444 H 234.784 -1.29777 2.97201 0
M  V30 2445 H 234.569 0.204935 3.91564 0
M  V30 2446 H 236.059 -0.766971 4.10496 0
M  V30 2447 N 236.496 -1.42363 0.676048 0
M  V30 2448 C 237.742 -2.0182 0.199125 0
M  V30 2449 C 238.075 -1.53339 -1.19168 0
M  V30 2450 O 237.35 -0.736124 -1.80032 0
M  V30 2451 C 237.633 -3.59331 0.235144 0
M  V30 2452 C 237.486 -4.17989 1.66149 0
M  V30 2453 C 238.805 -4.3813 -0.41595 0
M  V30 2454 H 235.924 -0.733293 0.0738311 0
M  V30 2455 H 238.566 -1.69368 0.86107 0
M  V30 2456 H 236.716 -3.87109 -0.328487 0
M  V30 2457 H 238.388 -4.0116 2.27747 0
M  V30 2458 H 236.631 -3.7377 2.20178 0
M  V30 2459 H 237.302 -5.27126 1.63837 0
M  V30 2460 H 239.778 -4.16051 0.0638529 0
M  V30 2461 H 238.654 -5.47717 -0.360115 0
M  V30 2462 H 238.915 -4.16101 -1.49373 0
M  V30 2463 N 237.974 -0.419461 -1.51915 0
M  V30 2464 C 238.904 0.391813 -2.30189 0
M  V30 2465 C 239.885 1.03699 -1.34836 0
M  V30 2466 O 241.07 1.04403 -1.63748 0
M  V30 2467 C 238.2 1.50312 -3.13087 0
M  V30 2468 C 237.154 0.9824 -4.16573 0
M  V30 2469 C 236.48 2.18809 -4.8788 0
M  V30 2470 C 237.78 0.0292356 -5.22292 0
M  V30 2471 H 239.474 -0.26135 -2.98257 0
M  V30 2472 H 237.02 -0.127134 -1.43438 0
M  V30 2473 H 238.973 2.07773 -3.66617 0
M  V30 2474 H 237.697 2.18431 -2.42807 0
M  V30 2475 H 236.356 0.430119 -3.64068 0
M  V30 2476 H 236.004 2.85507 -4.14119 0
M  V30 2477 H 235.704 1.84615 -5.57845 0
M  V30 2478 H 237.228 2.76858 -5.44226 0
M  V30 2479 H 238.642 0.512976 -5.71 0
M  V30 2480 H 237.039 -0.2244 -5.9968 0
M  V30 2481 H 238.109 -0.912931 -4.76228 0
M  V30 2482 N 239.452 1.56882 -0.150215 0
M  V30 2483 C 240.415 2.1573 0.774157 0
M  V30 2484 C 241.415 1.0999 1.17298 0
M  V30 2485 O 242.605 1.35613 1.09338 0
M  V30 2486 C 239.737 2.72302 2.05096 0
M  V30 2487 H 240.93 2.98752 0.262201 0
M  V30 2488 H 238.483 1.55985 0.099248 0
M  V30 2489 H 239.218 1.92956 2.6065 0
M  V30 2490 H 239.003 3.49665 1.77416 0
M  V30 2491 H 240.493 3.17632 2.71109 0
M  V30 2492 N 240.93 -0.123565 1.57115 0
M  V30 2493 C 241.893 -1.13583 1.99076 0
M  V30 2494 C 242.893 -1.34564 0.880296 0
M  V30 2495 O 244.083 -1.31158 1.14644 0
M  V30 2496 C 241.215 -2.49128 2.32698 0
M  V30 2497 H 242.408 -0.775287 2.89706 0
M  V30 2498 H 239.961 -0.36771 1.51913 0
M  V30 2499 H 240.696 -2.90111 1.44934 0
M  V30 2500 H 240.481 -2.35255 3.13684 0
M  V30 2501 H 241.971 -3.2199 2.65918 0
M  V30 2502 N 242.408 -1.52605 -0.393616 0
M  V30 2503 C 243.655 -1.67424 -1.1391 0
M  V30 2504 C 243.983 -0.411859 -1.90089 0
M  V30 2505 O 243.238 0.605626 -1.86093 0
M  V30 2506 C 243.537 -2.85721 -2.14705 0
M  V30 2507 C 243.203 -4.23342 -1.55218 0
M  V30 2508 C 241.865 -4.60771 -1.3872 0
M  V30 2509 C 244.217 -5.09041 -1.11924 0
M  V30 2510 C 241.545 -5.81563 -0.774689 0
M  V30 2511 C 243.897 -6.30452 -0.520853 0
M  V30 2512 C 242.561 -6.66617 -0.343134 0
M  V30 2513 H 241.831 -0.612648 -0.416826 0
M  V30 2514 H 244.478 -1.8674 -0.424315 0
M  V30 2515 H 242.783 -2.60803 -2.92385 0
M  V30 2516 H 244.48 -2.94382 -2.72288 0
M  V30 2517 H 241.07 -3.93855 -1.69045 0
M  V30 2518 H 245.254 -4.80695 -1.23473 0
M  V30 2519 H 240.51 -6.08196 -0.625154 0
M  V30 2520 H 244.684 -6.96175 -0.177065 0
M  V30 2521 H 242.311 -7.60083 0.133571 0
M  V30 2522 N 243.887 0.651787 -1.4349 0
M  V30 2523 C 245.133 1.41376 -1.45398 0
M  V30 2524 C 245.466 1.94041 -0.0784823 0
M  V30 2525 O 244.741 1.72379 0.900878 0
M  V30 2526 C 245.024 2.59414 -2.49752 0
M  V30 2527 C 244.877 2.12232 -3.96582 0
M  V30 2528 C 246.196 3.61626 -2.50827 0
M  V30 2529 H 243.315 0.512719 -0.529422 0
M  V30 2530 H 245.957 0.738796 -1.75048 0
M  V30 2531 H 244.107 3.16997 -2.246 0
M  V30 2532 H 245.779 1.59639 -4.32797 0
M  V30 2533 H 244.022 1.43592 -4.09346 0
M  V30 2534 H 244.693 2.9712 -4.65214 0
M  V30 2535 H 247.169 3.13805 -2.7325 0
M  V30 2536 H 246.045 4.41766 -3.25783 0
M  V30 2537 H 246.306 4.14314 -1.5426 0
M  V30 2538 N 245.365 1.30045 0.890287 0
M  V30 2539 C 246.275 1.17885 2.02831 0
M  V30 2540 C 247.291 0.0999609 1.73713 0
M  V30 2541 O 248.467 0.313867 1.98939 0
M  V30 2542 C 245.532 0.866079 3.35708 0
M  V30 2543 C 244.593 2.02979 3.78283 0
M  V30 2544 C 243.826 1.73184 5.0482 0
M  V30 2545 O 244.049 0.657237 5.66601 0
M  V30 2546 O 242.983 2.58267 5.43674 0
M  V30 2547 H 246.809 2.13474 2.16015 0
M  V30 2548 H 244.394 1.09587 1.01543 0
M  V30 2549 H 246.276 0.706623 4.15433 0
M  V30 2550 H 244.951 -0.0599443 3.23644 0
M  V30 2551 H 243.858 2.24454 2.99285 0
M  V30 2552 H 245.191 2.93734 3.94944 0
M  V30 2553 N 246.843 -1.10192 1.12674 0
M  V30 2554 C 248.089 -1.82475 0.884915 0
M  V30 2555 C 248.422 -1.85093 -0.58773 0
M  V30 2556 O 247.697 -1.3134 -1.43457 0
M  V30 2557 C 247.98 -3.29018 1.46353 0
M  V30 2558 C 247.833 -3.34718 3.00473 0
M  V30 2559 C 249.152 -4.25473 1.12519 0
M  V30 2560 H 246.271 -0.662492 0.322915 0
M  V30 2561 H 248.913 -1.2913 1.39375 0
M  V30 2562 H 247.063 -3.74576 1.03077 0
M  V30 2563 H 248.735 -2.97622 3.52447 0
M  V30 2564 H 246.978 -2.74541 3.35872 0
M  V30 2565 H 247.649 -4.37918 3.36053 0
M  V30 2566 H 250.125 -3.88161 1.499 0
M  V30 2567 H 249.001 -5.26365 1.55663 0
M  V30 2568 H 249.262 -4.42084 0.0377407 0
M  V30 2569 N 248.321 -0.919034 -1.28029 0
M  V30 2570 C 249.268 -0.410005 -2.27129 0
M  V30 2571 C 250.238 0.518405 -1.57803 0
M  V30 2572 O 251.423 0.439451 -1.8567 0
M  V30 2573 C 248.563 0.339054 -3.4343 0
M  V30 2574 C 247.676 -0.622468 -4.27492 0
M  V30 2575 C 246.811 0.145567 -5.31001 0
M  V30 2576 C 245.85 -0.809226 -6.06727 0
M  V30 2577 N 244.987 -0.0743728 -7.02061 0
M  V30 2578 H 249.827 -1.26011 -2.70047 0
M  V30 2579 H 247.364 -0.632663 -1.328 0
M  V30 2580 H 249.322 0.789586 -4.0966 0
M  V30 2581 H 247.952 1.15346 -3.01488 0
M  V30 2582 H 247.004 -1.19153 -3.61257 0
M  V30 2583 H 248.316 -1.35252 -4.80113 0
M  V30 2584 H 247.47 0.656417 -6.03139 0
M  V30 2585 H 246.209 0.908643 -4.79161 0
M  V30 2586 H 245.214 -1.3314 -5.33436 0
M  V30 2587 H 246.439 -1.57194 -6.60656 0
M  V30 2588 H 244.385 0.670616 -6.52563 0
M  V30 2589 H 244.302 -0.744157 -7.52329 0
M  V30 2590 H 245.57 0.416109 -7.78389 0
M  V30 2591 N 249.799 1.42003 -0.683588 0
M  V30 2592 C 250.747 2.326 0.000815408 0
M  V30 2593 C 251.741 1.50308 0.781278 0
M  V30 2594 O 252.947 1.66322 0.688251 0
M  V30 2595 H 249.322 0.751758 0.0190616 0
M  V30 2596 H 251.293 2.88011 -0.780528 0
M  V30 2597 C 250.042 3.34978 0.93195 0
M  V30 2598 H 249.365 3.98345 0.340817 0
M  V30 2599 H 250.805 4.00936 1.37936 0
M  V30 2600 C 249.264 2.67925 2.04249 0
M  V30 2601 O 249.794 2.51788 3.12995 0
M  V30 2602 N 248 2.2681 1.81675 0
M  V30 2603 H 247.547 2.40135 0.932363 0
M  V30 2604 H 247.505 1.8228 2.56167 0
M  V30 2605 N 251.277 0.427512 1.51691 0
M  V30 2606 C 252.507 -0.140986 2.06118 0
M  V30 2607 C 252.915 -1.37854 1.29588 0
M  V30 2608 O 252.258 -1.80411 0.346036 0
M  V30 2609 C 252.32 -0.538276 3.55447 0
M  V30 2610 C 251.984 0.591095 4.53161 0
M  V30 2611 C 252.981 1.46027 4.98971 0
M  V30 2612 C 250.666 0.769028 4.96378 0
M  V30 2613 C 252.66 2.49216 5.8666 0
M  V30 2614 C 250.347 1.80421 5.83859 0
M  V30 2615 C 251.345 2.66417 6.28897 0
M  V30 2616 O 251.033 3.68159 7.14643 0
M  V30 2617 H 250.765 -0.0157455 0.675817 0
M  V30 2618 H 253.319 0.602495 1.96365 0
M  V30 2619 H 251.549 -1.33432 3.6295 0
M  V30 2620 H 253.238 -1.0368 3.92435 0
M  V30 2621 H 254.004 1.33429 4.66285 0
M  V30 2622 H 249.883 0.109273 4.6087 0
M  V30 2623 H 253.427 3.16372 6.21735 0
M  V30 2624 H 249.324 1.93042 6.15959 0
M  V30 2625 H 250.092 3.64622 7.32798 0
M  V30 2626 N 252.755 -1.56801 0.158532 0
M  V30 2627 C 254.166 -1.83189 -0.360366 0
M  V30 2628 C 254.517 -1.07778 -1.63946 0
M  V30 2629 O 253.642 -0.326718 -2.13919 0
M  V30 2630 C 254.237 -3.32297 -0.660595 0
M  V30 2631 C 252.796 -3.59227 -1.12398 0
M  V30 2632 C 251.943 -2.76877 -0.153097 0
M  V30 2633 H 254.894 -1.54008 0.383031 0
M  V30 2634 H 254.915 -3.4908 -1.51405 0
M  V30 2635 H 254.427 -3.87156 0.270527 0
M  V30 2636 H 252.528 -3.09766 -2.07064 0
M  V30 2637 H 252.641 -4.67632 -1.04197 0
M  V30 2638 H 251.005 -2.46319 -0.647983 0
M  V30 2639 H 251.788 -3.34511 0.77182 0
M  V30 2640 N 254.233 0.115231 -1.57178 0
M  V30 2641 C 255.143 1.15994 -2.03918 0
M  V30 2642 C 256.159 1.45103 -0.960268 0
M  V30 2643 O 257.335 1.56144 -1.27204 0
M  V30 2644 C 254.4 2.46568 -2.43732 0
M  V30 2645 C 253.461 2.24822 -3.65723 0
M  V30 2646 C 252.694 3.4917 -4.03629 0
M  V30 2647 O 252.917 4.56623 -3.41835 0
M  V30 2648 O 251.851 3.39949 -4.96708 0
M  V30 2649 H 255.677 0.793019 -2.93164 0
M  V30 2650 H 253.262 0.3263 -1.45793 0
M  V30 2651 H 255.144 3.23492 -2.70057 0
M  V30 2652 H 253.819 2.82726 -1.57631 0
M  V30 2653 H 252.726 1.45744 -3.44542 0
M  V30 2654 H 254.059 1.93566 -4.52541 0
M  V30 2655 N 255.711 1.52812 0.385517 0
M  V30 2656 C 256.659 1.78482 1.49155 0
M  V30 2657 C 257.653 0.652914 1.56312 0
M  V30 2658 O 258.859 0.835464 1.59436 0
M  V30 2659 H 255.234 0.5648 0.496493 0
M  V30 2660 H 257.205 2.71095 1.24699 0
M  V30 2661 C 255.954 1.97378 2.86247 0
M  V30 2662 H 255.277 2.83907 2.81491 0
M  V30 2663 H 256.717 2.19327 3.62866 0
M  V30 2664 C 255.176 0.74728 3.28508 0
M  V30 2665 O 255.706 -0.0736232 4.01633 0
M  V30 2666 N 253.912 0.576396 2.84826 0
M  V30 2667 H 253.459 1.24555 2.25486 0
M  V30 2668 H 253.417 -0.24288 3.1346 0
M  V30 2669 N 257.189 -0.644168 1.43834 0
M  V30 2670 C 258.417 -1.43147 1.49387 0
M  V30 2671 C 258.832 -1.88452 0.114583 0
M  V30 2672 O 258.189 -1.60047 -0.876989 0
M  V30 2673 C 258.24 -2.66046 2.44748 0
M  V30 2674 O 257.961 -2.22633 3.77314 0
M  V30 2675 C 259.462 -3.59311 2.59635 0
M  V30 2676 H 256.682 -0.439447 0.507077 0
M  V30 2677 H 259.226 -0.78895 1.88669 0
M  V30 2678 H 257.381 -3.26418 2.08638 0
M  V30 2679 H 257.795 -3.02216 4.28679 0
M  V30 2680 H 259.269 -4.42187 3.30416 0
M  V30 2681 H 259.746 -4.07259 1.64427 0
M  V30 2682 H 260.352 -3.04816 2.96593 0
M  V30 2683 N 258.668 -1.30515 -0.883378 0
M  V30 2684 C 259.898 -1.22182 -1.66599 0
M  V30 2685 C 260.306 0.217507 -1.87946 0
M  V30 2686 O 259.649 1.1554 -1.42815 0
M  V30 2687 C 259.711 -1.88146 -3.06335 0
M  V30 2688 C 259.375 -3.37476 -3.08154 0
M  V30 2689 C 260.372 -4.33443 -2.87094 0
M  V30 2690 C 258.057 -3.7895 -3.29701 0
M  V30 2691 C 260.051 -5.68858 -2.8754 0
M  V30 2692 C 257.738 -5.14482 -3.29776 0
M  V30 2693 C 258.736 -6.09246 -3.0872 0
M  V30 2694 O 258.424 -7.42302 -3.08615 0
M  V30 2695 H 258.156 -0.423898 -0.52658 0
M  V30 2696 H 260.71 -1.72703 -1.11188 0
M  V30 2697 H 258.94 -1.32157 -3.63416 0
M  V30 2698 H 260.629 -1.7391 -3.66756 0
M  V30 2699 H 261.395 -4.02733 -2.70243 0
M  V30 2700 H 257.274 -3.05631 -3.45124 0
M  V30 2701 H 260.818 -6.428 -2.71024 0
M  V30 2702 H 256.715 -5.44832 -3.46163 0
M  V30 2703 H 257.483 -7.5131 -3.24769 0
M  V30 2704 N 260.146 1.09593 -1.13257 0
M  V30 2705 C 261.376 1.85231 -0.915049 0
M  V30 2706 C 261.784 1.81345 0.539498 0
M  V30 2707 O 261.127 1.20664 1.38513 0
M  V30 2708 C 261.189 3.34275 -1.3229 0
M  V30 2709 C 260.853 3.6191 -2.79052 0
M  V30 2710 C 261.85 3.57777 -3.77216 0
M  V30 2711 C 259.535 3.90309 -3.16171 0
M  V30 2712 C 261.529 3.81652 -5.1051 0
M  V30 2713 C 259.216 4.13839 -4.49644 0
M  V30 2714 C 260.214 4.09502 -5.46623 0
M  V30 2715 O 259.902 4.32426 -6.77689 0
M  V30 2716 H 259.634 0.591997 -0.326367 0
M  V30 2717 H 262.188 1.394 -1.50854 0
M  V30 2718 H 260.418 3.80805 -0.672667 0
M  V30 2719 H 262.107 3.9132 -1.07812 0
M  V30 2720 H 262.873 3.35865 -3.49885 0
M  V30 2721 H 258.752 3.92811 -2.41289 0
M  V30 2722 H 262.296 3.78182 -5.86195 0
M  V30 2723 H 258.193 4.35232 -4.767 0
M  V30 2724 H 258.961 4.49896 -6.83766 0
M  V30 2725 N 261.624 0.925811 1.2754 0
M  V30 2726 C 262.849 0.580924 1.99098 0
M  V30 2727 C 263.274 -0.833555 1.68622 0
M  V30 2728 O 262.632 -1.55903 0.925422 0
M  V30 2729 C 262.68 0.811186 3.51358 0
M  V30 2730 O 261.784 -0.124129 4.12213 0
M  V30 2731 H 261.125 0.223873 0.625122 0
M  V30 2732 H 263.655 1.24455 1.62395 0
M  V30 2733 H 263.665 0.72601 4.01489 0
M  V30 2734 H 262.34 1.84227 3.72872 0
M  V30 2735 H 260.917 0.0108006 3.72898 0
M  V30 2736 N 263.102 -1.41638 0.69111 0
M  V30 2737 C 264.05 -2.32597 0.0115199 0
M  V30 2738 C 265.044 -1.5072 -0.773296 0
M  V30 2739 O 266.25 -1.66685 -0.67942 0
M  V30 2740 H 262.625 -0.751849 -0.0150746 0
M  V30 2741 H 264.596 -2.87593 0.795791 0
M  V30 2742 C 263.345 -3.35467 -0.914172 0
M  V30 2743 H 262.668 -3.9852 -0.319687 0
M  V30 2744 H 264.108 -4.01662 -1.35808 0
M  V30 2745 C 262.567 -2.69004 -2.02826 0
M  V30 2746 O 263.097 -2.53444 -3.11655 0
M  V30 2747 N 261.303 -2.2777 -1.80469 0
M  V30 2748 H 260.85 -2.40626 -0.919615 0
M  V30 2749 H 260.808 -1.83635 -2.55197 0
M  V30 2750 N 264.58 -0.43555 -1.51462 0
M  V30 2751 C 265.827 0.131514 -2.02072 0
M  V30 2752 C 266.155 1.42868 -1.31981 0
M  V30 2753 O 265.41 1.91076 -0.422883 0
M  V30 2754 C 265.709 0.39942 -3.55161 0
M  V30 2755 C 265.375 -0.81172 -4.43533 0
M  V30 2756 C 264.037 -1.14387 -4.67407 0
M  V30 2757 C 266.389 -1.61976 -4.95392 0
M  V30 2758 C 263.717 -2.28477 -5.40384 0
M  V30 2759 C 266.069 -2.75164 -5.6962 0
M  V30 2760 C 264.733 -3.08835 -5.91758 0
M  V30 2761 H 264.003 0.0481244 -0.739436 0
M  V30 2762 H 266.65 -0.58238 -1.8243 0
M  V30 2763 H 264.955 1.19519 -3.73125 0
M  V30 2764 H 266.652 0.85157 -3.91854 0
M  V30 2765 H 263.242 -0.542898 -4.25148 0
M  V30 2766 H 267.426 -1.37637 -4.76833 0
M  V30 2767 H 262.682 -2.5488 -5.55739 0
M  V30 2768 H 266.856 -3.38147 -6.08793 0
M  V30 2769 H 264.483 -3.97353 -6.48086 0
M  V30 2770 N 266.058 1.56714 -0.166846 0
M  V30 2771 C 267.307 1.95922 0.479318 0
M  V30 2772 C 267.62 1.05529 1.6469 0
M  V30 2773 O 268.826 1.34399 2.35901 0
M  V30 2774 C 267.282 3.48359 0.90412 0
M  V30 2775 C 266.89 4.47369 -0.237621 0
M  V30 2776 C 268.634 3.96394 1.51896 0
M  V30 2777 C 266.541 5.91039 0.206561 0
M  V30 2778 H 265.471 0.731495 0.18284 0
M  V30 2779 H 268.122 1.81728 -0.254363 0
M  V30 2780 H 266.504 3.57955 1.69365 0
M  V30 2781 H 267.678 4.49485 -1.01489 0
M  V30 2782 H 265.993 4.09366 -0.762128 0
M  V30 2783 H 268.59 5.01186 1.86325 0
M  V30 2784 H 268.933 3.39075 2.41524 0
M  V30 2785 H 269.466 3.89796 0.79395 0
M  V30 2786 H 266.205 6.52221 -0.654834 0
M  V30 2787 H 265.725 5.9224 0.949282 0
M  V30 2788 H 267.404 6.43707 0.651939 0
M  V30 2789 N 267.536 -0.106894 1.57237 0
M  V30 2790 C 268.761 -0.830287 1.90055 0
M  V30 2791 C 269.186 -1.72064 0.75998 0
M  V30 2792 O 268.544 -1.78982 -0.288991 0
M  V30 2793 C 268.592 -1.6295 3.21683 0
M  V30 2794 O 267.696 -2.73748 3.08441 0
M  V30 2795 H 267.037 -0.228855 0.623315 0
M  V30 2796 H 269.567 -0.085658 2.04421 0
M  V30 2797 H 269.577 -2.01621 3.54701 0
M  V30 2798 H 268.252 -0.975989 4.04286 0
M  V30 2799 H 266.829 -2.38192 2.86913 0
M  V30 2800 N 269.014 -1.53014 -0.377408 0
M  V30 2801 C 269.964 -1.74996 -1.46152 0
M  V30 2802 C 270.948 -0.604236 -1.49123 0
M  V30 2803 O 272.14 -0.862489 -1.54564 0
M  V30 2804 C 269.269 -1.93267 -2.8373 0
M  V30 2805 C 268.355 -3.13807 -2.85283 0
M  V30 2806 N 268.746 -4.35941 -2.56493 0
M  V30 2807 C 267.044 -3.14288 -3.16448 0
M  V30 2808 C 267.745 -5.17615 -2.65424 0
M  V30 2809 N 266.721 -4.53559 -2.99641 0
M  V30 2810 H 270.523 -2.67044 -1.22738 0
M  V30 2811 H 268.037 -1.51479 -0.585479 0
M  V30 2812 H 270.034 -2.0714 -3.61799 0
M  V30 2813 H 268.694 -1.0244 -3.08117 0
M  V30 2814 H 269.705 -4.63876 -2.30302 0
M  V30 2815 H 266.382 -2.33312 -3.46225 0
M  V30 2816 H 267.772 -6.25006 -2.46612 0
M  V30 2817 N 270.492 0.636531 -1.44174 0
M  V30 2818 C 271.422 1.76003 -1.53444 0
M  V30 2819 C 272.403 1.65619 -0.387841 0
M  V30 2820 O 273.588 1.84461 -0.607257 0
M  V30 2821 C 270.718 3.14511 -1.4731 0
M  V30 2822 C 269.672 3.39677 -2.60391 0
M  V30 2823 C 268.998 4.78159 -2.39308 0
M  V30 2824 C 270.298 3.32772 -4.02567 0
M  V30 2825 H 271.992 1.68501 -2.47483 0
M  V30 2826 H 269.538 0.809237 -1.19111 0
M  V30 2827 H 271.491 3.92878 -1.52397 0
M  V30 2828 H 270.215 3.22783 -0.49785 0
M  V30 2829 H 268.874 2.63688 -2.54684 0
M  V30 2830 H 268.522 4.83128 -1.39988 0
M  V30 2831 H 268.222 4.95956 -3.15122 0
M  V30 2832 H 269.746 5.58762 -2.46205 0
M  V30 2833 H 271.16 4.01051 -4.09672 0
M  V30 2834 H 269.557 3.62104 -4.7854 0
M  V30 2835 H 270.627 2.30669 -4.2652 0
M  V30 2836 N 271.97 1.30982 0.876444 0
M  V30 2837 C 272.933 1.18054 1.96459 0
M  V30 2838 C 273.933 0.109399 1.60427 0
M  V30 2839 O 275.123 0.358173 1.70478 0
M  V30 2840 C 272.255 0.810616 3.31122 0
M  V30 2841 H 273.448 2.14735 2.09354 0
M  V30 2842 H 271.001 1.145 1.06392 0
M  V30 2843 H 271.736 -0.155322 3.23928 0
M  V30 2844 H 271.521 1.58481 3.58645 0
M  V30 2845 H 273.011 0.743876 4.10921 0
M  V30 2846 N 273.449 -1.08991 1.13837 0
M  V30 2847 C 274.397 -2.17841 0.815347 0
M  V30 2848 C 275.391 -1.68164 -0.204233 0
M  V30 2849 O 276.597 -1.79897 -0.0609304 0
M  V30 2850 H 272.972 -0.710654 0.245915 0
M  V30 2851 H 274.943 -2.42315 1.74143 0
M  V30 2852 C 273.692 -3.46381 0.302614 0
M  V30 2853 H 273.015 -3.84979 1.0785 0
M  V30 2854 H 274.455 -4.23844 0.115074 0
M  V30 2855 C 272.914 -3.22556 -0.972591 0
M  V30 2856 O 273.444 -3.45599 -2.04754 0
M  V30 2857 N 271.65 -2.76134 -0.905455 0
M  V30 2858 H 271.197 -2.57582 -0.0305421 0
M  V30 2859 H 271.155 -2.60571 -1.75926 0
M  V30 2860 N 274.927 -0.932562 -1.27047 0
M  V30 2861 C 276.176 -0.571351 -1.93439 0
M  V30 2862 C 276.489 0.892467 -1.74053 0
M  V30 2863 O 277.695 1.36267 -2.34826 0
M  V30 2864 C 276.151 -0.97106 -3.46552 0
M  V30 2865 C 275.759 -2.4559 -3.74686 0
M  V30 2866 C 277.503 -0.681333 -4.18997 0
M  V30 2867 C 275.41 -2.79475 -5.21198 0
M  V30 2868 H 274.34 -0.209966 -0.724176 0
M  V30 2869 H 276.991 -1.13403 -1.44263 0
M  V30 2870 H 275.373 -0.336983 -3.94564 0
M  V30 2871 H 276.547 -3.13829 -3.37414 0
M  V30 2872 H 274.862 -2.71802 -3.15456 0
M  V30 2873 H 277.459 -0.910939 -5.26883 0
M  V30 2874 H 277.802 0.381628 -4.14547 0
M  V30 2875 H 278.335 -1.27473 -3.76823 0
M  V30 2876 H 275.074 -3.847 -5.30741 0
M  V30 2877 H 274.594 -2.1589 -5.596 0
M  V30 2878 H 276.273 -2.67478 -5.89122 0
M  V30 2879 N 276.405 1.4127 -0.698611 0
M  V30 2880 C 277.352 2.30773 -0.0352094 0
M  V30 2881 C 278.322 1.47273 0.768111 0
M  V30 2882 O 279.507 1.76053 0.735524 0
M  V30 2883 C 276.647 3.33346 0.893 0
M  V30 2884 C 275.76 4.31924 0.0809695 0
M  V30 2885 C 274.895 5.21566 1.0071 0
M  V30 2886 C 273.934 6.11811 0.188155 0
M  V30 2887 N 273.071 6.93926 1.06825 0
M  V30 2888 H 277.911 2.86943 -0.804207 0
M  V30 2889 H 275.448 1.4132 -0.408294 0
M  V30 2890 H 277.406 3.91368 1.44523 0
M  V30 2891 H 276.036 2.78719 1.62836 0
M  V30 2892 H 275.088 3.75825 -0.588224 0
M  V30 2893 H 276.4 4.95716 -0.553801 0
M  V30 2894 H 275.554 5.84437 1.62845 0
M  V30 2895 H 274.293 4.58008 1.67572 0
M  V30 2896 H 273.298 5.47986 -0.446254 0
M  V30 2897 H 274.523 6.77425 -0.476716 0
M  V30 2898 H 272.469 6.32973 1.72283 0
M  V30 2899 H 272.386 7.54416 0.489123 0
M  V30 2900 H 273.654 7.61262 1.67632 0
M  V30 2901 N 277.883 0.443576 1.51229 0
M  V30 2902 C 279.113 -0.119117 2.06256 0
M  V30 2903 C 279.521 -1.36471 1.31043 0
M  V30 2904 O 278.864 -1.80034 0.365151 0
M  V30 2905 C 278.926 -0.500546 3.55998 0
M  V30 2906 C 278.59 0.639125 4.52509 0
M  V30 2907 C 279.587 1.51311 4.97394 0
M  V30 2908 C 277.272 0.821632 4.95535 0
M  V30 2909 C 279.266 2.55425 5.83984 0
M  V30 2910 C 276.953 1.86603 5.81913 0
M  V30 2911 C 277.951 2.73072 6.26036 0
M  V30 2912 O 277.639 3.75718 7.10698 0
M  V30 2913 H 277.371 -0.00857665 0.675946 0
M  V30 2914 H 279.925 0.623288 1.95715 0
M  V30 2915 H 278.155 -1.29575 3.64345 0
M  V30 2916 H 279.844 -0.995116 3.93513 0
M  V30 2917 H 280.61 1.38367 4.64844 0
M  V30 2918 H 276.489 0.158149 4.60729 0
M  V30 2919 H 280.033 3.22949 6.18344 0
M  V30 2920 H 275.93 1.99564 6.13876 0
M  V30 2921 H 276.698 3.72374 7.2889 0
M  V30 2922 N 279.361 -1.56624 0.175154 0
M  V30 2923 C 280.772 -1.83561 -0.340916 0
M  V30 2924 C 281.123 -1.09511 -1.62794 0
M  V30 2925 O 280.248 -0.349389 -2.13561 0
M  V30 2926 C 280.843 -3.32979 -0.625313 0
M  V30 2927 C 279.402 -3.60399 -1.08581 0
M  V30 2928 C 278.549 -2.77024 -0.123722 0
M  V30 2929 H 281.5 -1.53593 0.399344 0
M  V30 2930 H 281.521 -3.50666 -1.47694 0
M  V30 2931 H 281.033 -3.86847 0.311575 0
M  V30 2932 H 279.134 -3.11945 -2.03767 0
M  V30 2933 H 279.247 -4.68711 -0.992317 0
M  V30 2934 H 277.611 -2.46993 -0.621821 0
M  V30 2935 H 278.394 -3.33674 0.807256 0
M  V30 2936 N 280.839 0.0985539 -1.57292 0
M  V30 2937 C 282.087 0.801092 -1.85545 0
M  V30 2938 C 282.408 1.79438 -0.763353 0
M  V30 2939 O 281.678 1.94763 0.21073 0
M  V30 2940 H 280.258 0.29884 -0.684619 0
M  V30 2941 H 282.92 0.0810064 -1.94732 0
M  V30 2942 H 282.016 1.3338 -2.82163 0
M  V30 2943 N 282.317 1.53212 0.369288 0
M  V30 2944 C 283.249 1.75668 1.47219 0
M  V30 2945 C 284.262 0.637387 1.49804 0
M  V30 2946 O 285.451 0.913561 1.5335 0
M  V30 2947 C 282.551 1.81818 2.85999 0
M  V30 2948 C 281.724 3.11409 3.07153 0
M  V30 2949 C 280.783 3.08849 4.26026 0
M  V30 2950 O 279.809 3.82659 4.2138 0
M  V30 2951 N 281.011 2.29409 5.33246 0
M  V30 2952 H 283.776 2.70832 1.28337 0
M  V30 2953 H 281.337 1.51944 0.55898 0
M  V30 2954 H 283.329 1.77588 3.63655 0
M  V30 2955 H 281.899 0.939544 2.98146 0
M  V30 2956 H 281.119 3.28971 2.1719 0
M  V30 2957 H 282.407 3.97059 3.18154 0
M  V30 2958 H 281.805 1.68946 5.39883 0
M  V30 2959 H 280.362 2.31001 6.09493 0
M  V30 2960 N 283.795 -0.628877 1.44509 0
M  V30 2961 C 285.211 -0.947305 1.28446 0
M  V30 2962 C 285.411 -2.00275 0.221872 0
M  V30 2963 O 284.467 -2.49447 -0.391471 0
M  V30 2964 C 285.78 -1.40843 2.65676 0
M  V30 2965 C 287.328 -1.52379 2.73404 0
M  V30 2966 C 287.803 -2.01875 4.11109 0
M  V30 2967 N 289.294 -2.09142 4.13296 0
M  V30 2968 C 290.029 -2.48615 5.16699 0
M  V30 2969 N 289.525 -2.87209 6.30462 0
M  V30 2970 N 291.318 -2.48768 5.04054 0
M  V30 2971 H 283.469 0.0690977 2.12288 0
M  V30 2972 H 285.732 -0.0317164 0.947469 0
M  V30 2973 H 285.438 -0.707206 3.44516 0
M  V30 2974 H 285.312 -2.37902 2.92716 0
M  V30 2975 H 287.699 -2.21598 1.9488 0
M  V30 2976 H 287.78 -0.536898 2.50102 0
M  V30 2977 H 287.424 -1.3325 4.90109 0
M  V30 2978 H 287.354 -3.0144 4.31789 0
M  V30 2979 H 289.845 -1.81991 3.31191 0
M  V30 2980 H 290.158 -3.16149 7.05174 0
M  V30 2981 H 288.503 -2.84955 6.33897 0
M  V30 2982 H 291.694 -2.18009 4.14234 0
M  V30 2983 H 291.867 -2.79207 5.84763 0
M  V30 2984 N 285.273 -1.31445 -0.869486 0
M  V30 2985 C 286.501 -1.24122 -1.65534 0
M  V30 2986 C 286.916 0.193387 -1.87807 0
M  V30 2987 O 286.273 1.12557 -1.43656 0
M  V30 2988 C 286.324 -1.98229 -3.02304 0
M  V30 2989 O 286.045 -3.3609 -2.81026 0
M  V30 2990 C 287.546 -1.97751 -3.96749 0
M  V30 2991 H 284.766 -0.428868 -0.516055 0
M  V30 2992 H 287.31 -1.73328 -1.08525 0
M  V30 2993 H 285.465 -1.52782 -3.56001 0
M  V30 2994 H 285.879 -3.7383 -3.67902 0
M  V30 2995 H 287.353 -2.54114 -4.90031 0
M  V30 2996 H 287.83 -0.960137 -4.28577 0
M  V30 2997 H 288.436 -2.43079 -3.48988 0
M  V30 2998 N 286.751 1.08385 -1.14413 0
M  V30 2999 C 287.979 1.84517 -0.936001 0
M  V30 3000 C 288.394 1.81626 0.515503 0
M  V30 3001 O 287.751 1.22008 1.35721 0
M  V30 3002 C 287.802 3.32049 -1.42918 0
M  V30 3003 O 287.523 3.34951 -2.82381 0
M  V30 3004 C 289.024 4.24986 -1.26103 0
M  V30 3005 H 286.244 0.582491 -0.333084 0
M  V30 3006 H 288.788 1.36885 -1.5193 0
M  V30 3007 H 286.943 3.7707 -0.888641 0
M  V30 3008 H 287.357 4.27048 -3.04517 0
M  V30 3009 H 288.831 5.26615 -1.6547 0
M  V30 3010 H 289.308 4.38726 -0.20392 0
M  V30 3011 H 289.914 3.85791 -1.79012 0
M  V30 3012 N 288.23 0.939286 1.26551 0
M  V30 3013 C 289.16 0.465044 2.28822 0
M  V30 3014 C 290.141 -0.480692 1.63167 0
M  V30 3015 O 291.326 -0.382955 1.90387 0
M  V30 3016 C 288.456 -0.27234 3.46231 0
M  V30 3017 C 287.41 0.58666 4.2396 0
M  V30 3018 C 286.736 -0.280573 5.33963 0
M  V30 3019 C 288.036 1.85704 4.88171 0
M  V30 3020 H 289.73 1.31979 2.68741 0
M  V30 3021 H 287.276 0.636061 1.29191 0
M  V30 3022 H 289.229 -0.615133 4.16886 0
M  V30 3023 H 287.953 -1.16121 3.0526 0
M  V30 3024 H 286.612 0.91232 3.55067 0
M  V30 3025 H 286.26 -1.16874 4.89234 0
M  V30 3026 H 285.96 0.29076 5.8688 0
M  V30 3027 H 287.484 -0.618678 6.07458 0
M  V30 3028 H 288.898 1.58161 5.51052 0
M  V30 3029 H 287.295 2.37279 5.51197 0
M  V30 3030 H 288.365 2.56957 4.11219 0
M  V30 3031 N 289.708 -1.40897 0.706093 0
M  V30 3032 C 290.936 -2.05373 0.250887 0
M  V30 3033 C 291.351 -1.53172 -1.10381 0
M  V30 3034 O 290.708 -0.684305 -1.69185 0
M  V30 3035 C 290.759 -3.6088 0.211571 0
M  V30 3036 O 290.48 -4.11153 1.51276 0
M  V30 3037 C 291.981 -4.42517 -0.263346 0
M  V30 3038 H 289.201 -0.66115 0.114552 0
M  V30 3039 H 291.745 -1.80479 0.961635 0
M  V30 3040 H 289.9 -3.84777 -0.450073 0
M  V30 3041 H 290.314 -5.05279 1.40689 0
M  V30 3042 H 291.788 -5.51479 -0.239718 0
M  V30 3043 H 292.265 -4.19396 -1.30397 0
M  V30 3044 H 292.871 -4.23708 0.367677 0
M  V30 3045 N 291.186 -0.45159 -1.50991 0
M  V30 3046 C 292.434 0.109857 -2.01801 0
M  V30 3047 C 292.755 1.41958 -1.3369 0
M  V30 3048 O 292.025 1.9003 -0.475951 0
M  V30 3049 H 290.605 0.0435884 -0.745727 0
M  V30 3050 H 293.267 -0.597557 -1.85514 0
M  V30 3051 H 292.363 0.275489 -3.10882 0
M  V30 3052 N 292.664 1.56529 -0.183458 0
M  V30 3053 C 293.594 2.21549 0.737456 0
M  V30 3054 C 294.575 1.17489 1.23005 0
M  V30 3055 O 295.76 1.45959 1.281 0
M  V30 3056 C 292.89 2.86575 1.96194 0
M  V30 3057 C 291.844 3.96778 1.60473 0
M  V30 3058 C 291.17 4.48911 2.90487 0
M  V30 3059 C 292.47 5.15767 0.823497 0
M  V30 3060 H 294.164 2.98761 0.195453 0
M  V30 3061 H 291.71 1.43702 0.0925686 0
M  V30 3062 H 293.663 3.30739 2.61131 0
M  V30 3063 H 292.387 2.06749 2.52828 0
M  V30 3064 H 291.046 3.53286 0.978997 0
M  V30 3065 H 290.694 3.65862 3.45186 0
M  V30 3066 H 290.394 5.23265 2.67335 0
M  V30 3067 H 291.918 4.95771 3.56432 0
M  V30 3068 H 293.332 5.56549 1.37571 0
M  V30 3069 H 291.729 5.96114 0.690551 0
M  V30 3070 H 292.799 4.84574 -0.177782 0
M  V30 3071 N 294.142 -0.090211 1.57342 0
M  V30 3072 C 295.419 -0.824761 1.77361 0
M  V30 3073 C 295.799 -1.96698 0.76637 0
M  V30 3074 O 295.147 -2.27586 -0.204179 0
M  V30 3075 C 295.357 -1.31481 3.23286 0
M  V30 3076 C 296.705 -1.75563 3.86604 0
M  V30 3077 O 297.729 -1.41093 3.27065 0
M  V30 3078 O 296.588 -2.39317 4.91314 0
M  V30 3079 H 293.682 -0.393776 0.727234 0
M  V30 3080 H 296.228 -0.0717138 1.69548 0
M  V30 3081 H 295 -0.496671 3.88135 0
M  V30 3082 H 294.623 -2.12973 3.35751 0
M  V30 3083 N 295.62 -1.53406 -0.361157 0
M  V30 3084 C 296.866 -1.70054 -1.10496 0
M  V30 3085 C 297.199 -0.453278 -1.88836 0
M  V30 3086 O 296.474 0.5495 -1.86576 0
M  V30 3087 C 296.757 -2.95317 -2.06058 0
M  V30 3088 C 296.61 -4.3021 -1.31298 0
M  V30 3089 C 297.929 -3.16193 -3.06121 0
M  V30 3090 H 295.048 -0.618799 -0.400321 0
M  V30 3091 H 297.69 -1.86052 -0.385318 0
M  V30 3092 H 295.84 -2.81809 -2.67425 0
M  V30 3093 H 297.512 -4.55538 -0.726807 0
M  V30 3094 H 295.755 -4.29421 -0.614853 0
M  V30 3095 H 296.426 -5.14 -2.01265 0
M  V30 3096 H 298.902 -3.28916 -2.5486 0
M  V30 3097 H 297.778 -4.05266 -3.70204 0
M  V30 3098 H 298.039 -2.31676 -3.76535 0
M  V30 3099 N 297.098 0.621204 -1.44841 0
M  V30 3100 C 298.03 1.74615 -1.48466 0
M  V30 3101 C 299.043 1.58377 -0.37691 0
M  V30 3102 O 300.232 1.66508 -0.643215 0
M  V30 3103 C 297.332 3.12459 -1.31236 0
M  V30 3104 C 296.505 3.55064 -2.55438 0
M  V30 3105 C 295.564 4.71821 -2.32963 0
M  V30 3106 O 294.59 4.79628 -3.06505 0
M  V30 3107 N 295.792 5.64186 -1.36654 0
M  V30 3108 H 298.557 1.71973 -2.45449 0
M  V30 3109 H 296.118 0.806077 -1.40407 0
M  V30 3110 H 298.11 3.88302 -1.14032 0
M  V30 3111 H 296.68 3.09686 -0.4258 0
M  V30 3112 H 295.9 2.69324 -2.87851 0
M  V30 3113 H 297.188 3.80284 -3.38026 0
M  V30 3114 H 296.586 5.6058 -0.759344 0
M  V30 3115 H 295.143 6.39618 -1.25425 0
M  V30 3116 N 298.576 1.31904 0.862503 0
M  V30 3117 C 299.853 1.12644 1.59908 0
M  V30 3118 C 300.233 -0.316104 2.0872 0
M  V30 3119 O 299.581 -1.31145 1.87118 0
M  V30 3120 C 299.791 2.1472 2.7513 0
M  V30 3121 C 301.139 2.47637 3.44907 0
M  V30 3122 O 302.163 2.13205 2.85346 0
M  V30 3123 O 301.022 3.06632 4.52371 0
M  V30 3124 H 298.116 0.43416 0.703871 0
M  V30 3125 H 300.662 1.43408 0.907314 0
M  V30 3126 H 299.434 3.1172 2.3653 0
M  V30 3127 H 299.057 1.84905 3.51989 0
M  V30 3128 N 300.054 -1.07777 1.14986 0
M  V30 3129 C 300.987 -2.14228 0.786243 0
M  V30 3130 C 301.965 -1.60888 -0.235347 0
M  V30 3131 O 303.149 -1.88099 -0.122909 0
M  V30 3132 C 300.276 -3.38281 0.168433 0
M  V30 3133 C 299.322 -4.10387 1.16123 0
M  V30 3134 S 300.155 -4.62371 2.70135 0
M  V30 3135 C 301.311 -5.89704 2.09762 0
M  V30 3136 H 301.544 -2.44741 1.68787 0
M  V30 3137 H 299.077 -1.19984 0.971756 0
M  V30 3138 H 301.035 -4.10098 -0.181588 0
M  V30 3139 H 299.696 -3.05953 -0.710725 0
M  V30 3140 H 298.889 -4.99431 0.677086 0
M  V30 3141 H 298.491 -3.44513 1.45556 0
M  V30 3142 H 300.783 -6.61648 1.45701 0
M  V30 3143 H 301.726 -6.42824 2.96955 0
M  V30 3144 H 302.134 -5.4302 1.54239 0
M  V30 3145 N 301.532 -0.945985 -1.26051 0
M  V30 3146 C 302.462 -0.477172 -2.28572 0
M  V30 3147 C 303.443 0.472032 -1.63419 0
M  V30 3148 O 304.628 0.372853 -1.90587 0
M  V30 3149 C 301.758 0.253975 -3.4637 0
M  V30 3150 C 300.712 -0.609135 -4.23643 0
M  V30 3151 C 300.038 0.252252 -5.34105 0
M  V30 3152 C 301.338 -1.8829 -4.8718 0
M  V30 3153 H 303.032 -1.33402 -2.68038 0
M  V30 3154 H 300.578 -0.642904 -1.28852 0
M  V30 3155 H 302.531 0.593016 -4.17207 0
M  V30 3156 H 301.255 1.145 -3.05871 0
M  V30 3157 H 299.914 -0.931138 -3.54578 0
M  V30 3158 H 299.562 1.14278 -4.89846 0
M  V30 3159 H 299.262 -0.32188 -5.86718 0
M  V30 3160 H 300.786 0.586454 -6.07777 0
M  V30 3161 H 302.2 -1.61081 -5.50205 0
M  V30 3162 H 300.597 -2.40199 -5.49931 0
M  V30 3163 H 301.667 -2.59134 -4.09851 0
M  V30 3164 N 303.011 1.40521 -0.713556 0
M  V30 3165 C 304.422 1.83853 -0.324807 0
M  V30 3166 C 304.773 1.59667 1.14021 0
M  V30 3167 O 303.898 1.07649 1.87725 0
M  V30 3168 C 304.493 3.33751 -0.582746 0
M  V30 3169 C 303.052 3.75584 -0.247727 0
M  V30 3170 C 302.199 2.63753 -0.856121 0
M  V30 3171 H 305.15 1.29817 -0.91286 0
M  V30 3172 H 305.171 3.80194 0.152682 0
M  V30 3173 H 304.683 3.51322 -1.64908 0
M  V30 3174 H 302.784 3.63608 0.813624 0
M  V30 3175 H 302.897 4.7373 -0.715307 0
M  V30 3176 H 301.261 2.53108 -0.28432 0
M  V30 3177 H 302.044 2.84137 -1.92668 0
M  V30 3178 N 304.489 0.459591 1.5075 0
M  V30 3179 C 305.905 0.113092 1.59199 0
M  V30 3180 C 306.105 -1.37951 1.46874 0
M  V30 3181 O 305.161 -2.15168 1.32132 0
M  V30 3182 C 306.474 0.653043 2.93523 0
M  V30 3183 C 308.022 0.615449 3.0689 0
M  V30 3184 C 308.497 1.13275 4.43771 0
M  V30 3185 N 309.988 1.09167 4.50152 0
M  V30 3186 C 310.723 1.46256 5.54434 0
M  V30 3187 N 310.219 1.90739 6.66026 0
M  V30 3188 N 312.012 1.37932 5.44914 0
M  V30 3189 H 304.163 1.43049 1.57005 0
M  V30 3190 H 306.426 0.590861 0.741341 0
M  V30 3191 H 306.132 1.69822 3.07983 0
M  V30 3192 H 306.006 0.0902132 3.77092 0
M  V30 3193 H 308.393 -0.420793 2.92084 0
M  V30 3194 H 308.474 1.21495 2.25106 0
M  V30 3195 H 308.118 2.16757 4.59324 0
M  V30 3196 H 308.048 0.509576 5.24129 0
M  V30 3197 H 310.539 0.76528 3.7007 0
M  V30 3198 H 310.852 2.17218 7.41644 0
M  V30 3199 H 309.197 1.94683 6.67176 0
M  V30 3200 H 312.388 1.0303 4.56621 0
M  V30 3201 H 312.561 1.67164 6.26067 0
M  V30 3202 N 305.967 -1.56429 0.191757 0
M  V30 3203 C 306.915 -2.20273 -0.747174 0
M  V30 3204 C 307.909 -1.17288 -1.22229 0
M  V30 3205 O 309.115 -1.35441 -1.18557 0
M  V30 3206 H 305.49 -0.705885 -0.259289 0
M  V30 3207 H 307.461 -2.97826 -0.184963 0
M  V30 3208 C 306.21 -2.87356 -1.95759 0
M  V30 3209 H 305.533 -3.66341 -1.60106 0
M  V30 3210 H 306.973 -3.3547 -2.59299 0
M  V30 3211 C 305.432 -1.88213 -2.79423 0
M  V30 3212 O 305.962 -1.38033 -3.7724 0
M  V30 3213 N 304.168 -1.56516 -2.44849 0
M  V30 3214 H 303.715 -1.97516 -1.65364 0
M  V30 3215 H 303.673 -0.904369 -3.01112 0
M  V30 3216 N 307.445 0.0818655 -1.57387 0
M  V30 3217 C 308.375 1.09885 -2.06028 0
M  V30 3218 C 309.356 1.4098 -0.951774 0
M  V30 3219 O 310.541 1.50781 -1.22387 0
M  V30 3220 C 307.671 2.4151 -2.4958 0
M  V30 3221 C 306.625 2.24792 -3.64215 0
M  V30 3222 C 305.951 3.61712 -3.93787 0
M  V30 3223 C 307.251 1.67749 -4.94629 0
M  V30 3224 H 308.945 0.694128 -2.91243 0
M  V30 3225 H 306.491 0.332448 -1.4011 0
M  V30 3226 H 308.444 3.12939 -2.82219 0
M  V30 3227 H 307.168 2.83943 -1.61381 0
M  V30 3228 H 305.827 1.55807 -3.31843 0
M  V30 3229 H 305.475 4.01697 -3.02735 0
M  V30 3230 H 305.175 3.51368 -4.70971 0
M  V30 3231 H 306.699 4.34587 -4.28913 0
M  V30 3232 H 308.113 2.29032 -5.25564 0
M  V30 3233 H 306.51 1.68128 -5.76067 0
M  V30 3234 H 307.58 0.638059 -4.80684 0
M  V30 3235 N 308.923 1.53595 0.353017 0
M  V30 3236 C 309.855 1.77219 1.45348 0
M  V30 3237 C 310.868 0.65324 1.49119 0
M  V30 3238 O 312.057 0.929775 1.52373 0
M  V30 3239 C 309.157 1.84841 2.84055 0
M  V30 3240 C 308.33 3.14649 3.03833 0
M  V30 3241 C 307.389 3.13351 4.22727 0
M  V30 3242 O 306.415 3.87107 4.17297 0
M  V30 3243 N 307.617 2.35052 5.30783 0
M  V30 3244 H 310.382 2.72178 1.25457 0
M  V30 3245 H 307.943 1.52528 0.542833 0
M  V30 3246 H 309.935 1.81435 3.61751 0
M  V30 3247 H 308.505 0.971114 2.97133 0
M  V30 3248 H 307.725 3.31256 2.13689 0
M  V30 3249 H 309.013 4.00411 3.13925 0
M  V30 3250 H 308.411 1.74663 5.38061 0
M  V30 3251 H 306.968 2.37453 6.07009 0
M  V30 3252 N 310.401 -0.613514 1.45168 0
M  V30 3253 C 311.351 -1.71871 1.49815 0
M  V30 3254 C 312.335 -1.56774 0.362021 0
M  V30 3255 O 313.527 -1.66212 0.608493 0
M  V30 3256 C 310.656 -3.1061 1.46207 0
M  V30 3257 C 309.742 -3.31114 2.64999 0
M  V30 3258 N 310.133 -3.21904 3.90143 0
M  V30 3259 C 308.431 -3.61966 2.6057 0
M  V30 3260 C 309.132 -3.43577 4.69393 0
M  V30 3261 N 308.108 -3.67287 4.00751 0
M  V30 3262 H 311.91 -1.63235 2.444 0
M  V30 3263 H 309.424 -0.816577 1.40377 0
M  V30 3264 H 311.421 -3.8989 1.4762 0
M  V30 3265 H 310.081 -3.20399 0.52673 0
M  V30 3266 H 311.092 -3.00436 4.21852 0
M  V30 3267 H 307.769 -3.78629 1.75916 0
M  V30 3268 H 309.159 -3.41901 5.78406 0
M  V30 3269 N 311.879 -1.3236 -0.855495 0
M  V30 3270 C 313.109 -1.25688 -1.6397 0
M  V30 3271 C 313.517 0.177592 -1.88365 0
M  V30 3272 O 312.86 1.12485 -1.45234 0
M  V30 3273 C 312.922 -1.94602 -3.02275 0
M  V30 3274 C 312.586 -3.43937 -3.00926 0
M  V30 3275 C 313.583 -4.39435 -2.77835 0
M  V30 3276 C 311.268 -3.85858 -3.21588 0
M  V30 3277 C 313.262 -5.74829 -2.75409 0
M  V30 3278 C 310.949 -5.21361 -3.18789 0
M  V30 3279 C 311.947 -6.15658 -2.95727 0
M  V30 3280 O 311.635 -7.48681 -2.928 0
M  V30 3281 H 311.367 -0.434972 -0.51747 0
M  V30 3282 H 313.921 -1.75023 -1.075 0
M  V30 3283 H 312.151 -1.39836 -3.60531 0
M  V30 3284 H 313.84 -1.81651 -3.62985 0
M  V30 3285 H 314.606 -4.08374 -2.6164 0
M  V30 3286 H 310.485 -3.12883 -3.38564 0
M  V30 3287 H 314.029 -6.48404 -2.57328 0
M  V30 3288 H 309.926 -5.52052 -3.34528 0
M  V30 3289 H 310.694 -7.5803 -3.0876 0
M  V30 3290 N 313.357 1.07166 -1.15556 0
M  V30 3291 C 314.587 1.83248 -0.954133 0
M  V30 3292 C 314.995 1.82449 0.500911 0
M  V30 3293 O 314.338 1.23575 1.35923 0
M  V30 3294 C 314.4 3.31393 -1.39351 0
M  V30 3295 C 314.064 3.5591 -2.86666 0
M  V30 3296 C 315.061 3.49695 -3.8472 0
M  V30 3297 C 312.746 3.83515 -3.24379 0
M  V30 3298 C 314.74 3.70737 -5.18491 0
M  V30 3299 C 312.427 4.04209 -4.58321 0
M  V30 3300 C 313.425 3.97815 -5.55186 0
M  V30 3301 O 313.113 4.17954 -6.86709 0
M  V30 3302 H 312.845 0.584941 -0.338851 0
M  V30 3303 H 315.399 1.36169 -1.53777 0
M  V30 3304 H 313.629 3.79292 -0.75329 0
M  V30 3305 H 315.318 3.88945 -1.16089 0
M  V30 3306 H 316.084 3.28368 -3.56931 0
M  V30 3307 H 311.963 3.87605 -2.49567 0
M  V30 3308 H 315.507 3.65663 -5.94085 0
M  V30 3309 H 311.404 4.25023 -4.85825 0
M  V30 3310 H 312.172 4.35291 -6.93155 0
M  V30 3311 N 314.835 0.952656 1.25548 0
M  V30 3312 C 316.063 0.623496 1.97282 0
M  V30 3313 C 316.478 -0.803987 1.70826 0
M  V30 3314 O 315.835 -1.53755 0.983147 0
M  V30 3315 C 315.886 0.870209 3.5087 0
M  V30 3316 O 315.607 2.24156 3.76412 0
M  V30 3317 C 317.108 0.553164 4.39835 0
M  V30 3318 H 314.328 0.233931 0.628902 0
M  V30 3319 H 316.872 1.27649 1.59768 0
M  V30 3320 H 315.027 0.263652 3.86502 0
M  V30 3321 H 315.441 2.31021 4.70882 0
M  V30 3322 H 316.915 0.776342 5.46513 0
M  V30 3323 H 317.392 -0.512215 4.36203 0
M  V30 3324 H 317.998 1.13896 4.09766 0
M  V30 3325 N 316.313 -1.40141 0.720998 0
M  V30 3326 C 317.543 -2.04798 0.27226 0
M  V30 3327 C 317.951 -1.54442 -1.09289 0
M  V30 3328 O 317.294 -0.698342 -1.69908 0
M  V30 3329 C 317.356 -3.59048 0.18027 0
M  V30 3330 C 317.02 -4.32317 1.48159 0
M  V30 3331 C 318.017 -4.59902 2.42458 0
M  V30 3332 C 315.702 -4.71125 1.74202 0
M  V30 3333 C 317.696 -5.25288 3.61042 0
M  V30 3334 C 315.383 -5.36242 2.93066 0
M  V30 3335 C 316.381 -5.63254 3.86308 0
M  V30 3336 O 316.069 -6.27024 5.03086 0
M  V30 3337 H 315.801 -0.665419 0.119139 0
M  V30 3338 H 318.355 -1.80436 0.981432 0
M  V30 3339 H 316.585 -3.82251 -0.58489 0
M  V30 3340 H 318.274 -4.05221 -0.234618 0
M  V30 3341 H 319.04 -4.30379 2.23604 0
M  V30 3342 H 314.919 -4.49466 1.02477 0
M  V30 3343 H 318.463 -5.46289 4.33837 0
M  V30 3344 H 314.36 -5.65185 3.11826 0
M  V30 3345 H 315.128 -6.4552 5.03235 0
M  V30 3346 N 317.792 -0.46758 -1.50504 0
M  V30 3347 C 318.742 0.34698 -2.25344 0
M  V30 3348 C 319.726 0.964469 -1.2879 0
M  V30 3349 O 320.918 0.8776 -1.53711 0
M  V30 3350 C 318.047 1.43042 -3.1208 0
M  V30 3351 C 317.133 0.82084 -4.16081 0
M  V30 3352 N 317.524 -0.0567602 -5.05768 0
M  V30 3353 C 315.822 1.08517 -4.32597 0
M  V30 3354 C 316.523 -0.402343 -5.80307 0
M  V30 3355 N 315.499 0.221607 -5.43148 0
M  V30 3356 H 319.301 -0.329129 -2.92051 0
M  V30 3357 H 316.815 -0.281508 -1.59942 0
M  V30 3358 H 318.812 2.02712 -3.64299 0
M  V30 3359 H 317.472 2.10856 -2.46921 0
M  V30 3360 H 318.483 -0.425349 -5.1615 0
M  V30 3361 H 315.16 1.75855 -3.78657 0
M  V30 3362 H 316.55 -1.11834 -6.62528 0
M  V30 3363 N 319.27 1.56325 -0.20005 0
M  V30 3364 C 320.518 1.97329 0.436547 0
M  V30 3365 C 320.839 1.08826 1.61808 0
M  V30 3366 O 320.109 0.160604 1.95241 0
M  V30 3367 H 318.689 0.728714 0.164272 0
M  V30 3368 H 321.351 1.92761 -0.287937 0
M  V30 3369 H 320.447 3.02264 0.777353 0
M  V30 3370 N 320.748 -0.0735177 1.57428 0
M  V30 3371 C 321.973 -0.789787 1.91774 0
M  V30 3372 C 322.398 -1.70413 0.796306 0
M  V30 3373 O 321.756 -1.79555 -0.250961 0
M  V30 3374 C 321.804 -1.5609 3.25067 0
M  V30 3375 O 320.908 -2.67144 3.14178 0
M  V30 3376 H 320.249 -0.215582 0.628029 0
M  V30 3377 H 322.779 -0.0422781 2.04556 0
M  V30 3378 H 322.789 -1.94052 3.58898 0
M  V30 3379 H 321.464 -0.890015 4.06265 0
M  V30 3380 H 320.041 -2.32052 2.91901 0
M  V30 3381 N 322.226 -1.5378 -0.344866 0
M  V30 3382 C 323.156 -1.84662 -1.42906 0
M  V30 3383 C 324.137 -0.701648 -1.54955 0
M  V30 3384 O 325.322 -0.953438 -1.69184 0
M  V30 3385 C 322.452 -2.05503 -2.79974 0
M  V30 3386 C 321.406 -3.21318 -2.82734 0
M  V30 3387 C 320.732 -3.2749 -4.22675 0
M  V30 3388 C 322.032 -4.59456 -2.48389 0
M  V30 3389 H 323.726 -2.75461 -1.17311 0
M  V30 3390 H 321.272 -1.32542 -0.562896 0
M  V30 3391 H 323.225 -2.25691 -3.55867 0
M  V30 3392 H 321.949 -1.11434 -3.07002 0
M  V30 3393 H 320.608 -3.00984 -2.09294 0
M  V30 3394 H 320.256 -2.31019 -4.4681 0
M  V30 3395 H 319.956 -4.05316 -4.25433 0
M  V30 3396 H 321.48 -3.49887 -5.00412 0
M  V30 3397 H 322.894 -4.79667 -3.13995 0
M  V30 3398 H 321.291 -5.39675 -2.62432 0
M  V30 3399 H 322.361 -4.63155 -1.4358 0
M  V30 3400 N 323.704 0.605807 -1.45491 0
M  V30 3401 C 324.932 1.39136 -1.5313 0
M  V30 3402 C 325.347 1.88082 -0.164507 0
M  V30 3403 O 324.704 1.62316 0.834247 0
M  V30 3404 C 324.755 2.59463 -2.51716 0
M  V30 3405 O 324.476 2.12551 -3.83084 0
M  V30 3406 C 325.977 3.52301 -2.6907 0
M  V30 3407 H 323.197 0.425849 -0.51855 0
M  V30 3408 H 325.741 0.73865 -1.90694 0
M  V30 3409 H 323.896 3.20772 -2.17219 0
M  V30 3410 H 324.31 2.90744 -4.36541 0
M  V30 3411 H 325.784 4.33271 -3.42024 0
M  V30 3412 H 326.261 4.02757 -1.75167 0
M  V30 3413 H 326.867 2.96845 -3.04571 0
M  V30 3414 N 325.182 1.32811 0.848464 0
M  V30 3415 C 326.41 1.26739 1.63538 0
M  V30 3416 C 326.825 -0.163484 1.88091 0
M  V30 3417 O 326.182 -1.10258 1.45429 0
M  V30 3418 C 326.233 2.03013 2.99112 0
M  V30 3419 O 325.954 3.40518 2.75643 0
M  V30 3420 C 327.455 2.04038 3.93552 0
M  V30 3421 H 324.675 0.437024 0.509167 0
M  V30 3422 H 327.219 1.75033 1.05753 0
M  V30 3423 H 325.374 1.58426 3.53525 0
M  V30 3424 H 325.788 3.79635 3.61908 0
M  V30 3425 H 327.262 2.61877 4.85926 0
M  V30 3426 H 327.739 1.0282 4.26995 0
M  V30 3427 H 328.345 2.486 3.45077 0
M  V30 3428 N 326.66 -1.06551 1.16123 0
M  V30 3429 C 328.071 -1.60768 0.949232 0
M  V30 3430 C 328.422 -1.89523 -0.507508 0
M  V30 3431 O 327.547 -1.66671 -1.38021 0
M  V30 3432 C 328.142 -2.92086 1.71671 0
M  V30 3433 C 326.701 -3.43015 1.54977 0
M  V30 3434 C 325.848 -2.16947 1.72711 0
M  V30 3435 H 328.799 -0.895354 1.31031 0
M  V30 3436 H 328.82 -3.6138 1.19099 0
M  V30 3437 H 328.332 -2.71127 2.7769 0
M  V30 3438 H 326.433 -3.69039 0.513873 0
M  V30 3439 H 326.546 -4.18516 2.33198 0
M  V30 3440 H 324.91 -2.27041 1.15431 0
M  V30 3441 H 325.693 -1.98473 2.80113 0
M  V30 3442 N 328.138 -0.959301 -1.25041 0
M  V30 3443 C 329.549 -0.65667 -1.74771 0
M  V30 3444 C 329.9 0.827852 -1.77879 0
M  V30 3445 O 329.025 1.64783 -1.40269 0
M  V30 3446 C 329.62 -1.1853 -3.1739 0
M  V30 3447 C 328.179 -0.932734 -3.6466 0
M  V30 3448 C 327.326 -1.32558 -2.43564 0
M  V30 3449 H 330.277 -1.13558 -1.10862 0
M  V30 3450 H 330.298 -0.547582 -3.76539 0
M  V30 3451 H 329.81 -2.26576 -3.15095 0
M  V30 3452 H 327.911 0.13257 -3.72364 0
M  V30 3453 H 328.024 -1.57248 -4.52559 0
M  V30 3454 H 326.388 -0.743956 -2.43593 0
M  V30 3455 H 327.171 -2.41537 -2.43957 0
M  V30 3456 N 329.616 1.39756 -0.72842 0
M  V30 3457 C 330.856 2.025 -0.278078 0
M  V30 3458 C 331.22 1.5654 1.11173 0
M  V30 3459 O 332.421 2.11435 1.65978 0
M  V30 3460 C 330.692 3.55489 -0.369139 0
M  V30 3461 S 332.251 4.388 0.00232983 0
M  V30 3462 H 329.069 0.702534 -0.109391 0
M  V30 3463 H 331.671 1.70672 -0.95348 0
M  V30 3464 H 330.375 3.86429 -1.38204 0
M  V30 3465 H 329.906 3.92061 0.324308 0
M  V30 3466 H 331.921 4.80954 1.22055 0
M  V30 3467 N 331.094 0.475555 1.50254 0
M  V30 3468 C 332.322 -0.0754493 2.06762 0
M  V30 3469 C 332.737 -1.33111 1.33891 0
M  V30 3470 O 332.094 -1.77846 0.40952 0
M  V30 3471 C 332.145 -0.359008 3.59713 0
M  V30 3472 O 331.866 0.846851 4.29837 0
M  V30 3473 C 333.367 -0.956484 4.32858 0
M  V30 3474 H 330.587 0.00907525 0.670939 0
M  V30 3475 H 333.131 0.665618 1.93364 0
M  V30 3476 H 331.286 -1.05001 3.72899 0
M  V30 3477 H 331.7 0.594162 5.21124 0
M  V30 3478 H 333.174 -1.10463 5.40834 0
M  V30 3479 H 333.651 -1.94775 3.93649 0
M  V30 3480 H 334.257 -0.303723 4.24214 0
M  V30 3481 N 332.573 -1.56217 0.208337 0
M  V30 3482 C 333.483 -2.23316 -0.718836 0
M  V30 3483 C 334.499 -1.23648 -1.22422 0
M  V30 3484 O 335.675 -1.56423 -1.26861 0
M  V30 3485 C 332.74 -2.88968 -1.91568 0
M  V30 3486 C 331.801 -4.03943 -1.45357 0
M  V30 3487 C 331.034 -4.66455 -2.59337 0
M  V30 3488 O 331.257 -4.27919 -3.77149 0
M  V30 3489 O 330.191 -5.55686 -2.31293 0
M  V30 3490 H 334.017 -3.03182 -0.177315 0
M  V30 3491 H 331.602 -1.49384 -0.0215402 0
M  V30 3492 H 333.484 -3.30455 -2.61491 0
M  V30 3493 H 332.159 -2.12071 -2.44556 0
M  V30 3494 H 331.066 -3.67052 -0.722746 0
M  V30 3495 H 332.399 -4.82543 -0.970219 0
M  V30 3496 N 334.051 0.0651679 -1.57465 0
M  V30 3497 C 334.999 1.09542 -2.05191 0
M  V30 3498 C 335.993 1.39675 -0.958509 0
M  V30 3499 O 337.199 1.39003 -1.14359 0
M  V30 3500 H 333.574 0.370623 -0.654326 0
M  V30 3501 H 335.545 0.666802 -2.90854 0
M  V30 3502 C 334.294 2.39881 -2.51699 0
M  V30 3503 H 333.617 2.17547 -3.3543 0
M  V30 3504 H 335.057 3.104 -2.88839 0
M  V30 3505 C 333.516 3.0631 -1.40271 0
M  V30 3506 O 334.046 3.94664 -0.748523 0
M  V30 3507 N 332.252 2.67041 -1.14618 0
M  V30 3508 H 331.799 1.95281 -1.67997 0
M  V30 3509 H 331.757 3.1181 -0.402688 0
M  V30 3510 N 335.529 1.53961 0.336706 0
M  V30 3511 C 336.775 1.7179 1.07777 0
M  V30 3512 C 337.108 0.483263 1.88091 0
M  V30 3513 O 336.383 -0.519747 1.87427 0
M  V30 3514 C 336.666 2.98558 2.01334 0
M  V30 3515 C 336.519 4.32245 1.24437 0
M  V30 3516 C 337.838 3.21023 3.01052 0
M  V30 3517 H 334.957 0.625089 0.390426 0
M  V30 3518 H 337.599 1.86641 0.35567 0
M  V30 3519 H 335.749 2.86028 2.62908 0
M  V30 3520 H 337.421 4.56637 0.654243 0
M  V30 3521 H 335.664 4.30344 0.546458 0
M  V30 3522 H 336.335 5.17137 1.93063 0
M  V30 3523 H 338.811 3.32929 2.49595 0
M  V30 3524 H 337.687 4.11104 3.6371 0
M  V30 3525 H 337.948 2.37637 3.72802 0
M  V30 3526 N 337.007 -0.598083 1.45811 0
M  V30 3527 C 337.957 -1.70272 1.51629 0
M  V30 3528 C 338.941 -1.56382 0.378629 0
M  V30 3529 O 340.133 -1.65557 0.626087 0
M  V30 3530 C 337.262 -3.09042 1.49493 0
M  V30 3531 C 336.348 -3.28284 2.68496 0
M  V30 3532 N 336.739 -3.17748 3.93535 0
M  V30 3533 C 335.037 -3.59182 2.64394 0
M  V30 3534 C 335.738 -3.38579 4.7301 0
M  V30 3535 N 334.714 -3.63016 4.04624 0
M  V30 3536 H 338.516 -1.60634 2.46118 0
M  V30 3537 H 336.03 -0.801642 1.41235 0
M  V30 3538 H 338.027 -3.88302 1.51747 0
M  V30 3539 H 336.687 -3.19823 0.560683 0
M  V30 3540 H 337.698 -2.95944 4.25014 0
M  V30 3541 H 334.375 -3.76742 1.79922 0
M  V30 3542 H 335.765 -3.35747 5.82 0
M  V30 3543 N 338.485 -1.33259 -0.841409 0
M  V30 3544 C 339.731 -1.25766 -1.59857 0
M  V30 3545 C 340.086 0.175602 -1.91597 0
M  V30 3546 O 339.379 1.117 -1.55672 0
M  V30 3547 C 339.573 -2.06381 -2.9179 0
M  V30 3548 C 339.402 -3.57401 -2.72937 0
M  V30 3549 C 338.172 -4.26718 -2.70628 0
M  V30 3550 C 340.37 -4.51786 -2.45753 0
M  V30 3551 N 338.352 -5.63705 -2.43125 0
M  V30 3552 C 339.723 -5.76643 -2.27777 0
M  V30 3553 C 341.778 -4.40898 -2.31329 0
M  V30 3554 C 340.481 -6.91842 -1.96841 0
M  V30 3555 C 342.507 -5.55911 -2.01786 0
M  V30 3556 C 341.869 -6.79776 -1.8462 0
M  V30 3557 H 337.968 -0.515406 -0.588117 0
M  V30 3558 H 340.552 -1.67772 -0.987955 0
M  V30 3559 H 338.723 -1.667 -3.50807 0
M  V30 3560 H 340.455 -1.90678 -3.56965 0
M  V30 3561 H 337.21 -3.78968 -2.84043 0
M  V30 3562 H 337.634 -6.35911 -2.32265 0
M  V30 3563 H 342.276 -3.45772 -2.43314 0
M  V30 3564 H 339.994 -7.86968 -1.83594 0
M  V30 3565 H 343.58 -5.49421 -1.91384 0
M  V30 3566 H 342.46 -7.67266 -1.62088 0
M  V30 3567 N 339.963 1.05934 -1.16686 0
M  V30 3568 C 341.21 1.788 -0.950622 0
M  V30 3569 C 341.538 1.87384 0.521305 0
M  V30 3570 O 340.793 1.36438 1.40297 0
M  V30 3571 C 341.092 3.23105 -1.52767 0
M  V30 3572 C 340.758 3.34594 -3.02254 0
M  V30 3573 C 339.42 3.37437 -3.43059 0
M  V30 3574 C 341.772 3.36219 -3.98254 0
M  V30 3575 C 339.1 3.39525 -4.78477 0
M  V30 3576 C 341.452 3.39845 -5.33562 0
M  V30 3577 C 340.116 3.40971 -5.73842 0
M  V30 3578 H 339.386 0.654275 -0.347857 0
M  V30 3579 H 342.033 1.24555 -1.45459 0
M  V30 3580 H 340.338 3.80227 -0.94524 0
M  V30 3581 H 342.035 3.7809 -1.336 0
M  V30 3582 H 338.625 3.3309 -2.6972 0
M  V30 3583 H 342.809 3.33231 -3.67792 0
M  V30 3584 H 338.065 3.38703 -5.09009 0
M  V30 3585 H 342.239 3.4005 -6.07733 0
M  V30 3586 H 339.866 3.42342 -6.78753 0
M  V30 3587 N 341.441 0.965919 1.2453 0
M  V30 3588 C 342.687 0.62776 1.92839 0
M  V30 3589 C 343.02 -0.834694 1.75347 0
M  V30 3590 O 342.295 -1.60031 1.10546 0
M  V30 3591 C 342.578 1.00109 3.45905 0
M  V30 3592 C 342.431 2.52011 3.72573 0
M  V30 3593 C 343.75 0.53435 4.36844 0
M  V30 3594 H 340.869 0.229537 0.700344 0
M  V30 3595 H 343.511 1.2046 1.46933 0
M  V30 3596 H 341.661 0.510238 3.85135 0
M  V30 3597 H 343.333 3.08559 3.42912 0
M  V30 3598 H 341.576 2.95287 3.17786 0
M  V30 3599 H 342.247 2.73183 4.79661 0
M  V30 3600 H 344.723 0.955565 4.04979 0
M  V30 3601 H 343.599 0.824152 5.42678 0
M  V30 3602 H 343.86 -0.565589 4.38467 0
M  V30 3603 N 342.919 -1.39368 0.735821 0
M  V30 3604 C 343.849 -2.33234 0.111506 0
M  V30 3605 C 344.83 -1.53954 -0.723334 0
M  V30 3606 O 346.015 -1.82344 -0.668147 0
M  V30 3607 C 343.145 -3.38057 -0.795917 0
M  V30 3608 C 342.099 -4.2795 -0.065172 0
M  V30 3609 C 341.425 -5.23479 -1.08967 0
M  V30 3610 C 342.725 -5.10741 1.09273 0
M  V30 3611 H 344.419 -2.85692 0.895571 0
M  V30 3612 H 341.965 -1.37364 0.432109 0
M  V30 3613 H 343.918 -4.02675 -1.24221 0
M  V30 3614 H 342.642 -2.8404 -1.61211 0
M  V30 3615 H 341.301 -3.64813 0.361511 0
M  V30 3616 H 340.949 -4.65758 -1.89944 0
M  V30 3617 H 340.649 -5.84472 -0.605489 0
M  V30 3618 H 342.173 -5.90974 -1.53565 0
M  V30 3619 H 343.587 -5.68699 0.724841 0
M  V30 3620 H 341.984 -5.8088 1.50659 0
M  V30 3621 H 343.054 -4.45525 1.91404 0
M  V30 3622 N 344.397 -0.483516 -1.5 0
M  V30 3623 C 345.36 0.292965 -2.2732 0
M  V30 3624 C 346.36 0.909499 -1.32608 0
M  V30 3625 O 347.55 0.776745 -1.55924 0
M  V30 3626 C 344.682 1.41854 -3.09984 0
M  V30 3627 H 345.875 -0.385289 -2.97415 0
M  V30 3628 H 343.428 -0.237942 -1.54478 0
M  V30 3629 H 344.163 2.13148 -2.44414 0
M  V30 3630 H 343.948 0.982114 -3.79601 0
M  V30 3631 H 345.438 1.96597 -3.68429 0
M  V30 3632 N 345.875 1.56104 -0.216619 0
M  V30 3633 C 347.152 1.89988 0.465165 0
M  V30 3634 C 347.532 1.13326 1.78102 0
M  V30 3635 O 346.88 0.241033 2.27225 0
M  V30 3636 C 347.09 3.42646 0.662939 0
M  V30 3637 C 348.438 4.13311 0.972602 0
M  V30 3638 O 349.462 3.48217 0.749901 0
M  V30 3639 O 348.321 5.28396 1.39499 0
M  V30 3640 H 345.415 0.78979 0.245276 0
M  V30 3641 H 347.961 1.67721 -0.258436 0
M  V30 3642 H 346.733 3.90399 -0.26543 0
M  V30 3643 H 346.356 3.70677 1.43821 0
M  V30 3644 N 347.353 -0.0568162 1.57498 0
M  V30 3645 C 348.6 -0.753104 1.87975 0
M  V30 3646 C 348.928 -1.76815 0.81035 0
M  V30 3647 O 348.183 -1.94756 -0.19199 0
M  V30 3648 C 348.482 -1.48359 3.25153 0
M  V30 3649 C 348.148 -0.60713 4.46794 0
M  V30 3650 C 346.81 -0.365642 4.79809 0
M  V30 3651 C 349.162 -0.000305978 5.212 0
M  V30 3652 C 346.49 0.491905 5.84634 0
M  V30 3653 C 348.842 0.844781 6.26934 0
M  V30 3654 C 347.506 1.096 6.58441 0
M  V30 3655 H 346.776 -0.27558 0.687849 0
M  V30 3656 H 349.423 -0.0135173 1.91495 0
M  V30 3657 H 347.728 -2.29577 3.17492 0
M  V30 3658 H 349.425 -2.02739 3.45974 0
M  V30 3659 H 346.015 -0.805487 4.20963 0
M  V30 3660 H 350.199 -0.173961 4.95995 0
M  V30 3661 H 345.455 0.695131 6.07436 0
M  V30 3662 H 349.629 1.32165 6.83744 0
M  V30 3663 H 347.256 1.76224 7.39492 0
M  V30 3664 N 348.832 -1.54138 -0.328536 0
M  V30 3665 C 350.078 -1.7236 -1.06865 0
M  V30 3666 C 350.411 -0.493231 -1.87832 0
M  V30 3667 O 349.686 0.5098 -1.877 0
M  V30 3668 C 349.969 -2.99621 -1.99747 0
M  V30 3669 C 349.822 -4.32899 -1.22143 0
M  V30 3670 C 351.141 -3.22615 -2.99345 0
M  V30 3671 H 348.26 -0.627151 -0.387105 0
M  V30 3672 H 350.902 -1.86827 -0.345767 0
M  V30 3673 H 349.052 -2.87418 -2.61387 0
M  V30 3674 H 350.724 -4.56978 -0.630017 0
M  V30 3675 H 348.967 -4.30628 -0.523628 0
M  V30 3676 H 349.638 -5.18154 -1.90318 0
M  V30 3677 H 352.114 -3.34248 -2.47826 0
M  V30 3678 H 350.99 -4.13027 -3.61524 0
M  V30 3679 H 351.251 -2.3961 -3.71536 0
M  V30 3680 N 350.31 0.590341 -1.46126 0
M  V30 3681 C 351.257 1.69994 -1.56111 0
M  V30 3682 C 352.227 1.61065 -0.405867 0
M  V30 3683 O 353.412 1.8039 -0.621613 0
M  V30 3684 C 350.552 3.08326 -1.55013 0
M  V30 3685 C 349.665 3.27936 -2.81215 0
M  V30 3686 C 348.8 4.56473 -2.71673 0
M  V30 3687 C 347.839 4.694 -3.92849 0
M  V30 3688 N 346.976 5.89254 -3.81738 0
M  V30 3689 H 351.816 1.60797 -2.50895 0
M  V30 3690 H 349.353 0.783799 -1.24479 0
M  V30 3691 H 351.311 3.88383 -1.52362 0
M  V30 3692 H 349.941 3.16439 -0.637667 0
M  V30 3693 H 348.993 2.41536 -2.93879 0
M  V30 3694 H 350.305 3.33357 -3.71045 0
M  V30 3695 H 349.459 5.44748 -2.67085 0
M  V30 3696 H 348.198 4.53477 -1.7947 0
M  V30 3697 H 347.203 3.79544 -3.97777 0
M  V30 3698 H 348.428 4.7418 -4.86138 0
M  V30 3699 H 346.374 5.87271 -2.92317 0
M  V30 3700 H 346.291 5.95911 -4.65217 0
M  V30 3701 H 347.559 6.79981 -3.81112 0
M  V30 3702 N 351.788 1.33704 0.83433 0
M  V30 3703 C 352.718 1.26967 1.95963 0
M  V30 3704 C 353.699 0.149337 1.69443 0
M  V30 3705 O 354.884 0.339852 1.91203 0
M  V30 3706 C 352.014 1.01275 3.32206 0
M  V30 3707 C 350.968 2.09652 3.73136 0
M  V30 3708 C 350.294 1.69166 5.07235 0
M  V30 3709 C 351.594 3.51372 3.86439 0
M  V30 3710 H 353.288 2.2112 2.01857 0
M  V30 3711 H 350.834 1.06447 0.969793 0
M  V30 3712 H 352.787 0.952106 4.10503 0
M  V30 3713 H 351.511 0.0356203 3.26581 0
M  V30 3714 H 350.17 2.14766 2.97104 0
M  V30 3715 H 349.818 0.701437 4.98085 0
M  V30 3716 H 349.518 2.41694 5.35591 0
M  V30 3717 H 351.042 1.64576 5.88003 0
M  V30 3718 H 352.456 3.48734 4.55036 0
M  V30 3719 H 350.853 4.22425 4.26236 0
M  V30 3720 H 351.923 3.89546 2.88759 0
M  V30 3721 N 353.266 -1.05314 1.17247 0
M  V30 3722 C 354.491 -1.82509 0.985148 0
M  V30 3723 C 354.916 -1.82343 -0.461788 0
M  V30 3724 O 354.274 -1.23151 -1.33055 0
M  V30 3725 C 354.322 -3.26566 1.52929 0
M  V30 3726 O 353.426 -4.05666 0.742225 0
M  V30 3727 H 352.767 -0.564347 0.349869 0
M  V30 3728 H 355.297 -1.32718 1.55715 0
M  V30 3729 H 355.307 -3.77369 1.55103 0
M  V30 3730 H 353.982 -3.26001 2.58256 0
M  V30 3731 H 352.559 -3.64397 0.791794 0
M  V30 3732 N 354.744 -0.972509 -1.24016 0
M  V30 3733 C 356.16 -0.679827 -1.44397 0
M  V30 3734 C 356.36 0.756716 -1.86751 0
M  V30 3735 O 355.416 1.53007 -2.00861 0
M  V30 3736 C 356.729 -1.66803 -2.50195 0
M  V30 3737 C 358.277 -1.68119 -2.64017 0
M  V30 3738 C 358.752 -2.65748 -3.73017 0
M  V30 3739 N 360.243 -2.64219 -3.8045 0
M  V30 3740 C 360.978 -3.36433 -4.64328 0
M  V30 3741 N 360.474 -4.1818 -5.52356 0
M  V30 3742 N 362.267 -3.25235 -4.58453 0
M  V30 3743 H 354.418 -1.90059 -0.948228 0
M  V30 3744 H 356.681 -0.818527 -0.478245 0
M  V30 3745 H 356.387 -2.69498 -2.25973 0
M  V30 3746 H 356.261 -1.4446 -3.48441 0
M  V30 3747 H 358.648 -0.661319 -2.87594 0
M  V30 3748 H 358.729 -1.94525 -1.66113 0
M  V30 3749 H 358.373 -3.67872 -3.50189 0
M  V30 3750 H 358.303 -2.36619 -4.70446 0
M  V30 3751 H 360.794 -2.04887 -3.17537 0
M  V30 3752 H 361.107 -4.70157 -6.13329 0
M  V30 3753 H 359.452 -4.22273 -5.52006 0
M  V30 3754 H 362.643 -2.60829 -3.88698 0
M  V30 3755 H 362.816 -3.81776 -5.23594 0
M  V30 3756 N 356.222 1.38976 -0.743202 0
M  V30 3757 C 357.45 2.04636 -0.30525 0
M  V30 3758 C 357.865 1.56044 1.06281 0
M  V30 3759 O 357.222 0.728921 1.67311 0
M  V30 3760 C 357.273 3.60193 -0.307177 0
M  V30 3761 O 356.994 4.06998 -1.62124 0
M  V30 3762 C 358.495 4.4306 0.145928 0
M  V30 3763 H 355.715 0.65788 -0.132041 0
M  V30 3764 H 358.259 1.77866 -1.00915 0
M  V30 3765 H 356.414 3.85835 0.347898 0
M  V30 3766 H 356.828 5.01371 -1.54036 0
M  V30 3767 H 358.302 5.51921 0.0934183 0
M  V30 3768 H 358.779 4.22706 1.19231 0
M  V30 3769 H 359.385 4.22584 -0.479886 0
M  V30 3770 N 357.7 0.491464 1.49741 0
M  V30 3771 C 358.632 -0.328609 2.26832 0
M  V30 3772 C 359.645 -0.939113 1.32983 0
M  V30 3773 O 360.834 -0.824067 1.58339 0
M  V30 3774 C 357.934 -1.47675 3.05033 0
M  V30 3775 C 357.107 -0.975305 4.26388 0
M  V30 3776 C 356.166 -1.99991 4.86714 0
M  V30 3777 O 355.192 -1.57229 5.47054 0
M  V30 3778 N 356.394 -3.32962 4.75517 0
M  V30 3779 H 359.159 0.332377 2.97851 0
M  V30 3780 H 356.72 0.323441 1.58636 0
M  V30 3781 H 358.712 -2.15954 3.42266 0
M  V30 3782 H 357.282 -2.04206 2.36683 0
M  V30 3783 H 356.502 -0.117723 3.94024 0
M  V30 3784 H 357.79 -0.618531 5.05026 0
M  V30 3785 H 357.188 -3.70399 4.27576 0
M  V30 3786 H 355.745 -3.96982 5.16961 0
M  V30 3787 N 359.178 -1.55987 0.224894 0
M  V30 3788 C 360.424 -1.98684 -0.406502 0
M  V30 3789 C 360.757 -1.11248 -1.59177 0
M  V30 3790 O 360.032 -0.170909 -1.93748 0
M  V30 3791 C 360.315 -3.50218 -0.837808 0
M  V30 3792 C 360.168 -4.48426 0.351332 0
M  V30 3793 C 361.487 -4.06243 -1.69278 0
M  V30 3794 H 358.606 -0.722337 -0.146283 0
M  V30 3795 H 361.248 -1.87255 0.321799 0
M  V30 3796 H 359.398 -3.60089 -1.45837 0
M  V30 3797 H 361.07 -4.50562 0.989526 0
M  V30 3798 H 359.313 -4.22159 0.998207 0
M  V30 3799 H 359.984 -5.52 0.00655905 0
M  V30 3800 H 362.46 -3.99337 -1.16914 0
M  V30 3801 H 361.336 -5.12581 -1.96346 0
M  V30 3802 H 361.597 -3.53332 -2.65723 0
M  V30 3803 N 360.656 0.0484629 -1.57525 0
M  V30 3804 C 361.902 0.738854 -1.89506 0
M  V30 3805 C 362.257 1.73989 -0.821319 0
M  V30 3806 O 361.55 1.90825 0.172129 0
M  V30 3807 C 361.744 1.46632 -3.25935 0
M  V30 3808 C 361.573 0.537254 -4.46479 0
M  V30 3809 C 360.343 0.165484 -5.05029 0
M  V30 3810 C 362.541 -0.176085 -5.13998 0
M  V30 3811 N 360.523 -0.766868 -6.09091 0
M  V30 3812 C 361.894 -0.96478 -6.12448 0
M  V30 3813 C 363.949 -0.24509 -4.97296 0
M  V30 3814 C 362.652 -1.8161 -6.95996 0
M  V30 3815 C 364.678 -1.08347 -5.81391 0
M  V30 3816 C 364.04 -1.86014 -6.79395 0
M  V30 3817 H 360.139 0.245067 -0.742608 0
M  V30 3818 H 362.723 -0.000476161 -1.947 0
M  V30 3819 H 360.894 2.17623 -3.21706 0
M  V30 3820 H 362.626 2.10757 -3.45491 0
M  V30 3821 H 359.381 0.523466 -4.70698 0
M  V30 3822 H 359.805 -1.22698 -6.65788 0
M  V30 3823 H 364.447 0.341063 -4.21422 0
M  V30 3824 H 362.165 -2.41313 -7.71229 0
M  V30 3825 H 365.751 -1.14014 -5.70519 0
M  V30 3826 H 364.631 -2.4984 -7.43337 0
M  V30 3827 N 362.134 1.5431 0.320358 0
M  V30 3828 C 363.081 1.83918 1.39438 0
M  V30 3829 C 364.051 0.686525 1.51248 0
M  V30 3830 O 365.236 0.933269 1.66417 0
M  V30 3831 C 362.376 2.075 2.75749 0
M  V30 3832 C 361.489 3.35177 2.72544 0
M  V30 3833 C 360.624 3.48704 4.00723 0
M  V30 3834 C 359.663 4.70244 3.91838 0
M  V30 3835 N 358.8 4.80679 5.11754 0
M  V30 3836 H 363.64 2.75544 1.13489 0
M  V30 3837 H 361.177 1.36459 0.549309 0
M  V30 3838 H 363.135 2.19166 3.54996 0
M  V30 3839 H 361.765 1.19163 3 0
M  V30 3840 H 360.817 3.32233 1.85271 0
M  V30 3841 H 362.129 4.24534 2.61863 0
M  V30 3842 H 361.283 3.59928 4.88402 0
M  V30 3843 H 360.022 2.57445 4.14214 0
M  V30 3844 H 359.027 4.59072 3.02544 0
M  V30 3845 H 360.252 5.6289 3.7991 0
M  V30 3846 H 358.198 3.92337 5.25745 0
M  V30 3847 H 358.115 5.64007 5.0342 0
M  V30 3848 H 359.383 4.96239 6.01138 0
M  V30 3849 N 363.613 -0.582584 1.46437 0
M  V30 3850 C 364.543 -1.70187 1.59871 0
M  V30 3851 C 365.524 -1.64066 0.449042 0
M  V30 3852 O 366.709 -1.82081 0.6753 0
M  V30 3853 C 363.839 -3.08827 1.58881 0
M  V30 3854 C 362.793 -3.29779 2.72819 0
M  V30 3855 C 362.119 -4.68947 2.5689 0
M  V30 3856 C 363.419 -3.17601 4.1464 0
M  V30 3857 H 365.113 -1.592 2.53566 0
M  V30 3858 H 362.659 -0.764472 1.22032 0
M  V30 3859 H 364.612 -3.86951 1.66873 0
M  V30 3860 H 363.336 -3.20713 0.617306 0
M  V30 3861 H 361.995 -2.54054 2.64296 0
M  V30 3862 H 361.643 -4.77599 1.57823 0
M  V30 3863 H 361.343 -4.83919 3.33312 0
M  V30 3864 H 362.867 -5.4924 2.66773 0
M  V30 3865 H 364.281 -3.8557 4.24274 0
M  V30 3866 H 362.678 -3.44094 4.9165 0
M  V30 3867 H 363.748 -2.14681 4.34788 0
M  V30 3868 N 365.091 -1.34144 -0.827227 0
M  V30 3869 C 366.001 -1.27428 -1.96975 0
M  V30 3870 C 367.017 -0.182728 -1.73038 0
M  V30 3871 O 368.193 -0.408426 -1.97215 0
M  V30 3872 C 365.258 -1.02526 -3.31194 0
M  V30 3873 C 364.319 -2.20796 -3.68168 0
M  V30 3874 C 363.552 -1.97073 -4.95982 0
M  V30 3875 O 363.775 -0.926822 -5.6282 0
M  V30 3876 O 362.709 -2.83912 -5.30733 0
M  V30 3877 H 366.535 -2.23537 -2.05584 0
M  V30 3878 H 364.12 -1.14307 -0.961989 0
M  V30 3879 H 366.002 -0.904026 -4.11589 0
M  V30 3880 H 364.677 -0.0945389 -3.23562 0
M  V30 3881 H 363.584 -2.38477 -2.88235 0
M  V30 3882 H 364.917 -3.12243 -3.8048 0
M  V30 3883 N 366.569 1.04691 -1.17803 0
M  V30 3884 C 367.517 2.14665 -0.895635 0
M  V30 3885 C 368.511 1.68806 0.141679 0
M  V30 3886 O 369.717 1.79999 -0.00587914 0
M  V30 3887 H 366.092 0.701038 -0.272121 0
M  V30 3888 H 368.063 2.35685 -1.83017 0
M  V30 3889 C 366.812 3.45019 -0.430962 0
M  V30 3890 H 366.135 3.8071 -1.22064 0
M  V30 3891 H 367.575 4.23125 -0.272301 0
M  V30 3892 C 366.034 3.25943 0.852207 0
M  V30 3893 O 366.564 3.5296 1.91786 0
M  V30 3894 N 364.77 2.79304 0.802346 0
M  V30 3895 H 364.317 2.57518 -0.0650788 0
M  V30 3896 H 364.275 2.66921 1.66134 0
M  V30 3897 N 368.047 0.979072 1.23499 0
M  V30 3898 C 369.272 0.664845 1.96455 0
M  V30 3899 C 369.697 -0.761287 1.72006 0
M  V30 3900 O 369.055 -1.51837 0.990713 0
M  V30 3901 C 369.103 0.959479 3.47601 0
M  V30 3902 O 368.207 0.0508168 4.12369 0
M  V30 3903 H 367.548 0.250185 0.615064 0
M  V30 3904 H 370.078 1.31231 1.5697 0
M  V30 3905 H 370.088 0.895642 3.98048 0
M  V30 3906 H 368.763 1.99876 3.64723 0
M  V30 3907 H 367.34 0.16895 3.72517 0
M  V30 3908 N 369.525 -1.3858 0.750561 0
M  V30 3909 C 370.455 -2.33102 0.136237 0
M  V30 3910 C 371.436 -1.54713 -0.706965 0
M  V30 3911 O 372.621 -1.83043 -0.648769 0
M  V30 3912 C 369.751 -3.38882 -0.760017 0
M  V30 3913 C 368.705 -4.27995 -0.0197785 0
M  V30 3914 C 368.031 -5.24605 -1.03408 0
M  V30 3915 C 369.331 -5.09554 1.14684 0
M  V30 3916 H 371.025 -2.84726 0.925822 0
M  V30 3917 H 368.571 -1.36898 0.446654 0
M  V30 3918 H 370.524 -4.0397 -1.19943 0
M  V30 3919 H 369.248 -2.85734 -1.58189 0
M  V30 3920 H 367.907 -3.64409 0.400184 0
M  V30 3921 H 367.555 -4.67746 -1.84994 0
M  V30 3922 H 367.255 -5.85081 -0.543464 0
M  V30 3923 H 368.779 -5.9257 -1.47288 0
M  V30 3924 H 370.193 -5.67899 0.785118 0
M  V30 3925 H 368.59 -5.7925 1.56812 0
M  V30 3926 H 369.66 -4.4347 1.96118 0
M  V30 3927 N 371.003 -0.499398 -1.49478 0
M  V30 3928 C 371.933 0.269244 -2.31943 0
M  V30 3929 C 372.914 0.964054 -1.40143 0
M  V30 3930 O 374.099 0.955767 -1.69052 0
M  V30 3931 C 371.229 1.33504 -3.20615 0
M  V30 3932 C 370.183 0.760202 -4.21195 0
M  V30 3933 C 369.509 1.9264 -4.98792 0
M  V30 3934 C 370.809 -0.247661 -5.21712 0
M  V30 3935 H 372.503 -0.419082 -2.96452 0
M  V30 3936 H 370.049 -0.202988 -1.42562 0
M  V30 3937 H 372.002 1.88048 -3.77115 0
M  V30 3938 H 370.726 2.05253 -2.54045 0
M  V30 3939 H 369.385 0.23653 -3.65836 0
M  V30 3940 H 369.033 2.63154 -4.28671 0
M  V30 3941 H 368.733 1.54785 -5.66847 0
M  V30 3942 H 370.257 2.4762 -5.58137 0
M  V30 3943 H 371.671 0.209579 -5.72917 0
M  V30 3944 H 370.068 -0.541962 -5.97648 0
M  V30 3945 H 371.138 -1.16409 -4.7072 0
M  V30 3946 N 372.481 1.55866 -0.233164 0
M  V30 3947 C 373.758 1.90471 0.444988 0
M  V30 3948 C 374.138 1.15209 1.7689 0
M  V30 3949 O 373.486 0.265119 2.26957 0
M  V30 3950 C 373.696 3.4333 0.626559 0
M  V30 3951 C 375.044 4.14319 0.92871 0
M  V30 3952 O 376.068 3.48993 0.712926 0
M  V30 3953 O 374.927 5.29846 1.33887 0
M  V30 3954 H 372.021 0.792347 0.236885 0
M  V30 3955 H 374.567 1.67437 -0.276211 0
M  V30 3956 H 373.339 3.90095 -0.306822 0
M  V30 3957 H 372.962 3.72181 1.39881 0
M  V30 3958 N 373.959 -0.0401083 1.57549 0
M  V30 3959 C 374.909 -1.05175 2.02292 0
M  V30 3960 C 375.893 -1.32674 0.910294 0
M  V30 3961 O 377.085 -1.32444 1.17421 0
M  V30 3962 C 374.214 -2.35622 2.49674 0
M  V30 3963 C 373.3 -2.11261 3.67736 0
M  V30 3964 N 373.691 -1.56923 4.80842 0
M  V30 3965 C 371.989 -2.41596 3.74897 0
M  V30 3966 C 372.69 -1.48111 5.62528 0
M  V30 3967 N 371.666 -1.95282 5.07312 0
M  V30 3968 H 375.468 -0.625455 2.87168 0
M  V30 3969 H 372.982 -0.246624 1.60516 0
M  V30 3970 H 374.979 -3.08893 2.79983 0
M  V30 3971 H 373.639 -2.7894 1.662 0
M  V30 3972 H 374.65 -1.25345 5.02503 0
M  V30 3973 H 371.327 -2.88064 3.02201 0
M  V30 3974 H 372.717 -1.06683 6.63377 0
M  V30 3975 N 375.437 -1.54477 -0.31217 0
M  V30 3976 C 376.853 -1.45442 -0.657185 0
M  V30 3977 C 377.053 -0.63653 -1.91182 0
M  V30 3978 O 376.109 -0.139815 -2.52113 0
M  V30 3979 C 377.422 -2.89287 -0.82058 0
M  V30 3980 C 378.97 -2.9926 -0.917188 0
M  V30 3981 C 379.445 -4.44279 -1.11267 0
M  V30 3982 N 380.936 -4.4794 -1.17914 0
M  V30 3983 C 381.671 -5.57318 -1.34848 0
M  V30 3984 N 381.167 -6.76642 -1.48752 0
M  V30 3985 N 382.96 -5.44986 -1.37647 0
M  V30 3986 H 375.111 -2.06129 0.512313 0
M  V30 3987 H 377.374 -0.933088 0.167485 0
M  V30 3988 H 377.08 -3.51687 0.0302604 0
M  V30 3989 H 376.954 -3.36061 -1.71298 0
M  V30 3990 H 379.341 -2.36981 -1.75852 0
M  V30 3991 H 379.422 -2.558 -0.00101257 0
M  V30 3992 H 379.066 -5.07149 -0.27614 0
M  V30 3993 H 378.996 -4.85359 -2.04289 0
M  V30 3994 H 381.487 -3.61969 -1.08567 0
M  V30 3995 H 381.8 -7.55758 -1.61397 0
M  V30 3996 H 380.145 -6.79529 -1.45828 0
M  V30 3997 H 383.336 -4.50715 -1.26388 0
M  V30 3998 H 383.509 -6.3028 -1.50501 0
M  V30 3999 N 376.915 0.57481 -1.46744 0
M  V30 4000 C 377.863 1.70435 -1.58286 0
M  V30 4001 C 378.857 1.63287 -0.450956 0
M  V30 4002 O 380.063 1.68685 -0.628121 0
M  V30 4003 H 376.438 0.56364 -0.497809 0
M  V30 4004 H 378.409 1.57833 -2.53242 0
M  V30 4005 C 377.158 3.08815 -1.59776 0
M  V30 4006 H 376.481 3.1499 -2.46214 0
M  V30 4007 H 377.921 3.87588 -1.71905 0
M  V30 4008 C 376.38 3.35301 -0.327812 0
M  V30 4009 O 376.91 3.97511 0.57861 0
M  V30 4010 N 375.116 2.89816 -0.213274 0
M  V30 4011 H 374.663 2.39371 -0.951798 0
M  V30 4012 H 374.621 3.0791 0.63553 0
M  V30 4013 N 378.394 1.34581 0.820102 0
M  V30 4014 C 379.341 1.2639 1.93117 0
M  V30 4015 C 380.311 0.138554 1.65521 0
M  V30 4016 O 381.496 0.320004 1.88097 0
M  V30 4017 C 378.636 1.02812 3.29429 0
M  V30 4018 C 377.749 2.24146 3.693 0
M  V30 4019 C 376.884 1.93829 4.94574 0
M  V30 4020 C 375.923 3.1129 5.27034 0
M  V30 4021 N 375.06 2.80838 6.43486 0
M  V30 4022 H 379.9 2.21408 1.99455 0
M  V30 4023 H 377.437 1.10077 0.975784 0
M  V30 4024 H 379.395 0.871788 4.0799 0
M  V30 4025 H 378.025 0.114612 3.22596 0
M  V30 4026 H 377.077 2.50691 2.86109 0
M  V30 4027 H 378.389 3.11899 3.89257 0
M  V30 4028 H 377.543 1.74948 5.80929 0
M  V30 4029 H 376.282 1.03341 4.76626 0
M  V30 4030 H 375.287 3.30764 4.39175 0
M  V30 4031 H 376.512 4.02561 5.4692 0
M  V30 4032 H 374.458 1.92929 6.26988 0
M  V30 4033 H 374.375 3.62123 6.63629 0
M  V30 4034 H 375.643 2.65467 7.32903 0
M  V30 4035 N 379.872 -1.04064 1.18357 0
M  V30 4036 C 381.1 -1.80916 1.00384 0
M  V30 4037 C 381.515 -1.83414 -0.447738 0
M  V30 4038 O 380.872 -1.26962 -1.31099 0
M  V30 4039 C 380.923 -3.26516 1.55144 0
M  V30 4040 O 380.644 -3.2424 2.94618 0
M  V30 4041 C 382.145 -4.20013 1.41789 0
M  V30 4042 H 379.365 -0.569728 0.354474 0
M  V30 4043 H 381.909 -1.31151 1.56906 0
M  V30 4044 H 380.064 -3.73512 1.02798 0
M  V30 4045 H 380.478 -4.15452 3.20156 0
M  V30 4046 H 381.952 -5.20111 1.84901 0
M  V30 4047 H 382.429 -4.37667 0.36661 0
M  V30 4048 H 383.035 -3.78881 1.93207 0
M  V30 4049 N 381.35 -0.985608 -1.22978 0
M  V30 4050 C 382.599 -0.652881 -1.90841 0
M  V30 4051 C 382.912 0.817842 -1.77681 0
M  V30 4052 O 384.118 1.26185 -2.40395 0
M  V30 4053 C 382.574 -1.11717 -3.42122 0
M  V30 4054 C 382.182 -2.6126 -3.63933 0
M  V30 4055 C 383.926 -0.85843 -4.1573 0
M  V30 4056 C 381.833 -3.0133 -5.08876 0
M  V30 4057 H 380.763 -0.240491 -0.714619 0
M  V30 4058 H 383.414 -1.1942 -1.39324 0
M  V30 4059 H 381.796 -0.504027 -3.92779 0
M  V30 4060 H 382.97 -3.27858 -3.23799 0
M  V30 4061 H 381.285 -2.84937 -3.03644 0
M  V30 4062 H 383.882 -1.13359 -5.22546 0
M  V30 4063 H 384.225 0.205461 -4.15793 0
M  V30 4064 H 384.758 -1.43341 -3.71077 0
M  V30 4065 H 381.497 -4.06864 -5.13947 0
M  V30 4066 H 381.017 -2.3943 -5.49939 0
M  V30 4067 H 382.696 -2.92224 -5.77247 0
M  V30 4068 N 382.828 1.3818 -0.7579 0
M  V30 4069 C 383.778 2.27741 -0.108674 0
M  V30 4070 C 384.762 1.45415 0.688709 0
M  V30 4071 O 385.954 1.68108 0.553956 0
M  V30 4072 C 383.083 3.34313 0.780367 0
M  V30 4073 C 382.169 4.24093 -0.0240977 0
M  V30 4074 N 382.56 4.9451 -1.06271 0
M  V30 4075 C 380.858 4.45542 0.202049 0
M  V30 4076 C 381.559 5.60675 -1.54979 0
M  V30 4077 N 380.535 5.36684 -0.864348 0
M  V30 4078 H 384.337 2.79649 -0.904071 0
M  V30 4079 H 381.851 1.51133 -0.594346 0
M  V30 4080 H 383.848 3.97368 1.26114 0
M  V30 4081 H 382.508 2.83962 1.57467 0
M  V30 4082 H 383.519 4.97345 -1.44459 0
M  V30 4083 H 380.196 4.06091 0.96935 0
M  V30 4084 H 381.586 6.26992 -2.41517 0
M  V30 4085 N 384.306 0.507319 1.49211 0
M  V30 4086 C 385.254 -0.281364 2.30892 0
M  V30 4087 C 386.248 -0.95687 1.39787 0
M  V30 4088 O 387.454 -0.883838 1.56807 0
M  V30 4089 H 383.829 -0.109597 0.743971 0
M  V30 4090 H 385.8 0.42744 2.95323 0
M  V30 4091 C 384.549 -1.32918 3.21291 0
M  V30 4092 H 383.872 -0.818799 3.91326 0
M  V30 4093 H 385.312 -1.85288 3.81372 0
M  V30 4094 C 383.771 -2.35074 2.41333 0
M  V30 4095 O 384.301 -3.4108 2.12197 0
M  V30 4096 N 382.507 -2.07705 2.03241 0
M  V30 4097 H 382.054 -1.2152 2.27136 0
M  V30 4098 H 382.012 -2.76283 1.50051 0
M  V30 4099 N 385.784 -1.5574 0.241426 0
M  V30 4100 C 387.061 -1.90704 -0.434881 0
M  V30 4101 C 387.441 -1.16145 -1.76277 0
M  V30 4102 O 386.789 -0.277152 -2.26813 0
M  V30 4103 C 386.999 -3.43657 -0.608343 0
M  V30 4104 C 388.347 -4.14806 -0.906725 0
M  V30 4105 O 389.371 -3.49366 -0.694408 0
M  V30 4106 O 388.23 -5.30548 -1.31075 0
M  V30 4107 H 385.324 -0.793592 -0.23268 0
M  V30 4108 H 387.87 -1.67288 0.285086 0
M  V30 4109 H 386.642 -3.89927 0.327505 0
M  V30 4110 H 386.265 -3.72918 -1.37906 0
M  V30 4111 N 387.262 0.0317525 -1.57568 0
M  V30 4112 C 388.492 0.733884 -1.93126 0
M  V30 4113 C 388.9 1.69563 -0.839352 0
M  V30 4114 O 388.243 1.82681 0.193175 0
M  V30 4115 C 388.305 1.54798 -3.24465 0
M  V30 4116 C 387.969 0.751304 -4.50782 0
M  V30 4117 C 388.966 0.0527632 -5.19873 0
M  V30 4118 C 386.651 0.706639 -4.97305 0
M  V30 4119 C 388.645 -0.679774 -6.33765 0
M  V30 4120 C 386.332 -0.0296449 -6.11093 0
M  V30 4121 C 387.33 -0.721614 -6.79177 0
M  V30 4122 O 387.018 -1.44595 -7.90789 0
M  V30 4123 H 386.75 0.211459 -0.642076 0
M  V30 4124 H 389.304 -0.00585615 -2.05399 0
M  V30 4125 H 387.534 2.33147 -3.08512 0
M  V30 4126 H 389.223 2.13247 -3.4537 0
M  V30 4127 H 389.989 0.0783188 -4.84937 0
M  V30 4128 H 385.868 1.23474 -4.44157 0
M  V30 4129 H 389.412 -1.22042 -6.86842 0
M  V30 4130 H 385.309 -0.0571331 -6.45475 0
M  V30 4131 H 386.077 -1.35935 -8.07133 0
M  V30 4132 N 388.74 1.54641 0.303973 0
M  V30 4133 C 390.156 1.45788 0.649463 0
M  V30 4134 C 390.356 0.64666 1.90842 0
M  V30 4135 O 389.412 0.153183 2.52035 0
M  V30 4136 C 390.725 2.89718 0.805227 0
M  V30 4137 C 392.273 2.99742 0.901305 0
M  V30 4138 C 392.748 4.44863 1.08909 0
M  V30 4139 N 394.239 4.48559 1.15536 0
M  V30 4140 C 394.974 5.58026 1.3189 0
M  V30 4141 N 394.47 6.77422 1.45161 0
M  V30 4142 N 396.263 5.45708 1.34755 0
M  V30 4143 H 388.414 2.05854 -0.523237 0
M  V30 4144 H 390.677 0.932186 -0.172431 0
M  V30 4145 H 390.383 3.51666 -0.0489108 0
M  V30 4146 H 390.257 3.36964 1.69513 0
M  V30 4147 H 392.644 2.3791 1.74593 0
M  V30 4148 H 392.725 2.55797 -0.0125531 0
M  V30 4149 H 392.369 5.07288 0.249241 0
M  V30 4150 H 392.299 4.86436 2.01713 0
M  V30 4151 H 394.79 3.6254 1.06646 0
M  V30 4152 H 395.103 7.56604 1.57387 0
M  V30 4153 H 393.448 6.80292 1.42223 0
M  V30 4154 H 396.639 4.51378 1.23996 0
M  V30 4155 H 396.812 6.3107 1.47157 0
M  V30 4156 N 390.218 -0.567019 1.47046 0
M  V30 4157 C 391.634 -0.891975 1.32348 0
M  V30 4158 C 391.834 -1.99154 0.306616 0
M  V30 4159 O 390.89 -2.50883 -0.28532 0
M  V30 4160 C 392.203 -1.29449 2.7141 0
M  V30 4161 C 393.751 -1.40646 2.79621 0
M  V30 4162 C 394.226 -1.84257 4.19301 0
M  V30 4163 N 395.717 -1.91424 4.21795 0
M  V30 4164 C 396.452 -2.26476 5.26779 0
M  V30 4165 N 395.948 -2.60211 6.42077 0
M  V30 4166 N 397.741 -2.27166 5.14152 0
M  V30 4167 H 389.892 0.159074 2.11803 0
M  V30 4168 H 392.155 0.00849752 0.947962 0
M  V30 4169 H 391.861 -0.560448 3.47206 0
M  V30 4170 H 391.735 -2.25273 3.02542 0
M  V30 4171 H 394.122 -2.13133 2.04104 0
M  V30 4172 H 394.203 -0.430339 2.52154 0
M  V30 4173 H 393.847 -1.12343 4.95319 0
M  V30 4174 H 393.777 -2.82855 4.44185 0
M  V30 4175 H 396.268 -1.6778 3.38612 0
M  V30 4176 H 396.581 -2.85956 7.17948 0
M  V30 4177 H 394.926 -2.57813 6.45413 0
M  V30 4178 H 398.117 -2.00244 4.23107 0
M  V30 4179 H 398.29 -2.54154 5.96079 0
M  V30 4180 N 391.696 -1.35014 -0.812953 0
M  V30 4181 C 392.924 -1.31031 -1.6012 0
M  V30 4182 C 393.339 0.113558 -1.88458 0
M  V30 4183 O 392.696 1.06363 -1.48301 0
M  V30 4184 C 392.747 -2.10872 -2.93624 0
M  V30 4185 O 392.468 -3.47706 -2.66518 0
M  V30 4186 C 393.969 -2.14401 -3.88004 0
M  V30 4187 H 391.189 -0.45037 -0.497401 0
M  V30 4188 H 393.733 -1.77775 -1.01076 0
M  V30 4189 H 391.888 -1.67744 -3.492 0
M  V30 4190 H 392.302 -3.89097 -3.51715 0
M  V30 4191 H 393.776 -2.74669 -4.78812 0
M  V30 4192 H 394.253 -1.14105 -4.24119 0
M  V30 4193 H 394.859 -2.57662 -3.38364 0
M  V30 4194 N 393.175 1.03435 -1.18907 0
M  V30 4195 C 394.107 2.1165 -0.879595 0
M  V30 4196 C 395.12 1.62316 0.125439 0
M  V30 4197 O 396.309 1.78201 -0.103245 0
M  V30 4198 C 393.409 3.37622 -0.294042 0
M  V30 4199 C 392.582 4.16166 -1.34629 0
M  V30 4200 C 391.641 5.20457 -0.775274 0
M  V30 4201 O 390.667 5.50379 -1.4516 0
M  V30 4202 N 391.869 5.78949 0.424126 0
M  V30 4203 H 394.634 2.38791 -1.81105 0
M  V30 4204 H 392.195 1.19681 -1.09032 0
M  V30 4205 H 394.187 4.04572 0.101679 0
M  V30 4206 H 392.757 3.07873 0.541575 0
M  V30 4207 H 391.977 3.44444 -1.91707 0
M  V30 4208 H 393.265 4.65432 -2.05549 0
M  V30 4209 H 392.663 5.56948 0.991209 0
M  V30 4210 H 391.22 6.47334 0.761691 0
M  V30 4211 N 394.653 0.992116 1.22453 0
M  V30 4212 C 396.064 0.702776 1.72968 0
M  V30 4213 C 396.415 -0.780399 1.80012 0
M  V30 4214 O 395.54 -1.61007 1.44589 0
M  V30 4215 C 396.135 1.26903 3.14135 0
M  V30 4216 C 394.694 1.02909 3.62059 0
M  V30 4217 C 393.841 1.38969 2.39964 0
M  V30 4218 H 396.792 1.16457 1.07812 0
M  V30 4219 H 396.813 0.647223 3.74955 0
M  V30 4220 H 396.325 2.34851 3.08977 0
M  V30 4221 H 394.426 -0.0337979 3.72585 0
M  V30 4222 H 394.539 1.69191 4.48231 0
M  V30 4223 H 392.903 0.808279 2.41535 0
M  V30 4224 H 393.686 2.4792 2.37467 0
M  V30 4225 N 396.131 -1.37776 0.765217 0
M  V30 4226 C 397.061 -2.32945 0.160953 0
M  V30 4227 C 398.042 -1.55454 -0.690516 0
M  V30 4228 O 399.227 -1.83721 -0.629318 0
M  V30 4229 C 396.357 -3.39669 -0.724031 0
M  V30 4230 C 395.311 -4.27992 0.0256173 0
M  V30 4231 C 394.637 -5.25673 -0.978383 0
M  V30 4232 C 395.937 -5.08309 1.20082 0
M  V30 4233 H 397.631 -2.83728 0.955969 0
M  V30 4234 H 395.177 -1.36416 0.461149 0
M  V30 4235 H 397.13 -4.05219 -1.15652 0
M  V30 4236 H 395.854 -2.87396 -1.5515 0
M  V30 4237 H 394.513 -3.63964 0.438812 0
M  V30 4238 H 394.161 -4.69682 -1.80022 0
M  V30 4239 H 393.861 -5.85625 -0.481378 0
M  V30 4240 H 395.385 -5.94098 -1.40995 0
M  V30 4241 H 396.799 -5.67034 0.845307 0
M  V30 4242 H 395.196 -5.77554 1.62947 0
M  V30 4243 H 396.266 -4.41365 2.00811 0
M  V30 4244 N 397.609 -0.515225 -1.4894 0
M  V30 4245 C 398.557 0.269115 -2.31038 0
M  V30 4246 C 399.551 0.949443 -1.40292 0
M  V30 4247 O 400.757 0.87551 -1.57273 0
M  V30 4248 H 397.132 0.10565 -0.744542 0
M  V30 4249 H 399.103 -0.443096 -2.95092 0
M  V30 4250 C 397.852 1.31213 -3.21991 0
M  V30 4251 H 397.175 0.798034 -3.91754 0
M  V30 4252 H 398.615 1.83263 -3.82349 0
M  V30 4253 C 397.074 2.33791 -2.42576 0
M  V30 4254 O 397.604 3.3995 -2.14003 0
M  V30 4255 N 395.81 2.06625 -2.0434 0
M  V30 4256 H 395.357 1.20314 -2.27777 0
M  V30 4257 H 395.315 2.75483 -1.51514 0
M  V30 4258 N 399.087 1.5561 -0.249682 0
M  V30 4259 C 400.037 2.18157 0.662673 0
M  V30 4260 C 401.021 1.1383 1.13717 0
M  V30 4261 O 402.213 1.39731 1.08648 0
M  V30 4262 C 399.342 2.88672 1.85805 0
M  V30 4263 C 398.428 4.00258 1.40193 0
M  V30 4264 N 398.819 5.01473 0.660213 0
M  V30 4265 C 397.117 4.12864 1.68698 0
M  V30 4266 C 397.818 5.80155 0.423695 0
M  V30 4267 N 396.794 5.34533 0.988721 0
M  V30 4268 H 400.596 2.93769 0.0878688 0
M  V30 4269 H 398.11 1.62316 -0.0521183 0
M  V30 4270 H 400.107 3.31912 2.5227 0
M  V30 4271 H 398.767 2.14564 2.43705 0
M  V30 4272 H 399.778 5.16971 0.310047 0
M  V30 4273 H 396.455 3.4993 2.27717 0
M  V30 4274 H 397.845 6.71688 -0.168616 0
M  V30 4275 N 400.565 -0.0233959 1.57583 0
M  V30 4276 C 401.981 -0.379134 1.55031 0
M  V30 4277 C 402.181 -1.76255 0.976548 0
M  V30 4278 O 401.237 -2.45266 0.600078 0
M  V30 4279 C 402.55 -0.275792 2.99433 0
M  V30 4280 C 404.098 -0.352458 3.11009 0
M  V30 4281 C 404.573 -0.278501 4.57152 0
M  V30 4282 N 406.064 -0.337123 4.61972 0
M  V30 4283 C 406.799 -0.302876 5.726 0
M  V30 4284 N 406.295 -0.220589 6.92449 0
M  V30 4285 N 408.088 -0.353023 5.6099 0
M  V30 4286 H 400.239 0.881869 1.93227 0
M  V30 4287 H 402.502 0.335867 0.886509 0
M  V30 4288 H 402.208 0.675108 3.4516 0
M  V30 4289 H 402.082 -1.06721 3.61788 0
M  V30 4290 H 404.469 -1.29379 2.65226 0
M  V30 4291 H 404.55 0.468409 2.51475 0
M  V30 4292 H 404.194 0.659189 5.03604 0
M  V30 4293 H 404.124 -1.11755 5.14605 0
M  V30 4294 H 406.615 -0.403002 3.75745 0
M  V30 4295 H 406.928 -0.199713 7.72542 0
M  V30 4296 H 405.273 -0.186555 6.9475 0
M  V30 4297 H 408.464 -0.415339 4.66254 0
M  V30 4298 H 408.637 -0.322866 6.47195 0
M  V30 4299 N 402.043 -1.548 -0.295768 0
M  V30 4300 C 403.289 -1.74588 -1.03184 0
M  V30 4301 C 403.622 -0.532962 -1.86744 0
M  V30 4302 O 402.897 0.469872 -1.88739 0
M  V30 4303 C 403.18 -3.03791 -1.93347 0
M  V30 4304 C 403.033 -4.35392 -1.12933 0
M  V30 4305 C 404.352 -3.28892 -2.92435 0
M  V30 4306 H 401.471 -0.635221 -0.373715 0
M  V30 4307 H 404.113 -1.87519 -0.30606 0
M  V30 4308 H 402.263 -2.92898 -2.55232 0
M  V30 4309 H 403.935 -4.58211 -0.532943 0
M  V30 4310 H 402.178 -4.31642 -0.432168 0
M  V30 4311 H 402.849 -5.22074 -1.79284 0
M  V30 4312 H 405.325 -3.39429 -2.4068 0
M  V30 4313 H 404.201 -4.20603 -3.52682 0
M  V30 4314 H 404.462 -2.47437 -3.6637 0
M  V30 4315 N 403.521 0.559213 -1.47345 0
M  V30 4316 C 404.767 1.31843 -1.54095 0
M  V30 4317 C 405.1 1.93149 -0.201726 0
M  V30 4318 O 404.375 1.77759 0.789428 0
M  V30 4319 C 404.658 2.43006 -2.65744 0
M  V30 4320 C 404.511 1.86581 -4.09277 0
M  V30 4321 C 405.83 3.44943 -2.73318 0
M  V30 4322 H 402.949 0.478012 -0.560957 0
M  V30 4323 H 405.591 0.625977 -1.79392 0
M  V30 4324 H 403.741 3.02072 -2.44305 0
M  V30 4325 H 405.413 1.31792 -4.42073 0
M  V30 4326 H 403.656 1.17268 -4.17649 0
M  V30 4327 H 404.327 2.66933 -4.83168 0
M  V30 4328 H 406.803 2.95793 -2.92653 0
M  V30 4329 H 405.679 4.20153 -3.53218 0
M  V30 4330 H 405.94 4.03665 -1.80296 0
M  V30 4331 N 404.999 1.35443 0.805782 0
M  V30 4332 C 405.909 1.30546 1.94923 0
M  V30 4333 C 406.925 0.210233 1.72725 0
M  V30 4334 O 408.101 0.43975 1.9654 0
M  V30 4335 C 405.166 1.07782 3.29521 0
M  V30 4336 C 404.227 2.26625 3.64609 0
M  V30 4337 C 403.46 2.04938 4.92784 0
M  V30 4338 O 403.683 1.01624 5.61274 0
M  V30 4339 O 402.617 2.9232 5.26149 0
M  V30 4340 H 406.443 2.26779 2.02002 0
M  V30 4341 H 404.028 1.15823 0.943682 0
M  V30 4342 H 405.91 0.969392 4.10098 0
M  V30 4343 H 404.585 0.146003 3.23371 0
M  V30 4344 H 403.492 2.43033 2.84404 0
M  V30 4345 H 404.825 3.18257 3.75464 0
M  V30 4346 N 406.477 -1.02803 1.19454 0
M  V30 4347 C 407.702 -1.80378 1.02364 0
M  V30 4348 C 408.127 -1.83282 -0.423007 0
M  V30 4349 O 407.485 -1.25945 -1.30413 0
M  V30 4350 C 407.533 -3.23248 1.59821 0
M  V30 4351 O 406.637 -4.04 0.828105 0
M  V30 4352 H 405.978 -0.556799 0.361761 0
M  V30 4353 H 408.508 -1.29385 1.58495 0
M  V30 4354 H 408.518 -3.73994 1.63073 0
M  V30 4355 H 407.193 -3.2045 2.65113 0
M  V30 4356 H 405.77 -3.62635 0.86891 0
M  V30 4357 N 407.956 -0.998596 -1.21925 0
M  V30 4358 C 408.904 -0.546641 -2.26085 0
M  V30 4359 C 409.898 0.405576 -1.64473 0
M  V30 4360 O 411.104 0.277471 -1.77849 0
M  V30 4361 H 407.479 -0.158403 -0.735127 0
M  V30 4362 H 409.45 -1.43645 -2.61551 0
M  V30 4363 C 408.199 0.117388 -3.47502 0
M  V30 4364 H 407.522 -0.606277 -3.95176 0
M  V30 4365 H 408.962 0.396993 -4.22137 0
M  V30 4366 C 407.421 1.35455 -3.0847 0
M  V30 4367 O 407.951 2.44944 -3.18379 0
M  V30 4368 N 406.157 1.23191 -2.63196 0
M  V30 4369 H 405.704 0.341006 -2.55333 0
M  V30 4370 H 405.662 2.06071 -2.37449 0
M  V30 4371 N 409.434 1.37368 -0.772513 0
M  V30 4372 C 410.681 1.99673 -0.337182 0
M  V30 4373 C 411.009 1.61324 1.0865 0
M  V30 4374 O 410.264 0.851377 1.7621 0
M  V30 4375 C 410.563 3.54817 -0.428876 0
M  V30 4376 C 410.229 4.12936 -1.81092 0
M  V30 4377 C 408.891 4.28523 -2.1891 0
M  V30 4378 C 411.243 4.44801 -2.71664 0
M  V30 4379 C 408.571 4.73277 -3.46735 0
M  V30 4380 C 410.923 4.90981 -3.98899 0
M  V30 4381 C 409.587 5.04773 -4.36761 0
M  V30 4382 H 408.857 0.730656 -0.123384 0
M  V30 4383 H 411.504 1.64124 -0.986686 0
M  V30 4384 H 409.809 3.90618 0.304167 0
M  V30 4385 H 411.506 4.00933 -0.0733334 0
M  V30 4386 H 408.096 4.01233 -1.50699 0
M  V30 4387 H 412.28 4.32344 -2.43706 0
M  V30 4388 H 407.536 4.82142 -3.75964 0
M  V30 4389 H 411.71 5.14603 -4.69208 0
M  V30 4390 H 409.337 5.39211 -5.35868 0
M  V30 4391 N 410.912 0.523116 1.48665 0
M  V30 4392 C 412.323 0.0808997 1.86525 0
M  V30 4393 C 412.674 -1.33975 1.43336 0
M  V30 4394 O 411.799 -2.00221 0.821009 0
M  V30 4395 C 412.394 0.140037 3.3851 0
M  V30 4396 C 410.953 -0.246948 3.75589 0
M  V30 4397 C 410.1 0.502845 2.72703 0
M  V30 4398 H 413.051 0.734736 1.40667 0
M  V30 4399 H 413.072 -0.649945 3.74908 0
M  V30 4400 H 412.584 1.17412 3.69914 0
M  V30 4401 H 410.685 -1.28343 3.49798 0
M  V30 4402 H 410.798 0.0878859 4.79019 0
M  V30 4403 H 409.162 -0.0500581 2.54651 0
M  V30 4404 H 409.945 1.53743 3.0695 0
M  V30 4405 N 412.39 -1.55475 0.257931 0
M  V30 4406 C 413.338 -2.23244 -0.653076 0
M  V30 4407 C 414.332 -1.22366 -1.17144 0
M  V30 4408 O 415.538 -1.40347 -1.12706 0
M  V30 4409 H 411.913 -0.716247 -0.229117 0
M  V30 4410 H 413.884 -2.98343 -0.0584788 0
M  V30 4411 C 412.633 -2.95401 -1.83395 0
M  V30 4412 H 411.956 -3.72802 -1.44424 0
M  V30 4413 H 413.396 -3.46165 -2.44838 0
M  V30 4414 C 411.855 -1.99895 -2.71189 0
M  V30 4415 O 412.385 -1.53909 -3.71046 0
M  V30 4416 N 410.591 -1.6676 -2.3799 0
M  V30 4417 H 410.138 -2.04352 -1.56837 0
M  V30 4418 H 410.096 -1.03127 -2.97005 0
M  V30 4419 N 413.868 0.0150385 -1.57593 0
M  V30 4420 C 414.8 1.03912 -2.04291 0
M  V30 4421 C 415.813 1.31618 -0.958146 0
M  V30 4422 O 417.002 1.28859 -1.23522 0
M  V30 4423 C 414.102 2.37749 -2.41514 0
M  V30 4424 C 413.275 2.29198 -3.72541 0
M  V30 4425 C 412.334 3.45598 -3.96797 0
M  V30 4426 O 411.36 3.24461 -4.67668 0
M  V30 4427 N 412.562 4.67945 -3.43523 0
M  V30 4428 H 415.327 0.64099 -2.92765 0
M  V30 4429 H 412.888 0.20272 -1.60626 0
M  V30 4430 H 414.88 3.14364 -2.54867 0
M  V30 4431 H 413.45 2.69357 -1.58637 0
M  V30 4432 H 412.67 1.3759 -3.69408 0
M  V30 4433 H 413.958 2.20642 -4.5847 0
M  V30 4434 H 413.356 4.88017 -2.86104 0
M  V30 4435 H 411.913 5.41878 -3.62232 0
M  V30 4436 N 415.346 1.54954 0.287554 0
M  V30 4437 C 416.256 1.8991 1.37736 0
M  V30 4438 C 417.272 0.794701 1.54792 0
M  V30 4439 O 418.448 1.09243 1.69198 0
M  V30 4440 C 415.513 2.15108 2.71899 0
M  V30 4441 C 414.574 3.38752 2.63715 0
M  V30 4442 C 413.807 3.62739 3.91479 0
M  V30 4443 O 414.03 2.89492 4.91478 0
M  V30 4444 O 412.964 4.56267 3.92561 0
M  V30 4445 H 416.79 2.82652 1.11092 0
M  V30 4446 H 414.375 1.41315 0.484807 0
M  V30 4447 H 416.257 2.32806 3.51254 0
M  V30 4448 H 414.932 1.25551 2.9836 0
M  V30 4449 H 413.839 3.26405 1.82786 0
M  V30 4450 H 415.172 4.28483 2.42205 0
M  V30 4451 N 416.824 -0.551391 1.4764 0
M  V30 4452 C 418.054 -1.33163 1.57959 0
M  V30 4453 C 418.462 -1.87785 0.23094 0
M  V30 4454 O 417.805 -1.65996 -0.786825 0
M  V30 4455 C 417.867 -2.53449 2.54958 0
M  V30 4456 C 417.531 -2.20071 4.00522 0
M  V30 4457 C 418.528 -1.77017 4.88836 0
M  V30 4458 C 416.213 -2.31252 4.45901 0
M  V30 4459 C 418.207 -1.4558 6.20552 0
M  V30 4460 C 415.894 -1.99427 5.77644 0
M  V30 4461 C 416.892 -1.56659 6.64791 0
M  V30 4462 O 416.58 -1.25242 7.94084 0
M  V30 4463 H 416.312 -0.412022 0.535923 0
M  V30 4464 H 418.866 -0.674186 1.9402 0
M  V30 4465 H 417.096 -3.22104 2.13976 0
M  V30 4466 H 418.785 -3.15523 2.55343 0
M  V30 4467 H 419.551 -1.67867 4.55023 0
M  V30 4468 H 415.43 -2.63498 3.78272 0
M  V30 4469 H 418.974 -1.12125 6.8853 0
M  V30 4470 H 414.871 -2.08211 6.10998 0
M  V30 4471 H 415.639 -1.38822 8.06642 0
M  V30 4472 N 418.302 -1.35869 -0.798587 0
M  V30 4473 C 419.53 -1.32722 -1.58722 0
M  V30 4474 C 419.945 0.0935631 -1.88568 0
M  V30 4475 O 419.302 1.04784 -1.49421 0
M  V30 4476 C 419.353 -2.13974 -2.91371 0
M  V30 4477 O 419.074 -3.50514 -2.62815 0
M  V30 4478 C 420.575 -2.18504 -3.85708 0
M  V30 4479 H 417.795 -0.45562 -0.492596 0
M  V30 4480 H 420.339 -1.78837 -0.991843 0
M  V30 4481 H 418.494 -1.71438 -3.47402 0
M  V30 4482 H 418.908 -3.92806 -3.47568 0
M  V30 4483 H 420.382 -2.79732 -4.75872 0
M  V30 4484 H 420.859 -1.18597 -4.22885 0
M  V30 4485 H 421.465 -2.61236 -3.35612 0
M  V30 4486 N 419.78 1.02168 -1.19998 0
M  V30 4487 C 420.71 2.12488 -0.96804 0
M  V30 4488 C 421.691 1.69799 0.101185 0
M  V30 4489 O 422.876 1.94121 -0.0552993 0
M  V30 4490 C 420.006 3.43479 -0.513776 0
M  V30 4491 C 418.96 3.99884 -1.52566 0
M  V30 4492 C 418.286 5.26582 -0.928214 0
M  V30 4493 C 419.586 4.33861 -2.90795 0
M  V30 4494 H 421.28 2.32149 -1.89069 0
M  V30 4495 H 418.826 1.11564 -0.910468 0
M  V30 4496 H 420.779 4.20036 -0.338774 0
M  V30 4497 H 419.503 3.23561 0.444493 0
M  V30 4498 H 418.162 3.25429 -1.68794 0
M  V30 4499 H 417.81 5.02986 0.0378289 0
M  V30 4500 H 417.51 5.65284 -1.60397 0
M  V30 4501 H 419.034 6.05799 -0.764167 0
M  V30 4502 H 420.448 5.01327 -2.78109 0
M  V30 4503 H 418.845 4.83664 -3.55231 0
M  V30 4504 H 419.915 3.42848 -3.42904 0
M  V30 4505 N 421.258 1.00505 1.21394 0
M  V30 4506 C 422.506 0.686415 1.90086 0
M  V30 4507 C 422.827 -0.785264 1.7849 0
M  V30 4508 O 422.097 -1.56387 1.17983 0
M  V30 4509 H 420.677 0.2509 0.703604 0
M  V30 4510 H 423.339 1.27417 1.47482 0
M  V30 4511 H 422.435 0.959621 2.96981 0
M  V30 4512 N 422.737 -1.36956 0.779787 0
M  V30 4513 C 423.962 -2.04283 0.358224 0
M  V30 4514 C 424.387 -1.58422 -1.01411 0
M  V30 4515 O 423.745 -0.748179 -1.65142 0
M  V30 4516 C 423.793 -3.58152 0.419479 0
M  V30 4517 O 422.897 -4.08342 -0.577142 0
M  V30 4518 H 422.238 -0.645967 0.153698 0
M  V30 4519 H 424.768 -1.75108 1.05822 0
M  V30 4520 H 424.778 -4.07041 0.279636 0
M  V30 4521 H 423.453 -3.90886 1.42061 0
M  V30 4522 H 422.03 -3.70751 -0.399755 0
M  V30 4523 N 424.215 -0.530993 -1.48385 0
M  V30 4524 C 425.125 0.23503 -2.3342 0
M  V30 4525 C 426.141 0.93801 -1.46552 0
M  V30 4526 O 427.317 0.912745 -1.7953 0
M  V30 4527 C 424.382 1.26778 -3.22689 0
M  V30 4528 C 423.443 0.575038 -4.25431 0
M  V30 4529 C 422.676 1.55858 -5.10435 0
M  V30 4530 O 422.899 2.79129 -4.97437 0
M  V30 4531 O 421.833 1.09742 -5.91811 0
M  V30 4532 H 425.659 -0.461794 -3.00169 0
M  V30 4533 H 423.244 -0.291903 -1.46521 0
M  V30 4534 H 425.126 1.86457 -3.77904 0
M  V30 4535 H 423.801 1.94699 -2.586 0
M  V30 4536 H 422.708 -0.0622782 -3.74048 0
M  V30 4537 H 424.041 -0.062253 -4.92161 0
M  V30 4538 N 425.693 1.55336 -0.266172 0
M  V30 4539 C 426.94 1.99397 0.353158 0
M  V30 4540 C 427.268 1.15451 1.56529 0
M  V30 4541 O 426.523 0.209974 1.9457 0
M  V30 4542 C 426.822 3.48606 0.787957 0
M  V30 4543 C 426.488 4.49773 -0.318541 0
M  V30 4544 C 425.15 4.77158 -0.62239 0
M  V30 4545 C 427.502 5.10212 -1.06459 0
M  V30 4546 C 424.83 5.62251 -1.67602 0
M  V30 4547 C 427.182 5.96449 -2.10788 0
M  V30 4548 C 425.846 6.22158 -2.41817 0
M  V30 4549 H 425.116 0.729644 0.12923 0
M  V30 4550 H 427.763 1.87732 -0.37802 0
M  V30 4551 H 426.068 3.57701 1.59866 0
M  V30 4552 H 427.765 3.80098 1.27775 0
M  V30 4553 H 424.355 4.2854 -0.0715925 0
M  V30 4554 H 428.539 4.89086 -0.843098 0
M  V30 4555 H 423.795 5.80419 -1.92155 0
M  V30 4556 H 427.969 6.42317 -2.69076 0
M  V30 4557 H 425.596 6.87888 -3.23596 0
M  V30 4558 N 427.171 -0.0066808 1.57599 0
M  V30 4559 C 428.103 -1.02827 2.04839 0
M  V30 4560 C 429.116 -1.31108 0.965113 0
M  V30 4561 O 430.305 -1.28202 1.24203 0
M  V30 4562 C 427.405 -2.36464 2.42771 0
M  V30 4563 C 426.578 -2.27219 3.73751 0
M  V30 4564 C 425.637 -3.43489 3.98625 0
M  V30 4565 O 424.663 -3.21976 4.69382 0
M  V30 4566 N 425.865 -4.66116 3.46 0
M  V30 4567 H 428.63 -0.625455 2.93101 0
M  V30 4568 H 426.191 -0.194198 1.60731 0
M  V30 4569 H 428.183 -3.13008 2.56531 0
M  V30 4570 H 426.753 -2.68512 1.60063 0
M  V30 4571 H 425.973 -1.35629 3.70133 0
M  V30 4572 H 427.261 -2.18208 4.59633 0
M  V30 4573 H 426.659 -4.86493 2.88688 0
M  V30 4574 H 425.216 -5.39949 3.65101 0
M  V30 4575 N 428.649 -1.55105 -0.279332 0
M  V30 4576 C 429.896 -1.75412 -1.01177 0
M  V30 4577 C 430.224 -0.551728 -1.86511 0
M  V30 4578 O 429.479 0.465919 -1.90073 0
M  V30 4579 C 429.778 -3.0086 -1.92919 0
M  V30 4580 C 429.444 -4.33689 -1.23387 0
M  V30 4581 C 428.106 -4.69792 -1.04159 0
M  V30 4582 C 430.458 -5.15941 -0.738562 0
M  V30 4583 C 427.786 -5.85707 -0.341166 0
M  V30 4584 C 430.138 -6.32579 -0.0517636 0
M  V30 4585 C 428.802 -6.67326 0.152292 0
M  V30 4586 H 428.072 -0.641879 -0.370233 0
M  V30 4587 H 430.719 -1.89373 -0.284627 0
M  V30 4588 H 429.024 -2.81773 -2.72234 0
M  V30 4589 H 430.721 -3.13768 -2.49701 0
M  V30 4590 H 427.311 -4.05309 -1.39364 0
M  V30 4591 H 431.495 -4.8853 -0.874764 0
M  V30 4592 H 426.751 -6.11157 -0.172287 0
M  V30 4593 H 430.925 -6.9557 0.339828 0
M  V30 4594 H 428.552 -7.56998 0.697014 0
M  V30 4595 N 430.127 0.543554 -1.4793 0
M  V30 4596 C 431.357 1.32324 -1.58663 0
M  V30 4597 C 431.765 1.8766 -0.240896 0
M  V30 4598 O 431.108 1.66411 0.778011 0
M  V30 4599 C 431.17 2.52094 -2.56299 0
M  V30 4600 C 430.834 2.17944 -4.01683 0
M  V30 4601 C 431.831 1.74422 -4.89768 0
M  V30 4602 C 429.516 2.28884 -4.47121 0
M  V30 4603 C 431.51 1.42287 -6.21316 0
M  V30 4604 C 429.197 1.96361 -5.78693 0
M  V30 4605 C 430.195 1.53132 -6.65612 0
M  V30 4606 O 429.883 1.21029 -7.94737 0
M  V30 4607 H 429.615 0.409174 -0.538101 0
M  V30 4608 H 432.169 0.663887 -1.94375 0
M  V30 4609 H 430.399 3.20965 -2.15681 0
M  V30 4610 H 432.088 3.14165 -2.57012 0
M  V30 4611 H 432.854 1.65452 -4.55907 0
M  V30 4612 H 428.733 2.61488 -3.79664 0
M  V30 4613 H 432.277 1.08472 -6.89115 0
M  V30 4614 H 428.174 2.04967 -6.12094 0
M  V30 4615 H 428.942 1.34543 -8.07366 0
M  V30 4616 N 431.605 1.3629 0.791371 0
M  V30 4617 C 432.535 1.33137 1.91825 0
M  V30 4618 C 433.516 0.203168 1.68882 0
M  V30 4619 O 434.701 0.400509 1.90025 0
M  V30 4620 C 431.831 1.11793 3.28816 0
M  V30 4621 C 430.785 2.21417 3.66277 0
M  V30 4622 C 430.111 1.85218 5.01596 0
M  V30 4623 C 431.411 3.63489 3.75064 0
M  V30 4624 H 433.105 2.2743 1.9472 0
M  V30 4625 H 430.651 1.09479 0.935437 0
M  V30 4626 H 432.604 1.08222 4.07266 0
M  V30 4627 H 431.328 0.139501 3.26302 0
M  V30 4628 H 429.987 2.2411 2.90121 0
M  V30 4629 H 429.635 0.859544 4.95602 0
M  V30 4630 H 429.335 2.58611 5.27631 0
M  V30 4631 H 430.859 1.832 5.82469 0
M  V30 4632 H 432.273 3.63034 4.43711 0
M  V30 4633 H 430.67 4.35771 4.12582 0
M  V30 4634 H 431.74 3.98536 2.76219 0
M  V30 4635 N 433.083 -1.0153 1.20538 0
M  V30 4636 C 434.033 -2.08482 0.922991 0
M  V30 4637 C 435.017 -1.60469 -0.117702 0
M  V30 4638 O 436.209 -1.76772 0.0898465 0
M  V30 4639 C 433.338 -3.39952 0.478312 0
M  V30 4640 C 432.424 -3.94662 1.5525 0
M  V30 4641 N 432.815 -4.22866 2.77521 0
M  V30 4642 C 431.113 -4.22825 1.41897 0
M  V30 4643 C 431.814 -4.67002 3.4682 0
M  V30 4644 N 430.79 -4.69356 2.74237 0
M  V30 4645 H 434.592 -2.28199 1.85209 0
M  V30 4646 H 432.106 -1.19512 1.09957 0
M  V30 4647 H 434.103 -4.16105 0.257408 0
M  V30 4648 H 432.763 -3.21648 -0.444148 0
M  V30 4649 H 433.774 -4.11732 3.1416 0
M  V30 4650 H 430.451 -4.13714 0.561015 0
M  V30 4651 H 431.841 -4.97632 4.51455 0
M  V30 4652 N 434.561 -1.01147 -1.20859 0
M  V30 4653 C 435.508 -0.577354 -2.23462 0
M  V30 4654 C 436.478 0.399922 -1.61214 0
M  V30 4655 O 437.663 0.300515 -1.88419 0
M  V30 4656 C 434.803 0.083372 -3.44999 0
M  V30 4657 C 433.916 -0.937856 -4.21697 0
M  V30 4658 C 433.051 -0.248717 -5.30617 0
M  V30 4659 C 432.09 -1.25705 -5.99053 0
M  V30 4660 N 431.227 -0.594939 -6.99575 0
M  V30 4661 H 436.067 -1.45695 -2.59956 0
M  V30 4662 H 433.604 -0.729428 -1.27741 0
M  V30 4663 H 435.562 0.483535 -4.14388 0
M  V30 4664 H 434.192 0.926645 -3.09214 0
M  V30 4665 H 433.244 -1.45622 -3.51423 0
M  V30 4666 H 434.556 -1.70493 -4.68757 0
M  V30 4667 H 433.71 0.207215 -6.06346 0
M  V30 4668 H 432.449 0.55071 -4.84581 0
M  V30 4669 H 431.454 -1.72343 -5.2209 0
M  V30 4670 H 432.679 -2.05767 -6.47176 0
M  V30 4671 H 430.625 0.184713 -6.5574 0
M  V30 4672 H 430.542 -1.30017 -7.44736 0
M  V30 4673 H 431.81 -0.162427 -7.79331 0
M  V30 4674 N 436.039 1.36541 -0.78704 0
M  V30 4675 C 437.288 1.98552 -0.35494 0
M  V30 4676 C 437.601 1.63171 1.07864 0
M  V30 4677 O 438.807 2.18399 1.61289 0
M  V30 4678 C 437.263 3.55136 -0.583671 0
M  V30 4679 C 436.871 3.99444 -2.02851 0
M  V30 4680 C 438.615 4.2395 -0.215957 0
M  V30 4681 C 436.522 5.48796 -2.20403 0
M  V30 4682 H 435.452 0.742888 -0.128972 0
M  V30 4683 H 438.103 1.5587 -0.968337 0
M  V30 4684 H 436.485 3.95875 0.0994046 0
M  V30 4685 H 437.659 3.6991 -2.74779 0
M  V30 4686 H 435.974 3.43459 -2.35425 0
M  V30 4687 H 438.571 5.33709 -0.325405 0
M  V30 4688 H 438.914 4.07827 0.835646 0
M  V30 4689 H 439.447 3.88565 -0.852175 0
M  V30 4690 H 436.186 5.69864 -3.23937 0
M  V30 4691 H 435.706 5.79964 -1.52977 0
M  V30 4692 H 437.385 6.14986 -2.01002 0
M  V30 4693 N 437.518 0.538854 1.48102 0
M  V30 4694 C 438.428 -0.222648 2.33541 0
M  V30 4695 C 439.444 -0.930225 1.47047 0
M  V30 4696 O 440.62 -0.903211 1.80011 0
M  V30 4697 C 437.685 -1.25064 3.23357 0
M  V30 4698 C 436.746 -0.552469 4.2573 0
M  V30 4699 C 435.979 -1.53149 5.11254 0
M  V30 4700 O 436.202 -2.76487 4.9891 0
M  V30 4701 O 435.136 -1.06602 5.92385 0
M  V30 4702 H 438.962 0.477707 2.99919 0
M  V30 4703 H 436.547 0.299669 1.46364 0
M  V30 4704 H 438.429 -1.8445 3.78888 0
M  V30 4705 H 437.104 -1.93325 2.59629 0
M  V30 4706 H 436.011 0.082114 3.7401 0
M  V30 4707 H 437.344 0.0883526 4.92121 0
M  V30 4708 N 438.996 -1.55193 0.274407 0
M  V30 4709 C 439.906 -2.26164 -0.623473 0
M  V30 4710 C 440.922 -1.28729 -1.17068 0
M  V30 4711 O 442.098 -1.61663 -1.20112 0
M  V30 4712 C 439.163 -2.96833 -1.7914 0
M  V30 4713 C 438.224 -4.09745 -1.28093 0
M  V30 4714 C 437.457 -4.77034 -2.3932 0
M  V30 4715 O 437.68 -4.4353 -3.5866 0
M  V30 4716 O 436.614 -5.64996 -2.07516 0
M  V30 4717 H 440.44 -3.03661 -0.0485661 0
M  V30 4718 H 438.025 -1.49341 0.0418382 0
M  V30 4719 H 439.907 -3.41248 -2.4724 0
M  V30 4720 H 438.582 -2.22253 -2.35341 0
M  V30 4721 H 437.489 -3.69787 -0.566416 0
M  V30 4722 H 438.822 -4.86224 -0.764683 0
M  V30 4723 N 440.474 -0.00167713 -1.576 0
M  V30 4724 C 441.723 0.682021 -1.89819 0
M  V30 4725 C 442.036 1.74844 -0.876871 0
M  V30 4726 O 443.242 2.48688 -1.08934 0
M  V30 4727 C 441.698 1.26425 -3.36964 0
M  V30 4728 C 441.306 0.232568 -4.47396 0
M  V30 4729 C 443.05 1.92604 -3.78291 0
M  V30 4730 C 440.957 0.824882 -5.85619 0
M  V30 4731 H 439.887 0.258499 -0.708304 0
M  V30 4732 H 442.538 -0.0624957 -1.83394 0
M  V30 4733 H 440.92 2.05949 -3.38232 0
M  V30 4734 H 442.094 -0.5382 -4.57646 0
M  V30 4735 H 440.409 -0.32888 -4.15099 0
M  V30 4736 H 443.006 2.37827 -4.78897 0
M  V30 4737 H 443.349 2.75732 -3.11894 0
M  V30 4738 H 443.882 1.19812 -3.79328 0
M  V30 4739 H 440.621 0.0323542 -6.55492 0
M  V30 4740 H 440.141 1.56477 -5.79029 0
M  V30 4741 H 441.82 1.32301 -6.33329 0
M  V30 4742 N 441.952 1.55251 0.271103 0
M  V30 4743 C 442.882 1.9127 1.33933 0
M  V30 4744 C 443.863 0.77478 1.5143 0
M  V30 4745 O 445.048 1.03307 1.64442 0
M  V30 4746 C 442.178 2.18627 2.69851 0
M  V30 4747 C 441.132 3.34442 2.67081 0
M  V30 4748 C 440.458 3.47284 4.06569 0
M  V30 4749 C 441.758 4.70784 2.26185 0
M  V30 4750 H 443.452 2.80744 1.04035 0
M  V30 4751 H 440.998 1.35077 0.499017 0
M  V30 4752 H 442.951 2.42413 3.44694 0
M  V30 4753 H 441.675 1.25955 3.01335 0
M  V30 4754 H 440.334 3.10627 1.94695 0
M  V30 4755 H 439.982 2.52074 4.35279 0
M  V30 4756 H 439.682 4.25152 4.0561 0
M  V30 4757 H 441.206 3.73363 4.83148 0
M  V30 4758 H 442.62 4.94102 2.90751 0
M  V30 4759 H 441.017 5.51582 2.36384 0
M  V30 4760 H 442.087 4.69478 1.21319 0
M  V30 4761 N 443.43 -0.535701 1.48216 0
M  V30 4762 C 444.707 -1.29683 1.46429 0
M  V30 4763 C 445.087 -2.10391 0.172852 0
M  V30 4764 O 444.435 -2.12282 -0.845488 0
M  V30 4765 C 444.645 -2.18313 2.72287 0
M  V30 4766 C 445.993 -2.78639 3.20383 0
M  V30 4767 O 447.017 -2.28604 2.73164 0
M  V30 4768 O 445.876 -3.69636 4.02531 0
M  V30 4769 H 442.97 -0.585026 0.584529 0
M  V30 4770 H 445.516 -0.552827 1.60443 0
M  V30 4771 H 444.288 -1.58421 3.57797 0
M  V30 4772 H 443.911 -2.99971 2.60966 0
M  V30 4773 N 444.908 -1.36708 -0.784132 0
M  V30 4774 C 446.138 -1.34203 -1.57077 0
M  V30 4775 C 446.546 0.0774945 -1.89041 0
M  V30 4776 O 445.889 1.04628 -1.50992 0
M  V30 4777 C 445.951 -2.10351 -2.91535 0
M  V30 4778 C 445.615 -3.59405 -2.82272 0
M  V30 4779 C 446.612 -4.53545 -2.54151 0
M  V30 4780 C 444.297 -4.02362 -3.00683 0
M  V30 4781 C 446.291 -5.8862 -2.44551 0
M  V30 4782 C 443.978 -5.37526 -2.90704 0
M  V30 4783 C 444.976 -6.30468 -2.62677 0
M  V30 4784 O 444.664 -7.63149 -2.52702 0
M  V30 4785 H 444.396 -0.461791 -0.493685 0
M  V30 4786 H 446.95 -1.80475 -0.980712 0
M  V30 4787 H 445.18 -1.5875 -3.52612 0
M  V30 4788 H 446.869 -2.00636 -3.52845 0
M  V30 4789 H 447.635 -4.21669 -2.39625 0
M  V30 4790 H 443.514 -3.30389 -3.21503 0
M  V30 4791 H 447.058 -6.61133 -2.22596 0
M  V30 4792 H 442.955 -5.69008 -3.04795 0
M  V30 4793 H 443.723 -7.73331 -2.68144 0
M  V30 4794 N 446.386 1.0089 -1.21074 0
M  V30 4795 C 447.316 2.1145 -0.990523 0
M  V30 4796 C 448.297 1.69897 0.0831699 0
M  V30 4797 O 449.482 1.94052 -0.0758853 0
M  V30 4798 C 446.612 3.42914 -0.550177 0
M  V30 4799 C 445.566 3.98244 -1.56799 0
M  V30 4800 C 444.892 5.25568 -0.984013 0
M  V30 4801 C 446.192 4.30752 -2.95381 0
M  V30 4802 H 447.886 2.3013 -1.91521 0
M  V30 4803 H 445.432 1.10592 -0.92225 0
M  V30 4804 H 447.385 4.19653 -0.383305 0
M  V30 4805 H 446.109 3.24014 0.41015 0
M  V30 4806 H 444.768 3.23621 -1.72236 0
M  V30 4807 H 444.416 5.02998 -0.0155216 0
M  V30 4808 H 444.116 5.63551 -1.66384 0
M  V30 4809 H 445.64 6.04955 -0.828378 0
M  V30 4810 H 447.054 4.98349 -2.8341 0
M  V30 4811 H 445.451 4.79869 -3.60341 0
M  V30 4812 H 446.521 3.39192 -3.46521 0
M  V30 4813 N 447.864 1.01787 1.20321 0
M  V30 4814 C 449.28 0.732951 1.41774 0
M  V30 4815 C 449.48 -0.686883 1.89431 0
M  V30 4816 O 448.536 -1.45446 2.06402 0
M  V30 4817 C 449.849 1.75973 2.43832 0
M  V30 4818 C 451.397 1.77802 2.57596 0
M  V30 4819 C 451.872 2.7941 3.62897 0
M  V30 4820 N 453.363 2.78157 3.70382 0
M  V30 4821 C 454.098 3.53434 4.51521 0
M  V30 4822 N 453.594 4.38392 5.36455 0
M  V30 4823 N 455.387 3.42026 4.46066 0
M  V30 4824 H 447.538 1.93447 0.877035 0
M  V30 4825 H 449.801 0.835712 0.447536 0
M  V30 4826 H 449.507 2.77699 2.15815 0
M  V30 4827 H 449.381 1.57292 3.4284 0
M  V30 4828 H 451.768 0.767602 2.84942 0
M  V30 4829 H 451.849 2.00557 1.58779 0
M  V30 4830 H 451.493 3.80616 3.36295 0
M  V30 4831 H 451.423 2.53916 4.61339 0
M  V30 4832 H 453.914 2.16531 3.09714 0
M  V30 4833 H 454.227 4.92596 5.95457 0
M  V30 4834 H 452.572 4.4247 5.35953 0
M  V30 4835 H 455.763 2.75075 3.78749 0
M  V30 4836 H 455.936 4.00946 5.09064 0
M  V30 4837 N 449.342 -1.36122 0.79427 0
M  V30 4838 C 450.758 -1.5232 0.476525 0
M  V30 4839 C 450.958 -1.74685 -1.00436 0
M  V30 4840 O 450.014 -1.78115 -1.78973 0
M  V30 4841 C 451.327 -2.70607 1.31119 0
M  V30 4842 C 452.875 -2.8448 1.30537 0
M  V30 4843 C 453.35 -4.05778 2.12387 0
M  V30 4844 N 454.841 -4.12933 2.09859 0
M  V30 4845 C 455.576 -5.05876 2.69957 0
M  V30 4846 N 455.072 -6.04232 3.38934 0
M  V30 4847 N 456.865 -4.98528 2.59665 0
M  V30 4848 H 449.016 -1.1986 1.75349 0
M  V30 4849 H 451.279 -0.585418 0.745647 0
M  V30 4850 H 450.985 -2.60619 2.36158 0
M  V30 4851 H 450.859 -3.64888 0.955843 0
M  V30 4852 H 453.246 -2.93927 0.262876 0
M  V30 4853 H 453.327 -1.91093 1.70051 0
M  V30 4854 H 452.971 -3.97092 3.1667 0
M  V30 4855 H 452.901 -4.98323 1.70242 0
M  V30 4856 H 455.392 -3.42515 1.59662 0
M  V30 4857 H 455.705 -6.71724 3.82109 0
M  V30 4858 H 454.05 -6.04443 3.43036 0
M  V30 4859 H 457.241 -4.20641 2.05375 0
M  V30 4860 H 457.414 -5.70773 3.06793 0
M  V30 4861 N 450.82 -0.546701 -1.47814 0
M  V30 4862 C 451.783 0.196287 -2.28358 0
M  V30 4863 C 452.783 0.852437 -1.36346 0
M  V30 4864 O 453.973 0.709913 -1.59078 0
M  V30 4865 C 451.105 1.28579 -3.15722 0
M  V30 4866 H 452.298 -0.511086 -2.95513 0
M  V30 4867 H 449.851 -0.303248 -1.5333 0
M  V30 4868 H 450.586 2.0259 -2.53235 0
M  V30 4869 H 450.371 0.820229 -3.83425 0
M  V30 4870 H 451.861 1.80793 -3.76435 0
M  V30 4871 N 452.299 1.55045 -0.282633 0
M  V30 4872 C 453.229 2.2579 0.595066 0
M  V30 4873 C 454.21 1.25074 1.15284 0
M  V30 4874 O 455.395 1.5381 1.18559 0
M  V30 4875 C 452.525 2.98472 1.77572 0
M  V30 4876 C 451.479 4.0618 1.34914 0
M  V30 4877 C 450.805 4.66477 2.6135 0
M  V30 4878 C 452.105 5.1996 0.493821 0
M  V30 4879 H 453.799 2.994 0.00505653 0
M  V30 4880 H 451.345 1.44 0.000992001 0
M  V30 4881 H 453.298 3.46677 2.39568 0
M  V30 4882 H 452.022 2.2241 2.39168 0
M  V30 4883 H 450.681 3.58797 0.752338 0
M  V30 4884 H 450.329 3.87074 3.2122 0
M  V30 4885 H 450.029 5.39207 2.33516 0
M  V30 4886 H 451.553 5.17435 3.24181 0
M  V30 4887 H 452.967 5.64172 1.01898 0
M  V30 4888 H 451.364 5.99299 0.310047 0
M  V30 4889 H 452.434 4.82462 -0.485593 0
M  V30 4890 N 453.777 0.010035 1.57597 0
M  V30 4891 C 454.725 -0.996272 2.10184 0
M  V30 4892 C 455.719 -1.34942 1.02406 0
M  V30 4893 O 456.925 -1.33389 1.20861 0
M  V30 4894 H 453.3 -0.338982 0.671264 0
M  V30 4895 H 455.271 -0.527272 2.93705 0
M  V30 4896 C 454.02 -2.27599 2.62857 0
M  V30 4897 H 453.343 -2.01295 3.45428 0
M  V30 4898 H 454.783 -2.96265 3.0332 0
M  V30 4899 C 453.242 -2.99269 1.54725 0
M  V30 4900 O 453.772 -3.90644 0.93597 0
M  V30 4901 N 451.978 -2.61269 1.27228 0
M  V30 4902 H 451.525 -1.87043 1.77123 0
M  V30 4903 H 451.483 -3.09534 0.550999 0
M  V30 4904 O 455.294 -1.6096 -0.132018 0
M  V30 4905 H 455.985 -1.77966 -0.764703 0
M  V30 END ATOM
M  V30 BEGIN BOND
M  V30 END BOND
M  V30 END CTAB
M  END
$$$$
