drugbank_target|P0DM80 Virulence sensor histidine kinase PhoQ (DB03758)
 OpenBabel12092120513D

  0  0  0     0  0            999 V3000
M  V30 BEGIN CTAB
M  V30 COUNTS 7851 7929 0 0 0
M  V30 BEGIN ATOM
M  V30 1 H -0.908 1.98254 -0.117106 0
M  V30 2 N 0 1.576 0 0
M  V30 3 C 0.933 2.03868 1.02534 0
M  V30 4 C 1.911 0.928543 1.3348 0
M  V30 5 O 3.095 1.19667 1.45644 0
M  V30 6 C 0.222 2.43627 2.35294 0
M  V30 7 C -0.732 3.65373 2.2001 0
M  V30 8 S 0.101 5.13292 1.52614 0
M  V30 9 C 1.257 5.56322 2.86805 0
M  V30 10 H 1.49 2.90518 0.631377 0
M  V30 11 H -0.977 1.52953 0.210867 0
M  V30 12 H 0.981 2.67203 3.11629 0
M  V30 13 H -0.358 1.57376 2.7183 0
M  V30 14 H -1.165 3.90944 3.18086 0
M  V30 15 H -1.563 3.418 1.51819 0
M  V30 16 H 0.729 5.58782 3.83104 0
M  V30 17 H 1.672 6.56266 2.65933 0
M  V30 18 H 2.08 4.83886 2.90714 0
M  V30 19 N 1.4781 -0.272755 1.55222 0
M  V30 20 C 2.4261 -1.35705 1.88909 0
M  V30 21 C 3.4201 -1.5112 0.765456 0
M  V30 22 O 4.6261 -1.52901 0.949802 0
M  V30 23 H 1.0011 -0.453868 0.59959 0
M  V30 24 H 2.9721 -1.04544 2.79487 0
M  V30 25 C 1.7211 -2.71049 2.17779 0
M  V30 26 H 1.0441 -2.59979 3.03728 0
M  V30 27 H 2.4841 -3.45858 2.45272 0
M  V30 28 C 0.9431 -3.22165 0.985473 0
M  V30 29 O 1.4731 -4.01096 0.220233 0
M  V30 30 N -0.3209 -2.7985 0.783108 0
M  V30 31 H -0.7739 -2.15775 1.40708 0
M  V30 32 H -0.8159 -3.14397 -0.0130392 0
M  V30 33 N 2.9562 -1.48159 -0.537278 0
M  V30 34 C 3.9032 -1.62138 -1.64256 0
M  V30 35 C 4.8732 -0.463668 -1.59497 0
M  V30 36 O 6.0582 -0.686241 -1.78032 0
M  V30 37 C 3.1982 -1.66028 -3.02537 0
M  V30 38 C 2.3112 -2.92855 -3.17585 0
M  V30 39 C 1.4462 -2.87952 -4.46382 0
M  V30 40 C 0.4852 -4.09516 -4.54932 0
M  V30 41 N -0.3778 -4.02733 -5.75109 0
M  V30 42 H 4.4622 -2.56529 -1.51647 0
M  V30 43 H 1.9992 -1.27224 -0.738414 0
M  V30 44 H 3.9572 -1.66265 -3.82638 0
M  V30 45 H 2.5872 -0.751331 -3.13934 0
M  V30 46 H 1.6392 -3.02395 -2.30784 0
M  V30 47 H 2.9512 -3.82822 -3.19764 0
M  V30 48 H 2.1052 -2.8655 -5.34765 0
M  V30 49 H 0.8442 -1.95702 -4.46712 0
M  V30 50 H -0.1508 -4.11201 -3.64957 0
M  V30 51 H 1.0742 -5.02917 -4.56346 0
M  V30 52 H -0.9798 -3.13299 -5.76351 0
M  V30 53 H -1.0628 -4.86397 -5.78752 0
M  V30 54 H 0.2052 -4.05379 -6.65799 0
M  V30 55 N 4.4343 0.785586 -1.36625 0
M  V30 56 C 5.6813 1.54362 -1.31067 0
M  V30 57 C 6.0093 1.94195 0.10893 0
M  V30 58 O 5.2643 1.63262 1.07908 0
M  V30 59 C 5.5633 2.83007 -2.1827 0
M  V30 60 C 5.2293 2.62294 -3.6676 0
M  V30 61 C 3.8913 2.56353 -4.0723 0
M  V30 62 C 6.2433 2.43371 -4.6089 0
M  V30 63 C 3.5713 2.29461 -5.39967 0
M  V30 64 C 5.9233 2.18005 -5.93849 0
M  V30 65 C 4.5873 2.105 -6.3344 0
M  V30 66 H 3.8573 0.564851 -0.479609 0
M  V30 67 H 6.5043 0.906028 -1.68711 0
M  V30 68 H 4.8093 3.51253 -1.73576 0
M  V30 69 H 6.5063 3.40817 -2.11292 0
M  V30 70 H 3.0963 2.67774 -3.34656 0
M  V30 71 H 7.2803 2.46959 -4.30494 0
M  V30 72 H 2.5363 2.22135 -5.69619 0
M  V30 73 H 6.7103 2.02359 -6.66351 0
M  V30 74 H 4.3373 1.89425 -7.36222 0
M  V30 75 N 5.9124 1.20967 1.01018 0
M  V30 76 C 6.8754 0.965918 2.07853 0
M  V30 77 C 7.8754 -0.0610545 1.60684 0
M  V30 78 O 9.0654 0.175681 1.73312 0
M  V30 79 C 6.1974 0.455513 3.37843 0
M  V30 80 H 7.3904 1.91365 2.3091 0
M  V30 81 H 4.9434 1.02594 1.17916 0
M  V30 82 H 5.6784 -0.497381 3.20463 0
M  V30 83 H 5.4634 1.19622 3.73407 0
M  V30 84 H 6.9534 0.304667 4.16487 0
M  V30 85 N 7.3905 -1.2043 1.01659 0
M  V30 86 C 8.8065 -1.41852 0.731442 0
M  V30 87 C 9.0065 -1.89358 -0.688898 0
M  V30 88 O 8.0625 -2.06247 -1.45666 0
M  V30 89 C 9.3755 -2.44019 1.75714 0
M  V30 90 C 10.9235 -2.57785 1.77527 0
M  V30 91 C 11.3985 -3.63194 2.79023 0
M  V30 92 N 12.8895 -3.70678 2.77763 0
M  V30 93 C 13.6245 -4.51897 3.52954 0
M  V30 94 N 13.1205 -5.36921 4.37821 0
M  V30 95 N 14.9135 -4.4643 3.41551 0
M  V30 96 H 7.0645 -0.879093 1.93354 0
M  V30 97 H 9.3275 -0.448425 0.835236 0
M  V30 98 H 9.0335 -2.1611 2.77469 0
M  V30 99 H 8.9075 -3.43007 1.56927 0
M  V30 100 H 11.2945 -2.85023 0.764569 0
M  V30 101 H 11.3755 -1.58992 2.00387 0
M  V30 102 H 11.0195 -3.36699 3.80258 0
M  V30 103 H 10.9495 -4.61609 2.53425 0
M  V30 104 H 13.4405 -3.09944 2.16201 0
M  V30 105 H 13.7535 -5.95981 4.91962 0
M  V30 106 H 12.0985 -5.36424 4.41899 0
M  V30 107 H 15.2895 -3.79042 2.74672 0
M  V30 108 H 15.4625 -5.09491 4.00404 0
M  V30 109 N 8.8686 -0.792821 -1.36206 0
M  V30 110 C 9.8186 -0.166598 -2.27391 0
M  V30 111 C 10.8026 0.651479 -1.47121 0
M  V30 112 O 11.9946 0.510994 -1.69463 0
M  V30 113 C 9.1236 0.695033 -3.36191 0
M  V30 114 C 8.2096 -0.132019 -4.23894 0
M  V30 115 N 8.6006 -1.18822 -4.91645 0
M  V30 116 C 6.8986 0.0885952 -4.45912 0
M  V30 117 C 7.5996 -1.69198 -5.56549 0
M  V30 118 N 6.5756 -1.00065 -5.34311 0
M  V30 119 H 10.3776 -0.974947 -2.77258 0
M  V30 120 H 7.8916 -0.632616 -1.49572 0
M  V30 121 H 9.8886 1.1596 -4.00448 0
M  V30 122 H 8.5486 1.50189 -2.87877 0
M  V30 123 H 9.5596 -1.57069 -4.93507 0
M  V30 124 H 6.2366 0.865688 -4.08426 0
M  V30 125 H 7.6266 -2.57395 -6.20643 0
M  V30 126 N 10.3467 1.47872 -0.545128 0
M  V30 127 C 11.5937 2.02493 -0.0165858 0
M  V30 128 C 11.9217 1.42073 1.32836 0
M  V30 129 O 11.1767 0.561459 1.87473 0
M  V30 130 C 11.4757 3.57131 0.13867 0
M  V30 131 C 11.1417 4.36411 -1.13384 0
M  V30 132 C 9.8037 4.57792 -1.48256 0
M  V30 133 C 12.1557 4.82223 -1.97764 0
M  V30 134 C 9.4837 5.22233 -2.67376 0
M  V30 135 C 11.8357 5.47977 -3.16076 0
M  V30 136 C 10.4997 5.67593 -3.51275 0
M  V30 137 H 9.7697 0.740975 -0.00606918 0
M  V30 138 H 12.4167 1.77683 -0.714207 0
M  V30 139 H 10.7217 3.80865 0.919172 0
M  V30 140 H 12.4187 3.97031 0.562782 0
M  V30 141 H 9.0087 4.2004 -0.852297 0
M  V30 142 H 13.1927 4.65493 -1.72132 0
M  V30 143 H 8.4487 5.35616 -2.94831 0
M  V30 144 H 12.6227 5.8244 -3.81755 0
M  V30 145 H 10.2497 6.17298 -4.43675 0
M  V30 146 N 11.8248 0.280983 1.55075 0
M  V30 147 C 12.7548 -0.597469 2.25727 0
M  V30 148 C 13.7358 -1.15417 1.24952 0
M  V30 149 O 14.9208 -1.18722 1.53684 0
M  V30 150 C 12.0508 -1.7789 2.98283 0
M  V30 151 C 11.0048 -1.35347 4.06036 0
M  V30 152 C 10.3308 -2.61846 4.66198 0
M  V30 153 C 11.6308 -0.499354 5.19907 0
M  V30 154 H 13.3248 -0.00824265 2.99399 0
M  V30 155 H 10.8708 -0.0025244 1.44 0
M  V30 156 H 12.8238 -2.39937 3.46422 0
M  V30 157 H 11.5478 -2.39405 2.22155 0
M  V30 158 H 10.2068 -0.756156 3.58717 0
M  V30 159 H 9.8548 -3.21632 3.86732 0
M  V30 160 H 9.5548 -2.3409 5.38958 0
M  V30 161 H 11.0788 -3.24732 5.1709 0
M  V30 162 H 12.4928 -1.02498 5.64063 0
M  V30 163 H 10.8898 -0.316424 5.99265 0
M  V30 164 H 11.9598 0.480459 4.82514 0
M  V30 165 N 13.3029 -1.57598 0.00835791 0
M  V30 166 C 14.7139 -1.7892 -0.53333 0
M  V30 167 C 15.0649 -0.916609 -1.73473 0
M  V30 168 O 14.1899 -0.121336 -2.1606 0
M  V30 169 C 14.7849 -3.24488 -0.974313 0
M  V30 170 C 13.3439 -3.46878 -1.46125 0
M  V30 171 C 12.4909 -2.74157 -0.416302 0
M  V30 172 H 15.4419 -1.56958 0.234495 0
M  V30 173 H 15.4629 -3.3306 -1.83988 0
M  V30 174 H 14.9749 -3.87972 -0.099718 0
M  V30 175 H 13.0759 -2.8862 -2.35646 0
M  V30 176 H 13.1889 -4.55572 -1.48295 0
M  V30 177 H 11.5529 -2.39022 -0.87981 0
M  V30 178 H 12.3359 -3.40345 0.44947 0
M  V30 179 N 14.781 0.264519 -1.55364 0
M  V30 180 C 15.711 1.33121 -1.91836 0
M  V30 181 C 16.692 1.51101 -0.781192 0
M  V30 182 O 17.877 1.64003 -1.04003 0
M  V30 183 C 15.007 2.68921 -2.19769 0
M  V30 184 C 13.961 2.65661 -3.35571 0
M  V30 185 C 13.287 4.05093 -3.49004 0
M  V30 186 C 14.587 2.24187 -4.71739 0
M  V30 187 H 16.281 1.02844 -2.81182 0
M  V30 188 H 13.827 0.493286 -1.35287 0
M  V30 189 H 15.78 3.43663 -2.43872 0
M  V30 190 H 14.504 3.00799 -1.27231 0
M  V30 191 H 13.163 1.93377 -3.1145 0
M  V30 192 H 12.811 4.34206 -2.53917 0
M  V30 193 H 12.511 4.03804 -4.26868 0
M  V30 194 H 14.035 4.81561 -3.75408 0
M  V30 195 H 15.449 2.88654 -4.9533 0
M  V30 196 H 13.846 2.34044 -5.52579 0
M  V30 197 H 14.916 1.19327 -4.69988 0
M  V30 198 N 16.2591 1.48442 0.529413 0
M  V30 199 C 17.4841 1.60406 1.31471 0
M  V30 200 C 17.9091 0.264738 1.86228 0
M  V30 201 O 17.2671 -0.763668 1.64432 0
M  V30 202 C 17.3151 2.65419 2.44101 0
M  V30 203 O 16.4191 2.22618 3.47153 0
M  V30 204 H 15.7601 0.537863 0.389357 0
M  V30 205 H 18.2901 1.94432 0.636965 0
M  V30 206 H 18.3001 2.86709 2.90279 0
M  V30 207 H 16.9751 3.62652 2.03608 0
M  V30 208 H 15.5521 2.11543 3.0709 0
M  V30 209 N 17.7372 -0.778329 1.37039 0
M  V30 210 C 18.6672 -1.90546 1.34962 0
M  V30 211 C 19.6482 -1.68681 0.219274 0
M  V30 212 O 20.8332 -1.89634 0.418624 0
M  V30 213 C 17.9632 -3.27734 1.14925 0
M  V30 214 C 16.9172 -3.64147 2.24902 0
M  V30 215 C 16.2432 -4.99806 1.89996 0
M  V30 216 C 17.5432 -3.71579 3.67051 0
M  V30 217 H 19.2372 -1.92541 2.29277 0
M  V30 218 H 16.7832 -0.924948 1.10366 0
M  V30 219 H 18.7362 -4.06215 1.12104 0
M  V30 220 H 17.4602 -3.26154 0.170631 0
M  V30 221 H 16.1192 -2.8797 2.26868 0
M  V30 222 H 15.7672 -4.94759 0.906796 0
M  V30 223 H 15.4672 -5.25139 2.63634 0
M  V30 224 H 16.9912 -5.80694 1.88749 0
M  V30 225 H 18.4052 -4.40227 3.67251 0
M  V30 226 H 16.8022 -4.08405 4.39688 0
M  V30 227 H 17.8722 -2.72404 4.01154 0
M  V30 228 N 19.2153 -1.21501 -1.00376 0
M  V30 229 C 20.6313 -0.972629 -1.26539 0
M  V30 230 C 20.8313 0.340257 -1.98606 0
M  V30 231 O 19.8873 1.06561 -2.28913 0
M  V30 232 C 21.2003 -2.16404 -2.08781 0
M  V30 233 C 22.7483 -2.20643 -2.22004 0
M  V30 234 C 23.2233 -3.39306 -3.07629 0
M  V30 235 N 24.7143 -3.39401 -3.15217 0
M  V30 236 C 25.4493 -4.27867 -3.81729 0
M  V30 237 N 24.9453 -5.26533 -4.5026 0
M  V30 238 N 26.7383 -4.15672 -3.78382 0
M  V30 239 H 18.8893 -2.05929 -0.520281 0
M  V30 240 H 21.1523 -0.901803 -0.292328 0
M  V30 241 H 20.8583 -3.11554 -1.63178 0
M  V30 242 H 20.7323 -2.15567 -3.09533 0
M  V30 243 H 23.1193 -1.26048 -2.66825 0
M  V30 244 H 23.2003 -2.25523 -1.20718 0
M  V30 245 H 22.8443 -4.34195 -2.63509 0
M  V30 246 H 22.7743 -3.31665 -4.09031 0
M  V30 247 H 25.2653 -2.67997 -2.66432 0
M  V30 248 H 25.5783 -5.90337 -4.98721 0
M  V30 249 H 23.9233 -5.30457 -4.49044 0
M  V30 250 H 27.1143 -3.3785 -3.23998 0
M  V30 251 H 27.2873 -4.84825 -4.2994 0
M  V30 252 N 20.6934 1.19889 -1.02296 0
M  V30 253 C 21.9394 1.89701 -0.717033 0
M  V30 254 C 22.2724 1.7905 0.751989 0
M  V30 255 O 21.5474 1.17891 1.547 0
M  V30 256 C 21.8304 3.40858 -1.16136 0
M  V30 257 C 21.6834 3.60411 -2.69117 0
M  V30 258 C 23.0024 4.33876 -0.737549 0
M  V30 259 H 20.1214 0.688874 -0.261957 0
M  V30 260 H 22.7634 1.41154 -1.27183 0
M  V30 261 H 20.9134 3.82335 -0.689342 0
M  V30 262 H 22.5854 3.28145 -3.2422 0
M  V30 263 H 20.8284 3.03665 -3.0979 0
M  V30 264 H 21.4994 4.66396 -2.95261 0
M  V30 265 H 23.9754 4.00081 -1.14344 0
M  V30 266 H 22.8514 5.38242 -1.0764 0
M  V30 267 H 23.1124 4.40628 0.360436 0
M  V30 268 N 22.1715 0.800033 1.35784 0
M  V30 269 C 23.5875 0.482977 1.52117 0
M  V30 270 C 23.7875 -0.996948 1.75109 0
M  V30 271 O 22.8435 -1.78216 1.78872 0
M  V30 272 C 24.1565 1.32264 2.70049 0
M  V30 273 C 25.7045 1.31742 2.83924 0
M  V30 274 C 26.1795 2.14106 4.04874 0
M  V30 275 N 27.6705 2.11607 4.12039 0
M  V30 276 C 28.4055 2.72099 5.04727 0
M  V30 277 N 27.9015 3.41492 6.02789 0
M  V30 278 N 29.6945 2.61776 4.97423 0
M  V30 279 H 21.8455 1.75856 1.19115 0
M  V30 280 H 24.1085 0.748122 0.582252 0
M  V30 281 H 23.8145 2.37261 2.59616 0
M  V30 282 H 23.6885 0.971303 3.6448 0
M  V30 283 H 26.0755 0.275333 2.93813 0
M  V30 284 H 26.1565 1.70859 1.9037 0
M  V30 285 H 25.8005 3.18351 3.95746 0
M  V30 286 H 25.7305 1.72353 4.97596 0
M  V30 287 H 28.2215 1.61112 3.41835 0
M  V30 288 H 28.5345 3.84953 6.70098 0
M  V30 289 H 26.8795 3.45596 6.02983 0
M  V30 290 H 30.0705 2.07157 4.19766 0
M  V30 291 H 30.2435 3.0921 5.69468 0
M  V30 292 N 23.6496 -1.47581 0.552962 0
M  V30 293 C 24.8966 -2.02482 0.0273243 0
M  V30 294 C 25.2246 -1.42776 -1.32081 0
M  V30 295 O 24.4796 -0.571393 -1.87173 0
M  V30 296 C 24.7786 -3.57199 -0.119728 0
M  V30 297 C 24.4446 -4.35804 1.15697 0
M  V30 298 C 23.1066 -4.57 1.50681 0
M  V30 299 C 25.4586 -4.81167 2.00319 0
M  V30 300 C 22.7866 -5.20807 2.70142 0
M  V30 301 C 25.1386 -5.46293 3.18978 0
M  V30 302 C 23.8026 -5.65722 3.54281 0
M  V30 303 H 23.0726 -0.740933 0.00999866 0
M  V30 304 H 25.7196 -1.77302 0.72362 0
M  V30 305 H 24.0246 -3.81348 -0.89896 0
M  V30 306 H 25.7216 -3.97324 -0.541718 0
M  V30 307 H 22.3116 -4.19582 0.874561 0
M  V30 308 H 26.4956 -4.64574 1.74599 0
M  V30 309 H 21.7516 -5.34045 2.97668 0
M  V30 310 H 25.9256 -5.80407 3.84838 0
M  V30 311 H 23.5526 -6.14936 4.46942 0
M  V30 312 N 25.1277 -0.289203 -1.54924 0
M  V30 313 C 26.0577 0.58549 -2.2604 0
M  V30 314 C 27.0387 1.14753 -1.25562 0
M  V30 315 O 28.2237 1.17906 -1.54311 0
M  V30 316 C 25.3537 1.76305 -2.99222 0
M  V30 317 C 24.3077 1.33191 -4.06748 0
M  V30 318 C 23.6337 2.5937 -4.6758 0
M  V30 319 C 24.9337 0.471775 -5.20165 0
M  V30 320 H 26.6277 -0.00763532 -2.99399 0
M  V30 321 H 24.1737 -0.00511229 -1.43999 0
M  V30 322 H 26.1267 2.38097 -3.47689 0
M  V30 323 H 24.8507 2.38223 -2.23422 0
M  V30 324 H 23.5097 0.737121 -3.59113 0
M  V30 325 H 23.1577 3.19576 -3.88433 0
M  V30 326 H 22.8577 2.31228 -5.40192 0
M  V30 327 H 24.3817 3.21985 -5.18804 0
M  V30 328 H 25.7957 0.995056 -5.64599 0
M  V30 329 H 24.1927 0.284639 -5.99425 0
M  V30 330 H 25.2627 -0.506041 -4.82252 0
M  V30 331 N 26.6058 1.57591 -0.0167156 0
M  V30 332 C 27.5358 2.12496 0.967858 0
M  V30 333 C 28.5168 1.03807 1.34752 0
M  V30 334 O 29.7018 1.31577 1.42833 0
M  V30 335 C 26.8318 2.64194 2.25431 0
M  V30 336 C 25.7858 3.77559 2.01576 0
M  V30 337 C 25.1118 4.15636 3.36379 0
M  V30 338 C 26.4118 5.04151 1.36489 0
M  V30 339 H 28.1058 2.95013 0.510643 0
M  V30 340 H 25.6518 1.41915 0.244181 0
M  V30 341 H 27.6048 3.01236 2.94678 0
M  V30 342 H 26.3288 1.78821 2.73296 0
M  V30 343 H 24.9878 3.40937 1.34751 0
M  V30 344 H 24.6358 3.27263 3.81979 0
M  V30 345 H 24.3358 4.92022 3.21229 0
M  V30 346 H 25.8598 4.5525 4.06915 0
M  V30 347 H 27.2738 5.38857 1.95718 0
M  V30 348 H 25.6708 5.85453 1.31776 0
M  V30 349 H 26.7408 4.83733 0.336219 0
M  V30 350 N 28.0839 -0.256276 1.55502 0
M  V30 351 C 29.0469 -1.30047 1.88734 0
M  V30 352 C 30.0469 -1.4154 0.763086 0
M  V30 353 O 31.2369 -1.40403 1.03115 0
M  V30 354 C 28.3689 -2.67953 2.10747 0
M  V30 355 H 29.5619 -1.01802 2.82093 0
M  V30 356 H 27.1149 -0.495134 1.4825 0
M  V30 357 H 27.8499 -3.01351 1.19825 0
M  V30 358 H 27.6349 -2.60993 2.92617 0
M  V30 359 H 29.1249 -3.43368 2.37673 0
M  V30 360 N 29.562 -1.4872 -0.521534 0
M  V30 361 C 30.79 -1.60843 -1.30142 0
M  V30 362 C 31.205 -0.271897 -1.86832 0
M  V30 363 O 30.562 0.739969 -1.66825 0
M  V30 364 C 30.613 -2.66155 -2.4463 0
M  V30 365 O 30.334 -3.94623 -1.90275 0
M  V30 366 C 31.835 -2.88795 -3.36322 0
M  V30 367 H 29.055 -0.542075 -0.395468 0
M  V30 368 H 31.599 -1.94609 -0.628285 0
M  V30 369 H 29.754 -2.35224 -3.07812 0
M  V30 370 H 30.168 -4.52468 -2.65279 0
M  V30 371 H 31.642 -3.66264 -4.12983 0
M  V30 372 H 32.119 -1.97934 -3.9207 0
M  V30 373 H 32.725 -3.21063 -2.78924 0
M  V30 374 N 31.0401 0.771051 -1.3745 0
M  V30 375 C 32.0031 1.86598 -1.33093 0
M  V30 376 C 33.0031 1.59076 -0.234845 0
M  V30 377 O 34.1931 1.67145 -0.490732 0
M  V30 378 C 31.3251 3.23747 -1.06773 0
M  V30 379 H 32.5181 1.91873 -2.30488 0
M  V30 380 H 30.0711 0.970876 -1.2249 0
M  V30 381 H 30.8061 3.24148 -0.099129 0
M  V30 382 H 30.5911 3.45115 -1.86112 0
M  V30 383 H 32.0811 4.03824 -1.06377 0
M  V30 384 N 32.5182 1.22032 0.997298 0
M  V30 385 C 33.7662 1.04016 1.73278 0
M  V30 386 C 34.0872 -0.426255 1.90284 0
M  V30 387 O 33.3572 -1.30694 1.45931 0
M  V30 388 H 31.9372 0.381897 0.642 0
M  V30 389 H 34.5992 1.5347 1.20137 0
M  V30 390 H 33.6952 1.51441 2.72896 0
M  V30 391 N 33.9963 -1.19345 1.0293 0
M  V30 392 C 35.2423 -1.89318 0.727083 0
M  V30 393 C 35.5753 -1.79446 -0.742483 0
M  V30 394 O 34.8503 -1.1871 -1.54072 0
M  V30 395 C 35.1333 -3.40238 1.17942 0
M  V30 396 C 34.9863 -3.58979 2.71024 0
M  V30 397 C 36.3053 -4.33479 0.760548 0
M  V30 398 H 33.4243 -0.687475 0.265606 0
M  V30 399 H 36.0663 -1.40477 1.2793 0
M  V30 400 H 34.2163 -3.81964 0.709608 0
M  V30 401 H 35.8883 -3.26421 3.25955 0
M  V30 402 H 34.1313 -3.02018 3.11396 0
M  V30 403 H 34.8023 -4.64823 2.9773 0
M  V30 404 H 37.2783 -3.99469 1.16464 0
M  V30 405 H 36.1543 -5.37664 1.10493 0
M  V30 406 H 36.4153 -4.40813 -0.337063 0
M  V30 407 N 35.4744 -0.807222 -1.35358 0
M  V30 408 C 36.7204 -0.388463 -1.99045 0
M  V30 409 C 37.0534 1.04184 -1.63888 0
M  V30 410 O 36.3284 1.72292 -0.902535 0
M  V30 411 C 36.6114 -0.572783 -3.55515 0
M  V30 412 C 36.4644 -2.04807 -4.00468 0
M  V30 413 C 37.7834 0.00114064 -4.401 0
M  V30 414 H 34.9024 -0.142619 -0.723069 0
M  V30 415 H 37.5444 -1.01687 -1.60498 0
M  V30 416 H 35.6944 -0.0378425 -3.88482 0
M  V30 417 H 37.3664 -2.64544 -3.77908 0
M  V30 418 H 35.6094 -2.54427 -3.51353 0
M  V30 419 H 36.2804 -2.12792 -5.09337 0
M  V30 420 H 38.7564 -0.455716 -4.13597 0
M  V30 421 H 37.6324 -0.157737 -5.48673 0
M  V30 422 H 37.8934 1.09488 -4.28328 0
M  V30 423 N 36.9525 1.47285 -0.560781 0
M  V30 424 C 37.8825 2.32857 0.173105 0
M  V30 425 C 38.8635 1.44009 0.905281 0
M  V30 426 O 40.0485 1.7286 0.885046 0
M  V30 427 C 37.1785 3.25861 1.20133 0
M  V30 428 C 36.1325 4.23978 0.585388 0
M  V30 429 C 35.4585 5.06332 1.7185 0
M  V30 430 C 36.7585 5.20242 -0.463178 0
M  V30 431 H 38.4525 2.94466 -0.541307 0
M  V30 432 H 35.9985 1.41601 -0.261764 0
M  V30 433 H 37.9515 3.84569 1.72293 0
M  V30 434 H 36.6755 2.62315 1.94573 0
M  V30 435 H 35.3345 3.66501 0.085054 0
M  V30 436 H 34.9825 4.39186 2.45203 0
M  V30 437 H 34.6825 5.72762 1.31213 0
M  V30 438 H 36.2065 5.67899 2.24329 0
M  V30 439 H 37.6205 5.73293 -0.027502 0
M  V30 440 H 36.0175 5.94896 -0.788627 0
M  V30 441 H 37.0875 4.65504 -1.35773 0
M  V30 442 N 38.4306 0.297415 1.54768 0
M  V30 443 C 39.6766 -0.313376 2.00364 0
M  V30 444 C 40.0096 -1.53815 1.18553 0
M  V30 445 O 39.2846 -1.92739 0.261103 0
M  V30 446 C 39.5676 -0.673525 3.53745 0
M  V30 447 C 39.4206 0.560133 4.46299 0
M  V30 448 C 40.7396 -1.50143 4.13697 0
M  V30 449 H 37.8586 -0.112428 0.728374 0
M  V30 450 H 40.5006 0.4088 1.8555 0
M  V30 451 H 38.6506 -1.28881 3.665 0
M  V30 452 H 40.3226 1.19863 4.45455 0
M  V30 453 H 38.5656 1.19405 4.17043 0
M  V30 454 H 39.2366 0.26405 5.51368 0
M  V30 455 H 41.7126 -0.981588 4.04356 0
M  V30 456 H 40.5886 -1.72221 5.21182 0
M  V30 457 H 40.8496 -2.48952 3.65343 0
M  V30 458 N 39.9087 -1.5758 0.0250728 0
M  V30 459 C 40.8387 -2.13007 -0.956575 0
M  V30 460 C 41.8197 -1.0452 -1.342 0
M  V30 461 O 43.0047 -1.32332 -1.42133 0
M  V30 462 C 40.1347 -2.65386 -2.24026 0
M  V30 463 C 39.0887 -3.78623 -1.99571 0
M  V30 464 C 38.4147 -4.17414 -3.3417 0
M  V30 465 C 39.7147 -5.04867 -1.33814 0
M  V30 466 H 41.4087 -2.9528 -0.494991 0
M  V30 467 H 38.9547 -1.42042 -0.236651 0
M  V30 468 H 40.9077 -3.02794 -2.93076 0
M  V30 469 H 39.6317 -1.80268 -2.72343 0
M  V30 470 H 38.2907 -3.41646 -1.32941 0
M  V30 471 H 37.9387 -3.29284 -3.80238 0
M  V30 472 H 37.6387 -4.93719 -3.18615 0
M  V30 473 H 39.1627 -4.57402 -4.04495 0
M  V30 474 H 40.5767 -5.39888 -1.92857 0
M  V30 475 H 38.9737 -5.86144 -1.28669 0
M  V30 476 H 40.0437 -4.83904 -0.310561 0
M  V30 477 N 41.3868 0.248026 -1.55636 0
M  V30 478 C 42.6118 0.998028 -1.81808 0
M  V30 479 C 43.0368 1.78207 -0.601979 0
M  V30 480 O 42.3948 1.75653 0.448961 0
M  V30 481 C 42.4428 1.9125 -3.05705 0
M  V30 482 O 41.5468 3.00406 -2.82542 0
M  V30 483 H 40.8878 0.284045 -0.600179 0
M  V30 484 H 43.4178 0.269357 -2.02819 0
M  V30 485 H 43.4278 2.32737 -3.35108 0
M  V30 486 H 42.1028 1.33602 -3.93857 0
M  V30 487 H 40.6798 2.63056 -2.64303 0
M  V30 488 N 42.8649 1.48995 0.513639 0
M  V30 489 C 43.7949 1.67636 1.62544 0
M  V30 490 C 44.7759 0.525087 1.61793 0
M  V30 491 O 45.9609 0.759502 1.78732 0
M  V30 492 C 43.0909 1.73114 3.01079 0
M  V30 493 C 42.0449 2.87905 3.16693 0
M  V30 494 C 41.3709 2.78486 4.56453 0
M  V30 495 C 42.6709 4.29005 2.97913 0
M  V30 496 H 44.3649 2.60716 1.47198 0
M  V30 497 H 41.9109 1.25465 0.706714 0
M  V30 498 H 43.8639 1.84742 3.78746 0
M  V30 499 H 42.5879 0.766241 3.17484 0
M  V30 500 H 41.2469 2.75859 2.41448 0
M  V30 501 H 40.8949 1.7993 4.69717 0
M  V30 502 H 40.5949 3.55523 4.67843 0
M  V30 503 H 42.1189 2.92104 5.36197 0
M  V30 504 H 43.5329 4.41798 3.65359 0
M  V30 505 H 41.9299 5.07166 3.20785 0
M  V30 506 H 42.9999 4.44329 1.94165 0
M  V30 507 N 44.343 -0.763751 1.37857 0
M  V30 508 C 45.306 -1.85889 1.34081 0
M  V30 509 C 46.306 -1.58949 0.243277 0
M  V30 510 O 47.496 -1.66882 0.499589 0
M  V30 511 C 44.628 -3.23176 1.08489 0
M  V30 512 H 45.821 -1.90648 2.31502 0
M  V30 513 H 43.374 -0.964367 1.23003 0
M  V30 514 H 44.109 -3.24091 0.116318 0
M  V30 515 H 43.894 -3.44124 1.8794 0
M  V30 516 H 45.384 -4.03254 1.08517 0
M  V30 517 N 45.8211 -1.22559 -0.990812 0
M  V30 518 C 47.0511 -1.07623 -1.76355 0
M  V30 519 C 47.4591 0.37601 -1.85426 0
M  V30 520 O 46.8021 1.27228 -1.32509 0
M  V30 521 C 46.8641 -1.61507 -3.21179 0
M  V30 522 C 46.5281 -3.10146 -3.35646 0
M  V30 523 C 47.5251 -4.07553 -3.22796 0
M  V30 524 C 45.2101 -3.49644 -3.60631 0
M  V30 525 C 47.2041 -5.42442 -3.34716 0
M  V30 526 C 44.8911 -4.84682 -3.72192 0
M  V30 527 C 45.8891 -5.8089 -3.59243 0
M  V30 528 O 45.5771 -7.13476 -3.70415 0
M  V30 529 H 45.3091 -0.377745 -0.560611 0
M  V30 530 H 47.8631 -1.62658 -1.25425 0
M  V30 531 H 46.0931 -1.00881 -3.73309 0
M  V30 532 H 47.7821 -1.42202 -3.80175 0
M  V30 533 H 48.5481 -3.78381 -3.03403 0
M  V30 534 H 44.4271 -2.75282 -3.69785 0
M  V30 535 H 47.9711 -6.17518 -3.24526 0
M  V30 536 H 43.8681 -5.13534 -3.91092 0
M  V30 537 H 44.6361 -7.21083 -3.87275 0
M  V30 538 N 47.2992 1.18797 -1.03562 0
M  V30 539 C 48.5472 1.88278 -0.734569 0
M  V30 540 C 48.8682 1.8043 0.739586 0
M  V30 541 O 48.1382 1.21925 1.53333 0
M  V30 542 H 46.7182 0.696991 -0.268725 0
M  V30 543 H 49.3802 1.44192 -1.31129 0
M  V30 544 H 48.4762 2.94443 -1.03489 0
M  V30 545 N 48.7773 0.814389 1.34928 0
M  V30 546 C 50.0263 0.394871 1.97797 0
M  V30 547 C 50.3393 -1.04555 1.65311 0
M  V30 548 O 51.5453 -1.56856 2.21604 0
M  V30 549 C 50.0013 0.655103 3.53888 0
M  V30 550 C 49.6093 2.10858 3.95276 0
M  V30 551 C 51.3533 0.301329 4.23429 0
M  V30 552 C 49.2603 2.31415 5.44244 0
M  V30 553 H 48.1903 0.143913 0.740139 0
M  V30 554 H 50.8413 0.999544 1.53888 0
M  V30 555 H 49.2233 -0.0196253 3.95995 0
M  V30 556 H 50.3973 2.82176 3.64298 0
M  V30 557 H 48.7123 2.42297 3.38646 0
M  V30 558 H 51.3093 0.432869 5.32945 0
M  V30 559 H 51.6523 -0.75331 4.09428 0
M  V30 560 H 52.1853 0.930288 3.86769 0
M  V30 561 H 48.9243 3.35353 5.63222 0
M  V30 562 H 48.4443 1.6463 5.76764 0
M  V30 563 H 50.1233 2.13352 6.10811 0
M  V30 564 N 50.2554 -1.46986 0.568584 0
M  V30 565 C 51.5014 -2.02741 0.0488709 0
M  V30 566 C 51.8344 -1.44077 -1.30214 0
M  V30 567 O 51.1094 -0.600552 -1.84996 0
M  V30 568 C 51.3924 -3.60086 -0.032047 0
M  V30 569 C 51.2454 -4.29162 1.34686 0
M  V30 570 C 52.5644 -4.33838 -0.739798 0
M  V30 571 H 49.6834 -0.736749 0.0192338 0
M  V30 572 H 52.3254 -1.75289 0.733065 0
M  V30 573 H 50.4754 -3.83606 -0.61473 0
M  V30 574 H 52.1474 -4.16948 1.97362 0
M  V30 575 H 50.3904 -3.89073 1.91846 0
M  V30 576 H 51.0614 -5.37826 1.24285 0
M  V30 577 H 53.5374 -4.15378 -0.244939 0
M  V30 578 H 52.4134 -5.43537 -0.765406 0
M  V30 579 H 52.6744 -4.03875 -1.79827 0
M  V30 580 N 51.7335 -0.305618 -1.54608 0
M  V30 581 C 52.6965 0.555591 -2.22364 0
M  V30 582 C 53.6965 1.05768 -1.21119 0
M  V30 583 O 54.8865 0.952972 -1.45822 0
M  V30 584 C 52.0185 1.76974 -2.91364 0
M  V30 585 H 53.2115 -0.0364572 -2.99878 0
M  V30 586 H 50.7645 -0.0565007 -1.56198 0
M  V30 587 H 51.4995 2.40151 -2.17941 0
M  V30 588 H 51.2845 1.41732 -3.65588 0
M  V30 589 H 52.7745 2.38148 -3.43038 0
M  V30 590 N 53.2116 1.57565 -0.0334293 0
M  V30 591 C 54.1416 2.13511 0.945265 0
M  V30 592 C 55.1226 1.05231 1.33643 0
M  V30 593 O 56.3076 1.33084 1.41429 0
M  V30 594 C 53.4376 2.6657 2.22616 0
M  V30 595 C 52.3916 3.79676 1.97561 0
M  V30 596 C 51.7176 4.1918 3.31952 0
M  V30 597 C 53.0176 5.0557 1.31135 0
M  V30 598 H 54.7116 2.95538 0.479325 0
M  V30 599 H 52.2576 1.42166 0.229115 0
M  V30 600 H 54.2106 3.04344 2.91466 0
M  V30 601 H 52.9346 1.8171 2.71384 0
M  V30 602 H 51.5936 3.42347 1.31127 0
M  V30 603 H 51.2416 3.31296 3.78487 0
M  V30 604 H 50.9416 4.95402 3.15992 0
M  V30 605 H 52.4656 4.59541 4.02063 0
M  V30 606 H 53.8796 5.40903 1.89992 0
M  V30 607 H 52.2766 5.86818 1.25559 0
M  V30 608 H 53.3466 4.84062 0.284894 0
M  V30 609 N 54.6897 -0.239769 1.55765 0
M  V30 610 C 55.9357 -0.968234 1.78194 0
M  V30 611 C 56.2687 -1.84701 0.599938 0
M  V30 612 O 55.5437 -1.9031 -0.401524 0
M  V30 613 C 55.8267 -1.8227 3.10564 0
M  V30 614 C 55.6797 -0.971633 4.3918 0
M  V30 615 C 56.9987 -2.80388 3.39221 0
M  V30 616 H 54.1177 -0.350572 0.648281 0
M  V30 617 H 56.7597 -0.238259 1.885 0
M  V30 618 H 54.9097 -2.44507 3.01908 0
M  V30 619 H 56.5817 -0.367408 4.59835 0
M  V30 620 H 54.8247 -0.276276 4.32919 0
M  V30 621 H 55.4957 -1.60346 5.28198 0
M  V30 622 H 57.9717 -2.28287 3.47885 0
M  V30 623 H 56.8477 -3.3729 4.33044 0
M  V30 624 H 57.1087 -3.57212 2.60484 0
M  V30 625 N 56.1678 -1.49265 -0.50573 0
M  V30 626 C 57.4158 -1.582 -1.25766 0
M  V30 627 C 57.7368 -0.268482 -1.93143 0
M  V30 628 O 57.0068 0.711833 -1.8251 0
M  V30 629 H 55.5868 -0.582873 -0.467191 0
M  V30 630 H 58.2488 -1.85865 -0.586525 0
M  V30 631 H 57.3448 -2.37563 -2.02412 0
M  V30 632 N 57.6459 0.756429 -1.3826 0
M  V30 633 C 58.8759 1.54341 -1.3734 0
M  V30 634 C 59.2839 1.89159 0.0393917 0
M  V30 635 O 58.6269 1.5307 1.01565 0
M  V30 636 C 58.6889 2.87238 -2.16182 0
M  V30 637 C 58.3529 2.74973 -3.65019 0
M  V30 638 C 59.3499 2.44962 -4.58574 0
M  V30 639 C 57.0349 2.92515 -4.08338 0
M  V30 640 C 59.0289 2.32642 -5.93428 0
M  V30 641 C 56.7159 2.79815 -5.43274 0
M  V30 642 C 57.7139 2.49921 -6.35632 0
M  V30 643 O 57.4019 2.37275 -7.68086 0
M  V30 644 H 57.1339 0.484281 -0.471643 0
M  V30 645 H 59.6879 0.944152 -1.82414 0
M  V30 646 H 57.9179 3.49342 -1.65822 0
M  V30 647 H 59.6069 3.48731 -2.07705 0
M  V30 648 H 60.3729 2.31081 -4.26412 0
M  V30 649 H 56.2519 3.14781 -3.368 0
M  V30 650 H 59.7959 2.0923 -6.65484 0
M  V30 651 H 55.6929 2.93269 -5.75034 0
M  V30 652 H 56.4609 2.52509 -7.78577 0
M  V30 653 N 59.124 1.23083 0.984299 0
M  V30 654 C 60.349 1.088 1.76571 0
M  V30 655 C 60.774 -0.356657 1.84688 0
M  V30 656 O 60.132 -1.25788 1.30565 0
M  V30 657 C 60.18 1.71371 3.17277 0
M  V30 658 O 59.284 0.973213 4.00752 0
M  V30 659 H 58.625 0.381599 0.543395 0
M  V30 660 H 61.155 1.63057 1.23587 0
M  V30 661 H 61.165 1.76449 3.67872 0
M  V30 662 H 59.84 2.76493 3.10684 0
M  V30 663 H 58.417 0.999078 3.59267 0
M  V30 664 N 60.6021 -1.18246 1.0419 0
M  V30 665 C 61.8481 -1.88536 0.747122 0
M  V30 666 C 62.1811 -1.80223 -0.723409 0
M  V30 667 O 61.4561 -1.20337 -1.52804 0
M  V30 668 C 61.7391 -3.38968 1.21544 0
M  V30 669 C 61.5921 -3.56084 2.74816 0
M  V30 670 C 62.9111 -4.32648 0.806482 0
M  V30 671 H 60.0301 -0.684619 0.272883 0
M  V30 672 H 62.6721 -1.39113 1.29413 0
M  V30 673 H 60.8221 -3.8119 0.750081 0
M  V30 674 H 62.4941 -3.22946 3.29399 0
M  V30 675 H 60.7371 -2.98699 3.14582 0
M  V30 676 H 61.4081 -4.61639 3.02644 0
M  V30 677 H 63.8841 -3.98211 1.20695 0
M  V30 678 H 62.7601 -5.36462 1.1619 0
M  V30 679 H 63.0211 -4.41146 -0.29029 0
M  V30 680 N 62.0802 -0.821533 -1.34494 0
M  V30 681 C 63.3052 -0.420873 -2.03085 0
M  V30 682 C 63.7302 0.964915 -1.61465 0
M  V30 683 O 63.0882 1.62763 -0.798607 0
M  V30 684 C 63.1362 -0.529414 -3.56693 0
M  V30 685 O 62.2402 0.451302 -4.09923 0
M  V30 686 H 61.5812 -0.173489 -0.640935 0
M  V30 687 H 64.1112 -1.11157 -1.71771 0
M  V30 688 H 64.1212 -0.404671 -4.05988 0
M  V30 689 H 62.7962 -1.54014 -3.86332 0
M  V30 690 H 61.3732 0.285558 -3.71805 0
M  V30 691 N 63.5583 1.46682 -0.576371 0
M  V30 692 C 64.8053 2.02412 -0.0595339 0
M  V30 693 C 65.1333 1.44859 1.29793 0
M  V30 694 O 64.3883 0.601099 1.8624 0
M  V30 695 C 64.6873 3.57345 0.062886 0
M  V30 696 C 64.3533 4.33908 -1.22616 0
M  V30 697 C 63.0153 4.54544 -1.57933 0
M  V30 698 C 65.3673 4.77919 -2.07948 0
M  V30 699 C 62.6953 5.16444 -2.78393 0
M  V30 700 C 65.0473 5.41149 -3.27629 0
M  V30 701 C 63.7113 5.60014 -3.63236 0
M  V30 702 H 62.9813 0.74068 -0.021785 0
M  V30 703 H 65.6283 1.76128 -0.751735 0
M  V30 704 H 63.9333 3.82729 0.838178 0
M  V30 705 H 65.6303 3.98136 0.478439 0
M  V30 706 H 62.2203 4.18138 -0.941202 0
M  V30 707 H 66.4043 4.61738 -1.81967 0
M  V30 708 H 61.6603 5.29242 -3.06126 0
M  V30 709 H 65.8343 5.74211 -3.94023 0
M  V30 710 H 63.4613 6.07748 -4.56669 0
M  V30 711 N 65.0364 0.313813 1.54444 0
M  V30 712 C 66.3134 -0.345447 1.92525 0
M  V30 713 C 66.6934 -1.70667 1.24242 0
M  V30 714 O 66.0414 -2.25273 0.382654 0
M  V30 715 C 66.2514 -0.44737 3.46121 0
M  V30 716 C 67.5994 -0.712238 4.18584 0
M  V30 717 O 68.6234 -0.530678 3.52225 0
M  V30 718 O 67.4824 -1.06183 5.36085 0
M  V30 719 H 64.5764 -0.195407 0.803583 0
M  V30 720 H 67.1224 0.362813 1.65776 0
M  V30 721 H 65.8944 0.509043 3.87975 0
M  V30 722 H 65.5174 -1.20359 3.78945 0
M  V30 723 N 66.5145 -1.57545 0.0417849 0
M  V30 724 C 67.4615 -2.10977 -0.935805 0
M  V30 725 C 68.4315 -1.01486 -1.31491 0
M  V30 726 O 69.6165 -1.2898 -1.40602 0
M  V30 727 C 66.7565 -2.65169 -2.2086 0
M  V30 728 C 65.8695 -3.88714 -1.88482 0
M  V30 729 C 65.0045 -4.31254 -3.1015 0
M  V30 730 C 64.0435 -5.47524 -2.7365 0
M  V30 731 N 63.1805 -5.85162 -3.87982 0
M  V30 732 H 68.0205 -2.94218 -0.473249 0
M  V30 733 H 65.5575 -1.45415 -0.221981 0
M  V30 734 H 67.5155 -2.94685 -2.95325 0
M  V30 735 H 66.1455 -1.8474 -2.64709 0
M  V30 736 H 65.1975 -3.65849 -1.04205 0
M  V30 737 H 66.5095 -4.73245 -1.57608 0
M  V30 738 H 65.6635 -4.62273 -3.92923 0
M  V30 739 H 64.4025 -3.45516 -3.44195 0
M  V30 740 H 63.4075 -5.16187 -1.89291 0
M  V30 741 H 64.6325 -6.34971 -2.40807 0
M  V30 742 H 62.5785 -5.02377 -4.21846 0
M  V30 743 H 62.4955 -6.64362 -3.60775 0
M  V30 744 H 63.7635 -6.20791 -4.71422 0
M  V30 745 N 67.9926 0.231505 -1.5589 0
M  V30 746 C 69.2206 0.974505 -1.82513 0
M  V30 747 C 69.6356 1.78344 -0.619591 0
M  V30 748 O 68.9926 1.77792 0.411848 0
M  V30 749 C 69.0436 1.90007 -3.07538 0
M  V30 750 O 68.7646 1.12385 -4.2344 0
M  V30 751 C 70.2656 2.75779 -3.47075 0
M  V30 752 H 67.4856 0.286065 -0.606966 0
M  V30 753 H 70.0296 0.249739 -2.02969 0
M  V30 754 H 68.1846 2.57891 -2.89086 0
M  V30 755 H 68.5986 1.75125 -4.944 0
M  V30 756 H 70.0726 3.36443 -4.37619 0
M  V30 757 H 70.5496 3.47672 -2.68367 0
M  V30 758 H 71.1556 2.13323 -3.67931 0
M  V30 759 N 69.4707 1.49531 0.497807 0
M  V30 760 C 70.6987 1.62893 1.27567 0
M  V30 761 C 71.1137 0.301585 1.86376 0
M  V30 762 O 70.4707 -0.713335 1.67982 0
M  V30 763 C 70.5217 2.70013 2.40364 0
M  V30 764 O 70.2427 3.976 1.83972 0
M  V30 765 C 71.7437 2.94109 3.31685 0
M  V30 766 H 68.9637 0.548298 0.386794 0
M  V30 767 H 71.5077 1.95584 0.597245 0
M  V30 768 H 69.6627 2.40092 3.04031 0
M  V30 769 H 70.0767 4.56631 2.58047 0
M  V30 770 H 71.5507 3.72788 4.07104 0
M  V30 771 H 72.0277 2.04147 3.88871 0
M  V30 772 H 72.6337 3.2546 2.73781 0
M  V30 773 N 70.9488 -0.749086 1.3866 0
M  V30 774 C 72.1958 -1.50833 1.35114 0
M  V30 775 C 72.5238 -1.94415 -0.0574049 0
M  V30 776 O 71.7788 -1.66065 -1.03541 0
M  V30 777 C 72.0778 -2.7712 2.25697 0
M  V30 778 C 71.7438 -2.52477 3.73585 0
M  V30 779 C 70.4058 -2.45466 4.13884 0
M  V30 780 C 72.7578 -2.31066 4.67181 0
M  V30 781 C 70.0858 -2.15064 5.45861 0
M  V30 782 C 72.4378 -2.02183 5.9942 0
M  V30 783 C 71.1018 -1.93631 6.38798 0
M  V30 784 H 70.3718 -0.551936 0.494416 0
M  V30 785 H 73.0188 -0.860979 1.71054 0
M  V30 786 H 71.3238 -3.46528 1.82827 0
M  V30 787 H 73.0208 -3.35096 2.20254 0
M  V30 788 H 69.6108 -2.58807 3.41638 0
M  V30 789 H 73.7948 -2.35459 4.3689 0
M  V30 790 H 69.0508 -2.06954 5.75308 0
M  V30 791 H 73.2248 -1.8462 6.71482 0
M  V30 792 H 70.8518 -1.69839 7.40985 0
M  V30 793 N 72.4269 -1.23603 -0.977757 0
M  V30 794 C 73.8429 -0.999251 -1.24447 0
M  V30 795 C 74.0429 0.298053 -1.99283 0
M  V30 796 O 73.0989 1.01681 -2.31122 0
M  V30 797 C 74.4119 -2.20784 -2.04144 0
M  V30 798 C 75.9599 -2.25303 -2.17273 0
M  V30 799 C 76.4349 -3.45755 -3.00362 0
M  V30 800 N 77.9259 -3.4601 -3.07947 0
M  V30 801 C 78.6609 -4.35868 -3.72568 0
M  V30 802 N 78.1569 -5.35966 -4.38991 0
M  V30 803 N 79.9499 -4.23605 -3.6948 0
M  V30 804 H 72.1009 -2.06986 -0.476483 0
M  V30 805 H 74.3639 -0.907801 -0.273134 0
M  V30 806 H 74.0699 -3.14945 -1.56533 0
M  V30 807 H 73.9439 -2.22085 -3.04891 0
M  V30 808 H 76.3309 -1.3168 -2.64092 0
M  V30 809 H 76.4119 -2.28033 -1.15907 0
M  V30 810 H 76.0559 -4.39687 -2.5424 0
M  V30 811 H 75.9859 -3.40266 -4.01904 0
M  V30 812 H 78.4769 -2.73588 -2.60688 0
M  V30 813 H 78.7899 -6.00783 -4.86086 0
M  V30 814 H 77.1349 -5.39863 -4.37691 0
M  V30 815 H 80.3259 -3.44647 -3.16759 0
M  V30 816 H 80.4989 -4.93836 -4.1956 0
M  V30 817 N 73.905 1.17692 -1.04816 0
M  V30 818 C 74.835 2.23777 -0.666791 0
M  V30 819 C 75.816 1.66796 0.33361 0
M  V30 820 O 77.001 1.93039 0.212042 0
M  V30 821 C 74.131 3.47281 -0.0367933 0
M  V30 822 C 73.085 4.17059 -0.961546 0
M  V30 823 C 72.411 5.34342 -0.195626 0
M  V30 824 C 73.711 4.69713 -2.28402 0
M  V30 825 H 75.405 2.55933 -1.55367 0
M  V30 826 H 72.951 1.23019 -0.748484 0
M  V30 827 H 74.904 4.20706 0.241775 0
M  V30 828 H 73.628 3.14381 0.885004 0
M  V30 829 H 72.287 3.45541 -1.22462 0
M  V30 830 H 71.935 4.97692 0.728816 0
M  V30 831 H 71.635 5.81966 -0.811775 0
M  V30 832 H 73.159 6.10553 0.0757473 0
M  V30 833 H 74.573 5.34794 -2.06563 0
M  V30 834 H 72.97 5.279 -2.8538 0
M  V30 835 H 74.04 3.86726 -2.92525 0
M  V30 836 N 75.3831 0.828654 1.34056 0
M  V30 837 C 76.3131 0.269443 2.3194 0
M  V30 838 C 77.2941 -0.617247 1.58506 0
M  V30 839 O 78.4791 -0.542931 1.86456 0
M  V30 840 C 75.6091 -0.564793 3.42677 0
M  V30 841 C 74.5631 0.225241 4.27407 0
M  V30 842 C 73.8891 -0.7321 5.29664 0
M  V30 843 C 75.1891 1.43663 5.02154 0
M  V30 844 H 76.8831 1.08728 2.7896 0
M  V30 845 H 74.4291 0.524283 1.34117 0
M  V30 846 H 76.3821 -0.966233 4.10173 0
M  V30 847 H 75.1061 -1.41574 2.9432 0
M  V30 848 H 73.7651 0.608117 3.61521 0
M  V30 849 H 73.4131 -1.57916 4.77568 0
M  V30 850 H 73.1131 -0.20767 5.87233 0
M  V30 851 H 74.6371 -1.13128 6.00029 0
M  V30 852 H 76.0511 1.1089 5.62473 0
M  V30 853 H 74.4481 1.89711 5.69324 0
M  V30 854 H 75.5181 2.21181 4.31517 0
M  V30 855 N 76.8612 -1.46375 0.584142 0
M  V30 856 C 78.2772 -1.57694 0.245929 0
M  V30 857 C 78.4772 -1.57903 -1.25175 0
M  V30 858 O 77.5332 -1.49676 -2.03355 0
M  V30 859 C 78.8462 -2.87028 0.896402 0
M  V30 860 C 80.3942 -3.00662 0.870127 0
M  V30 861 C 80.8692 -4.32734 1.50017 0
M  V30 862 N 82.3602 -4.39436 1.46458 0
M  V30 863 C 83.0952 -5.40248 1.92144 0
M  V30 864 N 82.5912 -6.47726 2.4581 0
M  V30 865 N 84.3842 -5.31459 1.83052 0
M  V30 866 H 76.5352 -1.44483 1.55687 0
M  V30 867 H 78.7982 -0.689291 0.650831 0
M  V30 868 H 78.5042 -2.9269 1.95002 0
M  V30 869 H 78.3782 -3.75014 0.405486 0
M  V30 870 H 80.7652 -2.94581 -0.174871 0
M  V30 871 H 80.8462 -2.14148 1.39908 0
M  V30 872 H 80.4902 -4.39573 2.54437 0
M  V30 873 H 80.4202 -5.18025 0.946432 0
M  V30 874 H 82.9112 -3.62367 1.07231 0
M  V30 875 H 83.2242 -7.20863 2.78525 0
M  V30 876 H 81.5692 -6.48542 2.49836 0
M  V30 877 H 84.7602 -4.46396 1.40883 0
M  V30 878 H 84.9332 -6.09881 2.18973 0
M  V30 879 N 78.3393 -0.321999 -1.54275 0
M  V30 880 C 79.5873 0.280489 -2.00144 0
M  V30 881 C 79.9083 1.52777 -1.21178 0
M  V30 882 O 79.1783 1.9338 -0.313187 0
M  V30 883 H 77.7583 0.106632 -0.73935 0
M  V30 884 H 80.4203 -0.438184 -1.8991 0
M  V30 885 H 79.5163 0.537972 -3.07428 0
M  V30 886 N 79.8174 1.5752 -0.0501392 0
M  V30 887 C 80.7274 2.14952 0.939827 0
M  V30 888 C 81.7434 1.10706 1.34239 0
M  V30 889 O 82.9194 1.42869 1.41952 0
M  V30 890 C 79.9844 2.68232 2.19665 0
M  V30 891 C 79.0454 3.87272 1.85253 0
M  V30 892 C 78.2784 4.38002 3.04943 0
M  V30 893 O 78.5014 3.87811 4.18281 0
M  V30 894 O 77.4354 5.29602 2.86017 0
M  V30 895 H 81.2614 2.9986 0.481392 0
M  V30 896 H 78.8464 1.4841 0.171699 0
M  V30 897 H 80.7284 3.02475 2.93406 0
M  V30 898 H 79.4034 1.86395 2.64648 0
M  V30 899 H 78.3104 3.5792 1.0883 0
M  V30 900 H 79.6434 4.70336 1.4507 0
M  V30 901 N 81.2955 -0.223234 1.56011 0
M  V30 902 C 82.5205 -0.968978 1.83373 0
M  V30 903 C 82.9455 -1.77227 0.630254 0
M  V30 904 O 82.3035 -1.76345 -0.420959 0
M  V30 905 C 82.3515 -1.86363 3.08709 0
M  V30 906 O 81.4555 -2.95873 2.87285 0
M  V30 907 H 80.7965 -0.274461 0.604622 0
M  V30 908 H 83.3265 -0.237056 2.03222 0
M  V30 909 H 83.3365 -2.27376 3.38768 0
M  V30 910 H 82.0115 -1.27319 3.95933 0
M  V30 911 H 80.5885 -2.58818 2.68454 0
M  V30 912 N 82.7736 -1.49793 -0.48987 0
M  V30 913 C 83.7216 -1.67783 -1.61095 0
M  V30 914 C 84.7156 -0.543683 -1.60438 0
M  V30 915 O 85.9216 -0.723647 -1.64813 0
M  V30 916 H 82.2966 -0.529255 -0.534222 0
M  V30 917 H 84.2676 -2.61861 -1.43078 0
M  V30 918 C 83.0166 -1.77191 -2.99164 0
M  V30 919 H 82.3396 -2.63841 -3.0038 0
M  V30 920 H 83.7796 -1.93809 -3.77113 0
M  V30 921 C 82.2386 -0.519203 -3.32875 0
M  V30 922 O 82.7686 0.350124 -4.00171 0
M  V30 923 N 80.9746 -0.378816 -2.8812 0
M  V30 924 H 80.5216 -1.08725 -2.33531 0
M  V30 925 H 80.4796 0.458239 -3.11043 0
M  V30 926 N 84.2517 0.741722 -1.39055 0
M  V30 927 C 85.1817 1.869 -1.39966 0
M  V30 928 C 86.1627 1.6804 -0.26392 0
M  V30 929 O 87.3477 1.88458 -0.468755 0
M  V30 930 C 84.4777 3.24572 -1.23574 0
M  V30 931 C 83.4317 3.58056 -2.34477 0
M  V30 932 C 82.7577 4.94593 -2.0318 0
M  V30 933 C 84.0577 3.61716 -3.76774 0
M  V30 934 H 85.7517 1.86395 -2.34302 0
M  V30 935 H 83.2977 0.895361 -1.1278 0
M  V30 936 H 85.2507 4.031 -1.22834 0
M  V30 937 H 83.9747 3.25587 -0.257045 0
M  V30 938 H 82.6337 2.81854 -2.34423 0
M  V30 939 H 82.2817 4.92181 -1.03765 0
M  V30 940 H 81.9817 5.17964 -2.77465 0
M  V30 941 H 83.5057 5.75486 -2.04079 0
M  V30 942 H 84.9197 4.30335 -3.78794 0
M  V30 943 H 83.3167 3.96603 -4.50362 0
M  V30 944 H 84.3867 2.61672 -4.08235 0
M  V30 945 N 85.7298 1.2412 0.971189 0
M  V30 946 C 86.9768 1.07881 1.71371 0
M  V30 947 C 87.3048 -0.382901 1.90694 0
M  V30 948 O 86.5598 -1.29945 1.46331 0
M  V30 949 C 86.8588 1.75983 3.11071 0
M  V30 950 C 86.5248 3.25909 3.11599 0
M  V30 951 C 85.1868 3.66813 3.11451 0
M  V30 952 C 87.5388 4.21771 3.062 0
M  V30 953 C 84.8668 5.02021 3.03631 0
M  V30 954 C 87.2188 5.56982 2.99923 0
M  V30 955 C 85.8828 5.97237 2.98102 0
M  V30 956 H 85.1528 0.394764 0.62709 0
M  V30 957 H 87.7998 1.54176 1.13587 0
M  V30 958 H 86.1048 1.22072 3.72298 0
M  V30 959 H 87.8018 1.60887 3.6731 0
M  V30 960 H 84.3918 2.93353 3.12477 0
M  V30 961 H 88.5758 3.91172 3.05447 0
M  V30 962 H 83.8318 5.32411 3.0058 0
M  V30 963 H 88.0058 6.30969 2.94704 0
M  V30 964 H 85.6328 7.01967 2.91798 0
M  V30 965 N 87.2079 -1.17134 1.05439 0
M  V30 966 C 88.4379 -1.91094 0.785274 0
M  V30 967 C 88.8459 -1.77198 -0.663142 0
M  V30 968 O 88.1889 -1.10835 -1.46497 0
M  V30 969 C 88.2509 -3.42594 1.08949 0
M  V30 970 C 87.9149 -3.80274 2.53458 0
M  V30 971 C 88.9119 -3.82912 3.51673 0
M  V30 972 C 86.5969 -4.11162 2.88532 0
M  V30 973 C 88.5909 -4.15913 4.83006 0
M  V30 974 C 86.2779 -4.43831 4.20068 0
M  V30 975 C 87.2759 -4.46185 5.17115 0
M  V30 976 O 86.9639 -4.78083 6.46291 0
M  V30 977 H 86.6959 -0.613073 0.284811 0
M  V30 978 H 89.2499 -1.49461 1.40893 0
M  V30 979 H 87.4799 -3.84534 0.408741 0
M  V30 980 H 89.1689 -3.97817 0.805991 0
M  V30 981 H 89.9349 -3.5917 3.25917 0
M  V30 982 H 85.8139 -4.085 2.13656 0
M  V30 983 H 89.3579 -4.17665 5.5875 0
M  V30 984 H 85.2549 -4.67037 4.45586 0
M  V30 985 H 86.0229 -4.9593 6.51149 0
M  V30 986 N 88.686 -0.835752 -1.33615 0
M  V30 987 C 89.914 -0.443344 -2.02094 0
M  V30 988 C 90.329 0.954522 -1.62894 0
M  V30 989 O 89.686 1.61982 -0.840723 0
M  V30 990 C 89.737 -0.550775 -3.5728 0
M  V30 991 O 89.458 -1.89356 -3.95065 0
M  V30 992 C 90.959 -0.154919 -4.43029 0
M  V30 993 H 88.179 -0.176359 -0.647409 0
M  V30 994 H 90.723 -1.12746 -1.70612 0
M  V30 995 H 88.878 0.0853997 -3.87306 0
M  V30 996 H 89.292 -1.87687 -4.89769 0
M  V30 997 H 90.766 -0.281144 -5.51284 0
M  V30 998 H 91.243 0.902863 -4.2982 0
M  V30 999 H 91.849 -0.765404 -4.18356 0
M  V30 1000 N 90.1641 1.46063 -0.591896 0
M  V30 1001 C 91.0941 2.33172 0.123673 0
M  V30 1002 C 92.0751 1.45897 0.87453 0
M  V30 1003 O 93.2601 1.74698 0.848181 0
M  V30 1004 C 90.3901 3.28336 1.13194 0
M  V30 1005 C 89.3441 4.25124 0.495324 0
M  V30 1006 C 88.6701 5.09863 1.61071 0
M  V30 1007 C 89.9701 5.19143 -0.573425 0
M  V30 1008 H 91.6641 2.93252 -0.603646 0
M  V30 1009 H 89.2101 1.41014 -0.291741 0
M  V30 1010 H 91.1631 3.88137 1.64097 0
M  V30 1011 H 89.8871 2.66383 1.88965 0
M  V30 1012 H 88.5461 3.66599 0.00729452 0
M  V30 1013 H 88.1941 4.44288 2.35832 0
M  V30 1014 H 87.8941 5.75417 1.19035 0
M  V30 1015 H 89.4181 5.72529 2.12233 0
M  V30 1016 H 90.8321 5.73106 -0.1491 0
M  V30 1017 H 89.2291 5.93089 -0.914636 0
M  V30 1018 H 90.2991 4.62519 -1.45617 0
M  V30 1019 N 91.6422 0.330177 1.54103 0
M  V30 1020 C 92.6052 -0.520144 2.2322 0
M  V30 1021 C 93.6052 -1.03828 1.22786 0
M  V30 1022 O 94.7952 -0.929652 1.4732 0
M  V30 1023 C 91.9272 -1.72317 2.94142 0
M  V30 1024 H 93.1202 0.0841605 2.99782 0
M  V30 1025 H 90.6732 0.0813433 1.56088 0
M  V30 1026 H 91.4082 -2.36653 2.21734 0
M  V30 1027 H 91.1932 -1.35898 3.67796 0
M  V30 1028 H 92.6832 -2.3266 3.46784 0
M  V30 1029 N 93.1203 -1.57491 0.0584922 0
M  V30 1030 C 94.0673 -2.11958 -0.913376 0
M  V30 1031 C 95.0373 -1.02875 -1.30407 0
M  V30 1032 O 96.2223 -1.30464 -1.39226 0
M  V30 1033 C 93.3623 -2.67497 -2.18035 0
M  V30 1034 C 92.4753 -3.90691 -1.84349 0
M  V30 1035 C 91.6103 -4.3452 -3.05559 0
M  V30 1036 C 90.6493 -5.50395 -2.67827 0
M  V30 1037 N 89.7863 -5.89244 -3.81754 0
M  V30 1038 H 94.6263 -2.94704 -0.442017 0
M  V30 1039 H 92.1633 -1.45643 -0.206545 0
M  V30 1040 H 94.1213 -2.978 -2.92183 0
M  V30 1041 H 92.7513 -1.87537 -2.62735 0
M  V30 1042 H 91.8033 -3.66934 -1.00319 0
M  V30 1043 H 93.1153 -4.7489 -1.5258 0
M  V30 1044 H 92.2693 -4.66414 -3.87998 0
M  V30 1045 H 91.0083 -3.49147 -3.40511 0
M  V30 1046 H 90.0133 -5.18165 -1.83806 0
M  V30 1047 H 91.2383 -6.3749 -2.34059 0
M  V30 1048 H 89.1843 -5.06823 -4.16493 0
M  V30 1049 H 89.1013 -6.68151 -3.53708 0
M  V30 1050 H 90.3693 -6.25756 -4.64811 0
M  V30 1051 N 94.5984 0.214957 -1.56127 0
M  V30 1052 C 95.8444 0.935325 -1.80619 0
M  V30 1053 C 96.1994 1.81706 -0.632507 0
M  V30 1054 O 95.4924 1.87931 0.373182 0
M  V30 1055 C 95.6864 1.80314 -3.0858 0
M  V30 1056 C 95.5154 1.00691 -4.38282 0
M  V30 1057 C 94.2854 0.699211 -5.00439 0
M  V30 1058 C 96.4834 0.369057 -5.12974 0
M  V30 1059 N 94.4654 -0.117734 -6.13787 0
M  V30 1060 C 95.8364 -0.310981 -6.1922 0
M  V30 1061 C 97.8914 0.282759 -4.97096 0
M  V30 1062 C 96.5944 -1.06907 -7.11311 0
M  V30 1063 C 98.6204 -0.461881 -5.89594 0
M  V30 1064 C 97.9824 -1.13044 -6.9527 0
M  V30 1065 H 94.0814 0.322307 -0.71249 0
M  V30 1066 H 96.6654 0.205649 -1.93611 0
M  V30 1067 H 94.8364 2.50458 -2.96859 0
M  V30 1068 H 96.5684 2.46148 -3.21237 0
M  V30 1069 H 93.3234 1.01884 -4.62511 0
M  V30 1070 H 93.7474 -0.515235 -6.75037 0
M  V30 1071 H 98.3894 0.785292 -4.15443 0
M  V30 1072 H 96.1074 -1.5831 -7.92442 0
M  V30 1073 H 99.6934 -0.529746 -5.79383 0
M  V30 1074 H 98.5734 -1.69742 -7.65609 0
M  V30 1075 N 96.0765 1.50051 0.48192 0
M  V30 1076 C 96.9865 1.7089 1.60728 0
M  V30 1077 C 98.0025 0.591788 1.63627 0
M  V30 1078 O 99.1785 0.868817 1.81696 0
M  V30 1079 C 96.2435 1.78855 2.97005 0
M  V30 1080 C 95.3045 3.02537 3.04581 0
M  V30 1081 C 94.5375 3.10112 4.34357 0
M  V30 1082 O 94.7605 2.24765 5.24249 0
M  V30 1083 O 93.6945 4.02747 4.47301 0
M  V30 1084 H 97.5205 2.66264 1.46072 0
M  V30 1085 H 95.1055 1.34018 0.660264 0
M  V30 1086 H 96.9875 1.86336 3.77964 0
M  V30 1087 H 95.6625 0.866628 3.11883 0
M  V30 1088 H 94.5695 3.00563 2.22739 0
M  V30 1089 H 95.9025 3.94272 2.94636 0
M  V30 1090 N 97.5546 -0.734337 1.39446 0
M  V30 1091 C 98.5026 -1.86971 1.38364 0
M  V30 1092 C 99.4966 -1.67288 0.266687 0
M  V30 1093 O 100.703 -1.74621 0.436755 0
M  V30 1094 H 97.0776 -0.615474 0.432082 0
M  V30 1095 H 99.0486 -1.85 2.34132 0
M  V30 1096 C 97.7976 -3.2466 1.24465 0
M  V30 1097 H 97.1206 -3.40402 2.09682 0
M  V30 1098 H 98.5606 -4.04292 1.27764 0
M  V30 1099 C 97.0196 -3.36867 -0.0468674 0
M  V30 1100 O 97.5496 -3.88618 -1.01681 0
M  V30 1101 N 95.7556 -2.90391 -0.110145 0
M  V30 1102 H 95.3026 -2.48466 0.679868 0
M  V30 1103 H 95.2606 -2.98939 -0.973799 0
M  V30 1104 N 99.0327 -1.24633 -0.964593 0
M  V30 1105 C 99.9807 -1.03917 -2.08096 0
M  V30 1106 C 100.975 0.0268581 -1.69379 0
M  V30 1107 O 102.181 -0.127952 -1.79545 0
M  V30 1108 H 98.5557 -0.319044 -0.680966 0
M  V30 1109 H 100.527 -1.98581 -2.22729 0
M  V30 1110 C 99.2757 -0.663983 -3.41301 0
M  V30 1111 H 98.5987 -1.47605 -3.71555 0
M  V30 1112 H 100.039 -0.558663 -4.20303 0
M  V30 1113 C 98.4977 0.629169 -3.30973 0
M  V30 1114 O 99.0277 1.67404 -3.65156 0
M  V30 1115 N 97.2337 0.611057 -2.84103 0
M  V30 1116 H 96.7807 -0.239593 -2.56483 0
M  V30 1117 H 96.7387 1.47647 -2.77575 0
M  V30 1118 N 100.511 1.16574 -1.06058 0
M  V30 1119 C 101.458 2.20883 -0.669263 0
M  V30 1120 C 102.428 1.62729 0.332918 0
M  V30 1121 O 103.613 1.895 0.222346 0
M  V30 1122 C 100.753 3.45049 -0.0593572 0
M  V30 1123 C 99.8658 4.17458 -1.11143 0
M  V30 1124 C 99.0008 5.29135 -0.467916 0
M  V30 1125 C 98.0398 5.93343 -1.50369 0
M  V30 1126 N 97.1768 6.96516 -0.883706 0
M  V30 1127 H 102.017 2.53709 -1.5632 0
M  V30 1128 H 99.5538 1.24616 -0.781625 0
M  V30 1129 H 101.512 4.16033 0.311771 0
M  V30 1130 H 100.142 3.12781 0.797992 0
M  V30 1131 H 99.1938 3.45101 -1.60029 0
M  V30 1132 H 100.506 4.61307 -1.89731 0
M  V30 1133 H 99.6598 6.06684 -0.0436871 0
M  V30 1134 H 98.3988 4.86443 0.349864 0
M  V30 1135 H 97.4038 5.14517 -1.93784 0
M  V30 1136 H 98.6288 6.38114 -2.32352 0
M  V30 1137 H 96.5748 6.55943 -0.086595 0
M  V30 1138 H 96.4918 7.38723 -1.607 0
M  V30 1139 H 97.7598 7.77993 -0.484543 0
M  V30 1140 N 101.989 0.842826 1.3317 0
M  V30 1141 C 103.238 0.436738 1.96915 0
M  V30 1142 C 103.551 -1.01025 1.67491 0
M  V30 1143 O 104.757 -1.5212 2.24881 0
M  V30 1144 C 103.213 0.730021 3.52418 0
M  V30 1145 C 102.821 2.19195 3.90714 0
M  V30 1146 C 104.565 0.391076 4.22695 0
M  V30 1147 C 102.472 2.42907 5.39212 0
M  V30 1148 H 101.402 0.15958 0.736919 0
M  V30 1149 H 104.053 1.03196 1.51733 0
M  V30 1150 H 102.435 0.0643755 3.95948 0
M  V30 1151 H 103.609 2.8984 3.58231 0
M  V30 1152 H 101.924 2.49425 3.33431 0
M  V30 1153 H 104.521 0.545817 5.31907 0
M  V30 1154 H 104.864 -0.666294 4.10933 0
M  V30 1155 H 105.397 1.01212 3.84709 0
M  V30 1156 H 102.136 3.47224 5.55982 0
M  V30 1157 H 101.656 1.76827 5.73142 0
M  V30 1158 H 103.335 2.2626 6.06148 0
M  V30 1159 N 103.467 -1.45747 0.599634 0
M  V30 1160 C 104.692 -2.07178 0.0960198 0
M  V30 1161 C 105.117 -1.44268 -1.207 0
M  V30 1162 O 104.475 -0.532503 -1.73303 0
M  V30 1163 C 104.523 -3.60579 -0.0385348 0
M  V30 1164 O 103.627 -3.97713 -1.0908 0
M  V30 1165 H 102.968 -0.660251 0.0704593 0
M  V30 1166 H 105.498 -1.87124 0.827385 0
M  V30 1167 H 105.508 -4.07298 -0.239304 0
M  V30 1168 H 104.183 -4.05756 0.912947 0
M  V30 1169 H 102.76 -3.62678 -0.867135 0
M  V30 1170 N 104.945 -0.338344 -1.53925 0
M  V30 1171 C 106.191 0.260143 -2.01125 0
M  V30 1172 C 106.524 1.50617 -1.22589 0
M  V30 1173 O 105.799 1.91979 -0.312113 0
M  V30 1174 C 106.082 0.579499 -3.55407 0
M  V30 1175 C 105.935 -0.678264 -4.44657 0
M  V30 1176 C 107.254 1.39122 -4.17532 0
M  V30 1177 H 104.373 0.0930772 -0.731099 0
M  V30 1178 H 107.015 -0.457852 -1.84401 0
M  V30 1179 H 105.165 1.19118 -3.69788 0
M  V30 1180 H 106.837 -1.31631 -4.42121 0
M  V30 1181 H 105.08 -1.3042 -4.13731 0
M  V30 1182 H 105.751 -0.410143 -5.50474 0
M  V30 1183 H 108.227 0.874035 -4.06817 0
M  V30 1184 H 107.103 1.58342 -5.25565 0
M  V30 1185 H 107.364 2.39178 -3.71815 0
M  V30 1186 N 106.423 1.57458 -0.0668435 0
M  V30 1187 C 107.333 2.15937 0.916975 0
M  V30 1188 C 108.349 1.12123 1.33058 0
M  V30 1189 O 109.525 1.44366 1.40429 0
M  V30 1190 C 106.59 2.70547 2.16807 0
M  V30 1191 C 105.651 3.89215 1.81135 0
M  V30 1192 C 104.884 4.41211 3.0028 0
M  V30 1193 O 105.107 3.92225 4.14144 0
M  V30 1194 O 104.041 5.32605 2.80384 0
M  V30 1195 H 107.867 3.00354 0.449561 0
M  V30 1196 H 105.452 1.48584 0.155949 0
M  V30 1197 H 107.334 3.0557 2.90181 0
M  V30 1198 H 106.009 1.89192 2.62656 0
M  V30 1199 H 104.916 3.59054 1.05028 0
M  V30 1200 H 106.249 4.71848 1.40073 0
M  V30 1201 N 107.901 -0.206675 1.56239 0
M  V30 1202 C 108.831 -1.25909 1.96645 0
M  V30 1203 C 109.812 -1.48097 0.836734 0
M  V30 1204 O 110.997 -1.6003 1.10019 0
M  V30 1205 C 108.127 -2.6058 2.29599 0
M  V30 1206 C 107.081 -2.53024 3.452 0
M  V30 1207 C 106.407 -3.91861 3.63798 0
M  V30 1208 C 107.707 -2.06524 4.79734 0
M  V30 1209 H 109.401 -0.923369 2.84806 0
M  V30 1210 H 106.947 -0.442735 1.37025 0
M  V30 1211 H 108.9 -3.34375 2.56459 0
M  V30 1212 H 107.624 -2.95869 1.38307 0
M  V30 1213 H 106.283 -1.81684 3.18412 0
M  V30 1214 H 105.931 -4.24483 2.69857 0
M  V30 1215 H 105.631 -3.87683 4.4156 0
M  V30 1216 H 107.155 -4.67296 3.93022 0
M  V30 1217 H 108.569 -2.70072 5.05702 0
M  V30 1218 H 106.966 -2.13374 5.60885 0
M  V30 1219 H 108.036 -1.01802 4.74093 0
M  V30 1220 N 109.379 -1.50304 -0.473955 0
M  V30 1221 C 110.79 -1.54042 -1.0549 0
M  V30 1222 C 111.141 -0.342248 -1.93192 0
M  V30 1223 O 110.266 0.545157 -2.09421 0
M  V30 1224 C 110.861 -2.79152 -1.91989 0
M  V30 1225 C 109.42 -2.8558 -2.45196 0
M  V30 1226 C 108.567 -2.48295 -1.2347 0
M  V30 1227 H 111.518 -1.5661 -0.256693 0
M  V30 1228 H 111.539 -2.60845 -2.7702 0
M  V30 1229 H 111.051 -3.66339 -1.28131 0
M  V30 1230 H 109.152 -2.02738 -3.12615 0
M  V30 1231 H 109.265 -3.88403 -2.80499 0
M  V30 1232 H 107.629 -2.00669 -1.56856 0
M  V30 1233 H 108.412 -3.37787 -0.612789 0
M  V30 1234 N 110.857 0.726932 -1.39834 0
M  V30 1235 C 111.767 1.87131 -1.41489 0
M  V30 1236 C 112.783 1.71239 -0.308757 0
M  V30 1237 O 113.959 1.93701 -0.551529 0
M  V30 1238 C 111.024 3.22811 -1.26468 0
M  V30 1239 C 110.085 3.51039 -2.47124 0
M  V30 1240 C 109.318 4.80245 -2.3281 0
M  V30 1241 O 109.541 5.54537 -1.33585 0
M  V30 1242 O 108.475 5.08554 -3.21957 0
M  V30 1243 H 112.301 1.8869 -2.3797 0
M  V30 1244 H 109.886 0.875837 -1.21035 0
M  V30 1245 H 111.768 4.03877 -1.20255 0
M  V30 1246 H 110.443 3.22005 -0.330862 0
M  V30 1247 H 109.35 2.70027 -2.58914 0
M  V30 1248 H 110.683 3.56632 -3.39227 0
M  V30 1249 N 112.336 1.25143 0.95797 0
M  V30 1250 C 113.284 1.05019 2.07542 0
M  V30 1251 C 114.278 -0.0178751 1.69391 0
M  V30 1252 O 115.484 0.137472 1.79474 0
M  V30 1253 H 111.859 0.32265 0.679265 0
M  V30 1254 H 113.83 1.99759 2.21673 0
M  V30 1255 C 112.579 0.682074 3.40944 0
M  V30 1256 H 111.902 1.49573 3.70767 0
M  V30 1257 H 113.342 0.580945 4.20001 0
M  V30 1258 C 111.801 -0.611608 3.31302 0
M  V30 1259 O 112.331 -1.65465 3.66038 0
M  V30 1260 N 110.537 -0.595982 2.84423 0
M  V30 1261 H 110.084 0.253192 2.56353 0
M  V30 1262 H 110.042 -1.46173 2.78354 0
M  V30 1263 N 113.814 -1.1601 1.06675 0
M  V30 1264 C 114.744 -2.22688 0.702307 0
M  V30 1265 C 115.725 -1.67306 -0.307032 0
M  V30 1266 O 116.91 -1.93352 -0.181305 0
M  V30 1267 C 114.04 -3.47178 0.092038 0
M  V30 1268 C 112.994 -4.15477 1.02777 0
M  V30 1269 C 112.32 -5.33963 0.28061 0
M  V30 1270 C 113.62 -4.66019 2.35846 0
M  V30 1271 H 115.314 -2.53429 1.59419 0
M  V30 1272 H 112.86 -1.21813 0.767961 0
M  V30 1273 H 114.813 -4.21037 -0.174814 0
M  V30 1274 H 113.537 -3.15749 -0.834877 0
M  V30 1275 H 112.196 -3.43549 1.27944 0
M  V30 1276 H 111.844 -4.98788 -0.649545 0
M  V30 1277 H 111.544 -5.806 0.904258 0
M  V30 1278 H 113.068 -6.10596 0.021396 0
M  V30 1279 H 114.482 -5.3144 2.15045 0
M  V30 1280 H 112.879 -5.23293 2.93743 0
M  V30 1281 H 113.949 -3.82023 2.98641 0
M  V30 1282 N 115.292 -0.849877 -1.32721 0
M  V30 1283 C 116.569 -0.372405 -1.92022 0
M  V30 1284 C 116.949 1.1435 -1.77447 0
M  V30 1285 O 116.297 1.96296 -1.16962 0
M  V30 1286 C 116.507 -0.831482 -3.3895 0
M  V30 1287 C 117.855 -0.845882 -4.16089 0
M  V30 1288 O 118.879 -0.775806 -3.47649 0
M  V30 1289 O 117.738 -0.943753 -5.38289 0
M  V30 1290 H 114.832 -0.107667 -0.819961 0
M  V30 1291 H 117.378 -0.93646 -1.41522 0
M  V30 1292 H 116.15 -1.87448 -3.4348 0
M  V30 1293 H 115.773 -0.24461 -3.96847 0
M  V30 1294 N 116.77 1.45427 -0.607355 0
M  V30 1295 C 117.703 2.27635 0.160482 0
M  V30 1296 C 118.681 1.37122 0.873857 0
M  V30 1297 O 119.865 1.66551 0.882775 0
M  V30 1298 C 116.992 3.15486 1.23231 0
M  V30 1299 C 116.038 4.21939 0.622097 0
M  V30 1300 S 116.871 5.32459 -0.569852 0
M  V30 1301 C 118.027 6.23879 0.502577 0
M  V30 1302 H 118.26 2.9241 -0.536983 0
M  V30 1303 H 115.793 1.49265 -0.394868 0
M  V30 1304 H 117.751 3.66659 1.84585 0
M  V30 1305 H 116.412 2.49977 1.90185 0
M  V30 1306 H 115.605 4.8333 1.42856 0
M  V30 1307 H 115.207 3.73906 0.0837063 0
M  V30 1308 H 117.499 6.63261 1.38171 0
M  V30 1309 H 118.442 7.0806 -0.0751759 0
M  V30 1310 H 118.85 5.58545 0.8178 0
M  V30 1311 N 118.248 0.346503 1.53744 0
M  V30 1312 C 119.18 -0.543316 2.22667 0
M  V30 1313 C 120.193 -1.06159 1.23427 0
M  V30 1314 O 121.382 -0.971235 1.49764 0
M  V30 1315 C 118.482 -1.76076 2.89569 0
M  V30 1316 C 117.655 -1.37727 4.15151 0
M  V30 1317 C 116.714 -2.45471 4.65436 0
M  V30 1318 O 115.74 -2.08655 5.29577 0
M  V30 1319 N 116.942 -3.7677 4.41616 0
M  V30 1320 H 119.707 0.0469703 2.99663 0
M  V30 1321 H 117.268 0.170766 1.60997 0
M  V30 1322 H 119.26 -2.47593 3.20125 0
M  V30 1323 H 117.83 -2.25835 2.16142 0
M  V30 1324 H 117.05 -0.492746 3.91108 0
M  V30 1325 H 118.338 -1.09708 4.96832 0
M  V30 1326 H 117.736 -4.09467 3.90325 0
M  V30 1327 H 116.293 -4.44448 4.7677 0
M  V30 1328 N 119.726 -1.57421 0.075193 0
M  V30 1329 C 120.951 -1.98364 -0.605515 0
M  V30 1330 C 121.376 -0.953383 -1.62149 0
M  V30 1331 O 120.734 0.0806053 -1.81121 0
M  V30 1332 C 120.782 -3.38332 -1.24756 0
M  V30 1333 O 119.886 -3.37959 -2.36342 0
M  V30 1334 H 119.227 -0.645553 -0.155428 0
M  V30 1335 H 121.757 -2.04044 0.150714 0
M  V30 1336 H 121.767 -3.75591 -1.5936 0
M  V30 1337 H 120.442 -4.12846 -0.503129 0
M  V30 1338 H 119.019 -3.12474 -2.03506 0
M  V30 1339 N 121.204 0.198386 -1.56346 0
M  V30 1340 C 122.615 0.763358 -1.70381 0
M  V30 1341 C 122.966 1.83995 -0.681203 0
M  V30 1342 O 122.091 2.15785 0.16305 0
M  V30 1343 C 122.686 1.39143 -3.08909 0
M  V30 1344 C 121.245 1.90352 -3.2472 0
M  V30 1345 C 120.392 0.772233 -2.6633 0
M  V30 1346 H 123.343 -0.0266377 -1.58678 0
M  V30 1347 H 123.364 2.26076 -3.06055 0
M  V30 1348 H 122.876 0.607638 -3.83314 0
M  V30 1349 H 120.977 2.71461 -2.55225 0
M  V30 1350 H 121.09 2.06757 -4.3219 0
M  V30 1351 H 119.454 1.18566 -2.2542 0
M  V30 1352 H 120.237 0.00073556 -3.433 0
M  V30 1353 N 122.682 1.50554 0.465978 0
M  V30 1354 C 123.91 1.65563 1.24083 0
M  V30 1355 C 124.325 0.341051 1.85694 0
M  V30 1356 O 123.682 -0.677543 1.69457 0
M  V30 1357 C 123.733 2.75051 2.34583 0
M  V30 1358 O 123.454 4.01413 1.75497 0
M  V30 1359 C 124.955 3.01078 3.25372 0
M  V30 1360 H 122.175 0.55638 0.375077 0
M  V30 1361 H 124.719 1.96807 0.555624 0
M  V30 1362 H 122.874 2.46486 2.9887 0
M  V30 1363 H 123.288 4.62002 2.48303 0
M  V30 1364 H 124.762 3.81339 3.99105 0
M  V30 1365 H 125.239 2.12349 3.84453 0
M  V30 1366 H 125.845 3.31194 2.66816 0
M  V30 1367 N 124.16 -0.719506 1.40217 0
M  V30 1368 C 125.093 -1.84298 1.34571 0
M  V30 1369 C 126.071 -1.61149 0.216741 0
M  V30 1370 O 127.255 -1.84212 0.399756 0
M  V30 1371 C 124.382 -3.20568 1.09335 0
M  V30 1372 C 123.428 -3.62551 2.24631 0
M  V30 1373 S 124.261 -3.7012 3.87004 0
M  V30 1374 C 125.417 -5.09154 3.64024 0
M  V30 1375 H 125.65 -1.88807 2.2965 0
M  V30 1376 H 123.183 -0.885901 1.26456 0
M  V30 1377 H 125.141 -3.99246 0.954602 0
M  V30 1378 H 123.802 -3.13696 0.159164 0
M  V30 1379 H 122.995 -4.61483 2.02606 0
M  V30 1380 H 122.597 -2.91119 2.34789 0
M  V30 1381 H 124.889 -5.95955 3.22248 0
M  V30 1382 H 125.832 -5.36213 4.62473 0
M  V30 1383 H 126.24 -4.79562 2.97793 0
M  V30 1384 N 125.638 -1.25649 -0.95132 0
M  V30 1385 C 126.866 -1.13343 -1.73092 0
M  V30 1386 C 127.281 0.312434 -1.86197 0
M  V30 1387 O 126.638 1.21465 -1.36207 0
M  V30 1388 C 126.689 -1.78602 -3.14299 0
M  V30 1389 O 126.41 -3.17537 -3.01831 0
M  V30 1390 C 127.911 -1.72119 -4.08522 0
M  V30 1391 H 125.131 -0.395181 -0.542285 0
M  V30 1392 H 127.675 -1.66076 -1.19328 0
M  V30 1393 H 125.83 -1.29832 -3.64996 0
M  V30 1394 H 126.244 -3.49676 -3.90931 0
M  V30 1395 H 127.718 -2.22435 -5.052 0
M  V30 1396 H 128.195 -0.685635 -4.33815 0
M  V30 1397 H 128.801 -2.20393 -3.63741 0
M  V30 1398 N 127.117 1.15442 -1.07289 0
M  V30 1399 C 128.047 2.22312 -0.714107 0
M  V30 1400 C 129.028 1.67467 0.298155 0
M  V30 1401 O 130.213 1.93445 0.171048 0
M  V30 1402 C 127.343 3.47124 -0.110448 0
M  V30 1403 C 126.297 4.14926 -1.04979 0
M  V30 1404 C 125.623 5.33807 -0.308924 0
M  V30 1405 C 126.923 4.64762 -2.38314 0
M  V30 1406 H 128.617 2.5258 -1.6076 0
M  V30 1407 H 126.163 1.21404 -0.77441 0
M  V30 1408 H 128.116 4.21124 0.152482 0
M  V30 1409 H 126.84 3.16187 0.81812 0
M  V30 1410 H 125.499 3.42866 -1.29764 0
M  V30 1411 H 125.147 4.99126 0.623084 0
M  V30 1412 H 124.847 5.80113 -0.935036 0
M  V30 1413 H 126.371 6.10576 -0.0537771 0
M  V30 1414 H 127.785 5.30292 -2.1786 0
M  V30 1415 H 126.182 5.21728 -2.96514 0
M  V30 1416 H 127.252 3.80434 -3.00663 0
M  V30 1417 N 128.595 0.856903 1.32268 0
M  V30 1418 C 129.844 0.457599 1.96441 0
M  V30 1419 C 130.157 -0.992426 1.68553 0
M  V30 1420 O 131.363 -1.49727 2.26482 0
M  V30 1421 C 129.819 0.767358 3.51624 0
M  V30 1422 C 129.427 2.23326 3.88367 0
M  V30 1423 C 131.171 0.435887 4.22256 0
M  V30 1424 C 129.078 2.48613 5.36606 0
M  V30 1425 H 128.008 0.167387 0.735185 0
M  V30 1426 H 130.659 1.048 1.5063 0
M  V30 1427 H 129.041 0.106367 3.95857 0
M  V30 1428 H 130.215 2.93623 3.55137 0
M  V30 1429 H 128.53 2.52948 3.30766 0
M  V30 1430 H 131.127 0.602202 5.31298 0
M  V30 1431 H 131.47 -0.622672 4.11617 0
M  V30 1432 H 132.003 1.05286 3.83614 0
M  V30 1433 H 128.742 3.53101 5.52268 0
M  V30 1434 H 128.262 1.82896 5.71235 0
M  V30 1435 H 129.941 2.32676 6.03714 0
M  V30 1436 N 130.073 -1.45103 0.615059 0
M  V30 1437 C 131.303 -2.06254 0.119596 0
M  V30 1438 C 131.711 -1.4591 -1.20445 0
M  V30 1439 O 131.054 -0.570384 -1.7462 0
M  V30 1440 C 131.116 -3.59396 -0.0865591 0
M  V30 1441 C 130.78 -4.42116 1.15683 0
M  V30 1442 C 131.777 -4.7662 2.07676 0
M  V30 1443 C 129.462 -4.82749 1.38775 0
M  V30 1444 C 131.456 -5.50622 3.21082 0
M  V30 1445 C 129.143 -5.56504 2.52481 0
M  V30 1446 C 130.141 -5.90358 3.43463 0
M  V30 1447 O 129.829 -6.62615 4.55189 0
M  V30 1448 H 129.561 -0.672423 0.0694512 0
M  V30 1449 H 132.115 -1.87219 0.844885 0
M  V30 1450 H 130.345 -3.76859 -0.866823 0
M  V30 1451 H 132.034 -4.02365 -0.534555 0
M  V30 1452 H 132.8 -4.4578 1.91063 0
M  V30 1453 H 128.679 -4.55829 0.688545 0
M  V30 1454 H 132.223 -5.76965 3.92119 0
M  V30 1455 H 128.12 -5.86759 2.69043 0
M  V30 1456 H 128.888 -6.81071 4.53966 0
M  V30 1457 N 131.551 -0.354651 -1.53558 0
M  V30 1458 C 132.828 0.294281 -1.93374 0
M  V30 1459 C 133.208 1.67313 -1.28723 0
M  V30 1460 O 132.556 2.24179 -0.442247 0
M  V30 1461 C 132.766 0.355445 -3.47185 0
M  V30 1462 C 134.114 0.601007 -4.20325 0
M  V30 1463 O 135.138 0.437106 -3.53508 0
M  V30 1464 O 133.997 0.919322 -5.38712 0
M  V30 1465 H 131.091 0.174033 -0.808481 0
M  V30 1466 H 133.637 -0.406638 -1.64756 0
M  V30 1467 H 132.409 -0.611729 -3.86489 0
M  V30 1468 H 132.032 1.1027 -3.82003 0
M  V30 1469 N 133.029 1.57378 -0.0835403 0
M  V30 1470 C 133.939 2.16897 0.894021 0
M  V30 1471 C 134.955 1.13528 1.31861 0
M  V30 1472 O 136.131 1.45848 1.3889 0
M  V30 1473 C 133.196 2.72831 2.13925 0
M  V30 1474 C 132.257 3.91115 1.76997 0
M  V30 1475 C 131.49 4.44371 2.95584 0
M  V30 1476 O 131.713 3.96596 4.09961 0
M  V30 1477 O 130.647 5.35549 2.74719 0
M  V30 1478 H 134.473 3.00814 0.417679 0
M  V30 1479 H 132.058 1.48741 0.140181 0
M  V30 1480 H 133.94 3.0863 2.86924 0
M  V30 1481 H 132.615 1.91967 2.60635 0
M  V30 1482 H 131.522 3.60148 1.01214 0
M  V30 1483 H 132.855 4.73307 1.3506 0
M  V30 1484 N 134.507 -0.190092 1.56449 0
M  V30 1485 C 135.735 -0.925772 1.85033 0
M  V30 1486 C 136.15 -1.76638 0.666658 0
M  V30 1487 O 135.507 -1.78822 -0.364565 0
M  V30 1488 C 135.558 -1.81786 3.12468 0
M  V30 1489 O 135.279 -1.01118 4.26271 0
M  V30 1490 C 136.78 -2.6648 3.54265 0
M  V30 1491 H 134 -0.269872 0.614337 0
M  V30 1492 H 136.544 -0.195837 2.0356 0
M  V30 1493 H 134.699 -2.50136 2.95822 0
M  V30 1494 H 135.113 -1.61956 4.98869 0
M  V30 1495 H 136.587 -3.24722 4.46385 0
M  V30 1496 H 137.064 -3.40434 2.77491 0
M  V30 1497 H 137.67 -2.03493 3.73458 0
M  V30 1498 N 135.985 -1.50799 -0.457987 0
M  V30 1499 C 137.233 -1.62121 -1.2067 0
M  V30 1500 C 137.554 -0.329793 -1.92191 0
M  V30 1501 O 136.824 0.653409 -1.84682 0
M  V30 1502 H 135.404 -0.597441 -0.448411 0
M  V30 1503 H 138.066 -1.87637 -0.527096 0
M  V30 1504 H 137.162 -2.43882 -1.94751 0
M  V30 1505 N 137.463 0.71206 -1.40597 0
M  V30 1506 C 138.41 1.82613 -1.41142 0
M  V30 1507 C 139.38 1.63925 -0.267903 0
M  V30 1508 O 140.565 1.85009 -0.466495 0
M  V30 1509 C 137.705 3.20354 -1.28324 0
M  V30 1510 C 136.818 3.50589 -2.52411 0
M  V30 1511 C 135.953 4.77855 -2.32009 0
M  V30 1512 C 134.992 5.01005 -3.51654 0
M  V30 1513 N 134.129 6.19487 -3.30425 0
M  V30 1514 H 138.969 1.81482 -2.36365 0
M  V30 1515 H 136.506 0.886475 -1.17388 0
M  V30 1516 H 138.464 3.99899 -1.18899 0
M  V30 1517 H 137.094 3.20705 -0.367189 0
M  V30 1518 H 136.146 2.65573 -2.72351 0
M  V30 1519 H 137.458 3.63604 -3.41458 0
M  V30 1520 H 136.612 5.65424 -2.19956 0
M  V30 1521 H 135.351 4.67056 -1.40392 0
M  V30 1522 H 134.356 4.1189 -3.64179 0
M  V30 1523 H 135.581 5.13674 -4.44202 0
M  V30 1524 H 133.527 6.09932 -2.41494 0
M  V30 1525 H 133.444 6.33194 -4.13039 0
M  V30 1526 H 134.712 7.09834 -3.22113 0
M  V30 1527 N 138.941 1.26152 0.944643 0
M  V30 1528 C 139.871 1.09902 2.06019 0
M  V30 1529 C 140.852 0.00519538 1.70099 0
M  V30 1530 O 142.037 0.176583 1.93396 0
M  V30 1531 C 139.167 0.727562 3.39594 0
M  V30 1532 C 138.121 1.77274 3.89561 0
M  V30 1533 C 137.447 1.25569 5.19747 0
M  V30 1534 C 138.747 3.17357 4.14827 0
M  V30 1535 H 140.441 2.03217 2.19871 0
M  V30 1536 H 137.987 0.978452 1.05652 0
M  V30 1537 H 139.94 0.600777 4.17095 0
M  V30 1538 H 138.664 -0.241287 3.25707 0
M  V30 1539 H 137.323 1.88814 3.14237 0
M  V30 1540 H 136.971 0.276783 5.02238 0
M  V30 1541 H 136.671 1.95433 5.54148 0
M  V30 1542 H 138.195 1.1415 5.99835 0
M  V30 1543 H 139.609 3.08914 4.82954 0
M  V30 1544 H 138.006 3.84781 4.60504 0
M  V30 1545 H 139.076 3.63673 3.20734 0
M  V30 1546 N 140.419 -1.14872 1.07899 0
M  V30 1547 C 141.349 -2.2193 0.725887 0
M  V30 1548 C 142.33 -1.67622 -0.28927 0
M  V30 1549 O 143.515 -1.93533 -0.160787 0
M  V30 1550 C 140.645 -3.47061 0.128856 0
M  V30 1551 C 139.599 -4.14363 1.07178 0
M  V30 1552 C 138.925 -5.33636 0.337229 0
M  V30 1553 C 140.225 -4.63492 2.40775 0
M  V30 1554 H 141.919 -2.51724 1.62097 0
M  V30 1555 H 139.465 -1.20991 0.780838 0
M  V30 1556 H 141.418 -4.21199 -0.130147 0
M  V30 1557 H 140.142 -3.16617 -0.80134 0
M  V30 1558 H 138.801 -3.42173 1.3158 0
M  V30 1559 H 138.449 -4.99449 -0.596606 0
M  V30 1560 H 138.149 -5.79609 0.965788 0
M  V30 1561 H 139.673 -6.10539 0.0861567 0
M  V30 1562 H 141.087 -5.2913 2.20669 0
M  V30 1563 H 139.484 -5.20148 2.99276 0
M  V30 1564 H 140.554 -3.78834 3.02676 0
M  V30 1565 N 141.898 -0.863906 -1.31812 0
M  V30 1566 C 143.144 -0.481841 -1.9761 0
M  V30 1567 C 143.499 0.954048 -1.6708 0
M  V30 1568 O 142.792 1.66182 -0.953624 0
M  V30 1569 C 142.986 -0.668547 -3.51091 0
M  V30 1570 C 142.815 -2.12103 -3.96538 0
M  V30 1571 C 141.585 -2.76141 -4.23171 0
M  V30 1572 C 143.783 -3.09265 -4.10925 0
M  V30 1573 N 141.765 -4.12205 -4.54929 0
M  V30 1574 C 143.136 -4.30341 -4.46326 0
M  V30 1575 C 145.191 -3.05337 -3.93286 0
M  V30 1576 C 143.894 -5.48 -4.65928 0
M  V30 1577 C 145.92 -4.22248 -4.14078 0
M  V30 1578 C 145.282 -5.42085 -4.49804 0
M  V30 1579 H 141.381 -0.225238 -0.74886 0
M  V30 1580 H 143.965 -1.11723 -1.59455 0
M  V30 1581 H 142.136 -0.0627898 -3.88349 0
M  V30 1582 H 143.868 -0.255467 -4.03893 0
M  V30 1583 H 140.623 -2.27125 -4.15585 0
M  V30 1584 H 141.047 -4.82416 -4.74978 0
M  V30 1585 H 145.689 -2.138 -3.64759 0
M  V30 1586 H 143.407 -6.40059 -4.93305 0
M  V30 1587 H 146.993 -4.20654 -4.01922 0
M  V30 1588 H 145.873 -6.31044 -4.65567 0
M  V30 1589 N 143.376 1.44774 -0.622745 0
M  V30 1590 C 144.604 2.06487 -0.130722 0
M  V30 1591 C 145.019 1.46476 1.19123 0
M  V30 1592 O 144.376 0.584502 1.72887 0
M  V30 1593 C 144.427 3.615 -0.000807207 0
M  V30 1594 O 144.148 4.19274 -1.27048 0
M  V30 1595 C 145.649 4.40229 0.520898 0
M  V30 1596 H 142.869 0.666704 -0.0758106 0
M  V30 1597 H 145.413 1.85779 -0.854774 0
M  V30 1598 H 143.568 3.81498 0.673643 0
M  V30 1599 H 143.982 5.12622 -1.1099 0
M  V30 1600 H 145.456 5.49144 0.560838 0
M  V30 1601 H 145.933 4.1108 1.54627 0
M  V30 1602 H 146.539 4.25131 -0.120018 0
M  V30 1603 N 144.854 0.36279 1.53368 0
M  V30 1604 C 145.786 -0.519668 2.23231 0
M  V30 1605 C 146.799 -1.04844 1.24546 0
M  V30 1606 O 147.988 -0.955296 1.50786 0
M  V30 1607 C 145.088 -1.72995 2.9142 0
M  V30 1608 C 144.261 -1.33316 4.16588 0
M  V30 1609 C 143.32 -2.40521 4.68013 0
M  V30 1610 O 142.346 -2.03027 5.3176 0
M  V30 1611 N 143.548 -3.72065 4.45587 0
M  V30 1612 H 146.313 0.078751 2.99597 0
M  V30 1613 H 143.874 0.187833 1.60807 0
M  V30 1614 H 145.866 -2.44184 3.22733 0
M  V30 1615 H 144.436 -2.2353 2.18525 0
M  V30 1616 H 143.656 -0.451236 3.91609 0
M  V30 1617 H 144.944 -1.04432 4.97967 0
M  V30 1618 H 144.342 -4.05304 3.94646 0
M  V30 1619 H 142.899 -4.39366 4.81457 0
M  V30 1620 N 146.332 -1.57332 0.0918853 0
M  V30 1621 C 147.748 -1.57389 -0.264766 0
M  V30 1622 C 147.948 -1.10281 -1.68643 0
M  V30 1623 O 147.004 -0.777801 -2.40222 0
M  V30 1624 C 148.317 -3.00648 -0.0561195 0
M  V30 1625 C 149.865 -3.12754 -0.124116 0
M  V30 1626 C 150.34 -4.57965 0.0564972 0
M  V30 1627 N 151.831 -4.632 0.00155611 0
M  V30 1628 C 152.566 -5.73281 0.116598 0
M  V30 1629 N 152.062 -6.92208 0.286294 0
M  V30 1630 N 153.855 -5.6207 0.0580973 0
M  V30 1631 H 146.006 -1.86262 1.02079 0
M  V30 1632 H 148.269 -0.859579 0.399786 0
M  V30 1633 H 147.975 -3.393 0.925669 0
M  V30 1634 H 147.849 -3.68623 -0.799823 0
M  V30 1635 H 150.236 -2.73976 -1.09641 0
M  V30 1636 H 150.317 -2.47377 0.651024 0
M  V30 1637 H 149.961 -4.97436 1.02564 0
M  V30 1638 H 149.891 -5.21399 -0.738297 0
M  V30 1639 H 152.382 -3.77686 -0.127192 0
M  V30 1640 H 152.695 -7.71934 0.365676 0
M  V30 1641 H 151.04 -6.94254 0.32192 0
M  V30 1642 H 154.231 -4.68043 -0.0733204 0
M  V30 1643 H 154.404 -6.47824 0.151203 0
M  V30 1644 N 147.81 0.181792 -1.56548 0
M  V30 1645 C 148.758 1.24461 -1.965 0
M  V30 1646 C 149.752 1.464 -0.852261 0
M  V30 1647 O 150.958 1.47103 -1.03733 0
M  V30 1648 H 147.333 0.418138 -0.625031 0
M  V30 1649 H 149.304 0.880714 -2.85107 0
M  V30 1650 C 148.053 2.57891 -2.33212 0
M  V30 1651 H 147.376 2.41829 -3.18369 0
M  V30 1652 H 148.816 3.3097 -2.65019 0
M  V30 1653 C 147.275 3.15871 -1.17163 0
M  V30 1654 O 147.805 3.9913 -0.453708 0
M  V30 1655 N 146.011 2.74808 -0.944936 0
M  V30 1656 H 145.558 2.07205 -1.53049 0
M  V30 1657 H 145.516 3.13939 -0.170286 0
M  V30 1658 N 149.288 1.51039 0.449983 0
M  V30 1659 C 150.537 1.62317 1.19733 0
M  V30 1660 C 150.85 0.339101 1.92638 0
M  V30 1661 O 152.056 0.331069 2.69474 0
M  V30 1662 C 150.512 2.86608 2.17678 0
M  V30 1663 C 150.12 4.21972 1.50479 0
M  V30 1664 C 151.864 3.07239 2.92924 0
M  V30 1665 C 149.771 5.37426 2.46834 0
M  V30 1666 H 148.701 0.604532 0.450619 0
M  V30 1667 H 151.352 1.77494 0.465625 0
M  V30 1668 H 149.734 2.65037 2.94231 0
M  V30 1669 H 150.908 4.53878 0.795716 0
M  V30 1670 H 149.223 4.07117 0.874344 0
M  V30 1671 H 151.82 3.90668 3.65079 0
M  V30 1672 H 152.163 2.19807 3.5354 0
M  V30 1673 H 152.696 3.29091 2.23481 0
M  V30 1674 H 149.435 6.27079 1.90926 0
M  V30 1675 H 148.955 5.09912 3.15832 0
M  V30 1676 H 150.634 5.68862 3.08228 0
M  V30 1677 N 150.766 -0.704594 1.40972 0
M  V30 1678 C 152.177 -1.28418 1.3552 0
M  V30 1679 C 152.528 -1.96171 0.0339434 0
M  V30 1680 O 151.653 -1.98231 -0.867944 0
M  V30 1681 C 152.248 -2.33528 2.45459 0
M  V30 1682 C 150.807 -2.87085 2.43433 0
M  V30 1683 C 149.954 -1.61007 2.2577 0
M  V30 1684 H 152.905 -0.499963 1.50619 0
M  V30 1685 H 152.926 -3.14619 2.13998 0
M  V30 1686 H 152.438 -1.84187 3.41609 0
M  V30 1687 H 150.539 -3.40626 1.51013 0
M  V30 1688 H 150.652 -3.3813 3.39419 0
M  V30 1689 H 149.016 -1.86482 1.73483 0
M  V30 1690 H 149.799 -1.13675 3.23933 0
M  V30 1691 N 152.244 -1.26651 -0.937939 0
M  V30 1692 C 153.49 -1.13562 -1.68746 0
M  V30 1693 C 153.845 0.317241 -1.89767 0
M  V30 1694 O 153.138 1.22939 -1.46957 0
M  V30 1695 C 153.332 -1.84168 -3.06295 0
M  V30 1696 C 153.161 -3.36171 -2.98696 0
M  V30 1697 C 151.931 -4.05468 -3.01535 0
M  V30 1698 C 154.129 -4.32312 -2.78588 0
M  V30 1699 N 152.111 -5.44118 -2.84269 0
M  V30 1700 C 153.482 -5.58159 -2.69924 0
M  V30 1701 C 155.537 -4.22524 -2.63396 0
M  V30 1702 C 154.24 -6.75335 -2.47618 0
M  V30 1703 C 156.266 -5.39411 -2.42466 0
M  V30 1704 C 155.628 -6.64208 -2.34536 0
M  V30 1705 H 151.727 -0.470361 -0.624728 0
M  V30 1706 H 154.311 -1.59982 -1.10968 0
M  V30 1707 H 152.482 -1.40219 -3.62206 0
M  V30 1708 H 154.214 -1.63674 -3.70126 0
M  V30 1709 H 150.969 -3.56854 -3.11372 0
M  V30 1710 H 151.393 -6.1693 -2.78795 0
M  V30 1711 H 156.035 -3.26771 -2.68292 0
M  V30 1712 H 153.753 -7.71182 -2.41463 0
M  V30 1713 H 157.339 -5.33711 -2.31611 0
M  V30 1714 H 156.219 -7.53129 -2.18555 0
M  V30 1715 N 153.722 1.14298 -1.08507 0
M  V30 1716 C 154.652 2.21542 -0.737646 0
M  V30 1717 C 155.633 1.67773 0.280377 0
M  V30 1718 O 156.818 1.93616 0.150521 0
M  V30 1719 C 153.948 3.46988 -0.147259 0
M  V30 1720 C 152.902 4.13789 -1.09374 0
M  V30 1721 C 152.228 5.33449 -0.365524 0
M  V30 1722 C 153.528 4.62208 -2.4323 0
M  V30 1723 H 155.222 2.5086 -1.6343 0
M  V30 1724 H 152.768 1.20576 -0.787243 0
M  V30 1725 H 154.721 4.21262 0.107808 0
M  V30 1726 H 153.445 3.17037 0.784538 0
M  V30 1727 H 152.104 3.4147 -1.33393 0
M  V30 1728 H 151.752 4.99759 0.57011 0
M  V30 1729 H 151.452 5.79088 -0.996512 0
M  V30 1730 H 152.976 6.10485 -0.118534 0
M  V30 1731 H 154.39 5.27952 -2.23472 0
M  V30 1732 H 152.787 5.18553 -3.02031 0
M  V30 1733 H 153.857 3.77224 -3.04681 0
M  V30 1734 N 155.201 0.870884 1.31352 0
M  V30 1735 C 156.45 0.478408 1.95944 0
M  V30 1736 C 156.763 -0.974493 1.69597 0
M  V30 1737 O 157.969 -1.47316 2.28058 0
M  V30 1738 C 156.425 0.804609 3.50791 0
M  V30 1739 C 156.033 2.27433 3.85977 0
M  V30 1740 C 157.777 0.480648 4.2177 0
M  V30 1741 C 155.684 2.5429 5.33939 0
M  V30 1742 H 154.614 0.175175 0.733369 0
M  V30 1743 H 157.265 1.06391 1.4951 0
M  V30 1744 H 155.647 0.148347 3.95722 0
M  V30 1745 H 156.821 2.97373 3.52002 0
M  V30 1746 H 155.136 2.56442 3.28065 0
M  V30 1747 H 157.733 0.658519 5.30629 0
M  V30 1748 H 158.076 -0.578979 4.12254 0
M  V30 1749 H 158.609 1.09349 3.82476 0
M  V30 1750 H 155.348 3.58939 5.48491 0
M  V30 1751 H 154.868 1.88945 5.69263 0
M  V30 1752 H 156.547 2.39066 6.01212 0
M  V30 1753 N 156.679 -1.44442 0.630414 0
M  V30 1754 C 157.626 -2.30678 -0.0749355 0
M  V30 1755 C 158.596 -1.4344 -0.837502 0
M  V30 1756 O 159.781 -1.72343 -0.818684 0
M  V30 1757 C 156.921 -3.28706 -1.05103 0
M  V30 1758 C 156.034 -4.31046 -0.286954 0
M  V30 1759 C 155.169 -5.16167 -1.2548 0
M  V30 1760 C 154.208 -6.10216 -0.479843 0
M  V30 1761 N 153.345 -6.88039 -1.39811 0
M  V30 1762 H 158.185 -2.90454 0.666386 0
M  V30 1763 H 155.722 -1.43107 0.340404 0
M  V30 1764 H 157.68 -3.84027 -1.63031 0
M  V30 1765 H 156.31 -2.70632 -1.75949 0
M  V30 1766 H 155.362 -3.78203 0.408243 0
M  V30 1767 H 156.674 -4.97794 0.316657 0
M  V30 1768 H 155.828 -5.76002 -1.90544 0
M  V30 1769 H 154.567 -4.49491 -1.89233 0
M  V30 1770 H 153.572 -5.49491 0.184295 0
M  V30 1771 H 154.797 -6.78928 0.152965 0
M  V30 1772 H 152.743 -6.24032 -2.02287 0
M  V30 1773 H 152.66 -7.51223 -0.848508 0
M  V30 1774 H 153.928 -7.52397 -2.03762 0
M  V30 1775 N 158.157 -0.370918 -1.53173 0
M  V30 1776 C 159.382 0.220293 -2.06227 0
M  V30 1777 C 159.807 1.41243 -1.24225 0
M  V30 1778 O 159.165 1.79387 -0.262645 0
M  V30 1779 C 159.213 0.586663 -3.55796 0
M  V30 1780 O 158.317 1.68317 -3.76488 0
M  V30 1781 H 157.658 0.0308099 -0.663285 0
M  V30 1782 H 160.188 -0.533068 -1.97534 0
M  V30 1783 H 160.198 0.85617 -3.98916 0
M  V30 1784 H 158.873 -0.285013 -4.14922 0
M  V30 1785 H 157.45 1.40881 -3.45264 0
M  V30 1786 N 159.635 1.57281 -0.100228 0
M  V30 1787 C 160.884 1.93713 0.561984 0
M  V30 1788 C 161.197 0.984492 1.69018 0
M  V30 1789 O 162.403 1.24273 2.41389 0
M  V30 1790 C 160.859 3.4421 1.05106 0
M  V30 1791 C 160.467 4.47975 -0.0476628 0
M  V30 1792 C 162.211 3.89595 1.68571 0
M  V30 1793 C 160.118 5.89631 0.457055 0
M  V30 1794 H 159.048 0.723082 0.2137 0
M  V30 1795 H 161.699 1.82644 -0.177057 0
M  V30 1796 H 160.081 3.50449 1.84395 0
M  V30 1797 H 161.255 4.53385 -0.823333 0
M  V30 1798 H 159.57 4.1223 -0.587816 0
M  V30 1799 H 162.167 4.92832 2.07414 0
M  V30 1800 H 162.51 3.28526 2.55688 0
M  V30 1801 H 163.043 3.86078 0.958562 0
M  V30 1802 H 159.782 6.54411 -0.377616 0
M  V30 1803 H 159.302 5.87681 1.19962 0
M  V30 1804 H 160.981 6.40363 0.92437 0
M  V30 1805 N 161.113 -0.173488 1.56642 0
M  V30 1806 C 162.045 -1.23935 1.92802 0
M  V30 1807 C 163.058 -1.40589 0.820889 0
M  V30 1808 O 164.247 -1.40631 1.09933 0
M  V30 1809 C 161.347 -2.60837 2.16373 0
M  V30 1810 C 160.52 -2.6551 3.47596 0
M  V30 1811 C 159.579 -3.8376 3.60021 0
M  V30 1812 O 158.605 -3.69859 4.32658 0
M  V30 1813 N 159.807 -5.00127 2.94709 0
M  V30 1814 H 162.572 -0.932236 2.84832 0
M  V30 1815 H 160.133 -0.363268 1.57772 0
M  V30 1816 H 162.125 -3.38407 2.21952 0
M  V30 1817 H 160.695 -2.83948 1.30738 0
M  V30 1818 H 159.915 -1.74052 3.53694 0
M  V30 1819 H 161.203 -2.65641 4.33949 0
M  V30 1820 H 160.601 -5.14322 2.35563 0
M  V30 1821 H 159.158 -5.75567 3.05886 0
M  V30 1822 N 162.591 -1.51276 -0.441967 0
M  V30 1823 C 164.002 -1.56244 -1.02199 0
M  V30 1824 C 164.353 -0.383149 -1.92422 0
M  V30 1825 O 163.478 0.500613 -2.1053 0
M  V30 1826 C 164.073 -2.83162 -1.86024 0
M  V30 1827 C 162.632 -2.90716 -2.39084 0
M  V30 1828 C 161.779 -2.50858 -1.18175 0
M  V30 1829 H 164.73 -1.5712 -0.223416 0
M  V30 1830 H 164.751 -2.66663 -2.71425 0
M  V30 1831 H 164.263 -3.68974 -1.20331 0
M  V30 1832 H 162.364 -2.09323 -3.08244 0
M  V30 1833 H 162.477 -3.94266 -2.72198 0
M  V30 1834 H 160.841 -2.03951 -1.52565 0
M  V30 1835 H 161.624 -3.3901 -0.541001 0
M  V30 1836 N 164.069 0.697108 -1.41344 0
M  V30 1837 C 164.979 1.84088 -1.45427 0
M  V30 1838 C 165.995 1.70545 -0.34501 0
M  V30 1839 O 167.171 1.92488 -0.592492 0
M  V30 1840 C 164.236 3.20056 -1.33286 0
M  V30 1841 C 163.297 3.45718 -2.54514 0
M  V30 1842 C 162.53 4.75199 -2.42944 0
M  V30 1843 O 162.753 5.51579 -1.45318 0
M  V30 1844 O 161.687 5.0161 -3.32672 0
M  V30 1845 H 165.513 1.836 -2.41919 0
M  V30 1846 H 163.098 0.849966 -1.22866 0
M  V30 1847 H 164.98 4.01236 -1.28794 0
M  V30 1848 H 163.655 3.2123 -0.39909 0
M  V30 1849 H 162.562 2.64474 -2.64583 0
M  V30 1850 H 163.895 3.49356 -3.46715 0
M  V30 1851 N 165.547 1.27147 0.931209 0
M  V30 1852 C 166.793 1.14455 1.68141 0
M  V30 1853 C 167.148 -0.307172 1.89932 0
M  V30 1854 O 166.441 -1.22158 1.47607 0
M  V30 1855 C 166.635 1.8579 3.05314 0
M  V30 1856 C 166.464 3.3775 2.96909 0
M  V30 1857 C 165.234 4.07062 2.99381 0
M  V30 1858 C 167.432 4.33783 2.76291 0
M  V30 1859 N 165.414 5.45618 2.8138 0
M  V30 1860 C 166.785 5.59582 2.6696 0
M  V30 1861 C 168.84 4.23915 2.61152 0
M  V30 1862 C 167.543 6.76639 2.44033 0
M  V30 1863 C 169.569 5.40689 2.39602 0
M  V30 1864 C 168.931 6.65443 2.3101 0
M  V30 1865 H 165.03 0.473667 0.622225 0
M  V30 1866 H 167.614 1.60568 1.10118 0
M  V30 1867 H 165.785 1.42138 3.61457 0
M  V30 1868 H 167.517 1.65634 3.69253 0
M  V30 1869 H 164.272 3.585 3.09475 0
M  V30 1870 H 164.696 6.184 2.75519 0
M  V30 1871 H 169.338 3.28189 2.66555 0
M  V30 1872 H 167.056 7.72451 2.3737 0
M  V30 1873 H 170.642 5.34932 2.28778 0
M  V30 1874 H 169.522 7.54277 2.14558 0
M  V30 1875 N 167.025 -1.13721 1.09112 0
M  V30 1876 C 167.955 -2.21148 0.749385 0
M  V30 1877 C 168.936 -1.6792 -0.271475 0
M  V30 1878 O 170.121 -1.93693 -0.140251 0
M  V30 1879 C 167.251 -3.46905 0.165659 0
M  V30 1880 C 166.205 -4.13203 1.11567 0
M  V30 1881 C 165.531 -5.33248 0.393809 0
M  V30 1882 C 166.831 -4.60912 2.45678 0
M  V30 1883 H 168.525 -2.4999 1.64758 0
M  V30 1884 H 166.071 -1.20156 0.793626 0
M  V30 1885 H 168.024 -4.21313 -0.085466 0
M  V30 1886 H 166.748 -3.17449 -0.767714 0
M  V30 1887 H 165.407 -3.40758 1.35202 0
M  V30 1888 H 165.055 -5.00054 -0.543599 0
M  V30 1889 H 164.755 -5.78552 1.02721 0
M  V30 1890 H 166.279 -6.10413 0.150908 0
M  V30 1891 H 167.693 -5.26759 2.26269 0
M  V30 1892 H 166.09 -5.16944 3.04776 0
M  V30 1893 H 167.16 -3.75603 3.06677 0
M  V30 1894 N 168.503 -0.877838 -1.30888 0
M  V30 1895 C 169.45 -0.337538 -2.28318 0
M  V30 1896 C 170.42 0.568346 -1.56074 0
M  V30 1897 O 171.605 0.498298 -1.84178 0
M  V30 1898 C 168.745 0.448142 -3.42178 0
M  V30 1899 C 167.858 -0.48615 -4.29256 0
M  V30 1900 C 166.993 0.314427 -5.30269 0
M  V30 1901 C 166.032 -0.615791 -6.08995 0
M  V30 1902 N 165.169 0.14902 -7.01942 0
M  V30 1903 H 170.009 -1.17356 -2.73919 0
M  V30 1904 H 167.546 -0.590094 -1.34745 0
M  V30 1905 H 169.504 0.919517 -4.06941 0
M  V30 1906 H 168.134 1.24879 -2.97666 0
M  V30 1907 H 167.186 -1.076 -3.64865 0
M  V30 1908 H 168.498 -1.19909 -4.84173 0
M  V30 1909 H 167.652 0.847969 -6.00745 0
M  V30 1910 H 166.391 1.06062 -4.76027 0
M  V30 1911 H 165.396 -1.16102 -5.37401 0
M  V30 1912 H 166.621 -1.36097 -6.65323 0
M  V30 1913 H 164.567 0.877884 -6.50099 0
M  V30 1914 H 164.484 -0.504433 -7.54315 0
M  V30 1915 H 165.752 0.663537 -7.76671 0
M  V30 1916 N 169.982 1.44106 -0.638065 0
M  V30 1917 C 171.21 2.06336 -0.152615 0
M  V30 1918 C 171.625 1.47731 1.17563 0
M  V30 1919 O 170.982 0.602806 1.72257 0
M  V30 1920 C 171.033 3.61479 -0.0391491 0
M  V30 1921 O 170.754 4.17903 -1.31487 0
M  V30 1922 C 172.255 4.40757 0.474176 0
M  V30 1923 H 169.475 0.665862 -0.0828776 0
M  V30 1924 H 172.019 1.84862 -0.87443 0
M  V30 1925 H 170.174 3.82191 0.633142 0
M  V30 1926 H 170.588 5.11416 -1.16421 0
M  V30 1927 H 172.062 5.49707 0.502562 0
M  V30 1928 H 172.539 4.12697 1.50258 0
M  V30 1929 H 173.145 4.24979 -0.165102 0
M  V30 1930 N 171.46 0.379036 1.52974 0
M  V30 1931 C 172.408 -0.476033 2.27677 0
M  V30 1932 C 173.402 -1.0719 1.31174 0
M  V30 1933 O 174.608 -1.01355 1.48752 0
M  V30 1934 H 170.983 -0.172255 0.732006 0
M  V30 1935 H 172.954 0.175615 2.97883 0
M  V30 1936 C 171.703 -1.5967 3.0887 0
M  V30 1937 H 171.026 -1.1475 3.82978 0
M  V30 1938 H 172.466 -2.16943 3.64296 0
M  V30 1939 C 170.925 -2.54682 2.20542 0
M  V30 1940 O 171.455 -3.57836 1.82527 0
M  V30 1941 N 169.661 -2.24183 1.84907 0
M  V30 1942 H 169.208 -1.40333 2.1602 0
M  V30 1943 H 169.166 -2.88006 1.26096 0
M  V30 1944 N 172.938 -1.57226 0.108567 0
M  V30 1945 C 174.186 -1.94448 -0.550853 0
M  V30 1946 C 174.507 -0.992074 -1.67878 0
M  V30 1947 O 173.777 -0.0465 -1.95845 0
M  V30 1948 H 172.357 -0.717897 -0.206479 0
M  V30 1949 H 175.019 -1.94112 0.175062 0
M  V30 1950 H 174.115 -2.97218 -0.952259 0
M  V30 1951 N 174.416 0.165178 -1.56732 0
M  V30 1952 C 175.663 0.880807 -1.8234 0
M  V30 1953 C 175.991 1.81977 -0.686621 0
M  V30 1954 O 175.246 1.92971 0.325697 0
M  V30 1955 C 175.545 1.70405 -3.1416 0
M  V30 1956 C 175.211 0.913475 -4.4155 0
M  V30 1957 C 173.873 0.695303 -4.7615 0
M  V30 1958 C 176.225 0.359349 -5.1996 0
M  V30 1959 C 173.553 -0.0879947 -5.86634 0
M  V30 1960 C 175.905 -0.410893 -6.31264 0
M  V30 1961 C 174.569 -0.639808 -6.64427 0
M  V30 1962 H 173.839 0.32231 -0.667231 0
M  V30 1963 H 176.486 0.145402 -1.90947 0
M  V30 1964 H 174.791 2.50903 -3.00923 0
M  V30 1965 H 176.488 2.26091 -3.31186 0
M  V30 1966 H 173.078 1.09357 -4.14414 0
M  V30 1967 H 177.262 0.515228 -4.93618 0
M  V30 1968 H 172.518 -0.27503 -6.10781 0
M  V30 1969 H 176.692 -0.847494 -6.91224 0
M  V30 1970 H 174.319 -1.24864 -7.49875 0
M  V30 1971 N 175.894 1.51508 0.433938 0
M  V30 1972 C 176.844 1.69451 1.52546 0
M  V30 1973 C 177.828 0.548474 1.51263 0
M  V30 1974 O 179.02 0.804529 1.57659 0
M  V30 1975 C 176.149 1.82604 2.90707 0
M  V30 1976 C 175.235 3.03002 2.96733 0
M  V30 1977 N 175.626 4.26121 2.72496 0
M  V30 1978 C 173.924 3.02327 3.27894 0
M  V30 1979 C 174.625 5.07407 2.84452 0
M  V30 1980 N 173.601 4.42126 3.16269 0
M  V30 1981 H 177.403 2.62305 1.32564 0
M  V30 1982 H 174.917 1.49202 0.641297 0
M  V30 1983 H 176.914 1.93569 3.69238 0
M  V30 1984 H 175.574 0.909339 3.11707 0
M  V30 1985 H 176.585 4.55009 2.4736 0
M  V30 1986 H 173.262 2.20301 3.54646 0
M  V30 1987 H 174.652 6.15422 2.69639 0
M  V30 1988 N 177.372 -0.689602 1.41712 0
M  V30 1989 C 178.282 -1.83314 1.46401 0
M  V30 1990 C 179.298 -1.7036 0.35405 0
M  V30 1991 O 180.474 -1.92171 0.602692 0
M  V30 1992 C 177.539 -3.19344 1.34982 0
M  V30 1993 C 176.6 -3.44363 2.56344 0
M  V30 1994 C 175.833 -4.73904 2.45461 0
M  V30 1995 O 176.056 -5.508 1.48241 0
M  V30 1996 O 174.99 -4.99839 3.35328 0
M  V30 1997 H 178.816 -1.82314 2.42889 0
M  V30 1998 H 176.401 -0.843438 1.23315 0
M  V30 1999 H 178.283 -4.00547 1.3092 0
M  V30 2000 H 176.958 -3.21014 0.41612 0
M  V30 2001 H 175.865 -2.63067 2.65982 0
M  V30 2002 H 177.198 -3.47512 3.48563 0
M  V30 2003 N 178.85 -1.27639 -0.924453 0
M  V30 2004 C 180.099 -1.13549 -1.66702 0
M  V30 2005 C 180.412 0.317487 -1.93006 0
M  V30 2006 O 181.618 0.579333 -2.65247 0
M  V30 2007 C 180.074 -1.98426 -3.00259 0
M  V30 2008 C 179.682 -3.484 -2.81641 0
M  V30 2009 C 181.426 -1.92993 -3.78092 0
M  V30 2010 C 179.333 -4.25464 -4.10773 0
M  V30 2011 H 178.263 -0.421351 -0.625283 0
M  V30 2012 H 180.914 -1.52085 -1.02676 0
M  V30 2013 H 179.296 -1.52736 -3.6536 0
M  V30 2014 H 180.47 -4.01973 -2.25287 0
M  V30 2015 H 178.785 -3.55245 -2.17232 0
M  V30 2016 H 181.382 -2.47844 -4.7379 0
M  V30 2017 H 181.725 -0.904281 -4.0636 0
M  V30 2018 H 182.258 -2.36595 -3.19793 0
M  V30 2019 H 178.997 -5.28566 -3.87683 0
M  V30 2020 H 178.517 -3.76667 -4.66779 0
M  V30 2021 H 180.196 -4.34812 -4.79111 0
M  V30 2022 N 180.328 1.1314 -1.09713 0
M  V30 2023 C 181.238 2.22242 -0.751367 0
M  V30 2024 C 182.254 1.72224 0.247938 0
M  V30 2025 O 183.43 2.01205 0.0885463 0
M  V30 2026 C 180.495 3.46231 -0.180274 0
M  V30 2027 C 179.556 4.11125 -1.2359 0
M  V30 2028 C 178.789 5.29195 -0.691966 0
M  V30 2029 O 179.012 5.68342 0.48414 0
M  V30 2030 O 177.946 5.84214 -1.44838 0
M  V30 2031 H 181.772 2.54197 -1.66186 0
M  V30 2032 H 179.357 1.21331 -0.871735 0
M  V30 2033 H 181.239 4.21185 0.134739 0
M  V30 2034 H 179.914 3.1597 0.703185 0
M  V30 2035 H 178.821 3.37985 -1.60366 0
M  V30 2036 H 180.154 4.45524 -2.09211 0
M  V30 2037 N 181.806 0.884767 1.30421 0
M  V30 2038 C 183.034 0.518044 2.0031 0
M  V30 2039 C 183.449 -0.893408 1.66324 0
M  V30 2040 O 182.806 -1.5875 0.900262 0
M  V30 2041 C 182.857 0.682997 3.54989 0
M  V30 2042 O 182.578 2.03888 3.87764 0
M  V30 2043 C 184.079 0.31924 4.42149 0
M  V30 2044 H 181.299 0.200265 0.640418 0
M  V30 2045 H 183.843 1.19001 1.6631 0
M  V30 2046 H 181.998 0.0584052 3.87356 0
M  V30 2047 H 182.412 2.05735 4.82466 0
M  V30 2048 H 183.886 0.485555 5.4986 0
M  V30 2049 H 184.363 -0.742717 4.32875 0
M  V30 2050 H 184.969 0.920147 4.15227 0
M  V30 2051 N 183.284 -1.43765 0.645699 0
M  V30 2052 C 184.232 -2.32516 -0.0624849 0
M  V30 2053 C 185.226 -1.48183 -0.820855 0
M  V30 2054 O 186.432 -1.64439 -0.732106 0
M  V30 2055 H 182.807 -0.750989 -0.0389864 0
M  V30 2056 H 184.778 -2.89979 0.703892 0
M  V30 2057 C 183.527 -3.32389 -1.02044 0
M  V30 2058 H 182.85 -3.97301 -0.446312 0
M  V30 2059 H 184.29 -3.97138 -1.48517 0
M  V30 2060 C 182.749 -2.62416 -2.11281 0
M  V30 2061 O 183.279 -2.434 -3.19561 0
M  V30 2062 N 181.485 -2.21913 -1.87624 0
M  V30 2063 H 181.032 -2.37578 -0.995703 0
M  V30 2064 H 180.99 -1.75424 -2.6091 0
M  V30 2065 N 184.763 -0.387143 -1.52771 0
M  V30 2066 C 186.009 0.196025 -2.0185 0
M  V30 2067 C 186.342 1.46641 -1.27319 0
M  V30 2068 O 185.617 1.90889 -0.373032 0
M  V30 2069 C 185.9 0.466136 -3.5707 0
M  V30 2070 C 185.753 -0.819385 -4.42274 0
M  V30 2071 C 187.072 1.25768 -4.21747 0
M  V30 2072 H 184.191 0.0697708 -0.73369 0
M  V30 2073 H 186.833 -0.516286 -1.82851 0
M  V30 2074 H 184.983 1.07293 -3.7339 0
M  V30 2075 H 186.655 -1.4563 -4.37709 0
M  V30 2076 H 184.898 -1.43517 -4.09372 0
M  V30 2077 H 185.569 -0.585065 -5.48891 0
M  V30 2078 H 188.045 0.744167 -4.09391 0
M  V30 2079 H 186.921 1.41541 -5.30337 0
M  V30 2080 H 187.182 2.27228 -3.79236 0
M  V30 2081 N 186.241 1.57166 -0.116904 0
M  V30 2082 C 187.518 1.86645 0.585049 0
M  V30 2083 C 187.898 1.0177 1.84949 0
M  V30 2084 O 187.246 0.0960379 2.28298 0
M  V30 2085 C 187.456 3.37736 0.879507 0
M  V30 2086 C 188.804 4.06289 1.23348 0
M  V30 2087 O 189.828 3.42743 0.969836 0
M  V30 2088 O 188.687 5.18455 1.7282 0
M  V30 2089 H 185.781 0.772593 0.295007 0
M  V30 2090 H 188.327 1.69025 -0.151249 0
M  V30 2091 H 187.099 3.91296 -0.0166136 0
M  V30 2092 H 186.722 3.6078 1.67103 0
M  V30 2093 N 187.719 -0.156864 1.56817 0
M  V30 2094 C 188.682 -1.17781 1.96622 0
M  V30 2095 C 189.682 -1.36401 0.851555 0
M  V30 2096 O 190.872 -1.33561 1.11836 0
M  V30 2097 C 188.004 -2.54008 2.27361 0
M  V30 2098 H 189.197 -0.836564 2.87996 0
M  V30 2099 H 186.75 -0.39985 1.51099 0
M  V30 2100 H 187.485 -2.9312 1.38748 0
M  V30 2101 H 187.27 -2.41856 3.08623 0
M  V30 2102 H 188.76 -3.27558 2.59029 0
M  V30 2103 N 189.197 -1.51736 -0.425897 0
M  V30 2104 C 190.425 -1.68794 -1.1965 0
M  V30 2105 C 190.84 -0.390164 -1.84725 0
M  V30 2106 O 190.197 0.632376 -1.71194 0
M  V30 2107 C 190.248 -2.81174 -2.27208 0
M  V30 2108 O 189.969 -4.05925 -1.64793 0
M  V30 2109 C 191.47 -3.09599 -3.17275 0
M  V30 2110 H 188.69 -0.566128 -0.360194 0
M  V30 2111 H 191.234 -1.98211 -0.503249 0
M  V30 2112 H 189.389 -2.54324 -2.9223 0
M  V30 2113 H 189.803 -4.68423 -2.35967 0
M  V30 2114 H 191.277 -3.91786 -3.88854 0
M  V30 2115 H 191.754 -2.22468 -3.78688 0
M  V30 2116 H 192.36 -3.38151 -2.57941 0
M  V30 2117 N 190.675 0.682077 -1.42076 0
M  V30 2118 C 191.9 1.47558 -1.45744 0
M  V30 2119 C 192.325 1.87977 -0.0680981 0
M  V30 2120 O 191.683 1.55522 0.9318 0
M  V30 2121 C 191.731 2.70575 -2.38373 0
M  V30 2122 O 190.835 3.68573 -1.85007 0
M  V30 2123 H 190.176 0.443585 -0.494093 0
M  V30 2124 H 192.706 0.837238 -1.86686 0
M  V30 2125 H 192.716 3.18729 -2.54707 0
M  V30 2126 H 191.391 2.40495 -3.39315 0
M  V30 2127 H 189.968 3.2757 -1.78192 0
M  V30 2128 N 192.153 1.28127 0.917671 0
M  V30 2129 C 193.381 1.17892 1.70026 0
M  V30 2130 C 193.796 -0.262958 1.8696 0
M  V30 2131 O 193.153 -1.17811 1.3938 0
M  V30 2132 C 193.204 1.86872 3.09453 0
M  V30 2133 O 192.925 3.25428 2.93306 0
M  V30 2134 C 194.426 1.8289 4.03815 0
M  V30 2135 H 191.646 0.40942 0.531617 0
M  V30 2136 H 194.19 1.69181 1.14883 0
M  V30 2137 H 192.345 1.39464 3.61426 0
M  V30 2138 H 192.759 3.59918 3.81523 0
M  V30 2139 H 194.233 2.35751 4.99125 0
M  V30 2140 H 194.71 0.800412 4.31845 0
M  V30 2141 H 195.316 2.29959 3.57769 0
M  V30 2142 N 193.631 -1.12557 1.10312 0
M  V30 2143 C 194.561 -2.20341 0.772798 0
M  V30 2144 C 195.542 -1.68198 -0.25365 0
M  V30 2145 O 196.727 -1.93831 -0.119699 0
M  V30 2146 C 193.857 -3.46709 0.202443 0
M  V30 2147 C 192.811 -4.11996 1.15943 0
M  V30 2148 C 192.137 -5.328 0.450345 0
M  V30 2149 C 193.437 -4.5828 2.50552 0
M  V30 2150 H 195.131 -2.48229 1.674 0
M  V30 2151 H 192.677 -1.19308 0.806326 0
M  V30 2152 H 194.63 -4.2138 -0.0407752 0
M  V30 2153 H 193.354 -3.18245 -0.734001 0
M  V30 2154 H 192.013 -3.39305 1.38808 0
M  V30 2155 H 191.661 -5.00602 -0.490531 0
M  V30 2156 H 191.361 -5.7743 1.08851 0
M  V30 2157 H 192.885 -6.10219 0.215642 0
M  V30 2158 H 194.299 -5.2433 2.31843 0
M  V30 2159 H 192.696 -5.13683 3.10242 0
M  V30 2160 H 193.766 -3.72329 3.10643 0
M  V30 2161 N 195.109 -0.891671 -1.2995 0
M  V30 2162 C 196.039 -0.379797 -2.30391 0
M  V30 2163 C 197.02 0.540919 -1.6127 0
M  V30 2164 O 198.205 0.453352 -1.88834 0
M  V30 2165 C 195.335 0.400654 -3.44981 0
M  V30 2166 C 194.289 -0.428905 -4.25846 0
M  V30 2167 C 193.615 0.478557 -5.32554 0
M  V30 2168 C 194.915 -1.67458 -4.94727 0
M  V30 2169 H 196.609 -1.21914 -2.73454 0
M  V30 2170 H 194.155 -0.587675 -1.31462 0
M  V30 2171 H 196.108 0.769434 -4.14316 0
M  V30 2172 H 194.832 1.27371 -3.0074 0
M  V30 2173 H 193.491 -0.779911 -3.58208 0
M  V30 2174 H 193.139 1.34951 -4.84559 0
M  V30 2175 H 192.839 -0.0727433 -5.87555 0
M  V30 2176 H 194.363 0.843705 -6.04743 0
M  V30 2177 H 195.777 -1.376 -5.56542 0
M  V30 2178 H 194.174 -2.16659 -5.59624 0
M  V30 2179 H 195.244 -2.41518 -4.20473 0
M  V30 2180 N 196.587 1.43421 -0.653314 0
M  V30 2181 C 197.812 2.06678 -0.172846 0
M  V30 2182 C 198.237 1.48648 1.15262 0
M  V30 2183 O 197.595 0.596457 1.71208 0
M  V30 2184 C 197.643 3.60474 -0.0953184 0
M  V30 2185 O 196.747 4.01487 0.942442 0
M  V30 2186 H 196.088 0.657181 -0.0949155 0
M  V30 2187 H 198.618 1.83925 -0.896265 0
M  V30 2188 H 198.628 4.07905 0.0879728 0
M  V30 2189 H 197.303 4.02088 -1.06291 0
M  V30 2190 H 195.88 3.65646 0.731932 0
M  V30 2191 N 198.065 0.39524 1.52563 0
M  V30 2192 C 198.975 -0.444232 2.30356 0
M  V30 2193 C 199.991 -1.06615 1.37511 0
M  V30 2194 O 201.167 -1.07067 1.70583 0
M  V30 2195 C 198.232 -1.55315 3.09964 0
M  V30 2196 C 197.293 -0.955734 4.18526 0
M  V30 2197 C 196.526 -2.01181 4.9433 0
M  V30 2198 O 196.749 -3.22781 4.70285 0
M  V30 2199 O 195.683 -1.62579 5.79527 0
M  V30 2200 H 199.509 0.189667 3.03107 0
M  V30 2201 H 197.094 0.1588 1.48554 0
M  V30 2202 H 198.976 -2.19724 3.59582 0
M  V30 2203 H 197.651 -2.17191 2.4002 0
M  V30 2204 H 196.558 -0.274743 3.7309 0
M  V30 2205 H 197.891 -0.381109 4.90722 0
M  V30 2206 N 199.544 -1.57102 0.125237 0
M  V30 2207 C 200.821 -1.86953 -0.575142 0
M  V30 2208 C 201.201 -1.02749 -1.84407 0
M  V30 2209 O 200.549 -0.108144 -2.28244 0
M  V30 2210 C 200.759 -3.38198 -0.861583 0
M  V30 2211 C 202.107 -4.06937 -1.21192 0
M  V30 2212 O 203.131 -3.43252 -0.951645 0
M  V30 2213 O 201.99 -5.19364 -1.70068 0
M  V30 2214 H 199.084 -0.774147 -0.290906 0
M  V30 2215 H 201.63 -1.68942 0.160211 0
M  V30 2216 H 200.402 -3.91282 0.0373647 0
M  V30 2217 H 200.025 -3.61661 -1.65188 0
M  V30 2218 N 201.022 0.148545 -1.56898 0
M  V30 2219 C 201.972 1.1886 -1.94567 0
M  V30 2220 C 202.956 1.3863 -0.816735 0
M  V30 2221 O 204.148 1.40218 -1.08018 0
M  V30 2222 C 201.277 2.52262 -2.32849 0
M  V30 2223 C 200.363 2.36092 -3.52309 0
M  V30 2224 N 200.754 1.89674 -4.6889 0
M  V30 2225 C 199.052 2.66848 -3.57363 0
M  V30 2226 C 199.753 1.86511 -5.50989 0
M  V30 2227 N 198.729 2.29766 -4.92655 0
M  V30 2228 H 202.531 0.821793 -2.82177 0
M  V30 2229 H 200.045 0.356615 -1.58436 0
M  V30 2230 H 202.042 3.27447 -2.58039 0
M  V30 2231 H 200.702 2.89727 -1.46589 0
M  V30 2232 H 201.713 1.59663 -4.92674 0
M  V30 2233 H 198.39 3.08198 -2.81639 0
M  V30 2234 H 199.78 1.52128 -6.54452 0
M  V30 2235 N 202.5 1.5196 0.417844 0
M  V30 2236 C 203.725 1.69717 1.1921 0
M  V30 2237 C 204.15 0.402148 1.83751 0
M  V30 2238 O 203.508 -0.639593 1.69643 0
M  V30 2239 C 203.556 2.82794 2.2374 0
M  V30 2240 O 202.66 2.47756 3.29683 0
M  V30 2241 H 202.001 0.565263 0.348387 0
M  V30 2242 H 204.531 1.98621 0.490985 0
M  V30 2243 H 204.541 3.07452 2.68212 0
M  V30 2244 H 203.216 3.76756 1.76146 0
M  V30 2245 H 201.793 2.33739 2.90552 0
M  V30 2246 N 203.978 -0.674533 1.42435 0
M  V30 2247 C 204.941 -1.76986 1.45632 0
M  V30 2248 C 205.941 -1.5708 0.343871 0
M  V30 2249 O 207.131 -1.63367 0.604709 0
M  V30 2250 C 204.263 -3.15623 1.28822 0
M  V30 2251 H 205.456 -1.75539 2.43158 0
M  V30 2252 H 203.009 -0.884189 1.28887 0
M  V30 2253 H 203.744 -3.22696 0.322193 0
M  V30 2254 H 203.529 -3.31475 2.09444 0
M  V30 2255 H 205.019 -3.95537 1.33942 0
M  V30 2256 N 205.456 -1.28612 -0.910864 0
M  V30 2257 C 206.388 -1.08589 -2.01844 0
M  V30 2258 C 207.401 -0.0367419 -1.62759 0
M  V30 2259 O 208.59 -0.280101 -1.76289 0
M  V30 2260 C 205.69 -0.628626 -3.33019 0
M  V30 2261 C 204.863 -1.75382 -4.00699 0
M  V30 2262 C 203.922 -1.28945 -5.10156 0
M  V30 2263 O 202.948 -1.9922 -5.33198 0
M  V30 2264 N 204.15 -0.154224 -5.80295 0
M  V30 2265 H 206.915 -2.03973 -2.19579 0
M  V30 2266 H 204.476 -1.20403 -1.08234 0
M  V30 2267 H 206.468 -0.301508 -4.03575 0
M  V30 2268 H 205.038 0.232451 -3.11735 0
M  V30 2269 H 204.258 -2.25039 -3.23653 0
M  V30 2270 H 205.546 -2.50854 -4.42662 0
M  V30 2271 H 204.944 0.43194 -5.64049 0
M  V30 2272 H 203.501 0.113599 -6.51701 0
M  V30 2273 N 206.934 1.1197 -1.10907 0
M  V30 2274 C 207.844 2.21433 -0.774896 0
M  V30 2275 C 208.86 1.72478 0.229657 0
M  V30 2276 O 210.036 2.01288 0.0672008 0
M  V30 2277 C 207.101 3.4602 -0.216986 0
M  V30 2278 C 206.162 4.09791 -1.27944 0
M  V30 2279 C 205.395 5.28431 -0.748055 0
M  V30 2280 O 205.618 5.68823 0.423833 0
M  V30 2281 O 204.552 5.82644 -1.51027 0
M  V30 2282 H 208.378 2.5242 -1.68873 0
M  V30 2283 H 205.963 1.20399 -0.884555 0
M  V30 2284 H 207.845 4.21304 0.090059 0
M  V30 2285 H 206.52 3.16698 0.669633 0
M  V30 2286 H 205.427 3.36265 -1.63941 0
M  V30 2287 H 206.76 4.4328 -2.13925 0
M  V30 2288 N 208.412 0.89855 1.29475 0
M  V30 2289 C 209.359 0.373819 2.27753 0
M  V30 2290 C 210.329 -0.543444 1.56958 0
M  V30 2291 O 211.514 -0.468934 1.84948 0
M  V30 2292 C 208.654 -0.393648 3.42848 0
M  V30 2293 C 207.767 0.554379 4.28428 0
M  V30 2294 C 206.902 -0.230026 5.30702 0
M  V30 2295 C 205.941 0.712599 6.07938 0
M  V30 2296 N 205.078 -0.0373283 7.0209 0
M  V30 2297 H 209.918 1.21699 2.72017 0
M  V30 2298 H 207.455 0.611456 1.33789 0
M  V30 2299 H 209.413 -0.85466 4.08352 0
M  V30 2300 H 208.043 -1.20128 2.99615 0
M  V30 2301 H 207.095 1.13391 3.63107 0
M  V30 2302 H 208.407 1.27597 4.82204 0
M  V30 2303 H 207.561 -0.752288 6.02018 0
M  V30 2304 H 206.3 -0.984758 4.77654 0
M  V30 2305 H 205.305 1.24637 5.35486 0
M  V30 2306 H 206.53 1.46664 6.63074 0
M  V30 2307 H 204.476 -0.774348 6.51414 0
M  V30 2308 H 204.393 0.624374 7.53417 0
M  V30 2309 H 205.661 -0.539891 7.77628 0
M  V30 2310 N 209.89 -1.43072 0.660911 0
M  V30 2311 C 210.82 -2.33497 -0.0122829 0
M  V30 2312 C 211.801 -1.49903 -0.803925 0
M  V30 2313 O 212.986 -1.78546 -0.763864 0
M  V30 2314 C 210.116 -3.33363 -0.973994 0
M  V30 2315 C 209.07 -4.27003 -0.291928 0
M  V30 2316 C 208.396 -5.16967 -1.36562 0
M  V30 2317 C 209.696 -5.15816 0.820462 0
M  V30 2318 H 211.39 -2.90038 0.742873 0
M  V30 2319 H 208.936 -1.39461 0.358688 0
M  V30 2320 H 210.889 -3.95524 -1.45392 0
M  V30 2321 H 209.613 -2.75095 -1.7604 0
M  V30 2322 H 208.272 -3.66217 0.167623 0
M  V30 2323 H 207.92 -4.55034 -2.14366 0
M  V30 2324 H 207.62 -5.80441 -0.914454 0
M  V30 2325 H 209.144 -5.82003 -1.84675 0
M  V30 2326 H 210.558 -5.71742 0.422366 0
M  V30 2327 H 208.955 -5.8805 1.19656 0
M  V30 2328 H 210.025 -4.55045 1.67518 0
M  V30 2329 N 211.368 -0.403325 -1.52352 0
M  V30 2330 C 212.315 0.425011 -2.26853 0
M  V30 2331 C 213.285 1.04598 -1.29029 0
M  V30 2332 O 214.47 1.07135 -1.57882 0
M  V30 2333 C 211.61 1.53888 -3.08889 0
M  V30 2334 C 210.723 0.939396 -4.21663 0
M  V30 2335 C 209.858 2.02547 -4.91068 0
M  V30 2336 C 208.897 1.40263 -5.95813 0
M  V30 2337 N 208.034 2.4286 -6.58759 0
M  V30 2338 H 212.874 -0.21674 -2.97211 0
M  V30 2339 H 210.411 -0.118722 -1.4662 0
M  V30 2340 H 212.369 2.19558 -3.54753 0
M  V30 2341 H 210.999 2.15074 -2.40714 0
M  V30 2342 H 210.051 0.171898 -3.80011 0
M  V30 2343 H 211.363 0.44436 -4.96817 0
M  V30 2344 H 210.517 2.75958 -5.40308 0
M  V30 2345 H 209.256 2.55415 -4.15469 0
M  V30 2346 H 208.261 0.653833 -5.45898 0
M  V30 2347 H 209.486 0.881719 -6.73352 0
M  V30 2348 H 207.432 2.94871 -5.85992 0
M  V30 2349 H 207.349 1.98152 -7.2957 0
M  V30 2350 H 208.617 3.15858 -7.12639 0
M  V30 2351 N 212.846 1.57033 -0.133567 0
M  V30 2352 C 213.756 2.19632 0.824564 0
M  V30 2353 C 214.772 1.17666 1.28182 0
M  V30 2354 O 215.948 1.50193 1.3418 0
M  V30 2355 C 213.013 2.79499 2.05137 0
M  V30 2356 C 212.074 3.96548 1.64464 0
M  V30 2357 C 211.307 4.5355 2.81297 0
M  V30 2358 O 211.53 4.09438 3.97136 0
M  V30 2359 O 210.464 5.44018 2.57542 0
M  V30 2360 H 214.29 3.01991 0.321766 0
M  V30 2361 H 211.875 1.49112 0.0927889 0
M  V30 2362 H 213.757 3.17602 2.7696 0
M  V30 2363 H 212.432 2.00162 2.54395 0
M  V30 2364 H 211.339 3.63186 0.897048 0
M  V30 2365 H 212.672 4.77364 1.19934 0
M  V30 2366 N 214.325 -0.140222 1.56975 0
M  V30 2367 C 215.571 -0.852949 1.83991 0
M  V30 2368 C 215.904 -1.80512 0.716187 0
M  V30 2369 O 215.179 -1.92479 -0.279681 0
M  V30 2370 C 215.462 -1.6215 3.21527 0
M  V30 2371 C 215.315 -0.690363 4.4447 0
M  V30 2372 C 216.634 -2.58247 3.56366 0
M  V30 2373 H 213.753 -0.308634 0.669264 0
M  V30 2374 H 216.395 -0.117898 1.89634 0
M  V30 2375 H 214.545 -2.24812 3.16847 0
M  V30 2376 H 216.217 -0.0742264 4.6124 0
M  V30 2377 H 214.46 -0.000396433 4.338 0
M  V30 2378 H 215.131 -1.2643 5.37326 0
M  V30 2379 H 217.607 -2.05701 3.61699 0
M  V30 2380 H 216.483 -3.09067 4.53617 0
M  V30 2381 H 216.744 -3.39923 2.82674 0
M  V30 2382 N 215.803 -1.52179 -0.40978 0
M  V30 2383 C 217.219 -1.40968 -0.74835 0
M  V30 2384 C 217.419 -0.513657 -1.94843 0
M  V30 2385 O 216.475 0.0208026 -2.52491 0
M  V30 2386 C 217.788 -2.83483 -1.0029 0
M  V30 2387 C 219.336 -2.92821 -1.10565 0
M  V30 2388 C 219.811 -4.36303 -1.39296 0
M  V30 2389 N 221.302 -4.39535 -1.46162 0
M  V30 2390 C 222.037 -5.47614 -1.70018 0
M  V30 2391 N 221.533 -6.65812 -1.91483 0
M  V30 2392 N 223.326 -5.35129 -1.72027 0
M  V30 2393 H 215.477 -2.0897 0.380186 0
M  V30 2394 H 217.74 -0.94185 0.107805 0
M  V30 2395 H 217.446 -3.51168 -0.193461 0
M  V30 2396 H 217.32 -3.24487 -1.92323 0
M  V30 2397 H 219.707 -2.25318 -1.90568 0
M  V30 2398 H 219.788 -2.55276 -0.16369 0
M  V30 2399 H 219.432 -5.04366 -0.598109 0
M  V30 2400 H 219.362 -4.71385 -2.34743 0
M  V30 2401 H 221.853 -3.54332 -1.31367 0
M  V30 2402 H 222.166 -7.43964 -2.09134 0
M  V30 2403 H 220.511 -6.68879 -1.88749 0
M  V30 2404 H 223.702 -4.41764 -1.54796 0
M  V30 2405 H 223.875 -6.19433 -1.9028 0
M  V30 2406 N 217.281 0.66697 -1.42791 0
M  V30 2407 C 218.191 1.80962 -1.49299 0
M  V30 2408 C 219.207 1.69775 -0.381108 0
M  V30 2409 O 220.383 1.91188 -0.633188 0
M  V30 2410 C 217.448 3.17156 -1.40045 0
M  V30 2411 C 216.509 3.40242 -2.6179 0
M  V30 2412 C 215.742 4.69939 -2.52969 0
M  V30 2413 O 215.965 5.48372 -1.56985 0
M  V30 2414 O 214.899 4.94441 -3.43237 0
M  V30 2415 H 218.725 1.78427 -2.45759 0
M  V30 2416 H 216.31 0.823713 -1.24641 0
M  V30 2417 H 218.192 3.98413 -1.37276 0
M  V30 2418 H 216.867 3.20312 -0.467138 0
M  V30 2419 H 215.774 2.58802 -2.70134 0
M  V30 2420 H 217.107 3.41923 -3.54047 0
M  V30 2421 N 218.759 1.29093 0.90403 0
M  V30 2422 C 220.036 1.075 1.63411 0
M  V30 2423 C 220.416 -0.382346 2.07609 0
M  V30 2424 O 219.764 -1.37031 1.82851 0
M  V30 2425 C 219.974 2.05858 2.81822 0
M  V30 2426 C 221.322 2.36539 3.52611 0
M  V30 2427 O 222.346 2.04019 2.91984 0
M  V30 2428 O 221.205 2.92085 4.61897 0
M  V30 2429 H 218.299 0.411547 0.717327 0
M  V30 2430 H 220.845 1.40449 0.952479 0
M  V30 2431 H 219.617 3.04037 2.46327 0
M  V30 2432 H 219.24 1.73613 3.57693 0
M  V30 2433 N 220.237 -1.11381 1.11499 0
M  V30 2434 C 221.514 -1.7955 0.775965 0
M  V30 2435 C 221.894 -1.97859 -0.73588 0
M  V30 2436 O 221.242 -1.56376 -1.66609 0
M  V30 2437 C 221.452 -3.13196 1.53977 0
M  V30 2438 C 222.8 -3.88227 1.71944 0
M  V30 2439 O 223.824 -3.22887 1.50407 0
M  V30 2440 O 222.683 -5.05477 2.07738 0
M  V30 2441 H 219.777 -0.777728 0.28119 0
M  V30 2442 H 222.323 -1.18118 1.21845 0
M  V30 2443 H 221.095 -2.95229 2.56818 0
M  V30 2444 H 220.718 -3.82342 1.09088 0
M  V30 2445 N 221.715 -0.905404 -1.28997 0
M  V30 2446 C 222.992 -0.453513 -1.9027 0
M  V30 2447 C 223.372 1.06721 -1.82137 0
M  V30 2448 O 222.72 1.91159 -1.25182 0
M  V30 2449 C 222.93 -0.974494 -3.35119 0
M  V30 2450 C 224.278 -1.0216 -4.12127 0
M  V30 2451 O 225.302 -0.922557 -3.44046 0
M  V30 2452 O 224.161 -1.17121 -5.33802 0
M  V30 2453 H 221.255 -0.142347 -0.814657 0
M  V30 2454 H 223.801 -0.995642 -1.37423 0
M  V30 2455 H 222.573 -2.01848 -3.35221 0
M  V30 2456 H 222.196 -0.412706 -3.95452 0
M  V30 2457 N 223.193 1.4272 -0.668489 0
M  V30 2458 C 224.47 1.95248 -0.117373 0
M  V30 2459 C 224.85 1.60919 1.36632 0
M  V30 2460 O 224.198 0.902095 2.09939 0
M  V30 2461 C 224.408 3.46927 -0.379806 0
M  V30 2462 C 225.756 4.23588 -0.292923 0
M  V30 2463 O 226.78 3.5482 -0.313204 0
M  V30 2464 O 225.639 5.46017 -0.229697 0
M  V30 2465 H 222.733 0.827 0.00079152 0
M  V30 2466 H 225.279 1.52581 -0.742783 0
M  V30 2467 H 224.051 3.65096 -1.40786 0
M  V30 2468 H 223.674 3.96627 0.277923 0
M  V30 2469 N 224.671 0.411399 1.52136 0
M  V30 2470 C 225.634 -0.401089 2.25663 0
M  V30 2471 C 226.634 -0.971732 1.28117 0
M  V30 2472 O 227.824 -0.850254 1.52041 0
M  V30 2473 C 224.956 -1.56483 3.02863 0
M  V30 2474 H 226.149 0.24295 2.98914 0
M  V30 2475 H 223.702 0.163968 1.55438 0
M  V30 2476 H 224.437 -2.24567 2.33967 0
M  V30 2477 H 224.222 -1.16211 3.74483 0
M  V30 2478 H 225.712 -2.13951 3.58629 0
M  V30 2479 N 226.149 -1.5696 0.141893 0
M  V30 2480 C 227.059 -2.20066 -0.812905 0
M  V30 2481 C 228.075 -1.18344 -1.27557 0
M  V30 2482 O 229.251 -1.50902 -1.33381 0
M  V30 2483 C 226.316 -2.80583 -2.03652 0
M  V30 2484 C 225.377 -3.97414 -1.62359 0
M  V30 2485 C 224.61 -4.55036 -2.78887 0
M  V30 2486 O 224.833 -4.11538 -3.94959 0
M  V30 2487 O 223.767 -5.45376 -2.54653 0
M  V30 2488 H 227.593 -3.02157 -0.305746 0
M  V30 2489 H 225.178 -1.49159 -0.0848799 0
M  V30 2490 H 227.06 -3.19067 -2.75272 0
M  V30 2491 H 225.735 -2.01508 -2.5333 0
M  V30 2492 H 224.642 -3.63656 -0.877775 0
M  V30 2493 H 225.975 -4.77994 -1.17401 0
M  V30 2494 N 227.627 0.131896 -1.57047 0
M  V30 2495 C 228.56 1.19236 -1.94571 0
M  V30 2496 C 229.538 1.40782 -0.813576 0
M  V30 2497 O 230.722 1.55148 -1.07058 0
M  V30 2498 C 227.849 2.54858 -2.23081 0
M  V30 2499 C 226.895 2.49817 -3.45679 0
M  V30 2500 S 227.728 1.95036 -4.98719 0
M  V30 2501 C 228.884 3.32357 -5.30367 0
M  V30 2502 H 229.117 0.872297 -2.84215 0
M  V30 2503 H 226.65 0.338134 -1.50652 0
M  V30 2504 H 228.608 3.32898 -2.40185 0
M  V30 2505 H 227.269 2.84047 -1.34074 0
M  V30 2506 H 226.462 3.49688 -3.62952 0
M  V30 2507 H 226.064 1.79892 -3.27895 0
M  V30 2508 H 228.356 4.28525 -5.2476 0
M  V30 2509 H 229.299 3.19923 -6.31708 0
M  V30 2510 H 229.707 3.3019 -4.57859 0
M  V30 2511 N 229.106 1.52395 0.401703 0
M  V30 2512 C 230.334 1.70676 1.16949 0
M  V30 2513 C 230.749 0.419503 1.8408 0
M  V30 2514 O 230.106 -0.605061 1.72178 0
M  V30 2515 C 230.157 2.84753 2.22706 0
M  V30 2516 O 229.878 4.08495 1.58314 0
M  V30 2517 C 231.379 3.14608 3.12309 0
M  V30 2518 H 228.599 0.571787 0.351142 0
M  V30 2519 H 231.143 1.98987 0.471652 0
M  V30 2520 H 229.298 2.58941 2.88147 0
M  V30 2521 H 229.712 4.72117 2.28485 0
M  V30 2522 H 231.186 3.97923 3.82572 0
M  V30 2523 H 231.663 2.28464 3.75101 0
M  V30 2524 H 232.269 3.42212 2.52529 0
M  V30 2525 N 230.584 -0.659388 1.43143 0
M  V30 2526 C 231.534 -1.7655 1.44271 0
M  V30 2527 C 232.518 -1.57847 0.311961 0
M  V30 2528 O 233.71 -1.68064 0.555306 0
M  V30 2529 C 230.839 -3.15104 1.36251 0
M  V30 2530 C 229.925 -3.39377 2.54331 0
M  V30 2531 N 230.316 -3.34153 3.79704 0
M  V30 2532 C 228.614 -3.70072 2.48922 0
M  V30 2533 C 229.315 -3.58337 4.58225 0
M  V30 2534 N 228.291 -3.79851 3.88863 0
M  V30 2535 H 232.093 -1.70928 2.39083 0
M  V30 2536 H 229.607 -0.860823 1.37708 0
M  V30 2537 H 231.604 -3.94389 1.35141 0
M  V30 2538 H 230.264 -3.21913 0.424531 0
M  V30 2539 H 231.275 -3.13704 4.1208 0
M  V30 2540 H 227.952 -3.84034 1.63781 0
M  V30 2541 H 229.342 -3.60129 5.67236 0
M  V30 2542 N 232.062 -1.29571 -0.897171 0
M  V30 2543 C 233.287 -1.20705 -1.68656 0
M  V30 2544 C 233.712 0.228582 -1.86706 0
M  V30 2545 O 233.07 1.16494 -1.3892 0
M  V30 2546 C 233.118 -1.9282 -3.04717 0
M  V30 2547 O 232.222 -1.24697 -3.93096 0
M  V30 2548 H 231.563 -0.418126 -0.515816 0
M  V30 2549 H 234.093 -1.71183 -1.12061 0
M  V30 2550 H 234.103 -2.01372 -3.54843 0
M  V30 2551 H 232.778 -2.97239 -2.90899 0
M  V30 2552 H 231.355 -1.2442 -3.51531 0
M  V30 2553 N 233.54 1.10788 -1.12088 0
M  V30 2554 C 234.786 1.82942 -0.875226 0
M  V30 2555 C 235.119 1.84779 0.597538 0
M  V30 2556 O 234.394 1.30578 1.44152 0
M  V30 2557 C 234.677 3.29789 -1.44606 0
M  V30 2558 C 234.53 3.36307 -2.98693 0
M  V30 2559 C 235.849 4.26064 -1.10261 0
M  V30 2560 H 232.968 0.664195 -0.319397 0
M  V30 2561 H 235.61 1.29867 -1.38689 0
M  V30 2562 H 233.76 3.75118 -1.01089 0
M  V30 2563 H 235.432 2.99487 -3.50864 0
M  V30 2564 H 233.675 2.76318 -3.34411 0
M  V30 2565 H 234.346 4.39694 -3.33726 0
M  V30 2566 H 236.822 3.88951 -1.4784 0
M  V30 2567 H 235.698 5.27183 -1.52869 0
M  V30 2568 H 235.959 4.42098 -0.0142953 0
M  V30 2569 N 235.018 0.912232 1.28515 0
M  V30 2570 C 235.981 0.404223 2.25607 0
M  V30 2571 C 236.981 -0.468602 1.53821 0
M  V30 2572 O 238.171 -0.271873 1.72065 0
M  V30 2573 C 235.303 -0.420653 3.38295 0
M  V30 2574 H 236.496 1.26188 2.7206 0
M  V30 2575 H 234.049 0.691495 1.40171 0
M  V30 2576 H 234.784 -1.29777 2.97201 0
M  V30 2577 H 234.569 0.204935 3.91564 0
M  V30 2578 H 236.059 -0.766971 4.10496 0
M  V30 2579 N 236.496 -1.42363 0.676048 0
M  V30 2580 C 237.742 -2.0182 0.199125 0
M  V30 2581 C 238.075 -1.53339 -1.19168 0
M  V30 2582 O 237.35 -0.736124 -1.80032 0
M  V30 2583 C 237.633 -3.59331 0.235144 0
M  V30 2584 C 237.486 -4.17989 1.66149 0
M  V30 2585 C 238.805 -4.3813 -0.41595 0
M  V30 2586 H 235.924 -0.733293 0.0738311 0
M  V30 2587 H 238.566 -1.69368 0.86107 0
M  V30 2588 H 236.716 -3.87109 -0.328487 0
M  V30 2589 H 238.388 -4.0116 2.27747 0
M  V30 2590 H 236.631 -3.7377 2.20178 0
M  V30 2591 H 237.302 -5.27126 1.63837 0
M  V30 2592 H 239.778 -4.16051 0.0638529 0
M  V30 2593 H 238.654 -5.47717 -0.360115 0
M  V30 2594 H 238.915 -4.16101 -1.49373 0
M  V30 2595 N 237.974 -0.419461 -1.51915 0
M  V30 2596 C 238.922 0.415502 -2.28859 0
M  V30 2597 C 239.916 1.03674 -1.3397 0
M  V30 2598 O 241.122 0.973757 -1.51387 0
M  V30 2599 H 237.497 0.152786 -0.736315 0
M  V30 2600 H 239.468 -0.254531 -2.97312 0
M  V30 2601 C 238.217 1.51425 -3.12995 0
M  V30 2602 H 237.54 1.04556 -3.85886 0
M  V30 2603 H 238.98 2.07208 -3.6992 0
M  V30 2604 C 237.439 2.48745 -2.27217 0
M  V30 2605 O 237.969 3.52871 -1.9195 0
M  V30 2606 N 236.175 2.19202 -1.90785 0
M  V30 2607 H 235.722 1.34556 -2.19664 0
M  V30 2608 H 235.68 2.84561 -1.33687 0
M  V30 2609 N 239.452 1.56882 -0.150215 0
M  V30 2610 C 240.701 1.95403 0.500071 0
M  V30 2611 C 241.014 1.03777 1.658 0
M  V30 2612 O 242.22 1.31889 2.37313 0
M  V30 2613 C 240.676 3.4738 0.941018 0
M  V30 2614 C 240.284 4.47596 -0.190158 0
M  V30 2615 C 242.028 3.9476 1.56091 0
M  V30 2616 C 239.935 5.90787 0.269237 0
M  V30 2617 H 238.865 0.729515 0.190588 0
M  V30 2618 H 241.516 1.81988 -0.235074 0
M  V30 2619 H 239.898 3.56138 1.73152 0
M  V30 2620 H 241.072 4.50536 -0.967157 0
M  V30 2621 H 239.387 4.10151 -0.718666 0
M  V30 2622 H 241.984 4.99181 1.9163 0
M  V30 2623 H 242.327 3.36494 2.45107 0
M  V30 2624 H 242.86 3.88932 0.835249 0
M  V30 2625 H 239.599 6.52879 -0.585621 0
M  V30 2626 H 239.119 5.912 1.01204 0
M  V30 2627 H 240.798 6.42979 0.720176 0
M  V30 2628 N 240.93 -0.123565 1.57115 0
M  V30 2629 C 242.16 -0.845233 1.88519 0
M  V30 2630 C 242.568 -1.74168 0.739064 0
M  V30 2631 O 241.911 -1.81244 -0.299355 0
M  V30 2632 C 241.973 -1.73452 3.14888 0
M  V30 2633 C 241.637 -1.01285 4.45635 0
M  V30 2634 C 242.634 -0.355774 5.18681 0
M  V30 2635 C 240.319 -0.99538 4.92339 0
M  V30 2636 C 242.313 0.309114 6.3665 0
M  V30 2637 C 240 -0.32669 6.10226 0
M  V30 2638 C 240.998 0.324406 6.82229 0
M  V30 2639 O 240.686 0.982437 7.97874 0
M  V30 2640 H 240.418 -0.248534 0.628655 0
M  V30 2641 H 242.972 -0.113907 2.05084 0
M  V30 2642 H 241.202 -2.50737 2.94394 0
M  V30 2643 H 242.891 -2.33021 3.32349 0
M  V30 2644 H 243.657 -0.360918 4.83655 0
M  V30 2645 H 239.536 -1.49159 4.36202 0
M  V30 2646 H 243.08 0.8179 6.92789 0
M  V30 2647 H 238.977 -0.319294 6.4471 0
M  V30 2648 H 239.745 0.886454 8.13686 0
M  V30 2649 N 242.408 -1.52605 -0.393616 0
M  V30 2650 C 243.819 -1.59417 -0.971761 0
M  V30 2651 C 244.17 -0.444173 -1.91106 0
M  V30 2652 O 243.295 0.433382 -2.12016 0
M  V30 2653 C 243.89 -2.88936 -1.76921 0
M  V30 2654 C 242.449 -2.98175 -2.29714 0
M  V30 2655 C 241.596 -2.54491 -1.10135 0
M  V30 2656 H 244.547 -1.57751 -0.173317 0
M  V30 2657 H 244.568 -2.75163 -2.62804 0
M  V30 2658 H 244.08 -3.72616 -1.08532 0
M  V30 2659 H 242.181 -2.19024 -3.01429 0
M  V30 2660 H 242.294 -4.02726 -2.59517 0
M  V30 2661 H 240.658 -2.08702 -1.45999 0
M  V30 2662 H 241.441 -3.4056 -0.432874 0
M  V30 2663 N 243.887 0.651787 -1.4349 0
M  V30 2664 C 244.85 1.74647 -1.48429 0
M  V30 2665 C 245.85 1.56513 -0.368817 0
M  V30 2666 O 247.04 1.62385 -0.630623 0
M  V30 2667 C 244.172 3.13533 -1.33827 0
M  V30 2668 H 245.365 1.71649 -2.4592 0
M  V30 2669 H 242.918 0.863573 -1.30277 0
M  V30 2670 H 243.653 3.22142 -0.37349 0
M  V30 2671 H 243.438 3.28101 -2.14691 0
M  V30 2672 H 244.928 3.93356 -1.40218 0
M  V30 2673 N 245.365 1.30045 0.890287 0
M  V30 2674 C 246.593 1.21472 1.67487 0
M  V30 2675 C 247.008 -0.223241 1.87476 0
M  V30 2676 O 246.365 -1.14828 1.41847 0
M  V30 2677 C 246.416 1.93394 3.05419 0
M  V30 2678 O 246.137 3.31576 2.86337 0
M  V30 2679 C 247.638 1.91414 3.99844 0
M  V30 2680 H 244.858 0.420604 0.522813 0
M  V30 2681 H 247.402 1.7158 1.11268 0
M  V30 2682 H 245.557 1.47099 3.58386 0
M  V30 2683 H 245.971 3.67929 3.73802 0
M  V30 2684 H 247.445 2.46285 4.94012 0
M  V30 2685 H 247.922 0.891833 4.3005 0
M  V30 2686 H 248.528 2.37496 3.52811 0
M  V30 2687 N 246.843 -1.10192 1.12674 0
M  V30 2688 C 247.806 -2.14786 0.799979 0
M  V30 2689 C 248.806 -1.59711 -0.18685 0
M  V30 2690 O 249.996 -1.74156 0.0392558 0
M  V30 2691 C 247.128 -3.40374 0.189228 0
M  V30 2692 H 248.321 -2.45203 1.72671 0
M  V30 2693 H 245.874 -1.25597 0.930326 0
M  V30 2694 H 246.609 -3.15577 -0.747107 0
M  V30 2695 H 246.394 -3.81637 0.899766 0
M  V30 2696 H 247.884 -4.17594 -0.0228143 0
M  V30 2697 N 248.321 -0.919034 -1.28029 0
M  V30 2698 C 249.737 -0.617972 -1.4715 0
M  V30 2699 C 249.937 0.835242 -1.83374 0
M  V30 2700 O 248.993 1.61388 -1.94191 0
M  V30 2701 C 250.306 -1.56041 -2.57044 0
M  V30 2702 C 251.854 -1.56769 -2.7091 0
M  V30 2703 C 252.329 -2.49688 -3.83953 0
M  V30 2704 N 253.82 -2.47845 -3.91314 0
M  V30 2705 C 254.555 -3.16437 -4.78179 0
M  V30 2706 N 254.051 -3.94376 -5.69596 0
M  V30 2707 N 255.844 -3.05498 -4.71834 0
M  V30 2708 H 247.995 -1.85866 -1.02798 0
M  V30 2709 H 250.258 -0.797506 -0.512531 0
M  V30 2710 H 249.964 -2.59671 -2.372 0
M  V30 2711 H 249.838 -1.29551 -3.54255 0
M  V30 2712 H 252.225 -0.538745 -2.90141 0
M  V30 2713 H 252.306 -1.87305 -1.74214 0
M  V30 2714 H 251.95 -3.52688 -3.65477 0
M  V30 2715 H 251.88 -2.16453 -4.80058 0
M  V30 2716 H 254.371 -1.91234 -3.25941 0
M  V30 2717 H 254.684 -4.43721 -6.32718 0
M  V30 2718 H 253.029 -3.98481 -5.69419 0
M  V30 2719 H 256.22 -2.44108 -3.99411 0
M  V30 2720 H 256.393 -3.59225 -5.39316 0
M  V30 2721 N 249.799 1.42003 -0.683588 0
M  V30 2722 C 250.732 2.28166 0.039592 0
M  V30 2723 C 251.71 1.41562 0.799942 0
M  V30 2724 O 252.894 1.70997 0.793248 0
M  V30 2725 C 250.021 3.21575 1.06335 0
M  V30 2726 C 249.067 4.24643 0.397562 0
M  V30 2727 S 249.9 5.2869 -0.851296 0
M  V30 2728 C 251.056 6.25666 0.171166 0
M  V30 2729 H 251.289 2.89153 -0.691229 0
M  V30 2730 H 248.822 1.46962 -0.473435 0
M  V30 2731 H 250.78 3.75928 1.6489 0
M  V30 2732 H 249.441 2.59707 1.76667 0
M  V30 2733 H 248.634 4.90223 1.17035 0
M  V30 2734 H 248.236 3.73824 -0.114611 0
M  V30 2735 H 250.528 6.69653 1.02819 0
M  V30 2736 H 251.471 7.06666 -0.450397 0
M  V30 2737 H 251.879 5.62095 0.520578 0
M  V30 2738 N 251.277 0.427512 1.51691 0
M  V30 2739 C 252.688 -0.0378867 1.86662 0
M  V30 2740 C 253.039 -1.42819 1.34525 0
M  V30 2741 O 252.164 -2.05037 0.692014 0
M  V30 2742 C 252.759 -0.0755266 3.38716 0
M  V30 2743 C 251.318 -0.485309 3.73258 0
M  V30 2744 C 250.465 0.328399 2.75349 0
M  V30 2745 H 253.416 0.64379 1.45055 0
M  V30 2746 H 253.437 -0.887056 3.70016 0
M  V30 2747 H 252.949 0.936487 3.76632 0
M  V30 2748 H 251.05 -1.50329 3.40928 0
M  V30 2749 H 251.163 -0.21693 4.78609 0
M  V30 2750 H 249.527 -0.211905 2.53817 0
M  V30 2751 H 250.31 1.3391 3.16106 0
M  V30 2752 N 252.755 -1.56801 0.158532 0
M  V30 2753 C 253.687 -2.14488 -0.807923 0
M  V30 2754 C 254.7 -1.09721 -1.20271 0
M  V30 2755 O 255.889 -1.36956 -1.14478 0
M  V30 2756 C 252.989 -2.66217 -2.09718 0
M  V30 2757 C 252.162 -3.95507 -1.86796 0
M  V30 2758 C 251.221 -4.3243 -2.99818 0
M  V30 2759 O 250.247 -5.00543 -2.71008 0
M  V30 2760 N 251.449 -3.92947 -4.27285 0
M  V30 2761 H 254.214 -2.98042 -0.314816 0
M  V30 2762 H 251.775 -1.61881 -0.0246692 0
M  V30 2763 H 253.767 -2.87924 -2.84398 0
M  V30 2764 H 252.337 -1.87324 -2.50257 0
M  V30 2765 H 251.557 -3.82309 -0.96089 0
M  V30 2766 H 252.845 -4.79972 -1.68833 0
M  V30 2767 H 252.243 -3.38087 -4.53557 0
M  V30 2768 H 250.8 -4.19681 -4.9871 0
M  V30 2769 N 254.233 0.115231 -1.57178 0
M  V30 2770 C 255.163 1.1423 -2.03651 0
M  V30 2771 C 256.144 1.42967 -0.921655 0
M  V30 2772 O 257.329 1.53343 -1.19162 0
M  V30 2773 C 254.459 2.4675 -2.44401 0
M  V30 2774 C 253.413 2.32467 -3.59365 0
M  V30 2775 C 252.739 3.69984 -3.86026 0
M  V30 2776 C 254.039 1.78203 -4.90959 0
M  V30 2777 H 255.733 0.755749 -2.89705 0
M  V30 2778 H 253.279 0.362093 -1.39373 0
M  V30 2779 H 255.232 3.18854 -2.75517 0
M  V30 2780 H 253.956 2.87302 -1.55322 0
M  V30 2781 H 252.615 1.62811 -3.28463 0
M  V30 2782 H 252.263 4.08028 -2.94147 0
M  V30 2783 H 251.963 3.61279 -4.63412 0
M  V30 2784 H 253.487 4.43587 -4.19599 0
M  V30 2785 H 254.901 2.40128 -5.20587 0
M  V30 2786 H 253.298 1.8031 -5.72371 0
M  V30 2787 H 254.368 0.739876 -4.79222 0
M  V30 2788 N 255.711 1.52812 0.385517 0
M  V30 2789 C 256.939 1.71907 1.15133 0
M  V30 2790 C 257.354 0.439004 1.83625 0
M  V30 2791 O 256.711 -0.586765 1.7281 0
M  V30 2792 C 256.762 2.87099 2.19673 0
M  V30 2793 O 256.483 4.10151 1.53973 0
M  V30 2794 C 257.984 3.17902 3.08955 0
M  V30 2795 H 255.204 0.575479 0.345057 0
M  V30 2796 H 257.748 1.99476 0.45052 0
M  V30 2797 H 255.903 2.61982 2.85384 0
M  V30 2798 H 256.317 4.74514 2.23465 0
M  V30 2799 H 257.791 4.01959 3.7833 0
M  V30 2800 H 258.268 2.3243 3.72657 0
M  V30 2801 H 258.874 3.44871 2.48885 0
M  V30 2802 N 257.189 -0.644168 1.43834 0
M  V30 2803 C 258.438 -1.39985 1.45214 0
M  V30 2804 C 258.751 -1.95421 0.0835494 0
M  V30 2805 O 259.957 -2.71488 -0.0251748 0
M  V30 2806 C 258.413 -2.53384 2.55587 0
M  V30 2807 C 258.021 -2.04517 3.98594 0
M  V30 2808 C 259.765 -3.30685 2.66172 0
M  V30 2809 C 257.672 -3.1518 5.00416 0
M  V30 2810 H 256.602 -0.526005 0.540218 0
M  V30 2811 H 259.253 -0.694367 1.69855 0
M  V30 2812 H 257.635 -3.26446 2.24163 0
M  V30 2813 H 258.809 -1.38405 4.39523 0
M  V30 2814 H 257.124 -1.40068 3.92135 0
M  V30 2815 H 259.721 -4.13158 3.39418 0
M  V30 2816 H 260.064 -3.79312 1.71546 0
M  V30 2817 H 260.597 -2.64708 2.96942 0
M  V30 2818 H 257.336 -2.71511 5.96625 0
M  V30 2819 H 256.856 -3.79974 4.64091 0
M  V30 2820 H 258.535 -3.80166 5.23529 0
M  V30 2821 N 258.668 -1.30515 -0.883378 0
M  V30 2822 C 259.914 -1.19607 -1.63774 0
M  V30 2823 C 260.247 0.248314 -1.92606 0
M  V30 2824 O 259.522 1.17742 -1.54813 0
M  V30 2825 C 259.805 -2.02669 -2.97653 0
M  V30 2826 C 259.658 -3.55335 -2.75784 0
M  V30 2827 C 260.977 -1.86573 -3.98596 0
M  V30 2828 H 258.096 -0.435856 -0.594305 0
M  V30 2829 H 260.738 -1.60165 -1.02212 0
M  V30 2830 H 258.888 -1.68208 -3.50197 0
M  V30 2831 H 260.56 -3.99863 -2.30016 0
M  V30 2832 H 258.803 -3.79438 -2.1026 0
M  V30 2833 H 259.474 -4.08745 -3.70988 0
M  V30 2834 H 261.95 -2.16703 -3.55217 0
M  V30 2835 H 260.826 -2.47014 -4.90179 0
M  V30 2836 H 261.087 -0.825321 -4.34328 0
M  V30 2837 N 260.146 1.09593 -1.13257 0
M  V30 2838 C 261.392 1.82003 -0.89458 0
M  V30 2839 C 261.725 1.85402 0.577906 0
M  V30 2840 O 261 1.32099 1.42759 0
M  V30 2841 C 261.283 3.28237 -1.48096 0
M  V30 2842 C 261.136 3.3312 -3.02244 0
M  V30 2843 C 262.455 4.24871 -1.14774 0
M  V30 2844 H 259.574 0.66077 -0.326424 0
M  V30 2845 H 262.216 1.28389 -1.40058 0
M  V30 2846 H 260.366 3.74024 -1.05062 0
M  V30 2847 H 262.038 2.95748 -3.54021 0
M  V30 2848 H 260.281 2.72756 -3.37323 0
M  V30 2849 H 260.952 4.3613 -3.38371 0
M  V30 2850 H 263.428 3.87361 -1.51957 0
M  V30 2851 H 262.304 5.25532 -1.58452 0
M  V30 2852 H 262.565 4.42058 -0.0611849 0
M  V30 2853 N 261.624 0.925811 1.2754 0
M  V30 2854 C 262.87 0.566092 1.94739 0
M  V30 2855 C 263.203 -0.890057 1.72603 0
M  V30 2856 O 262.478 -1.63467 1.05399 0
M  V30 2857 C 262.761 0.89054 3.48915 0
M  V30 2858 C 262.614 2.4003 3.80402 0
M  V30 2859 C 263.933 0.395101 4.38323 0
M  V30 2860 H 261.052 0.20714 0.707292 0
M  V30 2861 H 263.694 1.15725 1.50691 0
M  V30 2862 H 261.844 0.387452 3.86563 0
M  V30 2863 H 263.516 2.97494 3.52555 0
M  V30 2864 H 261.759 2.85028 3.2702 0
M  V30 2865 H 262.43 2.57785 4.8811 0
M  V30 2866 H 264.906 0.826241 4.07814 0
M  V30 2867 H 263.782 0.651086 5.45025 0
M  V30 2868 H 264.043 -0.704798 4.36446 0
M  V30 2869 N 263.102 -1.41638 0.69111 0
M  V30 2870 C 264.379 -1.95036 0.148421 0
M  V30 2871 C 264.759 -1.63072 -1.34055 0
M  V30 2872 O 264.107 -0.93538 -2.08478 0
M  V30 2873 C 264.317 -3.46279 0.434951 0
M  V30 2874 C 265.665 -4.23069 0.360275 0
M  V30 2875 O 266.689 -3.54277 0.369613 0
M  V30 2876 O 265.548 -5.45583 0.316534 0
M  V30 2877 H 262.642 -0.826908 0.0123654 0
M  V30 2878 H 265.188 -1.5138 0.766963 0
M  V30 2879 H 263.96 -3.6281 1.46576 0
M  V30 2880 H 263.583 -3.97019 -0.214787 0
M  V30 2881 N 264.58 -0.43555 -1.51462 0
M  V30 2882 C 265.808 0.130242 -2.0649 0
M  V30 2883 C 266.223 1.36614 -1.30315 0
M  V30 2884 O 265.58 1.78869 -0.362223 0
M  V30 2885 C 265.631 0.454253 -3.58635 0
M  V30 2886 O 265.352 -0.73259 -4.31931 0
M  V30 2887 C 266.853 1.07091 -4.3017 0
M  V30 2888 H 264.073 0.00871669 -0.670943 0
M  V30 2889 H 266.617 -0.614117 -1.95061 0
M  V30 2890 H 264.772 1.14851 -3.69984 0
M  V30 2891 H 265.186 -0.455787 -5.22516 0
M  V30 2892 H 266.66 1.24764 -5.37716 0
M  V30 2893 H 267.137 2.05144 -3.88346 0
M  V30 2894 H 267.743 0.416089 -4.2326 0
M  V30 2895 N 266.058 1.56714 -0.166846 0
M  V30 2896 C 267.307 1.95922 0.479318 0
M  V30 2897 C 267.62 1.05529 1.6469 0
M  V30 2898 O 268.826 1.34399 2.35901 0
M  V30 2899 C 267.282 3.48359 0.90412 0
M  V30 2900 C 266.89 4.47369 -0.237621 0
M  V30 2901 C 268.634 3.96394 1.51896 0
M  V30 2902 C 266.541 5.91039 0.206561 0
M  V30 2903 H 265.471 0.731495 0.18284 0
M  V30 2904 H 268.122 1.81728 -0.254363 0
M  V30 2905 H 266.504 3.57955 1.69365 0
M  V30 2906 H 267.678 4.49485 -1.01489 0
M  V30 2907 H 265.993 4.09366 -0.762128 0
M  V30 2908 H 268.59 5.01186 1.86325 0
M  V30 2909 H 268.933 3.39075 2.41524 0
M  V30 2910 H 269.466 3.89796 0.79395 0
M  V30 2911 H 266.205 6.52221 -0.654834 0
M  V30 2912 H 265.725 5.9224 0.949282 0
M  V30 2913 H 267.404 6.43707 0.651939 0
M  V30 2914 N 267.536 -0.106894 1.57237 0
M  V30 2915 C 268.947 -0.662723 1.74542 0
M  V30 2916 C 269.298 -1.7971 0.787319 0
M  V30 2917 O 268.423 -2.16368 -0.0369636 0
M  V30 2918 C 269.018 -1.20896 3.16496 0
M  V30 2919 C 267.577 -1.71096 3.35266 0
M  V30 2920 C 266.724 -0.615642 2.7038 0
M  V30 2921 H 269.675 0.119106 1.58252 0
M  V30 2922 H 269.696 -2.07847 3.18716 0
M  V30 2923 H 269.208 -0.383122 3.86204 0
M  V30 2924 H 267.309 -2.56119 2.70618 0
M  V30 2925 H 267.422 -1.81208 4.43509 0
M  V30 2926 H 265.786 -1.05222 2.31949 0
M  V30 2927 H 266.569 0.199419 3.4272 0
M  V30 2928 N 269.014 -1.53014 -0.377408 0
M  V30 2929 C 270.263 -1.67845 -1.11853 0
M  V30 2930 C 270.576 -0.430625 -1.90801 0
M  V30 2931 O 271.782 -0.459261 -2.67587 0
M  V30 2932 C 270.238 -2.96668 -2.03756 0
M  V30 2933 C 269.846 -4.28671 -1.30175 0
M  V30 2934 C 271.59 -3.20865 -2.77932 0
M  V30 2935 C 269.497 -5.48591 -2.20911 0
M  V30 2936 H 268.427 -0.625343 -0.421263 0
M  V30 2937 H 271.078 -1.79514 -0.380409 0
M  V30 2938 H 269.46 -2.78773 -2.8125 0
M  V30 2939 H 270.634 -4.57157 -0.578259 0
M  V30 2940 H 268.949 -4.10825 -0.679108 0
M  V30 2941 H 271.546 -4.07642 -3.46024 0
M  V30 2942 H 271.889 -2.36424 -3.4265 0
M  V30 2943 H 272.422 -3.39379 -2.07525 0
M  V30 2944 H 269.161 -6.35474 -1.6079 0
M  V30 2945 H 268.681 -5.244 -2.91144 0
M  V30 2946 H 270.36 -5.8292 -2.80736 0
M  V30 2947 N 270.492 0.636531 -1.44174 0
M  V30 2948 C 271.402 1.77754 -1.53103 0
M  V30 2949 C 272.418 1.68928 -0.417034 0
M  V30 2950 O 273.594 1.89801 -0.6736 0
M  V30 2951 C 270.659 3.14115 -1.46741 0
M  V30 2952 C 269.72 3.34612 -2.68948 0
M  V30 2953 C 268.953 4.64467 -2.6288 0
M  V30 2954 O 269.176 5.44919 -1.68581 0
M  V30 2955 O 268.11 4.87049 -3.53648 0
M  V30 2956 H 271.936 1.73174 -2.49489 0
M  V30 2957 H 269.521 0.79709 -1.2636 0
M  V30 2958 H 271.403 3.95412 -1.45696 0
M  V30 2959 H 270.078 3.19249 -0.534975 0
M  V30 2960 H 268.985 2.53014 -2.75562 0
M  V30 2961 H 270.318 3.34336 -3.61221 0
M  V30 2962 N 271.97 1.30982 0.876444 0
M  V30 2963 C 272.9 1.20668 1.99903 0
M  V30 2964 C 273.881 0.095354 1.69833 0
M  V30 2965 O 275.066 0.27885 1.92188 0
M  V30 2966 C 272.196 0.90655 3.3526 0
M  V30 2967 C 271.15 1.97675 3.79617 0
M  V30 2968 C 270.476 1.52943 5.1236 0
M  V30 2969 C 271.776 3.389 3.97422 0
M  V30 2970 H 273.47 2.14586 2.0879 0
M  V30 2971 H 271.016 1.03308 1.00317 0
M  V30 2972 H 272.969 0.821025 4.13324 0
M  V30 2973 H 271.693 -0.0682969 3.26529 0
M  V30 2974 H 270.352 2.05205 3.03787 0
M  V30 2975 H 270 0.54262 5.00065 0
M  V30 2976 H 269.7 2.24532 5.43009 0
M  V30 2977 H 271.224 1.45786 5.92941 0
M  V30 2978 H 272.638 3.34081 4.659 0
M  V30 2979 H 271.035 4.0865 4.3946 0
M  V30 2980 H 272.105 3.80163 3.01006 0
M  V30 2981 N 273.449 -1.08991 1.13837 0
M  V30 2982 C 274.396 -2.15748 0.819835 0
M  V30 2983 C 275.366 -1.64636 -0.220026 0
M  V30 2984 O 276.551 -1.90582 -0.0912757 0
M  V30 2985 C 273.691 -3.4382 0.296913 0
M  V30 2986 C 272.804 -4.0881 1.39636 0
M  V30 2987 C 271.939 -5.24655 0.831314 0
M  V30 2988 C 270.978 -5.81575 1.90886 0
M  V30 2989 N 270.115 -6.88774 1.36142 0
M  V30 2990 H 274.955 -2.42338 1.73426 0
M  V30 2991 H 272.492 -1.18935 0.865613 0
M  V30 2992 H 274.45 -4.17193 -0.0244339 0
M  V30 2993 H 273.08 -3.17535 -0.580628 0
M  V30 2994 H 272.132 -3.33258 1.83422 0
M  V30 2995 H 273.444 -4.47141 2.21058 0
M  V30 2996 H 272.598 -6.04942 0.461515 0
M  V30 2997 H 271.337 -4.87698 -0.013932 0
M  V30 2998 H 270.342 -4.99946 2.28767 0
M  V30 2999 H 271.567 -6.20592 2.75758 0
M  V30 3000 H 269.513 -6.53788 0.538254 0
M  V30 3001 H 269.43 -7.25898 2.11208 0
M  V30 3002 H 270.698 -7.72806 1.01933 0
M  V30 3003 N 274.927 -0.932562 -1.27047 0
M  V30 3004 C 276.343 -0.633544 -1.46487 0
M  V30 3005 C 276.543 0.815746 -1.84249 0
M  V30 3006 O 275.599 1.59319 -1.95892 0
M  V30 3007 C 276.912 -1.58758 -2.55375 0
M  V30 3008 C 278.46 -1.59634 -2.69232 0
M  V30 3009 C 278.935 -2.53747 -3.81283 0
M  V30 3010 N 280.426 -2.51982 -3.88664 0
M  V30 3011 C 281.161 -3.21491 -4.74796 0
M  V30 3012 N 280.657 -4.00395 -5.65381 0
M  V30 3013 N 282.45 -3.10485 -4.68568 0
M  V30 3014 H 274.601 -1.86946 -1.00821 0
M  V30 3015 H 276.864 -0.802897 -0.504044 0
M  V30 3016 H 276.57 -2.62172 -2.34432 0
M  V30 3017 H 276.444 -1.33301 -3.52861 0
M  V30 3018 H 278.831 -0.569488 -2.89553 0
M  V30 3019 H 278.912 -1.89142 -1.72218 0
M  V30 3020 H 278.556 -3.56545 -3.61715 0
M  V30 3021 H 278.486 -2.21532 -4.77735 0
M  V30 3022 H 280.977 -1.94681 -3.23895 0
M  V30 3023 H 281.29 -4.50406 -6.27976 0
M  V30 3024 H 279.635 -4.04498 -5.65161 0
M  V30 3025 H 282.826 -2.48331 -3.96799 0
M  V30 3026 H 282.999 -3.64925 -5.35475 0
M  V30 3027 N 276.405 1.4127 -0.698611 0
M  V30 3028 C 277.63 2.06024 -0.238512 0
M  V30 3029 C 278.055 1.5224 1.10475 0
M  V30 3030 O 277.413 0.650623 1.69223 0
M  V30 3031 C 277.461 3.59988 -0.209952 0
M  V30 3032 O 276.565 4.04282 0.814235 0
M  V30 3033 H 275.906 0.653829 -0.115775 0
M  V30 3034 H 278.436 1.8098 -0.954326 0
M  V30 3035 H 278.446 4.07979 -0.0418436 0
M  V30 3036 H 277.121 3.98503 -1.1903 0
M  V30 3037 H 275.698 3.6779 0.615234 0
M  V30 3038 N 277.883 0.443576 1.51229 0
M  V30 3039 C 279.113 -0.119117 2.06256 0
M  V30 3040 C 279.521 -1.36471 1.31043 0
M  V30 3041 O 278.864 -1.80034 0.365151 0
M  V30 3042 C 278.926 -0.500546 3.55998 0
M  V30 3043 C 278.59 0.639125 4.52509 0
M  V30 3044 C 279.587 1.51311 4.97394 0
M  V30 3045 C 277.272 0.821632 4.95535 0
M  V30 3046 C 279.266 2.55425 5.83984 0
M  V30 3047 C 276.953 1.86603 5.81913 0
M  V30 3048 C 277.951 2.73072 6.26036 0
M  V30 3049 O 277.639 3.75718 7.10698 0
M  V30 3050 H 277.371 -0.00857665 0.675946 0
M  V30 3051 H 279.925 0.623288 1.95715 0
M  V30 3052 H 278.155 -1.29575 3.64345 0
M  V30 3053 H 279.844 -0.995116 3.93513 0
M  V30 3054 H 280.61 1.38367 4.64844 0
M  V30 3055 H 276.489 0.158149 4.60729 0
M  V30 3056 H 280.033 3.22949 6.18344 0
M  V30 3057 H 275.93 1.99564 6.13876 0
M  V30 3058 H 276.698 3.72374 7.2889 0
M  V30 3059 N 279.361 -1.56624 0.175154 0
M  V30 3060 C 280.294 -2.14 -0.792412 0
M  V30 3061 C 281.272 -1.07114 -1.22333 0
M  V30 3062 O 282.456 -1.35112 -1.31442 0
M  V30 3063 C 279.583 -2.68268 -2.0676 0
M  V30 3064 C 278.629 -3.87562 -1.7804 0
M  V30 3065 S 279.462 -5.27074 -0.946222 0
M  V30 3066 C 280.618 -5.8475 -2.23199 0
M  V30 3067 H 280.851 -2.95736 -0.304588 0
M  V30 3068 H 278.384 -1.54349 -0.0395705 0
M  V30 3069 H 280.342 -3.00182 -2.80002 0
M  V30 3070 H 279.003 -1.86612 -2.52656 0
M  V30 3071 H 278.196 -4.23874 -2.72666 0
M  V30 3072 H 277.798 -3.56555 -1.12891 0
M  V30 3073 H 280.09 -5.97898 -3.18629 0
M  V30 3074 H 281.033 -6.81756 -1.91349 0
M  V30 3075 H 281.441 -5.13198 -2.35134 0
M  V30 3076 N 280.839 0.0985539 -1.57292 0
M  V30 3077 C 282.085 0.803867 -1.86188 0
M  V30 3078 C 282.418 1.78549 -0.763794 0
M  V30 3079 O 281.693 1.93153 0.22855 0
M  V30 3080 C 281.976 1.53568 -3.25713 0
M  V30 3081 C 281.829 0.572277 -4.46145 0
M  V30 3082 C 283.148 2.48708 -3.63087 0
M  V30 3083 H 280.267 0.290781 -0.677211 0
M  V30 3084 H 282.909 0.0675783 -1.8988 0
M  V30 3085 H 281.059 2.16332 -3.22696 0
M  V30 3086 H 282.731 -0.0480894 -4.61275 0
M  V30 3087 H 280.974 -0.114618 -4.33649 0
M  V30 3088 H 281.645 1.12139 -5.40489 0
M  V30 3089 H 284.121 1.96039 -3.67026 0
M  V30 3090 H 282.997 2.96932 -4.61652 0
M  V30 3091 H 283.258 3.32309 -2.91588 0
M  V30 3092 N 282.317 1.53212 0.369288 0
M  V30 3093 C 283.563 1.70413 1.11046 0
M  V30 3094 C 283.918 0.448509 1.87099 0
M  V30 3095 O 283.211 -0.558382 1.83283 0
M  V30 3096 C 283.405 2.89101 2.10132 0
M  V30 3097 C 283.234 4.26084 1.43814 0
M  V30 3098 C 282.004 4.90994 1.19384 0
M  V30 3099 C 284.202 5.06754 0.877802 0
M  V30 3100 N 282.184 6.11911 0.49377 0
M  V30 3101 C 283.555 6.1924 0.306891 0
M  V30 3102 C 285.61 4.91814 0.776129 0
M  V30 3103 C 284.313 7.1842 -0.355774 0
M  V30 3104 C 286.339 5.91263 0.127252 0
M  V30 3105 C 285.701 7.03069 -0.432801 0
M  V30 3106 H 281.8 0.676872 0.391623 0
M  V30 3107 H 284.384 1.90603 0.397334 0
M  V30 3108 H 282.555 2.70456 2.78761 0
M  V30 3109 H 284.287 2.95142 2.76899 0
M  V30 3110 H 281.042 4.50074 1.47413 0
M  V30 3111 H 281.466 6.76813 0.159207 0
M  V30 3112 H 286.108 4.05564 1.19489 0
M  V30 3113 H 283.826 8.04264 -0.786499 0
M  V30 3114 H 287.412 5.81779 0.0495613 0
M  V30 3115 H 286.292 7.78702 -0.926958 0
M  V30 3116 N 283.795 -0.628877 1.44509 0
M  V30 3117 C 285.02 -1.42048 1.5112 0
M  V30 3118 C 285.445 -1.87594 0.137818 0
M  V30 3119 O 284.803 -1.58873 -0.873437 0
M  V30 3120 C 284.851 -2.61541 2.48251 0
M  V30 3121 O 283.955 -3.61453 1.98559 0
M  V30 3122 H 283.296 -0.424942 0.510216 0
M  V30 3123 H 285.826 -0.767374 1.89664 0
M  V30 3124 H 285.836 -3.09057 2.66361 0
M  V30 3125 H 284.511 -2.27736 3.48007 0
M  V30 3126 H 283.088 -3.20731 1.90227 0
M  V30 3127 N 285.273 -1.31445 -0.869486 0
M  V30 3128 C 286.519 -1.22347 -1.62489 0
M  V30 3129 C 286.874 0.216204 -1.91181 0
M  V30 3130 O 286.167 1.14977 -1.53268 0
M  V30 3131 C 286.361 -2.00145 -2.96102 0
M  V30 3132 C 286.19 -3.51531 -2.80456 0
M  V30 3133 C 284.96 -4.20882 -2.79618 0
M  V30 3134 C 287.158 -4.46471 -2.5528 0
M  V30 3135 N 285.14 -5.58421 -2.55027 0
M  V30 3136 C 286.511 -5.71682 -2.39957 0
M  V30 3137 C 288.566 -4.35892 -2.40629 0
M  V30 3138 C 287.269 -6.87511 -2.11472 0
M  V30 3139 C 289.295 -5.51505 -2.13532 0
M  V30 3140 C 288.657 -6.75707 -1.98998 0
M  V30 3141 H 284.756 -0.502815 -0.598917 0
M  V30 3142 H 287.34 -1.65639 -1.02332 0
M  V30 3143 H 285.511 -1.59221 -3.54264 0
M  V30 3144 H 287.243 -1.83063 -3.60929 0
M  V30 3145 H 283.998 -3.72857 -2.92018 0
M  V30 3146 H 284.422 -6.30841 -2.45701 0
M  V30 3147 H 289.064 -3.40533 -2.50593 0
M  V30 3148 H 286.782 -7.82897 -2.00245 0
M  V30 3149 H 290.368 -5.45238 -2.02995 0
M  V30 3150 H 289.248 -7.63655 -1.78326 0
M  V30 3151 N 286.751 1.08385 -1.14413 0
M  V30 3152 C 287.998 1.80776 -0.912482 0
M  V30 3153 C 288.326 1.86236 0.560934 0
M  V30 3154 O 287.581 1.33431 1.43159 0
M  V30 3155 C 287.88 3.26273 -1.45879 0
M  V30 3156 C 287.546 3.4093 -2.95089 0
M  V30 3157 C 286.208 3.44638 -3.35824 0
M  V30 3158 C 288.56 3.44591 -3.91033 0
M  V30 3159 C 285.888 3.49597 -4.71167 0
M  V30 3160 C 288.24 3.51086 -5.26233 0
M  V30 3161 C 286.904 3.53067 -5.6648 0
M  V30 3162 H 286.174 0.661507 -0.333901 0
M  V30 3163 H 288.821 1.27613 -1.42784 0
M  V30 3164 H 287.126 3.82146 -0.864376 0
M  V30 3165 H 288.823 3.80839 -1.2555 0
M  V30 3166 H 285.413 3.38736 -2.62594 0
M  V30 3167 H 289.597 3.40957 -3.60641 0
M  V30 3168 H 284.853 3.49424 -5.0171 0
M  V30 3169 H 289.027 3.52864 -6.00383 0
M  V30 3170 H 286.654 3.56662 -6.71339 0
M  V30 3171 N 288.23 0.939286 1.26551 0
M  V30 3172 C 289.476 0.586715 1.94128 0
M  V30 3173 C 289.809 -0.8717 1.73537 0
M  V30 3174 O 289.084 -1.62339 1.07127 0
M  V30 3175 C 289.367 0.927497 3.4795 0
M  V30 3176 C 289.22 2.44052 3.77834 0
M  V30 3177 C 290.539 0.441569 4.37879 0
M  V30 3178 H 287.658 0.21463 0.705055 0
M  V30 3179 H 290.3 1.17316 1.49455 0
M  V30 3180 H 288.45 0.428431 3.8613 0
M  V30 3181 H 290.122 3.01216 3.4938 0
M  V30 3182 H 288.365 2.8848 3.23978 0
M  V30 3183 H 289.036 2.62947 4.85348 0
M  V30 3184 H 291.512 0.869448 4.06915 0
M  V30 3185 H 290.388 0.708856 5.44304 0
M  V30 3186 H 290.649 -0.658467 4.37169 0
M  V30 3187 N 289.708 -1.40897 0.706093 0
M  V30 3188 C 290.938 -2.05075 0.250523 0
M  V30 3189 C 291.346 -1.53275 -1.10921 0
M  V30 3190 O 290.689 -0.680281 -1.7064 0
M  V30 3191 C 290.751 -3.59219 0.142178 0
M  V30 3192 C 290.415 -4.33864 1.43566 0
M  V30 3193 C 291.412 -4.62448 2.37566 0
M  V30 3194 C 289.097 -4.72946 1.69195 0
M  V30 3195 C 291.091 -5.29088 3.5545 0
M  V30 3196 C 288.778 -5.3932 2.87362 0
M  V30 3197 C 289.776 -5.6732 3.80312 0
M  V30 3198 O 289.464 -6.32325 4.96408 0
M  V30 3199 H 289.196 -0.666645 0.112074 0
M  V30 3200 H 291.75 -1.81467 0.962239 0
M  V30 3201 H 289.98 -3.81609 -0.6254 0
M  V30 3202 H 291.669 -4.0495 -0.277584 0
M  V30 3203 H 292.435 -4.32727 2.19027 0
M  V30 3204 H 288.314 -4.50527 0.977042 0
M  V30 3205 H 291.858 -5.50859 4.28018 0
M  V30 3206 H 287.755 -5.68461 3.05814 0
M  V30 3207 H 288.523 -6.50821 4.9636 0
M  V30 3208 N 291.186 -0.45159 -1.50991 0
M  V30 3209 C 292.432 0.110237 -2.025 0
M  V30 3210 C 292.765 1.41109 -1.33424 0
M  V30 3211 O 292.04 1.89135 -0.453659 0
M  V30 3212 C 292.323 0.314271 -3.58726 0
M  V30 3213 C 292.176 -1.00623 -4.38401 0
M  V30 3214 C 293.495 1.07767 -4.26702 0
M  V30 3215 H 290.614 0.0385897 -0.735989 0
M  V30 3216 H 293.256 -0.593374 -1.80497 0
M  V30 3217 H 291.406 0.913601 -3.77605 0
M  V30 3218 H 293.078 -1.64064 -4.31139 0
M  V30 3219 H 291.321 -1.6075 -4.02917 0
M  V30 3220 H 291.992 -0.817341 -5.45915 0
M  V30 3221 H 294.468 0.56986 -4.12179 0
M  V30 3222 H 293.344 1.18921 -5.35863 0
M  V30 3223 H 293.605 2.10939 -3.88532 0
M  V30 3224 N 292.664 1.56529 -0.183458 0
M  V30 3225 C 293.594 2.21549 0.737456 0
M  V30 3226 C 294.575 1.17489 1.23005 0
M  V30 3227 O 295.76 1.45959 1.281 0
M  V30 3228 C 292.89 2.86575 1.96194 0
M  V30 3229 C 291.844 3.96778 1.60473 0
M  V30 3230 C 291.17 4.48911 2.90487 0
M  V30 3231 C 292.47 5.15767 0.823497 0
M  V30 3232 H 294.164 2.98761 0.195453 0
M  V30 3233 H 291.71 1.43702 0.0925686 0
M  V30 3234 H 293.663 3.30739 2.61131 0
M  V30 3235 H 292.387 2.06749 2.52828 0
M  V30 3236 H 291.046 3.53286 0.978997 0
M  V30 3237 H 290.694 3.65862 3.45186 0
M  V30 3238 H 290.394 5.23265 2.67335 0
M  V30 3239 H 291.918 4.95771 3.56432 0
M  V30 3240 H 293.332 5.56549 1.37571 0
M  V30 3241 H 291.729 5.96114 0.690551 0
M  V30 3242 H 292.799 4.84574 -0.177782 0
M  V30 3243 N 294.142 -0.090211 1.57342 0
M  V30 3244 C 295.105 -1.09335 2.01441 0
M  V30 3245 C 296.105 -1.32666 0.908641 0
M  V30 3246 O 297.295 -1.28697 1.174 0
M  V30 3247 C 294.427 -2.44136 2.3793 0
M  V30 3248 H 295.62 -0.713662 2.91285 0
M  V30 3249 H 293.173 -0.335404 1.52659 0
M  V30 3250 H 293.908 -2.86972 1.51055 0
M  V30 3251 H 293.693 -2.28548 3.18603 0
M  V30 3252 H 295.183 -3.16277 2.72688 0
M  V30 3253 N 295.62 -1.53406 -0.361157 0
M  V30 3254 C 296.583 -1.79479 -1.42548 0
M  V30 3255 C 297.583 -0.665327 -1.4639 0
M  V30 3256 O 298.773 -0.933549 -1.47073 0
M  V30 3257 C 295.905 -1.92087 -2.8163 0
M  V30 3258 H 297.098 -2.74538 -1.20701 0
M  V30 3259 H 294.651 -1.4455 -0.594546 0
M  V30 3260 H 295.386 -0.991099 -3.08784 0
M  V30 3261 H 295.171 -2.74241 -2.80239 0
M  V30 3262 H 296.661 -2.13836 -3.58697 0
M  V30 3263 N 297.098 0.621204 -1.44841 0
M  V30 3264 C 298.046 1.75385 -1.52784 0
M  V30 3265 C 299.04 1.64639 -0.398779 0
M  V30 3266 O 300.246 1.70598 -0.574137 0
M  V30 3267 H 296.621 0.579193 -0.479625 0
M  V30 3268 H 298.592 1.6581 -2.48092 0
M  V30 3269 C 297.341 3.13742 -1.4987 0
M  V30 3270 H 296.664 3.22663 -2.36069 0
M  V30 3271 H 298.104 3.92861 -1.59487 0
M  V30 3272 C 296.563 3.36175 -0.220973 0
M  V30 3273 O 297.093 3.95469 0.704782 0
M  V30 3274 N 295.299 2.90348 -0.120963 0
M  V30 3275 H 294.846 2.42278 -0.875162 0
M  V30 3276 H 294.804 3.05732 0.733168 0
M  V30 3277 N 298.576 1.31904 0.862503 0
M  V30 3278 C 299.506 1.22782 1.98612 0
M  V30 3279 C 300.487 0.113362 1.69722 0
M  V30 3280 O 301.672 0.299218 1.91881 0
M  V30 3281 C 298.802 0.942058 3.34279 0
M  V30 3282 C 297.756 2.0169 3.77499 0
M  V30 3283 C 297.082 1.58369 5.10709 0
M  V30 3284 C 298.382 3.43096 3.93805 0
M  V30 3285 H 300.076 2.16788 2.06502 0
M  V30 3286 H 297.622 1.04366 0.992154 0
M  V30 3287 H 299.575 0.864818 4.1243 0
M  V30 3288 H 298.299 -0.0336603 3.26583 0
M  V30 3289 H 296.958 2.08416 3.01593 0
M  V30 3290 H 296.606 0.595628 4.99461 0
M  V30 3291 H 296.306 2.30279 5.40597 0
M  V30 3292 H 297.83 1.52067 5.91361 0
M  V30 3293 H 299.244 3.39003 4.62331 0
M  V30 3294 H 297.641 4.13288 4.35101 0
M  V30 3295 H 298.711 3.83334 2.96957 0
M  V30 3296 N 300.054 -1.07777 1.14986 0
M  V30 3297 C 300.984 -2.16865 0.865557 0
M  V30 3298 C 301.965 -1.69123 -0.182083 0
M  V30 3299 O 303.15 -1.94164 -0.0373815 0
M  V30 3300 C 300.28 -3.45539 0.349313 0
M  V30 3301 C 299.234 -4.06708 1.33313 0
M  V30 3302 C 298.56 -5.30411 0.675918 0
M  V30 3303 C 299.86 -4.47241 2.69764 0
M  V30 3304 H 301.554 -2.40905 1.77778 0
M  V30 3305 H 299.1 -1.15781 0.856203 0
M  V30 3306 H 301.053 -4.21174 0.137983 0
M  V30 3307 H 299.777 -3.21072 -0.598362 0
M  V30 3308 H 298.436 -3.33112 1.53075 0
M  V30 3309 H 298.084 -5.02232 -0.277767 0
M  V30 3310 H 297.784 -5.72293 1.33244 0
M  V30 3311 H 299.308 -6.08755 0.474262 0
M  V30 3312 H 300.722 -5.14025 2.53873 0
M  V30 3313 H 299.119 -5.00062 3.3175 0
M  V30 3314 H 300.189 -3.58818 3.26156 0
M  V30 3315 N 301.532 -0.945985 -1.26051 0
M  V30 3316 C 302.462 -0.477172 -2.28572 0
M  V30 3317 C 303.443 0.472032 -1.63419 0
M  V30 3318 O 304.628 0.372853 -1.90587 0
M  V30 3319 C 301.758 0.253975 -3.4637 0
M  V30 3320 C 300.712 -0.609135 -4.23643 0
M  V30 3321 C 300.038 0.252252 -5.34105 0
M  V30 3322 C 301.338 -1.8829 -4.8718 0
M  V30 3323 H 303.032 -1.33402 -2.68038 0
M  V30 3324 H 300.578 -0.642904 -1.28852 0
M  V30 3325 H 302.531 0.593016 -4.17207 0
M  V30 3326 H 301.255 1.145 -3.05871 0
M  V30 3327 H 299.914 -0.931138 -3.54578 0
M  V30 3328 H 299.562 1.14278 -4.89846 0
M  V30 3329 H 299.262 -0.32188 -5.86718 0
M  V30 3330 H 300.786 0.586454 -6.07777 0
M  V30 3331 H 302.2 -1.61081 -5.50205 0
M  V30 3332 H 300.597 -2.40199 -5.49931 0
M  V30 3333 H 301.667 -2.59134 -4.09851 0
M  V30 3334 N 303.011 1.40521 -0.713556 0
M  V30 3335 C 304.257 2.01221 -0.252564 0
M  V30 3336 C 304.59 1.56444 1.1506 0
M  V30 3337 O 303.865 0.783597 1.78017 0
M  V30 3338 C 304.148 3.58582 -0.330332 0
M  V30 3339 C 304.001 4.13437 -1.77173 0
M  V30 3340 C 305.32 4.39079 0.299641 0
M  V30 3341 H 302.439 0.731077 -0.0932471 0
M  V30 3342 H 305.081 1.67026 -0.905673 0
M  V30 3343 H 303.231 3.87844 0.225737 0
M  V30 3344 H 304.903 3.9498 -2.38303 0
M  V30 3345 H 303.146 3.67801 -2.3001 0
M  V30 3346 H 303.817 5.22597 -1.77755 0
M  V30 3347 H 306.293 4.15735 -0.174139 0
M  V30 3348 H 305.169 5.4848 0.214771 0
M  V30 3349 H 305.43 4.19915 1.38288 0
M  V30 3350 N 304.489 0.459591 1.5075 0
M  V30 3351 C 305.738 -0.100971 2.01447 0
M  V30 3352 C 306.051 -1.41816 1.34713 0
M  V30 3353 O 307.257 -2.06299 1.76502 0
M  V30 3354 C 305.713 -0.23047 3.59161 0
M  V30 3355 C 305.321 1.0776 4.34847 0
M  V30 3356 C 307.065 -0.743608 4.17936 0
M  V30 3357 C 304.972 0.91253 5.84317 0
M  V30 3358 H 303.902 -0.0415102 0.752856 0
M  V30 3359 H 306.553 0.592742 1.73663 0
M  V30 3360 H 304.935 -0.987703 3.83485 0
M  V30 3361 H 306.109 1.8449 4.22256 0
M  V30 3362 H 304.424 1.52097 3.87628 0
M  V30 3363 H 307.021 -0.883959 5.27343 0
M  V30 3364 H 307.364 -1.73196 3.78562 0
M  V30 3365 H 307.897 -0.04408 3.97776 0
M  V30 3366 H 304.636 1.87391 6.28144 0
M  V30 3367 H 304.156 0.185422 5.99513 0
M  V30 3368 H 305.835 0.574547 6.44444 0
M  V30 3369 N 305.967 -1.56429 0.191757 0
M  V30 3370 C 307.378 -1.83912 -0.321428 0
M  V30 3371 C 307.729 -1.11231 -1.61623 0
M  V30 3372 O 306.854 -0.37202 -2.13178 0
M  V30 3373 C 307.449 -3.33624 -0.589961 0
M  V30 3374 C 306.008 -3.6153 -1.04753 0
M  V30 3375 C 305.155 -2.7714 -0.0943327 0
M  V30 3376 H 308.106 -1.53161 0.415612 0
M  V30 3377 H 308.127 -3.52213 -1.43966 0
M  V30 3378 H 307.639 -3.86495 0.352588 0
M  V30 3379 H 305.74 -3.14089 -2.00447 0
M  V30 3380 H 305.853 -4.69737 -0.942549 0
M  V30 3381 H 304.217 -2.47638 -0.595589 0
M  V30 3382 H 305 -3.32799 0.842601 0
M  V30 3383 N 307.445 0.0818655 -1.57387 0
M  V30 3384 C 308.375 1.09885 -2.06028 0
M  V30 3385 C 309.356 1.4098 -0.951774 0
M  V30 3386 O 310.541 1.50781 -1.22387 0
M  V30 3387 C 307.671 2.4151 -2.4958 0
M  V30 3388 C 306.625 2.24792 -3.64215 0
M  V30 3389 C 305.951 3.61712 -3.93787 0
M  V30 3390 C 307.251 1.67749 -4.94629 0
M  V30 3391 H 308.945 0.694128 -2.91243 0
M  V30 3392 H 306.491 0.332448 -1.4011 0
M  V30 3393 H 308.444 3.12939 -2.82219 0
M  V30 3394 H 307.168 2.83943 -1.61381 0
M  V30 3395 H 305.827 1.55807 -3.31843 0
M  V30 3396 H 305.475 4.01697 -3.02735 0
M  V30 3397 H 305.175 3.51368 -4.70971 0
M  V30 3398 H 306.699 4.34587 -4.28913 0
M  V30 3399 H 308.113 2.29032 -5.25564 0
M  V30 3400 H 306.51 1.68128 -5.76067 0
M  V30 3401 H 307.58 0.638059 -4.80684 0
M  V30 3402 N 308.923 1.53595 0.353017 0
M  V30 3403 C 309.853 1.83902 1.43883 0
M  V30 3404 C 310.834 0.693421 1.55324 0
M  V30 3405 O 312.019 0.944452 1.69687 0
M  V30 3406 C 309.149 2.04016 2.8106 0
M  V30 3407 C 308.103 3.19814 2.84434 0
M  V30 3408 C 307.429 3.25244 4.24406 0
M  V30 3409 C 308.729 4.58133 2.50822 0
M  V30 3410 H 310.423 2.74835 1.1877 0
M  V30 3411 H 307.969 1.32242 0.569917 0
M  V30 3412 H 309.922 2.238 3.57059 0
M  V30 3413 H 308.646 1.09804 3.07588 0
M  V30 3414 H 307.305 2.9987 2.10887 0
M  V30 3415 H 306.953 2.28646 4.48029 0
M  V30 3416 H 306.653 4.03054 4.27576 0
M  V30 3417 H 308.177 3.47228 5.0226 0
M  V30 3418 H 309.591 4.77995 3.16534 0
M  V30 3419 H 307.988 5.38276 2.6529 0
M  V30 3420 H 309.058 4.62387 1.46034 0
M  V30 3421 N 310.401 -0.613514 1.45168 0
M  V30 3422 C 311.647 -1.37279 1.50087 0
M  V30 3423 C 312.002 -1.91902 0.138294 0
M  V30 3424 O 311.295 -1.71764 -0.84899 0
M  V30 3425 C 311.489 -2.54347 2.51083 0
M  V30 3426 C 311.318 -2.11186 3.97027 0
M  V30 3427 C 310.088 -1.97636 4.65046 0
M  V30 3428 C 312.286 -1.69016 4.85735 0
M  V30 3429 N 310.268 -1.48224 5.95737 0
M  V30 3430 C 311.639 -1.30976 6.06008 0
M  V30 3431 C 313.694 -1.56555 4.72647 0
M  V30 3432 C 312.397 -0.817197 7.14643 0
M  V30 3433 C 314.423 -1.08702 5.81324 0
M  V30 3434 C 313.785 -0.716233 7.00749 0
M  V30 3435 H 309.884 -0.496478 0.60418 0
M  V30 3436 H 312.468 -0.701988 1.81605 0
M  V30 3437 H 310.639 -3.19031 2.21527 0
M  V30 3438 H 312.371 -3.21208 2.46187 0
M  V30 3439 H 309.126 -2.18638 4.20112 0
M  V30 3440 H 309.55 -1.25767 6.65216 0
M  V30 3441 H 314.192 -1.83849 3.80736 0
M  V30 3442 H 311.91 -0.531797 8.06348 0
M  V30 3443 H 315.496 -0.994943 5.7323 0
M  V30 3444 H 314.376 -0.351642 7.83411 0
M  V30 3445 N 311.879 -1.3236 -0.855495 0
M  V30 3446 C 313.128 -1.22226 -1.60448 0
M  V30 3447 C 313.441 0.214733 -1.94418 0
M  V30 3448 O 314.647 0.437917 -2.67945 0
M  V30 3449 C 313.103 -2.14063 -2.89318 0
M  V30 3450 C 312.711 -3.62839 -2.62777 0
M  V30 3451 C 314.455 -2.12764 -3.67331 0
M  V30 3452 C 312.362 -4.4664 -3.87643 0
M  V30 3453 H 311.292 -0.453904 -0.602069 0
M  V30 3454 H 313.943 -1.57314 -0.944698 0
M  V30 3455 H 312.325 -1.71889 -3.5675 0
M  V30 3456 H 313.499 -4.1335 -2.03662 0
M  V30 3457 H 311.814 -3.66261 -1.98096 0
M  V30 3458 H 314.411 -2.72611 -4.59987 0
M  V30 3459 H 314.754 -1.11841 -4.00995 0
M  V30 3460 H 315.287 -2.53214 -3.06802 0
M  V30 3461 H 312.026 -5.48373 -3.5912 0
M  V30 3462 H 311.546 -4.0088 -4.46156 0
M  V30 3463 H 313.225 -4.59597 -4.55389 0
M  V30 3464 N 313.357 1.07166 -1.15556 0
M  V30 3465 C 314.32 2.12589 -0.856644 0
M  V30 3466 C 315.32 1.6015 0.14444 0
M  V30 3467 O 316.51 1.7399 -0.0854163 0
M  V30 3468 C 313.642 3.39753 -0.279405 0
M  V30 3469 H 314.835 2.40539 -1.79112 0
M  V30 3470 H 312.388 1.23086 -0.963298 0
M  V30 3471 H 313.123 3.17447 0.663174 0
M  V30 3472 H 312.908 3.79117 -1.00063 0
M  V30 3473 H 314.398 4.17507 -0.0879113 0
M  V30 3474 N 314.835 0.952656 1.25548 0
M  V30 3475 C 315.798 0.475794 2.24207 0
M  V30 3476 C 316.798 -0.419428 1.55234 0
M  V30 3477 O 317.988 -0.216994 1.72843 0
M  V30 3478 C 315.12 -0.312814 3.39462 0
M  V30 3479 H 316.313 1.34779 2.67908 0
M  V30 3480 H 313.866 0.735739 1.37901 0
M  V30 3481 H 314.601 -1.20257 3.01179 0
M  V30 3482 H 314.386 0.329404 3.90714 0
M  V30 3483 H 315.876 -0.635986 4.12729 0
M  V30 3484 N 316.313 -1.40141 0.720998 0
M  V30 3485 C 317.559 -2.01572 0.272075 0
M  V30 3486 C 317.914 -1.5616 -1.12391 0
M  V30 3487 O 317.207 -0.774198 -1.75262 0
M  V30 3488 C 317.401 -3.56165 0.296892 0
M  V30 3489 C 317.23 -4.16584 1.69375 0
M  V30 3490 C 316 -4.49783 2.30269 0
M  V30 3491 C 318.198 -4.41076 2.64493 0
M  V30 3492 N 316.18 -4.95626 3.62254 0
M  V30 3493 C 317.551 -4.88971 3.81192 0
M  V30 3494 C 319.606 -4.23122 2.62435 0
M  V30 3495 C 318.309 -5.20796 4.96149 0
M  V30 3496 C 320.335 -4.56052 3.76524 0
M  V30 3497 C 319.697 -5.04141 4.91956 0
M  V30 3498 H 315.796 -0.768343 0.145511 0
M  V30 3499 H 318.38 -1.70287 0.943959 0
M  V30 3500 H 316.551 -3.86868 -0.344578 0
M  V30 3501 H 318.283 -4.04346 -0.169254 0
M  V30 3502 H 315.038 -4.37101 1.82318 0
M  V30 3503 H 315.462 -5.22923 4.29977 0
M  V30 3504 H 320.104 -3.85158 1.74393 0
M  V30 3505 H 317.822 -5.57672 5.84831 0
M  V30 3506 H 321.408 -4.43796 3.76213 0
M  V30 3507 H 320.288 -5.29142 5.78774 0
M  V30 3508 N 317.792 -0.46758 -1.50504 0
M  V30 3509 C 319.038 0.0808869 -2.03239 0
M  V30 3510 C 319.393 1.37721 -1.34353 0
M  V30 3511 O 318.686 1.86016 -0.459194 0
M  V30 3512 C 318.88 0.323995 -3.55928 0
M  V30 3513 C 318.709 -0.947215 -4.39611 0
M  V30 3514 C 317.479 -1.48951 -4.82848 0
M  V30 3515 C 319.677 -1.84166 -4.80195 0
M  V30 3516 N 317.659 -2.71011 -5.50842 0
M  V30 3517 C 319.03 -2.90815 -5.47564 0
M  V30 3518 C 321.085 -1.85246 -4.62156 0
M  V30 3519 C 319.788 -3.98529 -5.98805 0
M  V30 3520 C 321.814 -2.91914 -5.14335 0
M  V30 3521 C 321.176 -3.97282 -5.81676 0
M  V30 3522 H 317.275 -0.0103394 -0.781932 0
M  V30 3523 H 319.859 -0.635003 -1.84054 0
M  V30 3524 H 318.03 1.00892 -3.75067 0
M  V30 3525 H 319.762 0.866492 -3.95315 0
M  V30 3526 H 316.517 -1.03918 -4.62058 0
M  V30 3527 H 316.941 -3.32988 -5.89447 0
M  V30 3528 H 321.583 -1.05103 -4.09528 0
M  V30 3529 H 319.301 -4.79491 -6.50472 0
M  V30 3530 H 322.887 -2.93729 -5.0221 0
M  V30 3531 H 321.767 -4.78462 -6.21324 0
M  V30 3532 N 319.27 1.56325 -0.20005 0
M  V30 3533 C 320.495 2.02548 0.44597 0
M  V30 3534 C 320.92 1.07922 1.5406 0
M  V30 3535 O 320.278 0.0635775 1.81188 0
M  V30 3536 C 320.326 3.47175 0.974761 0
M  V30 3537 O 319.43 3.55671 2.08739 0
M  V30 3538 H 318.771 0.655862 0.103638 0
M  V30 3539 H 321.301 2.02201 -0.312381 0
M  V30 3540 H 321.311 3.87067 1.2901 0
M  V30 3541 H 319.986 4.15538 0.17347 0
M  V30 3542 H 318.563 3.27657 1.78032 0
M  V30 3543 N 320.748 -0.0735177 1.57428 0
M  V30 3544 C 321.678 -1.0879 2.06608 0
M  V30 3545 C 322.659 -1.40473 0.959237 0
M  V30 3546 O 323.844 -1.5013 1.23185 0
M  V30 3547 C 320.974 -2.40183 2.50857 0
M  V30 3548 C 319.928 -2.22858 3.65402 0
M  V30 3549 C 319.254 -3.59619 3.957 0
M  V30 3550 C 320.554 -1.65123 4.95511 0
M  V30 3551 H 322.248 -0.678673 2.91607 0
M  V30 3552 H 319.794 -0.325013 1.40284 0
M  V30 3553 H 321.747 -3.11437 2.83874 0
M  V30 3554 H 320.471 -2.83083 1.62885 0
M  V30 3555 H 319.13 -1.54045 3.32664 0
M  V30 3556 H 318.778 -4.00086 3.04861 0
M  V30 3557 H 318.478 -3.48866 4.72828 0
M  V30 3558 H 320.002 -4.32306 4.31212 0
M  V30 3559 H 321.416 -2.26241 5.26771 0
M  V30 3560 H 319.813 -1.65071 5.7695 0
M  V30 3561 H 320.883 -0.612559 4.81015 0
M  V30 3562 N 322.226 -1.5378 -0.344866 0
M  V30 3563 C 323.642 -1.44015 -0.687888 0
M  V30 3564 C 323.842 -0.595834 -1.92489 0
M  V30 3565 O 322.898 -0.0863064 -2.52352 0
M  V30 3566 C 324.211 -2.87481 -0.881758 0
M  V30 3567 C 325.759 -2.97247 -0.980459 0
M  V30 3568 C 326.234 -4.41819 -1.20665 0
M  V30 3569 N 327.725 -4.45339 -1.27389 0
M  V30 3570 C 328.46 -5.54333 -1.46639 0
M  V30 3571 N 327.956 -6.73335 -1.63071 0
M  V30 3572 N 329.749 -5.41944 -1.49176 0
M  V30 3573 H 321.9 -2.07169 0.468475 0
M  V30 3574 H 324.163 -0.93643 0.147655 0
M  V30 3575 H 323.869 -3.51672 -0.0443444 0
M  V30 3576 H 323.743 -3.32352 -1.78388 0
M  V30 3577 H 326.13 -2.33197 -1.8084 0
M  V30 3578 H 326.211 -2.5574 -0.0552713 0
M  V30 3579 H 325.855 -5.06449 -0.383652 0
M  V30 3580 H 325.785 -4.80917 -2.14539 0
M  V30 3581 H 328.276 -3.59585 -1.1622 0
M  V30 3582 H 328.589 -7.52165 -1.77391 0
M  V30 3583 H 326.934 -6.76282 -1.60209 0
M  V30 3584 H 330.125 -4.47932 -1.3592 0
M  V30 3585 H 330.298 -6.26946 -1.63837 0
M  V30 3586 N 323.704 0.605807 -1.45491 0
M  V30 3587 C 325.115 1.18777 -1.44045 0
M  V30 3588 C 325.466 1.95471 -0.169001 0
M  V30 3589 O 324.591 2.0374 0.729324 0
M  V30 3590 C 325.186 2.16064 -2.60963 0
M  V30 3591 C 323.745 2.69633 -2.62631 0
M  V30 3592 C 322.892 1.45072 -2.36325 0
M  V30 3593 H 325.843 0.395017 -1.53705 0
M  V30 3594 H 325.864 2.9913 -2.35163 0
M  V30 3595 H 325.376 1.60217 -3.53486 0
M  V30 3596 H 323.477 3.29414 -1.74119 0
M  V30 3597 H 323.59 3.13944 -3.61906 0
M  V30 3598 H 321.954 1.74089 -1.85917 0
M  V30 3599 H 322.737 0.910899 -3.30995 0
M  V30 3600 N 325.182 1.32811 0.848464 0
M  V30 3601 C 326.431 1.23075 1.59798 0
M  V30 3602 C 326.744 -0.204419 1.94529 0
M  V30 3603 O 327.95 -0.423701 2.68173 0
M  V30 3604 C 326.406 2.15594 2.88179 0
M  V30 3605 C 326.014 3.64228 2.60849 0
M  V30 3606 C 327.758 2.14709 3.66197 0
M  V30 3607 C 325.665 4.48689 3.85269 0
M  V30 3608 H 324.595 0.457091 0.599653 0
M  V30 3609 H 327.246 1.57813 0.936342 0
M  V30 3610 H 325.628 1.73778 3.55833 0
M  V30 3611 H 326.802 4.14424 2.01467 0
M  V30 3612 H 325.117 3.67306 1.96151 0
M  V30 3613 H 327.714 2.75046 4.58534 0
M  V30 3614 H 328.057 1.13966 4.00397 0
M  V30 3615 H 328.59 2.54837 3.05455 0
M  V30 3616 H 325.329 5.5027 3.56207 0
M  V30 3617 H 324.849 4.03241 4.44024 0
M  V30 3618 H 326.528 4.62006 4.52946 0
M  V30 3619 N 326.66 -1.06551 1.16123 0
M  V30 3620 C 327.57 -2.17484 0.879662 0
M  V30 3621 C 328.586 -1.73377 -0.147104 0
M  V30 3622 O 329.762 -2.01379 0.0289128 0
M  V30 3623 C 326.827 -3.44591 0.381829 0
M  V30 3624 C 325.888 -4.0322 1.4735 0
M  V30 3625 C 325.121 -5.24261 0.999324 0
M  V30 3626 O 325.344 -5.70198 -0.151957 0
M  V30 3627 O 324.278 -5.74775 1.78653 0
M  V30 3628 H 328.104 -2.44075 1.80724 0
M  V30 3629 H 325.689 -1.16042 0.940992 0
M  V30 3630 H 327.571 -4.21254 0.111053 0
M  V30 3631 H 326.246 -3.19532 -0.51777 0
M  V30 3632 H 325.153 -3.2806 1.79798 0
M  V30 3633 H 326.486 -4.32568 2.34831 0
M  V30 3634 N 328.138 -0.959301 -1.25041 0
M  V30 3635 C 329.101 -0.487677 -2.23952 0
M  V30 3636 C 330.101 0.41119 -1.55454 0
M  V30 3637 O 331.291 0.207825 -1.72956 0
M  V30 3638 C 328.423 0.294807 -3.39623 0
M  V30 3639 H 329.616 -1.36198 -2.67189 0
M  V30 3640 H 327.169 -0.743042 -1.37508 0
M  V30 3641 H 327.904 1.18658 -3.01813 0
M  V30 3642 H 327.689 -0.35012 -3.90534 0
M  V30 3643 H 329.179 0.614089 -4.1306 0
M  V30 3644 N 329.616 1.39756 -0.72842 0
M  V30 3645 C 330.546 2.33289 -0.0991354 0
M  V30 3646 C 331.527 1.53568 0.731489 0
M  V30 3647 O 332.712 1.81987 0.677807 0
M  V30 3648 C 329.842 3.3763 0.813834 0
M  V30 3649 C 328.796 4.2791 0.0878663 0
M  V30 3650 C 328.122 5.22894 1.11741 0
M  V30 3651 C 329.422 5.11314 -1.06563 0
M  V30 3652 H 331.116 2.86163 -0.880408 0
M  V30 3653 H 328.662 1.37591 -0.424819 0
M  V30 3654 H 330.615 4.0201 1.26355 0
M  V30 3655 H 329.339 2.83181 1.62715 0
M  V30 3656 H 327.998 3.65 -0.342159 0
M  V30 3657 H 327.646 4.64744 1.92412 0
M  V30 3658 H 327.346 5.84143 0.636477 0
M  V30 3659 H 328.87 5.90151 1.56697 0
M  V30 3660 H 330.284 5.69076 -0.694671 0
M  V30 3661 H 328.681 5.81671 -1.47577 0
M  V30 3662 H 329.751 4.46534 -1.89038 0
M  V30 3663 N 331.094 0.475555 1.50254 0
M  V30 3664 C 332.057 -0.305016 2.27161 0
M  V30 3665 C 333.057 -0.916519 1.32123 0
M  V30 3666 O 334.247 -0.785003 1.5551 0
M  V30 3667 C 331.379 -1.43496 3.09227 0
M  V30 3668 H 332.572 0.369511 2.97615 0
M  V30 3669 H 330.125 0.229747 1.54602 0
M  V30 3670 H 330.86 -2.14441 2.43281 0
M  V30 3671 H 330.645 -1.00223 3.79075 0
M  V30 3672 H 332.135 -1.98548 3.67381 0
M  V30 3673 N 332.573 -1.56217 0.208337 0
M  V30 3674 C 333.989 -1.58919 -0.14729 0
M  V30 3675 C 334.189 -1.22486 -1.59998 0
M  V30 3676 O 333.245 -0.953849 -2.3379 0
M  V30 3677 C 334.558 -3.00236 0.167048 0
M  V30 3678 C 336.106 -3.12813 0.108219 0
M  V30 3679 C 336.581 -4.56284 0.396049 0
M  V30 3680 N 338.072 -4.61912 0.345142 0
M  V30 3681 C 338.807 -5.70837 0.541523 0
M  V30 3682 N 338.303 -6.88178 0.798968 0
M  V30 3683 N 340.096 -5.60091 0.474867 0
M  V30 3684 H 332.247 -1.78177 1.15614 0
M  V30 3685 H 334.51 -0.827555 0.462446 0
M  V30 3686 H 334.216 -3.31499 1.1748 0
M  V30 3687 H 334.09 -3.7354 -0.524184 0
M  V30 3688 H 336.477 -2.81354 -0.890157 0
M  V30 3689 H 336.558 -2.41866 0.832729 0
M  V30 3690 H 336.202 -4.88458 1.3918 0
M  V30 3691 H 336.132 -5.25439 -0.349502 0
M  V30 3692 H 338.623 -3.77589 0.153316 0
M  V30 3693 H 338.936 -7.67095 0.93727 0
M  V30 3694 H 337.281 -6.89953 0.836013 0
M  V30 3695 H 340.472 -4.67297 0.274064 0
M  V30 3696 H 340.645 -6.44917 0.631326 0
M  V30 3697 N 334.051 0.0651679 -1.57465 0
M  V30 3698 C 334.961 1.09448 -2.07505 0
M  V30 3699 C 335.977 1.41974 -1.00595 0
M  V30 3700 O 337.153 1.52018 -1.32107 0
M  V30 3701 C 334.218 2.38689 -2.51453 0
M  V30 3702 C 333.279 2.13073 -3.72691 0
M  V30 3703 C 332.512 3.36152 -4.14533 0
M  V30 3704 O 332.735 4.45517 -3.56189 0
M  V30 3705 O 331.669 3.23974 -5.07272 0
M  V30 3706 H 335.495 0.69935 -2.95538 0
M  V30 3707 H 333.08 0.279752 -1.46757 0
M  V30 3708 H 334.962 3.14736 -2.80212 0
M  V30 3709 H 333.637 2.77568 -1.66546 0
M  V30 3710 H 332.544 1.34709 -3.49005 0
M  V30 3711 H 333.877 1.79071 -4.5847 0
M  V30 3712 N 335.529 1.53961 0.336706 0
M  V30 3713 C 336.775 1.7179 1.07777 0
M  V30 3714 C 337.108 0.483263 1.88091 0
M  V30 3715 O 336.383 -0.519747 1.87427 0
M  V30 3716 C 336.666 2.98558 2.01334 0
M  V30 3717 C 336.519 4.32245 1.24437 0
M  V30 3718 C 337.838 3.21023 3.01052 0
M  V30 3719 H 334.957 0.625089 0.390426 0
M  V30 3720 H 337.599 1.86641 0.35567 0
M  V30 3721 H 335.749 2.86028 2.62908 0
M  V30 3722 H 337.421 4.56637 0.654243 0
M  V30 3723 H 335.664 4.30344 0.546458 0
M  V30 3724 H 336.335 5.17137 1.93063 0
M  V30 3725 H 338.811 3.32929 2.49595 0
M  V30 3726 H 337.687 4.11104 3.6371 0
M  V30 3727 H 337.948 2.37637 3.72802 0
M  V30 3728 N 337.007 -0.598083 1.45811 0
M  V30 3729 C 338.423 -0.919847 1.30426 0
M  V30 3730 C 338.623 -1.99759 0.264303 0
M  V30 3731 O 337.679 -2.50221 -0.338472 0
M  V30 3732 C 338.992 -1.35176 2.68603 0
M  V30 3733 C 340.54 -1.46546 2.76574 0
M  V30 3734 C 341.015 -1.9311 4.15298 0
M  V30 3735 N 342.506 -2.00328 4.1764 0
M  V30 3736 C 343.241 -2.37599 5.21856 0
M  V30 3737 N 342.737 -2.73771 6.36413 0
M  V30 3738 N 344.53 -2.38021 5.09218 0
M  V30 3739 H 336.681 0.114111 2.12093 0
M  V30 3740 H 338.944 -0.0116121 0.947929 0
M  V30 3741 H 338.65 -0.633969 3.45939 0
M  V30 3742 H 338.524 -2.3164 2.97696 0
M  V30 3743 H 340.911 -2.17415 1.99537 0
M  V30 3744 H 340.992 -0.483727 2.51185 0
M  V30 3745 H 340.636 -1.22824 4.92825 0
M  V30 3746 H 340.566 -2.92213 4.38086 0
M  V30 3747 H 343.057 -1.74925 3.34977 0
M  V30 3748 H 343.37 -3.0112 7.11721 0
M  V30 3749 H 341.715 -2.71445 6.39799 0
M  V30 3750 H 344.906 -2.09174 4.18765 0
M  V30 3751 H 345.079 -2.66741 5.90554 0
M  V30 3752 N 338.485 -1.33259 -0.841409 0
M  V30 3753 C 339.395 -1.25332 -1.98316 0
M  V30 3754 C 340.411 -0.164364 -1.73222 0
M  V30 3755 O 341.587 -0.387486 -1.97637 0
M  V30 3756 C 338.652 -0.990078 -3.32262 0
M  V30 3757 C 337.713 -2.16879 -3.70489 0
M  V30 3758 C 336.946 -1.91801 -4.98044 0
M  V30 3759 O 337.169 -0.867075 -5.63771 0
M  V30 3760 O 336.103 -2.78267 -5.33714 0
M  V30 3761 H 339.929 -2.21344 -2.07944 0
M  V30 3762 H 337.514 -1.1328 -0.974058 0
M  V30 3763 H 339.396 -0.860321 -4.12524 0
M  V30 3764 H 338.071 -0.0602155 -3.23644 0
M  V30 3765 H 336.978 -2.35407 -2.90748 0
M  V30 3766 H 338.311 -3.0819 -3.8377 0
M  V30 3767 N 339.963 1.05934 -1.16686 0
M  V30 3768 C 340.893 2.1546 -0.899949 0
M  V30 3769 C 341.874 1.69391 0.155154 0
M  V30 3770 O 343.059 1.94199 0.00648693 0
M  V30 3771 C 340.189 3.44939 -0.404241 0
M  V30 3772 C 339.143 4.04536 -1.39767 0
M  V30 3773 C 338.469 5.29268 -0.760216 0
M  V30 3774 C 339.769 4.42893 -2.76845 0
M  V30 3775 H 341.463 2.38046 -1.81588 0
M  V30 3776 H 339.009 1.14404 -0.874514 0
M  V30 3777 H 340.962 4.20901 -0.204971 0
M  V30 3778 H 339.686 3.21983 0.547206 0
M  V30 3779 H 338.345 3.30635 -1.58355 0
M  V30 3780 H 337.993 5.02611 0.197831 0
M  V30 3781 H 337.693 5.70101 -1.42332 0
M  V30 3782 H 339.217 6.07924 -0.57105 0
M  V30 3783 H 340.631 5.09921 -2.62019 0
M  V30 3784 H 339.028 4.94721 -3.39663 0
M  V30 3785 H 340.098 3.53584 -3.31823 0
M  V30 3786 N 341.441 0.965919 1.2453 0
M  V30 3787 C 342.351 0.502154 2.29163 0
M  V30 3788 C 343.367 -0.436017 1.68448 0
M  V30 3789 O 344.543 -0.309497 1.99008 0
M  V30 3790 C 341.608 -0.201956 3.46111 0
M  V30 3791 C 340.669 0.775821 4.22232 0
M  V30 3792 C 339.902 0.105217 5.33596 0
M  V30 3793 O 340.125 -1.10683 5.59558 0
M  V30 3794 O 339.059 0.796475 5.96607 0
M  V30 3795 H 342.885 1.37194 2.70946 0
M  V30 3796 H 340.47 0.732875 1.30189 0
M  V30 3797 H 342.352 -0.597564 4.17142 0
M  V30 3798 H 341.027 -1.04673 3.06309 0
M  V30 3799 H 339.934 1.22185 3.53584 0
M  V30 3800 H 341.267 1.58896 4.65846 0
M  V30 3801 N 342.919 -1.39368 0.735821 0
M  V30 3802 C 344.196 -1.94465 0.210395 0
M  V30 3803 C 344.576 -1.67254 -1.28799 0
M  V30 3804 O 343.924 -1.00123 -2.05396 0
M  V30 3805 C 344.134 -3.4472 0.544897 0
M  V30 3806 C 345.482 -4.21708 0.494689 0
M  V30 3807 O 346.506 -3.52922 0.482136 0
M  V30 3808 O 345.365 -5.44299 0.489947 0
M  V30 3809 H 342.459 -0.826096 0.0386666 0
M  V30 3810 H 345.005 -1.48863 0.814735 0
M  V30 3811 H 343.777 -3.57963 1.58045 0
M  V30 3812 H 343.4 -3.97502 -0.08837 0
M  V30 3813 N 344.397 -0.483516 -1.5 0
M  V30 3814 C 345.347 0.32306 -2.257 0
M  V30 3815 C 346.331 0.950755 -1.29805 0
M  V30 3816 O 347.523 0.861247 -1.54634 0
M  V30 3817 C 344.652 1.39724 -3.13579 0
M  V30 3818 C 343.738 0.776663 -4.16928 0
M  V30 3819 N 344.129 -0.1104 -5.0568 0
M  V30 3820 C 342.427 1.03922 -4.33724 0
M  V30 3821 C 343.128 -0.46387 -5.79848 0
M  V30 3822 N 342.104 0.163987 -5.43353 0
M  V30 3823 H 345.906 -0.360086 -2.91686 0
M  V30 3824 H 343.42 -0.298456 -1.59634 0
M  V30 3825 H 345.417 1.98837 -3.66428 0
M  V30 3826 H 344.077 2.08225 -2.49143 0
M  V30 3827 H 345.088 -0.480069 -5.1567 0
M  V30 3828 H 341.765 1.71829 -3.80501 0
M  V30 3829 H 343.155 -1.18854 -6.61304 0
M  V30 3830 N 345.875 1.56104 -0.216619 0
M  V30 3831 C 346.825 2.16703 0.708798 0
M  V30 3832 C 347.809 1.11392 1.16106 0
M  V30 3833 O 349.001 1.37395 1.11587 0
M  V30 3834 C 346.13 2.84666 1.91886 0
M  V30 3835 C 345.216 3.97195 1.48651 0
M  V30 3836 N 345.607 4.99959 0.766434 0
M  V30 3837 C 343.905 4.09193 1.77418 0
M  V30 3838 C 344.606 5.79126 0.546659 0
M  V30 3839 N 343.582 5.32315 1.10188 0
M  V30 3840 H 347.384 2.93516 0.150162 0
M  V30 3841 H 344.898 1.6239 -0.0176768 0
M  V30 3842 H 346.895 3.26486 2.59253 0
M  V30 3843 H 345.555 2.09347 2.48202 0
M  V30 3844 H 346.566 5.16197 0.419634 0
M  V30 3845 H 343.243 3.45021 2.35088 0
M  V30 3846 H 344.633 6.71895 -0.026103 0
M  V30 3847 N 347.353 -0.0568162 1.57498 0
M  V30 3848 C 348.769 -0.411933 1.54192 0
M  V30 3849 C 348.969 -1.78287 0.938942 0
M  V30 3850 O 348.025 -2.46483 0.547919 0
M  V30 3851 C 349.338 -0.339244 2.9878 0
M  V30 3852 C 350.886 -0.418348 3.10192 0
M  V30 3853 C 351.361 -0.375407 4.56459 0
M  V30 3854 N 352.852 -0.435038 4.61153 0
M  V30 3855 C 353.587 -0.424265 5.71828 0
M  V30 3856 N 353.083 -0.367418 6.91825 0
M  V30 3857 N 354.876 -0.471938 5.60115 0
M  V30 3858 H 347.027 0.840684 1.95055 0
M  V30 3859 H 349.29 0.316987 0.893433 0
M  V30 3860 H 348.996 0.601742 3.46514 0
M  V30 3861 H 348.87 -1.14371 3.59443 0
M  V30 3862 H 351.257 -1.34976 2.62422 0
M  V30 3863 H 351.338 0.414962 2.52412 0
M  V30 3864 H 350.982 0.552219 5.04889 0
M  V30 3865 H 350.912 -1.22645 5.12119 0
M  V30 3866 H 353.403 -0.482612 3.74806 0
M  V30 3867 H 353.716 -0.363535 7.71944 0
M  V30 3868 H 352.061 -0.333879 6.94198 0
M  V30 3869 H 355.252 -0.514145 4.65268 0
M  V30 3870 H 355.425 -0.460073 6.46365 0
M  V30 3871 N 348.832 -1.54138 -0.328536 0
M  V30 3872 C 349.742 -1.86192 -1.42723 0
M  V30 3873 C 350.758 -0.753382 -1.56844 0
M  V30 3874 O 351.934 -1.04718 -1.72035 0
M  V30 3875 C 348.999 -2.07824 -2.77507 0
M  V30 3876 C 348.06 -3.31641 -2.72603 0
M  V30 3877 C 347.293 -3.52232 -4.00959 0
M  V30 3878 O 347.516 -2.7636 -4.9898 0
M  V30 3879 O 346.45 -4.45699 -4.0452 0
M  V30 3880 H 350.276 -2.79608 -1.18547 0
M  V30 3881 H 347.861 -1.3998 -0.522104 0
M  V30 3882 H 349.743 -2.23411 -3.57303 0
M  V30 3883 H 348.418 -1.17596 -3.01584 0
M  V30 3884 H 347.325 -3.21444 -1.91376 0
M  V30 3885 H 348.658 -4.2191 -2.53481 0
M  V30 3886 N 350.31 0.590341 -1.46126 0
M  V30 3887 C 351.243 1.71434 -1.50617 0
M  V30 3888 C 352.221 1.58543 -0.360948 0
M  V30 3889 O 353.405 1.79865 -0.563985 0
M  V30 3890 C 350.532 3.09422 -1.37753 0
M  V30 3891 C 349.578 3.40854 -2.5636 0
M  V30 3892 S 350.411 3.33773 -4.18755 0
M  V30 3893 C 351.567 4.74312 -4.08386 0
M  V30 3894 H 351.8 1.67364 -2.45717 0
M  V30 3895 H 349.333 0.76845 -1.33919 0
M  V30 3896 H 351.291 3.8903 -1.31018 0
M  V30 3897 H 349.952 3.10989 -0.440949 0
M  V30 3898 H 349.145 4.41368 -2.43332 0
M  V30 3899 H 348.747 2.68798 -2.60046 0
M  V30 3900 H 351.039 5.64522 -3.74595 0
M  V30 3901 H 351.982 4.92397 -5.08872 0
M  V30 3902 H 352.39 4.50803 -3.3976 0
M  V30 3903 N 351.788 1.33704 0.83433 0
M  V30 3904 C 352.718 1.26967 1.95963 0
M  V30 3905 C 353.699 0.149337 1.69443 0
M  V30 3906 O 354.884 0.339852 1.91203 0
M  V30 3907 C 352.014 1.01275 3.32206 0
M  V30 3908 C 350.968 2.09652 3.73136 0
M  V30 3909 C 350.294 1.69166 5.07235 0
M  V30 3910 C 351.594 3.51372 3.86439 0
M  V30 3911 H 353.288 2.2112 2.01857 0
M  V30 3912 H 350.834 1.06447 0.969793 0
M  V30 3913 H 352.787 0.952106 4.10503 0
M  V30 3914 H 351.511 0.0356203 3.26581 0
M  V30 3915 H 350.17 2.14766 2.97104 0
M  V30 3916 H 349.818 0.701437 4.98085 0
M  V30 3917 H 349.518 2.41694 5.35591 0
M  V30 3918 H 351.042 1.64576 5.88003 0
M  V30 3919 H 352.456 3.48734 4.55036 0
M  V30 3920 H 350.853 4.22425 4.26236 0
M  V30 3921 H 351.923 3.89546 2.88759 0
M  V30 3922 N 353.266 -1.05314 1.17247 0
M  V30 3923 C 354.214 -2.15137 0.884238 0
M  V30 3924 C 355.208 -1.68729 -0.15063 0
M  V30 3925 O 356.414 -1.8 -0.00366673 0
M  V30 3926 H 352.789 -0.702471 0.2684 0
M  V30 3927 H 354.76 -2.36652 1.81764 0
M  V30 3928 C 353.509 -3.45243 0.412659 0
M  V30 3929 H 352.832 -3.81352 1.20043 0
M  V30 3930 H 354.272 -4.23263 0.249858 0
M  V30 3931 C 352.731 -3.25487 -0.86948 0
M  V30 3932 O 353.261 -3.51938 -1.93655 0
M  V30 3933 N 351.467 -2.78875 -0.817147 0
M  V30 3934 H 351.014 -2.57549 0.0514211 0
M  V30 3935 H 350.972 -2.66036 -1.67547 0
M  V30 3936 N 354.744 -0.972509 -1.24016 0
M  V30 3937 C 356.155 -0.67517 -1.74064 0
M  V30 3938 C 356.506 0.808939 -1.78747 0
M  V30 3939 O 355.631 1.63286 -1.42009 0
M  V30 3940 C 356.226 -1.21889 -3.16115 0
M  V30 3941 C 354.785 -0.971358 -3.6365 0
M  V30 3942 C 353.932 -1.35134 -2.42145 0
M  V30 3943 H 356.883 -1.14727 -1.09651 0
M  V30 3944 H 356.904 -0.587489 -3.75937 0
M  V30 3945 H 356.416 -2.29906 -3.12674 0
M  V30 3946 H 354.517 0.0930686 -3.72484 0
M  V30 3947 H 354.63 -1.62039 -4.50866 0
M  V30 3948 H 352.994 -0.769751 -2.4279 0
M  V30 3949 H 353.777 -2.4411 -2.41381 0
M  V30 3950 N 356.222 1.38976 -0.743202 0
M  V30 3951 C 357.132 2.3434 -0.110399 0
M  V30 3952 C 358.148 1.58741 0.712559 0
M  V30 3953 O 359.324 1.9099 0.639125 0
M  V30 3954 C 356.389 3.37812 0.780012 0
M  V30 3955 C 355.45 4.29263 -0.0561319 0
M  V30 3956 C 354.683 5.27793 0.791875 0
M  V30 3957 O 354.906 5.33043 2.03031 0
M  V30 3958 O 353.84 6.01512 0.216183 0
M  V30 3959 H 357.666 2.90129 -0.897714 0
M  V30 3960 H 355.251 1.40643 -0.503966 0
M  V30 3961 H 357.133 4.01194 1.28923 0
M  V30 3962 H 355.808 2.84395 1.546 0
M  V30 3963 H 354.715 3.69076 -0.611056 0
M  V30 3964 H 356.048 4.85907 -0.784531 0
M  V30 3965 N 357.7 0.491464 1.49741 0
M  V30 3966 C 358.928 -0.0535151 2.06831 0
M  V30 3967 C 359.343 -1.31683 1.35296 0
M  V30 3968 O 358.7 -1.77402 0.42836 0
M  V30 3969 C 358.751 -0.320835 3.60073 0
M  V30 3970 O 358.472 0.892394 4.28915 0
M  V30 3971 C 359.973 -0.910519 4.33848 0
M  V30 3972 H 357.193 0.0161909 0.670805 0
M  V30 3973 H 359.737 0.68609 1.92647 0
M  V30 3974 H 357.892 -1.0104 3.73991 0
M  V30 3975 H 358.306 0.649401 5.20464 0
M  V30 3976 H 359.78 -1.04721 5.41976 0
M  V30 3977 H 360.257 -1.90589 3.95692 0
M  V30 3978 H 360.863 -0.258712 4.24512 0
M  V30 3979 N 359.178 -1.55987 0.224894 0
M  V30 3980 C 360.406 -2.02784 -0.410665 0
M  V30 3981 C 360.821 -1.10464 -1.53112 0
M  V30 3982 O 360.178 -0.114871 -1.82138 0
M  V30 3983 C 360.229 -3.49087 -0.939165 0
M  V30 3984 O 359.95 -4.37887 0.136614 0
M  V30 3985 C 361.451 -4.11543 -1.64763 0
M  V30 3986 H 358.671 -0.663484 -0.100148 0
M  V30 3987 H 361.215 -2.01614 0.342326 0
M  V30 3988 H 359.37 -3.50861 -1.64242 0
M  V30 3989 H 359.784 -5.23849 -0.261155 0
M  V30 3990 H 361.258 -5.15673 -1.96939 0
M  V30 3991 H 361.735 -3.56736 -2.56195 0
M  V30 3992 H 362.341 -4.13629 -0.989503 0
M  V30 3993 N 360.656 0.0484629 -1.57525 0
M  V30 3994 C 362.072 0.40375 -1.54409 0
M  V30 3995 C 362.272 1.77786 -0.948384 0
M  V30 3996 O 361.328 2.46189 -0.560983 0
M  V30 3997 C 362.641 0.323394 -2.98956 0
M  V30 3998 C 364.189 0.401892 -3.10409 0
M  V30 3999 C 364.664 0.351195 -4.56652 0
M  V30 4000 N 366.155 0.410576 -4.61377 0
M  V30 4001 C 366.89 0.393933 -5.72045 0
M  V30 4002 N 366.386 0.330724 -6.9201 0
M  V30 4003 N 368.179 0.442227 -5.60358 0
M  V30 4004 H 360.33 -0.851016 -1.94606 0
M  V30 4005 H 362.593 -0.321721 -0.89174 0
M  V30 4006 H 362.299 -0.62011 -3.4619 0
M  V30 4007 H 362.173 1.12463 -3.60044 0
M  V30 4008 H 364.56 1.33582 -2.63134 0
M  V30 4009 H 364.641 -0.428342 -2.52188 0
M  V30 4010 H 364.285 -0.578987 -5.04589 0
M  V30 4011 H 364.215 1.19928 -5.12762 0
M  V30 4012 H 366.706 0.462729 -3.75056 0
M  V30 4013 H 367.019 0.322592 -7.72126 0
M  V30 4014 H 365.364 0.29706 -6.94365 0
M  V30 4015 H 368.555 0.489464 -4.65534 0
M  V30 4016 H 368.728 0.425788 -6.466 0
M  V30 4017 N 362.134 1.5431 0.320358 0
M  V30 4018 C 363.044 1.86946 1.41734 0
M  V30 4019 C 364.06 0.761689 1.56443 0
M  V30 4020 O 365.236 1.05629 1.71477 0
M  V30 4021 C 362.301 2.09293 2.76401 0
M  V30 4022 C 361.362 3.33082 2.70841 0
M  V30 4023 C 360.595 3.54353 3.99086 0
M  V30 4024 O 360.818 2.79002 4.97508 0
M  V30 4025 O 359.752 4.47838 4.0215 0
M  V30 4026 H 363.578 2.80232 1.17062 0
M  V30 4027 H 361.163 1.40255 0.514673 0
M  V30 4028 H 363.045 2.25303 3.56113 0
M  V30 4029 H 361.72 1.19194 3.00956 0
M  V30 4030 H 360.627 3.22454 1.89668 0
M  V30 4031 H 361.96 4.23249 2.5124 0
M  V30 4032 N 363.613 -0.582584 1.46437 0
M  V30 4033 C 364.543 -1.70187 1.59871 0
M  V30 4034 C 365.524 -1.64066 0.449042 0
M  V30 4035 O 366.709 -1.82081 0.6753 0
M  V30 4036 C 363.839 -3.08827 1.58881 0
M  V30 4037 C 362.793 -3.29779 2.72819 0
M  V30 4038 C 362.119 -4.68947 2.5689 0
M  V30 4039 C 363.419 -3.17601 4.1464 0
M  V30 4040 H 365.113 -1.592 2.53566 0
M  V30 4041 H 362.659 -0.764472 1.22032 0
M  V30 4042 H 364.612 -3.86951 1.66873 0
M  V30 4043 H 363.336 -3.20713 0.617306 0
M  V30 4044 H 361.995 -2.54054 2.64296 0
M  V30 4045 H 361.643 -4.77599 1.57823 0
M  V30 4046 H 361.343 -4.83919 3.33312 0
M  V30 4047 H 362.867 -5.4924 2.66773 0
M  V30 4048 H 364.281 -3.8557 4.24274 0
M  V30 4049 H 362.678 -3.44094 4.9165 0
M  V30 4050 H 363.748 -2.14681 4.34788 0
M  V30 4051 N 365.091 -1.34144 -0.827227 0
M  V30 4052 C 366.319 -1.29325 -1.61501 0
M  V30 4053 C 366.734 0.13354 -1.88327 0
M  V30 4054 O 366.091 1.0793 -1.47164 0
M  V30 4055 C 366.142 -2.07746 -2.95844 0
M  V30 4056 O 365.863 -3.4486 -2.70191 0
M  V30 4057 C 367.364 -2.10273 -3.90256 0
M  V30 4058 H 364.584 -0.445069 -0.50215 0
M  V30 4059 H 367.128 -1.76693 -1.02955 0
M  V30 4060 H 365.283 -1.6403 -3.5096 0
M  V30 4061 H 365.697 -3.85345 -3.55822 0
M  V30 4062 H 367.171 -2.69575 -4.81698 0
M  V30 4063 H 367.648 -1.096 -4.25305 0
M  V30 4064 H 368.254 -2.54059 -3.41078 0
M  V30 4065 N 366.569 1.04691 -1.17803 0
M  V30 4066 C 367.794 1.81984 -0.994813 0
M  V30 4067 C 368.219 1.82586 0.452112 0
M  V30 4068 O 367.577 1.23854 1.324 0
M  V30 4069 C 367.625 3.2575 -1.54659 0
M  V30 4070 O 366.729 4.05267 -0.763728 0
M  V30 4071 H 366.07 0.562483 -0.352857 0
M  V30 4072 H 368.6 1.3189 -1.56417 0
M  V30 4073 H 368.61 3.76541 -1.57102 0
M  V30 4074 H 367.285 3.24627 -2.59981 0
M  V30 4075 H 365.862 3.63972 -0.811108 0
M  V30 4076 N 368.047 0.979072 1.23499 0
M  V30 4077 C 368.977 0.537606 2.27227 0
M  V30 4078 C 369.958 -0.428539 1.64613 0
M  V30 4079 O 371.143 -0.322191 1.91509 0
M  V30 4080 C 368.273 -0.162052 3.46922 0
M  V30 4081 C 367.227 0.721242 4.21879 0
M  V30 4082 C 366.553 -0.110555 5.34586 0
M  V30 4083 C 367.853 2.01141 4.82016 0
M  V30 4084 H 369.547 1.40462 2.64406 0
M  V30 4085 H 367.093 0.67684 1.27102 0
M  V30 4086 H 369.046 -0.482192 4.18632 0
M  V30 4087 H 367.77 -1.06351 3.08799 0
M  V30 4088 H 366.429 1.02482 3.51984 0
M  V30 4089 H 366.077 -1.0125 4.92704 0
M  V30 4090 H 365.777 0.477325 5.85658 0
M  V30 4091 H 367.301 -0.425107 6.09118 0
M  V30 4092 H 368.715 1.75612 5.45741 0
M  V30 4093 H 367.112 2.54695 5.43369 0
M  V30 4094 H 368.182 2.69909 4.02836 0
M  V30 4095 N 369.525 -1.3858 0.750561 0
M  V30 4096 C 370.771 -2.00481 0.305825 0
M  V30 4097 C 371.104 -1.5944 -1.10872 0
M  V30 4098 O 370.379 -0.83052 -1.75877 0
M  V30 4099 C 370.662 -3.5758 0.425287 0
M  V30 4100 C 370.515 -4.08594 1.88072 0
M  V30 4101 C 371.834 -4.39719 -0.183122 0
M  V30 4102 H 368.953 -0.728348 0.112598 0
M  V30 4103 H 371.595 -1.64566 0.949638 0
M  V30 4104 H 369.745 -3.88306 -0.122828 0
M  V30 4105 H 371.417 -3.88523 2.48691 0
M  V30 4106 H 369.66 -3.61574 2.39681 0
M  V30 4107 H 370.331 -5.177 1.91548 0
M  V30 4108 H 372.807 -4.15128 0.284303 0
M  V30 4109 H 371.683 -5.48856 -0.0692757 0
M  V30 4110 H 371.944 -4.23434 -1.27106 0
M  V30 4111 N 371.003 -0.499398 -1.49478 0
M  V30 4112 C 372.419 -0.155261 -1.58843 0
M  V30 4113 C 372.619 1.34008 -1.50479 0
M  V30 4114 O 371.675 2.11589 -1.37791 0
M  V30 4115 C 372.988 -0.730636 -2.91689 0
M  V30 4116 C 374.536 -0.696599 -3.0515 0
M  V30 4117 C 375.011 -1.25001 -4.40612 0
M  V30 4118 N 376.502 -1.21064 -4.47099 0
M  V30 4119 C 377.237 -1.60905 -5.50361 0
M  V30 4120 N 376.733 -2.08331 -6.60735 0
M  V30 4121 N 378.526 -1.52331 -5.41065 0
M  V30 4122 H 370.677 -1.47162 -1.53158 0
M  V30 4123 H 372.94 -0.610309 -0.725415 0
M  V30 4124 H 372.646 -1.77928 -3.03372 0
M  V30 4125 H 372.52 -0.190161 -3.7672 0
M  V30 4126 H 374.907 0.343204 -2.93097 0
M  V30 4127 H 374.988 -1.2742 -2.21806 0
M  V30 4128 H 374.632 -2.28859 -4.53416 0
M  V30 4129 H 374.562 -0.64836 -5.22593 0
M  V30 4130 H 377.053 -0.863128 -3.67911 0
M  V30 4131 H 377.366 -2.36805 -7.35624 0
M  V30 4132 H 375.711 -2.12304 -6.6178 0
M  V30 4133 H 378.902 -1.151 -4.53729 0
M  V30 4134 H 379.075 -1.83704 -6.21415 0
M  V30 4135 N 372.481 1.55866 -0.233164 0
M  V30 4136 C 373.429 2.22176 0.68851 0
M  V30 4137 C 374.423 1.20487 1.19076 0
M  V30 4138 O 375.629 1.38536 1.14925 0
M  V30 4139 H 372.004 0.712511 0.240483 0
M  V30 4140 H 373.975 2.98212 0.105935 0
M  V30 4141 C 372.724 2.92446 1.88071 0
M  V30 4142 H 372.047 3.70458 1.50337 0
M  V30 4143 H 373.487 3.42226 2.50314 0
M  V30 4144 C 371.946 1.95555 2.74335 0
M  V30 4145 O 372.476 1.47986 3.73447 0
M  V30 4146 N 370.682 1.62953 2.40613 0
M  V30 4147 H 370.229 2.01831 1.60069 0
M  V30 4148 H 370.187 0.983886 2.98609 0
M  V30 4149 N 373.959 -0.0401083 1.57549 0
M  V30 4150 C 374.889 -1.04384 2.08869 0
M  V30 4151 C 375.87 -1.38407 0.988817 0
M  V30 4152 O 377.055 -1.47483 1.26342 0
M  V30 4153 C 374.185 -2.34808 2.55895 0
M  V30 4154 C 373.139 -2.15057 3.70047 0
M  V30 4155 C 372.465 -3.51145 4.03239 0
M  V30 4156 C 373.765 -1.54576 4.98902 0
M  V30 4157 H 375.459 -0.616666 2.92981 0
M  V30 4158 H 373.005 -0.295184 1.40942 0
M  V30 4159 H 374.958 -3.05346 2.90417 0
M  V30 4160 H 373.682 -2.79565 1.68853 0
M  V30 4161 H 372.341 -1.46954 3.35857 0
M  V30 4162 H 371.989 -3.93529 3.13279 0
M  V30 4163 H 371.689 -3.38758 4.80122 0
M  V30 4164 H 373.213 -4.23062 4.40285 0
M  V30 4165 H 374.627 -2.15017 5.31451 0
M  V30 4166 H 373.024 -1.52796 5.80322 0
M  V30 4167 H 374.094 -0.51039 4.82206 0
M  V30 4168 N 375.437 -1.54477 -0.31217 0
M  V30 4169 C 376.385 -1.85395 -1.40469 0
M  V30 4170 C 377.379 -0.726749 -1.53019 0
M  V30 4171 O 378.585 -0.910582 -1.55269 0
M  V30 4172 H 374.96 -0.587845 -0.46898 0
M  V30 4173 H 376.931 -2.76736 -1.11623 0
M  V30 4174 C 375.68 -2.10811 -2.76503 0
M  V30 4175 H 375.003 -2.97014 -2.67625 0
M  V30 4176 H 376.443 -2.3639 -3.51988 0
M  V30 4177 C 374.902 -0.903165 -3.24568 0
M  V30 4178 O 375.432 -0.118085 -4.01526 0
M  V30 4179 N 373.638 -0.711634 -2.81752 0
M  V30 4180 H 373.185 -1.35171 -2.19286 0
M  V30 4181 H 373.143 0.0930473 -3.14262 0
M  V30 4182 N 376.915 0.57481 -1.46744 0
M  V30 4183 C 377.847 1.69804 -1.53946 0
M  V30 4184 C 378.86 1.57098 -0.427106 0
M  V30 4185 O 380.049 1.64378 -0.695863 0
M  V30 4186 C 377.149 3.08125 -1.4111 0
M  V30 4187 C 376.322 3.46757 -2.66605 0
M  V30 4188 C 375.381 4.6417 -2.47855 0
M  V30 4189 O 374.407 4.69634 -3.21609 0
M  V30 4190 N 375.609 5.59553 -1.54534 0
M  V30 4191 H 378.374 1.64077 -2.50796 0
M  V30 4192 H 375.935 0.761 -1.429 0
M  V30 4193 H 377.927 3.84478 -1.26328 0
M  V30 4194 H 376.497 3.08175 -0.524109 0
M  V30 4195 H 375.717 2.6003 -2.96274 0
M  V30 4196 H 377.005 3.69337 -3.49954 0
M  V30 4197 H 376.403 5.57881 -0.937304 0
M  V30 4198 H 374.96 6.35304 -1.45711 0
M  V30 4199 N 378.394 1.34581 0.820102 0
M  V30 4200 C 379.324 1.29038 1.94606 0
M  V30 4201 C 380.305 0.1673 1.69275 0
M  V30 4202 O 381.49 0.360112 1.90832 0
M  V30 4203 C 378.62 1.04793 3.31113 0
M  V30 4204 C 377.574 2.13597 3.70891 0
M  V30 4205 C 376.9 1.74537 5.05412 0
M  V30 4206 C 378.2 3.55451 3.8269 0
M  V30 4207 H 379.894 2.23248 1.99501 0
M  V30 4208 H 377.44 1.0747 0.958449 0
M  V30 4209 H 379.393 0.995592 4.0947 0
M  V30 4210 H 378.117 0.0702565 3.26524 0
M  V30 4211 H 376.776 2.17905 2.9481 0
M  V30 4212 H 376.424 0.754226 4.97313 0
M  V30 4213 H 376.124 2.47361 5.32997 0
M  V30 4214 H 377.648 1.70803 5.86224 0
M  V30 4215 H 379.062 3.5354 4.51312 0
M  V30 4216 H 377.459 4.26922 4.21732 0
M  V30 4217 H 378.529 3.92587 2.84611 0
M  V30 4218 N 379.872 -1.04064 1.18357 0
M  V30 4219 C 380.802 -2.14001 0.934113 0
M  V30 4220 C 381.783 -1.69616 -0.128186 0
M  V30 4221 O 382.968 -1.94185 0.0244093 0
M  V30 4222 C 380.098 -3.44253 0.459066 0
M  V30 4223 C 379.052 -4.02261 1.46185 0
M  V30 4224 C 378.378 -5.27992 0.844322 0
M  V30 4225 C 379.678 -4.38432 2.83856 0
M  V30 4226 H 381.372 -2.35127 1.85352 0
M  V30 4227 H 378.918 -1.12998 0.892604 0
M  V30 4228 H 380.871 -4.20522 0.271907 0
M  V30 4229 H 379.595 -3.22813 -0.495912 0
M  V30 4230 H 378.254 -3.28074 1.63595 0
M  V30 4231 H 377.902 -5.02862 -0.117845 0
M  V30 4232 H 377.602 -5.67765 1.51384 0
M  V30 4233 H 379.126 -6.06938 0.667693 0
M  V30 4234 H 380.54 -5.05688 2.70098 0
M  V30 4235 H 378.937 -4.89254 3.47491 0
M  V30 4236 H 380.007 -3.4826 3.37406 0
M  V30 4237 N 381.35 -0.985608 -1.22978 0
M  V30 4238 C 382.297 -0.529825 -2.24636 0
M  V30 4239 C 383.267 0.434028 -1.60329 0
M  V30 4240 O 384.452 0.340414 -1.87739 0
M  V30 4241 C 381.592 0.156533 -3.44745 0
M  V30 4242 C 380.705 -0.848197 -4.23591 0
M  V30 4243 C 379.84 -0.136109 -5.31026 0
M  V30 4244 C 378.879 -1.1297 -6.01585 0
M  V30 4245 N 378.016 -0.446415 -7.00679 0
M  V30 4246 H 382.856 -1.40148 -2.62988 0
M  V30 4247 H 380.393 -0.702168 -1.29259 0
M  V30 4248 H 382.351 0.571324 -4.1327 0
M  V30 4249 H 380.981 0.992025 -3.07179 0
M  V30 4250 H 380.033 -1.38135 -3.54433 0
M  V30 4251 H 381.345 -1.60512 -4.72268 0
M  V30 4252 H 380.499 0.335784 -6.0577 0
M  V30 4253 H 379.238 0.653373 -4.83304 0
M  V30 4254 H 378.243 -1.6123 -5.25628 0
M  V30 4255 H 379.468 -1.91993 -6.51395 0
M  V30 4256 H 377.414 0.323763 -6.55201 0
M  V30 4257 H 377.331 -1.1419 -7.47326 0
M  V30 4258 H 378.599 0.00291697 -7.795 0
M  V30 4259 N 382.828 1.3818 -0.7579 0
M  V30 4260 C 384.053 2.04827 -0.325679 0
M  V30 4261 C 384.478 1.56788 1.03919 0
M  V30 4262 O 383.836 0.721811 1.66312 0
M  V30 4263 C 383.884 3.58774 -0.362447 0
M  V30 4264 O 382.988 4.07372 0.642033 0
M  V30 4265 H 382.329 0.64833 -0.143402 0
M  V30 4266 H 384.859 1.7677 -1.03023 0
M  V30 4267 H 384.869 4.07434 -0.214844 0
M  V30 4268 H 383.544 3.93096 -1.35824 0
M  V30 4269 H 382.121 3.70068 0.458688 0
M  V30 4270 N 384.306 0.507319 1.49211 0
M  V30 4271 C 385.216 -0.272136 2.33016 0
M  V30 4272 C 386.232 -0.961206 1.45041 0
M  V30 4273 O 387.408 -0.941191 1.78055 0
M  V30 4274 C 384.473 -1.31895 3.20631 0
M  V30 4275 C 383.534 -0.642648 4.24463 0
M  V30 4276 C 382.767 -1.63959 5.07891 0
M  V30 4277 O 382.99 -2.87007 4.92933 0
M  V30 4278 O 381.924 -1.19143 5.8999 0
M  V30 4279 H 385.75 0.413982 3.00865 0
M  V30 4280 H 383.335 0.268556 1.46966 0
M  V30 4281 H 385.217 -1.92446 3.7489 0
M  V30 4282 H 383.892 -1.98788 2.5547 0
M  V30 4283 H 382.799 0.00276252 3.741 0
M  V30 4284 H 384.132 -0.0160534 4.92197 0
M  V30 4285 N 385.784 -1.5574 0.241426 0
M  V30 4286 C 387.2 -1.59196 -0.113548 0
M  V30 4287 C 387.4 -1.25852 -1.57364 0
M  V30 4288 O 386.456 -1.00322 -2.31715 0
M  V30 4289 C 387.769 -2.99814 0.230695 0
M  V30 4290 C 389.317 -3.12513 0.174547 0
M  V30 4291 C 389.792 -4.55342 0.492744 0
M  V30 4292 N 391.283 -4.61076 0.443043 0
M  V30 4293 C 392.018 -5.6956 0.662484 0
M  V30 4294 N 391.514 -6.86328 0.944761 0
M  V30 4295 N 393.307 -5.58957 0.593564 0
M  V30 4296 H 385.458 -1.75685 1.19368 0
M  V30 4297 H 387.721 -0.81756 0.479896 0
M  V30 4298 H 387.427 -3.28932 1.24485 0
M  V30 4299 H 387.301 -3.74568 -0.444833 0
M  V30 4300 H 389.688 -2.83179 -0.830277 0
M  V30 4301 H 389.769 -2.40045 0.883845 0
M  V30 4302 H 389.413 -4.85396 1.4951 0
M  V30 4303 H 389.343 -5.26062 -0.23797 0
M  V30 4304 H 391.834 -3.77179 0.233374 0
M  V30 4305 H 392.147 -7.64935 1.09977 0
M  V30 4306 H 390.492 -6.88025 0.982175 0
M  V30 4307 H 393.683 -4.66611 0.373123 0
M  V30 4308 H 393.856 -6.43433 0.767981 0
M  V30 4309 N 387.262 0.0317525 -1.57568 0
M  V30 4310 C 388.172 1.05021 -2.0978 0
M  V30 4311 C 389.188 1.39809 -1.03583 0
M  V30 4312 O 390.364 1.49182 -1.35302 0
M  V30 4313 C 387.429 2.33301 -2.56459 0
M  V30 4314 C 386.49 2.0512 -3.77127 0
M  V30 4315 C 385.723 3.27283 -4.2157 0
M  V30 4316 O 385.946 4.37861 -3.65559 0
M  V30 4317 O 384.88 3.13141 -5.14029 0
M  V30 4318 H 388.706 0.636505 -2.96955 0
M  V30 4319 H 386.291 0.248559 -1.47318 0
M  V30 4320 H 388.173 3.08722 -2.86825 0
M  V30 4321 H 386.848 2.73973 -1.72397 0
M  V30 4322 H 385.755 1.27276 -3.51784 0
M  V30 4323 H 387.088 1.69305 -4.62165 0
M  V30 4324 N 388.74 1.54641 0.303973 0
M  V30 4325 C 390.156 1.45788 0.649463 0
M  V30 4326 C 390.356 0.64666 1.90842 0
M  V30 4327 O 389.412 0.153183 2.52035 0
M  V30 4328 C 390.725 2.89718 0.805227 0
M  V30 4329 C 392.273 2.99742 0.901305 0
M  V30 4330 C 392.748 4.44863 1.08909 0
M  V30 4331 N 394.239 4.48559 1.15536 0
M  V30 4332 C 394.974 5.58026 1.3189 0
M  V30 4333 N 394.47 6.77422 1.45161 0
M  V30 4334 N 396.263 5.45708 1.34755 0
M  V30 4335 H 388.414 2.05854 -0.523237 0
M  V30 4336 H 390.677 0.932186 -0.172431 0
M  V30 4337 H 390.383 3.51666 -0.0489108 0
M  V30 4338 H 390.257 3.36964 1.69513 0
M  V30 4339 H 392.644 2.3791 1.74593 0
M  V30 4340 H 392.725 2.55797 -0.0125531 0
M  V30 4341 H 392.369 5.07288 0.249241 0
M  V30 4342 H 392.299 4.86436 2.01713 0
M  V30 4343 H 394.79 3.6254 1.06646 0
M  V30 4344 H 395.103 7.56604 1.57387 0
M  V30 4345 H 393.448 6.80292 1.42223 0
M  V30 4346 H 396.639 4.51378 1.23996 0
M  V30 4347 H 396.812 6.3107 1.47157 0
M  V30 4348 N 390.218 -0.567019 1.47046 0
M  V30 4349 C 391.448 -1.34831 1.56538 0
M  V30 4350 C 391.856 -1.8802 0.21101 0
M  V30 4351 O 391.199 -1.65152 -0.804387 0
M  V30 4352 C 391.261 -2.56139 2.52256 0
M  V30 4353 C 390.925 -2.24307 3.98165 0
M  V30 4354 C 391.922 -1.82192 4.86931 0
M  V30 4355 C 389.607 -2.35968 4.43423 0
M  V30 4356 C 391.601 -1.52153 6.18973 0
M  V30 4357 C 389.288 -2.05542 5.75496 0
M  V30 4358 C 390.286 -1.63701 6.63092 0
M  V30 4359 O 389.974 -1.33657 7.92711 0
M  V30 4360 H 389.706 -0.417683 0.531523 0
M  V30 4361 H 392.26 -0.694726 1.93294 0
M  V30 4362 H 390.49 -3.24356 2.10548 0
M  V30 4363 H 392.179 -3.18214 2.51982 0
M  V30 4364 H 392.945 -1.72684 4.53217 0
M  V30 4365 H 388.824 -2.67495 3.75456 0
M  V30 4366 H 392.368 -1.19421 6.87302 0
M  V30 4367 H 388.265 -2.14679 6.08755 0
M  V30 4368 H 389.033 -1.4737 8.05124 0
M  V30 4369 N 391.696 -1.35014 -0.812953 0
M  V30 4370 C 392.644 -1.27435 -1.94585 0
M  V30 4371 C 393.638 -0.170494 -1.6854 0
M  V30 4372 O 394.844 -0.336085 -1.76835 0
M  V30 4373 H 391.219 -0.396144 -0.639198 0
M  V30 4374 H 393.19 -2.23158 -1.98098 0
M  V30 4375 C 391.939 -1.05677 -3.31252 0
M  V30 4376 H 391.262 -1.89853 -3.51846 0
M  V30 4377 H 392.702 -1.04413 -4.10943 0
M  V30 4378 C 391.161 0.239615 -3.36047 0
M  V30 4379 O 391.691 1.23759 -3.8216 0
M  V30 4380 N 389.897 0.276186 -2.89285 0
M  V30 4381 H 389.444 -0.53653 -2.51951 0
M  V30 4382 H 389.402 1.14332 -2.92875 0
M  V30 4383 N 393.175 1.03435 -1.18907 0
M  V30 4384 C 394.122 2.11591 -0.921837 0
M  V30 4385 C 395.092 1.65499 0.141226 0
M  V30 4386 O 396.277 1.908 0.000242829 0
M  V30 4387 C 393.417 3.42012 -0.460616 0
M  V30 4388 C 392.53 4.01682 -1.58982 0
M  V30 4389 C 391.665 5.20091 -1.08069 0
M  V30 4390 C 390.704 5.71805 -2.18416 0
M  V30 4391 N 389.841 6.81494 -1.68849 0
M  V30 4392 H 394.681 2.33787 -1.8479 0
M  V30 4393 H 392.218 1.1467 -0.921373 0
M  V30 4394 H 394.176 4.16834 -0.174642 0
M  V30 4395 H 392.806 3.19944 0.428467 0
M  V30 4396 H 391.858 3.24127 -1.99113 0
M  V30 4397 H 393.17 4.36084 -2.4214 0
M  V30 4398 H 392.324 6.02051 -0.749615 0
M  V30 4399 H 391.063 4.87209 -0.218771 0
M  V30 4400 H 390.068 4.88461 -2.5236 0
M  V30 4401 H 391.293 6.06728 -3.05054 0
M  V30 4402 H 389.239 6.50475 -0.849572 0
M  V30 4403 H 389.156 7.14994 -2.45601 0
M  V30 4404 H 390.424 7.67063 -1.38689 0
M  V30 4405 N 394.653 0.992116 1.22453 0
M  V30 4406 C 395.883 0.684949 1.94915 0
M  V30 4407 C 396.291 -0.754292 1.73514 0
M  V30 4408 O 395.634 -1.52056 1.03076 0
M  V30 4409 C 395.696 0.910054 3.47791 0
M  V30 4410 C 395.36 2.33363 3.92926 0
M  V30 4411 C 396.357 3.31308 4.00663 0
M  V30 4412 C 394.042 2.66785 4.25595 0
M  V30 4413 C 396.036 4.6075 4.40441 0
M  V30 4414 C 393.723 3.96446 4.65053 0
M  V30 4415 C 394.721 4.9324 4.72444 0
M  V30 4416 O 394.409 6.20584 5.1101 0
M  V30 4417 H 394.141 0.25258 0.62704 0
M  V30 4418 H 396.695 1.32939 1.56577 0
M  V30 4419 H 394.925 0.208443 3.86138 0
M  V30 4420 H 396.614 0.598257 4.01467 0
M  V30 4421 H 397.38 3.0682 3.75615 0
M  V30 4422 H 393.259 1.92148 4.19047 0
M  V30 4423 H 396.803 5.363 4.46126 0
M  V30 4424 H 392.7 4.20724 4.89552 0
M  V30 4425 H 393.468 6.24509 5.29085 0
M  V30 4426 N 396.131 -1.37776 0.765217 0
M  V30 4427 C 397.547 -1.53297 0.444108 0
M  V30 4428 C 397.747 -1.72515 -1.04119 0
M  V30 4429 O 396.803 -1.74278 -1.82711 0
M  V30 4430 C 398.116 -2.73328 1.25349 0
M  V30 4431 C 399.664 -2.87185 1.24473 0
M  V30 4432 C 400.139 -4.10191 2.03733 0
M  V30 4433 N 401.63 -4.17291 2.01053 0
M  V30 4434 C 402.365 -5.11488 2.59166 0
M  V30 4435 N 401.861 -6.11285 3.26041 0
M  V30 4436 N 403.654 -5.03924 2.49032 0
M  V30 4437 H 395.805 -1.23552 1.72768 0
M  V30 4438 H 398.068 -0.601103 0.733062 0
M  V30 4439 H 397.774 -2.6557 2.30577 0
M  V30 4440 H 397.648 -3.66834 0.87823 0
M  V30 4441 H 400.035 -2.94418 0.20047 0
M  V30 4442 H 400.116 -1.94657 1.65959 0
M  V30 4443 H 399.76 -4.0372 3.08176 0
M  V30 4444 H 399.69 -5.01821 1.59633 0
M  V30 4445 H 402.181 -3.45825 1.5236 0
M  V30 4446 H 402.494 -6.79678 3.67774 0
M  V30 4447 H 400.839 -6.11583 3.30138 0
M  V30 4448 H 404.03 -4.24902 1.96407 0
M  V30 4449 H 404.203 -5.77152 2.94617 0
M  V30 4450 N 397.609 -0.515225 -1.4894 0
M  V30 4451 C 398.837 0.0206034 -2.0689 0
M  V30 4452 C 399.252 1.29514 -1.37374 0
M  V30 4453 O 398.609 1.76698 -0.456529 0
M  V30 4454 C 398.66 0.26351 -3.60538 0
M  V30 4455 O 398.381 -0.960517 -4.27441 0
M  V30 4456 C 399.882 0.841383 -4.35242 0
M  V30 4457 H 397.102 -0.0268608 -0.670462 0
M  V30 4458 H 399.646 -0.716651 -1.91532 0
M  V30 4459 H 397.801 0.950777 -3.75552 0
M  V30 4460 H 398.215 -0.73212 -5.19365 0
M  V30 4461 H 399.689 0.96085 -5.43573 0
M  V30 4462 H 400.166 1.8427 -3.98674 0
M  V30 4463 H 400.772 0.191143 -4.2487 0
M  V30 4464 N 399.087 1.5561 -0.249682 0
M  V30 4465 C 400.315 2.03411 0.378352 0
M  V30 4466 C 400.73 1.12886 1.51335 0
M  V30 4467 O 400.087 0.143833 1.81932 0
M  V30 4468 C 400.138 3.50537 0.88351 0
M  V30 4469 O 399.859 4.37614 -0.20626 0
M  V30 4470 C 401.36 4.14113 1.58195 0
M  V30 4471 H 398.58 0.664994 0.08958 0
M  V30 4472 H 401.124 2.01044 -0.374357 0
M  V30 4473 H 399.279 3.5343 1.58639 0
M  V30 4474 H 399.693 5.24199 0.177782 0
M  V30 4475 H 401.167 5.18741 1.8871 0
M  V30 4476 H 401.644 3.60767 2.50487 0
M  V30 4477 H 402.25 4.15151 0.923573 0
M  V30 4478 N 400.565 -0.0233959 1.57583 0
M  V30 4479 C 401.495 -1.02162 2.09965 0
M  V30 4480 C 402.476 -1.3735 1.00344 0
M  V30 4481 O 403.661 -1.46135 1.27899 0
M  V30 4482 C 400.791 -2.32081 2.58371 0
M  V30 4483 C 399.745 -2.1112 3.72307 0
M  V30 4484 C 399.071 -3.46848 4.06941 0
M  V30 4485 C 400.371 -1.49276 5.00514 0
M  V30 4486 H 402.065 -0.585557 2.93618 0
M  V30 4487 H 399.611 -0.280218 1.41247 0
M  V30 4488 H 401.564 -3.02249 2.93639 0
M  V30 4489 H 400.288 -2.77758 1.71808 0
M  V30 4490 H 398.947 -1.43384 3.37397 0
M  V30 4491 H 398.595 -3.90184 3.17436 0
M  V30 4492 H 398.295 -3.33646 4.83688 0
M  V30 4493 H 399.819 -4.18369 4.44747 0
M  V30 4494 H 401.233 -2.09368 5.33702 0
M  V30 4495 H 399.63 -1.46632 5.8191 0
M  V30 4496 H 400.7 -0.459217 4.82721 0
M  V30 4497 N 402.043 -1.548 -0.295768 0
M  V30 4498 C 403.271 -1.78327 -1.04914 0
M  V30 4499 C 403.686 -0.545316 -1.80753 0
M  V30 4500 O 403.043 0.485013 -1.75937 0
M  V30 4501 C 403.094 -2.99418 -2.02561 0
M  V30 4502 O 402.815 -4.18431 -1.29798 0
M  V30 4503 C 404.316 -3.35375 -2.89895 0
M  V30 4504 H 401.536 -0.594618 -0.310918 0
M  V30 4505 H 404.08 -2.01763 -0.333454 0
M  V30 4506 H 402.235 -2.78175 -2.69624 0
M  V30 4507 H 402.649 -4.86736 -1.95419 0
M  V30 4508 H 404.123 -4.23332 -3.54251 0
M  V30 4509 H 404.6 -2.53761 -3.58472 0
M  V30 4510 H 405.206 -3.58796 -2.28355 0
M  V30 4511 N 403.521 0.559213 -1.47345 0
M  V30 4512 C 404.798 1.31997 -1.44348 0
M  V30 4513 C 405.178 2.1064 -0.139358 0
M  V30 4514 O 404.526 2.1091 0.879153 0
M  V30 4515 C 404.736 2.22618 -2.68779 0
M  V30 4516 C 406.084 2.83701 -3.1591 0
M  V30 4517 O 407.108 2.32921 -2.69493 0
M  V30 4518 O 405.967 3.75993 -3.966 0
M  V30 4519 H 403.061 0.594251 -0.575147 0
M  V30 4520 H 405.607 0.578282 -1.59543 0
M  V30 4521 H 404.379 1.64093 -3.55231 0
M  V30 4522 H 404.002 3.04085 -2.5616 0
M  V30 4523 N 404.999 1.35443 0.805782 0
M  V30 4524 C 405.929 1.31095 1.93226 0
M  V30 4525 C 406.91 0.185244 1.69088 0
M  V30 4526 O 408.095 0.380332 1.90439 0
M  V30 4527 C 405.225 1.08299 3.29983 0
M  V30 4528 C 404.179 2.17519 3.68605 0
M  V30 4529 C 403.505 1.79887 5.03532 0
M  V30 4530 C 404.805 3.5949 3.78898 0
M  V30 4531 H 406.499 2.25352 1.97122 0
M  V30 4532 H 404.045 1.0848 0.946996 0
M  V30 4533 H 405.998 1.03897 4.08391 0
M  V30 4534 H 404.722 0.104885 3.26432 0
M  V30 4535 H 403.381 2.2102 2.92482 0
M  V30 4536 H 403.029 0.80693 4.96485 0
M  V30 4537 H 402.729 2.53001 5.30344 0
M  V30 4538 H 404.253 1.77011 5.84379 0
M  V30 4539 H 405.667 3.58307 4.47536 0
M  V30 4540 H 404.064 4.31371 4.1718 0
M  V30 4541 H 405.134 3.95584 2.80431 0
M  V30 4542 N 406.477 -1.02803 1.19454 0
M  V30 4543 C 407.705 -1.79841 1.02297 0
M  V30 4544 C 408.12 -1.83879 -0.428259 0
M  V30 4545 O 407.477 -1.28345 -1.29745 0
M  V30 4546 C 407.528 -3.24852 1.58598 0
M  V30 4547 O 407.249 -3.21097 2.98041 0
M  V30 4548 C 408.75 -4.18485 1.46236 0
M  V30 4549 H 405.97 -0.565936 0.360496 0
M  V30 4550 H 408.514 -1.2948 1.58288 0
M  V30 4551 H 406.669 -3.72401 1.06753 0
M  V30 4552 H 407.083 -4.12033 3.24545 0
M  V30 4553 H 408.557 -5.18121 1.90407 0
M  V30 4554 H 409.034 -4.37254 0.41301 0
M  V30 4555 H 409.64 -3.76811 1.97215 0
M  V30 4556 N 407.956 -0.998596 -1.21925 0
M  V30 4557 C 408.906 -0.524743 -2.21879 0
M  V30 4558 C 409.89 0.41017 -1.55584 0
M  V30 4559 O 411.082 0.236063 -1.75419 0
M  V30 4560 C 408.211 0.153636 -3.42956 0
M  V30 4561 C 407.297 -0.801918 -4.16449 0
M  V30 4562 N 407.688 -1.95211 -4.66611 0
M  V30 4563 C 405.986 -0.618972 -4.41684 0
M  V30 4564 C 406.687 -2.55234 -5.22715 0
M  V30 4565 N 405.663 -1.83451 -5.1171 0
M  V30 4566 H 409.465 -1.40189 -2.58311 0
M  V30 4567 H 406.979 -0.86159 -1.3766 0
M  V30 4568 H 408.976 0.510534 -4.13762 0
M  V30 4569 H 407.636 1.02684 -3.08036 0
M  V30 4570 H 408.647 -2.33271 -4.62391 0
M  V30 4571 H 405.324 0.207694 -4.16983 0
M  V30 4572 H 406.714 -3.52471 -5.72026 0
M  V30 4573 N 409.434 1.37368 -0.772513 0
M  V30 4574 C 410.659 2.0447 -0.347386 0
M  V30 4575 C 411.084 1.57882 1.0225 0
M  V30 4576 O 410.442 0.73941 1.65537 0
M  V30 4577 C 410.49 3.58369 -0.400479 0
M  V30 4578 O 409.594 4.0803 0.598789 0
M  V30 4579 H 408.935 0.646773 -0.15027 0
M  V30 4580 H 411.465 1.75667 -1.04892 0
M  V30 4581 H 411.475 4.07183 -0.258045 0
M  V30 4582 H 410.15 3.91633 -1.39986 0
M  V30 4583 H 408.727 3.70534 0.419411 0
M  V30 4584 N 410.912 0.523116 1.48665 0
M  V30 4585 C 411.842 -0.23231 2.32342 0
M  V30 4586 C 412.823 -0.941637 1.41659 0
M  V30 4587 O 414.008 -0.928751 1.70552 0
M  V30 4588 C 411.138 -1.28387 3.22698 0
M  V30 4589 C 410.092 -0.693098 4.22351 0
M  V30 4590 C 409.418 -1.8468 5.01794 0
M  V30 4591 C 410.718 0.33063 5.21252 0
M  V30 4592 H 412.412 0.466192 2.95748 0
M  V30 4593 H 409.958 0.225643 1.42221 0
M  V30 4594 H 411.911 -1.82024 3.80059 0
M  V30 4595 H 410.635 -2.01186 2.57278 0
M  V30 4596 H 409.294 -0.178299 3.66166 0
M  V30 4597 H 408.942 -2.56301 4.32804 0
M  V30 4598 H 408.642 -1.45747 5.69238 0
M  V30 4599 H 410.166 -2.38709 5.62006 0
M  V30 4600 H 411.58 -0.118407 5.73178 0
M  V30 4601 H 409.977 0.636974 5.9671 0
M  V30 4602 H 411.047 1.23883 4.68808 0
M  V30 4603 N 412.39 -1.55475 0.257931 0
M  V30 4604 C 413.337 -2.21837 -0.636939 0
M  V30 4605 C 414.307 -1.18596 -1.16294 0
M  V30 4606 O 415.492 -1.47081 -1.21539 0
M  V30 4607 C 412.632 -2.9301 -1.82317 0
M  V30 4608 C 411.745 -4.10931 -1.33265 0
M  V30 4609 C 410.88 -4.69791 -2.47931 0
M  V30 4610 C 409.919 -5.7994 -1.95796 0
M  V30 4611 N 409.056 -6.32935 -3.0387 0
M  V30 4612 H 413.896 -2.9793 -0.0643591 0
M  V30 4613 H 411.433 -1.47086 -0.0200031 0
M  V30 4614 H 413.391 -3.3248 -2.52018 0
M  V30 4615 H 412.021 -2.1937 -2.36805 0
M  V30 4616 H 411.073 -3.76699 -0.52931 0
M  V30 4617 H 412.385 -4.90417 -0.910654 0
M  V30 4618 H 411.539 -5.11892 -3.25656 0
M  V30 4619 H 410.278 -3.89545 -2.93438 0
M  V30 4620 H 409.283 -5.37305 -1.16546 0
M  V30 4621 H 410.508 -6.62043 -1.51246 0
M  V30 4622 H 408.454 -5.55591 -3.48791 0
M  V30 4623 H 408.371 -7.07645 -2.66035 0
M  V30 4624 H 409.639 -6.79695 -3.81621 0
M  V30 4625 N 413.868 0.0150385 -1.57593 0
M  V30 4626 C 415.096 0.714395 -1.94175 0
M  V30 4627 C 415.511 1.68135 -0.858841 0
M  V30 4628 O 414.868 1.81766 0.163567 0
M  V30 4629 C 414.919 1.45933 -3.30735 0
M  V30 4630 O 414.64 0.531167 -4.34868 0
M  V30 4631 C 416.141 2.25456 -3.81686 0
M  V30 4632 H 413.361 0.199923 -0.640525 0
M  V30 4633 H 415.905 -0.0316096 -2.04476 0
M  V30 4634 H 414.06 2.15709 -3.21789 0
M  V30 4635 H 414.474 1.05509 -5.13778 0
M  V30 4636 H 415.948 2.731 -4.79709 0
M  V30 4637 H 416.425 3.07485 -3.13607 0
M  V30 4638 H 417.031 1.60727 -3.9376 0
M  V30 4639 N 415.346 1.54954 0.287554 0
M  V30 4640 C 416.757 1.65732 0.859634 0
M  V30 4641 C 417.108 0.574767 1.87592 0
M  V30 4642 O 416.233 -0.286299 2.14498 0
M  V30 4643 C 416.828 3.00438 1.56597 0
M  V30 4644 C 415.387 3.13292 2.08627 0
M  V30 4645 C 414.534 2.61473 0.923416 0
M  V30 4646 H 417.485 1.5857 0.0642338 0
M  V30 4647 H 417.506 2.92613 2.43224 0
M  V30 4648 H 417.018 3.79207 0.826053 0
M  V30 4649 H 415.119 2.39268 2.85625 0
M  V30 4650 H 415.232 4.19647 2.31157 0
M  V30 4651 H 413.596 2.18264 1.31275 0
M  V30 4652 H 414.379 3.42733 0.197241 0
M  V30 4653 N 416.824 -0.551391 1.4764 0
M  V30 4654 C 417.754 -1.66757 1.63445 0
M  V30 4655 C 418.735 -1.63077 0.483742 0
M  V30 4656 O 419.92 -1.80607 0.71377 0
M  V30 4657 C 417.05 -3.05387 1.65396 0
M  V30 4658 C 416.004 -3.23918 2.79752 0
M  V30 4659 C 415.33 -4.63393 2.66779 0
M  V30 4660 C 416.63 -3.08735 4.21284 0
M  V30 4661 H 418.324 -1.53786 2.56886 0
M  V30 4662 H 415.87 -0.738415 1.23626 0
M  V30 4663 H 417.823 -3.83325 1.75043 0
M  V30 4664 H 416.547 -3.19332 0.685195 0
M  V30 4665 H 415.206 -2.48391 2.69625 0
M  V30 4666 H 414.854 -4.74144 1.67918 0
M  V30 4667 H 414.554 -4.7674 3.43501 0
M  V30 4668 H 416.078 -5.43458 2.78364 0
M  V30 4669 H 417.492 -3.76484 4.32357 0
M  V30 4670 H 415.889 -3.33588 4.98838 0
M  V30 4671 H 416.959 -2.0541 4.39243 0
M  V30 4672 N 418.302 -1.35869 -0.798587 0
M  V30 4673 C 419.265 -1.29307 -1.89242 0
M  V30 4674 C 420.265 -0.202747 -1.59517 0
M  V30 4675 O 421.455 -0.456957 -1.681 0
M  V30 4676 C 418.587 -1.00229 -3.25833 0
M  V30 4677 H 419.78 -2.26576 -1.96478 0
M  V30 4678 H 417.333 -1.20509 -0.995358 0
M  V30 4679 H 418.068 -0.033801 -3.24282 0
M  V30 4680 H 417.853 -1.79121 -3.48795 0
M  V30 4681 H 419.343 -0.98219 -4.05885 0
M  V30 4682 N 419.78 1.02168 -1.19998 0
M  V30 4683 C 421.026 1.75945 -1.00852 0
M  V30 4684 C 421.359 1.88702 0.458828 0
M  V30 4685 O 420.634 1.40911 1.34069 0
M  V30 4686 C 420.917 3.18154 -1.68671 0
M  V30 4687 C 420.77 3.13224 -3.22817 0
M  V30 4688 C 422.089 4.16711 -1.41561 0
M  V30 4689 H 419.208 0.638673 -0.367785 0
M  V30 4690 H 421.85 1.19222 -1.4794 0
M  V30 4691 H 420 3.66586 -1.28636 0
M  V30 4692 H 421.672 2.72635 -3.72112 0
M  V30 4693 H 419.915 2.50751 -3.53986 0
M  V30 4694 H 420.586 4.13728 -3.65422 0
M  V30 4695 H 423.062 3.76913 -1.76284 0
M  V30 4696 H 421.938 5.14391 -1.91553 0
M  V30 4697 H 422.199 4.40774 -0.342193 0
M  V30 4698 N 421.258 1.00505 1.21394 0
M  V30 4699 C 422.188 0.585684 2.26035 0
M  V30 4700 C 423.169 -0.393525 1.65485 0
M  V30 4701 O 424.354 -0.281497 1.92149 0
M  V30 4702 C 421.484 -0.0884283 3.47187 0
M  V30 4703 C 420.438 0.810567 4.20254 0
M  V30 4704 C 419.764 0.00286382 5.347 0
M  V30 4705 C 421.064 2.1132 4.77641 0
M  V30 4706 H 422.758 1.46039 2.61368 0
M  V30 4707 H 420.304 0.703648 1.25638 0
M  V30 4708 H 422.257 -0.393286 4.19561 0
M  V30 4709 H 420.981 -0.997766 3.10986 0
M  V30 4710 H 419.64 1.09925 3.49731 0
M  V30 4711 H 419.288 -0.907765 4.94741 0
M  V30 4712 H 418.988 0.601444 5.84514 0
M  V30 4713 H 420.512 -0.295808 6.09883 0
M  V30 4714 H 421.926 1.87148 5.41893 0
M  V30 4715 H 420.323 2.66164 5.37845 0
M  V30 4716 H 421.393 2.78393 3.9702 0
M  V30 4717 N 422.737 -1.36956 0.779787 0
M  V30 4718 C 423.669 -2.28833 0.129639 0
M  V30 4719 C 424.682 -1.4902 -0.655511 0
M  V30 4720 O 425.871 -1.71578 -0.492279 0
M  V30 4721 C 422.971 -3.2833 -0.839792 0
M  V30 4722 C 422.144 -4.3727 -0.10675 0
M  V30 4723 C 421.203 -5.16789 -0.990717 0
M  V30 4724 O 420.229 -5.67406 -0.451516 0
M  V30 4725 N 421.431 -5.32294 -2.3161 0
M  V30 4726 H 424.196 -2.85268 0.918803 0
M  V30 4727 H 421.757 -1.49019 0.632841 0
M  V30 4728 H 423.749 -3.78413 -1.43477 0
M  V30 4729 H 422.319 -2.72605 -1.52988 0
M  V30 4730 H 421.539 -3.88478 0.669216 0
M  V30 4731 H 422.827 -5.07229 0.399464 0
M  V30 4732 H 422.225 -4.92768 -2.77843 0
M  V30 4733 H 420.782 -5.85656 -2.86095 0
M  V30 4734 N 424.215 -0.530993 -1.48385 0
M  V30 4735 C 425.44 0.000729535 -2.074 0
M  V30 4736 C 425.865 1.27298 -1.3848 0
M  V30 4737 O 425.223 1.75599 -0.451081 0
M  V30 4738 C 425.271 0.206697 -3.60007 0
M  V30 4739 O 424.375 1.27514 -3.92191 0
M  V30 4740 H 423.716 -0.039583 -0.662819 0
M  V30 4741 H 426.246 -0.739194 -1.9078 0
M  V30 4742 H 426.256 0.42904 -4.05738 0
M  V30 4743 H 424.931 -0.722675 -4.09573 0
M  V30 4744 H 423.508 1.03537 -3.58238 0
M  V30 4745 N 425.693 1.55336 -0.266172 0
M  V30 4746 C 426.921 2.03801 0.356756 0
M  V30 4747 C 427.336 1.14485 1.50129 0
M  V30 4748 O 426.693 0.163121 1.8177 0
M  V30 4749 C 426.744 3.51455 0.846281 0
M  V30 4750 O 426.465 4.37371 -0.252663 0
M  V30 4751 C 427.966 4.15767 1.53794 0
M  V30 4752 H 425.186 0.665906 0.0825218 0
M  V30 4753 H 427.73 2.00636 -0.39566 0
M  V30 4754 H 425.885 3.55092 1.54881 0
M  V30 4755 H 426.299 5.24358 0.122173 0
M  V30 4756 H 427.773 5.20714 1.83198 0
M  V30 4757 H 428.25 3.63404 2.46646 0
M  V30 4758 H 428.856 4.16107 0.879488 0
M  V30 4759 N 427.171 -0.0066808 1.57599 0
M  V30 4760 C 428.101 -0.999296 2.11036 0
M  V30 4761 C 429.082 -1.36278 1.01795 0
M  V30 4762 O 430.267 -1.4477 1.29442 0
M  V30 4763 C 427.397 -2.29328 2.60818 0
M  V30 4764 C 426.351 -2.07159 3.74525 0
M  V30 4765 C 425.677 -3.42512 4.10596 0
M  V30 4766 C 426.977 -1.43959 5.02069 0
M  V30 4767 H 428.671 -0.554382 2.94223 0
M  V30 4768 H 426.217 -0.265221 1.41536 0
M  V30 4769 H 428.17 -2.99117 2.96828 0
M  V30 4770 H 426.894 -2.7592 1.74745 0
M  V30 4771 H 425.553 -1.39797 3.38899 0
M  V30 4772 H 425.201 -3.86795 3.21556 0
M  V30 4773 H 424.901 -3.28498 4.87199 0
M  V30 4774 H 426.425 -4.13628 4.4916 0
M  V30 4775 H 427.839 -2.03696 5.35893 0
M  V30 4776 H 426.236 -1.40452 5.83432 0
M  V30 4777 H 427.306 -0.407992 4.83181 0
M  V30 4778 N 428.649 -1.55105 -0.279332 0
M  V30 4779 C 430.065 -1.46803 -0.626187 0
M  V30 4780 C 430.265 -0.676939 -1.89789 0
M  V30 4781 O 429.321 -0.19326 -2.51759 0
M  V30 4782 C 430.634 -2.90962 -0.759034 0
M  V30 4783 C 432.182 -3.01138 -0.853504 0
M  V30 4784 C 432.657 -4.46539 -1.01818 0
M  V30 4785 N 434.148 -4.50341 -1.08386 0
M  V30 4786 C 434.883 -5.60053 -1.22996 0
M  V30 4787 N 434.379 -6.79645 -1.34366 0
M  V30 4788 N 436.172 -5.47783 -1.26056 0
M  V30 4789 H 428.323 -2.04996 0.555921 0
M  V30 4790 H 430.586 -0.929325 0.187239 0
M  V30 4791 H 430.292 -3.51544 0.104852 0
M  V30 4792 H 430.166 -3.39619 -1.64131 0
M  V30 4793 H 432.553 -2.40658 -1.70786 0
M  V30 4794 H 432.634 -2.55745 0.0532466 0
M  V30 4795 H 432.278 -5.0762 -0.168504 0
M  V30 4796 H 432.208 -4.89583 -1.93948 0
M  V30 4797 H 434.699 -3.64191 -1.00864 0
M  V30 4798 H 435.012 -7.59012 -1.4533 0
M  V30 4799 H 433.357 -6.82469 -1.31382 0
M  V30 4800 H 436.548 -4.53294 -1.168 0
M  V30 4801 H 436.721 -6.33331 -1.37098 0
M  V30 4802 N 430.127 0.543554 -1.4793 0
M  V30 4803 C 431.352 1.32995 -1.59145 0
M  V30 4804 C 431.777 1.86472 -0.246956 0
M  V30 4805 O 431.135 1.63696 0.779324 0
M  V30 4806 C 431.183 2.46623 -2.63077 0
M  V30 4807 O 430.287 3.49261 -2.19295 0
M  V30 4808 H 429.628 0.394472 -0.534124 0
M  V30 4809 H 432.158 0.655489 -1.93816 0
M  V30 4810 H 432.168 2.93001 -2.83926 0
M  V30 4811 H 430.843 2.07059 -3.60693 0
M  V30 4812 H 429.42 3.09094 -2.08603 0
M  V30 4813 N 431.605 1.3629 0.791371 0
M  V30 4814 C 432.535 1.33137 1.91825 0
M  V30 4815 C 433.516 0.203168 1.68882 0
M  V30 4816 O 434.701 0.400509 1.90025 0
M  V30 4817 C 431.831 1.11793 3.28816 0
M  V30 4818 C 430.785 2.21417 3.66277 0
M  V30 4819 C 430.111 1.85218 5.01596 0
M  V30 4820 C 431.411 3.63489 3.75064 0
M  V30 4821 H 433.105 2.2743 1.9472 0
M  V30 4822 H 430.651 1.09479 0.935437 0
M  V30 4823 H 432.604 1.08222 4.07266 0
M  V30 4824 H 431.328 0.139501 3.26302 0
M  V30 4825 H 429.987 2.2411 2.90121 0
M  V30 4826 H 429.635 0.859544 4.95602 0
M  V30 4827 H 429.335 2.58611 5.27631 0
M  V30 4828 H 430.859 1.832 5.82469 0
M  V30 4829 H 432.273 3.63034 4.43711 0
M  V30 4830 H 430.67 4.35771 4.12582 0
M  V30 4831 H 431.74 3.98536 2.76219 0
M  V30 4832 N 433.083 -1.0153 1.20538 0
M  V30 4833 C 434.499 -1.27461 0.96051 0
M  V30 4834 C 434.699 -1.98273 -0.359193 0
M  V30 4835 O 433.755 -2.27886 -1.0874 0
M  V30 4836 C 435.068 -2.10837 2.14402 0
M  V30 4837 C 436.616 -2.24099 2.18515 0
M  V30 4838 C 437.091 -3.10852 3.36355 0
M  V30 4839 N 438.582 -3.18441 3.36377 0
M  V30 4840 C 439.317 -3.85795 4.24205 0
M  V30 4841 N 438.813 -4.55264 5.22213 0
M  V30 4842 N 440.606 -3.82331 4.12043 0
M  V30 4843 H 432.757 -0.539907 2.05423 0
M  V30 4844 H 435.02 -0.30092 0.898972 0
M  V30 4845 H 434.726 -1.66144 3.09983 0
M  V30 4846 H 434.6 -3.11576 2.12604 0
M  V30 4847 H 436.987 -2.68016 1.23497 0
M  V30 4848 H 437.068 -1.22865 2.24361 0
M  V30 4849 H 436.712 -2.6764 4.31661 0
M  V30 4850 H 436.642 -4.12177 3.27746 0
M  V30 4851 H 439.133 -2.68978 2.65442 0
M  V30 4852 H 439.446 -5.04331 5.85551 0
M  V30 4853 H 437.791 -4.54085 5.26148 0
M  V30 4854 H 440.982 -3.27207 3.34743 0
M  V30 4855 H 441.155 -4.34547 4.807 0
M  V30 4856 N 434.561 -1.01147 -1.20859 0
M  V30 4857 C 435.509 -0.57059 -2.25493 0
M  V30 4858 C 436.503 0.388109 -1.64894 0
M  V30 4859 O 437.709 0.258592 -1.78133 0
M  V30 4860 H 434.084 -0.166191 -0.733406 0
M  V30 4861 H 436.055 -1.46411 -2.60012 0
M  V30 4862 C 434.804 0.0805241 -3.47607 0
M  V30 4863 H 434.127 -0.648156 -3.94511 0
M  V30 4864 H 435.567 0.352197 -4.22535 0
M  V30 4865 C 434.026 1.32175 -3.09889 0
M  V30 4866 O 434.556 2.41553 -3.20959 0
M  V30 4867 N 432.762 1.20392 -2.64488 0
M  V30 4868 H 432.309 0.313905 -2.5568 0
M  V30 4869 H 432.267 2.03541 -2.39621 0
M  V30 4870 N 436.039 1.36541 -0.78704 0
M  V30 4871 C 436.949 2.3387 -0.184896 0
M  V30 4872 C 437.965 1.60927 0.661697 0
M  V30 4873 O 439.141 1.92927 0.57804 0
M  V30 4874 C 436.206 3.40122 0.672145 0
M  V30 4875 C 435.267 4.28867 -0.19267 0
M  V30 4876 C 434.5 5.30045 0.623561 0
M  V30 4877 O 434.723 5.39232 1.8597 0
M  V30 4878 O 433.657 6.01895 0.0247068 0
M  V30 4879 H 437.483 2.87126 -0.989562 0
M  V30 4880 H 435.068 1.38969 -0.548455 0
M  V30 4881 H 436.95 4.05093 1.16094 0
M  V30 4882 H 435.625 2.89169 1.45474 0
M  V30 4883 H 434.532 3.66945 -0.728166 0
M  V30 4884 H 435.865 4.83165 -0.938722 0
M  V30 4885 N 437.518 0.538854 1.48102 0
M  V30 4886 C 438.465 -0.219042 2.29758 0
M  V30 4887 C 439.435 -0.925562 1.37922 0
M  V30 4888 O 440.62 -0.924855 1.66886 0
M  V30 4889 C 437.76 -1.25452 3.2149 0
M  V30 4890 C 436.873 -0.555943 4.28408 0
M  V30 4891 C 436.008 -1.57512 5.0731 0
M  V30 4892 C 435.047 -0.860498 6.06021 0
M  V30 4893 N 434.184 -1.82564 6.77949 0
M  V30 4894 H 439.024 0.483449 2.94052 0
M  V30 4895 H 436.561 0.250247 1.44956 0
M  V30 4896 H 438.519 -1.86727 3.7308 0
M  V30 4897 H 437.149 -1.92528 2.591 0
M  V30 4898 H 436.201 0.170938 3.80016 0
M  V30 4899 H 437.513 0.00474616 4.988 0
M  V30 4900 H 436.667 -2.26191 5.62959 0
M  V30 4901 H 435.406 -2.16972 4.36778 0
M  V30 4902 H 434.411 -0.159686 5.49568 0
M  V30 4903 H 435.636 -0.271897 6.78555 0
M  V30 4904 H 433.582 -2.40915 6.10161 0
M  V30 4905 H 433.499 -1.31662 7.44447 0
M  V30 4906 H 434.767 -2.50414 7.38182 0
M  V30 4907 N 438.996 -1.55193 0.274407 0
M  V30 4908 C 439.929 -2.18606 -0.654712 0
M  V30 4909 C 440.907 -1.14677 -1.15273 0
M  V30 4910 O 442.091 -1.43198 -1.22583 0
M  V30 4911 C 439.218 -2.80875 -1.89281 0
M  V30 4912 C 438.264 -3.981 -1.53032 0
M  V30 4913 S 439.097 -5.32025 -0.609107 0
M  V30 4914 C 440.253 -5.97761 -1.85559 0
M  V30 4915 H 440.486 -2.97074 -0.115894 0
M  V30 4916 H 438.019 -1.54288 0.05867 0
M  V30 4917 H 439.977 -3.17381 -2.60345 0
M  V30 4918 H 438.638 -2.02302 -2.40277 0
M  V30 4919 H 437.831 -4.40356 -2.45158 0
M  V30 4920 H 437.433 -3.63013 -0.899874 0
M  V30 4921 H 439.725 -6.16951 -2.7996 0
M  V30 4922 H 440.668 -6.92545 -1.47605 0
M  V30 4923 H 441.076 -5.27113 -2.02021 0
M  V30 4924 N 440.474 -0.00167713 -1.576 0
M  V30 4925 C 441.699 0.69739 -1.95323 0
M  V30 4926 C 442.124 1.6642 -0.876706 0
M  V30 4927 O 441.482 1.80548 0.165007 0
M  V30 4928 C 441.53 1.40403 -3.32144 0
M  V30 4929 O 440.634 2.5185 -3.26566 0
M  V30 4930 H 439.975 0.185373 -0.637599 0
M  V30 4931 H 442.505 -0.0553665 -2.04525 0
M  V30 4932 H 442.515 1.76707 -3.67748 0
M  V30 4933 H 441.19 0.695167 -4.10049 0
M  V30 4934 H 439.767 2.17861 -3.0264 0
M  V30 4935 N 441.952 1.55251 0.271103 0
M  V30 4936 C 443.198 1.76207 1.00394 0
M  V30 4937 C 443.531 0.562604 1.85872 0
M  V30 4938 O 442.806 -0.439785 1.89463 0
M  V30 4939 C 443.089 3.06828 1.8849 0
M  V30 4940 C 442.942 4.37134 1.05992 0
M  V30 4941 C 444.261 3.33503 2.87165 0
M  V30 4942 H 441.38 0.641086 0.363562 0
M  V30 4943 H 444.022 1.87982 0.276189 0
M  V30 4944 H 442.172 2.96921 2.5054 0
M  V30 4945 H 443.844 4.59001 0.459978 0
M  V30 4946 H 442.087 4.32275 0.363443 0
M  V30 4947 H 442.758 5.2486 1.70955 0
M  V30 4948 H 445.234 3.43215 2.3525 0
M  V30 4949 H 444.11 4.2616 3.45946 0
M  V30 4950 H 444.371 2.53235 3.62387 0
M  V30 4951 N 443.43 -0.535701 1.48216 0
M  V30 4952 C 444.655 -1.32149 1.59848 0
M  V30 4953 C 445.08 -1.86338 0.256842 0
M  V30 4954 O 444.438 -1.64107 -0.770632 0
M  V30 4955 C 444.486 -2.45224 2.64381 0
M  V30 4956 O 443.59 -3.48093 2.21144 0
M  V30 4957 H 442.931 -0.391634 0.536208 0
M  V30 4958 H 445.461 -0.645202 1.94161 0
M  V30 4959 H 445.471 -2.91491 2.85476 0
M  V30 4960 H 444.146 -2.05143 3.61786 0
M  V30 4961 H 442.723 -3.07984 2.10239 0
M  V30 4962 N 444.908 -1.36708 -0.784132 0
M  V30 4963 C 445.855 -1.31466 -1.89698 0
M  V30 4964 C 446.825 -0.18239 -1.65096 0
M  V30 4965 O 448.01 -0.369762 -1.87183 0
M  V30 4966 C 445.15 -1.1151 -3.26588 0
M  V30 4967 C 444.263 -2.33859 -3.63227 0
M  V30 4968 C 443.398 -2.06873 -4.89262 0
M  V30 4969 C 442.437 -3.25154 -5.18595 0
M  V30 4970 N 441.574 -2.978 -6.35814 0
M  V30 4971 H 446.414 -2.26619 -1.93515 0
M  V30 4972 H 443.951 -1.12625 -0.946256 0
M  V30 4973 H 445.909 -0.979653 -4.05535 0
M  V30 4974 H 444.539 -0.200103 -3.22179 0
M  V30 4975 H 443.591 -2.58188 -2.79362 0
M  V30 4976 H 444.903 -3.22109 -3.8085 0
M  V30 4977 H 444.057 -1.90289 -5.76086 0
M  V30 4978 H 442.796 -1.15942 -4.73718 0
M  V30 4979 H 441.801 -3.42292 -4.30251 0
M  V30 4980 H 443.026 -4.1692 -5.36055 0
M  V30 4981 H 440.972 -2.09485 -6.21653 0
M  V30 4982 H 440.889 -3.7959 -6.53794 0
M  V30 4983 H 442.157 -2.84805 -7.25607 0
M  V30 4984 N 446.386 1.0089 -1.21074 0
M  V30 4985 C 447.349 2.0775 -0.968129 0
M  V30 4986 C 448.349 1.6069 0.0593445 0
M  V30 4987 O 449.539 1.73293 -0.177525 0
M  V30 4988 C 446.671 3.37794 -0.459108 0
M  V30 4989 H 447.864 2.30707 -1.9161 0
M  V30 4990 H 445.417 1.17807 -1.02719 0
M  V30 4991 H 446.152 3.20516 0.49397 0
M  V30 4992 H 445.937 3.7328 -1.20019 0
M  V30 4993 H 447.427 4.16454 -0.309099 0
M  V30 4994 N 447.864 1.01787 1.20321 0
M  V30 4995 C 448.774 0.598898 2.26827 0
M  V30 4996 C 449.79 -0.36418 1.70146 0
M  V30 4997 O 450.966 -0.224812 2.00141 0
M  V30 4998 C 448.031 -0.0549769 3.46656 0
M  V30 4999 C 447.092 0.954205 4.18561 0
M  V30 5000 C 446.325 0.331439 5.3267 0
M  V30 5001 O 446.548 -0.86851 5.63749 0
M  V30 5002 O 445.482 1.0488 5.92692 0
M  V30 5003 H 449.308 1.48562 2.64883 0
M  V30 5004 H 446.893 0.787434 1.26964 0
M  V30 5005 H 448.775 -0.420102 4.19301 0
M  V30 5006 H 447.45 -0.915876 3.10473 0
M  V30 5007 H 446.357 1.37072 3.48083 0
M  V30 5008 H 447.69 1.78511 4.58688 0
M  V30 5009 N 449.342 -1.36122 0.79427 0
M  V30 5010 C 450.753 -1.81646 0.431446 0
M  V30 5011 C 451.104 -1.66043 -1.04518 0
M  V30 5012 O 450.229 -1.1841 -1.8113 0
M  V30 5013 C 450.824 -3.29785 0.776341 0
M  V30 5014 C 449.383 -3.73501 0.466282 0
M  V30 5015 C 448.53 -2.58313 1.00844 0
M  V30 5016 H 451.481 -1.24274 0.986995 0
M  V30 5017 H 451.502 -3.80437 0.0692413 0
M  V30 5018 H 451.014 -3.4111 1.8511 0
M  V30 5019 H 449.115 -3.67733 -0.600245 0
M  V30 5020 H 449.228 -4.68754 0.990288 0
M  V30 5021 H 447.592 -2.5102 0.431406 0
M  V30 5022 H 448.375 -2.72421 2.08906 0
M  V30 5023 N 450.82 -0.546701 -1.47814 0
M  V30 5024 C 452.066 -0.0187684 -2.02791 0
M  V30 5025 C 452.399 1.32338 -1.42128 0
M  V30 5026 O 451.674 1.85867 -0.573023 0
M  V30 5027 C 451.957 0.0854985 -3.59998 0
M  V30 5028 C 451.81 -1.283 -4.31114 0
M  V30 5029 C 453.129 0.80412 -4.32691 0
M  V30 5030 H 450.248 -0.0082946 -0.736953 0
M  V30 5031 H 452.89 -0.706962 -1.76358 0
M  V30 5032 H 451.04 0.671609 -3.82651 0
M  V30 5033 H 452.712 -1.91151 -4.19832 0
M  V30 5034 H 450.955 -1.86049 -3.91878 0
M  V30 5035 H 451.626 -1.16287 -5.39612 0
M  V30 5036 H 454.102 0.306576 -4.14969 0
M  V30 5037 H 452.978 0.846011 -5.42341 0
M  V30 5038 H 453.239 1.85802 -4.01161 0
M  V30 5039 N 452.299 1.55045 -0.282633 0
M  V30 5040 C 453.232 2.18951 0.64311 0
M  V30 5041 C 454.21 1.15287 1.14664 0
M  V30 5042 O 455.394 1.43846 1.21822 0
M  V30 5043 C 452.521 2.81874 1.87789 0
M  V30 5044 C 451.567 3.98906 1.50919 0
M  V30 5045 S 452.4 5.3234 0.580884 0
M  V30 5046 C 453.556 5.98737 1.82387 0
M  V30 5047 H 453.789 2.97131 0.100138 0
M  V30 5048 H 451.322 1.54255 -0.0668514 0
M  V30 5049 H 453.28 3.18757 2.58658 0
M  V30 5050 H 451.941 2.03573 2.392 0
M  V30 5051 H 451.134 4.4165 2.42819 0
M  V30 5052 H 450.736 3.63485 0.88061 0
M  V30 5053 H 453.028 6.18427 2.76684 0
M  V30 5054 H 453.971 6.93318 1.4393 0
M  V30 5055 H 454.379 5.28177 1.99223 0
M  V30 5056 N 453.777 0.010035 1.57597 0
M  V30 5057 C 454.707 -0.976857 2.12084 0
M  V30 5058 C 455.688 -1.35191 1.03235 0
M  V30 5059 O 456.873 -1.43389 1.3097 0
M  V30 5060 C 454.003 -2.26548 2.63236 0
M  V30 5061 C 452.957 -2.03175 3.76701 0
M  V30 5062 C 452.283 -3.38138 4.14206 0
M  V30 5063 C 453.583 -1.38625 5.03568 0
M  V30 5064 H 455.277 -0.523145 2.94794 0
M  V30 5065 H 452.823 -0.250195 1.4181 0
M  V30 5066 H 454.776 -2.95952 2.99984 0
M  V30 5067 H 453.5 -2.74051 1.77661 0
M  V30 5068 H 452.159 -1.36195 3.40362 0
M  V30 5069 H 451.807 -3.83363 3.25641 0
M  V30 5070 H 451.507 -3.23312 4.90656 0
M  V30 5071 H 453.031 -4.08841 4.53521 0
M  V30 5072 H 454.445 -1.98 5.38023 0
M  V30 5073 H 452.842 -1.34256 5.84889 0
M  V30 5074 H 453.912 -0.356722 4.83586 0
M  V30 5075 N 455.255 -1.55392 -0.262866 0
M  V30 5076 C 456.165 -1.92077 -1.34698 0
M  V30 5077 C 457.181 -0.819227 -1.53508 0
M  V30 5078 O 458.357 -1.11921 -1.67439 0
M  V30 5079 C 455.422 -2.19407 -2.68443 0
M  V30 5080 C 454.483 -3.42905 -2.58292 0
M  V30 5081 C 453.716 -3.68921 -3.85659 0
M  V30 5082 O 453.939 -2.97275 -4.8681 0
M  V30 5083 O 452.873 -4.62455 -3.85252 0
M  V30 5084 H 456.699 -2.84384 -1.06581 0
M  V30 5085 H 454.284 -1.42069 -0.462264 0
M  V30 5086 H 456.166 -2.38365 -3.47506 0
M  V30 5087 H 454.841 -1.30282 -2.96325 0
M  V30 5088 H 453.748 -3.29272 -1.7757 0
M  V30 5089 H 455.081 -4.32282 -2.35358 0
M  V30 5090 N 456.733 0.527833 -1.48498 0
M  V30 5091 C 457.665 1.6482 -1.5927 0
M  V30 5092 C 458.678 1.55659 -0.476869 0
M  V30 5093 O 459.867 1.62081 -0.747806 0
M  V30 5094 C 456.967 3.0348 -1.50842 0
M  V30 5095 C 456.14 3.381 -2.77502 0
M  V30 5096 C 455.199 4.5605 -2.62497 0
M  V30 5097 O 454.225 4.59165 -3.36387 0
M  V30 5098 N 455.427 5.54353 -1.72257 0
M  V30 5099 H 458.192 1.56015 -2.55889 0
M  V30 5100 H 455.753 0.715152 -1.45249 0
M  V30 5101 H 457.745 3.80264 -1.38496 0
M  V30 5102 H 456.315 3.06352 -0.621887 0
M  V30 5103 H 455.535 2.50473 -3.04396 0
M  V30 5104 H 456.823 3.58017 -3.61527 0
M  V30 5105 H 456.221 5.54617 -1.11431 0
M  V30 5106 H 454.778 6.30347 -1.65849 0
M  V30 5107 N 458.211 1.37122 0.776871 0
M  V30 5108 C 459.46 1.31373 1.53049 0
M  V30 5109 C 459.773 -0.101016 1.95339 0
M  V30 5110 O 460.979 -0.280953 2.70042 0
M  V30 5111 C 459.435 2.30567 2.76346 0
M  V30 5112 C 459.043 3.77543 2.41175 0
M  V30 5113 C 460.787 2.33818 3.54301 0
M  V30 5114 C 458.694 4.68481 3.60943 0
M  V30 5115 H 457.624 0.488234 0.574581 0
M  V30 5116 H 460.275 1.62554 0.851372 0
M  V30 5117 H 458.657 1.92396 3.46121 0
M  V30 5118 H 459.831 4.24521 1.79216 0
M  V30 5119 H 458.146 3.77187 1.76405 0
M  V30 5120 H 460.743 2.98965 4.4331 0
M  V30 5121 H 461.086 1.3503 3.93793 0
M  V30 5122 H 461.619 2.7067 2.91518 0
M  V30 5123 H 458.358 5.68378 3.26537 0
M  V30 5124 H 457.878 4.2621 4.22025 0
M  V30 5125 H 459.557 4.85366 4.27819 0
M  V30 5126 N 459.689 -1.00246 1.21608 0
M  V30 5127 C 460.914 -1.78167 1.06167 0
M  V30 5128 C 461.339 -1.84138 -0.384035 0
M  V30 5129 O 460.697 -1.28683 -1.27712 0
M  V30 5130 C 460.745 -3.19786 1.66642 0
M  V30 5131 O 459.849 -4.02153 0.913613 0
M  V30 5132 H 459.19 -0.549 0.37349 0
M  V30 5133 H 461.72 -1.25994 1.61204 0
M  V30 5134 H 461.73 -3.70451 1.70969 0
M  V30 5135 H 460.405 -3.14754 2.7185 0
M  V30 5136 H 458.982 -3.60711 0.945635 0
M  V30 5137 N 461.167 -1.02423 -1.1978 0
M  V30 5138 C 462.583 -0.740459 -1.41384 0
M  V30 5139 C 462.783 0.676827 -1.89793 0
M  V30 5140 O 461.839 1.4435 -2.0717 0
M  V30 5141 C 463.152 -1.77264 -2.42895 0
M  V30 5142 C 464.7 -1.79165 -2.56649 0
M  V30 5143 C 465.175 -2.8133 -3.6141 0
M  V30 5144 N 466.666 -2.80118 -3.68901 0
M  V30 5145 C 467.401 -3.55824 -4.49641 0
M  V30 5146 N 466.897 -4.41231 -5.34123 0
M  V30 5147 N 468.69 -3.44387 -4.44246 0
M  V30 5148 H 460.841 -1.9391 -0.866764 0
M  V30 5149 H 463.104 -0.838074 -0.443098 0
M  V30 5150 H 462.81 -2.7884 -2.14339 0
M  V30 5151 H 462.684 -1.59108 -3.42001 0
M  V30 5152 H 465.071 -0.782702 -2.84531 0
M  V30 5153 H 465.152 -2.01396 -1.57713 0
M  V30 5154 H 464.796 -3.82394 -3.34271 0
M  V30 5155 H 464.726 -2.56359 -4.59986 0
M  V30 5156 H 467.217 -2.1817 -3.08562 0
M  V30 5157 H 467.53 -4.95747 -5.92836 0
M  V30 5158 H 465.875 -4.45306 -5.33599 0
M  V30 5159 H 469.066 -2.7708 -3.77285 0
M  V30 5160 H 469.239 -4.0364 -5.06931 0
M  V30 5161 N 462.645 1.35699 -0.801477 0
M  V30 5162 C 463.894 1.98165 -0.375979 0
M  V30 5163 C 464.207 1.64306 1.06127 0
M  V30 5164 O 465.413 2.20097 1.58964 0
M  V30 5165 C 463.869 3.54497 -0.621305 0
M  V30 5166 C 463.477 3.9727 -2.07076 0
M  V30 5167 C 465.221 4.23697 -0.26091 0
M  V30 5168 C 463.128 5.46427 -2.26211 0
M  V30 5169 H 462.058 0.741478 -0.136844 0
M  V30 5170 H 464.709 1.54834 -0.984814 0
M  V30 5171 H 463.091 3.95958 0.0574112 0
M  V30 5172 H 464.265 3.66974 -2.78687 0
M  V30 5173 H 462.58 3.40943 -2.39054 0
M  V30 5174 H 465.177 5.33334 -0.381994 0
M  V30 5175 H 465.52 4.0869 0.792344 0
M  V30 5176 H 466.053 3.87639 -0.893339 0
M  V30 5177 H 462.792 5.66396 -3.29963 0
M  V30 5178 H 462.312 5.78309 -1.59119 0
M  V30 5179 H 463.991 6.12819 -2.07513 0
M  V30 5180 N 464.123 0.554532 1.47522 0
M  V30 5181 C 465.348 0.0322661 2.07375 0
M  V30 5182 C 465.773 -1.25079 1.40488 0
M  V30 5183 O 465.131 -1.74859 0.47896 0
M  V30 5184 C 465.179 -0.149397 3.6029 0
M  V30 5185 O 464.283 -1.21259 3.9417 0
M  V30 5186 H 463.624 0.0501228 0.662106 0
M  V30 5187 H 466.154 0.769452 1.8958 0
M  V30 5188 H 466.164 -0.364437 4.06369 0
M  V30 5189 H 464.839 0.787743 4.08372 0
M  V30 5190 H 463.416 -0.97825 3.5984 0
M  V30 5191 N 465.601 -1.54893 0.290851 0
M  V30 5192 C 466.533 -2.20564 -0.623236 0
M  V30 5193 C 467.546 -1.19519 -1.1054 0
M  V30 5194 O 468.735 -1.46165 -1.02459 0
M  V30 5195 C 465.835 -2.83033 -1.86401 0
M  V30 5196 C 465.008 -4.09916 -1.52604 0
M  V30 5197 C 464.067 -4.56284 -2.62091 0
M  V30 5198 O 463.093 -5.2171 -2.27612 0
M  V30 5199 N 464.295 -4.27746 -3.92446 0
M  V30 5200 H 467.06 -2.99638 -0.0610915 0
M  V30 5201 H 464.621 -1.61508 0.112615 0
M  V30 5202 H 466.613 -3.1099 -2.58973 0
M  V30 5203 H 465.183 -2.0786 -2.33481 0
M  V30 5204 H 464.403 -3.89078 -0.633424 0
M  V30 5205 H 465.691 -4.92554 -1.27547 0
M  V30 5206 H 465.089 -3.7531 -4.23272 0
M  V30 5207 H 463.646 -4.60437 -4.61347 0
M  V30 5208 N 467.08 -0.0183926 -1.57589 0
M  V30 5209 C 468.012 0.995557 -2.06449 0
M  V30 5210 C 469.025 1.29556 -0.985849 0
M  V30 5211 O 470.214 1.2621 -1.26227 0
M  V30 5212 C 467.314 2.32572 -2.46502 0
M  V30 5213 C 466.487 2.21245 -3.77319 0
M  V30 5214 C 465.546 3.37104 -4.04039 0
M  V30 5215 O 464.572 3.14468 -4.74445 0
M  V30 5216 N 465.774 4.60553 -3.53372 0
M  V30 5217 H 468.539 0.578746 -2.94059 0
M  V30 5218 H 466.1 0.168603 -1.6102 0
M  V30 5219 H 468.092 3.08887 -2.61478 0
M  V30 5220 H 466.662 2.65931 -1.64315 0
M  V30 5221 H 465.882 1.29723 -3.72244 0
M  V30 5222 H 467.17 2.10868 -4.63047 0
M  V30 5223 H 466.568 4.81839 -2.96391 0
M  V30 5224 H 465.125 5.34072 -3.73644 0
M  V30 5225 N 468.558 1.5553 0.254621 0
M  V30 5226 C 469.807 1.76202 0.981612 0
M  V30 5227 C 470.12 0.580883 1.86776 0
M  V30 5228 O 471.326 0.670448 2.63092 0
M  V30 5229 C 469.782 3.11921 1.79537 0
M  V30 5230 C 469.39 4.37659 0.956991 0
M  V30 5231 C 471.134 3.41936 2.51555 0
M  V30 5232 C 469.041 5.64411 1.76619 0
M  V30 5233 H 467.971 0.656841 0.370237 0
M  V30 5234 H 470.622 1.81969 0.236556 0
M  V30 5235 H 469.004 3.00241 2.58208 0
M  V30 5236 H 470.178 4.60307 0.21315 0
M  V30 5237 H 468.493 4.14922 0.350497 0
M  V30 5238 H 471.09 4.33849 3.12536 0
M  V30 5239 H 471.433 2.62905 3.22779 0
M  V30 5240 H 471.966 3.54797 1.799 0
M  V30 5241 H 468.705 6.46241 1.09783 0
M  V30 5242 H 468.225 5.45877 2.48551 0
M  V30 5243 H 469.904 6.03386 2.33527 0
M  V30 5244 N 470.036 -0.519951 1.48776 0
M  V30 5245 C 471.284 -1.2727 1.56993 0
M  V30 5246 C 471.605 -1.9339 0.25004 0
M  V30 5247 O 470.875 -1.81822 -0.729216 0
M  V30 5248 H 469.455 -0.472732 0.578389 0
M  V30 5249 H 472.117 -0.604234 1.85297 0
M  V30 5250 H 471.213 -2.04669 2.3562 0
M  V30 5251 N 471.514 -1.37532 -0.769588 0
M  V30 5252 C 472.744 -1.35861 -1.55645 0
M  V30 5253 C 473.152 0.0574398 -1.89113 0
M  V30 5254 O 472.495 1.03021 -1.52093 0
M  V30 5255 C 472.557 -2.13431 -2.89288 0
M  V30 5256 C 472.221 -3.62378 -2.78444 0
M  V30 5257 C 473.218 -4.56215 -2.49326 0
M  V30 5258 C 470.903 -4.05529 -2.96398 0
M  V30 5259 C 472.897 -5.91181 -2.38294 0
M  V30 5260 C 470.584 -5.40579 -2.84987 0
M  V30 5261 C 471.582 -6.33218 -2.55975 0
M  V30 5262 O 471.27 -7.65787 -2.44594 0
M  V30 5263 H 471.002 -0.467001 -0.48876 0
M  V30 5264 H 473.556 -1.81505 -0.961515 0
M  V30 5265 H 471.786 -1.62481 -3.50909 0
M  V30 5266 H 473.475 -2.04368 -3.50697 0
M  V30 5267 H 474.241 -4.24187 -2.35139 0
M  V30 5268 H 470.12 -3.33781 -3.1798 0
M  V30 5269 H 473.664 -6.63457 -2.15571 0
M  V30 5270 H 469.561 -5.72209 -2.98743 0
M  V30 5271 H 470.329 -7.76132 -2.59927 0
M  V30 5272 N 472.992 0.995999 -1.22138 0
M  V30 5273 C 474.222 1.76809 -1.06874 0
M  V30 5274 C 474.63 1.85265 0.383866 0
M  V30 5275 O 473.973 1.31969 1.27789 0
M  V30 5276 C 474.035 3.2186 -1.60144 0
M  V30 5277 C 473.699 3.36958 -3.0872 0
M  V30 5278 C 474.696 3.2452 -4.0618 0
M  V30 5279 C 472.381 3.62109 -3.48112 0
M  V30 5280 C 474.375 3.37013 -5.41019 0
M  V30 5281 C 472.062 3.74243 -4.831 0
M  V30 5282 C 473.06 3.61702 -5.79362 0
M  V30 5283 O 472.748 3.73436 -7.119 0
M  V30 5284 H 472.48 0.562207 -0.375365 0
M  V30 5285 H 475.034 1.26113 -1.62125 0
M  V30 5286 H 473.264 3.73734 -0.992981 0
M  V30 5287 H 474.953 3.80775 -1.40589 0
M  V30 5288 H 475.719 3.05004 -3.77091 0
M  V30 5289 H 471.598 3.70949 -2.73712 0
M  V30 5290 H 475.142 3.27141 -6.16137 0
M  V30 5291 H 471.039 3.93266 -5.11872 0
M  V30 5292 H 471.807 3.90328 -7.19435 0
M  V30 5293 N 474.47 1.03057 1.19235 0
M  V30 5294 C 475.4 0.633497 2.24742 0
M  V30 5295 C 476.381 -0.358335 1.66283 0
M  V30 5296 O 477.566 -0.240676 1.92703 0
M  V30 5297 C 474.696 -0.0147648 3.47297 0
M  V30 5298 C 473.65 0.899527 4.18441 0
M  V30 5299 C 472.976 0.116281 5.34574 0
M  V30 5300 C 474.276 2.21404 4.73051 0
M  V30 5301 H 475.97 1.5155 2.58211 0
M  V30 5302 H 473.516 0.73014 1.24117 0
M  V30 5303 H 475.469 -0.304202 4.20301 0
M  V30 5304 H 474.193 -0.931577 3.13032 0
M  V30 5305 H 472.852 1.17319 3.47321 0
M  V30 5306 H 472.5 -0.802619 4.96555 0
M  V30 5307 H 472.2 0.725293 5.83107 0
M  V30 5308 H 473.724 -0.166376 6.10373 0
M  V30 5309 H 475.138 1.98601 5.37802 0
M  V30 5310 H 473.535 2.77512 5.32078 0
M  V30 5311 H 474.605 2.86752 3.91026 0
M  V30 5312 N 475.948 -1.35272 0.808662 0
M  V30 5313 C 476.898 -2.27181 0.193124 0
M  V30 5314 C 477.882 -1.47871 -0.634265 0
M  V30 5315 O 479.074 -1.70048 -0.491182 0
M  V30 5316 C 476.203 -3.36979 -0.655751 0
M  V30 5317 C 475.289 -4.23712 0.181481 0
M  V30 5318 N 475.68 -4.90225 1.24551 0
M  V30 5319 C 473.978 -4.45985 -0.0365493 0
M  V30 5320 C 474.679 -5.54537 1.75682 0
M  V30 5321 N 473.655 -5.33107 1.06294 0
M  V30 5322 H 477.457 -2.76101 1.00724 0
M  V30 5323 H 474.971 -1.48823 0.650029 0
M  V30 5324 H 476.968 -4.01774 -1.11279 0
M  V30 5325 H 475.628 -2.89611 -1.46819 0
M  V30 5326 H 476.639 -4.91641 1.62818 0
M  V30 5327 H 473.316 -4.09409 -0.817964 0
M  V30 5328 H 474.706 -6.17597 2.64621 0
M  V30 5329 N 477.426 -0.562348 -1.47226 0
M  V30 5330 C 478.842 -0.222492 -1.58042 0
M  V30 5331 C 479.042 1.27505 -1.56028 0
M  V30 5332 O 478.098 2.05555 -1.46641 0
M  V30 5333 C 479.411 -0.853694 -2.88327 0
M  V30 5334 C 480.959 -0.825397 -3.01921 0
M  V30 5335 C 481.434 -1.43576 -4.34914 0
M  V30 5336 N 482.925 -1.39918 -4.41562 0
M  V30 5337 C 483.66 -1.84103 -5.43041 0
M  V30 5338 N 483.156 -2.36167 -6.51304 0
M  V30 5339 N 484.949 -1.75142 -5.34118 0
M  V30 5340 H 477.1 -1.53525 -1.46778 0
M  V30 5341 H 479.363 -0.640527 -0.698877 0
M  V30 5342 H 479.069 -1.90635 -2.95552 0
M  V30 5343 H 478.943 -0.34977 -3.75575 0
M  V30 5344 H 481.33 0.218583 -2.94289 0
M  V30 5345 H 481.411 -1.36713 -2.16202 0
M  V30 5346 H 481.055 -2.47884 -4.43301 0
M  V30 5347 H 480.985 -0.869427 -5.19373 0
M  V30 5348 H 483.476 -1.0184 -3.63919 0
M  V30 5349 H 483.789 -2.67793 -7.24919 0
M  V30 5350 H 482.134 -2.40181 -6.52179 0
M  V30 5351 H 485.325 -1.34241 -4.48439 0
M  V30 5352 H 485.498 -2.09895 -6.13065 0
M  V30 5353 N 478.904 1.54736 -0.299062 0
M  V30 5354 C 479.867 2.22127 0.565012 0
M  V30 5355 C 480.867 1.20669 1.06281 0
M  V30 5356 O 482.057 1.45417 0.959145 0
M  V30 5357 C 479.189 2.90611 1.78208 0
M  V30 5358 H 480.382 2.99891 -0.0237448 0
M  V30 5359 H 477.935 1.5622 -0.0498788 0
M  V30 5360 H 478.67 2.16921 2.41072 0
M  V30 5361 H 478.455 3.64984 1.43281 0
M  V30 5362 H 479.945 3.42026 2.396 0
M  V30 5363 N 480.382 0.0267497 1.57577 0
M  V30 5364 C 481.607 -0.666227 1.96408 0
M  V30 5365 C 482.032 -1.65004 0.903071 0
M  V30 5366 O 481.39 -1.80787 -0.136263 0
M  V30 5367 C 481.438 -1.35101 3.34335 0
M  V30 5368 O 480.542 -2.46623 3.30531 0
M  V30 5369 H 479.883 -0.175206 0.640468 0
M  V30 5370 H 482.413 0.0878977 2.04411 0
M  V30 5371 H 482.423 -1.70834 3.70513 0
M  V30 5372 H 481.098 -0.629844 4.11103 0
M  V30 5373 H 479.675 -2.13019 3.06068 0
M  V30 5374 N 481.861 -1.55662 -0.24637 0
M  V30 5375 C 482.794 -1.85332 -1.33143 0
M  V30 5376 C 483.772 -0.708464 -1.46354 0
M  V30 5377 O 484.956 -0.954274 -1.6256 0
M  V30 5378 C 482.083 -2.0385 -2.70487 0
M  V30 5379 C 481.129 -3.26488 -2.74423 0
M  V30 5380 S 481.962 -4.83124 -2.30979 0
M  V30 5381 C 483.118 -5.04647 -3.70246 0
M  V30 5382 H 483.351 -2.77077 -1.07777 0
M  V30 5383 H 480.884 -1.47776 -0.44738 0
M  V30 5384 H 482.842 -2.15202 -3.49569 0
M  V30 5385 H 481.503 -1.12947 -2.9309 0
M  V30 5386 H 480.696 -3.36413 -3.7529 0
M  V30 5387 H 480.298 -3.13864 -2.03385 0
M  V30 5388 H 482.59 -4.92023 -4.65746 0
M  V30 5389 H 483.533 -6.06625 -3.65255 0
M  V30 5390 H 483.941 -4.32491 -3.62784 0
M  V30 5391 N 483.339 0.512053 -1.4905 0
M  V30 5392 C 484.755 0.84224 -1.35567 0
M  V30 5393 C 484.955 1.97878 -0.380319 0
M  V30 5394 O 484.011 2.51769 0.19201 0
M  V30 5395 C 485.324 1.19286 -2.76028 0
M  V30 5396 C 486.872 1.30171 -2.84648 0
M  V30 5397 C 487.347 1.68568 -4.25851 0
M  V30 5398 N 488.838 1.75638 -4.28609 0
M  V30 5399 C 489.573 2.06769 -5.34821 0
M  V30 5400 N 489.069 2.36201 -6.51292 0
M  V30 5401 N 490.862 2.07927 -5.22229 0
M  V30 5402 H 483.013 -0.237574 -2.11067 0
M  V30 5403 H 485.276 -0.0436747 -0.946993 0
M  V30 5404 H 484.982 0.431199 -3.49047 0
M  V30 5405 H 484.856 2.13889 -3.10695 0
M  V30 5406 H 487.243 2.05411 -2.11873 0
M  V30 5407 H 487.324 0.336457 -2.53578 0
M  V30 5408 H 486.968 0.938824 -4.99148 0
M  V30 5409 H 486.898 2.66174 -4.54377 0
M  V30 5410 H 489.389 1.55097 -3.44606 0
M  V30 5411 H 489.702 2.59112 -7.28066 0
M  V30 5412 H 488.047 2.33681 -6.54536 0
M  V30 5413 H 491.238 1.84403 -4.30248 0
M  V30 5414 H 491.411 2.31856 -6.05101 0
M  V30 5415 N 484.817 1.37938 0.762283 0
M  V30 5416 C 486.065 1.33404 1.51815 0
M  V30 5417 C 486.386 -0.0780975 1.94844 0
M  V30 5418 O 485.656 -1.02405 1.67003 0
M  V30 5419 H 484.236 0.490839 0.563104 0
M  V30 5420 H 486.898 1.72527 0.906669 0
M  V30 5421 H 485.994 1.97926 2.41313 0
M  V30 5422 N 486.295 -0.989507 1.22664 0
M  V30 5423 C 487.52 -1.77031 1.08051 0
M  V30 5424 C 487.945 -1.84535 -0.364483 0
M  V30 5425 O 487.303 -1.3003 -1.2634 0
M  V30 5426 C 487.351 -3.18 1.70024 0
M  V30 5427 O 486.455 -4.01161 0.956216 0
M  V30 5428 H 485.796 -0.545008 0.379292 0
M  V30 5429 H 488.326 -1.24277 1.62531 0
M  V30 5430 H 488.336 -3.68616 1.74888 0
M  V30 5431 H 487.011 -3.11853 2.75174 0
M  V30 5432 H 485.588 -3.59687 0.98384 0
M  V30 5433 N 487.773 -1.03688 -1.18687 0
M  V30 5434 C 489.021 -0.736572 -1.88199 0
M  V30 5435 C 489.342 0.737665 -1.80509 0
M  V30 5436 O 488.612 1.53204 -1.22088 0
M  V30 5437 H 487.192 -0.269466 -0.696704 0
M  V30 5438 H 489.854 -1.31282 -1.44052 0
M  V30 5439 H 488.95 -1.03802 -2.94332 0
M  V30 5440 N 489.251 1.34841 -0.815825 0
M  V30 5441 C 490.497 1.98793 -0.401129 0
M  V30 5442 C 490.83 1.64548 1.03139 0
M  V30 5443 O 490.105 0.913487 1.71714 0
M  V30 5444 C 490.388 3.55143 -0.595409 0
M  V30 5445 C 490.241 3.99155 -2.07352 0
M  V30 5446 C 491.56 4.40092 -0.0268823 0
M  V30 5447 H 488.679 0.722146 -0.14722 0
M  V30 5448 H 491.321 1.59847 -1.02707 0
M  V30 5449 H 489.471 3.8845 -0.0625779 0
M  V30 5450 H 491.143 3.76216 -2.66945 0
M  V30 5451 H 489.386 3.49726 -2.56659 0
M  V30 5452 H 490.057 5.07971 -2.1603 0
M  V30 5453 H 492.533 4.13298 -0.482042 0
M  V30 5454 H 491.409 5.48562 -0.19267 0
M  V30 5455 H 491.67 4.29016 1.06759 0
M  V30 5456 N 490.729 0.570148 1.46925 0
M  V30 5457 C 491.659 -0.158274 2.32963 0
M  V30 5458 C 492.64 -0.896093 1.44583 0
M  V30 5459 O 493.825 -0.874022 1.7342 0
M  V30 5460 C 490.955 -1.18055 3.26619 0
M  V30 5461 C 489.909 -0.558379 4.24342 0
M  V30 5462 C 489.235 -1.68623 5.07415 0
M  V30 5463 C 490.535 0.496295 5.19937 0
M  V30 5464 H 492.229 0.560046 2.94115 0
M  V30 5465 H 489.775 0.270775 1.41431 0
M  V30 5466 H 491.728 -1.69841 3.85658 0
M  V30 5467 H 490.452 -1.92899 2.63548 0
M  V30 5468 H 489.111 -0.0617157 3.66548 0
M  V30 5469 H 488.759 -2.42402 4.40738 0
M  V30 5470 H 488.459 -1.27564 5.73586 0
M  V30 5471 H 489.983 -2.20709 5.69315 0
M  V30 5472 H 491.397 0.0640052 5.73264 0
M  V30 5473 H 489.794 0.82649 5.94381 0
M  V30 5474 H 490.864 1.38735 4.6463 0
M  V30 5475 N 492.207 -1.54576 0.307264 0
M  V30 5476 C 493.137 -2.26708 -0.55907 0
M  V30 5477 C 494.118 -1.26893 -1.1328 0
M  V30 5478 O 495.303 -1.55677 -1.16097 0
M  V30 5479 C 492.433 -3.01259 -1.72801 0
M  V30 5480 C 491.387 -4.08275 -1.28435 0
M  V30 5481 C 490.713 -4.70575 -2.53895 0
M  V30 5482 C 492.013 -5.2068 -0.411038 0
M  V30 5483 H 493.707 -2.9937 0.042576 0
M  V30 5484 H 491.253 -1.43983 0.0219173 0
M  V30 5485 H 493.206 -3.50444 -2.34023 0
M  V30 5486 H 491.93 -2.26187 -2.356 0
M  V30 5487 H 490.589 -3.59949 -0.695161 0
M  V30 5488 H 490.237 -3.92136 -3.15021 0
M  V30 5489 H 489.937 -5.42854 -2.24908 0
M  V30 5490 H 491.461 -5.22527 -3.15908 0
M  V30 5491 H 492.875 -5.65721 -0.929097 0
M  V30 5492 H 491.272 -5.99716 -0.214664 0
M  V30 5493 H 492.342 -4.81629 0.562287 0
M  V30 5494 N 493.685 -0.035106 -1.57561 0
M  V30 5495 C 494.91 0.655802 -1.96759 0
M  V30 5496 C 495.335 1.64523 -0.911809 0
M  V30 5497 O 494.693 1.80857 0.126673 0
M  V30 5498 C 494.741 1.33326 -3.35047 0
M  V30 5499 O 493.845 2.44866 -3.31835 0
M  V30 5500 H 493.186 0.171807 -0.641388 0
M  V30 5501 H 495.716 -0.0987369 -2.04362 0
M  V30 5502 H 495.726 1.68867 -3.71413 0
M  V30 5503 H 494.401 0.608033 -4.11431 0
M  V30 5504 H 492.978 2.11392 -3.07193 0
M  V30 5505 N 495.163 1.55791 0.238111 0
M  V30 5506 C 496.579 1.48411 0.587045 0
M  V30 5507 C 496.779 0.72702 1.87927 0
M  V30 5508 O 495.835 0.259942 2.51158 0
M  V30 5509 C 497.148 2.92873 0.681623 0
M  V30 5510 C 498.696 3.03295 0.773363 0
M  V30 5511 C 499.171 4.49082 0.899428 0
M  V30 5512 N 500.662 4.53056 0.964075 0
M  V30 5513 C 501.397 5.63117 1.08104 0
M  V30 5514 N 500.893 6.82969 1.16299 0
M  V30 5515 N 502.686 5.50933 1.11488 0
M  V30 5516 H 494.837 2.0345 -0.610076 0
M  V30 5517 H 497.1 0.924034 -0.211813 0
M  V30 5518 H 496.806 3.51142 -0.19802 0
M  V30 5519 H 496.68 3.43851 1.55069 0
M  V30 5520 H 499.067 2.45101 1.64346 0
M  V30 5521 H 499.148 2.55513 -0.121034 0
M  V30 5522 H 498.792 5.07889 0.0338586 0
M  V30 5523 H 498.722 4.94553 1.809 0
M  V30 5524 H 501.213 3.66737 0.91173 0
M  V30 5525 H 501.526 7.62598 1.25155 0
M  V30 5526 H 499.871 6.85712 1.13241 0
M  V30 5527 H 503.062 4.56231 1.0474 0
M  V30 5528 H 503.235 6.36743 1.20259 0
M  V30 5529 N 496.642 -0.504142 1.49319 0
M  V30 5530 C 497.552 -1.63248 1.68486 0
M  V30 5531 C 498.568 -1.64488 0.567432 0
M  V30 5532 O 499.744 -1.82966 0.841749 0
M  V30 5533 C 496.809 -2.99627 1.74426 0
M  V30 5534 C 495.87 -3.09039 2.97982 0
M  V30 5535 C 495.103 -4.38913 3.0363 0
M  V30 5536 O 495.326 -5.27528 2.16958 0
M  V30 5537 O 494.26 -4.53231 3.96062 0
M  V30 5538 H 498.086 -1.50008 2.64067 0
M  V30 5539 H 495.671 -0.680086 1.33023 0
M  V30 5540 H 497.553 -3.80689 1.80705 0
M  V30 5541 H 496.228 -3.13136 0.820233 0
M  V30 5542 H 495.135 -2.27177 2.97223 0
M  V30 5543 H 496.468 -3.00456 3.89855 0
M  V30 5544 N 498.12 -1.38341 -0.754957 0
M  V30 5545 C 499.05 -1.38176 -1.88227 0
M  V30 5546 C 500.031 -0.247873 -1.68284 0
M  V30 5547 O 501.216 -0.45075 -1.88896 0
M  V30 5548 C 498.346 -1.20471 -3.25736 0
M  V30 5549 C 497.3 -2.3105 -3.60278 0
M  V30 5550 C 496.626 -1.98452 -4.96509 0
M  V30 5551 C 497.926 -3.73305 -3.65295 0
M  V30 5552 H 499.62 -2.32512 -1.88622 0
M  V30 5553 H 497.166 -1.1192 -0.906082 0
M  V30 5554 H 499.119 -1.18982 -4.04254 0
M  V30 5555 H 497.843 -0.225965 -3.25817 0
M  V30 5556 H 496.502 -2.31723 -2.84078 0
M  V30 5557 H 496.15 -0.990641 -4.93148 0
M  V30 5558 H 495.85 -2.7251 -5.20588 0
M  V30 5559 H 497.374 -1.98578 -5.77407 0
M  V30 5560 H 498.788 -3.7467 -4.3393 0
M  V30 5561 H 497.185 -4.46557 -4.00883 0
M  V30 5562 H 498.255 -4.05719 -2.65556 0
M  V30 5563 N 499.598 0.982988 -1.23187 0
M  V30 5564 C 500.548 2.05962 -0.977942 0
M  V30 5565 C 501.532 1.60725 0.0751148 0
M  V30 5566 O 502.724 1.76471 -0.136683 0
M  V30 5567 C 499.853 3.38564 -0.568276 0
M  V30 5568 C 498.939 3.90407 -1.6566 0
M  V30 5569 N 499.33 4.15359 -2.88635 0
M  V30 5570 C 497.628 4.18915 -1.53058 0
M  V30 5571 C 498.329 4.57642 -3.5908 0
M  V30 5572 N 497.305 4.6192 -2.86584 0
M  V30 5573 H 501.107 2.23208 -1.91195 0
M  V30 5574 H 498.621 1.16555 -1.13087 0
M  V30 5575 H 500.618 4.15276 -0.36764 0
M  V30 5576 H 499.278 3.22712 0.358713 0
M  V30 5577 H 500.289 4.03258 -3.24966 0
M  V30 5578 H 496.966 4.12081 -0.670506 0
M  V30 5579 H 498.356 4.85488 -4.6449 0
M  V30 5580 N 501.076 1.04316 1.18135 0
M  V30 5581 C 502.487 0.775505 1.69832 0
M  V30 5582 C 502.838 -0.703348 1.8316 0
M  V30 5583 O 501.963 -1.54729 1.51287 0
M  V30 5584 C 502.558 1.40112 3.0847 0
M  V30 5585 C 501.117 1.18172 3.57368 0
M  V30 5586 C 500.264 1.49022 2.33854 0
M  V30 5587 H 503.215 1.20925 1.02775 0
M  V30 5588 H 503.236 0.805672 3.71873 0
M  V30 5589 H 502.748 2.47744 2.98738 0
M  V30 5590 H 500.849 0.124258 3.72393 0
M  V30 5591 H 500.962 1.8805 4.40652 0
M  V30 5592 H 499.326 0.909995 2.37889 0
M  V30 5593 H 500.109 2.57768 2.26738 0
M  V30 5594 N 502.554 -1.34406 0.822964 0
M  V30 5595 C 503.8 -1.98578 0.411666 0
M  V30 5596 C 504.133 -1.65093 -1.02264 0
M  V30 5597 O 503.408 -0.92258 -1.71227 0
M  V30 5598 C 503.691 -3.54823 0.614235 0
M  V30 5599 C 503.544 -3.9805 2.09466 0
M  V30 5600 C 504.863 -4.40071 0.050221 0
M  V30 5601 H 501.982 -0.721355 0.151047 0
M  V30 5602 H 504.624 -1.59301 1.03554 0
M  V30 5603 H 502.774 -3.88411 0.0831774 0
M  V30 5604 H 504.446 -3.74795 2.68936 0
M  V30 5605 H 502.689 -3.4836 2.5851 0
M  V30 5606 H 503.36 -5.06819 2.18721 0
M  V30 5607 H 505.836 -4.13037 0.503953 0
M  V30 5608 H 504.712 -5.48452 0.221759 0
M  V30 5609 H 504.973 -4.29576 -1.04482 0
M  V30 5610 N 504.032 -0.577932 -1.46621 0
M  V30 5611 C 504.995 0.147805 -2.28723 0
M  V30 5612 C 505.995 0.823325 -1.38123 0
M  V30 5613 O 507.185 0.676011 -1.60548 0
M  V30 5614 C 504.317 1.21853 -3.18378 0
M  V30 5615 H 505.51 -0.573654 -2.94362 0
M  V30 5616 H 503.063 -0.335703 -1.52652 0
M  V30 5617 H 503.798 1.97173 -2.57475 0
M  V30 5618 H 503.583 0.738714 -3.85078 0
M  V30 5619 H 505.073 1.72768 -3.80186 0
M  V30 5620 N 505.51 1.54411 -0.315457 0
M  V30 5621 C 506.921 1.85885 0.174265 0
M  V30 5622 C 507.272 1.23723 1.52273 0
M  V30 5623 O 506.397 0.540246 2.09548 0
M  V30 5624 C 506.992 3.37257 0.322981 0
M  V30 5625 C 505.551 3.68711 0.756922 0
M  V30 5626 C 504.698 2.77013 -0.126195 0
M  V30 5627 H 507.649 1.49374 -0.536007 0
M  V30 5628 H 507.67 3.62539 1.15522 0
M  V30 5629 H 507.182 3.82471 -0.658602 0
M  V30 5630 H 505.283 3.29024 1.74854 0
M  V30 5631 H 505.396 4.75741 0.566291 0
M  V30 5632 H 503.76 2.51588 0.39692 0
M  V30 5633 H 504.543 3.25051 -1.1044 0
M  V30 5634 N 506.988 0.0434614 1.5754 0
M  V30 5635 C 507.918 -0.931651 2.14109 0
M  V30 5636 C 508.899 -1.32971 1.06079 0
M  V30 5637 O 510.084 -1.40579 1.33982 0
M  V30 5638 C 507.214 -2.20914 2.67982 0
M  V30 5639 C 506.168 -1.95139 3.80926 0
M  V30 5640 C 505.494 -3.29276 4.21285 0
M  V30 5641 C 506.794 -1.27913 5.06395 0
M  V30 5642 H 508.488 -0.460497 2.95837 0
M  V30 5643 H 506.034 -0.220058 1.42309 0
M  V30 5644 H 507.987 -2.89522 3.06194 0
M  V30 5645 H 506.711 -2.70221 1.83434 0
M  V30 5646 H 505.37 -1.28945 3.43175 0
M  V30 5647 H 505.018 -3.76369 3.33699 0
M  V30 5648 H 504.718 -3.12831 4.97404 0
M  V30 5649 H 506.242 -3.99129 4.62091 0
M  V30 5650 H 507.656 -1.86544 5.42102 0
M  V30 5651 H 506.053 -1.2182 5.87605 0
M  V30 5652 H 507.123 -0.254066 4.84234 0
M  V30 5653 N 508.466 -1.55915 -0.229846 0
M  V30 5654 C 509.396 -1.94754 -1.28815 0
M  V30 5655 C 510.377 -0.814657 -1.49323 0
M  V30 5656 O 511.562 -1.07631 -1.61645 0
M  V30 5657 C 508.692 -2.25705 -2.63959 0
M  V30 5658 C 507.646 -3.41406 -2.5812 0
M  V30 5659 C 506.972 -3.57941 -3.97218 0
M  V30 5660 C 508.272 -4.76616 -2.13623 0
M  V30 5661 H 509.966 -2.83404 -0.965547 0
M  V30 5662 H 507.512 -1.36353 -0.463028 0
M  V30 5663 H 509.465 -2.51467 -3.38146 0
M  V30 5664 H 508.189 -1.339 -2.9789 0
M  V30 5665 H 506.848 -3.1568 -1.86391 0
M  V30 5666 H 506.496 -2.63526 -4.28443 0
M  V30 5667 H 506.196 -4.35757 -3.94195 0
M  V30 5668 H 507.72 -3.86042 -4.73079 0
M  V30 5669 H 509.134 -5.01637 -2.77549 0
M  V30 5670 H 507.531 -5.57655 -2.21677 0
M  V30 5671 H 508.601 -4.7253 -1.08829 0
M  V30 5672 N 509.944 0.496216 -1.49584 0
M  V30 5673 C 511.221 1.25755 -1.49816 0
M  V30 5674 C 511.601 2.09859 -0.228572 0
M  V30 5675 O 510.949 2.14449 0.788908 0
M  V30 5676 C 511.159 2.11017 -2.7798 0
M  V30 5677 C 512.507 2.70047 -3.27658 0
M  V30 5678 O 513.531 2.21281 -2.79129 0
M  V30 5679 O 512.39 3.58834 -4.1219 0
M  V30 5680 H 509.484 0.569322 -0.599834 0
M  V30 5681 H 512.03 0.510094 -1.61852 0
M  V30 5682 H 510.802 1.48879 -3.61871 0
M  V30 5683 H 510.425 2.92947 -2.68827 0
M  V30 5684 N 511.423 1.38739 0.74761 0
M  V30 5685 C 512.371 1.36573 1.88283 0
M  V30 5686 C 513.365 0.250712 1.67534 0
M  V30 5687 O 514.571 0.420073 1.7503 0
M  V30 5688 H 510.946 0.42619 0.619569 0
M  V30 5689 H 512.917 2.32356 1.87226 0
M  V30 5690 C 511.666 1.21361 3.25832 0
M  V30 5691 H 510.989 2.06424 3.42388 0
M  V30 5692 H 512.429 1.23901 4.05493 0
M  V30 5693 C 510.888 -0.0790099 3.36807 0
M  V30 5694 O 511.418 -1.05385 3.8763 0
M  V30 5695 N 509.624 -0.13785 2.90273 0
M  V30 5696 H 509.171 0.656128 2.49104 0
M  V30 5697 H 509.129 -1.00228 2.97996 0
M  V30 5698 N 512.901 -0.976442 1.23707 0
M  V30 5699 C 513.831 -2.08749 1.04624 0
M  V30 5700 C 514.812 -1.70057 -0.0380956 0
M  V30 5701 O 515.997 -1.93782 0.127308 0
M  V30 5702 C 513.127 -3.41335 0.640902 0
M  V30 5703 C 512.081 -3.93947 1.67302 0
M  V30 5704 C 511.407 -5.22774 1.12301 0
M  V30 5705 C 512.707 -4.22769 3.06697 0
M  V30 5706 H 514.401 -2.24972 1.97555 0
M  V30 5707 H 511.947 -1.08108 0.951247 0
M  V30 5708 H 513.9 -4.18489 0.494434 0
M  V30 5709 H 512.624 -3.24988 -0.324099 0
M  V30 5710 H 511.283 -3.18941 1.80755 0
M  V30 5711 H 510.931 -5.0278 0.148877 0
M  V30 5712 H 510.631 -5.58942 1.81267 0
M  V30 5713 H 512.155 -6.02546 0.988479 0
M  V30 5714 H 513.569 -4.90659 2.96524 0
M  V30 5715 H 511.966 -4.70147 3.72937 0
M  V30 5716 H 513.036 -3.29885 3.55392 0
M  V30 5717 N 514.379 -1.04941 -1.1758 0
M  V30 5718 C 515.628 -0.753124 -1.87112 0
M  V30 5719 C 515.941 0.722507 -1.81767 0
M  V30 5720 O 517.147 1.13265 -2.46746 0
M  V30 5721 C 515.603 -1.29695 -3.35719 0
M  V30 5722 C 515.211 -2.80184 -3.49572 0
M  V30 5723 C 516.955 -1.07759 -4.10595 0
M  V30 5724 C 514.862 -3.2788 -4.92187 0
M  V30 5725 H 513.792 -0.278034 -0.700866 0
M  V30 5726 H 516.443 -1.26637 -1.32798 0
M  V30 5727 H 514.825 -0.711522 -3.89555 0
M  V30 5728 H 515.999 -3.44561 -3.05965 0
M  V30 5729 H 514.314 -3.00632 -2.88113 0
M  V30 5730 H 516.911 -1.40899 -5.15802 0
M  V30 5731 H 517.254 -0.0152302 -4.16297 0
M  V30 5732 H 517.787 -1.62809 -3.62957 0
M  V30 5733 H 514.526 -4.33535 -4.91658 0
M  V30 5734 H 514.046 -2.68245 -5.36475 0
M  V30 5735 H 515.725 -3.22412 -5.60945 0
M  V30 5736 N 515.857 1.33968 -0.830081 0
M  V30 5737 C 517.082 2.02813 -0.433796 0
M  V30 5738 C 517.507 1.62076 0.954614 0
M  V30 5739 O 516.865 0.808955 1.62252 0
M  V30 5740 C 516.913 3.56348 -0.552115 0
M  V30 5741 O 516.017 4.10202 0.425191 0
M  V30 5742 H 515.358 0.639817 -0.177567 0
M  V30 5743 H 517.888 1.7106 -1.12248 0
M  V30 5744 H 517.898 4.05722 -0.430513 0
M  V30 5745 H 516.573 3.85344 -1.56471 0
M  V30 5746 H 515.15 3.71979 0.261878 0
M  V30 5747 N 517.335 0.585699 1.46312 0
M  V30 5748 C 518.298 -0.135673 2.28798 0
M  V30 5749 C 519.298 -0.815988 1.38558 0
M  V30 5750 O 520.488 -0.667487 1.60904 0
M  V30 5751 C 517.62 -1.20163 3.1902 0
M  V30 5752 H 518.813 0.589257 2.94054 0
M  V30 5753 H 516.366 0.343794 1.52472 0
M  V30 5754 H 517.101 -1.95804 2.58517 0
M  V30 5755 H 516.886 -0.718282 3.85465 0
M  V30 5756 H 518.376 -1.70749 3.81096 0
M  V30 5757 N 518.813 -1.54241 0.323641 0
M  V30 5758 C 519.743 -2.27289 -0.534993 0
M  V30 5759 C 520.724 -1.28087 -1.11927 0
M  V30 5760 O 521.909 -1.56899 -1.14439 0
M  V30 5761 C 519.039 -3.03075 -1.69596 0
M  V30 5762 C 517.993 -4.09614 -1.24098 0
M  V30 5763 C 517.319 -4.73242 -2.4889 0
M  V30 5764 C 518.619 -5.21087 -0.355789 0
M  V30 5765 H 520.313 -2.99308 0.0743257 0
M  V30 5766 H 517.859 -1.43952 0.0371874 0
M  V30 5767 H 519.812 -3.52907 -2.30293 0
M  V30 5768 H 518.536 -2.28673 -2.33187 0
M  V30 5769 H 517.195 -3.60666 -0.656945 0
M  V30 5770 H 516.843 -3.95455 -3.10845 0
M  V30 5771 H 516.543 -5.45209 -2.19138 0
M  V30 5772 H 518.067 -5.25848 -3.10348 0
M  V30 5773 H 519.481 -5.66675 -0.869042 0
M  V30 5774 H 517.878 -5.9991 -0.151045 0
M  V30 5775 H 518.948 -4.81005 0.613339 0
M  V30 5776 N 520.291 -0.0518155 -1.57515 0
M  V30 5777 C 521.239 0.940195 -2.12751 0
M  V30 5778 C 522.233 1.3218 -1.05948 0
M  V30 5779 O 523.439 1.30138 -1.24355 0
M  V30 5780 H 519.814 0.321066 -0.680015 0
M  V30 5781 H 521.785 0.449217 -2.94999 0
M  V30 5782 C 520.534 2.2055 -2.68799 0
M  V30 5783 H 519.857 1.92066 -3.50643 0
M  V30 5784 H 521.297 2.88119 -3.11068 0
M  V30 5785 C 519.756 2.95061 -1.62605 0
M  V30 5786 O 520.286 3.88025 -1.03921 0
M  V30 5787 N 518.492 2.57804 -1.34111 0
M  V30 5788 H 518.039 1.82281 -1.8202 0
M  V30 5789 H 517.997 3.07964 -0.632872 0
M  V30 5790 N 521.769 1.56035 0.221574 0
M  V30 5791 C 522.716 1.92413 1.27459 0
M  V30 5792 C 523.686 0.781323 1.46576 0
M  V30 5793 O 524.871 1.03721 1.60145 0
M  V30 5794 C 522.011 2.24617 2.61995 0
M  V30 5795 C 521.124 3.51831 2.50677 0
M  V30 5796 C 520.259 3.73482 3.77736 0
M  V30 5797 C 519.298 4.94211 3.6114 0
M  V30 5798 N 518.435 5.12252 4.80148 0
M  V30 5799 H 523.275 2.82203 0.957355 0
M  V30 5800 H 520.812 1.39676 0.461415 0
M  V30 5801 H 522.77 2.41298 3.40339 0
M  V30 5802 H 521.4 1.38 2.91815 0
M  V30 5803 H 520.452 3.43343 1.63767 0
M  V30 5804 H 521.764 4.40328 2.34334 0
M  V30 5805 H 520.918 3.9026 4.64523 0
M  V30 5806 H 519.657 2.83266 3.97003 0
M  V30 5807 H 518.662 4.77384 2.72736 0
M  V30 5808 H 519.887 5.85912 3.43343 0
M  V30 5809 H 517.833 4.24978 4.99729 0
M  V30 5810 H 517.75 5.94881 4.66532 0
M  V30 5811 H 519.018 5.33465 5.68362 0
M  V30 5812 N 523.247 -0.488276 1.49845 0
M  V30 5813 C 524.493 -1.24341 1.6021 0
M  V30 5814 C 524.826 -1.91967 0.293651 0
M  V30 5815 O 524.101 -1.81323 -0.703718 0
M  V30 5816 C 524.384 -2.3005 2.77036 0
M  V30 5817 C 524.237 -1.66842 4.17713 0
M  V30 5818 C 525.556 -3.31509 2.89464 0
M  V30 5819 H 522.675 -0.450704 0.583125 0
M  V30 5820 H 525.317 -0.539673 1.82174 0
M  V30 5821 H 523.467 -2.90071 2.58439 0
M  V30 5822 H 525.139 -1.1055 4.47858 0
M  V30 5823 H 523.382 -0.972079 4.22768 0
M  V30 5824 H 524.053 -2.43576 4.95353 0
M  V30 5825 H 526.529 -2.81493 3.06433 0
M  V30 5826 H 525.405 -4.02822 3.72861 0
M  V30 5827 H 525.666 -3.94603 1.99351 0
M  V30 5828 N 524.725 -1.39134 -0.740242 0
M  V30 5829 C 525.955 -1.39132 -1.52728 0
M  V30 5830 C 526.363 0.0173133 -1.89192 0
M  V30 5831 O 525.706 0.997715 -1.54244 0
M  V30 5832 C 525.768 -2.1952 -2.84695 0
M  V30 5833 C 525.432 -3.68203 -2.70695 0
M  V30 5834 C 526.429 -4.61401 -2.39593 0
M  V30 5835 C 524.114 -4.11724 -2.8773 0
M  V30 5836 C 526.108 -5.96102 -2.25701 0
M  V30 5837 C 523.795 -5.46503 -2.73456 0
M  V30 5838 C 524.793 -6.38506 -2.42486 0
M  V30 5839 O 524.481 -7.70803 -2.28295 0
M  V30 5840 H 524.213 -0.477263 -0.478744 0
M  V30 5841 H 526.767 -1.83504 -0.922799 0
M  V30 5842 H 524.997 -1.69888 -3.47383 0
M  V30 5843 H 526.686 -2.1176 -3.46284 0
M  V30 5844 H 527.452 -4.29079 -2.26088 0
M  V30 5845 H 523.331 -3.4045 -3.10829 0
M  V30 5846 H 526.875 -6.6788 -2.0145 0
M  V30 5847 H 522.772 -5.78417 -2.86538 0
M  V30 5848 H 523.54 -7.8147 -2.43405 0
M  V30 5849 N 526.204 0.969867 -1.24223 0
M  V30 5850 C 527.136 2.0669 -0.99055 0
M  V30 5851 C 528.149 1.62753 0.0392222 0
M  V30 5852 O 529.338 1.77403 -0.197561 0
M  V30 5853 C 526.438 3.35589 -0.472594 0
M  V30 5854 C 525.611 4.08444 -1.56499 0
M  V30 5855 C 524.67 5.15616 -1.05007 0
M  V30 5856 O 523.696 5.41911 -1.7413 0
M  V30 5857 N 524.898 5.80383 0.116641 0
M  V30 5858 H 527.663 2.28855 -1.93508 0
M  V30 5859 H 525.224 1.13733 -1.15223 0
M  V30 5860 H 527.216 4.04542 -0.112919 0
M  V30 5861 H 525.786 3.10311 0.377617 0
M  V30 5862 H 525.006 3.33798 -2.09696 0
M  V30 5863 H 526.294 4.53882 -2.29932 0
M  V30 5864 H 525.692 5.6142 0.694589 0
M  V30 5865 H 524.249 6.50462 0.417483 0
M  V30 5866 N 527.682 1.05563 1.17022 0
M  V30 5867 C 529.098 0.777684 1.39371 0
M  V30 5868 C 529.298 -0.626269 1.91521 0
M  V30 5869 O 528.354 -1.38806 2.10924 0
M  V30 5870 C 529.667 1.83642 2.3811 0
M  V30 5871 C 531.215 1.85907 2.51809 0
M  V30 5872 C 531.69 2.90813 3.53824 0
M  V30 5873 N 533.181 2.898 3.61345 0
M  V30 5874 C 533.916 3.6762 4.40049 0
M  V30 5875 N 533.412 4.55237 5.22237 0
M  V30 5876 N 535.205 3.56044 4.34959 0
M  V30 5877 H 527.356 1.9614 0.815047 0
M  V30 5878 H 529.619 0.849527 0.420722 0
M  V30 5879 H 529.325 2.84425 2.06871 0
M  V30 5880 H 529.199 1.6812 3.37662 0
M  V30 5881 H 531.586 0.857865 2.82356 0
M  V30 5882 H 531.667 2.05506 1.52318 0
M  V30 5883 H 531.311 3.91122 3.24015 0
M  V30 5884 H 531.241 2.68465 4.53028 0
M  V30 5885 H 533.732 2.26274 3.02669 0
M  V30 5886 H 534.045 5.11291 5.79484 0
M  V30 5887 H 532.39 4.59296 5.21605 0
M  V30 5888 H 535.581 2.86986 3.69806 0
M  V30 5889 H 535.754 4.16938 4.96051 0
M  V30 5890 N 529.16 -1.33526 0.837174 0
M  V30 5891 C 530.107 -2.29248 0.267169 0
M  V30 5892 C 531.077 -1.54252 -0.616071 0
M  V30 5893 O 532.262 -1.82559 -0.554699 0
M  V30 5894 C 529.402 -3.40638 -0.553152 0
M  V30 5895 C 528.515 -4.30548 0.353921 0
M  V30 5896 C 527.65 -5.29051 -0.477339 0
M  V30 5897 C 526.689 -6.106 0.42823 0
M  V30 5898 N 525.826 -7.01152 -0.364801 0
M  V30 5899 H 530.666 -2.77398 1.08877 0
M  V30 5900 H 528.203 -1.36496 0.54838 0
M  V30 5901 H 530.161 -4.03921 -1.04422 0
M  V30 5902 H 528.791 -2.93685 -1.33973 0
M  V30 5903 H 527.843 -3.68001 0.963289 0
M  V30 5904 H 529.155 -4.87631 1.04964 0
M  V30 5905 H 528.309 -5.97853 -1.0323 0
M  V30 5906 H 527.048 -4.72541 -1.2065 0
M  V30 5907 H 526.053 -5.40718 0.995219 0
M  V30 5908 H 527.278 -6.69193 1.15573 0
M  V30 5909 H 525.224 -6.47092 -1.07738 0
M  V30 5910 H 525.141 -7.5551 0.272238 0
M  V30 5911 H 526.409 -7.74263 -0.902054 0
M  V30 5912 N 530.638 -0.59345 -1.46 0
M  V30 5913 C 531.886 -0.082988 -2.0193 0
M  V30 5914 C 532.207 1.28569 -1.46612 0
M  V30 5915 O 531.477 1.84629 -0.654909 0
M  V30 5916 H 530.057 -0.0276882 -0.746487 0
M  V30 5917 H 532.719 -0.771657 -1.78973 0
M  V30 5918 H 531.815 -0.022079 -3.12092 0
M  V30 5919 N 532.116 1.54067 -0.331816 0
M  V30 5920 C 533.362 2.01012 0.268667 0
M  V30 5921 C 533.695 1.2195 1.51136 0
M  V30 5922 O 532.97 0.303972 1.9211 0
M  V30 5923 C 533.253 3.55158 0.59456 0
M  V30 5924 C 533.106 4.4494 -0.659409 0
M  V30 5925 C 534.425 4.16939 1.4089 0
M  V30 5926 H 531.544 0.730698 0.0961756 0
M  V30 5927 H 534.186 1.84593 -0.450031 0
M  V30 5928 H 532.336 3.6928 1.20685 0
M  V30 5929 H 534.008 4.42675 -1.29756 0
M  V30 5930 H 532.251 4.1428 -1.28665 0
M  V30 5931 H 532.922 5.50643 -0.386804 0
M  V30 5932 H 535.398 4.06443 0.891272 0
M  V30 5933 H 534.274 5.24889 1.60569 0
M  V30 5934 H 534.535 3.70798 2.40752 0
M  V30 5935 N 533.594 0.0601682 1.57485 0
M  V30 5936 C 534.542 -0.928899 2.13247 0
M  V30 5937 C 535.536 -1.31616 1.06647 0
M  V30 5938 O 536.742 -1.29476 1.25043 0
M  V30 5939 H 533.117 -0.317455 0.681708 0
M  V30 5940 H 535.088 -0.433566 2.95233 0
M  V30 5941 C 533.837 -2.19121 2.69965 0
M  V30 5942 H 533.16 -1.90204 3.51657 0
M  V30 5943 H 534.6 -2.86465 3.12592 0
M  V30 5944 C 533.059 -2.94195 1.64168 0
M  V30 5945 O 533.589 -3.87468 1.05978 0
M  V30 5946 N 531.795 -2.57089 1.35476 0
M  V30 5947 H 531.342 -1.81314 1.82984 0
M  V30 5948 H 531.3 -3.07624 0.649196 0
M  V30 5949 N 535.072 -1.5615 -0.213296 0
M  V30 5950 C 536.321 -1.78743 -0.93455 0
M  V30 5951 C 536.634 -0.630199 -1.8517 0
M  V30 5952 O 537.84 -0.739966 -2.61222 0
M  V30 5953 C 536.296 -3.16571 -1.71203 0
M  V30 5954 C 535.904 -4.40043 -0.840617 0
M  V30 5955 C 537.648 -3.48485 -2.42401 0
M  V30 5956 C 535.555 -5.68895 -1.61592 0
M  V30 5957 H 534.485 -0.666426 -0.352692 0
M  V30 5958 H 537.136 -1.82532 -0.188227 0
M  V30 5959 H 535.518 -3.06981 -2.50157 0
M  V30 5960 H 536.692 -4.6071 -0.0910326 0
M  V30 5961 H 535.007 -4.15706 -0.240365 0
M  V30 5962 H 537.604 -4.41983 -3.00924 0
M  V30 5963 H 537.947 -2.71371 -3.15695 0
M  V30 5964 H 538.48 -3.59442 -1.7043 0
M  V30 5965 H 535.219 -6.48925 -0.926106 0
M  V30 5966 H 534.739 -5.52275 -2.33991 0
M  V30 5967 H 536.418 -6.09365 -2.17447 0
M  V30 5968 N 536.55 0.480323 -1.50102 0
M  V30 5969 C 537.775 1.26126 -1.64642 0
M  V30 5970 C 538.2 1.85257 -0.325823 0
M  V30 5971 O 537.558 1.66854 0.709194 0
M  V30 5972 C 537.606 2.35243 -2.73301 0
M  V30 5973 O 536.71 3.39646 -2.33911 0
M  V30 5974 H 536.051 0.371463 -0.550374 0
M  V30 5975 H 538.581 0.572696 -1.96421 0
M  V30 5976 H 538.591 2.80695 -2.96098 0
M  V30 5977 H 537.266 1.91574 -3.6915 0
M  V30 5978 H 535.843 2.99969 -2.21525 0
M  V30 5979 N 538.028 1.39524 0.732853 0
M  V30 5980 C 538.961 1.32806 1.85574 0
M  V30 5981 C 539.939 0.201354 1.61348 0
M  V30 5982 O 541.123 0.38216 1.84585 0
M  V30 5983 C 538.25 1.06271 3.21596 0
M  V30 5984 C 537.296 2.21161 3.64678 0
M  V30 5985 S 538.129 3.83454 3.73796 0
M  V30 5986 C 539.285 3.59149 5.12604 0
M  V30 5987 H 539.518 2.27838 1.9099 0
M  V30 5988 H 537.051 1.25605 0.897927 0
M  V30 5989 H 539.009 0.916461 4.00139 0
M  V30 5990 H 537.67 0.129223 3.13834 0
M  V30 5991 H 536.863 1.98193 4.63396 0
M  V30 5992 H 536.465 2.32 2.93346 0
M  V30 5993 H 538.757 3.16547 5.99003 0
M  V30 5994 H 539.7 4.57335 5.40602 0
M  V30 5995 H 540.108 2.93203 4.82382 0
M  V30 5996 N 539.506 -0.963266 1.24736 0
M  V30 5997 C 540.783 -1.68248 0.9976 0
M  V30 5998 C 541.163 -2.05599 -0.478776 0
M  V30 5999 O 540.511 -1.7626 -1.45412 0
M  V30 6000 C 540.721 -2.91118 1.92487 0
M  V30 6001 C 542.069 -3.63261 2.19833 0
M  V30 6002 O 543.093 -3.01184 1.90176 0
M  V30 6003 O 541.952 -4.75019 2.7022 0
M  V30 6004 H 539.046 -0.735744 0.377637 0
M  V30 6005 H 541.592 -1.01696 1.35853 0
M  V30 6006 H 540.364 -2.60242 2.92215 0
M  V30 6007 H 539.987 -3.65402 1.56738 0
M  V30 6008 N 540.985 -1.06182 -1.16461 0
M  V30 6009 C 542.234 -0.772927 -1.86303 0
M  V30 6010 C 542.547 0.703187 -1.82523 0
M  V30 6011 O 543.753 1.10641 -2.47933 0
M  V30 6012 C 542.209 -1.33249 -3.34324 0
M  V30 6013 C 541.817 -2.83876 -3.46581 0
M  V30 6014 C 543.561 -1.12108 -4.09429 0
M  V30 6015 C 541.468 -3.33082 -4.88682 0
M  V30 6016 H 540.398 -0.285452 -0.697878 0
M  V30 6017 H 543.049 -1.28039 -1.31447 0
M  V30 6018 H 541.431 -0.7528 -3.88779 0
M  V30 6019 H 542.605 -3.47786 -3.02293 0
M  V30 6020 H 540.92 -3.03671 -2.84909 0
M  V30 6021 H 543.517 -1.46361 -5.14279 0
M  V30 6022 H 543.86 -0.0593832 -4.16258 0
M  V30 6023 H 544.393 -1.6665 -3.6121 0
M  V30 6024 H 541.132 -4.38726 -4.87032 0
M  V30 6025 H 540.652 -2.73919 -5.33599 0
M  V30 6026 H 542.331 -3.28344 -5.57494 0
M  V30 6027 N 542.463 1.3308 -0.844243 0
M  V30 6028 C 543.688 2.02341 -0.455282 0
M  V30 6029 C 544.113 1.6308 0.93737 0
M  V30 6030 O 543.471 0.826118 1.61385 0
M  V30 6031 C 543.519 3.55743 -0.58988 0
M  V30 6032 O 542.623 4.1063 0.38166 0
M  V30 6033 H 541.964 0.637898 -0.184343 0
M  V30 6034 H 544.494 1.6986 -1.14056 0
M  V30 6035 H 544.504 4.05243 -0.473522 0
M  V30 6036 H 543.179 3.83662 -1.60549 0
M  V30 6037 H 541.756 3.72236 0.22241 0
M  V30 6038 N 543.941 0.601185 1.45683 0
M  V30 6039 C 545.352 0.179659 1.85834 0
M  V30 6040 C 545.703 -1.26189 1.50236 0
M  V30 6041 O 544.828 -1.95587 0.925987 0
M  V30 6042 C 545.423 0.319277 3.37292 0
M  V30 6043 C 543.982 -0.0475092 3.7637 0
M  V30 6044 C 543.129 0.646692 2.69654 0
M  V30 6045 H 546.08 0.808268 1.36575 0
M  V30 6046 H 546.101 -0.4503 3.77826 0
M  V30 6047 H 545.613 1.36855 3.6317 0
M  V30 6048 H 543.714 -1.0962 3.5611 0
M  V30 6049 H 543.827 0.34168 4.7788 0
M  V30 6050 H 542.191 0.0849971 2.54558 0
M  V30 6051 H 542.974 1.69797 2.98369 0
M  V30 6052 N 545.419 -1.53889 0.339982 0
M  V30 6053 C 546.329 -2.28604 -0.526988 0
M  V30 6054 C 547.345 -1.33578 -1.11503 0
M  V30 6055 O 548.521 -1.66612 -1.13148 0
M  V30 6056 C 545.586 -3.04164 -1.66389 0
M  V30 6057 C 544.647 -4.14809 -1.10599 0
M  V30 6058 C 543.88 -4.86756 -2.18871 0
M  V30 6059 O 544.103 -4.58343 -3.39526 0
M  V30 6060 O 543.037 -5.73289 -1.83366 0
M  V30 6061 H 546.863 -3.03594 0.0802707 0
M  V30 6062 H 544.448 -1.4903 0.105141 0
M  V30 6063 H 546.33 -3.51427 -2.32544 0
M  V30 6064 H 545.005 -2.32035 -2.25703 0
M  V30 6065 H 543.912 -3.71857 -0.409067 0
M  V30 6066 H 545.245 -4.89029 -0.557771 0
M  V30 6067 N 546.897 -0.0685191 -1.57451 0
M  V30 6068 C 548.146 0.600898 -1.92541 0
M  V30 6069 C 548.459 1.70967 -0.950239 0
M  V30 6070 O 549.665 2.43844 -1.19384 0
M  V30 6071 C 548.121 1.12019 -3.42023 0
M  V30 6072 C 547.729 0.0426028 -4.4798 0
M  V30 6073 C 549.473 1.76386 -3.86119 0
M  V30 6074 C 547.38 0.575759 -5.88591 0
M  V30 6075 H 546.31 0.228225 -0.71863 0
M  V30 6076 H 548.961 -0.140223 -1.82963 0
M  V30 6077 H 547.343 1.91418 -3.46663 0
M  V30 6078 H 548.517 -0.73182 -4.54952 0
M  V30 6079 H 546.832 -0.504642 -4.13331 0
M  V30 6080 H 549.429 2.17302 -4.88553 0
M  V30 6081 H 549.772 2.62255 -3.23308 0
M  V30 6082 H 550.305 1.03615 -3.84069 0
M  V30 6083 H 547.044 -0.245691 -6.55039 0
M  V30 6084 H 546.564 1.31778 -5.85145 0
M  V30 6085 H 548.243 1.0532 -6.3837 0
M  V30 6086 N 548.375 1.56261 0.205012 0
M  V30 6087 C 549.6 1.84491 0.947512 0
M  V30 6088 C 550.025 0.650894 1.76479 0
M  V30 6089 O 549.383 -0.40035 1.76824 0
M  V30 6090 C 549.431 3.10863 1.82747 0
M  V30 6091 O 548.535 2.90719 2.925 0
M  V30 6092 H 547.876 0.607783 0.267386 0
M  V30 6093 H 550.406 2.03485 0.213323 0
M  V30 6094 H 550.416 3.41399 2.23407 0
M  V30 6095 H 549.091 3.97392 1.2269 0
M  V30 6096 H 547.668 2.71457 2.55667 0
M  V30 6097 N 549.853 -0.472356 1.50355 0
M  V30 6098 C 551.1 -1.22453 1.61281 0
M  V30 6099 C 551.428 -1.91972 0.31256 0
M  V30 6100 O 550.683 -1.82696 -0.701475 0
M  V30 6101 C 550.982 -2.29257 2.74182 0
M  V30 6102 C 550.648 -1.76999 4.14708 0
M  V30 6103 C 549.31 -1.62467 4.52944 0
M  V30 6104 C 551.662 -1.38215 5.0254 0
M  V30 6105 C 548.99 -1.07574 5.76754 0
M  V30 6106 C 551.342 -0.847638 6.26895 0
M  V30 6107 C 550.006 -0.688946 6.63935 0
M  V30 6108 H 549.276 -0.448087 0.590168 0
M  V30 6109 H 551.923 -0.520744 1.84284 0
M  V30 6110 H 550.228 -3.05538 2.45263 0
M  V30 6111 H 551.925 -2.87212 2.7984 0
M  V30 6112 H 548.515 -1.89276 3.84542 0
M  V30 6113 H 552.699 -1.48276 4.73633 0
M  V30 6114 H 547.955 -0.940237 6.04127 0
M  V30 6115 H 552.129 -0.538455 6.94315 0
M  V30 6116 H 549.756 -0.261435 7.5975 0
M  V30 6117 N 551.331 -1.39911 -0.725443 0
M  V30 6118 C 552.577 -1.37858 -1.48738 0
M  V30 6119 C 552.91 0.0224187 -1.94187 0
M  V30 6120 O 552.185 0.989204 -1.67466 0
M  V30 6121 C 552.468 -2.3594 -2.72038 0
M  V30 6122 C 552.321 -3.85023 -2.32546 0
M  V30 6123 C 553.64 -2.31704 -3.74167 0
M  V30 6124 H 550.759 -0.502074 -0.539528 0
M  V30 6125 H 553.401 -1.70974 -0.828728 0
M  V30 6126 H 551.551 -2.0783 -3.28236 0
M  V30 6127 H 553.223 -4.2392 -1.81905 0
M  V30 6128 H 551.466 -4.01334 -1.64661 0
M  V30 6129 H 552.137 -4.49152 -3.20884 0
M  V30 6130 H 554.613 -2.5658 -3.27576 0
M  V30 6131 H 553.489 -3.02395 -4.58092 0
M  V30 6132 H 553.75 -1.3253 -4.21768 0
M  V30 6133 N 552.809 0.956637 -1.25245 0
M  V30 6134 C 554.057 1.69764 -1.09657 0
M  V30 6135 C 554.378 1.91583 0.363464 0
M  V30 6136 O 553.648 1.50149 1.25825 0
M  V30 6137 H 552.228 0.629097 -0.402798 0
M  V30 6138 H 554.89 1.15026 -1.57337 0
M  V30 6139 H 553.986 2.67769 -1.60331 0
M  V30 6140 N 554.287 1.06798 1.15896 0
M  V30 6141 C 555.197 0.694564 2.24083 0
M  V30 6142 C 556.213 -0.291687 1.71538 0
M  V30 6143 O 557.389 -0.139723 2.00915 0
M  V30 6144 C 554.454 0.0921014 3.46578 0
M  V30 6145 C 553.515 1.13087 4.14137 0
M  V30 6146 C 552.748 0.557064 5.30785 0
M  V30 6147 O 552.971 -0.628623 5.66925 0
M  V30 6148 O 551.905 1.29924 5.8771 0
M  V30 6149 H 555.731 1.59663 2.58344 0
M  V30 6150 H 553.316 0.840575 1.2351 0
M  V30 6151 H 555.198 -0.241884 4.20705 0
M  V30 6152 H 553.873 -0.78337 3.14078 0
M  V30 6153 H 552.78 1.51712 3.41957 0
M  V30 6154 H 554.113 1.97805 4.50704 0
M  V30 6155 N 555.766 -1.3263 0.851289 0
M  V30 6156 C 556.698 -2.27824 0.250757 0
M  V30 6157 C 557.711 -1.52285 -0.575598 0
M  V30 6158 O 558.9 -1.73946 -0.400638 0
M  V30 6159 C 556 -3.3232 -0.664571 0
M  V30 6160 C 555.173 -4.37221 0.125187 0
M  V30 6161 C 554.232 -5.21314 -0.715385 0
M  V30 6162 O 553.258 -5.69002 -0.150111 0
M  V30 6163 N 554.46 -5.43823 -2.03069 0
M  V30 6164 H 557.225 -2.79997 1.06873 0
M  V30 6165 H 554.786 -1.45455 0.710943 0
M  V30 6166 H 556.778 -3.85486 -1.23216 0
M  V30 6167 H 555.348 -2.80331 -1.38323 0
M  V30 6168 H 554.568 -3.84384 0.874199 0
M  V30 6169 H 555.856 -5.04399 0.667774 0
M  V30 6170 H 555.254 -5.06803 -2.51332 0
M  V30 6171 H 553.811 -5.99998 -2.54648 0
M  V30 6172 N 557.244 -0.608902 -1.45362 0
M  V30 6173 C 558.192 0.121639 -2.32282 0
M  V30 6174 C 559.186 0.858301 -1.46046 0
M  V30 6175 O 560.392 0.773718 -1.62523 0
M  V30 6176 H 556.767 0.058086 -0.749753 0
M  V30 6177 H 558.738 -0.629866 -2.91677 0
M  V30 6178 C 557.487 1.1047 -3.29684 0
M  V30 6179 H 556.81 0.547278 -3.96036 0
M  V30 6180 H 558.25 1.58576 -3.9323 0
M  V30 6181 C 556.709 2.17891 -2.56954 0
M  V30 6182 O 557.239 3.25652 -2.35189 0
M  V30 6183 N 555.445 1.93211 -2.17066 0
M  V30 6184 H 554.992 1.05584 -2.34967 0
M  V30 6185 H 554.95 2.6529 -1.68727 0
M  V30 6186 N 558.722 1.53707 -0.348139 0
M  V30 6187 C 559.999 1.93247 0.302475 0
M  V30 6188 C 560.379 1.28012 1.67857 0
M  V30 6189 O 559.727 0.43274 2.24365 0
M  V30 6190 C 559.937 3.47031 0.370159 0
M  V30 6191 C 561.285 4.20066 0.61882 0
M  V30 6192 O 562.309 3.53319 0.452087 0
M  V30 6193 O 561.168 5.38318 0.94215 0
M  V30 6194 H 558.262 0.807736 0.177458 0
M  V30 6195 H 560.808 1.64927 -0.399651 0
M  V30 6196 H 559.58 3.86745 -0.59534 0
M  V30 6197 H 559.203 3.81532 1.11888 0
M  V30 6198 N 560.2 0.0768682 1.57412 0
M  V30 6199 C 561.447 -0.591085 1.93681 0
M  V30 6200 C 561.775 -1.69311 0.957286 0
M  V30 6201 O 561.03 -1.95682 -0.0262428 0
M  V30 6202 C 561.329 -1.20268 3.36557 0
M  V30 6203 C 560.995 -0.226286 4.50332 0
M  V30 6204 C 559.657 0.0423142 4.81181 0
M  V30 6205 C 562.009 0.441415 5.19327 0
M  V30 6206 C 559.337 0.985616 5.78362 0
M  V30 6207 C 561.689 1.37307 6.17519 0
M  V30 6208 C 560.353 1.65009 6.46783 0
M  V30 6209 H 559.623 -0.216293 0.70873 0
M  V30 6210 H 562.27 0.148824 1.90921 0
M  V30 6211 H 560.575 -2.01844 3.35807 0
M  V30 6212 H 562.272 -1.72688 3.61911 0
M  V30 6213 H 558.862 -0.445821 4.26275 0
M  V30 6214 H 563.046 0.247023 4.95685 0
M  V30 6215 H 558.302 1.20743 5.99359 0
M  V30 6216 H 562.476 1.89637 6.70083 0
M  V30 6217 H 560.103 2.38263 7.21897 0
M  V30 6218 N 561.678 -1.56367 -0.196722 0
M  V30 6219 C 562.924 -1.80796 -0.918725 0
M  V30 6220 C 563.257 -0.650645 -1.82976 0
M  V30 6221 O 562.532 0.348889 -1.91345 0
M  V30 6222 C 562.815 -3.15472 -1.73636 0
M  V30 6223 C 562.668 -4.41693 -0.85015 0
M  V30 6224 C 563.987 -3.46824 -2.70927 0
M  V30 6225 H 561.106 -0.657702 -0.332561 0
M  V30 6226 H 563.748 -1.89086 -0.186186 0
M  V30 6227 H 561.898 -3.08536 -2.36088 0
M  V30 6228 H 563.57 -4.60673 -0.240459 0
M  V30 6229 H 561.813 -4.33517 -0.156785 0
M  V30 6230 H 562.484 -5.32419 -1.45719 0
M  V30 6231 H 564.96 -3.54049 -2.18607 0
M  V30 6232 H 563.836 -4.4218 -3.25219 0
M  V30 6233 H 564.097 -2.70236 -3.49893 0
M  V30 6234 N 563.156 0.464375 -1.50603 0
M  V30 6235 C 564.066 1.58723 -1.72754 0
M  V30 6236 C 565.082 1.62925 -0.610844 0
M  V30 6237 O 566.258 1.8067 -0.889963 0
M  V30 6238 C 563.323 2.94897 -1.82309 0
M  V30 6239 C 562.384 3.0103 -3.06071 0
M  V30 6240 C 561.617 4.30708 -3.1516 0
M  V30 6241 O 561.84 5.2159 -2.30868 0
M  V30 6242 O 560.774 4.42571 -4.0794 0
M  V30 6243 H 564.6 1.42954 -2.67951 0
M  V30 6244 H 562.185 0.644579 -1.3478 0
M  V30 6245 H 564.067 3.75764 -1.90735 0
M  V30 6246 H 562.742 3.10851 -0.902967 0
M  V30 6247 H 561.649 2.19217 -3.03142 0
M  V30 6248 H 562.982 2.90014 -3.97684 0
M  V30 6249 N 564.634 1.40294 0.718013 0
M  V30 6250 C 565.88 1.38645 1.48005 0
M  V30 6251 C 566.213 -0.0121202 1.94196 0
M  V30 6252 O 565.488 -0.980309 1.67989 0
M  V30 6253 C 565.771 2.37379 2.70782 0
M  V30 6254 C 565.624 3.8625 2.30501 0
M  V30 6255 C 566.943 2.33685 3.72933 0
M  V30 6256 H 564.062 0.504928 0.536858 0
M  V30 6257 H 566.704 1.71411 0.819649 0
M  V30 6258 H 564.854 2.09568 3.27129 0
M  V30 6259 H 566.526 4.24879 1.79655 0
M  V30 6260 H 564.769 4.02202 1.6253 0
M  V30 6261 H 565.44 4.50847 3.18498 0
M  V30 6262 H 567.916 2.58314 3.2621 0
M  V30 6263 H 566.792 3.0482 4.56482 0
M  V30 6264 H 567.053 1.34765 4.21059 0
M  V30 6265 N 566.112 -0.949982 1.2575 0
M  V30 6266 C 567.045 -2.047 1.00862 0
M  V30 6267 C 568.023 -1.62475 -0.0636982 0
M  V30 6268 O 569.207 -1.88343 0.0769153 0
M  V30 6269 C 566.334 -3.34597 0.525613 0
M  V30 6270 C 565.38 -3.95788 1.58916 0
M  V30 6271 S 566.213 -4.31175 3.17567 0
M  V30 6272 C 567.369 -5.64183 2.71013 0
M  V30 6273 H 567.602 -2.25497 1.93749 0
M  V30 6274 H 565.135 -1.09022 1.09332 0
M  V30 6275 H 567.093 -4.09716 0.25359 0
M  V30 6276 H 565.754 -3.11758 -0.382828 0
M  V30 6277 H 564.947 -4.89457 1.20201 0
M  V30 6278 H 564.549 -3.27168 1.81211 0
M  V30 6279 H 566.841 -6.42504 2.14928 0
M  V30 6280 H 567.784 -6.07774 3.6334 0
M  V30 6281 H 568.192 -5.2364 2.1086 0
M  V30 6282 N 567.59 -1.07411 -1.15328 0
M  V30 6283 C 568.838 -0.796073 -1.85761 0
M  V30 6284 C 569.159 0.679864 -1.82764 0
M  V30 6285 O 568.429 1.49242 -1.269 0
M  V30 6286 H 567.009 -0.291495 -0.687779 0
M  V30 6287 H 569.671 -1.35799 -1.39802 0
M  V30 6288 H 568.767 -1.13114 -2.90881 0
M  V30 6289 N 569.068 1.32177 -0.85831 0
M  V30 6290 C 570.016 2.30729 -0.294442 0
M  V30 6291 C 571.01 1.59009 0.584165 0
M  V30 6292 O 572.216 1.73713 0.471562 0
M  V30 6293 H 568.591 0.748097 -0.0765171 0
M  V30 6294 H 570.562 2.75774 -1.1398 0
M  V30 6295 C 569.311 3.44098 0.499208 0
M  V30 6296 H 568.634 3.99449 -0.167579 0
M  V30 6297 H 570.074 4.15202 0.859273 0
M  V30 6298 C 568.533 2.91684 1.68588 0
M  V30 6299 O 569.063 2.89481 2.78503 0
M  V30 6300 N 567.269 2.48036 1.51415 0
M  V30 6301 H 566.816 2.50027 0.620006 0
M  V30 6302 H 566.774 2.13322 2.30957 0
M  V30 6303 N 570.547 0.616602 1.45037 0
M  V30 6304 C 571.793 0.115501 2.02471 0
M  V30 6305 C 572.126 -1.25406 1.4828 0
M  V30 6306 O 571.401 -1.82922 0.661051 0
M  V30 6307 C 571.684 0.0863588 3.59996 0
M  V30 6308 C 571.537 1.48723 4.24501 0
M  V30 6309 C 572.856 -0.596762 4.36035 0
M  V30 6310 H 569.975 0.0434461 0.735718 0
M  V30 6311 H 572.617 0.7903 1.72784 0
M  V30 6312 H 570.767 -0.488277 3.85419 0
M  V30 6313 H 572.439 2.10964 4.10234 0
M  V30 6314 H 570.682 2.04534 3.82555 0
M  V30 6315 H 571.353 1.419 5.3345 0
M  V30 6316 H 573.829 -0.10824 4.15959 0
M  V30 6317 H 572.705 -0.586289 5.4576 0
M  V30 6318 H 572.966 -1.66451 4.09569 0
M  V30 6319 N 572.025 -1.5352 0.356285 0
M  V30 6320 C 572.955 -2.28372 -0.486661 0
M  V30 6321 C 573.936 -1.30432 -1.09185 0
M  V30 6322 O 575.121 -1.59291 -1.11085 0
M  V30 6323 C 572.251 -3.06604 -1.63129 0
M  V30 6324 C 571.205 -4.12154 -1.15381 0
M  V30 6325 C 570.531 -4.78415 -2.38796 0
M  V30 6326 C 571.831 -5.21724 -0.245179 0
M  V30 6327 H 573.525 -2.99083 0.137797 0
M  V30 6328 H 571.071 -1.43841 0.0677134 0
M  V30 6329 H 573.024 -3.57712 -2.22755 0
M  V30 6330 H 571.748 -2.33568 -2.28284 0
M  V30 6331 H 570.407 -3.61978 -0.580294 0
M  V30 6332 H 570.055 -4.01959 -3.02387 0
M  V30 6333 H 569.755 -5.49734 -2.07524 0
M  V30 6334 H 571.279 -5.32313 -2.99125 0
M  V30 6335 H 572.693 -5.68391 -0.748646 0
M  V30 6336 H 571.09 -6.00095 -0.0237608 0
M  V30 6337 H 572.16 -4.79596 0.715229 0
M  V30 6338 N 573.503 -0.0852151 -1.57369 0
M  V30 6339 C 574.78 0.622534 -1.85429 0
M  V30 6340 C 575.16 1.86962 -0.980229 0
M  V30 6341 O 574.508 2.28445 -0.0500219 0
M  V30 6342 C 574.718 0.947374 -3.35896 0
M  V30 6343 C 576.066 1.31509 -4.03721 0
M  V30 6344 O 577.09 1.03869 -3.40719 0
M  V30 6345 O 575.949 1.83231 -5.14868 0
M  V30 6346 H 573.043 0.310513 -0.766492 0
M  V30 6347 H 575.589 -0.117164 -1.69295 0
M  V30 6348 H 574.361 0.0622264 -3.91251 0
M  V30 6349 H 573.984 1.74338 -3.5734 0
M  V30 6350 N 574.981 1.5647 0.188427 0
M  V30 6351 C 575.929 1.95971 1.25293 0
M  V30 6352 C 576.923 0.846047 1.4676 0
M  V30 6353 O 578.129 1.03109 1.47542 0
M  V30 6354 H 574.504 0.623253 0.420784 0
M  V30 6355 H 576.475 2.84731 0.892792 0
M  V30 6356 C 575.224 2.32116 2.58877 0
M  V30 6357 H 574.547 3.17341 2.43176 0
M  V30 6358 H 575.987 2.63613 3.3209 0
M  V30 6359 C 574.446 1.15823 3.16365 0
M  V30 6360 O 574.976 0.436785 3.99318 0
M  V30 6361 N 573.182 0.933278 2.75206 0
M  V30 6362 H 572.729 1.52169 2.07852 0
M  V30 6363 H 572.687 0.156976 3.14008 0
M  V30 6364 N 576.459 -0.456382 1.50847 0
M  V30 6365 C 577.422 -1.53493 1.70213 0
M  V30 6366 C 578.422 -1.50264 0.572481 0
M  V30 6367 O 579.612 -1.52623 0.839751 0
M  V30 6368 C 576.744 -2.93091 1.741 0
M  V30 6369 H 577.937 -1.37633 2.66453 0
M  V30 6370 H 575.49 -0.683776 1.4055 0
M  V30 6371 H 576.225 -3.14378 0.796063 0
M  V30 6372 H 576.01 -2.9684 2.5618 0
M  V30 6373 H 577.5 -3.71368 1.90987 0
M  V30 6374 N 577.937 -1.40673 -0.710563 0
M  V30 6375 C 579.177 -1.40677 -1.48288 0
M  V30 6376 C 579.541 -0.0097193 -1.91998 0
M  V30 6377 O 580.742 0.115381 -2.68552 0
M  V30 6378 C 579.013 -2.37289 -2.67262 0
M  V30 6379 S 580.572 -2.55694 -3.56603 0
M  V30 6380 H 577.39 -0.498545 -0.506926 0
M  V30 6381 H 579.992 -1.76984 -0.830472 0
M  V30 6382 H 578.696 -3.37617 -2.3333 0
M  V30 6383 H 578.227 -2.02282 -3.3741 0
M  V30 6384 H 580.242 -1.81311 -4.61888 0
M  V30 6385 N 579.415 0.9433 -1.26252 0
M  V30 6386 C 580.362 2.0417 -1.07625 0
M  V30 6387 C 581.332 1.6609 0.0180738 0
M  V30 6388 O 582.517 1.90276 -0.141289 0
M  V30 6389 C 579.657 3.37653 -0.713043 0
M  V30 6390 C 578.77 3.88783 -1.8834 0
M  V30 6391 C 577.905 5.10642 -1.4635 0
M  V30 6392 C 576.944 5.54028 -2.60229 0
M  V30 6393 N 576.081 6.67092 -2.18936 0
M  V30 6394 H 580.921 2.19436 -2.01623 0
M  V30 6395 H 578.458 1.07519 -1.00389 0
M  V30 6396 H 580.416 4.14391 -0.483358 0
M  V30 6397 H 579.046 3.22241 0.18996 0
M  V30 6398 H 578.098 3.08464 -2.22608 0
M  V30 6399 H 579.41 4.16922 -2.73821 0
M  V30 6400 H 578.564 5.94832 -1.19414 0
M  V30 6401 H 577.303 4.84244 -0.579568 0
M  V30 6402 H 576.308 4.68396 -2.87898 0
M  V30 6403 H 577.533 5.82429 -3.49219 0
M  V30 6404 H 575.479 6.42381 -1.32974 0
M  V30 6405 H 575.396 6.94806 -2.97961 0
M  V30 6406 H 576.664 7.54662 -1.95206 0
M  V30 6407 N 580.893 1.08022 1.14757 0
M  V30 6408 C 582.123 0.827646 1.89298 0
M  V30 6409 C 582.531 -0.623506 1.78631 0
M  V30 6410 O 581.874 -1.43991 1.14071 0
M  V30 6411 C 581.936 1.16553 3.40082 0
M  V30 6412 C 581.6 2.61866 3.74533 0
M  V30 6413 C 582.597 3.60116 3.74984 0
M  V30 6414 C 580.282 2.97619 4.04633 0
M  V30 6415 C 582.276 4.92151 4.05051 0
M  V30 6416 C 579.963 4.2985 4.34364 0
M  V30 6417 C 580.961 5.26926 4.34555 0
M  V30 6418 O 580.649 6.5678 4.63568 0
M  V30 6419 H 580.381 0.298396 0.606577 0
M  V30 6420 H 582.935 1.44187 1.46285 0
M  V30 6421 H 581.165 0.494296 3.83528 0
M  V30 6422 H 582.854 0.894407 3.95923 0
M  V30 6423 H 583.62 3.33837 3.51821 0
M  V30 6424 H 579.499 2.22702 4.03639 0
M  V30 6425 H 583.043 5.67915 4.05115 0
M  V30 6426 H 578.94 4.55879 4.56995 0
M  V30 6427 H 579.708 6.62035 4.81303 0
M  V30 6428 N 582.371 -1.3172 0.865308 0
M  V30 6429 C 583.611 -1.98675 0.480365 0
M  V30 6430 C 583.975 -1.66929 -0.948621 0
M  V30 6431 O 585.176 -2.27059 -1.43867 0
M  V30 6432 C 583.447 -3.49972 0.724858 0
M  V30 6433 S 585.006 -4.36598 0.439078 0
M  V30 6434 H 581.824 -0.687967 0.179506 0
M  V30 6435 H 584.426 -1.60215 1.12033 0
M  V30 6436 H 583.13 -3.70567 1.76375 0
M  V30 6437 H 582.661 -3.93335 0.0717173 0
M  V30 6438 H 584.676 -4.90792 -0.730564 0
M  V30 6439 N 583.85 -0.624285 -1.44708 0
M  V30 6440 C 584.779 0.0717025 -2.3339 0
M  V30 6441 C 585.76 0.841814 -1.47809 0
M  V30 6442 O 586.946 0.809056 -1.76544 0
M  V30 6443 C 584.076 1.05852 -3.30776 0
M  V30 6444 C 583.029 0.400503 -4.26122 0
M  V30 6445 C 582.356 1.49674 -5.13324 0
M  V30 6446 C 583.656 -0.688924 -5.17737 0
M  V30 6447 H 585.35 -0.668819 -2.91834 0
M  V30 6448 H 582.896 -0.32308 -1.40329 0
M  V30 6449 H 584.849 1.5541 -3.91696 0
M  V30 6450 H 583.572 1.82984 -2.70526 0
M  V30 6451 H 582.231 -0.0743687 -3.66525 0
M  V30 6452 H 581.88 2.25877 -4.49431 0
M  V30 6453 H 581.58 1.06188 -5.77926 0
M  V30 6454 H 583.104 1.99427 -5.77115 0
M  V30 6455 H 584.518 -0.276724 -5.72632 0
M  V30 6456 H 582.915 -1.04652 -5.90904 0
M  V30 6457 H 583.985 -1.55884 -4.5916 0
M  V30 6458 N 585.328 1.53329 -0.364422 0
M  V30 6459 C 586.238 2.29414 0.490552 0
M  V30 6460 C 587.254 1.35335 1.09363 0
M  V30 6461 O 588.43 1.68391 1.10483 0
M  V30 6462 C 585.495 3.06772 1.61529 0
M  V30 6463 C 584.556 4.16516 1.03986 0
M  V30 6464 C 583.789 4.90176 2.111 0
M  V30 6465 O 584.012 4.63687 3.32191 0
M  V30 6466 O 582.946 5.76134 1.74222 0
M  V30 6467 H 586.772 3.03428 -0.12856 0
M  V30 6468 H 584.357 1.48843 -0.128837 0
M  V30 6469 H 586.239 3.55082 2.26924 0
M  V30 6470 H 584.914 2.35596 2.21983 0
M  V30 6471 H 583.821 3.7246 0.349856 0
M  V30 6472 H 585.154 4.89855 0.4799 0
M  V30 6473 N 586.806 0.0935595 1.57322 0
M  V30 6474 C 588.053 -0.570509 1.94297 0
M  V30 6475 C 588.381 -1.68286 0.97519 0
M  V30 6476 O 587.636 -1.95699 -0.00548655 0
M  V30 6477 C 587.935 -1.16692 3.37813 0
M  V30 6478 C 587.601 -0.178509 4.50547 0
M  V30 6479 C 586.263 0.0933475 4.81109 0
M  V30 6480 C 588.615 0.496472 5.1883 0
M  V30 6481 C 585.943 1.0469 5.77284 0
M  V30 6482 C 588.295 1.43849 6.16028 0
M  V30 6483 C 586.959 1.71859 6.44997 0
M  V30 6484 H 586.229 -0.208764 0.710984 0
M  V30 6485 H 588.876 0.169066 1.90752 0
M  V30 6486 H 587.181 -1.98271 3.37929 0
M  V30 6487 H 588.878 -1.6884 3.63722 0
M  V30 6488 H 585.468 -0.400584 4.26724 0
M  V30 6489 H 589.652 0.299584 4.95395 0
M  V30 6490 H 584.908 1.27094 5.98044 0
M  V30 6491 H 589.082 1.96734 6.68034 0
M  V30 6492 H 586.709 2.45906 7.19329 0
M  V30 6493 N 588.284 -1.56567 -0.180126 0
M  V30 6494 C 589.53 -1.81761 -0.899497 0
M  V30 6495 C 589.863 -0.670015 -1.82276 0
M  V30 6496 O 589.138 0.328575 -1.91705 0
M  V30 6497 C 589.421 -3.17296 -1.7028 0
M  V30 6498 C 589.274 -4.4257 -0.803255 0
M  V30 6499 C 590.593 -3.49678 -2.67233 0
M  V30 6500 H 587.712 -0.661192 -0.325567 0
M  V30 6501 H 590.354 -1.89272 -0.16612 0
M  V30 6502 H 588.504 -3.11023 -2.32802 0
M  V30 6503 H 590.176 -4.60902 -0.191585 0
M  V30 6504 H 588.419 -4.33658 -0.110796 0
M  V30 6505 H 589.09 -5.33935 -1.40064 0
M  V30 6506 H 591.566 -3.56347 -2.14839 0
M  V30 6507 H 590.442 -4.45605 -3.20511 0
M  V30 6508 H 590.703 -2.73932 -3.47007 0
M  V30 6509 N 589.762 0.448376 -1.51087 0
M  V30 6510 C 590.672 1.56882 -1.74428 0
M  V30 6511 C 591.688 1.62268 -0.62809 0
M  V30 6512 O 592.864 1.79716 -0.909075 0
M  V30 6513 C 589.929 2.92947 -1.85426 0
M  V30 6514 C 588.99 2.97766 -3.09247 0
M  V30 6515 C 588.223 4.27341 -3.19711 0
M  V30 6516 O 588.446 5.19112 -2.36387 0
M  V30 6517 O 587.38 4.38219 -4.12611 0
M  V30 6518 H 591.206 1.40104 -2.69452 0
M  V30 6519 H 588.791 0.630247 -1.35456 0
M  V30 6520 H 590.673 3.73719 -1.94709 0
M  V30 6521 H 589.348 3.09876 -0.935887 0
M  V30 6522 H 588.255 2.15989 -3.0545 0
M  V30 6523 H 589.588 2.8578 -4.00738 0
M  V30 6524 N 591.24 1.41047 0.703093 0
M  V30 6525 C 592.489 1.39301 1.4587 0
M  V30 6526 C 592.802 0.00267077 1.956 0
M  V30 6527 O 594.008 -0.137414 2.71152 0
M  V30 6528 C 592.464 2.44891 2.63735 0
M  V30 6529 C 592.072 3.89796 2.20824 0
M  V30 6530 C 593.816 2.5227 3.41409 0
M  V30 6531 C 591.723 4.86955 3.35602 0
M  V30 6532 H 590.653 0.518005 0.547893 0
M  V30 6533 H 593.304 1.66839 0.764009 0
M  V30 6534 H 591.686 2.10472 3.35436 0
M  V30 6535 H 592.86 4.33424 1.56461 0
M  V30 6536 H 591.175 3.86008 1.56163 0
M  V30 6537 H 593.772 3.22044 4.26839 0
M  V30 6538 H 594.115 1.55714 3.86081 0
M  V30 6539 H 594.648 2.85742 2.7676 0
M  V30 6540 H 591.387 5.84888 2.9595 0
M  V30 6541 H 590.907 4.47982 3.98839 0
M  V30 6542 H 592.586 5.07361 4.01489 0
M  V30 6543 N 592.718 -0.936591 1.26751 0
M  V30 6544 C 593.943 -1.72288 1.15462 0
M  V30 6545 C 594.368 -1.85915 -0.285887 0
M  V30 6546 O 593.726 -1.35272 -1.20711 0
M  V30 6547 C 593.774 -3.10503 1.83359 0
M  V30 6548 O 592.878 -3.96745 1.1255 0
M  V30 6549 H 592.219 -0.52843 0.402067 0
M  V30 6550 H 594.749 -1.17271 1.67656 0
M  V30 6551 H 594.759 -3.60867 1.90365 0
M  V30 6552 H 593.434 -2.99901 2.88153 0
M  V30 6553 H 592.011 -3.55191 1.13551 0
M  V30 6554 N 594.196 -1.08629 -1.14182 0
M  V30 6555 C 595.159 -0.722027 -2.1753 0
M  V30 6556 C 596.159 0.244305 -1.58933 0
M  V30 6557 O 597.349 0.0235545 -1.74184 0
M  V30 6558 C 594.481 -0.0663966 -3.40835 0
M  V30 6559 H 595.674 -1.63719 -2.51269 0
M  V30 6560 H 593.227 -0.884442 -1.28869 0
M  V30 6561 H 593.962 0.860389 -3.12678 0
M  V30 6562 H 593.747 -0.761598 -3.84632 0
M  V30 6563 H 595.237 0.173346 -4.1724 0
M  V30 6564 N 595.674 1.31259 -0.872281 0
M  V30 6565 C 597.09 1.49283 -0.564521 0
M  V30 6566 C 597.29 1.80243 0.900807 0
M  V30 6567 O 596.346 1.88246 1.68284 0
M  V30 6568 C 597.659 2.62503 -1.46673 0
M  V30 6569 C 599.207 2.76386 -1.46901 0
M  V30 6570 C 599.682 3.92705 -2.35684 0
M  V30 6571 N 601.173 3.99995 -2.33577 0
M  V30 6572 C 601.908 4.89276 -2.98992 0
M  V30 6573 N 601.404 5.83443 -3.73585 0
M  V30 6574 N 603.197 4.82541 -2.88289 0
M  V30 6575 H 595.348 1.09432 -1.82039 0
M  V30 6576 H 597.611 0.540949 -0.77851 0
M  V30 6577 H 597.317 2.46407 -2.50951 0
M  V30 6578 H 597.191 3.58695 -1.16696 0
M  V30 6579 H 599.578 2.91894 -0.433796 0
M  V30 6580 H 599.659 1.80853 -1.80903 0
M  V30 6581 H 599.303 3.77954 -3.39283 0
M  V30 6582 H 599.233 4.87549 -1.99006 0
M  V30 6583 H 601.724 3.32624 -1.7936 0
M  V30 6584 H 602.037 6.48303 -4.20622 0
M  V30 6585 H 600.382 5.83415 -3.77694 0
M  V30 6586 H 603.573 4.07951 -2.2955 0
M  V30 6587 H 603.746 5.51916 -3.39549 0
M  V30 6588 N 597.152 0.631951 1.44375 0
M  V30 6589 C 598.084 -0.110911 2.28931 0
M  V30 6590 C 599.097 -0.808086 1.41329 0
M  V30 6591 O 600.286 -0.669396 1.65473 0
M  V30 6592 C 597.386 -1.17928 3.1772 0
M  V30 6593 C 596.559 -0.564458 4.33743 0
M  V30 6594 C 595.618 -1.5269 5.0356 0
M  V30 6595 O 594.644 -1.04372 5.59549 0
M  V30 6596 N 595.846 -2.86123 5.05088 0
M  V30 6597 H 598.611 0.614758 2.93327 0
M  V30 6598 H 596.172 0.473171 1.54831 0
M  V30 6599 H 598.164 -1.82348 3.61291 0
M  V30 6600 H 596.734 -1.80717 2.55069 0
M  V30 6601 H 595.954 0.258373 3.93352 0
M  V30 6602 H 597.242 -0.134355 5.08623 0
M  V30 6603 H 596.64 -3.27959 4.60933 0
M  V30 6604 H 595.197 -3.45901 5.52445 0
M  V30 6605 N 598.631 -1.53133 0.372548 0
M  V30 6606 C 599.859 -2.05774 -0.215515 0
M  V30 6607 C 600.274 -1.24555 -1.41886 0
M  V30 6608 O 599.631 -0.287951 -1.80214 0
M  V30 6609 C 599.682 -3.5645 -0.602161 0
M  V30 6610 O 599.403 -4.34591 0.553359 0
M  V30 6611 C 600.904 -4.25374 -1.24787 0
M  V30 6612 H 598.124 -0.670009 -0.0364529 0
M  V30 6613 H 600.668 -1.97434 0.532934 0
M  V30 6614 H 598.823 -3.64918 -1.30052 0
M  V30 6615 H 599.237 -5.23954 0.239336 0
M  V30 6616 H 600.711 -5.32097 -1.46891 0
M  V30 6617 H 601.188 -3.79531 -2.21026 0
M  V30 6618 H 601.794 -4.21177 -0.590752 0
M  V30 6619 N 600.109 -0.101901 -1.5727 0
M  V30 6620 C 601.386 0.602832 -1.86079 0
M  V30 6621 C 601.766 1.85912 -1 0
M  V30 6622 O 601.114 2.28379 -0.0742488 0
M  V30 6623 C 601.324 0.911694 -3.36881 0
M  V30 6624 C 602.672 1.2722 -4.05093 0
M  V30 6625 O 603.696 1.0025 -3.41802 0
M  V30 6626 O 602.555 1.7776 -5.16782 0
M  V30 6627 H 599.649 0.302366 -0.769743 0
M  V30 6628 H 602.195 -0.135113 -1.69161 0
M  V30 6629 H 600.967 0.0207256 -3.91295 0
M  V30 6630 H 600.59 1.70538 -3.59169 0
M  V30 6631 N 601.587 1.56661 0.17182 0
M  V30 6632 C 602.864 1.72838 0.915778 0
M  V30 6633 C 603.244 0.66316 2.00413 0
M  V30 6634 O 602.592 -0.322123 2.26218 0
M  V30 6635 C 602.802 3.16019 1.48097 0
M  V30 6636 C 604.15 3.76962 1.95408 0
M  V30 6637 O 605.174 3.19294 1.57892 0
M  V30 6638 O 604.033 4.78219 2.64516 0
M  V30 6639 H 601.127 0.705797 0.431021 0
M  V30 6640 H 603.673 1.68947 0.159689 0
M  V30 6641 H 602.445 3.85031 0.697618 0
M  V30 6642 H 602.068 3.24234 2.30126 0
M  V30 6643 N 603.065 -0.440357 1.51323 0
M  V30 6644 C 604.015 -1.53263 1.68803 0
M  V30 6645 C 604.999 -1.51494 0.542057 0
M  V30 6646 O 606.191 -1.57999 0.797839 0
M  V30 6647 C 603.32 -2.91479 1.8137 0
M  V30 6648 C 602.406 -2.98015 3.01742 0
M  V30 6649 N 602.797 -2.743 4.24962 0
M  V30 6650 C 601.095 -3.29173 3.00934 0
M  V30 6651 C 601.796 -2.86601 5.06197 0
M  V30 6652 N 600.772 -3.1814 4.40781 0
M  V30 6653 H 604.574 -1.33675 2.61741 0
M  V30 6654 H 602.088 -0.647616 1.48929 0
M  V30 6655 H 604.085 -3.70055 1.92002 0
M  V30 6656 H 602.745 -3.12089 0.896117 0
M  V30 6657 H 603.756 -2.49287 4.53957 0
M  V30 6658 H 600.433 -3.55577 2.18796 0
M  V30 6659 H 601.823 -2.72246 6.14274 0
M  V30 6660 N 604.543 -1.41418 -0.695603 0
M  V30 6661 C 605.473 -1.46035 -1.82197 0
M  V30 6662 C 606.454 -0.319025 -1.67082 0
M  V30 6663 O 607.639 -0.530462 -1.86815 0
M  V30 6664 C 604.769 -1.34179 -3.20333 0
M  V30 6665 C 603.723 -2.46123 -3.50154 0
M  V30 6666 C 603.049 -2.19332 -4.87645 0
M  V30 6667 C 604.349 -3.88463 -3.49133 0
M  V30 6668 H 606.043 -2.40303 -1.78591 0
M  V30 6669 H 603.589 -1.15663 -0.857797 0
M  V30 6670 H 605.542 -1.36021 -3.98844 0
M  V30 6671 H 604.266 -0.363952 -3.24566 0
M  V30 6672 H 602.925 -2.43563 -2.73994 0
M  V30 6673 H 602.573 -1.19891 -4.88503 0
M  V30 6674 H 602.273 -2.94344 -5.08562 0
M  V30 6675 H 603.797 -2.22889 -5.68465 0
M  V30 6676 H 605.211 -3.92738 -4.17648 0
M  V30 6677 H 603.608 -4.63158 -3.81582 0
M  V30 6678 H 604.678 -4.16617 -2.48109 0
M  V30 6679 N 606.021 0.929856 -1.27246 0
M  V30 6680 C 606.971 2.01629 -1.06442 0
M  V30 6681 C 607.955 1.60899 0.00687842 0
M  V30 6682 O 609.147 1.75733 -0.211407 0
M  V30 6683 C 606.276 3.35849 -0.711361 0
M  V30 6684 C 605.362 3.8303 -1.82069 0
M  V30 6685 N 605.753 4.02743 -3.05993 0
M  V30 6686 C 604.051 4.12046 -1.70687 0
M  V30 6687 C 604.752 4.42001 -3.78167 0
M  V30 6688 N 603.728 4.4935 -3.05918 0
M  V30 6689 H 607.53 2.14898 -2.00489 0
M  V30 6690 H 605.044 1.11654 -1.17929 0
M  V30 6691 H 607.041 4.13343 -0.543442 0
M  V30 6692 H 605.701 3.23944 0.221517 0
M  V30 6693 H 606.712 3.89112 -3.41778 0
M  V30 6694 H 603.389 4.08866 -0.844681 0
M  V30 6695 H 604.779 4.6535 -4.84664 0
M  V30 6696 N 607.499 1.09233 1.13605 0
M  V30 6697 C 608.748 0.82205 1.84188 0
M  V30 6698 C 609.061 -0.654548 1.84323 0
M  V30 6699 O 610.267 -1.04029 2.50779 0
M  V30 6700 C 608.723 1.42066 3.30674 0
M  V30 6701 C 608.331 2.92965 3.38933 0
M  V30 6702 C 610.075 1.22924 4.06313 0
M  V30 6703 C 607.982 3.45922 4.79679 0
M  V30 6704 H 606.912 0.303854 0.690064 0
M  V30 6705 H 609.563 1.31479 1.28006 0
M  V30 6706 H 607.945 0.855613 3.86646 0
M  V30 6707 H 609.119 3.55679 2.92966 0
M  V30 6708 H 607.434 3.11118 2.76757 0
M  V30 6709 H 610.031 1.59945 5.10217 0
M  V30 6710 H 610.374 0.169726 4.15954 0
M  V30 6711 H 610.907 1.76168 3.56665 0
M  V30 6712 H 607.646 4.51484 4.75229 0
M  V30 6713 H 607.166 2.87971 5.26149 0
M  V30 6714 H 608.845 3.43009 5.48592 0
M  V30 6715 N 608.977 -1.30795 0.87923 0
M  V30 6716 C 610.224 -1.96362 0.494786 0
M  V30 6717 C 610.552 -1.69448 -0.954868 0
M  V30 6718 O 609.807 -0.988711 -1.68888 0
M  V30 6719 C 610.106 -3.50287 0.709476 0
M  V30 6720 C 609.772 -3.9724 2.13333 0
M  V30 6721 C 608.434 -4.09772 2.52271 0
M  V30 6722 C 610.786 -4.21807 3.06151 0
M  V30 6723 C 608.114 -4.44227 3.83248 0
M  V30 6724 C 610.466 -4.5773 4.36654 0
M  V30 6725 C 609.13 -4.68469 4.75492 0
M  V30 6726 H 608.4 -0.71854 0.181055 0
M  V30 6727 H 611.047 -1.55764 1.11399 0
M  V30 6728 H 609.352 -3.91799 0.0072 0
M  V30 6729 H 611.049 -3.99082 0.391703 0
M  V30 6730 H 607.639 -3.87988 1.82107 0
M  V30 6731 H 611.823 -4.11611 2.77291 0
M  V30 6732 H 607.079 -4.50741 4.13089 0
M  V30 6733 H 611.253 -4.7569 5.08617 0
M  V30 6734 H 608.88 -4.94923 5.77022 0
M  V30 6735 N 610.455 -0.639598 -1.44038 0
M  V30 6736 C 611.701 -0.147698 -2.02261 0
M  V30 6737 C 612.034 1.23031 -1.50256 0
M  V30 6738 O 611.309 1.81847 -0.690068 0
M  V30 6739 C 611.592 -0.14362 -3.59813 0
M  V30 6740 C 611.445 -1.55458 -4.22082 0
M  V30 6741 C 612.764 0.527317 -4.36929 0
M  V30 6742 H 609.883 -0.0551453 -0.734934 0
M  V30 6743 H 612.525 -0.817688 -1.71505 0
M  V30 6744 H 610.675 0.426898 -3.86147 0
M  V30 6745 H 612.347 -2.17464 -4.06826 0
M  V30 6746 H 610.59 -2.10594 -3.79253 0
M  V30 6747 H 611.261 -1.50369 -5.31124 0
M  V30 6748 H 613.737 0.0420504 -4.16079 0
M  V30 6749 H 612.613 0.499389 -5.46624 0
M  V30 6750 H 612.874 1.59914 -4.12165 0
M  V30 6751 N 611.933 1.52934 -0.380664 0
M  V30 6752 C 612.843 2.29921 0.466192 0
M  V30 6753 C 613.859 1.36488 1.07922 0
M  V30 6754 O 615.035 1.69553 1.0869 0
M  V30 6755 C 612.1 3.08468 1.58266 0
M  V30 6756 C 611.161 4.17595 0.995627 0
M  V30 6757 C 610.394 4.92387 2.05889 0
M  V30 6758 O 610.617 4.67184 3.27254 0
M  V30 6759 O 609.551 5.77949 1.68102 0
M  V30 6760 H 613.377 3.03274 -0.160735 0
M  V30 6761 H 610.962 1.48698 -0.144617 0
M  V30 6762 H 612.844 3.57469 2.23145 0
M  V30 6763 H 611.519 2.37937 2.19471 0
M  V30 6764 H 610.426 3.72811 0.310332 0
M  V30 6765 H 611.759 4.90336 0.427918 0
M  V30 6766 N 613.412 0.11024 1.57214 0
M  V30 6767 C 614.689 -0.592956 1.86396 0
M  V30 6768 C 615.069 -1.85379 1.00985 0
M  V30 6769 O 614.417 -2.28337 0.0863592 0
M  V30 6770 C 614.627 -0.893816 3.3736 0
M  V30 6771 C 615.975 -1.25069 4.05762 0
M  V30 6772 O 616.999 -0.984356 3.42329 0
M  V30 6773 O 615.858 -1.75017 5.17718 0
M  V30 6774 H 612.952 -0.29828 0.771335 0
M  V30 6775 H 615.498 0.144083 1.69087 0
M  V30 6776 H 614.27 2.6031e-05 3.913 0
M  V30 6777 H 613.893 -1.68631 3.60068 0
M  V30 6778 N 614.89 -1.56749 -0.16351 0
M  V30 6779 C 616.167 -1.73321 -0.906599 0
M  V30 6780 C 616.547 -0.673779 -2.00059 0
M  V30 6781 O 615.895 0.310121 -2.26386 0
M  V30 6782 C 616.105 -3.168 -1.46419 0
M  V30 6783 C 617.453 -3.77993 -1.93407 0
M  V30 6784 O 618.477 -3.20127 -1.56196 0
M  V30 6785 O 617.336 -4.79615 -2.61976 0
M  V30 6786 H 614.43 -0.708073 -0.427272 0
M  V30 6787 H 616.976 -1.69029 -0.150727 0
M  V30 6788 H 615.748 -3.85396 -0.677189 0
M  V30 6789 H 615.371 -3.2545 -2.28403 0
M  V30 6790 N 616.368 0.432326 -1.51554 0
M  V30 6791 C 617.616 1.17901 -1.64146 0
M  V30 6792 C 617.937 1.91604 -0.362367 0
M  V30 6793 O 617.207 1.85764 0.621968 0
M  V30 6794 H 615.787 0.438206 -0.604966 0
M  V30 6795 H 618.449 0.495172 -1.88505 0
M  V30 6796 H 617.545 1.90584 -2.47152 0
M  V30 6797 N 617.846 1.41785 0.688094 0
M  V30 6798 C 619.257 1.3701 1.26828 0
M  V30 6799 C 619.608 0.056835 1.96118 0
M  V30 6800 O 618.733 -0.84475 1.99231 0
M  V30 6801 C 619.328 2.48168 2.30648 0
M  V30 6802 C 617.887 2.46766 2.84224 0
M  V30 6803 C 617.034 2.27633 1.58361 0
M  V30 6804 H 619.985 1.51192 0.482351 0
M  V30 6805 H 620.006 2.17655 3.121 0
M  V30 6806 H 619.518 3.43735 1.80188 0
M  V30 6807 H 617.619 1.54978 3.3884 0
M  V30 6808 H 617.732 3.43342 3.34145 0
M  V30 6809 H 616.096 1.75648 1.84445 0
M  V30 6810 H 616.879 3.25238 1.09887 0
M  V30 6811 N 619.324 -0.923095 1.27737 0
M  V30 6812 C 620.572 -1.66797 1.14119 0
M  V30 6813 C 620.893 -1.92479 -0.312541 0
M  V30 6814 O 620.163 -1.53432 -1.218 0
M  V30 6815 H 618.743 -0.618196 0.419336 0
M  V30 6816 H 621.405 -1.10815 1.60331 0
M  V30 6817 H 620.501 -2.63424 1.67374 0
M  V30 6818 N 620.802 -1.09834 -1.13024 0
M  V30 6819 C 622.051 -0.831806 -1.83749 0
M  V30 6820 C 622.364 0.644763 -1.84668 0
M  V30 6821 O 623.57 1.02697 -2.51327 0
M  V30 6822 C 622.026 -1.43817 -3.29916 0
M  V30 6823 C 621.634 -2.94759 -3.37374 0
M  V30 6824 C 623.378 -1.25077 -4.05655 0
M  V30 6825 C 621.285 -3.48461 -4.77838 0
M  V30 6826 H 620.215 -0.30751 -0.688443 0
M  V30 6827 H 622.866 -1.32156 -1.27307 0
M  V30 6828 H 621.248 -0.876106 -3.86187 0
M  V30 6829 H 622.422 -3.57228 -2.91076 0
M  V30 6830 H 620.737 -3.12581 -2.75103 0
M  V30 6831 H 623.334 -1.62649 -5.09362 0
M  V30 6832 H 623.677 -0.191782 -4.15858 0
M  V30 6833 H 624.21 -1.78057 -3.55725 0
M  V30 6834 H 620.949 -4.53998 -4.72828 0
M  V30 6835 H 620.469 -2.90757 -5.24615 0
M  V30 6836 H 622.148 -3.45914 -5.46766 0
M  V30 6837 N 622.28 1.30327 -0.886154 0
M  V30 6838 C 623.691 1.78243 -0.555554 0
M  V30 6839 C 624.042 1.72849 0.928314 0
M  V30 6840 O 623.167 1.30607 1.72542 0
M  V30 6841 C 623.762 3.23654 -1.00168 0
M  V30 6842 C 622.321 3.69401 -0.722471 0
M  V30 6843 C 621.468 2.50753 -1.18399 0
M  V30 6844 H 624.419 1.1718 -1.07026 0
M  V30 6845 H 624.44 3.79056 -0.331152 0
M  V30 6846 H 623.952 3.27548 -2.08169 0
M  V30 6847 H 622.053 3.70995 0.345496 0
M  V30 6848 H 622.166 4.60818 -1.31085 0
M  V30 6849 H 620.53 2.47452 -0.603303 0
M  V30 6850 H 621.313 2.57383 -2.27176 0
M  V30 6851 N 623.758 0.647228 1.43697 0
M  V30 6852 C 624.708 -0.0702191 2.27892 0
M  V30 6853 C 625.692 -0.800601 1.39568 0
M  V30 6854 O 626.884 -0.684055 1.63247 0
M  V30 6855 C 624.013 -1.04008 3.27165 0
M  V30 6856 C 623.099 -0.308484 4.22977 0
M  V30 6857 N 623.49 0.671721 5.0132 0
M  V30 6858 C 621.788 -0.550751 4.42586 0
M  V30 6859 C 622.489 1.10543 5.711 0
M  V30 6860 N 621.465 0.440903 5.41809 0
M  V30 6861 H 625.267 0.682031 2.85877 0
M  V30 6862 H 622.781 0.474022 1.55328 0
M  V30 6863 H 624.778 -1.56881 3.86256 0
M  V30 6864 H 623.438 -1.79246 2.70742 0
M  V30 6865 H 624.449 1.0502 5.0714 0
M  V30 6866 H 621.126 -1.28476 3.97241 0
M  V30 6867 H 622.516 1.91614 6.43998 0
M  V30 6868 N 625.236 -1.5273 0.388769 0
M  V30 6869 C 626.461 -2.0647 -0.19621 0
M  V30 6870 C 626.886 -1.25865 -1.39784 0
M  V30 6871 O 626.244 -0.283562 -1.79069 0
M  V30 6872 C 626.292 -3.56456 -0.5451 0
M  V30 6873 O 625.396 -3.78426 -1.63912 0
M  V30 6874 H 624.737 -0.663599 -0.023067 0
M  V30 6875 H 627.267 -1.96898 0.556084 0
M  V30 6876 H 627.277 -3.99888 -0.809557 0
M  V30 6877 H 625.952 -4.14561 0.333417 0
M  V30 6878 H 624.529 -3.46884 -1.36842 0
M  V30 6879 N 626.714 -0.118576 -1.57153 0
M  V30 6880 C 627.661 0.831789 -2.1529 0
M  V30 6881 C 628.631 1.26385 -1.07778 0
M  V30 6882 O 629.816 1.34144 -1.35684 0
M  V30 6883 C 626.956 2.07664 -2.75626 0
M  V30 6884 C 626.069 1.69298 -3.97444 0
M  V30 6885 C 625.204 2.88747 -4.45868 0
M  V30 6886 C 624.243 2.46619 -5.60219 0
M  V30 6887 N 623.38 3.5898 -6.03389 0
M  V30 6888 H 628.22 0.329183 -2.96176 0
M  V30 6889 H 625.757 0.150792 -1.46325 0
M  V30 6890 H 627.715 2.80601 -3.08738 0
M  V30 6891 H 626.345 2.55384 -1.97431 0
M  V30 6892 H 625.397 0.862374 -3.70496 0
M  V30 6893 H 626.709 1.34338 -4.80369 0
M  V30 6894 H 625.863 3.69909 -4.80887 0
M  V30 6895 H 624.602 3.26933 -3.61892 0
M  V30 6896 H 623.607 1.63889 -5.24805 0
M  V30 6897 H 624.832 2.0955 -6.45961 0
M  V30 6898 H 622.778 3.9684 -5.22354 0
M  V30 6899 H 622.695 3.27942 -6.81168 0
M  V30 6900 H 623.963 4.40583 -6.43045 0
M  V30 6901 N 628.193 1.56834 0.155195 0
M  V30 6902 C 629.609 1.51315 0.50755 0
M  V30 6903 C 629.809 0.825614 1.83809 0
M  V30 6904 O 628.865 0.39271 2.49427 0
M  V30 6905 C 630.178 2.96074 0.52542 0
M  V30 6906 C 631.726 3.06968 0.611505 0
M  V30 6907 C 632.201 4.53218 0.660115 0
M  V30 6908 N 633.692 4.5753 0.722564 0
M  V30 6909 C 634.427 5.68056 0.781023 0
M  V30 6910 N 633.923 6.88173 0.799327 0
M  V30 6911 N 635.716 5.56068 0.821278 0
M  V30 6912 H 627.867 1.9993 -0.717063 0
M  V30 6913 H 630.13 0.911507 -0.260496 0
M  V30 6914 H 629.836 3.49599 -0.383875 0
M  V30 6915 H 629.71 3.51587 1.36624 0
M  V30 6916 H 632.097 2.53468 1.51122 0
M  V30 6917 H 632.178 2.54513 -0.256306 0
M  V30 6918 H 631.822 5.07354 -0.23541 0
M  V30 6919 H 631.752 5.03447 1.5443 0
M  V30 6920 H 634.243 3.71054 0.716049 0
M  V30 6921 H 634.556 7.6816 0.845553 0
M  V30 6922 H 632.901 6.90751 0.767337 0
M  V30 6923 H 636.092 4.61142 0.804091 0
M  V30 6924 H 636.265 6.42223 0.863372 0
M  V30 6925 N 629.671 -0.424282 1.51781 0
M  V30 6926 C 630.896 -1.19928 1.6921 0
M  V30 6927 C 631.321 -1.8392 0.394355 0
M  V30 6928 O 630.679 -1.69371 -0.646778 0
M  V30 6929 C 630.727 -2.24937 2.81843 0
M  V30 6930 O 629.831 -3.3073 2.46356 0
M  V30 6931 H 629.172 -0.35078 0.563781 0
M  V30 6932 H 631.702 -0.499401 1.98412 0
M  V30 6933 H 631.712 -2.69512 3.06312 0
M  V30 6934 H 630.387 -1.77742 3.76006 0
M  V30 6935 H 628.964 -2.9154 2.32505 0
M  V30 6936 N 631.149 -1.42148 -0.680565 0
M  V30 6937 C 632.079 -1.4796 -1.80638 0
M  V30 6938 C 633.06 -0.336728 -1.66734 0
M  V30 6939 O 634.245 -0.550247 -1.86242 0
M  V30 6940 C 631.375 -1.37569 -3.18892 0
M  V30 6941 C 630.329 -2.49823 -3.47524 0
M  V30 6942 C 629.655 -2.24491 -4.85291 0
M  V30 6943 C 630.955 -3.92144 -3.44994 0
M  V30 6944 H 632.649 -2.42184 -1.76032 0
M  V30 6945 H 630.195 -1.16566 -0.845481 0
M  V30 6946 H 632.148 -1.40243 -3.97379 0
M  V30 6947 H 630.872 -0.398357 -3.24162 0
M  V30 6948 H 629.531 -2.46455 -2.71395 0
M  V30 6949 H 629.179 -1.25066 -4.87204 0
M  V30 6950 H 628.879 -2.99722 -5.05411 0
M  V30 6951 H 630.403 -2.28906 -5.66069 0
M  V30 6952 H 631.817 -3.97145 -4.13459 0
M  V30 6953 H 630.214 -4.67179 -3.76648 0
M  V30 6954 H 631.284 -4.19225 -2.43676 0
M  V30 6955 N 632.627 0.916307 -1.28225 0
M  V30 6956 C 633.873 1.66765 -1.154 0
M  V30 6957 C 634.206 1.91912 0.297251 0
M  V30 6958 O 633.481 1.51766 1.21644 0
M  V30 6959 C 633.764 3.02715 -1.95028 0
M  V30 6960 C 633.617 2.84738 -3.48201 0
M  V30 6961 C 634.936 4.03215 -1.76369 0
M  V30 6962 H 632.055 0.605205 -0.42059 0
M  V30 6963 H 634.697 1.06255 -1.57512 0
M  V30 6964 H 632.847 3.54365 -1.59242 0
M  V30 6965 H 634.519 2.40118 -3.9388 0
M  V30 6966 H 632.762 2.19848 -3.73964 0
M  V30 6967 H 633.433 3.8127 -3.99171 0
M  V30 6968 H 635.909 3.60617 -2.07593 0
M  V30 6969 H 634.785 4.96306 -2.34459 0
M  V30 6970 H 635.046 4.36288 -0.71452 0
M  V30 6971 N 634.105 1.10431 1.1244 0
M  V30 6972 C 635.352 0.846717 1.83948 0
M  V30 6973 C 635.68 -0.627709 1.84093 0
M  V30 6974 O 634.935 -1.47876 1.28184 0
M  V30 6975 C 635.234 1.34022 3.3132 0
M  V30 6976 C 634.9 2.82606 3.51347 0
M  V30 6977 C 633.562 3.23182 3.56521 0
M  V30 6978 C 635.914 3.78356 3.58464 0
M  V30 6979 C 633.242 4.58258 3.66356 0
M  V30 6980 C 635.594 5.13234 3.69829 0
M  V30 6981 C 634.258 5.53384 3.73259 0
M  V30 6982 H 633.528 0.309836 0.673114 0
M  V30 6983 H 636.175 1.38091 1.32677 0
M  V30 6984 H 634.48 0.726047 3.85014 0
M  V30 6985 H 636.177 1.11739 3.85118 0
M  V30 6986 H 632.767 2.50212 3.47983 0
M  V30 6987 H 636.951 3.48115 3.53737 0
M  V30 6988 H 632.207 4.88787 3.67284 0
M  V30 6989 H 636.381 5.87272 3.74279 0
M  V30 6990 H 634.008 6.58045 3.80633 0
M  V30 6991 N 635.583 -1.29855 0.893053 0
M  V30 6992 C 636.86 -1.90694 0.435336 0
M  V30 6993 C 637.24 -1.8111 -1.08454 0
M  V30 6994 O 636.588 -1.23352 -1.92345 0
M  V30 6995 C 636.798 -3.36033 0.942472 0
M  V30 6996 C 638.146 -4.13083 0.982226 0
M  V30 6997 O 639.17 -3.4491 0.889686 0
M  V30 6998 O 638.029 -5.34896 1.12022 0
M  V30 6999 H 635.123 -0.815978 0.134567 0
M  V30 7000 H 637.669 -1.38367 0.982484 0
M  V30 7001 H 636.441 -3.37132 1.9864 0
M  V30 7002 H 636.064 -3.95828 0.374952 0
M  V30 7003 N 637.061 -0.65484 -1.43351 0
M  V30 7004 C 638.477 -0.32255 -1.56307 0
M  V30 7005 C 638.677 1.17324 -1.63821 0
M  V30 7006 O 637.733 1.95813 -1.59417 0
M  V30 7007 C 639.046 -1.03533 -2.82314 0
M  V30 7008 C 640.594 -1.01574 -2.9606 0
M  V30 7009 C 641.069 -1.70945 -4.24902 0
M  V30 7010 N 642.56 -1.67716 -4.3177 0
M  V30 7011 C 643.295 -2.18265 -5.30234 0
M  V30 7012 N 642.791 -2.7711 -6.34966 0
M  V30 7013 N 644.584 -2.08756 -5.21898 0
M  V30 7014 H 636.735 -1.62549 -1.36717 0
M  V30 7015 H 638.998 -0.683676 -0.656727 0
M  V30 7016 H 638.704 -2.09045 -2.8283 0
M  V30 7017 H 638.578 -0.587913 -3.7259 0
M  V30 7018 H 640.965 0.0309834 -2.95084 0
M  V30 7019 H 641.046 -1.50186 -2.07069 0
M  V30 7020 H 640.69 -2.75574 -4.26639 0
M  V30 7021 H 640.62 -1.19797 -5.12793 0
M  V30 7022 H 643.111 -1.24777 -3.56706 0
M  V30 7023 H 643.424 -3.13353 -7.06421 0
M  V30 7024 H 641.769 -2.81171 -6.35585 0
M  V30 7025 H 644.96 -1.62488 -4.38994 0
M  V30 7026 H 645.133 -2.48459 -5.98475 0
M  V30 7027 N 638.539 1.52521 -0.396863 0
M  V30 7028 C 639.787 2.01274 0.182536 0
M  V30 7029 C 640.108 1.28485 1.46685 0
M  V30 7030 O 639.378 0.407134 1.91623 0
M  V30 7031 H 637.958 0.743671 0.0704442 0
M  V30 7032 H 640.62 1.87547 -0.530289 0
M  V30 7033 H 639.716 3.09687 0.387385 0
M  V30 7034 N 640.017 0.126909 1.57088 0
M  V30 7035 C 640.949 -0.850973 2.12817 0
M  V30 7036 C 641.962 -1.22457 1.07276 0
M  V30 7037 O 643.151 -1.17215 1.34622 0
M  V30 7038 C 640.251 -2.15039 2.61938 0
M  V30 7039 C 639.424 -1.94726 3.91664 0
M  V30 7040 C 638.483 -3.0847 4.26301 0
M  V30 7041 O 637.509 -2.81038 4.94981 0
M  V30 7042 N 638.711 -4.35116 3.84259 0
M  V30 7043 H 641.476 -0.3748 2.97347 0
M  V30 7044 H 639.037 -0.0572793 1.61799 0
M  V30 7045 H 641.029 -2.90141 2.82135 0
M  V30 7046 H 639.599 -2.5398 1.82244 0
M  V30 7047 H 638.819 -1.03772 3.80296 0
M  V30 7048 H 640.107 -1.78469 4.76473 0
M  V30 7049 H 639.505 -4.60276 3.2888 0
M  V30 7050 H 638.062 -5.07064 4.09548 0
M  V30 7051 N 641.495 -1.56914 -0.146875 0
M  V30 7052 C 642.911 -1.51582 -0.499518 0
M  V30 7053 C 643.111 -0.83535 -1.83369 0
M  V30 7054 O 642.167 -0.405932 -2.49216 0
M  V30 7055 C 643.48 -2.96349 -0.509711 0
M  V30 7056 C 645.028 -3.07288 -0.595217 0
M  V30 7057 C 645.503 -4.53562 -0.636071 0
M  V30 7058 N 646.994 -4.57906 -0.69829 0
M  V30 7059 C 647.729 -5.68462 -0.750886 0
M  V30 7060 N 647.225 -6.88588 -0.76282 0
M  V30 7061 N 649.018 -5.56496 -0.791777 0
M  V30 7062 H 641.169 -1.99547 0.727656 0
M  V30 7063 H 643.432 -0.910113 0.265327 0
M  V30 7064 H 643.138 -3.4939 0.402409 0
M  V30 7065 H 643.012 -3.52307 -1.34758 0
M  V30 7066 H 645.399 -2.54266 -1.49776 0
M  V30 7067 H 645.48 -2.54373 0.2698 0
M  V30 7068 H 645.124 -5.07222 0.262313 0
M  V30 7069 H 645.054 -5.04259 -1.51758 0
M  V30 7070 H 647.545 -3.71429 -0.696362 0
M  V30 7071 H 647.858 -7.68598 -0.804804 0
M  V30 7072 H 646.203 -6.91148 -0.730694 0
M  V30 7073 H 649.394 -4.61562 -0.779624 0
M  V30 7074 H 649.567 -6.42671 -0.829301 0
M  V30 7075 N 642.974 0.416227 -1.52004 0
M  V30 7076 C 643.937 1.48926 -1.74223 0
M  V30 7077 C 644.937 1.48693 -0.612119 0
M  V30 7078 O 646.127 1.50343 -0.879921 0
M  V30 7079 C 643.259 2.88372 -1.81809 0
M  V30 7080 H 644.452 1.3052 -2.70008 0
M  V30 7081 H 642.005 0.646271 -1.42313 0
M  V30 7082 H 642.74 3.12157 -0.879135 0
M  V30 7083 H 642.525 2.89944 -2.6396 0
M  V30 7084 H 644.015 3.66173 -2.00766 0
M  V30 7085 N 644.452 1.42507 0.673017 0
M  V30 7086 C 645.729 1.33554 1.42908 0
M  V30 7087 C 646.109 -0.0262211 2.11084 0
M  V30 7088 O 645.457 -1.04181 2.03368 0
M  V30 7089 C 645.667 2.50498 2.43006 0
M  V30 7090 C 647.015 2.92694 3.07596 0
M  V30 7091 O 648.039 2.50401 2.53333 0
M  V30 7092 O 646.898 3.65899 4.05931 0
M  V30 7093 H 643.992 0.526785 0.637516 0
M  V30 7094 H 646.538 1.54518 0.701591 0
M  V30 7095 H 645.31 3.41272 1.9144 0
M  V30 7096 H 644.933 2.3153 3.23233 0
M  V30 7097 N 645.93 -0.909495 1.28709 0
M  V30 7098 C 647.158 -1.69272 1.18973 0
M  V30 7099 C 647.573 -1.87123 -0.251048 0
M  V30 7100 O 646.93 -1.40127 -1.16922 0
M  V30 7101 C 646.981 -3.08257 1.88839 0
M  V30 7102 O 646.702 -2.91228 3.27289 0
M  V30 7103 C 648.203 -4.02642 1.85457 0
M  V30 7104 H 645.423 -0.528999 0.412797 0
M  V30 7105 H 647.967 -1.13803 1.69909 0
M  V30 7106 H 646.122 -3.6053 1.41762 0
M  V30 7107 H 646.536 -3.79223 3.6234 0
M  V30 7108 H 648.01 -4.97613 2.38925 0
M  V30 7109 H 648.487 -4.31327 0.827893 0
M  V30 7110 H 649.093 -3.56298 2.32233 0
M  V30 7111 N 647.408 -1.11026 -1.11852 0
M  V30 7112 C 648.338 -0.786812 -2.19844 0
M  V30 7113 C 649.319 0.242935 -1.68356 0
M  V30 7114 O 650.504 0.107355 -1.93903 0
M  V30 7115 C 647.634 -0.224516 -3.46574 0
M  V30 7116 C 646.588 -1.18564 -4.1125 0
M  V30 7117 C 645.914 -0.484261 -5.32503 0
M  V30 7118 C 647.214 -2.53465 -4.56676 0
M  V30 7119 H 648.908 -1.68978 -2.47158 0
M  V30 7120 H 646.454 -0.813906 -1.18792 0
M  V30 7121 H 648.407 0.0139435 -4.21398 0
M  V30 7122 H 647.131 0.713722 -3.18706 0
M  V30 7123 H 645.79 -1.40966 -3.38414 0
M  V30 7124 H 645.438 0.458646 -5.00905 0
M  V30 7125 H 645.138 -1.12526 -5.76725 0
M  V30 7126 H 646.662 -0.254492 -6.10069 0
M  V30 7127 H 648.076 -2.35177 -5.22843 0
M  V30 7128 H 646.473 -3.13507 -5.11697 0
M  V30 7129 H 647.543 -3.13008 -3.70343 0
M  V30 7130 N 648.886 1.2938 -0.899927 0
M  V30 7131 C 650.302 1.48052 -0.596059 0
M  V30 7132 C 650.502 1.82114 0.862372 0
M  V30 7133 O 649.558 1.91774 1.64253 0
M  V30 7134 C 650.871 2.59332 -1.52208 0
M  V30 7135 C 652.419 2.73208 -1.5273 0
M  V30 7136 C 652.894 3.87617 -2.43961 0
M  V30 7137 N 654.385 3.9495 -2.42009 0
M  V30 7138 C 655.12 4.82824 -3.09303 0
M  V30 7139 N 654.616 5.75387 -3.85877 0
M  V30 7140 N 656.409 4.76317 -2.98459 0
M  V30 7141 H 648.56 1.05546 -1.8432 0
M  V30 7142 H 650.823 0.524314 -0.78981 0
M  V30 7143 H 650.529 2.41029 -2.56121 0
M  V30 7144 H 650.403 3.56139 -1.24278 0
M  V30 7145 H 652.79 2.90908 -0.495614 0
M  V30 7146 H 652.871 1.76975 -1.84698 0
M  V30 7147 H 652.515 3.70672 -3.47224 0
M  V30 7148 H 652.445 4.83218 -2.09303 0
M  V30 7149 H 654.936 3.28744 -1.86375 0
M  V30 7150 H 655.249 6.39235 -4.34279 0
M  V30 7151 H 653.594 5.75272 -3.89984 0
M  V30 7152 H 656.785 4.0299 -2.38152 0
M  V30 7153 H 656.958 5.44589 -3.51179 0
M  V30 7154 N 650.364 0.662433 1.43002 0
M  V30 7155 C 651.775 0.258315 1.84904 0
M  V30 7156 C 652.126 -1.19703 1.55453 0
M  V30 7157 O 651.251 -1.91484 1.00811 0
M  V30 7158 C 651.846 0.462047 3.35635 0
M  V30 7159 C 650.405 0.112165 3.76233 0
M  V30 7160 C 649.552 0.760479 2.66668 0
M  V30 7161 H 652.503 0.865467 1.33024 0
M  V30 7162 H 652.524 -0.289646 3.79396 0
M  V30 7163 H 652.036 1.52135 3.57039 0
M  V30 7164 H 650.137 -0.944179 3.60439 0
M  V30 7165 H 650.25 0.544058 4.76001 0
M  V30 7166 H 648.614 0.192887 2.53969 0
M  V30 7167 H 649.397 1.82299 2.90898 0
M  V30 7168 N 651.842 -1.52309 0.404946 0
M  V30 7169 C 653.09 -2.01368 -0.17186 0
M  V30 7170 C 653.411 -1.29261 -1.46002 0
M  V30 7171 O 652.681 -0.41729 -1.91404 0
M  V30 7172 H 651.261 -0.744034 -0.0664993 0
M  V30 7173 H 653.923 -1.87263 0.540228 0
M  V30 7174 H 653.019 -3.09888 -0.370957 0
M  V30 7175 N 653.32 -0.135238 -1.57019 0
M  V30 7176 C 654.252 0.839675 -2.13265 0
M  V30 7177 C 655.265 1.21887 -1.07923 0
M  V30 7178 O 656.454 1.16499 -1.35241 0
M  V30 7179 C 653.554 2.13647 -2.63075 0
M  V30 7180 C 652.727 1.92646 -3.92691 0
M  V30 7181 C 651.786 3.06205 -4.27931 0
M  V30 7182 O 650.812 2.78409 -4.96465 0
M  V30 7183 N 652.014 4.33072 -3.86561 0
M  V30 7184 H 654.779 0.359026 -2.97542 0
M  V30 7185 H 652.34 0.0486979 -1.61827 0
M  V30 7186 H 654.332 2.88641 -2.8367 0
M  V30 7187 H 652.902 2.5301 -1.83588 0
M  V30 7188 H 652.122 1.01754 -3.80841 0
M  V30 7189 H 653.41 1.75939 -4.77413 0
M  V30 7190 H 652.808 4.58526 -3.31316 0
M  V30 7191 H 651.365 5.04885 -4.12231 0
M  V30 7192 N 654.798 1.5699 0.138552 0
M  V30 7193 C 656.046 1.83446 0.848053 0
M  V30 7194 C 656.367 0.71744 1.81322 0
M  V30 7195 O 655.637 -0.260228 1.94164 0
M  V30 7196 H 654.217 0.676792 0.316166 0
M  V30 7197 H 656.879 1.94462 0.130538 0
M  V30 7198 H 655.975 2.78677 1.40518 0
M  V30 7199 N 656.276 -0.40816 1.52223 0
M  V30 7200 C 657.522 -1.15673 1.66576 0
M  V30 7201 C 657.855 -1.90141 0.394996 0
M  V30 7202 O 657.13 -1.84798 -0.606613 0
M  V30 7203 C 657.413 -2.15042 2.88841 0
M  V30 7204 C 657.266 -1.44465 4.25969 0
M  V30 7205 C 658.585 -3.15699 3.0663 0
M  V30 7206 H 655.704 -0.41916 0.606196 0
M  V30 7207 H 658.346 -0.442348 1.84779 0
M  V30 7208 H 656.496 -2.75964 2.73452 0
M  V30 7209 H 658.168 -0.866544 4.53088 0
M  V30 7210 H 656.411 -0.746612 4.27327 0
M  V30 7211 H 657.082 -2.16976 5.07568 0
M  V30 7212 H 659.558 -2.64854 3.20923 0
M  V30 7213 H 658.434 -3.82491 3.9369 0
M  V30 7214 H 658.695 -3.83481 2.19987 0
M  V30 7215 N 657.755 -1.42862 -0.66545 0
M  V30 7216 C 659.003 -1.43546 -1.42264 0
M  V30 7217 C 659.324 -0.0563116 -1.94919 0
M  V30 7218 O 658.594 0.906568 -1.73661 0
M  V30 7219 H 657.174 -0.528464 -0.527953 0
M  V30 7220 H 659.836 -1.78363 -0.785665 0
M  V30 7221 H 658.932 -2.14079 -2.27105 0
M  V30 7222 N 659.233 0.902656 -1.29189 0
M  V30 7223 C 660.163 2.02294 -1.16616 0
M  V30 7224 C 661.144 1.6999 -0.0611175 0
M  V30 7225 O 662.329 1.9271 -0.240072 0
M  V30 7226 C 659.459 3.37018 -0.83882 0
M  V30 7227 C 658.413 3.83522 -1.89986 0
M  V30 7228 C 657.739 5.15337 -1.42589 0
M  V30 7229 C 659.039 4.04169 -3.30824 0
M  V30 7230 H 660.733 2.13071 -2.10336 0
M  V30 7231 H 658.279 1.02378 -1.01266 0
M  V30 7232 H 660.232 4.14895 -0.737584 0
M  V30 7233 H 658.956 3.26325 0.134071 0
M  V30 7234 H 657.615 3.07859 -1.99043 0
M  V30 7235 H 657.263 5.01056 -0.441759 0
M  V30 7236 H 656.963 5.47423 -2.13547 0
M  V30 7237 H 658.487 5.95758 -1.3381 0
M  V30 7238 H 659.901 4.72537 -3.24626 0
M  V30 7239 H 658.298 4.47604 -3.99713 0
M  V30 7240 H 659.368 3.08604 -3.74021 0
M  V30 7241 N 660.711 1.11618 1.11262 0
M  V30 7242 C 661.674 0.779447 2.15539 0
M  V30 7243 C 662.674 -0.202081 1.59525 0
M  V30 7244 O 663.864 0.0226356 1.74185 0
M  V30 7245 C 660.996 0.15674 3.40539 0
M  V30 7246 H 662.189 1.70324 2.4684 0
M  V30 7247 H 659.742 0.918298 1.26479 0
M  V30 7248 H 660.477 -0.777186 3.1485 0
M  V30 7249 H 660.262 0.863308 3.82478 0
M  V30 7250 H 661.752 -0.062661 4.17553 0
M  V30 7251 N 662.189 -1.289 0.906776 0
M  V30 7252 C 663.435 -1.95558 0.53712 0
M  V30 7253 C 663.768 -1.71262 -0.915582 0
M  V30 7254 O 663.043 -1.02961 -1.65013 0
M  V30 7255 C 663.326 -3.50198 0.838645 0
M  V30 7256 C 663.179 -3.83923 2.34357 0
M  V30 7257 C 664.498 -4.38861 0.329988 0
M  V30 7258 H 661.617 -0.710289 0.196617 0
M  V30 7259 H 664.259 -1.52392 1.13475 0
M  V30 7260 H 662.409 -3.87096 0.330024 0
M  V30 7261 H 664.081 -3.56933 2.92227 0
M  V30 7262 H 662.324 -3.31215 2.80141 0
M  V30 7263 H 662.995 -4.91883 2.5051 0
M  V30 7264 H 665.471 -4.08996 0.765609 0
M  V30 7265 H 664.347 -5.45931 0.570105 0
M  V30 7266 H 664.608 -4.35352 -0.769511 0
M  V30 7267 N 663.667 -0.670007 -1.42649 0
M  V30 7268 C 664.63 0.00204659 -2.292 0
M  V30 7269 C 665.63 0.733817 -1.4308 0
M  V30 7270 O 666.82 0.57254 -1.64522 0
M  V30 7271 C 663.952 1.01359 -3.25483 0
M  V30 7272 H 665.145 -0.759696 -2.90118 0
M  V30 7273 H 662.698 -0.432105 -1.50208 0
M  V30 7274 H 663.433 1.80399 -2.69493 0
M  V30 7275 H 663.218 0.492323 -3.88997 0
M  V30 7276 H 664.708 1.4824 -3.90403 0
M  V30 7277 N 665.145 1.52092 -0.413018 0
M  V30 7278 C 666.561 1.59471 -0.0640836 0
M  V30 7279 C 666.761 1.42562 1.42402 0
M  V30 7280 O 665.817 1.25453 2.19129 0
M  V30 7281 C 667.13 2.95392 -0.562474 0
M  V30 7282 C 668.678 3.08637 -0.520788 0
M  V30 7283 C 669.153 4.47044 -0.995752 0
M  V30 7284 N 670.644 4.53296 -0.952732 0
M  V30 7285 C 671.379 5.58669 -1.29138 0
M  V30 7286 N 670.875 6.71576 -1.70168 0
M  V30 7287 N 672.668 5.48898 -1.2111 0
M  V30 7288 H 664.819 1.6133 -1.38153 0
M  V30 7289 H 667.082 0.75916 -0.567785 0
M  V30 7290 H 666.788 3.13059 -1.60271 0
M  V30 7291 H 666.662 3.77191 0.0257875 0
M  V30 7292 H 669.049 2.90652 0.510412 0
M  V30 7293 H 669.13 2.28735 -1.14515 0
M  V30 7294 H 668.774 4.65773 -2.0253 0
M  V30 7295 H 668.704 5.25448 -0.348162 0
M  V30 7296 H 671.195 3.72248 -0.651119 0
M  V30 7297 H 671.508 7.47973 -1.9431 0
M  V30 7298 H 669.853 6.72847 -1.74075 0
M  V30 7299 H 673.044 4.59573 -0.889396 0
M  V30 7300 H 673.217 6.30912 -1.47833 0
M  V30 7301 N 666.623 0.143563 1.56945 0
M  V30 7302 C 667.533 -0.810562 2.20152 0
M  V30 7303 C 668.549 -1.27431 1.1848 0
M  V30 7304 O 669.725 -1.33221 1.51044 0
M  V30 7305 C 666.79 -2.03353 2.80799 0
M  V30 7306 C 665.851 -1.61936 3.97587 0
M  V30 7307 C 665.084 -2.78403 4.55332 0
M  V30 7308 O 665.307 -3.94521 4.11958 0
M  V30 7309 O 664.241 -2.54073 5.45647 0
M  V30 7310 H 668.067 -0.30253 3.02189 0
M  V30 7311 H 665.652 -0.0832925 1.49168 0
M  V30 7312 H 667.534 -2.74932 3.19359 0
M  V30 7313 H 666.209 -2.53116 2.01777 0
M  V30 7314 H 665.116 -0.873904 3.6375 0
M  V30 7315 H 666.449 -1.16892 4.78118 0
M  V30 7316 N 668.101 -1.57061 -0.130224 0
M  V30 7317 C 669.35 -1.83446 -0.838488 0
M  V30 7318 C 669.663 -0.727468 -1.81569 0
M  V30 7319 O 670.869 -0.877394 -2.56932 0
M  V30 7320 C 669.325 -3.25201 -1.54182 0
M  V30 7321 C 668.933 -4.4388 -0.606178 0
M  V30 7322 C 670.677 -3.60844 -2.23588 0
M  V30 7323 C 668.584 -5.76661 -1.31209 0
M  V30 7324 H 667.514 -0.684185 -0.316871 0
M  V30 7325 H 670.165 -1.83273 -0.0912059 0
M  V30 7326 H 668.547 -3.1981 -2.33533 0
M  V30 7327 H 669.721 -4.60545 0.153308 0
M  V30 7328 H 668.036 -4.16395 -0.0196705 0
M  V30 7329 H 670.633 -4.57313 -2.77072 0
M  V30 7330 H 670.976 -2.87724 -3.00867 0
M  V30 7331 H 671.509 -3.67971 -1.51137 0
M  V30 7332 H 668.248 -6.52922 -0.580823 0
M  V30 7333 H 667.768 -5.63902 -2.04387 0
M  V30 7334 H 669.447 -6.20035 -1.8484 0
M  V30 7335 N 669.579 0.400081 -1.52437 0
M  V30 7336 C 670.807 1.16768 -1.70801 0
M  V30 7337 C 671.222 1.84036 -0.421462 0
M  V30 7338 O 670.579 1.72242 0.603228 0
M  V30 7339 C 670.63 2.22403 -2.8499 0
M  V30 7340 O 670.351 1.57879 -4.08663 0
M  V30 7341 C 671.852 3.11974 -3.1494 0
M  V30 7342 H 669.072 0.350533 -0.57216 0
M  V30 7343 H 671.616 0.469534 -1.99037 0
M  V30 7344 H 669.771 2.87871 -2.59247 0
M  V30 7345 H 670.185 2.27982 -4.7236 0
M  V30 7346 H 671.659 3.82148 -3.9833 0
M  V30 7347 H 672.136 3.74858 -2.28863 0
M  V30 7348 H 672.742 2.52165 -3.42481 0
M  V30 7349 N 671.057 1.43213 0.657864 0
M  V30 7350 C 671.967 1.50448 1.80007 0
M  V30 7351 C 672.983 0.39191 1.69529 0
M  V30 7352 O 674.159 0.645349 1.90781 0
M  V30 7353 C 671.224 1.42062 3.16258 0
M  V30 7354 C 670.285 2.63951 3.38568 0
M  V30 7355 C 669.518 2.55956 4.68318 0
M  V30 7356 O 669.741 1.60473 5.47361 0
M  V30 7357 O 668.675 3.46378 4.92245 0
M  V30 7358 H 672.501 2.4689 1.76858 0
M  V30 7359 H 670.086 1.25163 0.81576 0
M  V30 7360 H 671.968 1.3981 3.97531 0
M  V30 7361 H 670.643 0.487524 3.20008 0
M  V30 7362 H 669.55 2.71776 2.57077 0
M  V30 7363 H 670.883 3.56217 3.39662 0
M  V30 7364 N 672.536 -0.895792 1.29666 0
M  V30 7365 C 673.468 -2.00563 1.10937 0
M  V30 7366 C 674.481 -1.62705 0.055734 0
M  V30 7367 O 675.67 -1.7595 0.300656 0
M  V30 7368 C 672.77 -3.32262 0.667448 0
M  V30 7369 C 671.943 -3.98625 1.80047 0
M  V30 7370 C 671.002 -5.08617 1.3489 0
M  V30 7371 O 670.028 -5.30837 2.05429 0
M  V30 7372 N 671.23 -5.80076 0.221937 0
M  V30 7373 H 673.995 -2.17184 2.06522 0
M  V30 7374 H 671.556 -1.06822 1.21658 0
M  V30 7375 H 673.548 -4.03196 0.348586 0
M  V30 7376 H 672.118 -3.11985 -0.196055 0
M  V30 7377 H 671.338 -3.21005 2.28801 0
M  V30 7378 H 672.626 -4.39704 2.56003 0
M  V30 7379 H 672.024 -5.64514 -0.366084 0
M  V30 7380 H 670.581 -6.51789 -0.0375346 0
M  V30 7381 N 674.014 -1.12206 -1.10668 0
M  V30 7382 C 675.244 -0.897332 -1.86095 0
M  V30 7383 C 675.652 0.556778 -1.80822 0
M  V30 7384 O 674.995 1.39658 -1.19337 0
M  V30 7385 C 675.057 -1.29095 -3.35522 0
M  V30 7386 C 674.721 -2.75586 -3.64556 0
M  V30 7387 C 675.718 -3.73785 -3.6136 0
M  V30 7388 C 673.403 -3.12432 -3.93309 0
M  V30 7389 C 675.397 -5.06845 -3.86506 0
M  V30 7390 C 673.084 -4.45675 -4.18111 0
M  V30 7391 C 674.082 -5.42691 -4.147 0
M  V30 7392 O 673.77 -6.73532 -4.38873 0
M  V30 7393 H 673.502 -0.320704 -0.595084 0
M  V30 7394 H 676.056 -1.49517 -1.40833 0
M  V30 7395 H 674.286 -0.636299 -3.81429 0
M  V30 7396 H 675.975 -1.04073 -3.92331 0
M  V30 7397 H 676.741 -3.46664 -3.39189 0
M  V30 7398 H 672.62 -2.3753 -3.95096 0
M  V30 7399 H 676.164 -5.82559 -3.83758 0
M  V30 7400 H 672.061 -4.72526 -4.39761 0
M  V30 7401 H 672.829 -6.79442 -4.564 0
M  V30 7402 N 675.492 1.28418 -0.913599 0
M  V30 7403 C 676.455 2.25564 -0.406624 0
M  V30 7404 C 677.455 1.5387 0.466965 0
M  V30 7405 O 678.645 1.72094 0.270042 0
M  V30 7406 C 675.777 3.38339 0.417053 0
M  V30 7407 H 676.97 2.71926 -1.26477 0
M  V30 7408 H 674.523 1.40098 -0.692986 0
M  V30 7409 H 675.258 2.97339 1.29461 0
M  V30 7410 H 675.043 3.91542 -0.209102 0
M  V30 7411 H 676.533 4.10578 0.762602 0
M  V30 7412 N 676.97 0.677563 1.42291 0
M  V30 7413 C 678.218 0.200578 2.01102 0
M  V30 7414 C 678.539 -1.19803 1.53858 0
M  V30 7415 O 677.809 -1.80496 0.761439 0
M  V30 7416 H 676.389 0.0711634 0.743603 0
M  V30 7417 H 679.051 0.874691 1.7417 0
M  V30 7418 H 678.147 0.204 3.11433 0
M  V30 7419 N 678.448 -1.51871 0.421078 0
M  V30 7420 C 679.38 -2.25052 -0.434065 0
M  V30 7421 C 680.393 -1.28458 -1.00013 0
M  V30 7422 O 681.582 -1.54323 -0.897033 0
M  V30 7423 C 678.682 -2.97813 -1.61743 0
M  V30 7424 C 677.855 -4.21374 -1.17315 0
M  V30 7425 C 676.914 -4.76854 -2.22478 0
M  V30 7426 O 675.94 -5.39123 -1.82577 0
M  V30 7427 N 677.142 -4.59467 -3.54782 0
M  V30 7428 H 679.907 -2.99077 0.193073 0
M  V30 7429 H 677.468 -1.59972 0.249088 0
M  V30 7430 H 679.46 -3.3182 -2.31685 0
M  V30 7431 H 678.03 -2.26899 -2.15024 0
M  V30 7432 H 677.25 -3.93046 -0.3014 0
M  V30 7433 H 678.538 -5.01591 -0.853444 0
M  V30 7434 H 677.936 -4.09832 -3.89941 0
M  V30 7435 H 676.493 -4.9788 -4.20665 0
M  V30 7436 N 679.926 -0.151884 -1.56866 0
M  V30 7437 C 681.175 0.497992 -1.95456 0
M  V30 7438 C 681.488 1.6569 -1.03953 0
M  V30 7439 O 682.694 2.37173 -1.32142 0
M  V30 7440 C 681.15 0.93732 -3.4748 0
M  V30 7441 C 680.758 -0.194921 -4.47576 0
M  V30 7442 C 682.502 1.55671 -3.94926 0
M  V30 7443 C 680.409 0.26295 -5.90815 0
M  V30 7444 H 679.339 0.189811 -0.729717 0
M  V30 7445 H 681.99 -0.237011 -1.81963 0
M  V30 7446 H 680.372 1.72773 -3.56322 0
M  V30 7447 H 681.546 -0.971951 -4.50433 0
M  V30 7448 H 679.861 -0.72303 -4.10075 0
M  V30 7449 H 682.458 1.91099 -4.99385 0
M  V30 7450 H 682.801 2.44748 -3.36755 0
M  V30 7451 H 683.334 0.831109 -3.89021 0
M  V30 7452 H 680.073 -0.592568 -6.52816 0
M  V30 7453 H 679.593 1.00575 -5.91308 0
M  V30 7454 H 681.272 0.713333 -6.43056 0
M  V30 7455 N 681.404 1.57128 0.121893 0
M  V30 7456 C 682.653 1.83888 0.828748 0
M  V30 7457 C 682.966 0.737087 1.81181 0
M  V30 7458 O 684.172 0.891007 2.56463 0
M  V30 7459 C 682.628 3.26014 1.52455 0
M  V30 7460 C 682.236 4.44195 0.58263 0
M  V30 7461 C 683.98 3.62025 2.21671 0
M  V30 7462 C 681.887 5.77349 1.28149 0
M  V30 7463 H 680.817 0.685856 0.313238 0
M  V30 7464 H 683.468 1.83319 0.0814851 0
M  V30 7465 H 681.85 3.21044 2.31834 0
M  V30 7466 H 683.024 4.60457 -0.177729 0
M  V30 7467 H 681.339 4.164 -0.00241228 0
M  V30 7468 H 683.936 4.58776 2.74643 0
M  V30 7469 H 684.279 2.89315 2.99337 0
M  V30 7470 H 684.812 3.68767 1.49184 0
M  V30 7471 H 681.551 6.53221 0.546189 0
M  V30 7472 H 681.071 5.64978 2.01394 0
M  V30 7473 H 682.75 6.21006 1.81549 0
M  V30 7474 N 682.882 -0.391992 1.52647 0
M  V30 7475 C 683.845 -1.46135 1.7657 0
M  V30 7476 C 684.845 -1.47701 0.635698 0
M  V30 7477 O 686.035 -1.48924 0.903728 0
M  V30 7478 C 683.167 -2.85443 1.86374 0
M  V30 7479 H 684.36 -1.26208 2.72051 0
M  V30 7480 H 681.913 -0.623549 1.43323 0
M  V30 7481 H 682.648 -3.10718 0.928685 0
M  V30 7482 H 682.433 -2.85708 2.68539 0
M  V30 7483 H 683.923 -3.62933 2.06566 0
M  V30 7484 N 684.36 -1.4356 -0.65026 0
M  V30 7485 C 685.585 -1.48995 -1.44275 0
M  V30 7486 C 686.01 -0.109954 -1.87778 0
M  V30 7487 O 685.368 0.896926 -1.57559 0
M  V30 7488 C 685.416 -2.44341 -2.65198 0
M  V30 7489 O 684.52 -1.93172 -3.6436 0
M  V30 7490 H 683.861 -0.503852 -0.432469 0
M  V30 7491 H 686.391 -1.88504 -0.795446 0
M  V30 7492 H 686.401 -2.61743 -3.12977 0
M  V30 7493 H 685.076 -3.44588 -2.32877 0
M  V30 7494 H 683.653 -1.85445 -3.23519 0
M  V30 7495 N 685.838 0.888903 -1.30139 0
M  V30 7496 C 687.115 1.62145 -1.094 0
M  V30 7497 C 687.495 2.08041 0.358091 0
M  V30 7498 O 686.843 1.84438 1.34888 0
M  V30 7499 C 687.053 2.794 -2.09133 0
M  V30 7500 C 688.401 3.49826 -2.40638 0
M  V30 7501 O 689.425 2.89583 -2.07412 0
M  V30 7502 O 688.284 4.58457 -2.97455 0
M  V30 7503 H 685.378 0.712475 -0.41989 0
M  V30 7504 H 687.924 0.936023 -1.41551 0
M  V30 7505 H 686.696 2.42762 -3.06891 0
M  V30 7506 H 686.319 3.55643 -1.77776 0
M  V30 7507 N 687.317 1.12792 1.10072 0
M  V30 7508 C 688.542 0.908838 1.86427 0
M  V30 7509 C 688.967 -0.536793 1.80278 0
M  V30 7510 O 688.325 -1.38033 1.17543 0
M  V30 7511 C 688.373 1.39295 3.3261 0
M  V30 7512 O 687.477 0.573846 4.08388 0
M  V30 7513 H 686.818 0.326234 0.578331 0
M  V30 7514 H 689.348 1.50094 1.39043 0
M  V30 7515 H 689.358 1.39366 3.83459 0
M  V30 7516 H 688.033 2.44555 3.36401 0
M  V30 7517 H 686.61 0.640438 3.67359 0
M  V30 7518 N 688.795 -1.27931 0.920396 0
M  V30 7519 C 689.725 -2.29487 0.431024 0
M  V30 7520 C 690.706 -1.62435 -0.504861 0
M  V30 7521 O 691.891 -1.89797 -0.411176 0
M  V30 7522 C 689.021 -3.45788 -0.323709 0
M  V30 7523 C 687.975 -4.24784 0.523658 0
M  V30 7524 C 687.301 -5.33488 -0.359809 0
M  V30 7525 C 688.601 -4.90874 1.78437 0
M  V30 7526 H 690.295 -2.70671 1.27975 0
M  V30 7527 H 687.841 -1.30121 0.616813 0
M  V30 7528 H 689.794 -4.15927 -0.676952 0
M  V30 7529 H 688.518 -3.03502 -1.2064 0
M  V30 7530 H 687.177 -3.56382 0.85951 0
M  V30 7531 H 686.825 -4.87445 -1.24124 0
M  V30 7532 H 686.525 -5.87247 0.203605 0
M  V30 7533 H 688.049 -6.06472 -0.708787 0
M  V30 7534 H 689.463 -5.53339 1.49963 0
M  V30 7535 H 687.86 -5.54659 2.29071 0
M  V30 7536 H 688.93 -4.14988 2.50824 0
M  V30 7537 N 690.273 -0.685099 -1.4193 0
M  V30 7538 C 691.203 -0.0273506 -2.33484 0
M  V30 7539 C 692.184 0.778366 -1.51246 0
M  V30 7540 O 693.369 0.733449 -1.79817 0
M  V30 7541 C 690.499 0.917272 -3.34968 0
M  V30 7542 C 689.453 0.21941 -4.27437 0
M  V30 7543 C 688.779 1.27768 -5.1921 0
M  V30 7544 C 690.079 -0.907894 -5.14349 0
M  V30 7545 H 691.773 -0.791994 -2.88735 0
M  V30 7546 H 689.319 -0.382308 -1.38832 0
M  V30 7547 H 691.272 1.38657 -3.97935 0
M  V30 7548 H 689.996 1.71346 -2.78043 0
M  V30 7549 H 688.655 -0.229757 -3.65879 0
M  V30 7550 H 688.303 2.06612 -4.58607 0
M  V30 7551 H 688.003 0.815803 -5.81909 0
M  V30 7552 H 689.527 1.7477 -5.85054 0
M  V30 7553 H 690.941 -0.519348 -5.70943 0
M  V30 7554 H 689.338 -1.2962 -5.85934 0
M  V30 7555 H 690.408 -1.75218 -4.52136 0
M  V30 7556 N 691.751 1.51645 -0.429126 0
M  V30 7557 C 692.999 2.01616 0.139802 0
M  V30 7558 C 693.32 1.31568 1.43927 0
M  V30 7559 O 692.59 0.447688 1.90716 0
M  V30 7560 H 691.17 0.744998 0.054654 0
M  V30 7561 H 693.832 1.8638 -0.569952 0
M  V30 7562 H 692.928 3.10439 0.321609 0
M  V30 7563 N 693.229 0.160201 1.56784 0
M  V30 7564 C 694.477 -0.486625 1.96154 0
M  V30 7565 C 694.798 -1.64525 1.04673 0
M  V30 7566 O 694.068 -1.95586 0.110864 0
M  V30 7567 H 692.648 -0.182764 0.724297 0
M  V30 7568 H 695.31 0.238787 1.93432 0
M  V30 7569 H 694.406 -0.854025 3.00188 0
M  V30 7570 N 694.707 -1.5719 -0.113559 0
M  V30 7571 C 695.67 -1.99796 -1.12314 0
M  V30 7572 C 696.67 -0.888847 -1.34001 0
M  V30 7573 O 697.86 -1.15476 -1.30426 0
M  V30 7574 C 694.992 -2.34279 -2.47641 0
M  V30 7575 H 696.185 -2.90193 -0.756825 0
M  V30 7576 H 693.738 -1.52144 -0.358029 0
M  V30 7577 H 694.473 -1.46778 -2.89183 0
M  V30 7578 H 694.258 -3.15175 -2.33253 0
M  V30 7579 H 695.748 -2.67963 -3.2029 0
M  V30 7580 N 696.185 0.383891 -1.52853 0
M  V30 7581 C 697.601 0.724316 -1.42218 0
M  V30 7582 C 697.801 1.93943 -0.546654 0
M  V30 7583 O 696.857 2.5249 -0.0220562 0
M  V30 7584 C 698.17 0.954635 -2.85144 0
M  V30 7585 C 699.718 1.05579 -2.94656 0
M  V30 7586 C 700.193 1.3187 -4.38605 0
M  V30 7587 N 701.684 1.38681 -4.41952 0
M  V30 7588 C 702.419 1.60699 -5.50421 0
M  V30 7589 N 701.915 1.80154 -6.68967 0
M  V30 7590 N 703.708 1.6292 -5.37972 0
M  V30 7591 H 695.859 -0.4156 -2.08294 0
M  V30 7592 H 698.122 -0.123776 -0.939885 0
M  V30 7593 H 697.828 0.133829 -3.51445 0
M  V30 7594 H 697.702 1.86788 -3.27704 0
M  V30 7595 H 700.089 1.86716 -2.2852 0
M  V30 7596 H 700.17 0.120338 -2.55517 0
M  V30 7597 H 699.814 0.512416 -5.05309 0
M  V30 7598 H 699.744 2.26708 -4.75301 0
M  V30 7599 H 702.235 1.25334 -3.56511 0
M  V30 7600 H 702.548 1.96476 -7.47407 0
M  V30 7601 H 700.893 1.77368 -6.71986 0
M  V30 7602 H 704.084 1.47276 -4.44328 0
M  V30 7603 H 704.257 1.79739 -6.22574 0
M  V30 7604 N 697.663 1.43903 0.642637 0
M  V30 7605 C 698.596 1.44339 1.76753 0
M  V30 7606 C 699.574 0.303558 1.59741 0
M  V30 7607 O 700.758 0.498775 1.81781 0
M  V30 7608 C 697.885 1.26508 3.14187 0
M  V30 7609 C 696.931 2.43905 3.49875 0
M  V30 7610 S 697.764 4.0645 3.48653 0
M  V30 7611 C 698.92 3.91021 4.88726 0
M  V30 7612 H 699.153 2.39523 1.76113 0
M  V30 7613 H 696.686 1.31061 0.81623 0
M  V30 7614 H 698.644 1.16908 3.93501 0
M  V30 7615 H 697.305 0.328548 3.12377 0
M  V30 7616 H 696.498 2.27262 4.49853 0
M  V30 7617 H 696.1 2.50186 2.77998 0
M  V30 7618 H 698.392 3.54 5.77659 0
M  V30 7619 H 699.335 4.9079 5.10423 0
M  V30 7620 H 699.743 3.23287 4.62759 0
M  V30 7621 N 699.141 -0.881989 1.30609 0
M  V30 7622 C 700.051 -2.02076 1.19174 0
M  V30 7623 C 701.067 -1.73645 0.11102 0
M  V30 7624 O 702.243 -1.98735 0.326528 0
M  V30 7625 C 699.308 -3.3515 0.887438 0
M  V30 7626 C 698.369 -3.76983 2.05383 0
M  V30 7627 C 697.602 -5.03707 1.76395 0
M  V30 7628 O 697.825 -5.66171 0.693302 0
M  V30 7629 O 696.759 -5.42019 2.61723 0
M  V30 7630 H 700.585 -2.14652 2.14845 0
M  V30 7631 H 698.17 -1.00843 1.10232 0
M  V30 7632 H 700.052 -4.14975 0.73306 0
M  V30 7633 H 698.727 -3.23676 -0.0393354 0
M  V30 7634 H 697.634 -2.97849 2.26355 0
M  V30 7635 H 698.967 -3.93066 2.96243 0
M  V30 7636 N 700.619 -1.13374 -1.09472 0
M  V30 7637 C 701.865 -0.896516 -1.81908 0
M  V30 7638 C 702.198 0.575933 -1.85463 0
M  V30 7639 O 701.473 1.42618 -1.32251 0
M  V30 7640 C 701.756 -1.48445 -3.28079 0
M  V30 7641 C 701.609 -3.02598 -3.32798 0
M  V30 7642 C 702.928 -1.15226 -4.24748 0
M  V30 7643 H 700.047 -0.327127 -0.660422 0
M  V30 7644 H 702.689 -1.40195 -1.2824 0
M  V30 7645 H 700.839 -1.0546 -3.73912 0
M  V30 7646 H 702.511 -3.54335 -2.95372 0
M  V30 7647 H 700.754 -3.37613 -2.72397 0
M  V30 7648 H 701.425 -3.38835 -4.3577 0
M  V30 7649 H 703.901 -1.52369 -3.87199 0
M  V30 7650 H 702.777 -1.59012 -5.25363 0
M  V30 7651 H 703.038 -0.0658891 -4.42051 0
M  V30 7652 N 702.098 1.27442 -0.927168 0
M  V30 7653 C 703.344 1.94679 -0.568164 0
M  V30 7654 C 703.677 1.72697 0.888219 0
M  V30 7655 O 702.952 1.05573 1.63354 0
M  V30 7656 C 703.235 3.4882 -0.894253 0
M  V30 7657 C 703.088 3.80146 -2.40435 0
M  V30 7658 C 704.407 4.38281 -0.399766 0
M  V30 7659 H 701.526 0.707071 -0.207892 0
M  V30 7660 H 704.168 1.50568 -1.15885 0
M  V30 7661 H 702.318 3.86522 -0.391566 0
M  V30 7662 H 703.99 3.52238 -2.97869 0
M  V30 7663 H 702.233 3.26716 -2.85375 0
M  V30 7664 H 702.904 4.87835 -2.58304 0
M  V30 7665 H 705.38 4.07726 -0.83058 0
M  V30 7666 H 704.256 5.44955 -0.656885 0
M  V30 7667 H 704.517 4.36521 0.700153 0
M  V30 7668 N 703.576 0.692616 1.41565 0
M  V30 7669 C 704.823 0.222335 2.01276 0
M  V30 7670 C 705.151 -1.17706 1.5484 0
M  V30 7671 O 704.406 -1.80795 0.749118 0
M  V30 7672 C 704.705 0.225073 3.56691 0
M  V30 7673 C 704.371 1.57158 4.22625 0
M  V30 7674 C 703.033 1.94022 4.40351 0
M  V30 7675 C 705.385 2.45758 4.59622 0
M  V30 7676 C 702.713 3.19076 4.92349 0
M  V30 7677 C 705.065 3.70141 5.13009 0
M  V30 7678 C 703.729 4.07152 5.28946 0
M  V30 7679 H 702.999 0.0813581 0.73652 0
M  V30 7680 H 705.646 0.891123 1.69503 0
M  V30 7681 H 703.951 -0.527259 3.88236 0
M  V30 7682 H 705.648 -0.156283 4.00695 0
M  V30 7683 H 702.238 1.27486 4.09201 0
M  V30 7684 H 706.422 2.18558 4.45585 0
M  V30 7685 H 701.678 3.4775 5.02872 0
M  V30 7686 H 705.852 4.38983 5.40617 0
M  V30 7687 H 703.479 5.04125 5.69001 0
M  V30 7688 N 705.054 -1.51416 0.437162 0
M  V30 7689 C 706.302 -2.01687 -0.129108 0
M  V30 7690 C 706.623 -1.32329 -1.43227 0
M  V30 7691 O 705.893 -0.457796 -1.90476 0
M  V30 7692 H 704.473 -0.745277 -0.0507023 0
M  V30 7693 H 707.135 -1.86075 0.579828 0
M  V30 7694 H 706.231 -3.10605 -0.305141 0
M  V30 7695 N 706.532 -0.168513 -1.56696 0
M  V30 7696 C 707.948 0.187686 -1.58493 0
M  V30 7697 C 708.148 1.63063 -1.18375 0
M  V30 7698 O 707.204 2.36142 -0.894042 0
M  V30 7699 C 708.517 -0.0905858 -3.00564 0
M  V30 7700 C 710.065 -0.028575 -3.12987 0
M  V30 7701 C 710.54 -0.279799 -4.57145 0
M  V30 7702 N 712.031 -0.227476 -4.62641 0
M  V30 7703 C 712.766 -0.396073 -5.7203 0
M  V30 7704 N 712.262 -0.623572 -6.89988 0
M  V30 7705 N 714.055 -0.332173 -5.61118 0
M  V30 7706 H 706.206 -1.11042 -1.81062 0
M  V30 7707 H 708.469 -0.441235 -0.839056 0
M  V30 7708 H 708.175 -1.09006 -3.34381 0
M  V30 7709 H 708.049 0.619078 -3.72085 0
M  V30 7710 H 710.436 0.961471 -2.78998 0
M  V30 7711 H 710.517 -0.770905 -2.43907 0
M  V30 7712 H 710.161 -1.26704 -4.91842 0
M  V30 7713 H 710.091 0.48311 -5.24379 0
M  V30 7714 H 712.582 -0.0571723 -3.77857 0
M  V30 7715 H 712.895 -0.741745 -7.69232 0
M  V30 7716 H 711.24 -0.660153 -6.91858 0
M  V30 7717 H 714.431 -0.155051 -4.67843 0
M  V30 7718 H 714.604 -0.466994 -6.46315 0
M  V30 7719 N 708.01 1.57248 0.105221 0
M  V30 7720 C 708.942 1.98008 1.15436 0
M  V30 7721 C 709.955 0.881236 1.36887 0
M  V30 7722 O 711.144 1.15943 1.35718 0
M  V30 7723 C 708.244 2.27509 2.51183 0
M  V30 7724 C 707.417 3.58811 2.50147 0
M  V30 7725 C 706.476 3.76365 3.67745 0
M  V30 7726 O 705.502 4.48329 3.50699 0
M  V30 7727 N 706.704 3.16174 4.86841 0
M  V30 7728 H 709.469 2.88616 0.807519 0
M  V30 7729 H 707.03 1.59202 0.29433 0
M  V30 7730 H 709.022 2.36455 3.28438 0
M  V30 7731 H 707.592 1.42959 2.77995 0
M  V30 7732 H 706.812 3.60927 1.5851 0
M  V30 7733 H 708.1 4.45088 2.46524 0
M  V30 7734 H 707.498 2.57701 5.03594 0
M  V30 7735 H 706.055 3.30621 5.61723 0
M  V30 7736 N 709.488 -0.375779 1.53054 0
M  V30 7737 C 710.438 -1.45965 1.75152 0
M  V30 7738 C 711.422 -1.49059 0.605823 0
M  V30 7739 O 712.614 -1.54472 0.864133 0
M  V30 7740 C 709.743 -2.83524 1.93569 0
M  V30 7741 C 708.829 -2.84949 3.1411 0
M  V30 7742 N 709.22 -2.56029 4.36214 0
M  V30 7743 C 707.518 -3.16113 3.14625 0
M  V30 7744 C 708.219 -2.64873 5.17897 0
M  V30 7745 N 707.195 -2.99159 4.53878 0
M  V30 7746 H 710.997 -1.22454 2.67175 0
M  V30 7747 H 708.511 -0.583867 1.51541 0
M  V30 7748 H 710.508 -3.61578 2.07525 0
M  V30 7749 H 709.168 -3.08008 1.02768 0
M  V30 7750 H 710.179 -2.29808 4.64121 0
M  V30 7751 H 706.856 -3.45977 2.3368 0
M  V30 7752 H 708.246 -2.45947 6.25268 0
M  V30 7753 N 710.966 -1.44241 -0.634997 0
M  V30 7754 C 712.377 -1.41622 -1.21655 0
M  V30 7755 C 712.728 -0.129584 -1.95772 0
M  V30 7756 O 711.853 0.770225 -2.02229 0
M  V30 7757 C 712.448 -2.56557 -2.21278 0
M  V30 7758 C 711.007 -2.57145 -2.7487 0
M  V30 7759 C 710.154 -2.33354 -1.49804 0
M  V30 7760 H 713.105 -1.52878 -0.425905 0
M  V30 7761 H 713.126 -2.29089 -3.03807 0
M  V30 7762 H 712.638 -3.50186 -1.67306 0
M  V30 7763 H 710.739 -1.67447 -3.32855 0
M  V30 7764 H 710.852 -3.55507 -3.21172 0
M  V30 7765 H 709.216 -1.82372 -1.77799 0
M  V30 7766 H 709.999 -3.29092 -0.977402 0
M  V30 7767 N 712.444 0.87505 -1.31075 0
M  V30 7768 C 713.672 1.66058 -1.23419 0
M  V30 7769 C 714.087 1.87723 0.201347 0
M  V30 7770 O 713.444 1.43178 1.13165 0
M  V30 7771 C 713.495 3.03142 -1.96945 0
M  V30 7772 O 713.216 2.82448 -3.34895 0
M  V30 7773 C 714.717 3.97583 -1.96067 0
M  V30 7774 H 711.937 0.517868 -0.426677 0
M  V30 7775 H 714.481 1.09258 -1.72867 0
M  V30 7776 H 712.636 3.56645 -1.51271 0
M  V30 7777 H 713.05 3.69483 -3.72267 0
M  V30 7778 H 714.524 4.91104 -2.52034 0
M  V30 7779 H 715.001 4.2898 -0.941961 0
M  V30 7780 H 715.607 3.50015 -2.41597 0
M  V30 7781 N 713.922 1.13953 1.08869 0
M  V30 7782 C 714.854 0.779906 2.15523 0
M  V30 7783 C 715.867 -0.20102 1.61554 0
M  V30 7784 O 717.056 0.0200049 1.78489 0
M  V30 7785 C 714.156 0.136226 3.38626 0
M  V30 7786 C 713.329 1.15069 4.21993 0
M  V30 7787 C 712.388 0.531645 5.23507 0
M  V30 7788 O 711.414 1.19327 5.56552 0
M  V30 7789 N 712.616 -0.693734 5.7634 0
M  V30 7790 H 715.381 1.69769 2.46979 0
M  V30 7791 H 712.942 1.03331 1.24637 0
M  V30 7792 H 714.934 -0.290295 4.03658 0
M  V30 7793 H 713.504 -0.684603 3.05011 0
M  V30 7794 H 712.724 1.75431 3.53012 0
M  V30 7795 H 714.012 1.83614 4.74514 0
M  V30 7796 H 713.41 -1.24994 5.51718 0
M  V30 7797 H 711.967 -1.06283 6.43076 0
M  V30 7798 N 715.4 -1.26948 0.933913 0
M  V30 7799 C 716.347 -2.26635 0.436484 0
M  V30 7800 C 717.317 -1.58397 -0.499953 0
M  V30 7801 O 718.502 -1.86171 -0.417753 0
M  V30 7802 C 715.642 -3.43803 -0.298951 0
M  V30 7803 C 714.755 -4.26736 0.672316 0
M  V30 7804 C 713.89 -5.31134 -0.0835872 0
M  V30 7805 C 712.929 -6.05742 0.879979 0
M  V30 7806 N 712.066 -7.01926 0.156301 0
M  V30 7807 H 716.906 -2.68558 1.29154 0
M  V30 7808 H 714.443 -1.32052 0.648118 0
M  V30 7809 H 716.401 -4.10554 -0.741723 0
M  V30 7810 H 715.031 -3.02814 -1.1182 0
M  V30 7811 H 714.083 -3.59842 1.23361 0
M  V30 7812 H 715.395 -4.78502 1.40846 0
M  V30 7813 H 714.549 -6.03863 -0.585984 0
M  V30 7814 H 713.288 -4.80188 -0.852661 0
M  V30 7815 H 712.293 -5.31846 1.39357 0
M  V30 7816 H 713.518 -6.58777 1.64894 0
M  V30 7817 H 711.464 -6.53301 -0.594413 0
M  V30 7818 H 711.381 -7.51409 0.831906 0
M  V30 7819 H 712.649 -7.78821 -0.325239 0
M  V30 7820 N 716.879 -0.700114 -1.41195 0
M  V30 7821 C 717.789 -0.0382854 -2.34569 0
M  V30 7822 C 718.805 0.761036 -1.56474 0
M  V30 7823 O 719.981 0.697553 -1.88934 0
M  V30 7824 C 717.046 0.883522 -3.35253 0
M  V30 7825 C 716.107 0.0758957 -4.29233 0
M  V30 7826 C 715.34 0.9538 -5.25108 0
M  V30 7827 O 715.563 2.19326 -5.26547 0
M  V30 7828 O 714.497 0.401049 -6.00562 0
M  V30 7829 H 718.323 -0.808073 -2.92752 0
M  V30 7830 H 715.908 -0.460479 -1.42127 0
M  V30 7831 H 717.79 1.41199 -3.9704 0
M  V30 7832 H 716.465 1.63272 -2.79506 0
M  V30 7833 H 715.372 -0.497274 -3.7078 0
M  V30 7834 H 716.705 -0.634741 -4.8809 0
M  V30 7835 N 718.357 1.51182 -0.445186 0
M  V30 7836 C 719.267 2.31692 0.368255 0
M  V30 7837 C 720.283 1.40942 1.02036 0
M  V30 7838 O 721.459 1.74011 1.01401 0
M  V30 7839 C 718.524 3.14903 1.45041 0
M  V30 7840 C 717.585 4.21442 0.817615 0
M  V30 7841 C 716.818 5.00677 1.8482 0
M  V30 7842 O 717.041 4.80644 3.07145 0
M  V30 7843 O 715.975 5.84559 1.43438 0
M  V30 7844 H 719.801 3.0232 -0.289219 0
M  V30 7845 H 717.386 1.47951 -0.207555 0
M  V30 7846 H 719.268 3.66612 2.07783 0
M  V30 7847 H 717.943 2.47031 2.09182 0
M  V30 7848 H 716.85 3.73791 0.151931 0
M  V30 7849 H 718.183 4.9171 0.219564 0
M  V30 7850 O 719.874 0.317958 1.58339 0
M  V30 7851 H 720.565 -0.243085 1.92169 0
M  V30 END ATOM
M  V30 BEGIN BOND
M  V30 END BOND
M  V30 END CTAB
M  END
$$$$
