drugbank_target|P41020 Urease subunit alpha (DB02899)
 OpenBabel12092120443D

  0  0  0     0  0            999 V3000
M  V30 BEGIN CTAB
M  V30 COUNTS 8593 8674 0 0 0
M  V30 BEGIN ATOM
M  V30 1 H -0.908 1.98254 -0.117106 0
M  V30 2 N 0 1.576 0 0
M  V30 3 C 0.933 2.03868 1.02534 0
M  V30 4 C 1.911 0.928543 1.3348 0
M  V30 5 O 3.095 1.19667 1.45644 0
M  V30 6 C 0.222 2.43627 2.35294 0
M  V30 7 C -0.732 3.65373 2.2001 0
M  V30 8 S 0.101 5.13292 1.52614 0
M  V30 9 C 1.257 5.56322 2.86805 0
M  V30 10 H 1.49 2.90518 0.631377 0
M  V30 11 H -0.977 1.52953 0.210867 0
M  V30 12 H 0.981 2.67203 3.11629 0
M  V30 13 H -0.358 1.57376 2.7183 0
M  V30 14 H -1.165 3.90944 3.18086 0
M  V30 15 H -1.563 3.418 1.51819 0
M  V30 16 H 0.729 5.58782 3.83104 0
M  V30 17 H 1.672 6.56266 2.65933 0
M  V30 18 H 2.08 4.83886 2.90714 0
M  V30 19 N 1.4781 -0.272755 1.55222 0
M  V30 20 C 2.4251 -1.33716 1.88119 0
M  V30 21 C 3.3951 -1.49066 0.73271 0
M  V30 22 O 4.5801 -1.63469 0.984002 0
M  V30 23 C 1.7201 -2.69238 2.15882 0
M  V30 24 C 0.8331 -2.62108 3.43399 0
M  V30 25 C -0.0319 -3.89811 3.60861 0
M  V30 26 C -0.9929 -3.77193 4.8207 0
M  V30 27 N -1.8559 -4.9673 4.96189 0
M  V30 28 H 2.9841 -1.04962 2.78903 0
M  V30 29 H 0.5211 -0.507088 1.38083 0
M  V30 30 H 2.4791 -3.48089 2.29978 0
M  V30 31 H 1.1091 -2.96194 1.28331 0
M  V30 32 H 0.1611 -1.74967 3.37773 0
M  V30 33 H 1.4731 -2.48685 4.32386 0
M  V30 34 H 0.6271 -4.77103 3.74777 0
M  V30 35 H -0.6339 -4.06102 2.7006 0
M  V30 36 H -1.6289 -2.88284 4.68159 0
M  V30 37 H -0.4039 -3.62421 5.74307 0
M  V30 38 H -2.4579 -5.13431 4.08319 0
M  V30 39 H -2.5409 -4.85839 5.79221 0
M  V30 40 H -1.2729 -5.85594 5.1449 0
M  V30 41 N 2.9562 -1.48159 -0.537278 0
M  V30 42 C 4.2052 -1.5506 -1.28993 0
M  V30 43 C 4.5182 -0.226211 -1.94288 0
M  V30 44 O 5.7242 -0.173395 -2.70946 0
M  V30 45 C 4.1802 -2.73429 -2.34018 0
M  V30 46 C 3.7882 -4.1248 -1.74825 0
M  V30 47 C 5.5322 -2.89638 -3.10339 0
M  V30 48 C 3.4392 -5.22121 -2.77747 0
M  V30 49 H 2.3692 -0.577231 -0.485098 0
M  V30 50 H 5.0202 -1.74478 -0.568317 0
M  V30 51 H 3.4022 -2.47431 -3.09182 0
M  V30 52 H 4.5762 -4.48466 -1.05899 0
M  V30 53 H 2.8912 -4.01327 -1.11022 0
M  V30 54 H 5.4882 -3.68718 -3.87235 0
M  V30 55 H 5.8312 -1.9882 -3.65754 0
M  V30 56 H 6.3642 -3.15502 -2.42288 0
M  V30 57 H 3.1032 -6.1488 -2.27161 0
M  V30 58 H 2.6232 -4.90631 -3.45024 0
M  V30 59 H 4.3022 -5.49924 -3.4087 0
M  V30 60 N 4.4343 0.785586 -1.36625 0
M  V30 61 C 5.3823 1.91978 -1.31329 0
M  V30 62 C 6.3763 1.68162 -0.204416 0
M  V30 63 O 7.5823 1.76122 -0.371645 0
M  V30 64 H 3.9573 0.631087 -0.408942 0
M  V30 65 H 5.9283 1.93562 -2.27104 0
M  V30 66 C 4.6773 3.29055 -1.12329 0
M  V30 67 H 4.0003 3.4795 -1.96903 0
M  V30 68 H 5.4403 4.08756 -1.12671 0
M  V30 69 C 3.8993 3.36461 0.171861 0
M  V30 70 O 4.4293 3.84576 1.16035 0
M  V30 71 N 2.6353 2.89782 0.217846 0
M  V30 72 H 2.1823 2.50819 -0.587183 0
M  V30 73 H 2.1403 2.95119 1.08408 0
M  V30 74 N 5.9124 1.20967 1.01018 0
M  V30 75 C 7.3284 0.965905 1.27053 0
M  V30 76 C 7.5284 -0.350785 1.98423 0
M  V30 77 O 6.5844 -1.07773 2.28344 0
M  V30 78 C 7.8974 2.15294 2.09926 0
M  V30 79 C 9.4454 2.19463 2.23171 0
M  V30 80 C 9.9204 3.3767 3.09424 0
M  V30 81 N 11.4114 3.37724 3.17012 0
M  V30 82 C 12.1464 4.25837 3.83993 0
M  V30 83 N 11.6424 5.24138 4.53047 0
M  V30 84 N 13.4354 4.1366 3.80581 0
M  V30 85 H 5.5864 2.0565 0.531194 0
M  V30 86 H 7.8494 0.90024 0.297106 0
M  V30 87 H 7.5554 3.10684 1.64828 0
M  V30 88 H 7.4294 2.13923 3.10672 0
M  V30 89 H 9.8164 1.24632 2.6749 0
M  V30 90 H 9.8974 2.2488 1.21912 0
M  V30 91 H 9.5414 4.32791 2.65808 0
M  V30 92 H 9.4714 3.29491 4.10784 0
M  V30 93 H 11.9624 2.6658 2.6785 0
M  V30 94 H 12.2754 5.87684 5.01844 0
M  V30 95 H 10.6204 5.28068 4.5185 0
M  V30 96 H 13.8114 3.36127 3.25785 0
M  V30 97 H 13.9844 4.82538 4.32505 0
M  V30 98 N 7.3905 -1.2043 1.01659 0
M  V30 99 C 8.3225 -2.22626 0.544988 0
M  V30 100 C 9.3355 -1.58479 -0.372609 0
M  V30 101 O 10.5245 -1.77679 -0.170958 0
M  V30 102 C 7.6245 -3.38141 -0.22663 0
M  V30 103 C 6.7975 -4.31877 0.692876 0
M  V30 104 C 5.8565 -5.26191 -0.0311616 0
M  V30 105 O 4.8825 -5.6612 0.591343 0
M  V30 106 N 6.0845 -5.65618 -1.30601 0
M  V30 107 H 8.8495 -2.63716 1.42388 0
M  V30 108 H 6.4105 -1.34971 0.894116 0
M  V30 109 H 8.4025 -3.98239 -0.72024 0
M  V30 110 H 6.9725 -2.95943 -1.00681 0
M  V30 111 H 6.1925 -3.69746 1.36679 0
M  V30 112 H 7.4805 -4.91426 1.31824 0
M  V30 113 H 6.8785 -5.3519 -1.83269 0
M  V30 114 H 5.4355 -6.28025 -1.74435 0
M  V30 115 N 8.8686 -0.792821 -1.36206 0
M  V30 116 C 9.8006 -0.151469 -2.28699 0
M  V30 117 C 10.8136 0.641262 -1.49638 0
M  V30 118 O 12.0026 0.475885 -1.72039 0
M  V30 119 C 9.1026 0.808424 -3.29117 0
M  V30 120 C 8.2756 0.0650202 -4.37352 0
M  V30 121 C 7.3346 0.941358 -5.17711 0
M  V30 122 O 6.3606 0.397352 -5.67811 0
M  V30 123 N 7.5626 2.2652 -5.3448 0
M  V30 124 H 10.3276 -0.945982 -2.84379 0
M  V30 125 H 7.8886 -0.647032 -1.48409 0
M  V30 126 H 9.8806 1.3986 -3.79765 0
M  V30 127 H 8.4506 1.5038 -2.74052 0
M  V30 128 H 7.6706 -0.706255 -3.87822 0
M  V30 129 H 8.9586 -0.447847 -5.06825 0
M  V30 130 H 8.3566 2.73128 -4.95396 0
M  V30 131 H 6.9136 2.80493 -5.88359 0
M  V30 132 N 10.3467 1.47872 -0.545128 0
M  V30 133 C 11.5767 2.06589 -0.0210534 0
M  V30 134 C 11.9847 1.39997 1.27269 0
M  V30 135 O 11.3277 0.486421 1.77143 0
M  V30 136 C 11.3897 3.58574 0.257933 0
M  V30 137 C 11.0537 4.47132 -0.944573 0
M  V30 138 C 12.0507 4.85986 -1.84699 0
M  V30 139 C 9.7357 4.88821 -1.15584 0
M  V30 140 C 11.7297 5.65314 -2.94446 0
M  V30 141 C 9.4167 5.67916 -2.25642 0
M  V30 142 C 10.4147 6.06073 -3.14905 0
M  V30 143 O 10.1027 6.83578 -4.23057 0
M  V30 144 H 9.8347 0.674971 -0.0372899 0
M  V30 145 H 12.3887 1.91037 -0.754599 0
M  V30 146 H 10.6187 3.72295 1.04564 0
M  V30 147 H 12.3077 3.99356 0.72592 0
M  V30 148 H 13.0737 4.54388 -1.69577 0
M  V30 149 H 8.9527 4.58595 -0.470279 0
M  V30 150 H 12.4967 5.95016 -3.64145 0
M  V30 151 H 8.3937 5.98927 -2.40742 0
M  V30 152 H 9.1617 7.01954 -4.20954 0
M  V30 153 N 11.8248 0.280983 1.55075 0
M  V30 154 C 12.7878 -0.590896 2.21452 0
M  V30 155 C 13.7878 -1.07682 1.19421 0
M  V30 156 O 14.9778 -0.97605 1.44288 0
M  V30 157 C 12.1098 -1.81587 2.88511 0
M  V30 158 H 13.3028 -0.0112554 2.99898 0
M  V30 159 H 10.8558 0.0316438 1.56268 0
M  V30 160 H 11.5908 -2.43587 2.14093 0
M  V30 161 H 11.3758 -1.4753 3.63287 0
M  V30 162 H 12.8658 -2.43575 3.39206 0
M  V30 163 N 13.3029 -1.57598 0.00835791 0
M  V30 164 C 14.2129 -2.12385 -0.996487 0
M  V30 165 C 15.2289 -1.07108 -1.37127 0
M  V30 166 O 16.4049 -1.39055 -1.4569 0
M  V30 167 C 13.4699 -2.62314 -2.26699 0
M  V30 168 C 12.5309 -3.82225 -1.95456 0
M  V30 169 C 11.7639 -4.29763 -3.16449 0
M  V30 170 O 11.9869 -3.76584 -4.28416 0
M  V30 171 O 10.9209 -5.21832 -2.99958 0
M  V30 172 H 14.7469 -2.98479 -0.560725 0
M  V30 173 H 12.3319 -1.47903 -0.210987 0
M  V30 174 H 14.2139 -2.94589 -3.01322 0
M  V30 175 H 12.8889 -1.79313 -2.69497 0
M  V30 176 H 11.7959 -3.54909 -1.18282 0
M  V30 177 H 13.1289 -4.66324 -1.57489 0
M  V30 178 N 14.781 0.264519 -1.55364 0
M  V30 179 C 16.006 1.01726 -1.80739 0
M  V30 180 C 16.431 1.78836 -0.583044 0
M  V30 181 O 15.789 1.75167 0.467566 0
M  V30 182 C 15.837 1.94482 -3.03659 0
M  V30 183 O 14.941 3.03386 -2.7934 0
M  V30 184 H 14.282 0.290395 -0.597132 0
M  V30 185 H 16.812 0.290854 -2.02522 0
M  V30 186 H 16.822 2.36278 -3.32621 0
M  V30 187 H 15.497 1.37772 -3.92418 0
M  V30 188 H 14.074 2.65844 -2.61498 0
M  V30 189 N 16.2591 1.48442 0.529413 0
M  V30 190 C 17.4891 1.59919 1.30804 0
M  V30 191 C 17.8971 0.258792 1.87422 0
M  V30 192 O 17.2401 -0.762096 1.67146 0
M  V30 193 C 17.3021 2.58693 2.49636 0
M  V30 194 C 16.9661 4.03745 2.14101 0
M  V30 195 C 17.9631 4.9141 1.6974 0
M  V30 196 C 15.6481 4.49285 2.24607 0
M  V30 197 C 17.6421 6.22645 1.36351 0
M  V30 198 C 15.3291 5.8054 1.9083 0
M  V30 199 C 16.3271 6.67043 1.46773 0
M  V30 200 O 16.0151 7.95856 1.1344 0
M  V30 201 H 15.7471 0.541981 0.404021 0
M  V30 202 H 18.3011 1.95 0.645309 0
M  V30 203 H 16.5311 2.18734 3.18892 0
M  V30 204 H 18.2201 2.59999 3.11698 0
M  V30 205 H 18.9861 4.57465 1.61094 0
M  V30 206 H 14.8651 3.82142 2.57854 0
M  V30 207 H 18.4091 6.90119 1.01891 0
M  V30 208 H 14.3061 6.14022 1.99117 0
M  V30 209 H 15.0741 8.08613 1.26832 0
M  V30 210 N 17.7372 -0.778329 1.37039 0
M  V30 211 C 18.9852 -1.53361 1.31623 0
M  V30 212 C 19.3062 -1.94739 -0.100831 0
M  V30 213 O 18.5762 -1.65797 -1.04347 0
M  V30 214 H 17.1562 -0.568794 0.484234 0
M  V30 215 H 19.8182 -0.926742 1.71457 0
M  V30 216 H 18.9142 -2.43606 1.95096 0
M  V30 217 N 19.2153 -1.21501 -1.00376 0
M  V30 218 C 20.6263 -1.03146 -1.55621 0
M  V30 219 C 20.9773 0.408375 -1.91903 0
M  V30 220 O 20.1023 1.29177 -1.73616 0
M  V30 221 C 20.6973 -1.86612 -2.82775 0
M  V30 222 C 19.2563 -1.72586 -3.34501 0
M  V30 223 C 18.4033 -1.83747 -2.07683 0
M  V30 224 H 21.3543 -1.35505 -0.826081 0
M  V30 225 H 21.3753 -1.3771 -3.54706 0
M  V30 226 H 20.8873 -2.91399 -2.56336 0
M  V30 227 H 18.9883 -0.704877 -3.65872 0
M  V30 228 H 19.1013 -2.54623 -4.05837 0
M  V30 229 H 17.4653 -1.27069 -2.20739 0
M  V30 230 H 18.2483 -2.90044 -1.83655 0
M  V30 231 N 20.6934 1.19889 -1.02296 0
M  V30 232 C 21.9214 1.9339 -0.735399 0
M  V30 233 C 22.3364 1.75148 0.704887 0
M  V30 234 O 21.6934 1.06954 1.47875 0
M  V30 235 C 21.7444 3.45313 -1.06962 0
M  V30 236 O 21.4654 3.62964 -2.45334 0
M  V30 237 C 22.9664 4.35948 -0.804021 0
M  V30 238 H 20.1864 0.61448 -0.269546 0
M  V30 239 H 22.7304 1.522 -1.36585 0
M  V30 240 H 20.8854 3.84359 -0.484455 0
M  V30 241 H 21.2994 4.56886 -2.57595 0
M  V30 242 H 22.7734 5.41174 -1.0879 0
M  V30 243 H 23.2504 4.3842 0.261691 0
M  V30 244 H 23.8564 4.02574 -1.37164 0
M  V30 245 N 22.1715 0.800033 1.35784 0
M  V30 246 C 23.4175 0.377901 1.99248 0
M  V30 247 C 23.7505 -1.05052 1.63333 0
M  V30 248 O 23.0255 -1.72768 0.893385 0
M  V30 249 C 23.3085 0.553922 3.55814 0
M  V30 250 C 23.1615 2.0268 4.01548 0
M  V30 251 C 24.4805 -0.0244802 4.40093 0
M  V30 252 H 21.5995 0.138782 0.723815 0
M  V30 253 H 24.2415 1.00835 1.61035 0
M  V30 254 H 22.3915 0.0172398 3.88496 0
M  V30 255 H 24.0635 2.62536 3.79305 0
M  V30 256 H 22.3065 2.5256 3.52698 0
M  V30 257 H 22.9775 2.10087 5.10458 0
M  V30 258 H 25.4535 0.433775 4.13833 0
M  V30 259 H 24.3295 0.128637 5.48749 0
M  V30 260 H 24.5905 -1.11758 4.27741 0
M  V30 261 N 23.6496 -1.47581 0.552962 0
M  V30 262 C 24.8976 -2.02082 0.0272703 0
M  V30 263 C 25.2186 -1.4301 -1.32563 0
M  V30 264 O 24.4886 -0.603745 -1.86365 0
M  V30 265 H 23.0686 -0.746966 0.00709182 0
M  V30 266 H 25.7306 -1.81033 0.722008 0
M  V30 267 H 24.8266 -3.12034 -0.0639951 0
M  V30 268 N 25.1277 -0.289203 -1.54924 0
M  V30 269 C 26.4047 0.376032 -1.91951 0
M  V30 270 C 26.7847 1.72622 -1.21511 0
M  V30 271 O 26.1327 2.25853 -0.346767 0
M  V30 272 C 26.3427 0.502378 -3.45365 0
M  V30 273 C 27.6907 0.778741 -4.17398 0
M  V30 274 O 28.7147 0.586647 -3.51336 0
M  V30 275 O 27.5737 1.14698 -5.34328 0
M  V30 276 H 24.6677 0.208167 -0.800372 0
M  V30 277 H 27.2137 -0.336394 -1.66332 0
M  V30 278 H 25.9857 -0.447255 -3.88736 0
M  V30 279 H 25.6087 1.26373 -3.76982 0
M  V30 280 N 26.6058 1.57591 -0.0167156 0
M  V30 281 C 28.0218 1.55946 0.339557 0
M  V30 282 C 28.2218 1.02109 1.73713 0
M  V30 283 O 27.2778 0.662303 2.43659 0
M  V30 284 C 28.5908 3.00037 0.199499 0
M  V30 285 C 30.1388 3.11805 0.273193 0
M  V30 286 C 30.6138 4.57713 0.162068 0
M  V30 287 N 32.1048 4.6268 0.219444 0
M  V30 288 C 32.8398 5.73185 0.157054 0
M  V30 289 N 32.3358 6.92786 0.0442936 0
M  V30 290 N 34.1288 5.61707 0.21014 0
M  V30 291 H 26.2798 1.90921 -0.930758 0
M  V30 292 H 28.5428 0.877674 -0.358319 0
M  V30 293 H 28.2488 3.4333 -0.76273 0
M  V30 294 H 28.1228 3.64387 0.974786 0
M  V30 295 H 30.5098 2.68433 1.22587 0
M  V30 296 H 30.5908 2.50201 -0.532256 0
M  V30 297 H 30.2348 5.01763 -0.78714 0
M  V30 298 H 30.1648 5.17283 0.986222 0
M  V30 299 H 32.6558 3.76649 0.307246 0
M  V30 300 H 32.9688 7.728 0.00304069 0
M  V30 301 H 31.3138 6.94999 0.00968457 0
M  V30 302 H 34.5048 4.6716 0.296546 0
M  V30 303 H 34.6778 6.47807 0.158054 0
M  V30 304 N 28.0839 -0.256276 1.55502 0
M  V30 305 C 29.3299 -0.987079 1.77157 0
M  V30 306 C 29.6629 -1.85327 0.580315 0
M  V30 307 O 28.9379 -1.89874 -0.421686 0
M  V30 308 C 29.2209 -1.85553 3.08613 0
M  V30 309 C 29.0739 -1.01816 4.38125 0
M  V30 310 C 30.3929 -2.8397 3.36228 0
M  V30 311 H 27.5119 -0.357428 0.644526 0
M  V30 312 H 30.1539 -0.258239 1.88237 0
M  V30 313 H 28.3039 -2.47695 2.99298 0
M  V30 314 H 29.9759 -0.416159 4.59419 0
M  V30 315 H 28.2189 -0.322178 4.32602 0
M  V30 316 H 28.8899 -1.65939 5.26468 0
M  V30 317 H 31.3659 -2.31964 3.45445 0
M  V30 318 H 30.2419 -3.41864 4.29442 0
M  V30 319 H 30.5029 -3.59955 2.56681 0
M  V30 320 N 29.562 -1.4872 -0.521534 0
M  V30 321 C 30.978 -1.35028 -0.850855 0
M  V30 322 C 31.178 -0.367712 -1.98116 0
M  V30 323 O 30.234 0.208037 -2.51642 0
M  V30 324 C 31.547 -2.75263 -1.21041 0
M  V30 325 C 33.095 -2.83813 -1.31981 0
M  V30 326 C 33.57 -4.24769 -1.71276 0
M  V30 327 N 35.061 -4.27482 -1.78363 0
M  V30 328 C 35.796 -5.33494 -2.1017 0
M  V30 329 N 35.292 -6.49775 -2.40343 0
M  V30 330 N 37.085 -5.20894 -2.11248 0
M  V30 331 H 29.236 -2.11214 0.22413 0
M  V30 332 H 31.499 -0.947252 0.0376439 0
M  V30 333 H 31.205 -3.48765 -0.453415 0
M  V30 334 H 31.079 -3.09327 -2.15863 0
M  V30 335 H 33.466 -2.10561 -2.06756 0
M  V30 336 H 33.547 -2.53358 -0.352596 0
M  V30 337 H 33.191 -4.9854 -0.970588 0
M  V30 338 H 33.121 -4.52673 -2.69062 0
M  V30 339 H 35.612 -3.43611 -1.57288 0
M  V30 340 H 35.925 -7.26402 -2.63743 0
M  V30 341 H 34.27 -6.53035 -2.37844 0
M  V30 342 H 37.461 -4.29065 -1.87139 0
M  V30 343 H 37.634 -6.03612 -2.35704 0
M  V30 344 N 31.0401 0.771051 -1.3745 0
M  V30 345 C 31.9701 1.89827 -1.3597 0
M  V30 346 C 32.9511 1.68562 -0.228216 0
M  V30 347 O 34.1361 1.8941 -0.428675 0
M  V30 348 C 31.2661 3.2712 -1.16662 0
M  V30 349 C 30.2201 3.6295 -2.2683 0
M  V30 350 C 29.5461 4.98791 -1.92644 0
M  V30 351 C 30.8461 3.69627 -3.69017 0
M  V30 352 H 32.5401 1.91323 -2.30295 0
M  V30 353 H 30.0861 0.919082 -1.10855 0
M  V30 354 H 32.0391 4.05615 -1.14256 0
M  V30 355 H 30.7631 3.26059 -0.187926 0
M  V30 356 H 29.4221 2.86763 -2.28392 0
M  V30 357 H 29.0701 4.94271 -0.933021 0
M  V30 358 H 28.7701 5.23733 -2.66416 0
M  V30 359 H 30.2941 5.79685 -1.91826 0
M  V30 360 H 31.7081 4.38273 -3.69581 0
M  V30 361 H 30.1051 4.06067 -4.41848 0
M  V30 362 H 31.1751 2.70273 -4.02592 0
M  V30 363 N 32.5182 1.22032 0.997298 0
M  V30 364 C 33.4812 0.987909 2.06816 0
M  V30 365 C 34.4812 -0.0440084 1.6074 0
M  V30 366 O 35.6712 0.194053 1.73116 0
M  V30 367 C 32.8032 0.49132 3.37341 0
M  V30 368 H 33.9962 1.93803 2.28868 0
M  V30 369 H 31.5492 1.03838 1.16822 0
M  V30 370 H 32.2842 -0.463364 3.20973 0
M  V30 371 H 32.0692 1.23575 3.72118 0
M  V30 372 H 33.5592 0.348824 4.16141 0
M  V30 373 N 33.9963 -1.19345 1.0293 0
M  V30 374 C 35.2733 -1.84811 0.640642 0
M  V30 375 C 35.6533 -1.91855 -0.88062 0
M  V30 376 O 35.0013 -1.43587 -1.7775 0
M  V30 377 C 35.2113 -3.23755 1.30321 0
M  V30 378 C 36.5593 -3.99912 1.42673 0
M  V30 379 O 37.5833 -3.33155 1.26041 0
M  V30 380 O 36.4423 -5.19494 1.6967 0
M  V30 381 H 33.5363 -0.796443 0.222726 0
M  V30 382 H 36.0823 -1.26831 1.12748 0
M  V30 383 H 34.8543 -3.13466 2.34211 0
M  V30 384 H 34.4773 -3.89381 0.804261 0
M  V30 385 N 35.4744 -0.807222 -1.35358 0
M  V30 386 C 36.7024 -0.400377 -2.02989 0
M  V30 387 C 37.1174 0.988859 -1.60832 0
M  V30 388 O 36.4744 1.63729 -0.806175 0
M  V30 389 C 36.5254 -0.474867 -3.58368 0
M  V30 390 O 36.2464 -1.80933 -3.98992 0
M  V30 391 C 37.7474 -0.0609112 -4.43258 0
M  V30 392 H 34.9674 -0.162587 -0.651004 0
M  V30 393 H 37.5114 -1.09102 -1.72965 0
M  V30 394 H 35.6664 0.167534 -3.87038 0
M  V30 395 H 36.0804 -1.77256 -4.9364 0
M  V30 396 H 37.5544 -0.164145 -5.51756 0
M  V30 397 H 38.0314 0.993831 -4.27808 0
M  V30 398 H 38.6374 -0.676492 -4.19885 0
M  V30 399 N 36.9525 1.47285 -0.560781 0
M  V30 400 C 38.2295 1.9558 0.0277798 0
M  V30 401 C 38.6095 1.5034 1.48192 0
M  V30 402 O 37.9575 0.743882 2.16052 0
M  V30 403 C 38.1675 3.48789 -0.121418 0
M  V30 404 C 39.5155 4.24594 0.0220912 0
M  V30 405 O 40.5395 3.56166 -0.0491439 0
M  V30 406 O 39.3985 5.46217 0.175958 0
M  V30 407 H 36.4925 0.824663 0.0621342 0
M  V30 408 H 39.0385 1.5767 -0.627556 0
M  V30 409 H 37.8105 3.74533 -1.13316 0
M  V30 410 H 37.4335 3.93473 0.571366 0
M  V30 411 N 38.4306 0.297415 1.54768 0
M  V30 412 C 39.3606 -0.573494 2.26348 0
M  V30 413 C 40.3416 -1.14085 1.26169 0
M  V30 414 O 41.5266 -1.17086 1.54934 0
M  V30 415 C 38.6566 -1.74716 3.00153 0
M  V30 416 C 37.6106 -1.31032 4.07449 0
M  V30 417 C 36.9366 -2.56887 4.68949 0
M  V30 418 C 38.2366 -0.444183 5.20408 0
M  V30 419 H 39.9306 0.0235131 2.99391 0
M  V30 420 H 37.4766 0.0127488 1.43994 0
M  V30 421 H 39.4296 -2.3625 3.48947 0
M  V30 422 H 38.1536 -2.37035 2.24682 0
M  V30 423 H 36.8126 -0.718066 3.59499 0
M  V30 424 H 36.4606 -3.17512 3.90122 0
M  V30 425 H 36.1606 -2.2836 5.41411 0
M  V30 426 H 37.6846 -3.19229 5.20505 0
M  V30 427 H 39.0986 -0.9651 5.65118 0
M  V30 428 H 37.4956 -0.252846 5.99567 0
M  V30 429 H 38.5656 0.531609 4.81977 0
M  V30 430 N 39.9087 -1.5758 0.0250728 0
M  V30 431 C 41.1567 -1.91255 -0.653151 0
M  V30 432 C 41.4777 -0.901691 -1.729 0
M  V30 433 O 40.7477 0.0573785 -1.95816 0
M  V30 434 H 39.3277 -0.705942 -0.244243 0
M  V30 435 H 41.9897 -1.94767 0.0719209 0
M  V30 436 H 41.0857 -2.91752 -1.10847 0
M  V30 437 N 41.3868 0.248026 -1.55636 0
M  V30 438 C 42.2968 1.32859 -1.93354 0
M  V30 439 C 43.3128 1.52719 -0.833838 0
M  V30 440 O 44.4888 1.66363 -1.13513 0
M  V30 441 C 41.5538 2.66337 -2.21958 0
M  V30 442 C 40.6148 2.55008 -3.45354 0
M  V30 443 C 39.8478 3.82121 -3.72584 0
M  V30 444 O 40.0708 4.83951 -3.01907 0
M  V30 445 O 39.0048 3.80822 -4.6611 0
M  V30 446 H 42.8308 1.03862 -2.85388 0
M  V30 447 H 40.4158 0.448686 -1.42503 0
M  V30 448 H 42.2978 3.45216 -2.4167 0
M  V30 449 H 40.9728 2.95068 -1.33103 0
M  V30 450 H 39.8798 1.7442 -3.30951 0
M  V30 451 H 41.2128 2.31222 -4.34508 0
M  V30 452 N 42.8649 1.48995 0.513639 0
M  V30 453 C 44.1109 1.58076 1.27042 0
M  V30 454 C 44.4439 0.261026 1.92438 0
M  V30 455 O 43.7189 -0.734393 1.80103 0
M  V30 456 C 44.0019 2.73091 2.34719 0
M  V30 457 C 43.8549 4.14821 1.73907 0
M  V30 458 C 45.1739 2.83796 3.36375 0
M  V30 459 H 42.2929 0.575391 0.460536 0
M  V30 460 H 44.9349 1.81232 0.570516 0
M  V30 461 H 43.0849 2.53479 2.94416 0
M  V30 462 H 44.7569 4.45917 1.18135 0
M  V30 463 H 42.9999 4.21058 1.0437 0
M  V30 464 H 43.6709 4.91147 2.51949 0
M  V30 465 H 46.1469 3.01611 2.86653 0
M  V30 466 H 45.0229 3.65971 4.09093 0
M  V30 467 H 45.2839 1.92624 3.9793 0
M  V30 468 N 44.343 -0.763751 1.37857 0
M  V30 469 C 45.253 -1.90817 1.36478 0
M  V30 470 C 46.269 -1.71997 0.263248 0
M  V30 471 O 47.445 -1.95095 0.499979 0
M  V30 472 C 44.51 -3.2605 1.17864 0
M  V30 473 C 43.571 -3.57467 2.3773 0
M  V30 474 C 42.804 -4.86249 2.19995 0
M  V30 475 O 43.027 -5.57884 1.18836 0
M  V30 476 O 41.961 -5.16911 3.08361 0
M  V30 477 H 45.787 -1.94933 2.32884 0
M  V30 478 H 43.372 -0.907619 1.1867 0
M  V30 479 H 45.254 -4.06924 1.09504 0
M  V30 480 H 43.929 -3.22769 0.245372 0
M  V30 481 H 42.836 -2.76796 2.51664 0
M  V30 482 H 44.169 -3.655 3.29652 0
M  V30 483 N 45.8211 -1.22559 -0.990812 0
M  V30 484 C 46.7681 -0.997519 -2.0813 0
M  V30 485 C 47.7381 0.0814702 -1.659 0
M  V30 486 O 48.9231 -0.0685424 -1.90677 0
M  V30 487 C 46.0631 -0.583615 -3.40129 0
M  V30 488 C 45.1761 -1.7336 -3.9569 0
M  V30 489 C 44.3111 -1.26748 -5.15857 0
M  V30 490 C 43.3501 -2.38888 -5.63559 0
M  V30 491 N 42.4871 -1.93308 -6.74964 0
M  V30 492 H 47.3271 -1.93099 -2.26973 0
M  V30 493 H 44.8641 -0.962114 -1.11273 0
M  V30 494 H 46.8221 -0.324801 -4.15934 0
M  V30 495 H 45.4521 0.312845 -3.2128 0
M  V30 496 H 44.5041 -2.10669 -3.16738 0
M  V30 497 H 45.8161 -2.57704 -4.27071 0
M  V30 498 H 44.9701 -0.966173 -5.98957 0
M  V30 499 H 43.7091 -0.394272 -4.86104 0
M  V30 500 H 42.7141 -2.69805 -4.79046 0
M  V30 501 H 43.9391 -3.26728 -5.95336 0
M  V30 502 H 41.8851 -1.08352 -6.4699 0
M  V30 503 H 41.8021 -2.71217 -7.05675 0
M  V30 504 H 43.0701 -1.66252 -7.61564 0
M  V30 505 N 47.2992 1.18797 -1.03562 0
M  V30 506 C 48.5762 1.84469 -0.650434 0
M  V30 507 C 48.9562 1.92319 0.870433 0
M  V30 508 O 48.3042 1.44528 1.76986 0
M  V30 509 C 48.5142 3.2306 -1.32036 0
M  V30 510 C 49.8622 3.9915 -1.44792 0
M  V30 511 O 50.8862 3.32481 -1.27806 0
M  V30 512 O 49.7452 5.18587 -1.72423 0
M  V30 513 H 46.8392 0.795251 -0.226946 0
M  V30 514 H 49.3852 1.26231 -1.13419 0
M  V30 515 H 48.1572 3.1222 -2.3587 0
M  V30 516 H 47.7802 3.88949 -0.8249 0
M  V30 517 N 48.7773 0.814389 1.34928 0
M  V30 518 C 50.0073 0.41054 2.0248 0
M  V30 519 C 50.4153 -0.985625 1.61499 0
M  V30 520 O 49.7583 -1.64781 0.811976 0
M  V30 521 C 49.8203 0.423384 3.56998 0
M  V30 522 C 49.4843 1.77141 4.21272 0
M  V30 523 C 50.4813 2.73093 4.42398 0
M  V30 524 C 48.1663 2.05755 4.58225 0
M  V30 525 C 50.1603 3.95838 4.9959 0
M  V30 526 C 47.8473 3.28762 5.1513 0
M  V30 527 C 48.8453 4.23621 5.35755 0
M  V30 528 O 48.5333 5.44456 5.91458 0
M  V30 529 H 48.2653 0.163997 0.655806 0
M  V30 530 H 50.8193 1.10155 1.73364 0
M  V30 531 H 49.0493 -0.324276 3.85338 0
M  V30 532 H 50.7383 0.0407683 4.0588 0
M  V30 533 H 51.5043 2.5228 4.14222 0
M  V30 534 H 47.3833 1.32727 4.4148 0
M  V30 535 H 50.9273 4.69891 5.15605 0
M  V30 536 H 46.8243 3.49443 5.42734 0
M  V30 537 H 47.5923 5.4586 6.09901 0
M  V30 538 N 50.2554 -1.46986 0.568584 0
M  V30 539 C 51.4854 -2.0653 0.0539173 0
M  V30 540 C 51.8934 -1.42004 -1.25026 0
M  V30 541 O 51.2364 -0.514541 -1.76347 0
M  V30 542 C 51.2984 -3.58938 -0.200854 0
M  V30 543 C 50.9624 -4.45572 1.01559 0
M  V30 544 C 51.9594 -4.82986 1.92407 0
M  V30 545 C 49.6444 -4.8692 1.23346 0
M  V30 546 C 51.6384 -5.60559 3.03402 0
M  V30 547 C 49.3254 -5.64255 2.34649 0
M  V30 548 C 50.3234 -6.00986 3.24507 0
M  V30 549 O 50.0114 -6.76761 4.33878 0
M  V30 550 H 49.7434 -0.674292 0.0480234 0
M  V30 551 H 52.2974 -1.89812 0.784896 0
M  V30 552 H 50.5274 -3.73911 -0.986279 0
M  V30 553 H 52.2164 -4.0046 -0.662294 0
M  V30 554 H 52.9824 -4.51633 1.76785 0
M  V30 555 H 48.8614 -4.57789 0.543178 0
M  V30 556 H 52.4054 -5.89147 3.73565 0
M  V30 557 H 48.3024 -5.95021 2.5024 0
M  V30 558 H 49.0704 -6.95168 4.32068 0
M  V30 559 N 51.7335 -0.305618 -1.54608 0
M  V30 560 C 52.9635 0.304333 -2.04346 0
M  V30 561 C 53.3715 1.47715 -1.18224 0
M  V30 562 O 52.7145 1.82591 -0.201577 0
M  V30 563 C 52.7765 0.819031 -3.50046 0
M  V30 564 C 52.4405 -0.22912 -4.56425 0
M  V30 565 C 53.4375 -1.05914 -5.08997 0
M  V30 566 C 51.1225 -0.372148 -5.0092 0
M  V30 567 C 53.1165 -2.01809 -6.04609 0
M  V30 568 C 50.8035 -1.33454 -5.9635 0
M  V30 569 C 51.8015 -2.15599 -6.48079 0
M  V30 570 O 51.4895 -3.10205 -7.41639 0
M  V30 571 H 51.2215 0.0693996 -0.672428 0
M  V30 572 H 53.7755 -0.444548 -2.00532 0
M  V30 573 H 52.0055 1.61852 -3.51199 0
M  V30 574 H 53.6945 1.34537 -3.82955 0
M  V30 575 H 54.4605 -0.959538 -4.75413 0
M  V30 576 H 50.3395 0.257304 -4.60281 0
M  V30 577 H 53.8835 -2.65966 -6.44909 0
M  V30 578 H 49.7805 -1.43485 -6.29351 0
M  V30 579 H 50.5485 -3.05237 -7.59455 0
M  V30 580 N 53.2116 1.57565 -0.0334293 0
M  V30 581 C 54.1416 2.13511 0.945265 0
M  V30 582 C 55.1226 1.05231 1.33643 0
M  V30 583 O 56.3076 1.33084 1.41429 0
M  V30 584 C 53.4376 2.6657 2.22616 0
M  V30 585 C 52.3916 3.79676 1.97561 0
M  V30 586 C 51.7176 4.1918 3.31952 0
M  V30 587 C 53.0176 5.0557 1.31135 0
M  V30 588 H 54.7116 2.95538 0.479325 0
M  V30 589 H 52.2576 1.42166 0.229115 0
M  V30 590 H 54.2106 3.04344 2.91466 0
M  V30 591 H 52.9346 1.8171 2.71384 0
M  V30 592 H 51.5936 3.42347 1.31127 0
M  V30 593 H 51.2416 3.31296 3.78487 0
M  V30 594 H 50.9416 4.95402 3.15992 0
M  V30 595 H 52.4656 4.59541 4.02063 0
M  V30 596 H 53.8796 5.40903 1.89992 0
M  V30 597 H 52.2766 5.86818 1.25559 0
M  V30 598 H 53.3466 4.84062 0.284894 0
M  V30 599 N 54.6897 -0.239769 1.55765 0
M  V30 600 C 55.9377 -0.964892 1.77579 0
M  V30 601 C 56.2587 -1.85582 0.598699 0
M  V30 602 O 55.5287 -1.92075 -0.385226 0
M  V30 603 H 54.1087 -0.359265 0.654933 0
M  V30 604 H 56.7707 -0.256001 1.93211 0
M  V30 605 H 55.8667 -1.58243 2.69009 0
M  V30 606 N 56.1678 -1.49265 -0.50573 0
M  V30 607 C 57.4448 -1.49012 -1.26707 0
M  V30 608 C 57.8248 -0.215205 -2.1 0
M  V30 609 O 57.1728 0.802547 -2.13943 0
M  V30 610 C 57.3828 -2.7663 -2.12783 0
M  V30 611 C 58.7308 -3.25932 -2.72127 0
M  V30 612 O 59.7548 -2.77715 -2.23054 0
M  V30 613 O 58.6138 -4.09897 -3.61451 0
M  V30 614 H 55.7078 -0.596197 -0.57313 0
M  V30 615 H 58.2538 -1.61524 -0.52039 0
M  V30 616 H 57.0258 -3.60916 -1.5118 0
M  V30 617 H 56.6488 -2.66956 -2.94653 0
M  V30 618 N 57.6459 0.756429 -1.3826 0
M  V30 619 C 58.5559 1.9009 -1.37488 0
M  V30 620 C 59.5719 1.71855 -0.272366 0
M  V30 621 O 60.7479 1.94827 -0.510318 0
M  V30 622 C 57.8129 3.25421 -1.19592 0
M  V30 623 C 56.8739 3.56202 -2.39622 0
M  V30 624 C 56.1069 4.85075 -2.2257 0
M  V30 625 O 56.3299 5.57246 -1.21793 0
M  V30 626 O 55.2639 5.15269 -3.11098 0
M  V30 627 H 59.0899 1.93695 -2.33914 0
M  V30 628 H 56.6749 0.901313 -1.1915 0
M  V30 629 H 58.5569 4.06337 -1.11661 0
M  V30 630 H 57.2319 3.22634 -0.262486 0
M  V30 631 H 56.1389 2.75458 -2.53128 0
M  V30 632 H 57.4719 3.63747 -3.31586 0
M  V30 633 N 59.124 1.23083 0.984299 0
M  V30 634 C 60.37 1.06214 1.72761 0
M  V30 635 C 60.703 -0.400584 1.90024 0
M  V30 636 O 59.978 -1.29672 1.44967 0
M  V30 637 C 60.261 1.78375 3.12817 0
M  V30 638 C 60.114 3.32296 3.03149 0
M  V30 639 C 61.433 1.54309 4.12161 0
M  V30 640 H 58.552 0.387251 0.627061 0
M  V30 641 H 61.194 1.51536 1.14616 0
M  V30 642 H 59.344 1.39848 3.62457 0
M  V30 643 H 61.016 3.8032 2.61064 0
M  V30 644 H 59.259 3.6153 2.39747 0
M  V30 645 H 59.93 3.77972 4.02295 0
M  V30 646 H 62.406 1.87791 3.71314 0
M  V30 647 H 61.282 2.07281 5.08258 0
M  V30 648 H 61.543 0.477572 4.39513 0
M  V30 649 N 60.6021 -1.18246 1.0419 0
M  V30 650 C 61.5501 -2.23968 0.627792 0
M  V30 651 C 62.5441 -1.65828 -0.346019 0
M  V30 652 O 63.7501 -1.78733 -0.213175 0
M  V30 653 H 60.1251 -0.728939 0.184802 0
M  V30 654 H 62.0961 -2.56202 1.52981 0
M  V30 655 C 60.8451 -3.47699 0.00796591 0
M  V30 656 H 60.1681 -3.92734 0.748347 0
M  V30 657 H 61.6081 -4.23294 -0.24455 0
M  V30 658 C 60.0671 -3.13153 -1.24246 0
M  V30 659 O 60.5971 -3.27003 -2.33307 0
M  V30 660 N 58.8031 -2.67467 -1.13622 0
M  V30 661 H 58.3501 -2.56396 -0.248734 0
M  V30 662 H 58.3081 -2.44724 -1.97377 0
M  V30 663 N 62.0802 -0.821533 -1.34494 0
M  V30 664 C 63.3272 -0.408946 -1.98328 0
M  V30 665 C 63.6552 1.02764 -1.65136 0
M  V30 666 O 62.9102 1.73026 -0.914349 0
M  V30 667 C 63.2092 -0.556512 -3.53041 0
M  V30 668 C 62.8752 -1.95861 -4.0614 0
M  V30 669 C 61.5372 -2.34217 -4.20352 0
M  V30 670 C 63.8892 -2.87523 -4.34718 0
M  V30 671 C 61.2172 -3.63572 -4.6047 0
M  V30 672 C 63.5692 -4.1634 -4.76281 0
M  V30 673 C 62.2332 -4.54675 -4.88699 0
M  V30 674 H 61.5032 -0.149644 -0.725732 0
M  V30 675 H 64.1502 -1.04521 -1.6046 0
M  V30 676 H 62.4552 0.163148 -3.9146 0
M  V30 677 H 64.1522 -0.217826 -4.00408 0
M  V30 678 H 60.7422 -1.65066 -3.95539 0
M  V30 679 H 64.9262 -2.59133 -4.23277 0
M  V30 680 H 60.1822 -3.93101 -4.68275 0
M  V30 681 H 64.3562 -4.87455 -4.97354 0
M  V30 682 H 61.9832 -5.54959 -5.19542 0
M  V30 683 N 63.5583 1.46682 -0.576371 0
M  V30 684 C 64.8063 2.02013 -0.0594163 0
M  V30 685 C 65.1273 1.45101 1.30271 0
M  V30 686 O 64.3973 0.633317 1.8538 0
M  V30 687 H 62.9773 0.746759 -0.0189745 0
M  V30 688 H 65.6393 1.79862 -0.750717 0
M  V30 689 H 64.7353 3.12097 0.014345 0
M  V30 690 N 65.0364 0.313813 1.54444 0
M  V30 691 C 66.2844 -0.291099 1.99993 0
M  V30 692 C 66.6054 -1.53418 1.20366 0
M  V30 693 O 65.8754 -1.93544 0.302927 0
M  V30 694 H 64.4554 -0.110552 0.738774 0
M  V30 695 H 67.1174 0.428106 1.9014 0
M  V30 696 H 66.2134 -0.554268 3.07139 0
M  V30 697 N 66.5145 -1.57545 0.0417849 0
M  V30 698 C 67.7625 -1.91937 -0.632829 0
M  V30 699 C 68.0835 -0.919978 -1.71934 0
M  V30 700 O 67.3535 0.0366064 -1.95866 0
M  V30 701 H 65.9335 -0.708493 -0.236742 0
M  V30 702 H 68.5955 -1.9468 0.0925745 0
M  V30 703 H 67.6915 -2.92912 -1.07746 0
M  V30 704 N 67.9926 0.231505 -1.5589 0
M  V30 705 C 68.9396 1.28682 -1.91598 0
M  V30 706 C 69.9096 1.47071 -0.771974 0
M  V30 707 O 71.0946 1.60802 -1.027 0
M  V30 708 C 68.2346 2.6342 -2.22944 0
M  V30 709 C 67.3476 2.52912 -3.50228 0
M  V30 710 C 66.4826 3.80106 -3.7107 0
M  V30 711 C 65.5216 3.64279 -4.91902 0
M  V30 712 N 64.6586 4.834 -5.09184 0
M  V30 713 H 69.4986 0.975305 -2.81588 0
M  V30 714 H 67.0356 0.470299 -1.39379 0
M  V30 715 H 68.9936 3.41869 -2.39126 0
M  V30 716 H 67.6236 2.92687 -1.36139 0
M  V30 717 H 66.6756 1.6595 -3.42294 0
M  V30 718 H 67.9876 2.37133 -4.38827 0
M  V30 719 H 67.1416 4.66999 -3.87295 0
M  V30 720 H 65.8806 3.98799 -2.80733 0
M  V30 721 H 64.8856 2.7577 -4.75637 0
M  V30 722 H 66.1106 3.47067 -5.83714 0
M  V30 723 H 64.0566 5.02425 -4.21788 0
M  V30 724 H 63.9736 4.70311 -5.91898 0
M  V30 725 H 65.2416 5.71747 -5.29835 0
M  V30 726 N 69.4707 1.49531 0.497807 0
M  V30 727 C 70.7167 1.59415 1.25358 0
M  V30 728 C 71.0497 0.281422 1.9215 0
M  V30 729 O 70.3247 -0.715249 1.80871 0
M  V30 730 C 70.6077 2.75566 2.3181 0
M  V30 731 C 70.4607 4.16642 1.69498 0
M  V30 732 C 71.7797 2.87347 3.33346 0
M  V30 733 H 68.8987 0.580244 0.454408 0
M  V30 734 H 71.5407 1.81827 0.551262 0
M  V30 735 H 69.6907 2.56587 2.91711 0
M  V30 736 H 71.3627 4.47145 1.13399 0
M  V30 737 H 69.6057 4.22141 0.998978 0
M  V30 738 H 70.2767 4.93792 2.46725 0
M  V30 739 H 72.7527 3.04634 2.83438 0
M  V30 740 H 71.6287 3.70289 4.05188 0
M  V30 741 H 71.8897 1.96834 3.95865 0
M  V30 742 N 70.9488 -0.749086 1.3866 0
M  V30 743 C 71.8788 -1.8764 1.38973 0
M  V30 744 C 72.8598 -1.68178 0.255004 0
M  V30 745 O 74.0448 -1.88704 0.458754 0
M  V30 746 C 71.1748 -3.25222 1.21851 0
M  V30 747 C 70.1288 -3.59295 2.32575 0
M  V30 748 C 69.4548 -4.95663 2.00555 0
M  V30 749 C 70.7548 -3.63709 3.7485 0
M  V30 750 H 72.4488 -1.87635 2.3331 0
M  V30 751 H 69.9948 -0.901329 1.12303 0
M  V30 752 H 71.9478 -4.03746 1.20695 0
M  V30 753 H 70.6718 -3.25719 0.239775 0
M  V30 754 H 69.3308 -2.83093 2.32925 0
M  V30 755 H 68.9788 -4.92724 1.01154 0
M  V30 756 H 68.6788 -5.19429 2.74714 0
M  V30 757 H 70.2028 -5.7656 2.01024 0
M  V30 758 H 71.6168 -4.32338 3.76506 0
M  V30 759 H 70.0138 -3.98986 4.48252 0
M  V30 760 H 71.0838 -2.63834 4.06841 0
M  V30 761 N 72.4269 -1.23603 -0.977757 0
M  V30 762 C 73.8429 -0.999251 -1.24447 0
M  V30 763 C 74.0429 0.298053 -1.99283 0
M  V30 764 O 73.0989 1.01681 -2.31122 0
M  V30 765 C 74.4119 -2.20784 -2.04144 0
M  V30 766 C 75.9599 -2.25303 -2.17273 0
M  V30 767 C 76.4349 -3.45755 -3.00362 0
M  V30 768 N 77.9259 -3.4601 -3.07947 0
M  V30 769 C 78.6609 -4.35868 -3.72568 0
M  V30 770 N 78.1569 -5.35966 -4.38991 0
M  V30 771 N 79.9499 -4.23605 -3.6948 0
M  V30 772 H 72.1009 -2.06986 -0.476483 0
M  V30 773 H 74.3639 -0.907801 -0.273134 0
M  V30 774 H 74.0699 -3.14945 -1.56533 0
M  V30 775 H 73.9439 -2.22085 -3.04891 0
M  V30 776 H 76.3309 -1.3168 -2.64092 0
M  V30 777 H 76.4119 -2.28033 -1.15907 0
M  V30 778 H 76.0559 -4.39687 -2.5424 0
M  V30 779 H 75.9859 -3.40266 -4.01904 0
M  V30 780 H 78.4769 -2.73588 -2.60688 0
M  V30 781 H 78.7899 -6.00783 -4.86086 0
M  V30 782 H 77.1349 -5.39863 -4.37691 0
M  V30 783 H 80.3259 -3.44647 -3.16759 0
M  V30 784 H 80.4989 -4.93836 -4.1956 0
M  V30 785 N 73.905 1.17692 -1.04816 0
M  V30 786 C 74.815 2.25229 -0.65643 0
M  V30 787 C 75.831 1.71018 0.320761 0
M  V30 788 O 77.007 2.00649 0.173805 0
M  V30 789 C 74.072 3.46684 -0.0332629 0
M  V30 790 C 73.133 4.15997 -1.06042 0
M  V30 791 C 72.366 5.31654 -0.466893 0
M  V30 792 O 72.589 5.65777 0.724758 0
M  V30 793 O 71.523 5.89831 -1.1993 0
M  V30 794 H 75.349 2.61016 -1.55255 0
M  V30 795 H 72.934 1.24919 -0.81949 0
M  V30 796 H 74.816 4.20234 0.313256 0
M  V30 797 H 73.491 3.12703 0.836566 0
M  V30 798 H 72.398 3.44482 -1.45886 0
M  V30 799 H 73.731 4.53996 -1.90127 0
M  V30 800 N 75.3831 0.828654 1.34056 0
M  V30 801 C 76.6311 0.41863 1.97717 0
M  V30 802 C 76.9521 -1.02314 1.66002 0
M  V30 803 O 76.2221 -1.71119 0.953683 0
M  V30 804 H 74.8021 0.151809 0.731412 0
M  V30 805 H 77.4641 1.05936 1.63596 0
M  V30 806 H 76.5601 0.542318 3.07352 0
M  V30 807 N 76.8612 -1.46375 0.584142 0
M  V30 808 C 77.7942 -2.27351 -0.196676 0
M  V30 809 C 78.7722 -1.35715 -0.895561 0
M  V30 810 O 79.9562 -1.65126 -0.90916 0
M  V30 811 C 77.0832 -3.13486 -1.28235 0
M  V30 812 C 76.1292 -4.20896 -0.689145 0
M  V30 813 S 76.9622 -5.33299 0.48507 0
M  V30 814 C 78.1182 -6.23 -0.601767 0
M  V30 815 H 78.3512 -2.93228 0.490395 0
M  V30 816 H 75.8842 -1.49875 0.371071 0
M  V30 817 H 77.8422 -3.63676 -1.90395 0
M  V30 818 H 76.5032 -2.4692 -1.94138 0
M  V30 819 H 75.6962 -4.80997 -1.50527 0
M  V30 820 H 75.2982 -3.73726 -0.143181 0
M  V30 821 H 77.5902 -6.60979 -1.48705 0
M  V30 822 H 78.5332 -7.0809 -0.0374799 0
M  V30 823 H 78.9412 -5.57173 -0.906557 0
M  V30 824 N 78.3393 -0.321999 -1.54275 0
M  V30 825 C 79.5873 0.280489 -2.00144 0
M  V30 826 C 79.9083 1.52777 -1.21178 0
M  V30 827 O 79.1783 1.9338 -0.313187 0
M  V30 828 H 77.7583 0.106632 -0.73935 0
M  V30 829 H 80.4203 -0.438184 -1.8991 0
M  V30 830 H 79.5163 0.537972 -3.07428 0
M  V30 831 N 79.8174 1.5752 -0.0501392 0
M  V30 832 C 80.7274 2.14952 0.939827 0
M  V30 833 C 81.7434 1.10706 1.34239 0
M  V30 834 O 82.9194 1.42869 1.41952 0
M  V30 835 C 79.9844 2.68232 2.19665 0
M  V30 836 C 79.0454 3.87272 1.85253 0
M  V30 837 C 78.2784 4.38002 3.04943 0
M  V30 838 O 78.5014 3.87811 4.18281 0
M  V30 839 O 77.4354 5.29602 2.86017 0
M  V30 840 H 81.2614 2.9986 0.481392 0
M  V30 841 H 78.8464 1.4841 0.171699 0
M  V30 842 H 80.7284 3.02475 2.93406 0
M  V30 843 H 79.4034 1.86395 2.64648 0
M  V30 844 H 78.3104 3.5792 1.0883 0
M  V30 845 H 79.6434 4.70336 1.4507 0
M  V30 846 N 81.2955 -0.223234 1.56011 0
M  V30 847 C 82.2435 -1.29627 1.93131 0
M  V30 848 C 83.2375 -1.48608 0.813146 0
M  V30 849 O 84.4435 -1.49802 0.997966 0
M  V30 850 H 80.8185 -0.434563 0.613726 0
M  V30 851 H 82.7895 -0.955995 2.82672 0
M  V30 852 C 81.5385 -2.63983 2.26292 0
M  V30 853 H 80.8615 -2.50185 3.11846 0
M  V30 854 H 82.3015 -3.3788 2.56151 0
M  V30 855 C 80.7605 -3.18866 1.08747 0
M  V30 856 O 81.2905 -4.00192 0.347727 0
M  V30 857 N 79.4965 -2.77217 0.871743 0
M  V30 858 H 79.0435 -2.1119 1.47501 0
M  V30 859 H 79.0015 -3.1428 0.0869905 0
M  V30 860 N 82.7736 -1.49793 -0.48987 0
M  V30 861 C 84.0216 -1.59525 -1.24081 0
M  V30 862 C 84.3426 -0.288953 -1.92847 0
M  V30 863 O 83.6126 0.692436 -1.83254 0
M  V30 864 H 82.1926 -0.587796 -0.460983 0
M  V30 865 H 84.8546 -1.86477 -0.566778 0
M  V30 866 H 83.9506 -2.39696 -1.99881 0
M  V30 867 N 84.2517 0.741722 -1.39055 0
M  V30 868 C 85.4797 1.53098 -1.39171 0
M  V30 869 C 85.8947 1.88794 0.0155099 0
M  V30 870 O 85.2517 1.53626 0.985159 0
M  V30 871 C 85.3027 2.82274 -2.2584 0
M  V30 872 O 85.0237 2.48097 -3.61081 0
M  V30 873 C 86.5247 3.76343 -2.34266 0
M  V30 874 H 83.7447 0.473335 -0.4756 0
M  V30 875 H 86.2887 0.917045 -1.82785 0
M  V30 876 H 84.4437 3.40015 -1.85656 0
M  V30 877 H 84.8577 3.31029 -4.06842 0
M  V30 878 H 86.3317 4.63898 -2.9917 0
M  V30 879 H 86.8087 4.17619 -1.35982 0
M  V30 880 H 87.4147 3.24523 -2.74891 0
M  V30 881 N 85.7298 1.2412 0.971189 0
M  V30 882 C 86.9598 1.10415 1.7462 0
M  V30 883 C 87.3678 -0.346462 1.86001 0
M  V30 884 O 86.7108 -1.25104 1.34517 0
M  V30 885 C 86.7728 1.66596 3.18568 0
M  V30 886 C 86.4368 3.15446 3.3067 0
M  V30 887 C 87.4338 4.12636 3.16271 0
M  V30 888 C 85.1188 3.55337 3.55022 0
M  V30 889 C 87.1128 5.47699 3.26044 0
M  V30 890 C 84.7998 4.90542 3.64434 0
M  V30 891 C 85.7978 5.86532 3.49956 0
M  V30 892 O 85.4858 7.19279 3.59017 0
M  V30 893 H 85.2178 0.386616 0.55453 0
M  V30 894 H 87.7718 1.64633 1.22821 0
M  V30 895 H 86.0018 1.06808 3.71657 0
M  V30 896 H 87.6908 1.48232 3.77865 0
M  V30 897 H 88.4568 3.8316 2.97344 0
M  V30 898 H 84.3358 2.8113 3.65359 0
M  V30 899 H 87.8798 6.22603 3.14661 0
M  V30 900 H 83.7768 5.19691 3.82873 0
M  V30 901 H 84.5448 7.27153 3.75754 0
M  V30 902 N 87.2079 -1.17134 1.05439 0
M  V30 903 C 88.4359 -1.91372 0.786414 0
M  V30 904 C 88.8509 -1.76955 -0.658202 0
M  V30 905 O 88.2079 -1.10838 -1.44987 0
M  V30 906 C 88.2589 -3.42356 1.1608 0
M  V30 907 O 87.9799 -3.56332 2.54871 0
M  V30 908 C 89.4809 -4.33663 0.919322 0
M  V30 909 H 86.7009 -0.607118 0.285743 0
M  V30 910 H 89.2449 -1.48525 1.40572 0
M  V30 911 H 87.3999 -3.82939 0.586191 0
M  V30 912 H 87.8139 -4.49896 2.69618 0
M  V30 913 H 89.2879 -5.38099 1.231 0
M  V30 914 H 89.7649 -4.38959 -0.145359 0
M  V30 915 H 90.3709 -3.98796 1.47789 0
M  V30 916 N 88.686 -0.835752 -1.33615 0
M  V30 917 C 90.102 -0.523139 -1.50783 0
M  V30 918 C 90.302 0.950171 -1.77691 0
M  V30 919 O 89.358 1.73411 -1.83534 0
M  V30 920 C 90.671 -1.39378 -2.66448 0
M  V30 921 C 92.219 -1.39223 -2.80332 0
M  V30 922 C 92.694 -2.24765 -3.99055 0
M  V30 923 N 94.185 -2.22458 -4.06284 0
M  V30 924 C 94.92 -2.85386 -4.97336 0
M  V30 925 N 94.416 -3.57354 -5.93523 0
M  V30 926 N 96.209 -2.74872 -4.90308 0
M  V30 927 H 88.36 -1.78952 -1.14411 0
M  V30 928 H 90.623 -0.763297 -0.562212 0
M  V30 929 H 90.329 -2.44061 -2.53234 0
M  V30 930 H 90.203 -1.0676 -3.61776 0
M  V30 931 H 92.59 -0.353136 -2.92979 0
M  V30 932 H 92.671 -1.75846 -1.85773 0
M  V30 933 H 92.315 -3.28732 -3.87167 0
M  V30 934 H 92.245 -1.85485 -4.92852 0
M  V30 935 H 94.736 -1.70119 -3.37443 0
M  V30 936 H 95.049 -4.02584 -6.59656 0
M  V30 937 H 93.394 -3.61461 -5.93608 0
M  V30 938 H 96.585 -2.18213 -4.14126 0
M  V30 939 H 96.758 -3.24199 -5.61069 0
M  V30 940 N 90.1641 1.46063 -0.591896 0
M  V30 941 C 91.3921 2.06717 -0.0868936 0
M  V30 942 C 91.8071 1.43916 1.22203 0
M  V30 943 O 91.1641 0.547698 1.74088 0
M  V30 944 C 91.2151 3.6142 0.0758725 0
M  V30 945 O 90.9361 4.21874 -1.18126 0
M  V30 946 C 92.4371 4.39025 0.61416 0
M  V30 947 H 89.6571 0.668162 -0.0616518 0
M  V30 948 H 92.2011 1.8755 -0.815175 0
M  V30 949 H 90.3561 3.79983 0.754413 0
M  V30 950 H 90.7701 5.14861 -1.00092 0
M  V30 951 H 92.2441 5.4783 0.677193 0
M  V30 952 H 92.7211 4.07708 1.63312 0
M  V30 953 H 93.3271 4.2529 -0.0298142 0
M  V30 954 N 91.6422 0.330177 1.54103 0
M  V30 955 C 92.5522 -0.541534 2.28264 0
M  V30 956 C 93.5682 -1.12351 1.32866 0
M  V30 957 O 94.7442 -1.14206 1.65888 0
M  V30 958 C 91.8092 -1.68322 3.03098 0
M  V30 959 C 90.8702 -1.13238 4.14096 0
M  V30 960 C 90.1032 -2.21966 4.85352 0
M  V30 961 O 90.3262 -3.42437 4.56172 0
M  V30 962 O 89.2602 -1.87013 5.7211 0
M  V30 963 H 93.0862 0.060938 3.03639 0
M  V30 964 H 90.6712 0.09565 1.49093 0
M  V30 965 H 92.5532 -2.34777 3.49939 0
M  V30 966 H 91.2282 -2.27176 2.30593 0
M  V30 967 H 90.1352 -0.432736 3.71589 0
M  V30 968 H 91.4682 -0.588898 4.88664 0
M  V30 969 N 93.1203 -1.57491 0.0584922 0
M  V30 970 C 94.0683 -2.13148 -0.931168 0
M  V30 971 C 95.0623 -1.06507 -1.31729 0
M  V30 972 O 96.2683 -1.24906 -1.29609 0
M  V30 973 H 92.6433 -0.68137 -0.31818 0
M  V30 974 H 94.6143 -2.95187 -0.436707 0
M  V30 975 C 93.3633 -2.69732 -2.19408 0
M  V30 976 H 92.6863 -3.51454 -1.90578 0
M  V30 977 H 94.1263 -3.12287 -2.86798 0
M  V30 978 C 92.5853 -1.63855 -2.94369 0
M  V30 979 O 93.1153 -1.05565 -3.87581 0
M  V30 980 N 91.3213 -1.35202 -2.57233 0
M  V30 981 H 90.8683 -1.82791 -1.81508 0
M  V30 982 H 90.8263 -0.645922 -3.07693 0
M  V30 983 N 94.5984 0.214957 -1.56127 0
M  V30 984 C 95.8444 0.939762 -1.79712 0
M  V30 985 C 96.1774 1.83723 -0.629247 0
M  V30 986 O 95.4524 1.90925 0.371197 0
M  V30 987 C 95.7354 1.77306 -3.13424 0
M  V30 988 C 95.5884 0.90164 -4.40671 0
M  V30 989 C 96.9074 2.74956 -3.43638 0
M  V30 990 H 94.0264 0.340214 -0.653776 0
M  V30 991 H 96.6684 0.20824 -1.88855 0
M  V30 992 H 94.8184 2.39673 -3.0576 0
M  V30 993 H 96.4904 0.294206 -4.60361 0
M  V30 994 H 94.7334 0.207368 -4.33304 0
M  V30 995 H 95.4044 1.51923 -5.30682 0
M  V30 996 H 97.8804 2.22724 -3.51473 0
M  V30 997 H 96.7564 3.30358 -4.38355 0
M  V30 998 H 97.0174 3.53023 -2.66134 0
M  V30 999 N 96.0765 1.50051 0.48192 0
M  V30 1000 C 97.0065 1.71046 1.58951 0
M  V30 1001 C 97.9875 0.559288 1.60642 0
M  V30 1002 O 99.1725 0.797243 1.77081 0
M  V30 1003 C 96.3025 1.79462 2.97339 0
M  V30 1004 C 95.2565 2.94558 3.10515 0
M  V30 1005 C 94.5825 2.88105 4.50444 0
M  V30 1006 C 95.8825 4.35227 2.88747 0
M  V30 1007 H 97.5765 2.6378 1.41635 0
M  V30 1008 H 95.1225 1.26936 0.679942 0
M  V30 1009 H 97.0755 1.92734 3.74742 0
M  V30 1010 H 95.7995 0.833412 3.15788 0
M  V30 1011 H 94.4585 2.80918 2.35543 0
M  V30 1012 H 94.1065 1.89853 4.65795 0
M  V30 1013 H 93.8065 3.65366 4.60197 0
M  V30 1014 H 95.3305 3.03412 5.29881 0
M  V30 1015 H 96.7445 4.49449 3.55905 0
M  V30 1016 H 95.1415 5.13856 3.09955 0
M  V30 1017 H 96.2115 4.48347 1.84696 0
M  V30 1018 N 97.5546 -0.734337 1.39446 0
M  V30 1019 C 98.8316 -1.48579 1.27215 0
M  V30 1020 C 99.2116 -2.1077 -0.117968 0
M  V30 1021 O 98.5596 -1.98646 -1.12924 0
M  V30 1022 C 98.7696 -2.53667 2.39696 0
M  V30 1023 C 100.118 -3.20031 2.79044 0
M  V30 1024 O 101.142 -2.6398 2.39151 0
M  V30 1025 O 100.001 -4.21455 3.47905 0
M  V30 1026 H 97.0946 -0.659816 0.49857 0
M  V30 1027 H 99.6406 -0.768106 1.51322 0
M  V30 1028 H 98.4126 -2.06096 3.32626 0
M  V30 1029 H 98.0356 -3.32994 2.17258 0
M  V30 1030 N 99.0327 -1.24633 -0.964593 0
M  V30 1031 C 99.9627 -1.06611 -2.07741 0
M  V30 1032 C 100.944 0.0218666 -1.70086 0
M  V30 1033 O 102.129 -0.145793 -1.93652 0
M  V30 1034 C 99.2587 -0.673444 -3.40708 0
M  V30 1035 C 98.2127 -1.71054 -3.92332 0
M  V30 1036 C 97.5387 -1.17285 -5.21678 0
M  V30 1037 C 98.8387 -3.10718 -4.19824 0
M  V30 1038 H 100.533 -1.99693 -2.23076 0
M  V30 1039 H 98.0787 -0.96152 -1.07195 0
M  V30 1040 H 100.032 -0.534345 -4.17998 0
M  V30 1041 H 98.7557 0.293073 -3.25282 0
M  V30 1042 H 97.4147 -1.83791 -3.17201 0
M  V30 1043 H 97.0627 -0.196847 -5.02615 0
M  V30 1044 H 96.7627 -1.86592 -5.57187 0
M  V30 1045 H 98.2867 -1.04593 -6.01575 0
M  V30 1046 H 99.7007 -3.01192 -4.87808 0
M  V30 1047 H 98.0977 -3.77406 -4.66567 0
M  V30 1048 H 99.1677 -3.58524 -3.26479 0
M  V30 1049 N 100.511 1.16574 -1.06058 0
M  V30 1050 C 101.441 2.23057 -0.690488 0
M  V30 1051 C 102.422 1.67141 0.315901 0
M  V30 1052 O 103.607 1.93253 0.191556 0
M  V30 1053 C 100.737 3.47222 -0.073625 0
M  V30 1054 C 99.6908 4.16016 -1.00573 0
M  V30 1055 C 99.0168 5.34104 -0.252289 0
M  V30 1056 C 100.317 4.67264 -2.33371 0
M  V30 1057 H 102.011 2.54271 -1.58072 0
M  V30 1058 H 99.5568 1.22218 -0.76149 0
M  V30 1059 H 101.51 4.20939 0.19714 0
M  V30 1060 H 100.234 3.15302 0.85161 0
M  V30 1061 H 98.8928 3.44223 -1.2612 0
M  V30 1062 H 98.5408 4.98437 0.675988 0
M  V30 1063 H 98.2408 5.81072 -0.873455 0
M  V30 1064 H 99.7648 6.10599 0.0109857 0
M  V30 1065 H 101.179 5.32573 -2.12223 0
M  V30 1066 H 99.5758 5.24843 -2.90963 0
M  V30 1067 H 100.646 3.83602 -2.96611 0
M  V30 1068 N 101.989 0.842826 1.3317 0
M  V30 1069 C 102.919 0.294028 2.31641 0
M  V30 1070 C 103.9 -0.600401 1.59151 0
M  V30 1071 O 105.085 -0.523124 1.87022 0
M  V30 1072 C 102.215 -0.528416 3.43257 0
M  V30 1073 C 101.169 0.27056 4.27144 0
M  V30 1074 C 100.495 -0.675881 5.30411 0
M  V30 1075 C 101.795 1.48981 5.00602 0
M  V30 1076 H 103.489 1.11681 2.77791 0
M  V30 1077 H 101.035 0.538478 1.33553 0
M  V30 1078 H 102.988 -0.922674 4.11175 0
M  V30 1079 H 101.712 -1.38445 2.95805 0
M  V30 1080 H 100.371 0.646427 3.60856 0
M  V30 1081 H 100.019 -1.52842 4.79216 0
M  V30 1082 H 99.7189 -0.145374 5.8742 0
M  V30 1083 H 101.243 -1.06757 6.01195 0
M  V30 1084 H 102.657 1.16849 5.61266 0
M  V30 1085 H 101.054 1.95739 5.6728 0
M  V30 1086 H 102.124 2.25746 4.29147 0
M  V30 1087 N 103.467 -1.45747 0.599634 0
M  V30 1088 C 104.695 -2.06668 0.0978551 0
M  V30 1089 C 105.11 -1.44562 -1.21439 0
M  V30 1090 O 104.467 -0.556923 -1.73795 0
M  V30 1091 C 104.518 -3.61456 -0.0567044 0
M  V30 1092 O 104.239 -4.21242 1.20361 0
M  V30 1093 C 105.74 -4.39345 -0.590869 0
M  V30 1094 H 102.96 -0.667825 0.0651943 0
M  V30 1095 H 105.504 -1.87115 0.82511 0
M  V30 1096 H 103.659 -3.80378 -0.734251 0
M  V30 1097 H 104.073 -5.14323 1.02821 0
M  V30 1098 H 105.547 -5.48182 -0.648131 0
M  V30 1099 H 106.024 -4.08568 -1.61147 0
M  V30 1100 H 106.63 -4.25268 0.0523679 0
M  V30 1101 N 104.945 -0.338344 -1.53925 0
M  V30 1102 C 105.893 0.536231 -2.26335 0
M  V30 1103 C 106.887 1.1063 -1.28286 0
M  V30 1104 O 108.093 1.05264 -1.46012 0
M  V30 1105 H 104.468 0.191602 -0.727181 0
M  V30 1106 H 106.439 -0.0965747 -2.98244 0
M  V30 1107 C 105.188 1.67803 -3.04528 0
M  V30 1108 H 104.511 1.24864 -3.79801 0
M  V30 1109 H 105.951 2.26526 -3.58416 0
M  V30 1110 C 104.41 2.60439 -2.13712 0
M  V30 1111 O 104.94 3.6255 -1.72975 0
M  V30 1112 N 103.146 2.29006 -1.78898 0
M  V30 1113 H 102.693 1.46011 -2.12223 0
M  V30 1114 H 102.651 2.91248 -1.18416 0
M  V30 1115 N 106.423 1.57458 -0.0668435 0
M  V30 1116 C 107.386 2.11323 0.887422 0
M  V30 1117 C 108.386 1.03618 1.22964 0
M  V30 1118 O 109.576 1.29626 1.16373 0
M  V30 1119 C 106.708 2.61048 2.19242 0
M  V30 1120 H 107.901 2.96942 0.420194 0
M  V30 1121 H 105.454 1.55239 0.181793 0
M  V30 1122 H 106.189 1.78868 2.70512 0
M  V30 1123 H 105.974 3.39769 1.95702 0
M  V30 1124 H 107.464 3.02814 2.87565 0
M  V30 1125 N 107.901 -0.206675 1.56239 0
M  V30 1126 C 108.831 -1.25909 1.96645 0
M  V30 1127 C 109.812 -1.48097 0.836734 0
M  V30 1128 O 110.997 -1.6003 1.10019 0
M  V30 1129 C 108.127 -2.6058 2.29599 0
M  V30 1130 C 107.081 -2.53024 3.452 0
M  V30 1131 C 106.407 -3.91861 3.63798 0
M  V30 1132 C 107.707 -2.06524 4.79734 0
M  V30 1133 H 109.401 -0.923369 2.84806 0
M  V30 1134 H 106.947 -0.442735 1.37025 0
M  V30 1135 H 108.9 -3.34375 2.56459 0
M  V30 1136 H 107.624 -2.95869 1.38307 0
M  V30 1137 H 106.283 -1.81684 3.18412 0
M  V30 1138 H 105.931 -4.24483 2.69857 0
M  V30 1139 H 105.631 -3.87683 4.4156 0
M  V30 1140 H 107.155 -4.67296 3.93022 0
M  V30 1141 H 108.569 -2.70072 5.05702 0
M  V30 1142 H 106.966 -2.13374 5.60885 0
M  V30 1143 H 108.036 -1.01802 4.74093 0
M  V30 1144 N 109.379 -1.50304 -0.473955 0
M  V30 1145 C 110.628 -1.60392 -1.22301 0
M  V30 1146 C 110.941 -0.308411 -1.93153 0
M  V30 1147 O 112.147 -0.288156 -2.69966 0
M  V30 1148 C 110.603 -2.83109 -2.2221 0
M  V30 1149 C 110.211 -4.19524 -1.57173 0
M  V30 1150 C 111.955 -3.0254 -2.97775 0
M  V30 1151 C 109.862 -5.33431 -2.55353 0
M  V30 1152 H 108.792 -0.597286 -0.460179 0
M  V30 1153 H 111.443 -1.76731 -0.493803 0
M  V30 1154 H 109.825 -2.60322 -2.9841 0
M  V30 1155 H 110.999 -4.52554 -0.867824 0
M  V30 1156 H 109.314 -4.05674 -0.939002 0
M  V30 1157 H 111.911 -3.84811 -3.71248 0
M  V30 1158 H 112.254 -2.14154 -3.56992 0
M  V30 1159 H 112.787 -3.25494 -2.28688 0
M  V30 1160 H 109.526 -6.23962 -2.00878 0
M  V30 1161 H 109.046 -5.04823 -3.23904 0
M  V30 1162 H 110.725 -5.63887 -3.17239 0
M  V30 1163 N 110.857 0.726932 -1.39834 0
M  V30 1164 C 111.787 1.85405 -1.41941 0
M  V30 1165 C 112.768 1.67751 -0.281728 0
M  V30 1166 O 113.953 1.8795 -0.488717 0
M  V30 1167 C 111.083 3.23243 -1.2701 0
M  V30 1168 C 110.037 3.55549 -2.38262 0
M  V30 1169 C 109.363 4.9241 -2.08415 0
M  V30 1170 C 110.663 3.577 -3.80589 0
M  V30 1171 H 112.357 1.83899 -2.36266 0
M  V30 1172 H 109.903 0.883349 -1.13723 0
M  V30 1173 H 111.856 4.01775 -1.27103 0
M  V30 1174 H 110.58 3.25296 -0.291564 0
M  V30 1175 H 109.239 2.79351 -2.37399 0
M  V30 1176 H 108.887 4.91052 -1.0898 0
M  V30 1177 H 108.587 5.14992 -2.82943 0
M  V30 1178 H 110.111 5.73289 -2.10171 0
M  V30 1179 H 111.525 4.26293 -3.83337 0
M  V30 1180 H 109.922 3.91804 -4.54543 0
M  V30 1181 H 110.992 2.57328 -4.10987 0
M  V30 1182 N 112.336 1.25143 0.95797 0
M  V30 1183 C 113.613 1.00472 1.67823 0
M  V30 1184 C 113.993 -0.470056 2.058 0
M  V30 1185 O 113.341 -1.44663 1.76875 0
M  V30 1186 C 113.551 1.9372 2.90299 0
M  V30 1187 C 114.899 2.21371 3.62326 0
M  V30 1188 O 115.923 1.91451 3.00375 0
M  V30 1189 O 114.782 2.72231 4.7387 0
M  V30 1190 H 111.876 0.380752 0.734137 0
M  V30 1191 H 114.422 1.36283 1.01119 0
M  V30 1192 H 113.194 2.93316 2.59001 0
M  V30 1193 H 112.817 1.58286 3.64735 0
M  V30 1194 N 113.814 -1.1601 1.06675 0
M  V30 1195 C 115.044 -1.90251 0.805497 0
M  V30 1196 C 115.452 -1.77891 -0.64431 0
M  V30 1197 O 114.795 -1.12383 -1.45313 0
M  V30 1198 C 114.857 -3.41419 1.12576 0
M  V30 1199 C 114.521 -3.77564 2.57477 0
M  V30 1200 C 115.518 -3.79161 3.55715 0
M  V30 1201 C 113.203 -4.08079 2.92877 0
M  V30 1202 C 115.197 -4.10767 4.8739 0
M  V30 1203 C 112.884 -4.39351 4.24751 0
M  V30 1204 C 113.882 -4.40675 5.21818 0
M  V30 1205 O 113.57 -4.71202 6.51325 0
M  V30 1206 H 113.302 -0.610018 0.291297 0
M  V30 1207 H 115.856 -1.47958 1.4247 0
M  V30 1208 H 114.086 -3.84079 0.449503 0
M  V30 1209 H 115.775 -3.9694 0.84814 0
M  V30 1210 H 116.541 -3.55693 3.29708 0
M  V30 1211 H 112.42 -4.06211 2.17976 0
M  V30 1212 H 115.964 -4.11715 5.63148 0
M  V30 1213 H 111.861 -4.62285 4.50514 0
M  V30 1214 H 112.629 -4.88996 6.56373 0
M  V30 1215 N 115.292 -0.849877 -1.32721 0
M  V30 1216 C 116.52 -0.464754 -2.01613 0
M  V30 1217 C 116.935 0.937191 -1.63897 0
M  V30 1218 O 116.292 1.61081 -0.857856 0
M  V30 1219 C 116.343 -0.588638 -3.56675 0
M  V30 1220 O 116.064 -1.93535 -3.93034 0
M  V30 1221 C 117.565 -0.2019 -4.4284 0
M  V30 1222 H 114.785 -0.183215 -0.645502 0
M  V30 1223 H 117.329 -1.1455 -1.69407 0
M  V30 1224 H 115.484 0.0443159 -3.87375 0
M  V30 1225 H 115.898 -1.92871 -4.87751 0
M  V30 1226 H 117.372 -0.339599 -5.50954 0
M  V30 1227 H 117.849 0.857224 -4.30753 0
M  V30 1228 H 118.455 -0.809733 -4.17521 0
M  V30 1229 N 116.77 1.45427 -0.607355 0
M  V30 1230 C 118.018 2.01841 -0.102253 0
M  V30 1231 C 118.339 1.47832 1.27164 0
M  V30 1232 O 117.609 0.672497 1.83995 0
M  V30 1233 H 116.189 0.746188 -0.0348101 0
M  V30 1234 H 118.851 1.78229 -0.7887 0
M  V30 1235 H 117.947 3.12057 -0.0518585 0
M  V30 1236 N 118.248 0.346503 1.53744 0
M  V30 1237 C 119.497 -0.250122 2.00143 0
M  V30 1238 C 119.81 -1.51418 1.23822 0
M  V30 1239 O 121.016 -2.18823 1.60713 0
M  V30 1240 C 119.472 -0.496252 3.56462 0
M  V30 1241 C 119.08 0.752077 4.41642 0
M  V30 1242 C 120.824 -1.05157 4.11269 0
M  V30 1243 C 118.731 0.476583 5.89477 0
M  V30 1244 H 117.661 -0.0972409 0.747703 0
M  V30 1245 H 120.312 0.46229 1.77581 0
M  V30 1246 H 118.694 -1.26944 3.75102 0
M  V30 1247 H 119.868 1.5266 4.34778 0
M  V30 1248 H 118.183 1.22925 3.97842 0
M  V30 1249 H 120.78 -1.27269 5.19333 0
M  V30 1250 H 121.123 -2.00799 3.64672 0
M  V30 1251 H 121.656 -0.339019 3.96353 0
M  V30 1252 H 118.395 1.4028 6.40314 0
M  V30 1253 H 117.915 -0.259794 5.99237 0
M  V30 1254 H 119.594 0.0949315 6.4693 0
M  V30 1255 N 119.726 -1.57421 0.075193 0
M  V30 1256 C 120.956 -1.97659 -0.601203 0
M  V30 1257 C 121.364 -0.952427 -1.63479 0
M  V30 1258 O 120.707 0.0688241 -1.83571 0
M  V30 1259 C 120.769 -3.34218 -1.32434 0
M  V30 1260 C 120.433 -4.5484 -0.443826 0
M  V30 1261 C 121.43 -5.19034 0.299969 0
M  V30 1262 C 119.115 -5.00952 -0.367709 0
M  V30 1263 C 121.109 -6.27695 1.10807 0
M  V30 1264 C 118.796 -6.09484 0.444058 0
M  V30 1265 C 119.794 -6.72719 1.18061 0
M  V30 1266 O 119.482 -7.79161 1.97898 0
M  V30 1267 H 119.214 -0.65494 -0.167422 0
M  V30 1268 H 121.768 -2.04886 0.145157 0
M  V30 1269 H 119.998 -3.23615 -2.11685 0
M  V30 1270 H 121.687 -3.59038 -1.89331 0
M  V30 1271 H 122.453 -4.84351 0.250776 0
M  V30 1272 H 118.332 -4.51509 -0.930638 0
M  V30 1273 H 121.876 -6.76982 1.68347 0
M  V30 1274 H 117.773 -6.43601 0.494803 0
M  V30 1275 H 118.541 -7.96055 1.90367 0
M  V30 1276 N 121.204 0.198386 -1.56346 0
M  V30 1277 C 122.151 1.24589 -1.94284 0
M  V30 1278 C 123.121 1.454 -0.802997 0
M  V30 1279 O 124.306 1.58588 -1.06087 0
M  V30 1280 C 121.446 2.58631 -2.28482 0
M  V30 1281 C 120.559 2.45426 -3.55514 0
M  V30 1282 C 119.694 3.7215 -3.79049 0
M  V30 1283 C 118.733 3.53763 -4.99518 0
M  V30 1284 N 117.87 4.72491 -5.19323 0
M  V30 1285 H 122.71 0.915356 -2.83593 0
M  V30 1286 H 120.247 0.440629 -1.40346 0
M  V30 1287 H 122.205 3.3672 -2.46324 0
M  V30 1288 H 120.835 2.89734 -1.42317 0
M  V30 1289 H 119.887 1.58652 -3.45737 0
M  V30 1290 H 121.199 2.27772 -4.43758 0
M  V30 1291 H 120.353 4.58679 -3.97113 0
M  V30 1292 H 119.092 3.92754 -2.89129 0
M  V30 1293 H 118.097 2.65619 -4.8138 0
M  V30 1294 H 119.322 3.34607 -5.90944 0
M  V30 1295 H 117.268 4.93365 -4.3235 0
M  V30 1296 H 117.185 4.5765 -6.01741 0
M  V30 1297 H 118.453 5.6038 -5.41843 0
M  V30 1298 N 122.682 1.50554 0.465978 0
M  V30 1299 C 123.645 1.69233 1.54574 0
M  V30 1300 C 124.645 0.562901 1.50626 0
M  V30 1301 O 125.835 0.830016 1.53155 0
M  V30 1302 C 122.967 1.7223 2.94193 0
M  V30 1303 H 124.16 2.65571 1.39327 0
M  V30 1304 H 121.713 1.40111 0.692711 0
M  V30 1305 H 122.448 0.77603 3.14878 0
M  V30 1306 H 122.233 2.54285 2.98466 0
M  V30 1307 H 123.723 1.88618 3.72576 0
M  V30 1308 N 124.16 -0.719506 1.40217 0
M  V30 1309 C 125.437 -1.47221 1.28784 0
M  V30 1310 C 125.817 -2.10883 -0.0956067 0
M  V30 1311 O 125.165 -1.99833 -1.10811 0
M  V30 1312 C 125.375 -2.5111 2.42373 0
M  V30 1313 C 126.723 -3.17053 2.82423 0
M  V30 1314 O 127.747 -2.61429 2.41937 0
M  V30 1315 O 126.606 -4.17742 3.52355 0
M  V30 1316 H 123.7 -0.654491 0.50554 0
M  V30 1317 H 126.246 -0.752014 1.52128 0
M  V30 1318 H 125.018 -2.02556 3.34793 0
M  V30 1319 H 124.641 -3.3067 2.20778 0
M  V30 1320 N 125.638 -1.25649 -0.95132 0
M  V30 1321 C 126.887 -1.09988 -1.69073 0
M  V30 1322 C 127.2 0.358355 -1.92289 0
M  V30 1323 O 128.406 0.635466 -2.63958 0
M  V30 1324 C 126.862 -1.92012 -3.044 0
M  V30 1325 C 126.47 -3.42347 -2.88968 0
M  V30 1326 C 128.214 -1.8493 -3.82101 0
M  V30 1327 C 126.121 -4.16655 -4.19705 0
M  V30 1328 H 125.051 -0.407993 -0.63408 0
M  V30 1329 H 127.702 -1.49873 -1.05879 0
M  V30 1330 H 126.084 -1.44952 -3.68517 0
M  V30 1331 H 127.258 -3.97104 -2.33762 0
M  V30 1332 H 125.573 -3.50557 -2.24719 0
M  V30 1333 H 128.17 -2.37739 -4.78941 0
M  V30 1334 H 128.513 -0.817883 -4.08187 0
M  V30 1335 H 129.046 -2.29758 -3.2474 0
M  V30 1336 H 125.785 -5.20224 -3.98807 0
M  V30 1337 H 125.305 -3.66681 -4.74663 0
M  V30 1338 H 126.984 -4.24551 -4.88227 0
M  V30 1339 N 127.117 1.15442 -1.07289 0
M  V30 1340 C 128.365 1.85845 -0.794096 0
M  V30 1341 C 128.686 1.82692 0.681809 0
M  V30 1342 O 127.956 1.26741 1.49377 0
M  V30 1343 H 126.536 0.688089 -0.290763 0
M  V30 1344 H 129.198 1.39947 -1.3565 0
M  V30 1345 H 128.294 2.91001 -1.12804 0
M  V30 1346 N 128.595 0.856903 1.32268 0
M  V30 1347 C 129.841 0.462069 1.97466 0
M  V30 1348 C 130.174 -0.980298 1.67642 0
M  V30 1349 O 129.449 -1.68824 0.965858 0
M  V30 1350 C 129.732 0.704336 3.53145 0
M  V30 1351 C 129.585 2.19529 3.9259 0
M  V30 1352 C 130.904 0.1622 4.39801 0
M  V30 1353 H 128.023 0.169357 0.717278 0
M  V30 1354 H 130.665 1.07574 1.56614 0
M  V30 1355 H 128.815 0.181999 3.88073 0
M  V30 1356 H 130.487 2.78387 3.67829 0
M  V30 1357 H 128.73 2.67292 3.41668 0
M  V30 1358 H 129.401 2.31549 5.01088 0
M  V30 1359 H 131.877 0.608905 4.11621 0
M  V30 1360 H 130.753 0.361265 5.4771 0
M  V30 1361 H 131.014 -0.935158 4.32096 0
M  V30 1362 N 130.073 -1.45103 0.615059 0
M  V30 1363 C 131.02 -2.30586 -0.0993978 0
M  V30 1364 C 131.99 -1.42544 -0.852669 0
M  V30 1365 O 133.175 -1.71465 -0.836917 0
M  V30 1366 C 130.315 -3.27572 -1.08583 0
M  V30 1367 C 129.428 -4.30717 -0.332656 0
M  V30 1368 C 128.563 -5.14807 -1.30947 0
M  V30 1369 C 127.602 -6.09673 -0.544538 0
M  V30 1370 N 126.739 -6.86517 -1.47101 0
M  V30 1371 H 131.579 -2.91144 0.635542 0
M  V30 1372 H 129.116 -1.4346 0.325206 0
M  V30 1373 H 131.074 -3.82276 -1.67095 0
M  V30 1374 H 129.704 -2.68751 -1.78809 0
M  V30 1375 H 128.756 -3.78615 0.368107 0
M  V30 1376 H 130.068 -4.98102 0.263842 0
M  V30 1377 H 129.222 -5.73948 -1.96643 0
M  V30 1378 H 127.961 -4.47458 -1.9399 0
M  V30 1379 H 126.966 -5.49656 0.126003 0
M  V30 1380 H 128.191 -6.79052 0.080947 0
M  V30 1381 H 126.137 -6.21851 -2.08895 0
M  V30 1382 H 126.054 -7.50281 -0.928137 0
M  V30 1383 H 127.322 -7.50194 -2.11731 0
M  V30 1384 N 131.551 -0.354651 -1.53558 0
M  V30 1385 C 132.828 0.294281 -1.93374 0
M  V30 1386 C 133.208 1.67313 -1.28723 0
M  V30 1387 O 132.556 2.24179 -0.442247 0
M  V30 1388 C 132.766 0.355445 -3.47185 0
M  V30 1389 C 134.114 0.601007 -4.20325 0
M  V30 1390 O 135.138 0.437106 -3.53508 0
M  V30 1391 O 133.997 0.919322 -5.38712 0
M  V30 1392 H 131.091 0.174033 -0.808481 0
M  V30 1393 H 133.637 -0.406638 -1.64756 0
M  V30 1394 H 132.409 -0.611729 -3.86489 0
M  V30 1395 H 132.032 1.1027 -3.82003 0
M  V30 1396 N 133.029 1.57378 -0.0835403 0
M  V30 1397 C 134.277 1.93547 0.581718 0
M  V30 1398 C 134.598 0.96524 1.69435 0
M  V30 1399 O 133.868 0.0153369 1.95894 0
M  V30 1400 H 132.448 0.714521 0.217874 0
M  V30 1401 H 135.11 1.94366 -0.144158 0
M  V30 1402 H 134.206 2.95665 0.999423 0
M  V30 1403 N 134.507 -0.190092 1.56449 0
M  V30 1404 C 135.737 -0.92443 1.84764 0
M  V30 1405 C 136.145 -1.77146 0.664529 0
M  V30 1406 O 135.488 -1.79812 -0.375957 0
M  V30 1407 C 135.55 -1.86651 3.07248 0
M  V30 1408 C 135.214 -1.20094 4.40938 0
M  V30 1409 C 136.211 -0.575445 5.16706 0
M  V30 1410 C 133.896 -1.2033 4.87674 0
M  V30 1411 C 135.89 0.0388111 6.37388 0
M  V30 1412 C 133.577 -0.585214 6.08291 0
M  V30 1413 C 134.575 0.0347578 6.82991 0
M  V30 1414 O 134.263 0.643147 8.01323 0
M  V30 1415 H 133.995 -0.274974 0.617548 0
M  V30 1416 H 136.549 -0.200788 2.04416 0
M  V30 1417 H 134.779 -2.62998 2.83494 0
M  V30 1418 H 136.468 -2.46907 3.22167 0
M  V30 1419 H 137.234 -0.565728 4.81689 0
M  V30 1420 H 133.113 -1.67526 4.29484 0
M  V30 1421 H 136.657 0.523329 6.95634 0
M  V30 1422 H 132.554 -0.592451 6.42775 0
M  V30 1423 H 133.322 0.540545 8.16713 0
M  V30 1424 N 135.985 -1.50799 -0.457987 0
M  V30 1425 C 137.234 -1.6168 -1.20593 0
M  V30 1426 C 137.547 -0.32888 -1.92815 0
M  V30 1427 O 138.753 -0.316773 -2.69646 0
M  V30 1428 C 137.209 -2.8545 -2.19195 0
M  V30 1429 C 136.817 -4.21168 -1.52715 0
M  V30 1430 C 138.561 -3.05681 -2.94549 0
M  V30 1431 C 136.468 -5.3611 -2.4968 0
M  V30 1432 H 135.398 -0.602134 -0.453818 0
M  V30 1433 H 138.049 -1.77245 -0.475031 0
M  V30 1434 H 136.431 -2.63472 -2.95632 0
M  V30 1435 H 137.605 -4.53449 -0.819775 0
M  V30 1436 H 135.92 -4.06648 -0.895922 0
M  V30 1437 H 138.517 -3.88727 -3.67145 0
M  V30 1438 H 138.86 -2.17929 -3.54701 0
M  V30 1439 H 139.393 -3.27901 -2.25223 0
M  V30 1440 H 136.132 -6.26057 -1.94249 0
M  V30 1441 H 135.652 -5.0823 -3.18532 0
M  V30 1442 H 137.331 -5.6722 -3.11241 0
M  V30 1443 N 137.463 0.71206 -1.40597 0
M  V30 1444 C 138.709 1.47416 -1.39271 0
M  V30 1445 C 139.042 1.942 0.00388791 0
M  V30 1446 O 138.317 1.68403 0.973179 0
M  V30 1447 C 138.6 2.69774 -2.38525 0
M  V30 1448 C 138.453 2.28861 -3.87224 0
M  V30 1449 C 139.772 3.71939 -2.35264 0
M  V30 1450 H 136.891 0.534713 -0.5072 0
M  V30 1451 H 139.533 0.812375 -1.71757 0
M  V30 1452 H 137.683 3.26238 -2.10953 0
M  V30 1453 H 139.355 1.77852 -4.25636 0
M  V30 1454 H 137.598 1.60824 -4.02887 0
M  V30 1455 H 138.269 3.16584 -4.52193 0
M  V30 1456 H 140.745 3.25113 -2.59694 0
M  V30 1457 H 139.621 4.55186 -3.06753 0
M  V30 1458 H 139.882 4.20484 -1.36549 0
M  V30 1459 N 138.941 1.26152 0.944643 0
M  V30 1460 C 140.189 1.11271 1.6871 0
M  V30 1461 C 140.51 -0.345166 1.91921 0
M  V30 1462 O 139.78 -1.24387 1.51343 0
M  V30 1463 H 138.36 0.408783 0.625224 0
M  V30 1464 H 141.022 1.58427 1.1352 0
M  V30 1465 H 140.118 1.62879 2.66227 0
M  V30 1466 N 140.419 -1.14872 1.07899 0
M  V30 1467 C 141.668 -1.85135 0.800499 0
M  V30 1468 C 141.981 -1.83547 -0.676014 0
M  V30 1469 O 143.187 -2.49548 -1.06948 0
M  V30 1470 C 141.643 -3.3231 1.38197 0
M  V30 1471 C 141.251 -3.42329 2.8899 0
M  V30 1472 C 142.995 -4.0772 1.18174 0
M  V30 1473 C 140.902 -4.83684 3.403 0
M  V30 1474 H 139.832 -0.693563 0.29578 0
M  V30 1475 H 142.483 -1.29532 1.29976 0
M  V30 1476 H 140.865 -3.87618 0.810431 0
M  V30 1477 H 142.039 -2.97097 3.52236 0
M  V30 1478 H 140.354 -2.80369 3.07867 0
M  V30 1479 H 142.951 -5.12049 1.5398 0
M  V30 1480 H 143.294 -4.16124 0.12117 0
M  V30 1481 H 143.827 -3.58696 1.71994 0
M  V30 1482 H 140.566 -4.80465 4.45907 0
M  V30 1483 H 140.086 -5.29474 2.81811 0
M  V30 1484 H 141.765 -5.52558 3.36584 0
M  V30 1485 N 141.898 -0.863906 -1.31812 0
M  V30 1486 C 143.146 -0.470904 -1.96537 0
M  V30 1487 C 143.467 0.978771 -1.68657 0
M  V30 1488 O 142.737 1.6853 -0.998717 0
M  V30 1489 H 141.317 -0.171148 -0.72713 0
M  V30 1490 H 143.979 -1.10236 -1.60729 0
M  V30 1491 H 143.075 -0.623616 -3.05806 0
M  V30 1492 N 143.376 1.44774 -0.622745 0
M  V30 1493 C 144.323 2.30635 0.0871679 0
M  V30 1494 C 145.293 1.42994 0.845097 0
M  V30 1495 O 146.478 1.71907 0.827812 0
M  V30 1496 C 143.618 3.28144 1.06844 0
M  V30 1497 C 142.731 4.30888 0.309809 0
M  V30 1498 C 141.866 5.15494 1.28215 0
M  V30 1499 C 140.905 6.09953 0.512198 0
M  V30 1500 N 140.042 6.87287 1.43458 0
M  V30 1501 H 144.882 2.90803 -0.650974 0
M  V30 1502 H 142.419 1.43286 -0.33281 0
M  V30 1503 H 144.377 3.83157 1.65066 0
M  V30 1504 H 143.007 2.69695 1.77382 0
M  V30 1505 H 142.059 3.78414 -0.388181 0
M  V30 1506 H 143.371 4.97955 -0.290254 0
M  V30 1507 H 142.525 5.74983 1.93596 0
M  V30 1508 H 141.264 4.48481 1.91614 0
M  V30 1509 H 140.269 5.49581 -0.155151 0
M  V30 1510 H 141.494 6.78999 -0.116958 0
M  V30 1511 H 139.44 6.2295 2.05594 0
M  V30 1512 H 139.357 7.50763 0.888335 0
M  V30 1513 H 140.625 7.51306 2.07749 0
M  V30 1514 N 144.854 0.36279 1.53368 0
M  V30 1515 C 146.102 -0.227326 2.00817 0
M  V30 1516 C 146.423 -1.49511 1.25186 0
M  V30 1517 O 145.693 -1.92482 0.364348 0
M  V30 1518 H 144.273 -0.0869923 0.741917 0
M  V30 1519 H 146.935 0.488381 1.88682 0
M  V30 1520 H 146.031 -0.456273 3.08747 0
M  V30 1521 N 146.332 -1.57332 0.0918853 0
M  V30 1522 C 147.58 -1.93853 -0.571446 0
M  V30 1523 C 147.901 -0.974212 -1.6892 0
M  V30 1524 O 147.171 -0.0257254 -1.95883 0
M  V30 1525 H 145.751 -0.715666 -0.214082 0
M  V30 1526 H 148.413 -1.94287 0.154464 0
M  V30 1527 H 147.509 -2.96191 -0.983729 0
M  V30 1528 N 147.81 0.181792 -1.56548 0
M  V30 1529 C 148.758 1.24461 -1.965 0
M  V30 1530 C 149.752 1.464 -0.852261 0
M  V30 1531 O 150.958 1.47103 -1.03733 0
M  V30 1532 H 147.333 0.418138 -0.625031 0
M  V30 1533 H 149.304 0.880714 -2.85107 0
M  V30 1534 C 148.053 2.57891 -2.33212 0
M  V30 1535 H 147.376 2.41829 -3.18369 0
M  V30 1536 H 148.816 3.3097 -2.65019 0
M  V30 1537 C 147.275 3.15871 -1.17163 0
M  V30 1538 O 147.805 3.9913 -0.453708 0
M  V30 1539 N 146.011 2.74808 -0.944936 0
M  V30 1540 H 145.558 2.07205 -1.53049 0
M  V30 1541 H 145.516 3.13939 -0.170286 0
M  V30 1542 N 149.288 1.51039 0.449983 0
M  V30 1543 C 150.699 1.557 1.03026 0
M  V30 1544 C 151.05 0.372939 1.92623 0
M  V30 1545 O 150.175 -0.511771 2.10261 0
M  V30 1546 C 150.77 2.82171 1.87523 0
M  V30 1547 C 149.329 2.89444 2.40622 0
M  V30 1548 C 148.476 2.50228 1.19504 0
M  V30 1549 H 151.427 1.56999 0.231745 0
M  V30 1550 H 151.448 2.65219 2.72835 0
M  V30 1551 H 150.96 3.68331 1.22286 0
M  V30 1552 H 149.061 2.07685 3.0935 0
M  V30 1553 H 149.174 3.92816 2.74285 0
M  V30 1554 H 147.538 2.03139 1.53644 0
M  V30 1555 H 148.321 3.38719 0.558972 0
M  V30 1556 N 150.766 -0.704594 1.40972 0
M  V30 1557 C 152.043 -1.45847 1.30338 0
M  V30 1558 C 152.423 -2.10973 -0.0732344 0
M  V30 1559 O 151.771 -2.00997 -1.08685 0
M  V30 1560 C 151.981 -2.48525 2.45023 0
M  V30 1561 C 153.329 -3.1404 2.8577 0
M  V30 1562 O 154.353 -2.58848 2.44696 0
M  V30 1563 O 153.212 -4.13981 3.56766 0
M  V30 1564 H 150.306 -0.649092 0.512454 0
M  V30 1565 H 152.852 -0.735836 1.52917 0
M  V30 1566 H 151.624 -1.98994 3.36923 0
M  V30 1567 H 151.247 -3.2831 2.24272 0
M  V30 1568 N 152.244 -1.26651 -0.937939 0
M  V30 1569 C 153.493 -1.11775 -1.67897 0
M  V30 1570 C 153.806 0.33794 -1.92659 0
M  V30 1571 O 155.012 0.607434 -2.64618 0
M  V30 1572 C 153.468 -1.9523 -3.02346 0
M  V30 1573 C 153.076 -3.45393 -2.8532 0
M  V30 1574 C 154.82 -1.88972 -3.80118 0
M  V30 1575 C 152.727 -4.21083 -4.15263 0
M  V30 1576 H 151.657 -0.414696 -0.629717 0
M  V30 1577 H 154.308 -1.50988 -1.04283 0
M  V30 1578 H 152.69 -1.48853 -3.66959 0
M  V30 1579 H 153.864 -3.99561 -2.29537 0
M  V30 1580 H 152.179 -3.52921 -2.20988 0
M  V30 1581 H 154.776 -2.42805 -4.76392 0
M  V30 1582 H 155.119 -0.86113 -4.07296 0
M  V30 1583 H 155.652 -2.33189 -3.22285 0
M  V30 1584 H 152.391 -5.24425 -3.93267 0
M  V30 1585 H 151.911 -3.71695 -4.70747 0
M  V30 1586 H 153.59 -4.29706 -4.83696 0
M  V30 1587 N 153.722 1.14298 -1.08507 0
M  V30 1588 C 154.655 2.18447 -0.660004 0
M  V30 1589 C 155.633 1.59242 0.328749 0
M  V30 1590 O 156.817 1.87062 0.232367 0
M  V30 1591 C 153.944 3.38688 0.0290807 0
M  V30 1592 C 152.99 4.1646 -0.919982 0
M  V30 1593 S 153.823 4.77334 -2.42718 0
M  V30 1594 C 154.979 6.00931 -1.75024 0
M  V30 1595 H 155.212 2.54166 -1.54231 0
M  V30 1596 H 152.745 1.25446 -0.900149 0
M  V30 1597 H 154.703 4.08342 0.420378 0
M  V30 1598 H 153.364 3.01289 0.887895 0
M  V30 1599 H 152.557 5.02529 -0.384751 0
M  V30 1600 H 152.159 3.52414 -1.25223 0
M  V30 1601 H 154.451 6.69017 -1.06877 0
M  V30 1602 H 155.394 6.59044 -2.58971 0
M  V30 1603 H 155.802 5.51089 -1.22317 0
M  V30 1604 N 155.201 0.870884 1.31352 0
M  V30 1605 C 156.478 0.402907 1.91405 0
M  V30 1606 C 156.858 -1.11512 1.79244 0
M  V30 1607 O 156.206 -1.94411 1.2007 0
M  V30 1608 C 156.416 0.885301 3.37585 0
M  V30 1609 C 157.764 0.911971 4.14691 0
M  V30 1610 O 158.788 0.831016 3.46371 0
M  V30 1611 O 157.647 1.02927 5.3672 0
M  V30 1612 H 154.741 0.120698 0.818145 0
M  V30 1613 H 157.287 0.958857 1.40014 0
M  V30 1614 H 156.059 1.92889 3.40455 0
M  V30 1615 H 155.682 0.307714 3.96407 0
M  V30 1616 N 156.679 -1.44442 0.630414 0
M  V30 1617 C 157.927 -2.01653 0.134351 0
M  V30 1618 C 158.248 -1.49836 -1.24796 0
M  V30 1619 O 157.518 -0.701684 -1.82902 0
M  V30 1620 H 156.098 -0.74554 0.0466769 0
M  V30 1621 H 158.76 -1.76952 0.816955 0
M  V30 1622 H 157.856 -3.11935 0.101498 0
M  V30 1623 N 158.157 -0.370918 -1.53173 0
M  V30 1624 C 159.403 0.217423 -2.01631 0
M  V30 1625 C 159.736 1.47983 -1.25756 0
M  V30 1626 O 159.011 1.91274 -0.352764 0
M  V30 1627 C 159.294 0.503982 -3.56556 0
M  V30 1628 C 159.147 -0.77243 -4.43118 0
M  V30 1629 C 160.466 1.30234 -4.20389 0
M  V30 1630 H 157.585 0.0775486 -0.732909 0
M  V30 1631 H 160.227 -0.496863 -1.83388 0
M  V30 1632 H 158.377 1.11248 -3.72231 0
M  V30 1633 H 160.049 -1.4098 -4.39229 0
M  V30 1634 H 158.292 -1.39167 -4.10871 0
M  V30 1635 H 158.963 -0.526815 -5.4948 0
M  V30 1636 H 161.439 0.787546 -4.08579 0
M  V30 1637 H 160.315 1.47158 -5.28806 0
M  V30 1638 H 160.576 2.31237 -3.76805 0
M  V30 1639 N 159.635 1.57281 -0.100228 0
M  V30 1640 C 160.863 1.98879 0.570509 0
M  V30 1641 C 161.278 0.979476 1.61405 0
M  V30 1642 O 160.635 -0.0302288 1.82475 0
M  V30 1643 C 160.686 3.4052 1.2136 0
M  V30 1644 O 160.407 4.37588 0.211786 0
M  V30 1645 C 161.908 3.97149 1.96945 0
M  V30 1646 H 159.128 0.653428 0.152555 0
M  V30 1647 H 161.672 2.03697 -0.18103 0
M  V30 1648 H 159.827 3.367 1.91603 0
M  V30 1649 H 160.241 5.20118 0.676607 0
M  V30 1650 H 161.715 4.98393 2.37294 0
M  V30 1651 H 162.192 3.3525 2.83733 0
M  V30 1652 H 162.798 4.04458 1.31506 0
M  V30 1653 N 161.113 -0.173488 1.56642 0
M  V30 1654 C 162.524 -0.736155 1.71574 0
M  V30 1655 C 162.875 -1.82888 0.710389 0
M  V30 1656 O 162 -2.16017 -0.1287 0
M  V30 1657 C 162.595 -1.34211 3.11083 0
M  V30 1658 C 161.154 -1.85162 3.27707 0
M  V30 1659 C 160.301 -0.729765 2.67525 0
M  V30 1660 H 163.252 0.0518786 1.58615 0
M  V30 1661 H 163.273 -2.21178 3.09613 0
M  V30 1662 H 162.785 -0.546579 3.84232 0
M  V30 1663 H 160.886 -2.67366 2.59512 0
M  V30 1664 H 160.999 -1.99855 4.35425 0
M  V30 1665 H 159.363 -1.14965 2.27278 0
M  V30 1666 H 160.146 0.0538806 3.43258 0
M  V30 1667 N 162.591 -1.51276 -0.441967 0
M  V30 1668 C 163.539 -1.72823 -1.55676 0
M  V30 1669 C 164.533 -0.59445 -1.58627 0
M  V30 1670 O 165.739 -0.775715 -1.62427 0
M  V30 1671 H 162.114 -0.545983 -0.517113 0
M  V30 1672 H 164.085 -2.6628 -1.34675 0
M  V30 1673 C 162.834 -1.86619 -2.93375 0
M  V30 1674 H 162.157 -2.73264 -2.91834 0
M  V30 1675 H 163.597 -2.05709 -3.70756 0
M  V30 1676 C 162.056 -0.624842 -3.31055 0
M  V30 1677 O 162.586 0.222636 -4.01083 0
M  V30 1678 N 160.792 -0.470288 -2.86769 0
M  V30 1679 H 160.339 -1.161 -2.29953 0
M  V30 1680 H 160.297 0.359051 -3.12343 0
M  V30 1681 N 164.069 0.697108 -1.41344 0
M  V30 1682 C 165.002 1.82134 -1.37486 0
M  V30 1683 C 165.98 1.60784 -0.242351 0
M  V30 1684 O 167.164 1.83553 -0.429012 0
M  V30 1685 C 164.291 3.18788 -1.14421 0
M  V30 1686 C 163.337 3.58932 -2.3037 0
M  V30 1687 S 164.17 3.63916 -3.92843 0
M  V30 1688 C 165.326 5.03298 -3.72078 0
M  V30 1689 H 165.559 1.85129 -2.32625 0
M  V30 1690 H 163.092 0.865671 -1.2785 0
M  V30 1691 H 165.05 3.97677 -1.018 0
M  V30 1692 H 163.711 3.13404 -0.20905 0
M  V30 1693 H 162.904 4.58202 -2.09922 0
M  V30 1694 H 162.506 2.87347 -2.39391 0
M  V30 1695 H 164.798 5.90753 -3.31688 0
M  V30 1696 H 165.741 5.28788 -4.70945 0
M  V30 1697 H 166.149 4.74764 -3.05384 0
M  V30 1698 N 165.547 1.27147 0.931209 0
M  V30 1699 C 166.796 1.12664 1.67302 0
M  V30 1700 C 167.109 -0.327718 1.92835 0
M  V30 1701 O 168.315 -0.593392 2.64936 0
M  V30 1702 C 166.771 1.9683 3.01307 0
M  V30 1703 C 166.379 3.46901 2.83485 0
M  V30 1704 C 168.123 1.90985 3.79111 0
M  V30 1705 C 166.03 4.23279 4.13024 0
M  V30 1706 H 164.96 0.41803 0.627509 0
M  V30 1707 H 167.611 1.51539 1.03481 0
M  V30 1708 H 165.993 1.50797 3.66164 0
M  V30 1709 H 167.167 4.00773 2.27415 0
M  V30 1710 H 165.482 3.54088 2.19113 0
M  V30 1711 H 168.079 2.45328 4.75098 0
M  V30 1712 H 168.422 0.882718 4.06834 0
M  V30 1713 H 168.955 2.34895 3.21044 0
M  V30 1714 H 165.694 5.26503 3.90481 0
M  V30 1715 H 165.214 3.74186 4.6877 0
M  V30 1716 H 166.893 4.32265 4.81411 0
M  V30 1717 N 167.025 -1.13721 1.09112 0
M  V30 1718 C 168.271 -1.85198 0.826414 0
M  V30 1719 C 168.604 -1.83129 -0.646319 0
M  V30 1720 O 167.879 -1.2671 -1.47563 0
M  V30 1721 C 168.162 -3.33507 1.35812 0
M  V30 1722 C 168.015 -3.44108 2.89672 0
M  V30 1723 C 169.334 -4.28838 0.989256 0
M  V30 1724 H 166.453 -0.67243 0.301675 0
M  V30 1725 H 169.095 -1.33499 1.35197 0
M  V30 1726 H 167.245 -3.77666 0.911082 0
M  V30 1727 H 168.917 -3.08684 3.428 0
M  V30 1728 H 167.16 -2.85087 3.26967 0
M  V30 1729 H 167.831 -4.48388 3.21951 0
M  V30 1730 H 170.307 -3.92734 1.37475 0
M  V30 1731 H 169.183 -5.31051 1.38838 0
M  V30 1732 H 169.444 -4.4198 -0.102924 0
M  V30 1733 N 168.503 -0.877838 -1.30888 0
M  V30 1734 C 169.751 -0.491723 -1.96027 0
M  V30 1735 C 170.072 0.960827 -1.69685 0
M  V30 1736 O 169.342 1.67462 -1.01654 0
M  V30 1737 H 167.922 -0.17885 -0.725273 0
M  V30 1738 H 170.584 -1.11935 -1.59551 0
M  V30 1739 H 169.68 -0.656016 -3.05128 0
M  V30 1740 N 169.982 1.44106 -0.638065 0
M  V30 1741 C 171.21 2.06336 -0.152615 0
M  V30 1742 C 171.625 1.47731 1.17563 0
M  V30 1743 O 170.982 0.602806 1.72257 0
M  V30 1744 C 171.033 3.61479 -0.0391491 0
M  V30 1745 O 170.754 4.17903 -1.31487 0
M  V30 1746 C 172.255 4.40757 0.474176 0
M  V30 1747 H 169.475 0.665862 -0.0828776 0
M  V30 1748 H 172.019 1.84862 -0.87443 0
M  V30 1749 H 170.174 3.82191 0.633142 0
M  V30 1750 H 170.588 5.11416 -1.16421 0
M  V30 1751 H 172.062 5.49707 0.502562 0
M  V30 1752 H 172.539 4.12697 1.50258 0
M  V30 1753 H 173.145 4.24979 -0.165102 0
M  V30 1754 N 171.46 0.379036 1.52974 0
M  V30 1755 C 172.423 -0.448865 2.24762 0
M  V30 1756 C 173.423 -0.998689 1.26027 0
M  V30 1757 O 174.613 -0.882313 1.50203 0
M  V30 1758 C 171.745 -1.62872 2.99476 0
M  V30 1759 H 172.938 0.179491 2.99362 0
M  V30 1760 H 170.491 0.13096 1.5575 0
M  V30 1761 H 171.226 -2.29479 2.29151 0
M  V30 1762 H 171.011 -1.24128 3.71934 0
M  V30 1763 H 172.501 -2.2151 3.5401 0
M  V30 1764 N 172.938 -1.57226 0.108567 0
M  V30 1765 C 174.166 -1.99179 -0.559954 0
M  V30 1766 C 174.581 -0.988022 -1.60884 0
M  V30 1767 O 173.938 0.0205512 -1.82488 0
M  V30 1768 C 173.989 -3.41159 -1.19552 0
M  V30 1769 O 173.71 -4.37694 -0.188577 0
M  V30 1770 C 175.211 -3.98188 -1.94837 0
M  V30 1771 H 172.431 -0.654228 -0.149088 0
M  V30 1772 H 174.975 -2.03598 0.19183 0
M  V30 1773 H 173.13 -3.37711 -1.89815 0
M  V30 1774 H 173.544 -5.20469 -0.649014 0
M  V30 1775 H 175.018 -4.99644 -2.34648 0
M  V30 1776 H 175.495 -3.3675 -2.81951 0
M  V30 1777 H 176.101 -4.0515 -1.2936 0
M  V30 1778 N 174.416 0.165178 -1.56732 0
M  V30 1779 C 175.326 1.22423 -2.00125 0
M  V30 1780 C 176.342 1.48084 -0.913619 0
M  V30 1781 O 177.518 1.60112 -1.22172 0
M  V30 1782 C 174.583 2.54197 -2.35764 0
M  V30 1783 C 173.644 2.36343 -3.58386 0
M  V30 1784 C 172.877 3.61834 -3.92316 0
M  V30 1785 O 173.1 4.67267 -3.27135 0
M  V30 1786 O 172.034 3.55579 -4.85641 0
M  V30 1787 H 175.86 0.885886 -2.90492 0
M  V30 1788 H 173.445 0.372518 -1.44681 0
M  V30 1789 H 175.327 3.3192 -2.59629 0
M  V30 1790 H 174.002 2.87598 -1.48557 0
M  V30 1791 H 172.909 1.56632 -3.39731 0
M  V30 1792 H 174.242 2.07865 -4.46154 0
M  V30 1793 N 175.894 1.51508 0.433938 0
M  V30 1794 C 177.14 1.64588 1.18484 0
M  V30 1795 C 177.473 0.362666 1.90784 0
M  V30 1796 O 176.748 -0.637892 1.83742 0
M  V30 1797 C 177.031 2.85149 2.19913 0
M  V30 1798 C 176.884 4.23456 1.51674 0
M  V30 1799 C 178.203 3.01227 3.20858 0
M  V30 1800 H 175.322 0.598994 0.429389 0
M  V30 1801 H 177.964 1.84002 0.473647 0
M  V30 1802 H 176.114 2.68729 2.80566 0
M  V30 1803 H 177.786 4.51552 0.943322 0
M  V30 1804 H 176.029 4.25998 0.819035 0
M  V30 1805 H 176.7 5.03812 2.2556 0
M  V30 1806 H 179.176 3.16382 2.70263 0
M  V30 1807 H 178.052 3.87141 3.89118 0
M  V30 1808 H 178.313 2.13447 3.8716 0
M  V30 1809 N 177.372 -0.689602 1.41712 0
M  V30 1810 C 178.621 -1.44534 1.40686 0
M  V30 1811 C 178.934 -1.95588 0.0213352 0
M  V30 1812 O 180.14 -2.71271 -0.111534 0
M  V30 1813 C 178.596 -2.61387 2.47396 0
M  V30 1814 C 178.204 -2.17094 3.91885 0
M  V30 1815 C 179.948 -3.38986 2.55517 0
M  V30 1816 C 177.855 -3.3094 4.90135 0
M  V30 1817 H 176.785 -0.542925 0.52321 0
M  V30 1818 H 179.436 -0.748054 1.6756 0
M  V30 1819 H 177.818 -3.33412 2.13664 0
M  V30 1820 H 178.992 -1.52318 4.34897 0
M  V30 1821 H 177.307 -1.52473 3.8748 0
M  V30 1822 H 179.904 -4.23747 3.26102 0
M  V30 1823 H 180.247 -3.84578 1.59391 0
M  V30 1824 H 180.78 -2.74021 2.8837 0
M  V30 1825 H 177.519 -2.90355 5.87685 0
M  V30 1826 H 177.039 -3.94546 4.51767 0
M  V30 1827 H 178.718 -3.9663 5.11169 0
M  V30 1828 N 178.85 -1.27639 -0.924453 0
M  V30 1829 C 179.813 -1.10681 -2.00705 0
M  V30 1830 C 180.813 -0.0497823 -1.60723 0
M  V30 1831 O 182.003 -0.294654 -1.7169 0
M  V30 1832 C 179.135 -0.687164 -3.33902 0
M  V30 1833 H 180.328 -2.06817 -2.17179 0
M  V30 1834 H 177.881 -1.10473 -1.10569 0
M  V30 1835 H 178.616 0.275439 -3.23128 0
M  V30 1836 H 178.401 -1.45061 -3.6428 0
M  V30 1837 H 179.891 -0.590853 -4.13399 0
M  V30 1838 N 180.328 1.1314 -1.09713 0
M  V30 1839 C 181.291 2.16831 -0.742751 0
M  V30 1840 C 182.291 1.59159 0.229129 0
M  V30 1841 O 183.481 1.74199 0.00693237 0
M  V30 1842 C 180.613 3.40756 -0.0989168 0
M  V30 1843 H 181.806 2.49695 -1.66109 0
M  V30 1844 H 179.359 1.2802 -0.896699 0
M  V30 1845 H 180.094 3.13485 0.830514 0
M  V30 1846 H 179.879 3.83888 -0.798265 0
M  V30 1847 H 181.369 4.17386 0.133524 0
M  V30 1848 N 181.806 0.884767 1.30421 0
M  V30 1849 C 182.716 0.355398 2.31892 0
M  V30 1850 C 183.732 -0.542261 1.65335 0
M  V30 1851 O 184.908 -0.435432 1.96637 0
M  V30 1852 C 181.973 -0.421661 3.44126 0
M  V30 1853 C 181.034 0.505727 4.26311 0
M  V30 1854 C 180.267 -0.234343 5.33185 0
M  V30 1855 O 180.49 -1.46045 5.51386 0
M  V30 1856 O 179.424 0.415443 6.00465 0
M  V30 1857 H 183.25 1.19685 2.79122 0
M  V30 1858 H 180.835 0.648596 1.34587 0
M  V30 1859 H 182.717 -0.861641 4.12497 0
M  V30 1860 H 181.392 -1.23942 2.99032 0
M  V30 1861 H 180.299 0.994513 3.60639 0
M  V30 1862 H 181.632 1.28948 4.75009 0
M  V30 1863 N 183.284 -1.43765 0.645699 0
M  V30 1864 C 184.532 -2.01499 0.155731 0
M  V30 1865 C 184.853 -1.51151 -1.232 0
M  V30 1866 O 184.123 -0.721044 -1.82148 0
M  V30 1867 H 182.703 -0.745003 0.0545817 0
M  V30 1868 H 185.365 -1.76075 0.835677 0
M  V30 1869 H 184.461 -3.1181 0.134577 0
M  V30 1870 N 184.763 -0.387143 -1.52771 0
M  V30 1871 C 185.71 0.449048 -2.26389 0
M  V30 1872 C 186.68 1.05961 -1.27912 0
M  V30 1873 O 187.865 1.08804 -1.56737 0
M  V30 1874 C 185.005 1.57155 -3.0724 0
M  V30 1875 C 184.118 0.984066 -4.20643 0
M  V30 1876 C 183.253 2.07745 -4.88892 0
M  V30 1877 C 182.292 1.46574 -5.94292 0
M  V30 1878 N 181.429 2.49834 -6.56146 0
M  V30 1879 H 186.269 -0.185205 -2.97424 0
M  V30 1880 H 183.806 -0.103164 -1.46738 0
M  V30 1881 H 185.764 2.23309 -3.52405 0
M  V30 1882 H 184.394 2.17615 -2.38419 0
M  V30 1883 H 183.446 0.212193 -3.79808 0
M  V30 1884 H 184.758 0.497029 -4.96318 0
M  V30 1885 H 183.912 2.81673 -5.3735 0
M  V30 1886 H 182.651 2.59807 -4.12737 0
M  V30 1887 H 181.656 0.711696 -5.45174 0
M  V30 1888 H 182.881 0.953088 -6.72379 0
M  V30 1889 H 180.827 3.0107 -5.82832 0
M  V30 1890 H 180.744 2.05879 -7.27427 0
M  V30 1891 H 182.012 3.23399 -7.09249 0
M  V30 1892 N 186.241 1.57166 -0.116904 0
M  V30 1893 C 187.49 1.94298 0.541407 0
M  V30 1894 C 187.803 1.00236 1.67964 0
M  V30 1895 O 189.009 1.26826 2.40057 0
M  V30 1896 C 187.465 3.45306 1.01449 0
M  V30 1897 C 187.073 4.47899 -0.0951738 0
M  V30 1898 C 188.817 3.91361 1.6443 0
M  V30 1899 C 186.724 5.90083 0.394491 0
M  V30 1900 H 185.654 0.725308 0.206019 0
M  V30 1901 H 188.305 1.82446 -0.196419 0
M  V30 1902 H 186.687 3.52385 1.80667 0
M  V30 1903 H 187.861 4.52486 -0.871374 0
M  V30 1904 H 186.176 4.11583 -0.631505 0
M  V30 1905 H 188.773 4.95004 2.02176 0
M  V30 1906 H 189.116 3.3122 2.52189 0
M  V30 1907 H 189.649 3.87073 0.917559 0
M  V30 1908 H 186.388 6.53974 -0.447004 0
M  V30 1909 H 185.908 5.88921 1.13722 0
M  V30 1910 H 187.587 6.41307 0.856399 0
M  V30 1911 N 187.719 -0.156864 1.56817 0
M  V30 1912 C 188.965 -0.872416 1.83076 0
M  V30 1913 C 189.298 -1.81261 0.697001 0
M  V30 1914 O 188.573 -1.92171 -0.30008 0
M  V30 1915 C 188.856 -1.65551 3.19789 0
M  V30 1916 C 188.709 -0.737467 4.43713 0
M  V30 1917 C 190.028 -2.62012 3.53606 0
M  V30 1918 H 187.147 -0.315715 0.665953 0
M  V30 1919 H 189.789 -0.138004 1.89498 0
M  V30 1920 H 187.939 -2.28159 3.14445 0
M  V30 1921 H 189.611 -0.123143 4.61136 0
M  V30 1922 H 187.854 -0.0464067 4.33775 0
M  V30 1923 H 188.525 -1.32122 5.35955 0
M  V30 1924 H 191.001 -2.09525 3.59497 0
M  V30 1925 H 189.877 -3.13861 4.50314 0
M  V30 1926 H 190.138 -3.42902 2.79053 0
M  V30 1927 N 189.197 -1.51736 -0.425897 0
M  V30 1928 C 190.425 -1.68794 -1.1965 0
M  V30 1929 C 190.84 -0.390164 -1.84725 0
M  V30 1930 O 190.197 0.632376 -1.71194 0
M  V30 1931 C 190.248 -2.81174 -2.27208 0
M  V30 1932 O 189.969 -4.05925 -1.64793 0
M  V30 1933 C 191.47 -3.09599 -3.17275 0
M  V30 1934 H 188.69 -0.566128 -0.360194 0
M  V30 1935 H 191.234 -1.98211 -0.503249 0
M  V30 1936 H 189.389 -2.54324 -2.9223 0
M  V30 1937 H 189.803 -4.68423 -2.35967 0
M  V30 1938 H 191.277 -3.91786 -3.88854 0
M  V30 1939 H 191.754 -2.22468 -3.78688 0
M  V30 1940 H 192.36 -3.38151 -2.57941 0
M  V30 1941 N 190.675 0.682077 -1.42076 0
M  V30 1942 C 191.638 1.77756 -1.44691 0
M  V30 1943 C 192.638 1.5726 -0.335535 0
M  V30 1944 O 193.828 1.63686 -0.596037 0
M  V30 1945 C 190.96 3.16301 -1.27146 0
M  V30 1946 H 192.153 1.76826 -2.42224 0
M  V30 1947 H 189.706 0.891012 -1.28416 0
M  V30 1948 H 190.441 3.22862 -0.305075 0
M  V30 1949 H 190.226 3.32581 -2.07683 0
M  V30 1950 H 191.716 3.96241 -1.31843 0
M  V30 1951 N 192.153 1.28127 0.917671 0
M  V30 1952 C 193.401 1.14825 1.66312 0
M  V30 1953 C 193.722 -0.304379 1.9261 0
M  V30 1954 O 192.992 -1.21149 1.53947 0
M  V30 1955 H 191.572 0.421953 0.616413 0
M  V30 1956 H 194.234 1.608 1.10134 0
M  V30 1957 H 193.33 1.68489 2.62712 0
M  V30 1958 N 193.631 -1.12557 1.10312 0
M  V30 1959 C 194.879 -1.83675 0.843091 0
M  V30 1960 C 195.2 -1.84435 -0.633131 0
M  V30 1961 O 194.47 -1.30657 -1.45964 0
M  V30 1962 H 193.05 -0.680138 0.308904 0
M  V30 1963 H 195.712 -1.36301 1.39313 0
M  V30 1964 H 194.808 -2.87908 1.2048 0
M  V30 1965 N 195.109 -0.891671 -1.2995 0
M  V30 1966 C 196.358 -0.509521 -1.95158 0
M  V30 1967 C 196.671 0.947388 -1.71125 0
M  V30 1968 O 197.877 1.43669 -2.30372 0
M  V30 1969 C 196.333 -0.860315 -3.49466 0
M  V30 1970 C 195.941 -2.33545 -3.8231 0
M  V30 1971 C 197.685 -0.547687 -4.20952 0
M  V30 1972 C 195.592 -2.62752 -5.29826 0
M  V30 1973 H 194.522 -0.18682 -0.730489 0
M  V30 1974 H 197.173 -1.08756 -1.47798 0
M  V30 1975 H 195.555 -0.211285 -3.95436 0
M  V30 1976 H 196.729 -3.02936 -3.47227 0
M  V30 1977 H 195.044 -2.61629 -3.23944 0
M  V30 1978 H 197.641 -0.742854 -5.29515 0
M  V30 1979 H 197.984 0.51332 -4.13123 0
M  V30 1980 H 198.517 -1.1542 -3.80688 0
M  V30 1981 H 195.256 -3.6762 -5.42712 0
M  V30 1982 H 194.776 -1.97977 -5.66185 0
M  V30 1983 H 196.455 -2.48601 -5.97333 0
M  V30 1984 N 196.587 1.43421 -0.653314 0
M  V30 1985 C 197.864 1.95361 -0.0966581 0
M  V30 1986 C 198.244 1.59461 1.38331 0
M  V30 1987 O 197.592 0.879777 2.10884 0
M  V30 1988 C 197.802 3.47311 -0.342988 0
M  V30 1989 C 199.15 4.23875 -0.24798 0
M  V30 1990 O 200.174 3.55133 -0.275553 0
M  V30 1991 O 199.033 5.4623 -0.171771 0
M  V30 1992 H 196.127 0.826945 0.00956291 0
M  V30 1993 H 198.673 1.5336 -0.726558 0
M  V30 1994 H 197.445 3.66569 -1.36906 0
M  V30 1995 H 197.068 3.9631 0.319975 0
M  V30 1996 N 198.065 0.39524 1.52563 0
M  V30 1997 C 199.293 -0.184943 2.06072 0
M  V30 1998 C 199.708 -1.40021 1.26647 0
M  V30 1999 O 199.065 -1.79767 0.314672 0
M  V30 2000 C 199.116 -0.549179 3.57304 0
M  V30 2001 O 198.837 0.617813 4.33722 0
M  V30 2002 C 200.338 -1.18459 4.2718 0
M  V30 2003 H 197.558 -0.0265025 0.670476 0
M  V30 2004 H 200.102 0.562184 1.96621 0
M  V30 2005 H 198.257 -1.2462 3.66809 0
M  V30 2006 H 198.671 0.317091 5.23541 0
M  V30 2007 H 200.145 -1.38976 5.34219 0
M  V30 2008 H 200.622 -2.15368 3.82771 0
M  V30 2009 H 201.228 -0.528163 4.22008 0
M  V30 2010 N 199.544 -1.57102 0.125237 0
M  V30 2011 C 200.494 -2.12202 -0.833936 0
M  V30 2012 C 201.478 -1.04433 -1.22403 0
M  V30 2013 O 202.67 -1.30655 -1.19408 0
M  V30 2014 C 199.799 -2.72994 -2.08157 0
M  V30 2015 C 198.885 -3.87852 -1.71556 0
M  V30 2016 N 199.276 -4.9464 -1.05662 0
M  V30 2017 C 197.574 -3.98153 -2.00973 0
M  V30 2018 C 198.275 -5.74953 -0.883376 0
M  V30 2019 N 197.251 -5.24985 -1.41036 0
M  V30 2020 H 201.053 -2.92141 -0.321035 0
M  V30 2021 H 198.567 -1.62217 -0.0770315 0
M  V30 2022 H 200.564 -3.10816 -2.77847 0
M  V30 2023 H 199.224 -1.9452 -2.59985 0
M  V30 2024 H 200.235 -5.12872 -0.719878 0
M  V30 2025 H 196.912 -3.30728 -2.54804 0
M  V30 2026 H 198.302 -6.70904 -0.365675 0
M  V30 2027 N 201.022 0.148545 -1.56898 0
M  V30 2028 C 202.268 0.862694 -1.83536 0
M  V30 2029 C 202.601 1.80889 -0.706604 0
M  V30 2030 O 201.876 1.92328 0.289885 0
M  V30 2031 C 202.159 1.63853 -3.20662 0
M  V30 2032 C 202.012 0.713925 -4.44098 0
M  V30 2033 C 203.331 2.60133 -3.54991 0
M  V30 2034 H 200.45 0.312179 -0.667618 0
M  V30 2035 H 203.092 0.127953 -1.89569 0
M  V30 2036 H 201.242 2.26489 -3.1565 0
M  V30 2037 H 202.914 0.098686 -4.61194 0
M  V30 2038 H 201.157 0.0234019 -4.33794 0
M  V30 2039 H 201.828 1.29278 -5.36648 0
M  V30 2040 H 204.304 2.07616 -3.60603 0
M  V30 2041 H 203.18 3.11468 -4.51972 0
M  V30 2042 H 203.441 3.41417 -2.80868 0
M  V30 2043 N 202.5 1.5196 0.417844 0
M  V30 2044 C 203.45 1.7106 1.5074 0
M  V30 2045 C 204.434 0.564487 1.50673 0
M  V30 2046 O 205.626 0.821206 1.56797 0
M  V30 2047 C 202.755 1.85677 2.88754 0
M  V30 2048 C 201.841 3.06133 2.93502 0
M  V30 2049 N 202.232 4.28987 2.67962 0
M  V30 2050 C 200.53 3.05787 3.24669 0
M  V30 2051 C 201.231 5.10395 2.79055 0
M  V30 2052 N 200.207 4.45455 3.11561 0
M  V30 2053 H 204.009 2.63696 1.29775 0
M  V30 2054 H 201.523 1.49873 0.625436 0
M  V30 2055 H 203.52 1.97475 3.67164 0
M  V30 2056 H 202.18 0.942348 3.10725 0
M  V30 2057 H 203.191 4.57607 2.4252 0
M  V30 2058 H 199.868 2.2405 3.52289 0
M  V30 2059 H 201.258 6.18247 2.63097 0
M  V30 2060 N 203.978 -0.674533 1.42435 0
M  V30 2061 C 205.225 -1.43459 1.42919 0
M  V30 2062 C 205.553 -1.94446 0.0457312 0
M  V30 2063 O 204.808 -1.7132 -0.94593 0
M  V30 2064 C 205.107 -2.64767 2.40069 0
M  V30 2065 C 204.773 -2.3232 3.86443 0
M  V30 2066 C 203.435 -2.23182 4.26314 0
M  V30 2067 C 205.787 -2.05977 4.78773 0
M  V30 2068 C 203.115 -1.85827 5.56494 0
M  V30 2069 C 205.467 -1.70125 6.09295 0
M  V30 2070 C 204.131 -1.59498 6.48164 0
M  V30 2071 H 203.401 -0.524952 0.522978 0
M  V30 2072 H 206.048 -0.769097 1.75377 0
M  V30 2073 H 204.353 -3.36349 2.00939 0
M  V30 2074 H 206.05 -3.22949 2.37707 0
M  V30 2075 H 202.64 -2.40334 3.54877 0
M  V30 2076 H 206.824 -2.11969 4.48757 0
M  V30 2077 H 202.08 -1.76168 5.8547 0
M  V30 2078 H 206.254 -1.48767 6.80324 0
M  V30 2079 H 203.881 -1.30322 7.48946 0
M  V30 2080 N 205.456 -1.28612 -0.910864 0
M  V30 2081 C 206.705 -1.15311 -1.65488 0
M  V30 2082 C 207.018 0.296999 -1.93332 0
M  V30 2083 O 208.224 0.551168 -2.65847 0
M  V30 2084 C 206.68 -2.01599 -2.98137 0
M  V30 2085 C 206.288 -3.51367 -2.7793 0
M  V30 2086 C 208.032 -1.96993 -3.76024 0
M  V30 2087 C 205.939 -4.29797 -4.06237 0
M  V30 2088 H 204.869 -0.42796 -0.620779 0
M  V30 2089 H 207.52 -1.53166 -1.01057 0
M  V30 2090 H 205.902 -1.56603 -3.63719 0
M  V30 2091 H 207.076 -4.0434 -2.21011 0
M  V30 2092 H 205.391 -3.57529 -2.13452 0
M  V30 2093 H 207.988 -2.52856 -4.71135 0
M  V30 2094 H 208.331 -0.94733 -4.05378 0
M  V30 2095 H 208.864 -2.39973 -3.17266 0
M  V30 2096 H 205.603 -5.32648 -3.82055 0
M  V30 2097 H 205.123 -3.81596 -4.62757 0
M  V30 2098 H 206.802 -4.39869 -4.74473 0
M  V30 2099 N 206.934 1.1197 -1.10907 0
M  V30 2100 C 207.882 2.19927 -0.757303 0
M  V30 2101 C 208.876 1.67564 0.248747 0
M  V30 2102 O 210.082 1.79672 0.108605 0
M  V30 2103 H 206.457 0.716925 -0.226987 0
M  V30 2104 H 208.428 2.46847 -1.67658 0
M  V30 2105 C 207.177 3.47061 -0.210671 0
M  V30 2106 H 206.5 3.87703 -0.976049 0
M  V30 2107 H 207.94 4.24 -0.0026584 0
M  V30 2108 C 206.399 3.19864 1.05777 0
M  V30 2109 O 206.929 3.40049 2.13845 0
M  V30 2110 N 205.135 2.73636 0.978349 0
M  V30 2111 H 204.682 2.5741 0.0988246 0
M  V30 2112 H 204.64 2.55815 1.82773 0
M  V30 2113 N 208.412 0.89855 1.29475 0
M  V30 2114 C 209.823 0.572537 1.77705 0
M  V30 2115 C 210.174 -0.911778 1.73727 0
M  V30 2116 O 209.299 -1.71288 1.32247 0
M  V30 2117 C 209.894 1.03252 3.22683 0
M  V30 2118 C 208.453 0.757687 3.68695 0
M  V30 2119 C 207.6 1.20787 2.49612 0
M  V30 2120 H 210.551 1.08139 1.16153 0
M  V30 2121 H 210.572 0.367307 3.78723 0
M  V30 2122 H 210.084 2.11285 3.25546 0
M  V30 2123 H 208.185 -0.310079 3.71308 0
M  V30 2124 H 208.298 1.35476 4.59547 0
M  V30 2125 H 206.662 0.626888 2.46865 0
M  V30 2126 H 207.445 2.29622 2.55203 0
M  V30 2127 N 209.89 -1.43072 0.660911 0
M  V30 2128 C 211.167 -1.95307 0.107017 0
M  V30 2129 C 211.547 -1.60192 -1.37484 0
M  V30 2130 O 210.895 -0.890949 -2.10415 0
M  V30 2131 C 211.105 -3.47124 0.361402 0
M  V30 2132 C 212.453 -4.23738 0.270455 0
M  V30 2133 O 213.477 -3.54981 0.294382 0
M  V30 2134 O 212.336 -5.46131 0.200737 0
M  V30 2135 H 209.43 -0.826984 -0.00517729 0
M  V30 2136 H 211.976 -1.52972 0.734681 0
M  V30 2137 H 210.748 -3.65837 1.38848 0
M  V30 2138 H 210.371 -3.96475 -0.298953 0
M  V30 2139 N 211.368 -0.403325 -1.52352 0
M  V30 2140 C 212.3 0.4603 -2.2453 0
M  V30 2141 C 213.313 1.01505 -1.27282 0
M  V30 2142 O 214.502 0.914982 -1.53266 0
M  V30 2143 C 211.602 1.65208 -2.95905 0
M  V30 2144 C 210.775 1.22224 -4.19976 0
M  V30 2145 C 209.834 2.28028 -4.74226 0
M  V30 2146 O 208.86 1.88857 -5.36956 0
M  V30 2147 N 210.062 3.6012 -4.55295 0
M  V30 2148 H 212.827 -0.158156 -2.99282 0
M  V30 2149 H 210.388 -0.230402 -1.60252 0
M  V30 2150 H 212.38 2.35541 -3.29093 0
M  V30 2151 H 210.95 2.17658 -2.24374 0
M  V30 2152 H 210.17 0.34725 -3.92668 0
M  V30 2153 H 211.458 0.911924 -5.00561 0
M  V30 2154 H 210.856 3.94698 -4.05253 0
M  V30 2155 H 209.413 4.26447 -4.92936 0
M  V30 2156 N 212.846 1.57033 -0.133567 0
M  V30 2157 C 214.092 1.95976 0.521649 0
M  V30 2158 C 214.425 1.01779 1.65393 0
M  V30 2159 O 213.7 0.0576581 1.94415 0
M  V30 2160 C 213.983 3.44738 1.04057 0
M  V30 2161 C 213.836 4.49711 -0.0892897 0
M  V30 2162 C 215.155 3.95682 1.92675 0
M  V30 2163 H 212.274 0.712579 0.188149 0
M  V30 2164 H 214.916 1.88813 -0.212076 0
M  V30 2165 H 213.066 3.50973 1.66583 0
M  V30 2166 H 214.738 4.55565 -0.725152 0
M  V30 2167 H 212.981 4.27261 -0.750378 0
M  V30 2168 H 213.652 5.51099 0.315284 0
M  V30 2169 H 216.128 3.91841 1.39998 0
M  V30 2170 H 215.004 5.00262 2.25897 0
M  V30 2171 H 215.265 3.37239 2.85872 0
M  V30 2172 N 214.325 -0.140222 1.56975 0
M  V30 2173 C 215.602 -0.880769 1.74648 0
M  V30 2174 C 215.982 -1.99036 0.703404 0
M  V30 2175 O 215.33 -2.26821 -0.27648 0
M  V30 2176 C 215.54 -1.417 3.18939 0
M  V30 2177 C 216.888 -1.87774 3.80823 0
M  V30 2178 O 217.912 -1.51427 3.2241 0
M  V30 2179 O 216.771 -2.54827 4.83452 0
M  V30 2180 H 213.865 -0.416713 0.714338 0
M  V30 2181 H 216.411 -0.125618 1.69234 0
M  V30 2182 H 215.183 -0.619902 3.86359 0
M  V30 2183 H 214.806 -2.23546 3.28805 0
M  V30 2184 N 215.803 -1.52179 -0.40978 0
M  V30 2185 C 217.049 -1.66453 -1.15851 0
M  V30 2186 C 217.382 -0.392972 -1.90182 0
M  V30 2187 O 216.657 0.608579 -1.84734 0
M  V30 2188 C 216.94 -2.88612 -2.15349 0
M  V30 2189 C 216.793 -4.25815 -1.44918 0
M  V30 2190 C 218.112 -3.06294 -3.16026 0
M  V30 2191 H 215.231 -0.60575 -0.419805 0
M  V30 2192 H 217.873 -1.84732 -0.444314 0
M  V30 2193 H 216.023 -2.73158 -2.76255 0
M  V30 2194 H 217.695 -4.52995 -0.871365 0
M  V30 2195 H 215.938 -4.27247 -0.751159 0
M  V30 2196 H 216.609 -5.07337 -2.17516 0
M  V30 2197 H 219.085 -3.20641 -2.65195 0
M  V30 2198 H 217.961 -3.93283 -3.8291 0
M  V30 2199 H 218.222 -2.19579 -3.83715 0
M  V30 2200 N 217.281 0.66697 -1.42791 0
M  V30 2201 C 218.244 1.76211 -1.46568 0
M  V30 2202 C 219.244 1.56896 -0.352196 0
M  V30 2203 O 220.434 1.63044 -0.613364 0
M  V30 2204 C 217.566 3.14935 -1.30494 0
M  V30 2205 H 218.759 1.74247 -2.44086 0
M  V30 2206 H 216.312 0.877342 -1.29354 0
M  V30 2207 H 217.047 3.2252 -0.339301 0
M  V30 2208 H 216.832 3.30359 -2.11199 0
M  V30 2209 H 218.322 3.94821 -1.36038 0
M  V30 2210 N 218.759 1.29093 0.90403 0
M  V30 2211 C 219.689 1.16401 2.02418 0
M  V30 2212 C 220.67 0.0593085 1.69997 0
M  V30 2213 O 221.855 0.238021 1.92736 0
M  V30 2214 C 218.985 0.835233 3.37107 0
M  V30 2215 C 217.939 1.89578 3.83724 0
M  V30 2216 C 217.265 1.42041 5.15489 0
M  V30 2217 C 218.565 3.30394 4.04521 0
M  V30 2218 H 220.259 2.10109 2.13295 0
M  V30 2219 H 217.805 1.01157 1.02486 0
M  V30 2220 H 219.758 0.733169 4.14973 0
M  V30 2221 H 218.482 -0.137543 3.2631 0
M  V30 2222 H 217.141 1.98715 3.08071 0
M  V30 2223 H 216.789 0.436426 5.01103 0
M  V30 2224 H 216.489 2.12964 5.4765 0
M  V30 2225 H 218.013 1.33176 5.959 0
M  V30 2226 H 219.427 3.24123 4.72882 0
M  V30 2227 H 217.824 3.99237 4.48029 0
M  V30 2228 H 218.894 3.73692 3.09002 0
M  V30 2229 N 220.237 -1.11381 1.11499 0
M  V30 2230 C 221.2 -2.15622 0.777153 0
M  V30 2231 C 222.2 -1.59504 -0.203779 0
M  V30 2232 O 223.39 -1.74188 0.020782 0
M  V30 2233 C 220.522 -3.40556 0.153116 0
M  V30 2234 H 221.715 -2.47021 1.70061 0
M  V30 2235 H 219.268 -1.26577 0.916952 0
M  V30 2236 H 220.003 -3.14767 -0.780536 0
M  V30 2237 H 219.788 -3.8257 0.859238 0
M  V30 2238 H 221.278 -4.17546 -0.0671044 0
M  V30 2239 N 221.715 -0.905404 -1.28997 0
M  V30 2240 C 222.663 -0.377431 -2.29517 0
M  V30 2241 C 223.657 0.526461 -1.61012 0
M  V30 2242 O 224.863 0.40863 -1.753 0
M  V30 2243 H 221.238 -0.103437 -0.744852 0
M  V30 2244 H 223.209 -1.23848 -2.71485 0
M  V30 2245 C 221.958 0.374833 -3.45674 0
M  V30 2246 H 221.281 -0.311474 -3.98585 0
M  V30 2247 H 222.721 0.70903 -4.1803 0
M  V30 2248 C 221.18 1.57963 -2.97572 0
M  V30 2249 O 221.71 2.67886 -2.99333 0
M  V30 2250 N 219.916 1.42375 -2.53333 0
M  V30 2251 H 219.463 0.529466 -2.521 0
M  V30 2252 H 219.421 2.23117 -2.21509 0
M  V30 2253 N 223.193 1.4272 -0.668489 0
M  V30 2254 C 224.441 2.01226 -0.187769 0
M  V30 2255 C 224.762 1.53092 1.2078 0
M  V30 2256 O 224.032 0.74993 1.80977 0
M  V30 2257 H 222.612 0.744041 -0.0664272 0
M  V30 2258 H 225.274 1.74723 -0.863583 0
M  V30 2259 H 224.37 3.11556 -0.184166 0
M  V30 2260 N 224.671 0.411399 1.52136 0
M  V30 2261 C 225.92 -0.165009 2.01024 0
M  V30 2262 C 226.233 -1.4603 1.30133 0
M  V30 2263 O 227.439 -2.1181 1.69849 0
M  V30 2264 C 225.895 -0.344618 3.58246 0
M  V30 2265 C 225.503 0.938716 4.38055 0
M  V30 2266 C 227.247 -0.876195 4.15359 0
M  V30 2267 C 225.154 0.726172 5.86925 0
M  V30 2268 H 224.084 -0.0654407 0.751155 0
M  V30 2269 H 226.735 0.537192 1.75461 0
M  V30 2270 H 225.117 -1.10921 3.80148 0
M  V30 2271 H 226.291 1.70963 4.27912 0
M  V30 2272 H 224.606 1.39688 3.92271 0
M  V30 2273 H 227.203 -1.05128 5.24263 0
M  V30 2274 H 227.546 -1.85152 3.7286 0
M  V30 2275 H 228.079 -0.170607 3.97434 0
M  V30 2276 H 224.818 1.67312 6.33788 0
M  V30 2277 H 224.338 -0.00540283 5.998 0
M  V30 2278 H 226.017 0.369231 6.45946 0
M  V30 2279 N 226.149 -1.5696 0.141893 0
M  V30 2280 C 227.377 -2.00322 -0.517579 0
M  V30 2281 C 227.792 -1.02193 -1.58752 0
M  V30 2282 O 227.149 -0.0181619 -1.82491 0
M  V30 2283 C 227.2 -3.43618 -1.12289 0
M  V30 2284 O 226.921 -4.37995 -0.0956929 0
M  V30 2285 C 228.422 -4.02231 -1.86347 0
M  V30 2286 H 225.642 -0.657243 -0.135177 0
M  V30 2287 H 228.186 -2.03146 0.234973 0
M  V30 2288 H 226.341 -3.41662 -1.82609 0
M  V30 2289 H 226.755 -5.21729 -0.538469 0
M  V30 2290 H 228.229 -5.04509 -2.23997 0
M  V30 2291 H 228.706 -3.42655 -2.74744 0
M  V30 2292 H 229.312 -4.07802 -1.20737 0
M  V30 2293 N 227.627 0.131896 -1.57047 0
M  V30 2294 C 228.855 0.856461 -1.88341 0
M  V30 2295 C 229.27 1.74042 -0.731757 0
M  V30 2296 O 228.627 1.80051 0.297945 0
M  V30 2297 C 228.678 1.70064 -3.18999 0
M  V30 2298 O 228.399 0.852278 -4.2973 0
M  V30 2299 C 229.9 2.53148 -3.63911 0
M  V30 2300 H 227.12 0.246885 -0.62393 0
M  V30 2301 H 229.664 0.120152 -2.04147 0
M  V30 2302 H 227.819 2.38984 -3.04902 0
M  V30 2303 H 228.233 1.43329 -5.04537 0
M  V30 2304 H 229.707 3.07931 -4.58129 0
M  V30 2305 H 230.184 3.29901 -2.89935 0
M  V30 2306 H 230.79 1.89492 -3.80753 0
M  V30 2307 N 229.106 1.52395 0.401703 0
M  V30 2308 C 230.036 1.79231 1.49661 0
M  V30 2309 C 231.017 0.643654 1.57452 0
M  V30 2310 O 232.202 0.889989 1.72606 0
M  V30 2311 C 229.332 1.94971 2.87409 0
M  V30 2312 C 228.286 3.10604 2.94465 0
M  V30 2313 C 227.612 3.11577 4.34538 0
M  V30 2314 C 228.912 4.49921 2.6527 0
M  V30 2315 H 230.606 2.70917 1.27454 0
M  V30 2316 H 228.152 1.30362 0.6117 0
M  V30 2317 H 230.105 2.12328 3.63999 0
M  V30 2318 H 228.829 0.999632 3.10926 0
M  V30 2319 H 227.488 2.93009 2.20321 0
M  V30 2320 H 227.136 2.14277 4.55076 0
M  V30 2321 H 226.836 3.89247 4.40183 0
M  V30 2322 H 228.36 3.31073 5.13053 0
M  V30 2323 H 229.774 4.67683 3.31581 0
M  V30 2324 H 228.171 5.29564 2.82281 0
M  V30 2325 H 229.241 4.57507 1.60671 0
M  V30 2326 N 230.584 -0.659388 1.43143 0
M  V30 2327 C 231.831 -1.41935 1.44433 0
M  V30 2328 C 232.159 -1.94387 0.0663522 0
M  V30 2329 O 231.414 -1.72314 -0.927706 0
M  V30 2330 C 231.713 -2.62206 2.42864 0
M  V30 2331 C 231.379 -2.28208 3.88886 0
M  V30 2332 C 230.041 -2.18647 4.28657 0
M  V30 2333 C 232.393 -2.00887 4.8093 0
M  V30 2334 C 229.721 -1.79914 5.58433 0
M  V30 2335 C 232.073 -1.63653 6.11065 0
M  V30 2336 C 230.737 -1.52614 6.49819 0
M  V30 2337 H 230.007 -0.519376 0.528517 0
M  V30 2338 H 232.654 -0.750453 1.76183 0
M  V30 2339 H 230.959 -3.34199 2.04495 0
M  V30 2340 H 232.656 -3.2041 2.41119 0
M  V30 2341 H 229.246 -2.36557 3.57406 0
M  V30 2342 H 233.43 -2.07198 4.5098 0
M  V30 2343 H 228.686 -1.69948 5.87305 0
M  V30 2344 H 232.86 -1.41543 6.81864 0
M  V30 2345 H 230.487 -1.22371 7.50286 0
M  V30 2346 N 232.062 -1.29571 -0.897171 0
M  V30 2347 C 233.31 -1.17456 -1.64464 0
M  V30 2348 C 233.631 0.273698 -1.9307 0
M  V30 2349 O 232.901 1.18684 -1.55855 0
M  V30 2350 H 231.481 -0.431706 -0.609622 0
M  V30 2351 H 234.143 -1.62531 -1.07562 0
M  V30 2352 H 233.239 -1.72648 -2.59998 0
M  V30 2353 N 233.54 1.10788 -1.12088 0
M  V30 2354 C 234.788 1.8231 -0.872205 0
M  V30 2355 C 235.109 1.85419 0.603709 0
M  V30 2356 O 234.379 1.32963 1.43867 0
M  V30 2357 H 232.959 0.675137 -0.319686 0
M  V30 2358 H 235.621 1.34068 -1.41463 0
M  V30 2359 H 234.717 2.85955 -1.25045 0
M  V30 2360 N 235.018 0.912232 1.28515 0
M  V30 2361 C 236.266 0.543523 1.94654 0
M  V30 2362 C 236.587 -0.9155 1.72173 0
M  V30 2363 O 235.857 -1.64708 1.06058 0
M  V30 2364 H 234.437 0.198017 0.720277 0
M  V30 2365 H 237.099 1.16126 1.56527 0
M  V30 2366 H 236.195 0.736684 3.03281 0
M  V30 2367 N 236.496 -1.42363 0.676048 0
M  V30 2368 C 237.724 -2.05859 0.207268 0
M  V30 2369 C 238.139 -1.50796 -1.13605 0
M  V30 2370 O 237.496 -0.648265 -1.70598 0
M  V30 2371 C 237.547 -3.61248 0.134975 0
M  V30 2372 O 237.268 -4.1427 1.42521 0
M  V30 2373 C 238.769 -4.41859 -0.357151 0
M  V30 2374 H 235.989 -0.663431 0.100503 0
M  V30 2375 H 238.533 -1.82479 0.923136 0
M  V30 2376 H 236.688 -3.83735 -0.531588 0
M  V30 2377 H 237.102 -5.0815 1.29939 0
M  V30 2378 H 238.576 -5.50847 -0.356641 0
M  V30 2379 H 239.053 -4.16536 -1.39264 0
M  V30 2380 H 239.659 -4.24392 0.27772 0
M  V30 2381 N 237.974 -0.419461 -1.51915 0
M  V30 2382 C 239.222 0.152637 -2.01523 0
M  V30 2383 C 239.543 1.44762 -1.30649 0
M  V30 2384 O 238.813 1.90997 -0.435535 0
M  V30 2385 H 237.393 0.0593966 -0.744635 0
M  V30 2386 H 240.055 -0.558073 -1.86739 0
M  V30 2387 H 239.151 0.341369 -3.10227 0
M  V30 2388 N 239.452 1.56882 -0.150215 0
M  V30 2389 C 240.863 1.82995 0.370076 0
M  V30 2390 C 241.214 1.06907 1.64515 0
M  V30 2391 O 240.339 0.315369 2.1409 0
M  V30 2392 C 240.934 3.31942 0.678208 0
M  V30 2393 C 239.493 3.58625 1.14301 0
M  V30 2394 C 238.64 2.76792 0.167778 0
M  V30 2395 H 241.591 1.54209 -0.374858 0
M  V30 2396 H 241.612 3.48272 1.53254 0
M  V30 2397 H 241.124 3.87294 -0.249991 0
M  V30 2398 H 239.225 3.08664 2.08704 0
M  V30 2399 H 239.338 4.67073 1.06676 0
M  V30 2400 H 237.702 2.45972 0.661037 0
M  V30 2401 H 238.485 3.34916 -0.754069 0
M  V30 2402 N 240.93 -0.123565 1.57115 0
M  V30 2403 C 241.893 -1.13583 1.99076 0
M  V30 2404 C 242.893 -1.34564 0.880296 0
M  V30 2405 O 244.083 -1.31158 1.14644 0
M  V30 2406 C 241.215 -2.49128 2.32698 0
M  V30 2407 H 242.408 -0.775287 2.89706 0
M  V30 2408 H 239.961 -0.36771 1.51913 0
M  V30 2409 H 240.696 -2.90111 1.44934 0
M  V30 2410 H 240.481 -2.35255 3.13684 0
M  V30 2411 H 241.971 -3.2199 2.65918 0
M  V30 2412 N 242.408 -1.52605 -0.393616 0
M  V30 2413 C 243.318 -1.79971 -1.50492 0
M  V30 2414 C 244.334 -0.686181 -1.59899 0
M  V30 2415 O 245.51 -0.973274 -1.76322 0
M  V30 2416 C 242.575 -1.95867 -2.86072 0
M  V30 2417 C 241.636 -3.19781 -2.86424 0
M  V30 2418 C 240.869 -3.34909 -4.15538 0
M  V30 2419 O 241.092 -2.54948 -5.10253 0
M  V30 2420 O 240.026 -4.28141 -4.23059 0
M  V30 2421 H 243.852 -2.74328 -1.30299 0
M  V30 2422 H 241.437 -1.3764 -0.581005 0
M  V30 2423 H 243.319 -2.08056 -3.66457 0
M  V30 2424 H 241.994 -1.04699 -3.063 0
M  V30 2425 H 240.901 -3.13038 -2.04837 0
M  V30 2426 H 242.234 -4.1078 -2.71147 0
M  V30 2427 N 243.887 0.651787 -1.4349 0
M  V30 2428 C 245.135 1.40888 -1.44897 0
M  V30 2429 C 245.456 1.94856 -0.0749086 0
M  V30 2430 O 244.726 1.74518 0.889956 0
M  V30 2431 H 243.306 0.522887 -0.533478 0
M  V30 2432 H 245.968 0.768609 -1.79104 0
M  V30 2433 H 245.064 2.25052 -2.16236 0
M  V30 2434 N 245.365 1.30045 0.890287 0
M  V30 2435 C 246.59 1.21598 1.68014 0
M  V30 2436 C 247.015 -0.218678 1.86825 0
M  V30 2437 O 246.373 -1.15756 1.39536 0
M  V30 2438 C 246.421 1.94434 3.03691 0
M  V30 2439 O 245.525 1.2678 3.92429 0
M  V30 2440 H 244.866 0.420856 0.513592 0
M  V30 2441 H 247.396 1.71775 1.11151 0
M  V30 2442 H 247.406 2.03251 3.5377 0
M  V30 2443 H 246.081 2.98777 2.89318 0
M  V30 2444 H 244.658 1.26282 3.50866 0
M  V30 2445 N 246.843 -1.10192 1.12674 0
M  V30 2446 C 247.79 -2.16606 0.796906 0
M  V30 2447 C 248.76 -1.64394 -0.237476 0
M  V30 2448 O 249.945 -1.90474 -0.111484 0
M  V30 2449 C 247.085 -3.44116 0.26043 0
M  V30 2450 C 246.198 -4.10268 1.35293 0
M  V30 2451 C 245.333 -5.25507 0.775621 0
M  V30 2452 C 244.372 -5.83567 1.84706 0
M  V30 2453 N 243.509 -6.90179 1.28829 0
M  V30 2454 H 248.349 -2.44163 1.70846 0
M  V30 2455 H 245.886 -1.19846 0.85295 0
M  V30 2456 H 247.844 -4.17143 -0.0686814 0
M  V30 2457 H 246.474 -3.16901 -0.614274 0
M  V30 2458 H 245.526 -3.35184 1.79877 0
M  V30 2459 H 246.838 -4.4946 2.16303 0
M  V30 2460 H 245.992 -6.05398 0.397327 0
M  V30 2461 H 244.731 -4.87656 -0.0656581 0
M  V30 2462 H 243.736 -5.02344 2.23452 0
M  V30 2463 H 244.961 -6.23482 2.69161 0
M  V30 2464 H 242.907 -6.54322 0.468881 0
M  V30 2465 H 242.824 -7.28097 2.03497 0
M  V30 2466 H 244.092 -7.73844 0.937311 0
M  V30 2467 N 248.321 -0.919034 -1.28029 0
M  V30 2468 C 249.284 -0.416182 -2.2539 0
M  V30 2469 C 250.284 0.460438 -1.54067 0
M  V30 2470 O 251.474 0.262744 -1.72207 0
M  V30 2471 C 248.606 0.402707 -3.38513 0
M  V30 2472 H 249.799 -1.27629 -2.71387 0
M  V30 2473 H 247.352 -0.698919 -1.39803 0
M  V30 2474 H 248.087 1.282 -2.97885 0
M  V30 2475 H 247.872 -0.225698 -3.9145 0
M  V30 2476 H 249.362 0.745191 -4.10897 0
M  V30 2477 N 249.799 1.42003 -0.683588 0
M  V30 2478 C 251.027 2.05746 -0.218182 0
M  V30 2479 C 251.442 1.51396 1.12804 0
M  V30 2480 O 250.799 0.657303 1.70252 0
M  V30 2481 C 250.85 3.61171 -0.154131 0
M  V30 2482 O 250.571 4.13508 -1.44716 0
M  V30 2483 C 252.072 4.42042 0.333713 0
M  V30 2484 H 249.292 0.662888 -0.10402 0
M  V30 2485 H 251.836 1.81987 -0.9328 0
M  V30 2486 H 249.991 3.84012 0.511231 0
M  V30 2487 H 250.405 5.07453 -1.32632 0
M  V30 2488 H 251.879 5.51028 0.327423 0
M  V30 2489 H 252.356 4.17269 1.37053 0
M  V30 2490 H 252.962 4.24239 -0.300222 0
M  V30 2491 N 251.277 0.427512 1.51691 0
M  V30 2492 C 252.505 -0.141191 2.06418 0
M  V30 2493 C 252.92 -1.37303 1.29589 0
M  V30 2494 O 252.277 -1.79059 0.352732 0
M  V30 2495 C 252.328 -0.473266 3.58389 0
M  V30 2496 O 252.049 0.709673 4.32314 0
M  V30 2497 C 253.55 -1.09371 4.29596 0
M  V30 2498 H 250.77 -0.0122747 0.670888 0
M  V30 2499 H 253.314 0.603764 1.95384 0
M  V30 2500 H 251.469 -1.16812 3.69369 0
M  V30 2501 H 251.883 0.42807 5.2275 0
M  V30 2502 H 253.357 -1.27613 5.37046 0
M  V30 2503 H 253.834 -2.072 3.87253 0
M  V30 2504 H 254.44 -0.43853 4.23033 0
M  V30 2505 N 252.755 -1.56801 0.158532 0
M  V30 2506 C 254.001 -1.96781 -0.490405 0
M  V30 2507 C 254.334 -1.04397 -1.63753 0
M  V30 2508 O 253.609 -0.0885805 -1.94298 0
M  V30 2509 C 253.892 -3.4635 -0.985594 0
M  V30 2510 C 253.745 -4.49512 0.160824 0
M  V30 2511 C 255.064 -3.98697 -1.86355 0
M  V30 2512 H 252.183 -0.715482 -0.176788 0
M  V30 2513 H 254.825 -1.88451 0.242088 0
M  V30 2514 H 252.975 -3.53579 -1.60978 0
M  V30 2515 H 254.647 -4.54353 0.797537 0
M  V30 2516 H 252.89 -4.26013 0.818256 0
M  V30 2517 H 253.561 -5.51531 -0.227569 0
M  V30 2518 H 256.037 -3.94019 -1.33746 0
M  V30 2519 H 254.913 -5.03792 -2.17909 0
M  V30 2520 H 255.174 -3.41744 -2.8047 0
M  V30 2521 N 254.233 0.115231 -1.57178 0
M  V30 2522 C 255.461 0.836437 -1.89239 0
M  V30 2523 C 255.876 1.73256 -0.750175 0
M  V30 2524 O 255.233 1.80357 0.278832 0
M  V30 2525 C 255.284 1.66671 -3.20785 0
M  V30 2526 O 255.005 0.806652 -4.3061 0
M  V30 2527 C 256.506 2.49274 -3.66575 0
M  V30 2528 H 253.726 0.240253 -0.626514 0
M  V30 2529 H 256.27 0.0984932 -2.04263 0
M  V30 2530 H 254.425 2.35737 -3.0742 0
M  V30 2531 H 254.839 1.37969 -5.06028 0
M  V30 2532 H 256.313 3.03055 -4.6137 0
M  V30 2533 H 256.79 3.26807 -2.93417 0
M  V30 2534 H 257.396 1.85443 -3.82741 0
M  V30 2535 N 255.711 1.52812 0.385517 0
M  V30 2536 C 257.122 1.5993 0.963293 0
M  V30 2537 C 257.473 0.454302 1.90868 0
M  V30 2538 O 256.598 -0.422132 2.12243 0
M  V30 2539 C 257.193 2.89871 1.75387 0
M  V30 2540 C 255.752 2.99389 2.28129 0
M  V30 2541 C 254.899 2.55071 1.08783 0
M  V30 2542 H 257.85 1.5784 0.164948 0
M  V30 2543 H 257.871 2.76553 2.61341 0
M  V30 2544 H 257.383 3.73186 1.06554 0
M  V30 2545 H 255.484 2.20619 3.00263 0
M  V30 2546 H 255.597 4.04096 2.57377 0
M  V30 2547 H 253.961 2.09473 1.4489 0
M  V30 2548 H 254.744 3.40785 0.414807 0
M  V30 2549 N 257.189 -0.644168 1.43834 0
M  V30 2550 C 258.437 -1.40117 1.45642 0
M  V30 2551 C 258.758 -1.94814 0.0852413 0
M  V30 2552 O 258.028 -1.74988 -0.880688 0
M  V30 2553 H 256.608 -0.52005 0.536243 0
M  V30 2554 H 259.27 -0.7591 1.7951 0
M  V30 2555 H 258.366 -2.23902 2.17427 0
M  V30 2556 N 258.668 -1.30515 -0.883378 0
M  V30 2557 C 260.079 -1.17509 -1.45081 0
M  V30 2558 C 260.43 0.223605 -1.94922 0
M  V30 2559 O 259.555 1.12041 -1.85137 0
M  V30 2560 C 260.15 -2.12715 -2.63701 0
M  V30 2561 C 258.709 -2.03682 -3.16529 0
M  V30 2562 C 257.856 -2.02706 -1.89224 0
M  V30 2563 H 260.807 -1.42762 -0.693165 0
M  V30 2564 H 260.828 -1.70891 -3.39965 0
M  V30 2565 H 260.34 -3.14505 -2.27395 0
M  V30 2566 H 258.441 -1.05039 -3.57488 0
M  V30 2567 H 258.554 -2.92146 -3.7972 0
M  V30 2568 H 256.918 -1.4753 -2.07622 0
M  V30 2569 H 257.701 -3.06229 -1.55174 0
M  V30 2570 N 260.146 1.09593 -1.13257 0
M  V30 2571 C 261.392 1.82181 -0.904521 0
M  V30 2572 C 261.747 1.83967 0.563358 0
M  V30 2573 O 261.04 1.29566 1.41149 0
M  V30 2574 C 261.234 3.27802 -1.42411 0
M  V30 2575 C 261.063 3.40201 -2.94097 0
M  V30 2576 C 259.833 3.52104 -3.62424 0
M  V30 2577 C 262.031 3.32875 -3.92044 0
M  V30 2578 N 260.013 3.53169 -5.0214 0
M  V30 2579 C 261.384 3.40789 -5.17941 0
M  V30 2580 C 263.439 3.16531 -3.84334 0
M  V30 2581 C 262.142 3.34042 -6.37031 0
M  V30 2582 C 264.168 3.11109 -5.02956 0
M  V30 2583 C 263.53 3.19614 -6.27715 0
M  V30 2584 H 259.629 0.681015 -0.384373 0
M  V30 2585 H 262.213 1.3099 -1.44048 0
M  V30 2586 H 260.384 3.77466 -0.915086 0
M  V30 2587 H 262.116 3.88393 -1.13722 0
M  V30 2588 H 258.871 3.5548 -3.12939 0
M  V30 2589 H 259.295 3.57291 -5.75041 0
M  V30 2590 H 263.937 3.08827 -2.88766 0
M  V30 2591 H 261.655 3.4051 -7.32857 0
M  V30 2592 H 265.241 2.99601 -4.98729 0
M  V30 2593 H 264.121 3.15432 -7.17964 0
M  V30 2594 N 261.624 0.925811 1.2754 0
M  V30 2595 C 262.572 0.413897 2.28888 0
M  V30 2596 C 263.566 -0.500779 1.61829 0
M  V30 2597 O 264.772 -0.38069 1.75928 0
M  V30 2598 H 261.147 0.115274 0.743112 0
M  V30 2599 H 263.118 1.28151 2.69481 0
M  V30 2600 C 261.867 -0.319792 3.46226 0
M  V30 2601 H 261.19 0.374846 3.98039 0
M  V30 2602 H 262.63 -0.642435 4.19105 0
M  V30 2603 C 261.089 -1.53209 3.00048 0
M  V30 2604 O 261.619 -2.6309 3.03557 0
M  V30 2605 N 259.825 -1.38326 2.55566 0
M  V30 2606 H 259.372 -0.489292 2.5291 0
M  V30 2607 H 259.33 -2.19564 2.25031 0
M  V30 2608 N 263.102 -1.41638 0.69111 0
M  V30 2609 C 264.351 -2.00526 0.217318 0
M  V30 2610 C 264.664 -1.55353 -1.18848 0
M  V30 2611 O 265.87 -2.06769 -1.75951 0
M  V30 2612 C 264.326 -3.58313 0.337639 0
M  V30 2613 C 263.934 -4.12469 1.74852 0
M  V30 2614 C 265.678 -4.24431 -0.0766066 0
M  V30 2615 C 263.585 -5.62675 1.82074 0
M  V30 2616 H 262.515 -0.750008 0.0774893 0
M  V30 2617 H 265.166 -1.6217 0.858661 0
M  V30 2618 H 263.548 -3.9425 -0.371879 0
M  V30 2619 H 264.722 -3.8796 2.48644 0
M  V30 2620 H 263.037 -3.58861 2.11205 0
M  V30 2621 H 265.634 -5.34683 -0.0430284 0
M  V30 2622 H 265.977 -4.01101 -1.1146 0
M  V30 2623 H 266.51 -3.93512 0.582476 0
M  V30 2624 H 263.249 -5.90826 2.83911 0
M  V30 2625 H 262.769 -5.89124 1.12661 0
M  V30 2626 H 264.448 -6.27371 1.58159 0
M  V30 2627 N 264.58 -0.43555 -1.51462 0
M  V30 2628 C 265.49 0.383001 -2.31453 0
M  V30 2629 C 266.506 1.02931 -1.4029 0
M  V30 2630 O 267.682 1.02507 -1.73362 0
M  V30 2631 C 264.747 1.47043 -3.13973 0
M  V30 2632 C 263.808 0.844433 -4.20913 0
M  V30 2633 C 263.041 1.88004 -4.9949 0
M  V30 2634 O 263.264 3.10199 -4.78678 0
M  V30 2635 O 262.198 1.47157 -5.83634 0
M  V30 2636 H 266.024 -0.269964 -3.02498 0
M  V30 2637 H 263.609 -0.19813 -1.4808 0
M  V30 2638 H 265.491 2.10113 -3.65281 0
M  V30 2639 H 264.166 2.10751 -2.45695 0
M  V30 2640 H 263.073 0.175729 -3.73687 0
M  V30 2641 H 264.406 0.250869 -4.9156 0
M  V30 2642 N 266.058 1.56714 -0.166846 0
M  V30 2643 C 267.005 2.17746 0.765193 0
M  V30 2644 C 267.975 1.11614 1.23011 0
M  V30 2645 O 269.16 1.39745 1.29908 0
M  V30 2646 C 266.3 2.81882 1.9909 0
M  V30 2647 C 265.413 4.02462 1.56997 0
M  V30 2648 C 264.548 4.54537 2.749 0
M  V30 2649 C 263.587 5.67538 2.29275 0
M  V30 2650 N 262.724 6.14142 3.40255 0
M  V30 2651 H 267.564 2.97048 0.237952 0
M  V30 2652 H 265.101 1.4672 0.105725 0
M  V30 2653 H 267.059 3.17221 2.70974 0
M  V30 2654 H 265.689 2.05191 2.49192 0
M  V30 2655 H 264.741 3.72973 0.748037 0
M  V30 2656 H 266.053 4.84273 1.19503 0
M  V30 2657 H 265.207 4.92035 3.54946 0
M  V30 2658 H 263.946 3.71774 3.1565 0
M  V30 2659 H 262.951 5.29597 1.47674 0
M  V30 2660 H 264.176 6.52099 1.89588 0
M  V30 2661 H 262.122 5.3431 3.8059 0
M  V30 2662 H 262.039 6.9093 3.06841 0
M  V30 2663 H 263.307 6.56289 4.206 0
M  V30 2664 N 267.536 -0.106894 1.57237 0
M  V30 2665 C 268.469 -1.16125 1.96444 0
M  V30 2666 C 269.447 -1.3947 0.835871 0
M  V30 2667 O 270.631 -1.53425 1.09513 0
M  V30 2668 C 267.758 -2.51277 2.27107 0
M  V30 2669 C 266.804 -2.44285 3.4961 0
M  V30 2670 S 267.637 -1.87077 5.01759 0
M  V30 2671 C 268.793 -3.23877 5.35588 0
M  V30 2672 H 269.026 -0.826971 2.85567 0
M  V30 2673 H 266.559 -0.314124 1.51171 0
M  V30 2674 H 268.517 -3.29035 2.45451 0
M  V30 2675 H 267.178 -2.81879 1.38576 0
M  V30 2676 H 266.371 -3.4387 3.68469 0
M  V30 2677 H 265.973 -1.74652 3.30715 0
M  V30 2678 H 268.265 -4.20122 5.31511 0
M  V30 2679 H 269.208 -3.09833 6.36717 0
M  V30 2680 H 269.616 -3.22864 4.63054 0
M  V30 2681 N 269.014 -1.53014 -0.377408 0
M  V30 2682 C 269.944 -1.81589 -1.46791 0
M  V30 2683 C 270.925 -0.668622 -1.56408 0
M  V30 2684 O 272.11 -0.917337 -1.71168 0
M  V30 2685 C 269.24 -1.99519 -2.8427 0
M  V30 2686 C 268.194 -3.15249 -2.89486 0
M  V30 2687 C 267.52 -3.18451 -4.29527 0
M  V30 2688 C 268.82 -4.54084 -2.58079 0
M  V30 2689 H 270.514 -2.7291 -1.23127 0
M  V30 2690 H 268.06 -1.31319 -0.590883 0
M  V30 2691 H 270.013 -2.18092 -3.60575 0
M  V30 2692 H 268.737 -1.04897 -3.09296 0
M  V30 2693 H 267.396 -2.96477 -2.15631 0
M  V30 2694 H 267.044 -2.2149 -4.5161 0
M  V30 2695 H 266.744 -3.962 -4.33934 0
M  V30 2696 H 268.268 -3.39193 -5.07721 0
M  V30 2697 H 269.682 -4.72899 -3.24098 0
M  V30 2698 H 268.079 -5.33987 -2.7382 0
M  V30 2699 H 269.149 -4.60006 -1.53372 0
M  V30 2700 N 270.492 0.636531 -1.44174 0
M  V30 2701 C 271.439 1.74875 -1.50624 0
M  V30 2702 C 272.409 1.62275 -0.35442 0
M  V30 2703 O 273.594 1.82276 -0.563908 0
M  V30 2704 C 270.734 3.13102 -1.45125 0
M  V30 2705 C 269.847 3.36717 -2.7064 0
M  V30 2706 C 268.982 4.64885 -2.57013 0
M  V30 2707 C 268.021 4.8166 -3.77717 0
M  V30 2708 N 267.158 6.01101 -3.62798 0
M  V30 2709 H 271.998 1.68697 -2.45653 0
M  V30 2710 H 269.535 0.823004 -1.21922 0
M  V30 2711 H 271.493 3.93034 -1.39929 0
M  V30 2712 H 270.123 3.18308 -0.536671 0
M  V30 2713 H 269.175 2.50763 -2.86046 0
M  V30 2714 H 270.487 3.44993 -3.60252 0
M  V30 2715 H 269.641 5.52969 -2.49619 0
M  V30 2716 H 268.38 4.58957 -1.64953 0
M  V30 2717 H 267.385 3.92007 -3.85501 0
M  V30 2718 H 268.61 4.89406 -4.70807 0
M  V30 2719 H 266.556 5.96273 -2.73486 0
M  V30 2720 H 266.473 6.10409 -4.46023 0
M  V30 2721 H 267.741 6.91761 -3.59286 0
M  V30 2722 N 271.97 1.30982 0.876444 0
M  V30 2723 C 273.195 1.23373 1.66715 0
M  V30 2724 C 273.62 -0.19885 1.87046 0
M  V30 2725 O 272.978 -1.1427 1.40756 0
M  V30 2726 C 273.026 1.97644 3.01611 0
M  V30 2727 O 272.13 1.30935 3.91062 0
M  V30 2728 H 271.471 0.426279 0.509099 0
M  V30 2729 H 274.001 1.72944 1.09323 0
M  V30 2730 H 274.011 2.06992 3.51594 0
M  V30 2731 H 272.686 3.01829 2.86133 0
M  V30 2732 H 271.263 1.29996 3.49507 0
M  V30 2733 N 273.449 -1.08991 1.13837 0
M  V30 2734 C 274.677 -1.85011 0.926202 0
M  V30 2735 C 275.092 -1.8135 -0.525127 0
M  V30 2736 O 274.449 -1.21287 -1.36366 0
M  V30 2737 C 274.5 -3.32802 1.41155 0
M  V30 2738 O 274.221 -3.36444 2.80601 0
M  V30 2739 C 275.722 -4.25649 1.23847 0
M  V30 2740 H 272.942 -0.584249 0.32999 0
M  V30 2741 H 275.486 -1.37688 1.51202 0
M  V30 2742 H 273.641 -3.77536 0.868631 0
M  V30 2743 H 274.055 -4.28657 3.02248 0
M  V30 2744 H 275.529 -5.27485 1.62675 0
M  V30 2745 H 276.006 -4.38828 0.18065 0
M  V30 2746 H 276.612 -3.86735 1.76964 0
M  V30 2747 N 274.927 -0.932562 -1.27047 0
M  V30 2748 C 275.837 -0.441219 -2.30414 0
M  V30 2749 C 276.853 0.480525 -1.67233 0
M  V30 2750 O 278.029 0.362151 -1.98117 0
M  V30 2751 C 275.094 0.293651 -3.45454 0
M  V30 2752 C 274.155 -0.663601 -4.2414 0
M  V30 2753 C 273.388 0.0362932 -5.33688 0
M  V30 2754 O 273.611 1.2548 -5.56427 0
M  V30 2755 O 272.545 -0.638015 -5.98509 0
M  V30 2756 H 276.371 -1.29962 -2.74488 0
M  V30 2757 H 273.956 -0.6981 -1.32087 0
M  V30 2758 H 275.838 0.707951 -4.15411 0
M  V30 2759 H 274.513 1.12758 -3.03426 0
M  V30 2760 H 273.42 -1.12768 -3.56699 0
M  V30 2761 H 274.753 -1.46489 -4.69896 0
M  V30 2762 N 276.405 1.4127 -0.698611 0
M  V30 2763 C 277.653 2.00782 -0.230409 0
M  V30 2764 C 277.974 1.5562 1.17505 0
M  V30 2765 O 277.244 0.78815 1.79346 0
M  V30 2766 H 275.824 0.742464 -0.0821944 0
M  V30 2767 H 278.486 1.72852 -0.90045 0
M  V30 2768 H 277.582 3.11095 -0.25021 0
M  V30 2769 N 277.883 0.443576 1.51229 0
M  V30 2770 C 278.813 -0.355142 2.30783 0
M  V30 2771 C 279.794 -1.0154 1.36468 0
M  V30 2772 O 280.979 -1.01785 1.65389 0
M  V30 2773 C 278.109 -1.45312 3.15439 0
M  V30 2774 C 277.063 -0.916002 4.18083 0
M  V30 2775 C 276.389 -2.1102 4.91299 0
M  V30 2776 C 277.689 0.0538602 5.22272 0
M  V30 2777 H 279.383 0.308767 2.97804 0
M  V30 2778 H 276.929 0.149937 1.43217 0
M  V30 2779 H 278.882 -2.01914 3.69876 0
M  V30 2780 H 277.606 -2.14541 2.46252 0
M  V30 2781 H 276.265 -0.372145 3.64706 0
M  V30 2782 H 275.913 -2.78882 4.18609 0
M  V30 2783 H 275.613 -1.75717 5.60712 0
M  V30 2784 H 277.137 -2.68164 5.48562 0
M  V30 2785 H 278.551 -0.422069 5.71744 0
M  V30 2786 H 276.948 0.319776 5.99247 0
M  V30 2787 H 278.018 0.98858 4.74716 0
M  V30 2788 N 279.361 -1.56624 0.175154 0
M  V30 2789 C 280.772 -1.83561 -0.340916 0
M  V30 2790 C 281.123 -1.09511 -1.62794 0
M  V30 2791 O 280.248 -0.349389 -2.13561 0
M  V30 2792 C 280.843 -3.32979 -0.625313 0
M  V30 2793 C 279.402 -3.60399 -1.08581 0
M  V30 2794 C 278.549 -2.77024 -0.123722 0
M  V30 2795 H 281.5 -1.53593 0.399344 0
M  V30 2796 H 281.521 -3.50666 -1.47694 0
M  V30 2797 H 281.033 -3.86847 0.311575 0
M  V30 2798 H 279.134 -3.11945 -2.03767 0
M  V30 2799 H 279.247 -4.68711 -0.992317 0
M  V30 2800 H 277.611 -2.46993 -0.621821 0
M  V30 2801 H 278.394 -3.33674 0.807256 0
M  V30 2802 N 280.839 0.0985539 -1.57292 0
M  V30 2803 C 282.088 0.801358 -1.85098 0
M  V30 2804 C 282.401 1.80066 -0.763902 0
M  V30 2805 O 283.607 2.55112 -0.928981 0
M  V30 2806 C 282.063 1.47599 -3.28242 0
M  V30 2807 C 281.671 0.516624 -4.45011 0
M  V30 2808 C 283.415 2.16272 -3.65276 0
M  V30 2809 C 281.322 1.19564 -5.79188 0
M  V30 2810 H 280.252 0.303022 -0.69043 0
M  V30 2811 H 282.903 0.0542623 -1.8342 0
M  V30 2812 H 281.285 2.27042 -3.2445 0
M  V30 2813 H 282.459 -0.246065 -4.60143 0
M  V30 2814 H 280.774 -0.064227 -4.1635 0
M  V30 2815 H 283.371 2.67802 -4.62803 0
M  V30 2816 H 283.714 2.95009 -2.93727 0
M  V30 2817 H 284.247 1.43693 -3.70941 0
M  V30 2818 H 280.986 0.449157 -6.53959 0
M  V30 2819 H 280.506 1.92984 -5.67906 0
M  V30 2820 H 282.185 1.7231 -6.23633 0
M  V30 2821 N 282.317 1.53212 0.369288 0
M  V30 2822 C 283.265 1.80054 1.47253 0
M  V30 2823 C 284.259 0.669456 1.55611 0
M  V30 2824 O 285.465 0.852328 1.58541 0
M  V30 2825 H 281.84 0.570034 0.490475 0
M  V30 2826 H 283.811 2.72403 1.21817 0
M  V30 2827 C 282.56 2.00403 2.84137 0
M  V30 2828 H 281.883 2.86876 2.78464 0
M  V30 2829 H 283.323 2.23164 3.60519 0
M  V30 2830 C 281.782 0.782081 3.27697 0
M  V30 2831 O 282.312 -0.0310205 4.01688 0
M  V30 2832 N 280.518 0.606573 2.84199 0
M  V30 2833 H 280.065 1.26939 2.24152 0
M  V30 2834 H 280.023 -0.20962 3.137 0
M  V30 2835 N 283.795 -0.628877 1.44509 0
M  V30 2836 C 285.041 -1.39045 1.47629 0
M  V30 2837 C 285.374 -1.93892 0.109343 0
M  V30 2838 O 284.649 -1.7379 -0.87334 0
M  V30 2839 C 284.932 -2.55408 2.53848 0
M  V30 2840 C 284.785 -2.05896 3.99909 0
M  V30 2841 C 286.104 -3.5759 2.56549 0
M  V30 2842 H 283.223 -0.504232 0.537512 0
M  V30 2843 H 285.865 -0.710854 1.76201 0
M  V30 2844 H 284.015 -3.13384 2.29615 0
M  V30 2845 H 285.687 -1.52734 4.35282 0
M  V30 2846 H 283.93 -1.37061 4.11578 0
M  V30 2847 H 284.601 -2.89681 4.69882 0
M  V30 2848 H 287.077 -3.09419 2.78207 0
M  V30 2849 H 285.953 -4.36527 3.32769 0
M  V30 2850 H 286.214 -4.11808 1.60832 0
M  V30 2851 N 285.273 -1.31445 -0.869486 0
M  V30 2852 C 286.521 -1.20918 -1.61936 0
M  V30 2853 C 286.842 0.232683 -1.93607 0
M  V30 2854 O 286.112 1.15352 -1.58338 0
M  V30 2855 H 284.692 -0.44454 -0.600328 0
M  V30 2856 H 287.354 -1.64776 -1.0409 0
M  V30 2857 H 286.45 -1.78124 -2.56278 0
M  V30 2858 N 286.751 1.08385 -1.14413 0
M  V30 2859 C 288 1.80153 -0.907076 0
M  V30 2860 C 288.313 1.87176 0.567851 0
M  V30 2861 O 289.519 2.55359 0.922172 0
M  V30 2862 C 287.975 3.23687 -1.57336 0
M  V30 2863 C 287.583 3.24897 -3.08457 0
M  V30 2864 C 289.327 4.00136 -1.41744 0
M  V30 2865 C 287.234 4.6302 -3.67921 0
M  V30 2866 H 286.164 0.675139 -0.335714 0
M  V30 2867 H 288.815 1.21733 -1.37307 0
M  V30 2868 H 287.197 3.82234 -1.03505 0
M  V30 2869 H 288.371 2.76055 -3.68958 0
M  V30 2870 H 286.686 2.61943 -3.2369 0
M  V30 2871 H 289.283 5.02201 -1.83572 0
M  V30 2872 H 289.626 4.14709 -0.363576 0
M  V30 2873 H 290.159 3.48058 -1.92614 0
M  V30 2874 H 286.898 4.5365 -4.73161 0
M  V30 2875 H 286.418 5.12143 -3.12201 0
M  V30 2876 H 288.097 5.31994 -3.68227 0
M  V30 2877 N 288.23 0.939286 1.26551 0
M  V30 2878 C 289.16 0.465044 2.28822 0
M  V30 2879 C 290.141 -0.480692 1.63167 0
M  V30 2880 O 291.326 -0.382955 1.90387 0
M  V30 2881 C 288.456 -0.27234 3.46231 0
M  V30 2882 C 287.41 0.58666 4.2396 0
M  V30 2883 C 286.736 -0.280573 5.33963 0
M  V30 2884 C 288.036 1.85704 4.88171 0
M  V30 2885 H 289.73 1.31979 2.68741 0
M  V30 2886 H 287.276 0.636061 1.29191 0
M  V30 2887 H 289.229 -0.615133 4.16886 0
M  V30 2888 H 287.953 -1.16121 3.0526 0
M  V30 2889 H 286.612 0.91232 3.55067 0
M  V30 2890 H 286.26 -1.16874 4.89234 0
M  V30 2891 H 285.96 0.29076 5.8688 0
M  V30 2892 H 287.484 -0.618678 6.07458 0
M  V30 2893 H 288.898 1.58161 5.51052 0
M  V30 2894 H 287.295 2.37279 5.51197 0
M  V30 2895 H 288.365 2.56957 4.11219 0
M  V30 2896 N 289.708 -1.40897 0.706093 0
M  V30 2897 C 290.956 -2.00657 0.241054 0
M  V30 2898 C 291.277 -1.56241 -1.16678 0
M  V30 2899 O 290.547 -0.79765 -1.78926 0
M  V30 2900 H 289.127 -0.742018 0.0861308 0
M  V30 2901 H 291.789 -1.72372 0.909604 0
M  V30 2902 H 290.885 -3.10958 0.266705 0
M  V30 2903 N 291.186 -0.45159 -1.50991 0
M  V30 2904 C 292.133 0.352625 -2.2809 0
M  V30 2905 C 293.103 1.0044 -1.32291 0
M  V30 2906 O 294.288 1.02058 -1.6121 0
M  V30 2907 C 291.428 1.43983 -3.13629 0
M  V30 2908 C 290.541 0.804772 -4.24438 0
M  V30 2909 C 289.676 1.86822 -4.97263 0
M  V30 2910 C 288.715 1.21236 -5.99973 0
M  V30 2911 N 287.852 2.2178 -6.66152 0
M  V30 2912 H 292.692 -0.311186 -2.96371 0
M  V30 2913 H 290.229 -0.165308 -1.46168 0
M  V30 2914 H 292.187 2.08161 -3.61559 0
M  V30 2915 H 290.817 2.07307 -2.47434 0
M  V30 2916 H 289.869 0.0509129 -3.80366 0
M  V30 2917 H 291.181 0.286076 -4.97979 0
M  V30 2918 H 290.335 2.58628 -5.48813 0
M  V30 2919 H 289.074 2.42068 -4.23385 0
M  V30 2920 H 288.079 0.479828 -5.47702 0
M  V30 2921 H 289.304 0.667051 -6.75816 0
M  V30 2922 H 287.25 2.76079 -5.95077 0
M  V30 2923 H 287.167 1.74841 -7.35504 0
M  V30 2924 H 288.435 2.93026 -7.22327 0
M  V30 2925 N 292.664 1.56529 -0.183458 0
M  V30 2926 C 293.912 1.96855 0.457452 0
M  V30 2927 C 294.233 1.07104 1.62953 0
M  V30 2928 O 293.503 0.139887 1.954 0
M  V30 2929 H 292.083 0.72693 0.171992 0
M  V30 2930 H 294.745 1.93056 -0.267476 0
M  V30 2931 H 293.841 3.01423 0.809368 0
M  V30 2932 N 294.142 -0.090211 1.57342 0
M  V30 2933 C 295.092 -1.11557 1.98844 0
M  V30 2934 C 296.076 -1.35503 0.867624 0
M  V30 2935 O 297.268 -1.36113 1.13148 0
M  V30 2936 C 294.397 -2.43446 2.42051 0
M  V30 2937 C 293.483 -2.22853 3.60828 0
M  V30 2938 N 293.874 -1.72141 4.75606 0
M  V30 2939 C 292.172 -2.53401 3.67021 0
M  V30 2940 C 292.873 -1.65932 5.57531 0
M  V30 2941 N 291.849 -2.11323 5.00843 0
M  V30 2942 H 295.651 -0.716499 2.85032 0
M  V30 2943 H 293.165 -0.297567 1.59651 0
M  V30 2944 H 295.162 -3.17644 2.70014 0
M  V30 2945 H 293.822 -2.84087 1.57241 0
M  V30 2946 H 294.833 -1.41268 4.98261 0
M  V30 2947 H 291.51 -2.97532 2.92884 0
M  V30 2948 H 292.9 -1.27733 6.59647 0
M  V30 2949 N 295.62 -1.53406 -0.361157 0
M  V30 2950 C 296.868 -1.69467 -1.10115 0
M  V30 2951 C 297.189 -0.451352 -1.89705 0
M  V30 2952 O 296.459 0.534636 -1.88463 0
M  V30 2953 H 295.039 -0.624749 -0.409508 0
M  V30 2954 H 297.701 -1.90609 -0.406699 0
M  V30 2955 H 296.797 -2.55774 -1.78847 0
M  V30 2956 N 297.098 0.621204 -1.44841 0
M  V30 2957 C 298.323 1.41244 -1.51871 0
M  V30 2958 C 298.748 1.87519 -0.147764 0
M  V30 2959 O 298.106 1.59334 0.865 0
M  V30 2960 C 298.154 2.60221 -2.49634 0
M  V30 2961 O 297.258 3.60395 -2.00473 0
M  V30 2962 H 296.599 0.42223 -0.512463 0
M  V30 2963 H 299.129 0.757305 -1.90069 0
M  V30 2964 H 299.139 3.0764 -2.67996 0
M  V30 2965 H 297.814 2.25887 -3.4921 0
M  V30 2966 H 296.391 3.19717 -1.91925 0
M  V30 2967 N 298.576 1.31904 0.862503 0
M  V30 2968 C 299.801 1.25135 1.65397 0
M  V30 2969 C 300.226 -0.179 1.87246 0
M  V30 2970 O 299.584 -1.1277 1.4196 0
M  V30 2971 C 299.632 2.00832 2.99498 0
M  V30 2972 O 298.736 1.35075 3.89652 0
M  V30 2973 H 298.077 0.431655 0.504549 0
M  V30 2974 H 300.607 1.74094 1.07483 0
M  V30 2975 H 300.617 2.10709 3.49379 0
M  V30 2976 H 299.292 3.04847 2.82916 0
M  V30 2977 H 297.869 1.33696 3.48109 0
M  V30 2978 N 300.054 -1.07777 1.14986 0
M  V30 2979 C 301.303 -1.79669 0.916617 0
M  V30 2980 C 301.616 -1.87474 -0.557917 0
M  V30 2981 O 302.822 -2.55845 -0.908617 0
M  V30 2982 C 301.278 -3.22848 1.59051 0
M  V30 2983 C 300.886 -3.23257 3.10176 0
M  V30 2984 C 302.63 -3.99379 1.43864 0
M  V30 2985 C 300.537 -4.61063 3.70372 0
M  V30 2986 H 299.467 -0.673349 0.33929 0
M  V30 2987 H 302.118 -1.21003 1.37951 0
M  V30 2988 H 300.5 -3.8168 1.0553 0
M  V30 2989 H 301.674 -2.74095 3.70417 0
M  V30 2990 H 299.989 -2.60222 3.25074 0
M  V30 2991 H 302.586 -5.0122 1.86232 0
M  V30 2992 H 302.929 -4.14511 0.385564 0
M  V30 2993 H 303.462 -3.47032 1.94457 0
M  V30 2994 H 300.201 -4.51135 4.7556 0
M  V30 2995 H 299.721 -5.1048 3.14913 0
M  V30 2996 H 301.4 -5.30034 3.71043 0
M  V30 2997 N 301.532 -0.945985 -1.26051 0
M  V30 2998 C 302.495 -0.463897 -2.24456 0
M  V30 2999 C 303.495 0.427655 -1.55009 0
M  V30 3000 O 304.685 0.226157 -1.72726 0
M  V30 3001 C 301.817 0.330812 -3.39291 0
M  V30 3002 H 303.01 -1.33357 -2.68619 0
M  V30 3003 H 300.563 -0.728416 -1.38289 0
M  V30 3004 H 301.298 1.21852 -3.00537 0
M  V30 3005 H 301.083 -0.308679 -3.90883 0
M  V30 3006 H 302.573 0.657865 -4.12386 0
M  V30 3007 N 303.011 1.40521 -0.713556 0
M  V30 3008 C 304.422 1.83853 -0.324807 0
M  V30 3009 C 304.773 1.59667 1.14021 0
M  V30 3010 O 303.898 1.07649 1.87725 0
M  V30 3011 C 304.493 3.33751 -0.582746 0
M  V30 3012 C 303.052 3.75584 -0.247727 0
M  V30 3013 C 302.199 2.63753 -0.856121 0
M  V30 3014 H 305.15 1.29817 -0.91286 0
M  V30 3015 H 305.171 3.80194 0.152682 0
M  V30 3016 H 304.683 3.51322 -1.64908 0
M  V30 3017 H 302.784 3.63608 0.813624 0
M  V30 3018 H 302.897 4.7373 -0.715307 0
M  V30 3019 H 301.261 2.53108 -0.28432 0
M  V30 3020 H 302.044 2.84137 -1.92668 0
M  V30 3021 N 304.489 0.459591 1.5075 0
M  V30 3022 C 305.738 -0.100971 2.01447 0
M  V30 3023 C 306.051 -1.41816 1.34713 0
M  V30 3024 O 307.257 -2.06299 1.76502 0
M  V30 3025 C 305.713 -0.23047 3.59161 0
M  V30 3026 C 305.321 1.0776 4.34847 0
M  V30 3027 C 307.065 -0.743608 4.17936 0
M  V30 3028 C 304.972 0.91253 5.84317 0
M  V30 3029 H 303.902 -0.0415102 0.752856 0
M  V30 3030 H 306.553 0.592742 1.73663 0
M  V30 3031 H 304.935 -0.987703 3.83485 0
M  V30 3032 H 306.109 1.8449 4.22256 0
M  V30 3033 H 304.424 1.52097 3.87628 0
M  V30 3034 H 307.021 -0.883959 5.27343 0
M  V30 3035 H 307.364 -1.73196 3.78562 0
M  V30 3036 H 307.897 -0.04408 3.97776 0
M  V30 3037 H 304.636 1.87391 6.28144 0
M  V30 3038 H 304.156 0.185422 5.99513 0
M  V30 3039 H 305.835 0.574547 6.44444 0
M  V30 3040 N 305.967 -1.56429 0.191757 0
M  V30 3041 C 306.9 -2.14829 -0.76967 0
M  V30 3042 C 307.878 -1.08405 -1.2119 0
M  V30 3043 O 309.062 -1.36498 -1.30002 0
M  V30 3044 C 306.189 -2.70446 -2.03903 0
M  V30 3045 C 305.235 -3.89428 -1.7392 0
M  V30 3046 S 306.068 -5.28048 -0.890265 0
M  V30 3047 C 307.224 -5.87085 -2.16984 0
M  V30 3048 H 307.457 -2.96042 -0.273204 0
M  V30 3049 H 304.99 -1.54383 -0.0231975 0
M  V30 3050 H 306.948 -3.03134 -2.76803 0
M  V30 3051 H 305.609 -1.89281 -2.50662 0
M  V30 3052 H 304.802 -4.26742 -2.68155 0
M  V30 3053 H 304.404 -3.57732 -1.09103 0
M  V30 3054 H 306.696 -6.01244 -3.12269 0
M  V30 3055 H 307.639 -6.83747 -1.84108 0
M  V30 3056 H 308.047 -5.15663 -2.29678 0
M  V30 3057 N 307.445 0.0818655 -1.57387 0
M  V30 3058 C 308.355 1.11642 -2.06333 0
M  V30 3059 C 309.371 1.43033 -0.99083 0
M  V30 3060 O 310.547 1.53411 -1.30488 0
M  V30 3061 C 307.612 2.41342 -2.48907 0
M  V30 3062 C 306.673 2.17014 -3.7041 0
M  V30 3063 C 305.906 3.4053 -4.10944 0
M  V30 3064 O 306.129 4.4927 -3.51444 0
M  V30 3065 O 305.063 3.29336 -5.03807 0
M  V30 3066 H 308.889 0.730657 -2.9478 0
M  V30 3067 H 306.474 0.295301 -1.46452 0
M  V30 3068 H 308.356 3.17691 -2.76858 0
M  V30 3069 H 307.031 2.79319 -1.63593 0
M  V30 3070 H 305.938 1.38403 -3.47556 0
M  V30 3071 H 307.271 1.83923 -4.56545 0
M  V30 3072 N 308.923 1.53595 0.353017 0
M  V30 3073 C 309.855 1.77219 1.45348 0
M  V30 3074 C 310.868 0.65324 1.49119 0
M  V30 3075 O 312.057 0.929775 1.52373 0
M  V30 3076 C 309.157 1.84841 2.84055 0
M  V30 3077 C 308.33 3.14649 3.03833 0
M  V30 3078 C 307.389 3.13351 4.22727 0
M  V30 3079 O 306.415 3.87107 4.17297 0
M  V30 3080 N 307.617 2.35052 5.30783 0
M  V30 3081 H 310.382 2.72178 1.25457 0
M  V30 3082 H 307.943 1.52528 0.542833 0
M  V30 3083 H 309.935 1.81435 3.61751 0
M  V30 3084 H 308.505 0.971114 2.97133 0
M  V30 3085 H 307.725 3.31256 2.13689 0
M  V30 3086 H 309.013 4.00411 3.13925 0
M  V30 3087 H 308.411 1.74663 5.38061 0
M  V30 3088 H 306.968 2.37453 6.07009 0
M  V30 3089 N 310.401 -0.613514 1.45168 0
M  V30 3090 C 311.65 -1.36874 1.4815 0
M  V30 3091 C 311.963 -1.952 0.124982 0
M  V30 3092 O 313.169 -2.71481 0.0324176 0
M  V30 3093 C 311.625 -2.47905 2.60904 0
M  V30 3094 C 311.233 -1.96016 4.02842 0
M  V30 3095 C 312.977 -3.24965 2.73126 0
M  V30 3096 C 310.884 -3.04494 5.06988 0
M  V30 3097 H 309.814 -0.514428 0.551253 0
M  V30 3098 H 312.465 -0.658182 1.7129 0
M  V30 3099 H 310.847 -3.21618 2.31037 0
M  V30 3100 H 312.021 -1.29051 4.4236 0
M  V30 3101 H 310.336 -1.31719 3.95018 0
M  V30 3102 H 312.933 -4.05865 3.48106 0
M  V30 3103 H 313.276 -3.75588 1.79553 0
M  V30 3104 H 313.809 -2.5835 3.0249 0
M  V30 3105 H 310.548 -2.58795 6.0225 0
M  V30 3106 H 310.068 -3.70044 4.72046 0
M  V30 3107 H 311.747 -3.68976 5.31475 0
M  V30 3108 N 311.879 -1.3236 -0.855495 0
M  V30 3109 C 313.156 -1.13491 -1.59309 0
M  V30 3110 C 313.536 0.30503 -2.08885 0
M  V30 3111 O 312.884 1.30151 -1.87811 0
M  V30 3112 C 313.094 -2.16176 -2.73987 0
M  V30 3113 C 314.442 -2.49463 -3.43589 0
M  V30 3114 O 315.466 -2.14715 -2.84211 0
M  V30 3115 O 314.325 -3.09027 -4.50738 0
M  V30 3116 H 311.419 -0.437887 -0.701559 0
M  V30 3117 H 313.965 -1.43887 -0.899696 0
M  V30 3118 H 312.737 -3.1297 -2.34873 0
M  V30 3119 H 312.36 -1.86769 -3.51003 0
M  V30 3120 N 313.357 1.07166 -1.15556 0
M  V30 3121 C 314.32 2.12589 -0.856644 0
M  V30 3122 C 315.32 1.6015 0.14444 0
M  V30 3123 O 316.51 1.7399 -0.0854163 0
M  V30 3124 C 313.642 3.39753 -0.279405 0
M  V30 3125 H 314.835 2.40539 -1.79112 0
M  V30 3126 H 312.388 1.23086 -0.963298 0
M  V30 3127 H 313.123 3.17447 0.663174 0
M  V30 3128 H 312.908 3.79117 -1.00063 0
M  V30 3129 H 314.398 4.17507 -0.0879113 0
M  V30 3130 N 314.835 0.952656 1.25548 0
M  V30 3131 C 316.083 0.605176 1.92826 0
M  V30 3132 C 316.404 -0.860261 1.74999 0
M  V30 3133 O 315.674 -1.6125 1.11244 0
M  V30 3134 H 314.254 0.220832 0.713612 0
M  V30 3135 H 316.916 1.21047 1.52754 0
M  V30 3136 H 316.012 0.832798 3.00784 0
M  V30 3137 N 316.313 -1.40141 0.720998 0
M  V30 3138 C 317.276 -2.29058 0.0805834 0
M  V30 3139 C 318.276 -1.45632 -0.681758 0
M  V30 3140 O 319.466 -1.6648 -0.512856 0
M  V30 3141 C 316.598 -3.28925 -0.895593 0
M  V30 3142 H 317.791 -2.87191 0.863793 0
M  V30 3143 H 315.344 -1.48553 0.485975 0
M  V30 3144 H 316.079 -2.75822 -1.70566 0
M  V30 3145 H 315.864 -3.90519 -0.351766 0
M  V30 3146 H 317.354 -3.95494 -1.34069 0
M  V30 3147 N 317.792 -0.46758 -1.50504 0
M  V30 3148 C 318.755 0.317059 -2.26996 0
M  V30 3149 C 319.755 0.923513 -1.31635 0
M  V30 3150 O 320.945 0.793239 -1.55091 0
M  V30 3151 C 318.077 1.45134 -3.08462 0
M  V30 3152 H 319.27 -0.353723 -2.97807 0
M  V30 3153 H 316.823 -0.221545 -1.54722 0
M  V30 3154 H 317.558 2.15728 -2.4214 0
M  V30 3155 H 317.343 1.02232 -3.78538 0
M  V30 3156 H 318.833 2.00493 -3.66323 0
M  V30 3157 N 319.27 1.56325 -0.20005 0
M  V30 3158 C 320.518 1.97329 0.436547 0
M  V30 3159 C 320.839 1.08826 1.61808 0
M  V30 3160 O 320.109 0.160604 1.95241 0
M  V30 3161 H 318.689 0.728714 0.164272 0
M  V30 3162 H 321.351 1.92761 -0.287937 0
M  V30 3163 H 320.447 3.02264 0.777353 0
M  V30 3164 N 320.748 -0.0735177 1.57428 0
M  V30 3165 C 321.678 -1.0879 2.06608 0
M  V30 3166 C 322.659 -1.40473 0.959237 0
M  V30 3167 O 323.844 -1.5013 1.23185 0
M  V30 3168 C 320.974 -2.40183 2.50857 0
M  V30 3169 C 319.928 -2.22858 3.65402 0
M  V30 3170 C 319.254 -3.59619 3.957 0
M  V30 3171 C 320.554 -1.65123 4.95511 0
M  V30 3172 H 322.248 -0.678673 2.91607 0
M  V30 3173 H 319.794 -0.325013 1.40284 0
M  V30 3174 H 321.747 -3.11437 2.83874 0
M  V30 3175 H 320.471 -2.83083 1.62885 0
M  V30 3176 H 319.13 -1.54045 3.32664 0
M  V30 3177 H 318.778 -4.00086 3.04861 0
M  V30 3178 H 318.478 -3.48866 4.72828 0
M  V30 3179 H 320.002 -4.32306 4.31212 0
M  V30 3180 H 321.416 -2.26241 5.26771 0
M  V30 3181 H 319.813 -1.65071 5.7695 0
M  V30 3182 H 320.883 -0.612559 4.81015 0
M  V30 3183 N 322.226 -1.5378 -0.344866 0
M  V30 3184 C 323.173 -1.81676 -1.42346 0
M  V30 3185 C 324.143 -0.662376 -1.52321 0
M  V30 3186 O 325.328 -0.906675 -1.67881 0
M  V30 3187 C 322.468 -2.03087 -2.79015 0
M  V30 3188 C 321.581 -3.30799 -2.77842 0
M  V30 3189 C 320.716 -3.42285 -4.0622 0
M  V30 3190 C 319.755 -4.6395 -3.9927 0
M  V30 3191 N 318.892 -4.72477 -5.19336 0
M  V30 3192 H 323.732 -2.73703 -1.17858 0
M  V30 3193 H 321.269 -1.35568 -0.570949 0
M  V30 3194 H 323.227 -2.1349 -3.58438 0
M  V30 3195 H 321.857 -1.14375 -3.01858 0
M  V30 3196 H 320.909 -3.29244 -1.90533 0
M  V30 3197 H 322.221 -4.20314 -2.68584 0
M  V30 3198 H 321.375 -3.52113 -4.94066 0
M  V30 3199 H 320.114 -2.50823 -4.18258 0
M  V30 3200 H 319.119 -4.54201 -3.09809 0
M  V30 3201 H 320.344 -5.56775 -3.88817 0
M  V30 3202 H 318.29 -3.83924 -5.3192 0
M  V30 3203 H 318.207 -5.55927 -5.12329 0
M  V30 3204 H 319.475 -4.86613 -6.08957 0
M  V30 3205 N 323.704 0.605807 -1.45491 0
M  V30 3206 C 324.953 1.36086 -1.48874 0
M  V30 3207 C 325.266 1.95131 -0.135333 0
M  V30 3208 O 326.472 2.7146 -0.0468144 0
M  V30 3209 C 324.928 2.46518 -2.62215 0
M  V30 3210 C 324.536 1.93877 -4.03876 0
M  V30 3211 C 326.28 3.23512 -2.74846 0
M  V30 3212 C 324.187 3.01801 -5.08596 0
M  V30 3213 H 323.117 0.511497 -0.553974 0
M  V30 3214 H 325.768 0.649089 -1.71636 0
M  V30 3215 H 324.15 3.20388 -2.32739 0
M  V30 3216 H 325.324 1.26704 -4.43038 0
M  V30 3217 H 323.639 1.29622 -3.95711 0
M  V30 3218 H 326.236 4.04013 -3.50253 0
M  V30 3219 H 326.579 3.74631 -1.81542 0
M  V30 3220 H 327.112 2.56742 -3.03856 0
M  V30 3221 H 323.851 2.55597 -6.03614 0
M  V30 3222 H 323.371 3.67535 -4.74002 0
M  V30 3223 H 325.05 3.66152 -5.33424 0
M  V30 3224 N 325.182 1.32811 0.848464 0
M  V30 3225 C 326.132 1.18842 1.94578 0
M  V30 3226 C 327.116 0.0937517 1.60627 0
M  V30 3227 O 328.308 0.320887 1.74067 0
M  V30 3228 C 325.437 0.91999 3.30743 0
M  V30 3229 C 324.523 2.05665 3.70894 0
M  V30 3230 N 324.914 3.30579 3.8282 0
M  V30 3231 C 323.212 1.9612 4.00566 0
M  V30 3232 C 323.913 4.05067 4.17487 0
M  V30 3233 N 322.889 3.33419 4.2934 0
M  V30 3234 H 326.691 2.13536 2.0194 0
M  V30 3235 H 324.205 1.2468 1.0406 0
M  V30 3236 H 326.202 0.800859 4.09136 0
M  V30 3237 H 324.862 -0.0185076 3.24695 0
M  V30 3238 H 325.873 3.65441 3.66978 0
M  V30 3239 H 322.55 1.09871 4.02784 0
M  V30 3240 H 323.94 5.12815 4.34131 0
M  V30 3241 N 326.66 -1.06551 1.16123 0
M  V30 3242 C 327.57 -2.17484 0.879662 0
M  V30 3243 C 328.586 -1.73377 -0.147104 0
M  V30 3244 O 329.762 -2.01379 0.0289128 0
M  V30 3245 C 326.827 -3.44591 0.381829 0
M  V30 3246 C 325.888 -4.0322 1.4735 0
M  V30 3247 C 325.121 -5.24261 0.999324 0
M  V30 3248 O 325.344 -5.70198 -0.151957 0
M  V30 3249 O 324.278 -5.74775 1.78653 0
M  V30 3250 H 328.104 -2.44075 1.80724 0
M  V30 3251 H 325.689 -1.16042 0.940992 0
M  V30 3252 H 327.571 -4.21254 0.111053 0
M  V30 3253 H 326.246 -3.19532 -0.51777 0
M  V30 3254 H 325.153 -3.2806 1.79798 0
M  V30 3255 H 326.486 -4.32568 2.34831 0
M  V30 3256 N 328.138 -0.959301 -1.25041 0
M  V30 3257 C 329.415 -0.533805 -1.88175 0
M  V30 3258 C 329.795 0.988994 -1.865 0
M  V30 3259 O 329.143 1.85677 -1.33177 0
M  V30 3260 C 329.353 -1.11575 -3.30684 0
M  V30 3261 C 330.701 -1.19548 -4.07423 0
M  V30 3262 O 331.725 -1.06765 -3.39823 0
M  V30 3263 O 330.584 -1.39656 -5.28354 0
M  V30 3264 H 327.678 -0.176772 -0.807887 0
M  V30 3265 H 330.224 -1.05303 -1.33076 0
M  V30 3266 H 328.996 -2.15884 -3.26358 0
M  V30 3267 H 328.619 -0.580059 -3.93346 0
M  V30 3268 N 329.616 1.39756 -0.72842 0
M  V30 3269 C 330.862 2.01425 -0.282761 0
M  V30 3270 C 331.217 1.56754 1.11561 0
M  V30 3271 O 330.51 0.783482 1.74849 0
M  V30 3272 C 330.704 3.56002 -0.315776 0
M  V30 3273 C 330.533 4.1568 -1.71582 0
M  V30 3274 C 329.303 4.48555 -2.32651 0
M  V30 3275 C 331.501 4.39667 -2.66829 0
M  V30 3276 N 329.483 4.93698 -3.64877 0
M  V30 3277 C 330.854 4.86942 -3.8378 0
M  V30 3278 C 332.909 4.21724 -2.64675 0
M  V30 3279 C 331.612 5.18158 -4.98904 0
M  V30 3280 C 333.638 4.54049 -3.78937 0
M  V30 3281 C 333 5.01525 -4.94623 0
M  V30 3282 H 329.099 0.76756 -0.149583 0
M  V30 3283 H 331.683 1.69784 -0.952976 0
M  V30 3284 H 329.854 3.87046 0.324057 0
M  V30 3285 H 331.586 4.0443 0.147808 0
M  V30 3286 H 328.341 4.36128 -1.84633 0
M  V30 3287 H 328.765 5.20635 -4.32744 0
M  V30 3288 H 333.407 3.84228 -1.76433 0
M  V30 3289 H 331.125 5.54562 -5.87781 0
M  V30 3290 H 334.711 4.41795 -3.78561 0
M  V30 3291 H 333.591 5.26065 -5.81572 0
M  V30 3292 N 331.094 0.475555 1.50254 0
M  V30 3293 C 332.342 -0.077738 2.0195 0
M  V30 3294 C 332.663 -1.39813 1.35931 0
M  V30 3295 O 331.933 -1.89249 0.506123 0
M  V30 3296 H 330.513 -0.031719 0.746326 0
M  V30 3297 H 333.175 0.626995 1.84539 0
M  V30 3298 H 332.271 -0.225995 3.11281 0
M  V30 3299 N 332.573 -1.56217 0.208337 0
M  V30 3300 C 333.536 -2.18455 -0.693557 0
M  V30 3301 C 334.536 -1.14268 -1.13135 0
M  V30 3302 O 335.726 -1.39577 -1.0423 0
M  V30 3303 C 332.858 -2.79727 -1.94848 0
M  V30 3304 H 334.051 -2.99519 -0.15114 0
M  V30 3305 H 331.604 -1.56245 -0.041287 0
M  V30 3306 H 332.339 -2.02497 -2.53309 0
M  V30 3307 H 332.124 -3.56009 -1.64316 0
M  V30 3308 H 333.614 -3.27475 -2.59133 0
M  V30 3309 N 334.051 0.0651679 -1.57465 0
M  V30 3310 C 335.279 0.775808 -1.91804 0
M  V30 3311 C 335.694 1.70782 -0.804916 0
M  V30 3312 O 335.051 1.81153 0.221311 0
M  V30 3313 C 335.102 1.56381 -3.25925 0
M  V30 3314 O 334.823 0.669248 -4.32958 0
M  V30 3315 C 336.324 2.37485 -3.7432 0
M  V30 3316 H 333.544 0.2202 -0.63384 0
M  V30 3317 H 336.088 0.0334587 -2.04473 0
M  V30 3318 H 334.243 2.25837 -3.14764 0
M  V30 3319 H 334.657 1.21801 -5.10162 0
M  V30 3320 H 336.131 2.88223 -4.70778 0
M  V30 3321 H 336.608 3.17307 -3.03666 0
M  V30 3322 H 337.214 1.73173 -3.88447 0
M  V30 3323 N 335.529 1.53961 0.336706 0
M  V30 3324 C 336.94 1.62914 0.911925 0
M  V30 3325 C 337.291 0.514795 1.89326 0
M  V30 3326 O 336.416 -0.354395 2.13478 0
M  V30 3327 C 337.011 2.95304 1.66076 0
M  V30 3328 C 335.57 3.06496 2.18489 0
M  V30 3329 C 334.717 2.58403 1.00613 0
M  V30 3330 H 337.668 1.58285 0.114649 0
M  V30 3331 H 337.689 2.84727 2.5241 0
M  V30 3332 H 337.201 3.76387 0.946276 0
M  V30 3333 H 335.302 2.3006 2.93092 0
M  V30 3334 H 335.415 4.1208 2.44391 0
M  V30 3335 H 333.779 2.13977 1.38152 0
M  V30 3336 H 334.562 3.41932 0.306179 0
M  V30 3337 N 337.007 -0.598083 1.45811 0
M  V30 3338 C 337.97 -1.69018 1.54808 0
M  V30 3339 C 338.97 -1.55037 0.426652 0
M  V30 3340 O 340.16 -1.59932 0.690456 0
M  V30 3341 C 337.292 -3.0835 1.45371 0
M  V30 3342 H 338.485 -1.62403 2.52121 0
M  V30 3343 H 336.038 -0.814626 1.33392 0
M  V30 3344 H 336.773 -3.20534 0.492793 0
M  V30 3345 H 336.558 -3.19907 2.26721 0
M  V30 3346 H 338.048 -3.8788 1.54721 0
M  V30 3347 N 338.485 -1.33259 -0.841409 0
M  V30 3348 C 339.71 -1.2775 -1.63385 0
M  V30 3349 C 340.135 0.149188 -1.87507 0
M  V30 3350 O 339.493 1.10498 -1.43736 0
M  V30 3351 C 339.541 -2.05571 -2.96265 0
M  V30 3352 O 338.645 -1.41257 -3.87453 0
M  V30 3353 H 337.986 -0.439627 -0.497618 0
M  V30 3354 H 340.516 -1.75782 -1.04699 0
M  V30 3355 H 340.526 -2.16241 -3.45982 0
M  V30 3356 H 339.201 -3.09309 -2.7803 0
M  V30 3357 H 337.778 -1.39217 -3.45938 0
M  V30 3358 N 339.963 1.05934 -1.16686 0
M  V30 3359 C 341.212 1.78188 -0.945085 0
M  V30 3360 C 341.525 1.88338 0.528021 0
M  V30 3361 O 342.731 2.57258 0.867799 0
M  V30 3362 C 341.187 3.20277 -1.64167 0
M  V30 3363 C 340.795 3.18281 -3.15279 0
M  V30 3364 C 342.539 3.97039 -1.502 0
M  V30 3365 C 340.446 4.55112 -3.7766 0
M  V30 3366 H 339.376 0.667866 -0.349959 0
M  V30 3367 H 342.027 1.18794 -1.39858 0
M  V30 3368 H 340.409 3.79952 -1.11589 0
M  V30 3369 H 341.583 2.68167 -3.74731 0
M  V30 3370 H 339.898 2.55018 -3.29173 0
M  V30 3371 H 342.495 4.98194 -1.94183 0
M  V30 3372 H 342.838 4.13845 -0.451461 0
M  V30 3373 H 343.371 3.43894 -1.99954 0
M  V30 3374 H 340.11 4.43512 -4.82677 0
M  V30 3375 H 339.63 5.05406 -3.22994 0
M  V30 3376 H 341.309 5.24064 -3.79428 0
M  V30 3377 N 341.441 0.965919 1.2453 0
M  V30 3378 C 342.718 0.543777 1.87889 0
M  V30 3379 C 343.098 -0.97909 1.87021 0
M  V30 3380 O 342.446 -1.84969 1.3416 0
M  V30 3381 C 342.656 1.13327 3.30088 0
M  V30 3382 C 344.004 1.21707 4.06783 0
M  V30 3383 O 345.028 1.08566 3.39252 0
M  V30 3384 O 343.887 1.42456 5.27606 0
M  V30 3385 H 340.981 0.181054 0.806938 0
M  V30 3386 H 343.527 1.06007 1.32516 0
M  V30 3387 H 342.299 2.17612 3.25209 0
M  V30 3388 H 341.922 0.600911 3.93033 0
M  V30 3389 N 342.919 -1.39368 0.735821 0
M  V30 3390 C 344.335 -1.54204 0.411492 0
M  V30 3391 C 344.535 -1.70268 -1.07755 0
M  V30 3392 O 343.591 -1.70364 -1.86366 0
M  V30 3393 C 344.904 -2.75925 1.19523 0
M  V30 3394 C 346.452 -2.89761 1.18354 0
M  V30 3395 C 346.927 -4.14421 1.94986 0
M  V30 3396 N 348.418 -4.21462 1.92156 0
M  V30 3397 C 349.153 -5.16871 2.48258 0
M  V30 3398 N 348.649 -6.18063 3.13001 0
M  V30 3399 N 350.442 -5.09093 2.38287 0
M  V30 3400 H 342.593 -1.27189 1.70108 0
M  V30 3401 H 344.856 -0.616517 0.720147 0
M  V30 3402 H 344.562 -2.70401 2.24892 0
M  V30 3403 H 344.436 -3.68614 0.800222 0
M  V30 3404 H 346.823 -2.94777 0.137975 0
M  V30 3405 H 346.904 -1.98133 1.61793 0
M  V30 3406 H 346.548 -4.10166 2.99543 0
M  V30 3407 H 346.478 -5.05095 1.48953 0
M  V30 3408 H 348.969 -3.48979 1.44991 0
M  V30 3409 H 349.282 -6.87326 3.53275 0
M  V30 3410 H 347.627 -6.18448 3.17091 0
M  V30 3411 H 350.818 -4.28973 1.8735 0
M  V30 3412 H 350.991 -5.83272 2.82308 0
M  V30 3413 N 344.397 -0.483516 -1.5 0
M  V30 3414 C 345.622 0.0667119 -2.07293 0
M  V30 3415 C 346.047 1.3164 -1.3436 0
M  V30 3416 O 345.405 1.76945 -0.394987 0
M  V30 3417 C 345.453 0.321126 -3.59167 0
M  V30 3418 O 344.557 1.39927 -3.87936 0
M  V30 3419 H 343.898 -0.0184758 -0.663743 0
M  V30 3420 H 346.428 -0.678125 -1.93035 0
M  V30 3421 H 346.438 0.557906 -4.04168 0
M  V30 3422 H 345.113 -0.592007 -4.11665 0
M  V30 3423 H 343.69 1.14882 -3.54763 0
M  V30 3424 N 345.875 1.56104 -0.216619 0
M  V30 3425 C 346.805 2.23063 0.690296 0
M  V30 3426 C 347.786 1.20072 1.20485 0
M  V30 3427 O 348.971 1.48643 1.24976 0
M  V30 3428 C 346.101 2.90672 1.90072 0
M  V30 3429 C 345.055 4.00092 1.5202 0
M  V30 3430 C 344.381 4.54972 2.80899 0
M  V30 3431 C 345.681 5.17398 0.71391 0
M  V30 3432 H 347.375 2.99109 0.132038 0
M  V30 3433 H 344.921 1.43866 0.0620664 0
M  V30 3434 H 346.874 3.36204 2.54057 0
M  V30 3435 H 345.598 2.12066 2.48386 0
M  V30 3436 H 344.257 3.55283 0.903839 0
M  V30 3437 H 343.905 3.73102 3.37348 0
M  V30 3438 H 343.605 5.28817 2.56176 0
M  V30 3439 H 345.129 5.0322 3.45836 0
M  V30 3440 H 346.543 5.59342 1.25735 0
M  V30 3441 H 344.94 5.97444 0.563951 0
M  V30 3442 H 346.01 4.84088 -0.280527 0
M  V30 3443 N 347.353 -0.0568162 1.57498 0
M  V30 3444 C 348.581 -0.765626 1.92213 0
M  V30 3445 C 348.996 -1.70353 0.813961 0
M  V30 3446 O 348.353 -1.81268 -0.211701 0
M  V30 3447 C 348.404 -1.5465 3.2675 0
M  V30 3448 O 348.125 -0.646278 4.33307 0
M  V30 3449 C 349.626 -2.35497 3.75574 0
M  V30 3450 H 346.846 -0.216835 0.634999 0
M  V30 3451 H 349.39 -0.0226146 2.04487 0
M  V30 3452 H 347.545 -2.24165 3.15957 0
M  V30 3453 H 347.959 -1.19093 5.108 0
M  V30 3454 H 349.433 -2.85722 4.72299 0
M  V30 3455 H 349.91 -3.15692 3.05344 0
M  V30 3456 H 350.516 -1.7111 3.8936 0
M  V30 3457 N 348.832 -1.54138 -0.328536 0
M  V30 3458 C 350.078 -1.7236 -1.06865 0
M  V30 3459 C 350.411 -0.493231 -1.87832 0
M  V30 3460 O 349.686 0.5098 -1.877 0
M  V30 3461 C 349.969 -2.99621 -1.99747 0
M  V30 3462 C 349.822 -4.32899 -1.22143 0
M  V30 3463 C 351.141 -3.22615 -2.99345 0
M  V30 3464 H 348.26 -0.627151 -0.387105 0
M  V30 3465 H 350.902 -1.86827 -0.345767 0
M  V30 3466 H 349.052 -2.87418 -2.61387 0
M  V30 3467 H 350.724 -4.56978 -0.630017 0
M  V30 3468 H 348.967 -4.30628 -0.523628 0
M  V30 3469 H 349.638 -5.18154 -1.90318 0
M  V30 3470 H 352.114 -3.34248 -2.47826 0
M  V30 3471 H 350.99 -4.13027 -3.61524 0
M  V30 3472 H 351.251 -2.3961 -3.71536 0
M  V30 3473 N 350.31 0.590341 -1.46126 0
M  V30 3474 C 351.273 1.68194 -1.55703 0
M  V30 3475 C 352.273 1.54808 -0.434868 0
M  V30 3476 O 353.463 1.59564 -0.698928 0
M  V30 3477 C 350.595 3.07575 -1.47005 0
M  V30 3478 H 351.788 1.61064 -2.52979 0
M  V30 3479 H 349.341 0.807541 -1.33823 0
M  V30 3480 H 350.076 3.20268 -0.509785 0
M  V30 3481 H 349.861 3.187 -2.28414 0
M  V30 3482 H 351.351 3.87055 -1.56776 0
M  V30 3483 N 351.788 1.33704 0.83433 0
M  V30 3484 C 353.065 1.16011 1.57483 0
M  V30 3485 C 353.445 -0.27176 2.09343 0
M  V30 3486 O 352.793 -1.27146 1.89858 0
M  V30 3487 C 353.003 2.20507 2.70514 0
M  V30 3488 C 354.351 2.54898 3.39577 0
M  V30 3489 O 355.375 2.19209 2.80759 0
M  V30 3490 O 354.234 3.16158 4.45765 0
M  V30 3491 H 351.328 0.448992 0.694503 0
M  V30 3492 H 353.874 1.453 0.876691 0
M  V30 3493 H 352.646 3.16667 2.29865 0
M  V30 3494 H 352.269 1.92329 3.47987 0
M  V30 3495 N 353.266 -1.05314 1.17247 0
M  V30 3496 C 354.176 -2.16538 0.90268 0
M  V30 3497 C 355.192 -1.73523 -0.128707 0
M  V30 3498 O 356.368 -2.01337 0.0502701 0
M  V30 3499 C 353.433 -3.44167 0.418356 0
M  V30 3500 C 352.494 -4.01635 1.51618 0
M  V30 3501 C 351.727 -5.23171 1.05487 0
M  V30 3502 O 351.95 -5.70327 -0.0914715 0
M  V30 3503 O 350.884 -5.72848 1.8474 0
M  V30 3504 H 354.71 -2.42145 1.83302 0
M  V30 3505 H 352.295 -1.15037 0.953246 0
M  V30 3506 H 354.177 -4.21112 0.155726 0
M  V30 3507 H 352.852 -3.20063 -0.48385 0
M  V30 3508 H 351.759 -3.26135 1.83268 0
M  V30 3509 H 353.092 -4.30053 2.39405 0
M  V30 3510 N 354.744 -0.972509 -1.24016 0
M  V30 3511 C 355.707 -0.511403 -2.23422 0
M  V30 3512 C 356.707 0.394679 -1.55881 0
M  V30 3513 O 357.897 0.189469 -1.73167 0
M  V30 3514 C 355.029 0.258769 -3.39916 0
M  V30 3515 H 356.222 -1.39024 -2.6573 0
M  V30 3516 H 353.775 -0.757585 -1.36713 0
M  V30 3517 H 354.51 1.1545 -3.03054 0
M  V30 3518 H 354.295 -0.391522 -3.9014 0
M  V30 3519 H 355.785 0.570244 -4.13688 0
M  V30 3520 N 356.222 1.38976 -0.743202 0
M  V30 3521 C 357.499 1.94351 -0.220705 0
M  V30 3522 C 357.879 1.67935 1.2791 0
M  V30 3523 O 357.227 1.01211 2.04862 0
M  V30 3524 C 357.437 3.44426 -0.563171 0
M  V30 3525 C 358.785 4.2144 -0.517046 0
M  V30 3526 O 359.809 3.52661 -0.500846 0
M  V30 3527 O 358.668 5.44032 -0.518806 0
M  V30 3528 H 355.762 0.825879 -0.043047 0
M  V30 3529 H 358.308 1.48429 -0.822618 0
M  V30 3530 H 357.08 3.5712 -1.59941 0
M  V30 3531 H 356.703 3.97543 0.0672883 0
M  V30 3532 N 357.7 0.491464 1.49741 0
M  V30 3533 C 358.946 -0.0565092 2.02721 0
M  V30 3534 C 359.279 -1.37522 1.37118 0
M  V30 3535 O 358.554 -1.87866 0.503645 0
M  V30 3536 C 358.837 -0.219051 3.59433 0
M  V30 3537 C 358.69 1.12211 4.35579 0
M  V30 3538 C 360.009 -0.964157 4.29409 0
M  V30 3539 H 357.128 -0.0190627 0.736753 0
M  V30 3540 H 359.77 0.641021 1.7886 0
M  V30 3541 H 357.92 -0.813165 3.79895 0
M  V30 3542 H 359.592 1.75437 4.26637 0
M  V30 3543 H 357.835 1.71377 3.98513 0
M  V30 3544 H 358.506 0.961794 5.43556 0
M  V30 3545 H 360.982 -0.460378 4.13545 0
M  V30 3546 H 359.858 -1.04671 5.38828 0
M  V30 3547 H 360.119 -2.00563 3.93988 0
M  V30 3548 N 359.178 -1.55987 0.224894 0
M  V30 3549 C 360.11 -2.17722 -0.716224 0
M  V30 3550 C 361.123 -1.14723 -1.15509 0
M  V30 3551 O 362.312 -1.41688 -1.08567 0
M  V30 3552 C 359.412 -2.74873 -1.98238 0
M  V30 3553 C 358.585 -4.03074 -1.69853 0
M  V30 3554 C 357.644 -4.44757 -2.81208 0
M  V30 3555 O 356.67 -5.11587 -2.49534 0
M  V30 3556 N 357.872 -4.10716 -4.10235 0
M  V30 3557 H 360.637 -2.99109 -0.188123 0
M  V30 3558 H 358.198 -1.6184 0.0440123 0
M  V30 3559 H 360.19 -2.99727 -2.7193 0
M  V30 3560 H 358.76 -1.9777 -2.42086 0
M  V30 3561 H 357.98 -3.86041 -0.797875 0
M  V30 3562 H 359.268 -4.86701 -1.48324 0
M  V30 3563 H 358.666 -3.57019 -4.38809 0
M  V30 3564 H 357.223 -4.40455 -4.80461 0
M  V30 3565 N 360.656 0.0484629 -1.57525 0
M  V30 3566 C 361.902 0.744226 -1.88651 0
M  V30 3567 C 362.235 1.76029 -0.820212 0
M  V30 3568 O 361.51 1.93782 0.166985 0
M  V30 3569 C 361.793 1.43128 -3.30434 0
M  V30 3570 C 361.646 0.43005 -4.47739 0
M  V30 3571 C 362.965 2.37031 -3.70816 0
M  V30 3572 H 360.084 0.269089 -0.68612 0
M  V30 3573 H 362.726 0.00713532 -1.89999 0
M  V30 3574 H 360.876 2.05956 -3.29415 0
M  V30 3575 H 362.548 -0.194816 -4.60888 0
M  V30 3576 H 360.791 -0.252522 -4.33064 0
M  V30 3577 H 361.462 0.948874 -5.43783 0
M  V30 3578 H 363.938 1.84263 -3.73077 0
M  V30 3579 H 362.814 2.82094 -4.70865 0
M  V30 3580 H 363.075 3.22864 -3.02012 0
M  V30 3581 N 362.134 1.5431 0.320358 0
M  V30 3582 C 363.097 1.83195 1.3774 0
M  V30 3583 C 364.097 0.703906 1.44575 0
M  V30 3584 O 365.287 0.972214 1.44546 0
M  V30 3585 C 362.419 1.99487 2.76438 0
M  V30 3586 H 363.612 2.77642 1.1338 0
M  V30 3587 H 361.165 1.46076 0.556012 0
M  V30 3588 H 361.9 1.07262 3.06048 0
M  V30 3589 H 361.685 2.81575 2.7287 0
M  V30 3590 H 363.175 2.23271 3.52902 0
M  V30 3591 N 363.613 -0.582584 1.46437 0
M  V30 3592 C 364.862 -1.337 1.5102 0
M  V30 3593 C 365.175 -1.94891 0.166359 0
M  V30 3594 O 366.381 -2.71351 0.0899954 0
M  V30 3595 C 364.837 -2.42315 2.66104 0
M  V30 3596 C 364.445 -1.87427 4.06909 0
M  V30 3597 C 366.189 -3.19099 2.79958 0
M  V30 3598 C 364.096 -2.93672 5.13333 0
M  V30 3599 H 363.026 -0.502619 0.562041 0
M  V30 3600 H 365.677 -0.621701 1.72647 0
M  V30 3601 H 364.059 -3.16645 2.37807 0
M  V30 3602 H 365.233 -1.19639 4.44998 0
M  V30 3603 H 363.548 -1.2331 3.97723 0
M  V30 3604 H 366.145 -3.9839 3.56636 0
M  V30 3605 H 366.488 -3.71695 1.87479 0
M  V30 3606 H 367.021 -2.51875 3.07902 0
M  V30 3607 H 363.76 -2.45962 6.07604 0
M  V30 3608 H 363.28 -3.59948 4.79789 0
M  V30 3609 H 364.959 -3.5762 5.39182 0
M  V30 3610 N 365.091 -1.34144 -0.827227 0
M  V30 3611 C 366.041 -1.21923 -1.92663 0
M  V30 3612 C 367.025 -0.119294 -1.60457 0
M  V30 3613 O 368.217 -0.348539 -1.73534 0
M  V30 3614 C 365.346 -0.972492 -3.29238 0
M  V30 3615 C 364.432 -2.1154 -3.67576 0
M  V30 3616 N 364.823 -3.36627 -3.77512 0
M  V30 3617 C 363.121 -2.02468 -3.97395 0
M  V30 3618 C 363.822 -4.11658 -4.1099 0
M  V30 3619 N 362.798 -3.40207 -4.23981 0
M  V30 3620 H 366.6 -2.16721 -1.98517 0
M  V30 3621 H 364.114 -1.2632 -1.02064 0
M  V30 3622 H 366.111 -0.865847 -4.0781 0
M  V30 3623 H 364.771 -0.0331509 -3.24683 0
M  V30 3624 H 365.782 -3.71234 -3.61118 0
M  V30 3625 H 362.459 -1.16265 -4.00985 0
M  V30 3626 H 363.849 -5.19657 -4.25918 0
M  V30 3627 N 366.569 1.04691 -1.17803 0
M  V30 3628 C 367.794 1.81984 -0.994813 0
M  V30 3629 C 368.219 1.82586 0.452112 0
M  V30 3630 O 367.577 1.23854 1.324 0
M  V30 3631 C 367.625 3.2575 -1.54659 0
M  V30 3632 O 366.729 4.05267 -0.763728 0
M  V30 3633 H 366.07 0.562483 -0.352857 0
M  V30 3634 H 368.6 1.3189 -1.56417 0
M  V30 3635 H 368.61 3.76541 -1.57102 0
M  V30 3636 H 367.285 3.24627 -2.59981 0
M  V30 3637 H 365.862 3.63972 -0.811108 0
M  V30 3638 N 368.047 0.979072 1.23499 0
M  V30 3639 C 369.324 0.563674 1.87302 0
M  V30 3640 C 369.704 -0.959199 1.88049 0
M  V30 3641 O 369.052 -1.83535 1.36114 0
M  V30 3642 C 369.262 1.16822 3.28867 0
M  V30 3643 C 370.61 1.26014 4.0547 0
M  V30 3644 O 371.634 1.12158 3.38082 0
M  V30 3645 O 370.493 1.48044 5.26066 0
M  V30 3646 H 367.587 0.189602 0.804972 0
M  V30 3647 H 370.133 1.07407 1.31384 0
M  V30 3648 H 368.905 2.21049 3.22883 0
M  V30 3649 H 368.528 0.642564 3.92373 0
M  V30 3650 N 369.525 -1.3858 0.750561 0
M  V30 3651 C 370.753 -2.04471 0.316098 0
M  V30 3652 C 371.168 -1.56606 -1.05452 0
M  V30 3653 O 370.525 -0.737784 -1.66922 0
M  V30 3654 C 370.576 -3.60025 0.326275 0
M  V30 3655 O 370.297 -4.06133 1.6428 0
M  V30 3656 C 371.798 -4.43131 -0.122429 0
M  V30 3657 H 369.018 -0.65717 0.135528 0
M  V30 3658 H 371.562 -1.77329 1.01857 0
M  V30 3659 H 369.717 -3.86014 -0.327431 0
M  V30 3660 H 370.131 -5.00547 1.56693 0
M  V30 3661 H 371.605 -5.51963 -0.0641473 0
M  V30 3662 H 372.082 -4.23333 -1.16988 0
M  V30 3663 H 372.688 -4.22323 0.50229 0
M  V30 3664 N 371.003 -0.499398 -1.49478 0
M  V30 3665 C 371.933 0.269244 -2.31943 0
M  V30 3666 C 372.914 0.964054 -1.40143 0
M  V30 3667 O 374.099 0.955767 -1.69052 0
M  V30 3668 C 371.229 1.33504 -3.20615 0
M  V30 3669 C 370.183 0.760202 -4.21195 0
M  V30 3670 C 369.509 1.9264 -4.98792 0
M  V30 3671 C 370.809 -0.247661 -5.21712 0
M  V30 3672 H 372.503 -0.419082 -2.96452 0
M  V30 3673 H 370.049 -0.202988 -1.42562 0
M  V30 3674 H 372.002 1.88048 -3.77115 0
M  V30 3675 H 370.726 2.05253 -2.54045 0
M  V30 3676 H 369.385 0.23653 -3.65836 0
M  V30 3677 H 369.033 2.63154 -4.28671 0
M  V30 3678 H 368.733 1.54785 -5.66847 0
M  V30 3679 H 370.257 2.4762 -5.58137 0
M  V30 3680 H 371.671 0.209579 -5.72917 0
M  V30 3681 H 370.068 -0.541962 -5.97648 0
M  V30 3682 H 371.138 -1.16409 -4.7072 0
M  V30 3683 N 372.481 1.55866 -0.233164 0
M  V30 3684 C 373.429 2.22176 0.68851 0
M  V30 3685 C 374.423 1.20487 1.19076 0
M  V30 3686 O 375.629 1.38536 1.14925 0
M  V30 3687 H 372.004 0.712511 0.240483 0
M  V30 3688 H 373.975 2.98212 0.105935 0
M  V30 3689 C 372.724 2.92446 1.88071 0
M  V30 3690 H 372.047 3.70458 1.50337 0
M  V30 3691 H 373.487 3.42226 2.50314 0
M  V30 3692 C 371.946 1.95555 2.74335 0
M  V30 3693 O 372.476 1.47986 3.73447 0
M  V30 3694 N 370.682 1.62953 2.40613 0
M  V30 3695 H 370.229 2.01831 1.60069 0
M  V30 3696 H 370.187 0.983886 2.98609 0
M  V30 3697 N 373.959 -0.0401083 1.57549 0
M  V30 3698 C 374.869 -1.06133 2.0922 0
M  V30 3699 C 375.885 -1.40356 1.0284 0
M  V30 3700 O 377.061 -1.49897 1.34509 0
M  V30 3701 C 374.126 -2.34658 2.55218 0
M  V30 3702 C 373.187 -2.07117 3.76033 0
M  V30 3703 C 372.42 -3.29514 4.19829 0
M  V30 3704 O 372.643 -4.39794 3.63232 0
M  V30 3705 O 371.577 -3.15863 5.12362 0
M  V30 3706 H 375.403 -0.652244 2.96613 0
M  V30 3707 H 372.988 -0.256368 1.47184 0
M  V30 3708 H 374.87 -3.10239 2.85184 0
M  V30 3709 H 373.545 -2.74883 1.70941 0
M  V30 3710 H 372.452 -1.29139 3.51104 0
M  V30 3711 H 373.785 -1.71754 4.61261 0
M  V30 3712 N 375.437 -1.54477 -0.31217 0
M  V30 3713 C 376.4 -1.83923 -1.36766 0
M  V30 3714 C 377.4 -0.711563 -1.44199 0
M  V30 3715 O 378.59 -0.979866 -1.44029 0
M  V30 3716 C 375.722 -2.0095 -2.75376 0
M  V30 3717 H 376.915 -2.78239 -1.11906 0
M  V30 3718 H 374.468 -1.46369 -0.548257 0
M  V30 3719 H 375.203 -1.08883 -3.05475 0
M  V30 3720 H 374.988 -2.83018 -2.71373 0
M  V30 3721 H 376.478 -2.2514 -3.51713 0
M  V30 3722 N 376.915 0.57481 -1.46744 0
M  V30 3723 C 378.163 1.33009 -1.52161 0
M  V30 3724 C 378.484 1.94185 -0.178092 0
M  V30 3725 O 377.754 1.7899 0.796196 0
M  V30 3726 H 376.334 0.493873 -0.560445 0
M  V30 3727 H 378.996 0.672589 -1.82927 0
M  V30 3728 H 378.092 2.13273 -2.27862 0
M  V30 3729 N 378.394 1.34581 0.820102 0
M  V30 3730 C 379.641 1.27096 1.57648 0
M  V30 3731 C 379.969 -0.158317 1.93855 0
M  V30 3732 O 379.224 -1.12028 1.60463 0
M  V30 3733 C 379.523 2.10997 2.8847 0
M  V30 3734 C 379.189 3.59966 2.71543 0
M  V30 3735 C 377.851 4.00575 2.66634 0
M  V30 3736 C 380.203 4.54548 2.55021 0
M  V30 3737 C 377.531 5.33953 2.43128 0
M  V30 3738 C 379.883 5.88109 2.33047 0
M  V30 3739 C 378.547 6.27878 2.26552 0
M  V30 3740 H 377.817 0.465078 0.576874 0
M  V30 3741 H 380.464 1.6635 0.948671 0
M  V30 3742 H 378.769 1.6458 3.55557 0
M  V30 3743 H 380.466 2.0255 3.46084 0
M  V30 3744 H 377.056 3.27733 2.76205 0
M  V30 3745 H 381.24 4.24069 2.57835 0
M  V30 3746 H 376.496 5.63781 2.3656 0
M  V30 3747 H 380.67 6.60985 2.19251 0
M  V30 3748 H 378.297 7.31162 2.081 0
M  V30 3749 N 379.872 -1.04064 1.18357 0
M  V30 3750 C 380.802 -2.14001 0.934113 0
M  V30 3751 C 381.783 -1.69616 -0.128186 0
M  V30 3752 O 382.968 -1.94185 0.0244093 0
M  V30 3753 C 380.098 -3.44253 0.459066 0
M  V30 3754 C 379.052 -4.02261 1.46185 0
M  V30 3755 C 378.378 -5.27992 0.844322 0
M  V30 3756 C 379.678 -4.38432 2.83856 0
M  V30 3757 H 381.372 -2.35127 1.85352 0
M  V30 3758 H 378.918 -1.12998 0.892604 0
M  V30 3759 H 380.871 -4.20522 0.271907 0
M  V30 3760 H 379.595 -3.22813 -0.495912 0
M  V30 3761 H 378.254 -3.28074 1.63595 0
M  V30 3762 H 377.902 -5.02862 -0.117845 0
M  V30 3763 H 377.602 -5.67765 1.51384 0
M  V30 3764 H 379.126 -6.06938 0.667693 0
M  V30 3765 H 380.54 -5.05688 2.70098 0
M  V30 3766 H 378.937 -4.89254 3.47491 0
M  V30 3767 H 380.007 -3.4826 3.37406 0
M  V30 3768 N 381.35 -0.985608 -1.22978 0
M  V30 3769 C 382.26 -0.538548 -2.28335 0
M  V30 3770 C 383.276 0.409163 -1.69121 0
M  V30 3771 O 384.452 0.277797 -1.99475 0
M  V30 3772 C 381.517 0.146867 -3.46389 0
M  V30 3773 C 380.578 -0.842896 -4.20944 0
M  V30 3774 C 379.811 -0.190095 -5.33361 0
M  V30 3775 O 380.034 1.01767 -5.61248 0
M  V30 3776 O 378.968 -0.891289 -5.95264 0
M  V30 3777 H 382.794 -1.41487 -2.68729 0
M  V30 3778 H 380.379 -0.753495 -1.29007 0
M  V30 3779 H 382.261 0.531125 -4.1804 0
M  V30 3780 H 380.936 0.997871 -3.07935 0
M  V30 3781 H 379.843 -1.27795 -3.51595 0
M  V30 3782 H 381.176 -1.66287 -4.6326 0
M  V30 3783 N 382.828 1.3818 -0.7579 0
M  V30 3784 C 384.105 1.94106 -0.241306 0
M  V30 3785 C 384.485 1.69282 1.26122 0
M  V30 3786 O 383.833 1.03378 2.03777 0
M  V30 3787 C 384.043 3.43809 -0.59967 0
M  V30 3788 C 385.391 4.20868 -0.561717 0
M  V30 3789 O 386.415 3.5211 -0.538222 0
M  V30 3790 O 385.274 5.43451 -0.576478 0
M  V30 3791 H 382.368 0.825376 -0.0518042 0
M  V30 3792 H 384.914 1.47548 -0.838315 0
M  V30 3793 H 383.686 3.55403 -1.6372 0
M  V30 3794 H 383.309 3.97592 0.0251197 0
M  V30 3795 N 384.306 0.507319 1.49211 0
M  V30 3796 C 385.534 -0.0315749 2.06876 0
M  V30 3797 C 385.949 -1.30241 1.36685 0
M  V30 3798 O 385.306 -1.76937 0.447152 0
M  V30 3799 C 385.357 -0.282627 3.60393 0
M  V30 3800 O 385.078 0.937835 4.27944 0
M  V30 3801 C 386.579 -0.864453 4.3479 0
M  V30 3802 H 383.799 0.0233048 0.670595 0
M  V30 3803 H 386.343 0.706484 1.91909 0
M  V30 3804 H 384.498 -0.97068 3.75042 0
M  V30 3805 H 384.912 0.704567 5.19746 0
M  V30 3806 H 386.386 -0.989664 5.43056 0
M  V30 3807 H 386.863 -1.86382 3.97692 0
M  V30 3808 H 387.469 -0.213672 4.24763 0
M  V30 3809 N 385.784 -1.5574 0.241426 0
M  V30 3810 C 387.03 -1.99104 -0.385406 0
M  V30 3811 C 387.363 -1.1293 -1.57988 0
M  V30 3812 O 386.638 -0.191449 -1.93555 0
M  V30 3813 C 386.921 -3.51087 -0.800616 0
M  V30 3814 C 386.774 -4.48028 0.398874 0
M  V30 3815 C 388.093 -4.08015 -1.64959 0
M  V30 3816 H 385.212 -0.723848 -0.138614 0
M  V30 3817 H 387.854 -1.86903 0.341642 0
M  V30 3818 H 386.004 -3.61615 -1.4201 0
M  V30 3819 H 387.676 -4.49487 1.03726 0
M  V30 3820 H 385.919 -4.21077 1.04293 0
M  V30 3821 H 386.59 -5.51962 0.0651056 0
M  V30 3822 H 389.066 -4.00555 -1.12672 0
M  V30 3823 H 387.942 -5.14635 -1.90898 0
M  V30 3824 H 388.203 -3.56131 -2.61961 0
M  V30 3825 N 387.262 0.0317525 -1.57568 0
M  V30 3826 C 388.678 0.38735 -1.54828 0
M  V30 3827 C 388.878 1.7677 -0.967187 0
M  V30 3828 O 387.934 2.45581 -0.587063 0
M  V30 3829 C 389.247 0.291667 -2.99282 0
M  V30 3830 C 390.795 0.368946 -3.10818 0
M  V30 3831 C 391.27 0.302741 -4.56998 0
M  V30 3832 N 392.761 0.361617 -4.61786 0
M  V30 3833 C 393.496 0.333238 -5.72431 0
M  V30 3834 N 392.992 0.257308 -6.92322 0
M  V30 3835 N 394.785 0.382769 -5.60795 0
M  V30 3836 H 386.936 -0.871609 -1.93692 0
M  V30 3837 H 389.199 -0.331161 -0.888277 0
M  V30 3838 H 388.905 -0.656794 -3.45513 0
M  V30 3839 H 388.779 1.08638 -3.61217 0
M  V30 3840 H 391.166 1.30784 -2.64536 0
M  V30 3841 H 391.247 -0.455066 -2.5172 0
M  V30 3842 H 390.891 -0.632473 -5.03947 0
M  V30 3843 H 390.821 1.14482 -5.14005 0
M  V30 3844 H 393.312 0.422923 -3.75526 0
M  V30 3845 H 393.625 0.24068 -7.72425 0
M  V30 3846 H 391.97 0.223396 -6.94641 0
M  V30 3847 H 395.161 0.44006 -4.66027 0
M  V30 3848 H 395.334 0.357184 -6.47015 0
M  V30 3849 N 388.74 1.54641 0.303973 0
M  V30 3850 C 389.703 1.84646 1.35789 0
M  V30 3851 C 390.703 0.7192 1.4382 0
M  V30 3852 O 391.893 0.987491 1.43507 0
M  V30 3853 C 389.025 2.02407 2.74307 0
M  V30 3854 H 390.218 2.78829 1.10429 0
M  V30 3855 H 387.771 1.46658 0.540487 0
M  V30 3856 H 388.506 1.10502 3.04893 0
M  V30 3857 H 388.291 2.84453 2.69868 0
M  V30 3858 H 389.781 2.27002 3.50514 0
M  V30 3859 N 390.218 -0.567019 1.47046 0
M  V30 3860 C 391.467 -1.32091 1.5243 0
M  V30 3861 C 391.78 -1.94704 0.187021 0
M  V30 3862 O 392.986 -2.7124 0.118771 0
M  V30 3863 C 391.442 -2.39479 2.68659 0
M  V30 3864 C 391.05 -1.831 4.08874 0
M  V30 3865 C 392.794 -3.16111 2.83327 0
M  V30 3866 C 390.701 -2.8821 5.16419 0
M  V30 3867 H 389.631 -0.496629 0.56734 0
M  V30 3868 H 392.282 -0.603354 1.73297 0
M  V30 3869 H 390.664 -3.14105 2.41152 0
M  V30 3870 H 391.838 -1.14913 4.46242 0
M  V30 3871 H 390.153 -1.19085 3.99008 0
M  V30 3872 H 392.75 -3.94585 3.60842 0
M  V30 3873 H 393.093 -3.69686 1.91411 0
M  V30 3874 H 393.626 -2.48595 3.10556 0
M  V30 3875 H 390.365 -2.39504 6.10179 0
M  V30 3876 H 389.885 -3.54839 4.8358 0
M  V30 3877 H 391.564 -3.51881 5.42945 0
M  V30 3878 N 391.696 -1.35014 -0.812953 0
M  V30 3879 C 392.644 -1.27435 -1.94585 0
M  V30 3880 C 393.638 -0.170494 -1.6854 0
M  V30 3881 O 394.844 -0.336085 -1.76835 0
M  V30 3882 H 391.219 -0.396144 -0.639198 0
M  V30 3883 H 393.19 -2.23158 -1.98098 0
M  V30 3884 C 391.939 -1.05677 -3.31252 0
M  V30 3885 H 391.262 -1.89853 -3.51846 0
M  V30 3886 H 392.702 -1.04413 -4.10943 0
M  V30 3887 C 391.161 0.239615 -3.36047 0
M  V30 3888 O 391.691 1.23759 -3.8216 0
M  V30 3889 N 389.897 0.276186 -2.89285 0
M  V30 3890 H 389.444 -0.53653 -2.51951 0
M  V30 3891 H 389.402 1.14332 -2.92875 0
M  V30 3892 N 393.175 1.03435 -1.18907 0
M  V30 3893 C 394.423 1.76394 -0.986382 0
M  V30 3894 C 394.744 1.88883 0.484567 0
M  V30 3895 O 394.014 1.41843 1.3512 0
M  V30 3896 H 392.594 0.65344 -0.361975 0
M  V30 3897 H 395.256 1.248 -1.49703 0
M  V30 3898 H 394.352 2.77424 -1.42978 0
M  V30 3899 N 394.653 0.992116 1.22453 0
M  V30 3900 C 396.069 0.702713 1.43297 0
M  V30 3901 C 396.269 -0.726909 1.87932 0
M  V30 3902 O 395.325 -1.49792 2.0327 0
M  V30 3903 C 396.638 1.70762 2.47509 0
M  V30 3904 C 398.186 1.72298 2.61309 0
M  V30 3905 C 398.661 2.71649 3.68742 0
M  V30 3906 N 400.152 2.70239 3.76199 0
M  V30 3907 C 400.887 3.43778 4.58917 0
M  V30 3908 N 400.383 4.26914 5.45633 0
M  V30 3909 N 402.176 3.32487 4.5322 0
M  V30 3910 H 394.327 1.91543 0.917871 0
M  V30 3911 H 396.59 0.826031 0.465162 0
M  V30 3912 H 396.296 2.73059 2.21657 0
M  V30 3913 H 396.17 1.49985 3.46099 0
M  V30 3914 H 398.557 0.706989 2.86506 0
M  V30 3915 H 398.638 1.97143 1.62997 0
M  V30 3916 H 398.282 3.73397 3.44292 0
M  V30 3917 H 398.212 2.44074 4.66622 0
M  V30 3918 H 400.703 2.09912 3.14237 0
M  V30 3919 H 401.016 4.79855 6.05771 0
M  V30 3920 H 399.361 4.31002 5.45218 0
M  V30 3921 H 402.552 2.6698 3.84499 0
M  V30 3922 H 402.725 3.90058 5.17454 0
M  V30 3923 N 396.131 -1.37776 0.765217 0
M  V30 3924 C 397.377 -2.00145 0.327072 0
M  V30 3925 C 397.71 -1.60607 -1.09175 0
M  V30 3926 O 396.985 -0.849127 -1.74986 0
M  V30 3927 C 397.268 -3.57109 0.46319 0
M  V30 3928 C 397.121 -4.06576 1.92395 0
M  V30 3929 C 398.44 -4.39888 -0.136473 0
M  V30 3930 H 395.559 -0.727113 0.120316 0
M  V30 3931 H 398.201 -1.63549 0.967039 0
M  V30 3932 H 396.351 -3.88414 -0.0816358 0
M  V30 3933 H 398.023 -3.85864 2.52798 0
M  V30 3934 H 396.266 -3.59011 2.43503 0
M  V30 3935 H 396.937 -5.15639 1.97028 0
M  V30 3936 H 399.413 -4.14803 0.328317 0
M  V30 3937 H 398.289 -5.48899 -0.0110582 0
M  V30 3938 H 398.55 -4.24758 -1.22608 0
M  V30 3939 N 397.609 -0.515225 -1.4894 0
M  V30 3940 C 398.858 0.0261361 -2.01683 0
M  V30 3941 C 399.171 1.36719 -1.39883 0
M  V30 3942 O 400.377 1.99606 -1.84037 0
M  V30 3943 C 398.833 0.0970111 -3.59769 0
M  V30 3944 C 398.441 -1.23825 -4.30548 0
M  V30 3945 C 400.185 0.587981 -4.20408 0
M  V30 3946 C 398.092 -1.12877 -5.80528 0
M  V30 3947 H 397.022 0.0135398 -0.753878 0
M  V30 3948 H 399.673 -0.656787 -1.71343 0
M  V30 3949 H 398.055 0.844694 -3.86886 0
M  V30 3950 H 399.229 -2.00034 -4.15118 0
M  V30 3951 H 397.544 -1.66379 -3.81716 0
M  V30 3952 H 400.141 0.68763 -5.3026 0
M  V30 3953 H 400.484 1.59026 -3.84729 0
M  V30 3954 H 401.017 -0.103582 -3.97665 0
M  V30 3955 H 397.756 -2.10575 -6.20756 0
M  V30 3956 H 397.276 -0.407799 -5.98412 0
M  V30 3957 H 398.955 -0.813332 -6.41868 0
M  V30 3958 N 399.087 1.5561 -0.249682 0
M  V30 3959 C 400.037 2.18157 0.662673 0
M  V30 3960 C 401.021 1.1383 1.13717 0
M  V30 3961 O 402.213 1.39731 1.08648 0
M  V30 3962 C 399.342 2.88672 1.85805 0
M  V30 3963 C 398.428 4.00258 1.40193 0
M  V30 3964 N 398.819 5.01473 0.660213 0
M  V30 3965 C 397.117 4.12864 1.68698 0
M  V30 3966 C 397.818 5.80155 0.423695 0
M  V30 3967 N 396.794 5.34533 0.988721 0
M  V30 3968 H 400.596 2.93769 0.0878688 0
M  V30 3969 H 398.11 1.62316 -0.0521183 0
M  V30 3970 H 400.107 3.31912 2.5227 0
M  V30 3971 H 398.767 2.14564 2.43705 0
M  V30 3972 H 399.778 5.16971 0.310047 0
M  V30 3973 H 396.455 3.4993 2.27717 0
M  V30 3974 H 397.845 6.71688 -0.168616 0
M  V30 3975 N 400.565 -0.0233959 1.57583 0
M  V30 3976 C 401.79 -0.728376 1.94189 0
M  V30 3977 C 402.215 -1.67793 0.850119 0
M  V30 3978 O 401.573 -1.80262 -0.19371 0
M  V30 3979 C 401.621 -1.45669 3.29868 0
M  V30 3980 O 400.725 -2.57013 3.22518 0
M  V30 3981 H 400.066 -0.195493 0.63457 0
M  V30 3982 H 402.596 0.0228214 2.04587 0
M  V30 3983 H 402.606 -1.82535 3.6489 0
M  V30 3984 H 401.281 -0.760314 4.08891 0
M  V30 3985 H 399.858 -2.22648 2.99136 0
M  V30 3986 N 402.043 -1.548 -0.295768 0
M  V30 3987 C 403.29 -1.74329 -1.03032 0
M  V30 3988 C 403.618 -0.531915 -1.87085 0
M  V30 3989 O 402.873 0.486052 -1.89568 0
M  V30 3990 C 403.172 -2.98797 -1.961 0
M  V30 3991 C 402.838 -4.32356 -1.2798 0
M  V30 3992 C 401.5 -4.68661 -1.09135 0
M  V30 3993 C 403.852 -5.15128 -0.793243 0
M  V30 3994 C 401.18 -5.85312 -0.403269 0
M  V30 3995 C 403.532 -6.32488 -0.118854 0
M  V30 3996 C 402.196 -6.6745 0.0815043 0
M  V30 3997 H 401.466 -0.637916 -0.37702 0
M  V30 3998 H 404.113 -1.8906 -0.304696 0
M  V30 3999 H 402.418 -2.78869 -2.75207 0
M  V30 4000 H 404.115 -3.11102 -2.53015 0
M  V30 4001 H 400.705 -4.03808 -1.43655 0
M  V30 4002 H 404.889 -4.87575 -0.92653 0
M  V30 4003 H 400.145 -6.1094 -0.237098 0
M  V30 4004 H 404.319 -6.95892 0.266035 0
M  V30 4005 H 401.946 -7.57695 0.616685 0
M  V30 4006 N 403.521 0.559213 -1.47345 0
M  V30 4007 C 404.471 1.66192 -1.5609 0
M  V30 4008 C 405.455 1.55323 -0.419957 0
M  V30 4009 O 406.647 1.63839 -0.669762 0
M  V30 4010 C 403.776 3.0497 -1.57634 0
M  V30 4011 C 402.862 3.2105 -2.77106 0
M  V30 4012 N 403.253 3.07203 -4.01821 0
M  V30 4013 C 401.551 3.52046 -2.73825 0
M  V30 4014 C 402.252 3.25919 -4.81821 0
M  V30 4015 N 401.228 3.52161 -4.14106 0
M  V30 4016 H 405.03 1.54052 -2.5029 0
M  V30 4017 H 402.544 0.763914 -1.43311 0
M  V30 4018 H 404.541 3.84142 -1.61989 0
M  V30 4019 H 403.201 3.18224 -0.645281 0
M  V30 4020 H 404.212 2.84572 -4.32711 0
M  V30 4021 H 400.889 3.71839 -1.89848 0
M  V30 4022 H 402.279 3.20198 -5.90697 0
M  V30 4023 N 404.999 1.35443 0.805782 0
M  V30 4024 C 406.245 1.28952 1.56522 0
M  V30 4025 C 406.578 -0.135597 1.93726 0
M  V30 4026 O 405.853 -1.08516 1.61414 0
M  V30 4027 C 406.136 2.19678 2.85331 0
M  V30 4028 C 405.989 3.7081 2.54598 0
M  V30 4029 C 407.308 2.09495 3.8704 0
M  V30 4030 H 404.427 0.469764 0.567883 0
M  V30 4031 H 407.069 1.65851 0.927001 0
M  V30 4032 H 405.219 1.8834 3.39795 0
M  V30 4033 H 406.891 4.12593 2.06312 0
M  V30 4034 H 405.134 3.91051 1.8778 0
M  V30 4035 H 405.805 4.29679 3.46525 0
M  V30 4036 H 408.281 2.37045 3.41978 0
M  V30 4037 H 407.157 2.75173 4.74943 0
M  V30 4038 H 407.418 1.07714 4.28777 0
M  V30 4039 N 406.477 -1.02803 1.19454 0
M  V30 4040 C 407.387 -2.14575 0.948408 0
M  V30 4041 C 408.403 -1.73757 -0.091871 0
M  V30 4042 O 409.579 -2.01185 0.0929654 0
M  V30 4043 C 406.644 -3.43202 0.491265 0
M  V30 4044 C 405.705 -3.98328 1.60103 0
M  V30 4045 C 404.938 -5.20816 1.16561 0
M  V30 4046 O 405.161 -5.70392 0.0295238 0
M  V30 4047 O 404.095 -5.68801 1.96849 0
M  V30 4048 H 407.921 -2.38202 1.88397 0
M  V30 4049 H 405.506 -1.12989 0.977433 0
M  V30 4050 H 407.388 -4.20687 0.245015 0
M  V30 4051 H 406.063 -3.21018 -0.415851 0
M  V30 4052 H 404.97 -3.22174 1.90144 0
M  V30 4053 H 406.303 -4.24879 2.48473 0
M  V30 4054 N 407.956 -0.998596 -1.21925 0
M  V30 4055 C 409.204 -0.676325 -1.90448 0
M  V30 4056 C 409.525 0.794719 -1.78071 0
M  V30 4057 O 408.795 1.5701 -1.17152 0
M  V30 4058 H 407.375 -0.247165 -0.704925 0
M  V30 4059 H 410.037 -1.26633 -1.48156 0
M  V30 4060 H 409.133 -0.943858 -2.97486 0
M  V30 4061 N 409.434 1.37368 -0.772513 0
M  V30 4062 C 410.397 2.28601 -0.165541 0
M  V30 4063 C 411.397 1.48062 0.627238 0
M  V30 4064 O 412.587 1.68268 0.450715 0
M  V30 4065 C 409.719 3.32023 0.772897 0
M  V30 4066 H 410.912 2.83787 -0.969787 0
M  V30 4067 H 408.465 1.46647 -0.540775 0
M  V30 4068 H 409.2 2.81962 1.60212 0
M  V30 4069 H 408.985 3.91555 0.206585 0
M  V30 4070 H 410.475 4.00197 1.19298 0
M  V30 4071 N 410.912 0.523116 1.48665 0
M  V30 4072 C 412.16 -0.0134497 2.02096 0
M  V30 4073 C 412.481 -1.35418 1.40311 0
M  V30 4074 O 411.751 -1.87543 0.566074 0
M  V30 4075 H 410.331 -0.00795915 0.746958 0
M  V30 4076 H 412.993 0.685388 1.82451 0
M  V30 4077 H 412.089 -0.126849 3.11842 0
M  V30 4078 N 412.39 -1.55475 0.257931 0
M  V30 4079 C 413.638 -1.98813 -0.363009 0
M  V30 4080 C 413.959 -1.14757 -1.57657 0
M  V30 4081 O 413.229 -0.232956 -1.9451 0
M  V30 4082 H 411.809 -0.734308 -0.137113 0
M  V30 4083 H 414.471 -1.9156 0.359281 0
M  V30 4084 H 413.567 -3.04941 -0.664634 0
M  V30 4085 N 413.868 0.0150385 -1.57593 0
M  V30 4086 C 415.116 0.701613 -1.8953 0
M  V30 4087 C 415.437 1.75139 -0.857396 0
M  V30 4088 O 414.707 1.95607 0.107194 0
M  V30 4089 H 413.287 0.26213 -0.699498 0
M  V30 4090 H 415.949 -0.0223304 -1.94887 0
M  V30 4091 H 415.045 1.18236 -2.88837 0
M  V30 4092 N 415.346 1.54954 0.287554 0
M  V30 4093 C 416.296 1.8322 1.357 0
M  V30 4094 C 417.28 0.690152 1.45347 0
M  V30 4095 O 418.472 0.951137 1.49273 0
M  V30 4096 C 415.601 2.09481 2.71979 0
M  V30 4097 C 414.687 3.29906 2.66502 0
M  V30 4098 N 415.078 4.50154 2.30641 0
M  V30 4099 C 413.376 3.32203 2.97585 0
M  V30 4100 C 414.077 5.32209 2.34794 0
M  V30 4101 N 413.053 4.70258 2.72688 0
M  V30 4102 H 416.855 2.73746 1.0696 0
M  V30 4103 H 414.369 1.54635 0.496167 0
M  V30 4104 H 416.366 2.27882 3.49107 0
M  V30 4105 H 415.026 1.2023 3.0162 0
M  V30 4106 H 416.037 4.76515 2.02865 0
M  V30 4107 H 412.714 2.53101 3.32034 0
M  V30 4108 H 414.104 6.38321 2.09753 0
M  V30 4109 N 416.824 -0.551391 1.4764 0
M  V30 4110 C 417.787 -1.64007 1.60107 0
M  V30 4111 C 418.787 -1.53601 0.47576 0
M  V30 4112 O 419.977 -1.57655 0.740988 0
M  V30 4113 C 417.109 -3.03569 1.55108 0
M  V30 4114 H 418.302 -1.543 2.57161 0
M  V30 4115 H 415.855 -0.771776 1.35917 0
M  V30 4116 H 416.59 -3.18804 0.594519 0
M  V30 4117 H 416.375 -3.12532 2.36783 0
M  V30 4118 H 417.865 -3.82762 1.66982 0
M  V30 4119 N 418.302 -1.35869 -0.798587 0
M  V30 4120 C 419.713 -1.26498 -1.37314 0
M  V30 4121 C 420.064 0.0991899 -1.95949 0
M  V30 4122 O 419.189 1.0004 -1.91888 0
M  V30 4123 C 419.784 -2.29054 -2.49639 0
M  V30 4124 C 418.343 -2.234 -3.02935 0
M  V30 4125 C 417.49 -2.14329 -1.75949 0
M  V30 4126 H 420.441 -1.46881 -0.600971 0
M  V30 4127 H 420.462 -1.92166 -3.28409 0
M  V30 4128 H 419.974 -3.2833 -2.06933 0
M  V30 4129 H 418.075 -1.27562 -3.50084 0
M  V30 4130 H 418.188 -3.15703 -3.60372 0
M  V30 4131 H 416.552 -1.60435 -1.9782 0
M  V30 4132 H 417.335 -3.15477 -1.35384 0
M  V30 4133 N 419.78 1.02168 -1.19998 0
M  V30 4134 C 421.057 1.72816 -0.916191 0
M  V30 4135 C 421.437 2.03081 0.576325 0
M  V30 4136 O 420.785 1.69122 1.53656 0
M  V30 4137 C 420.995 2.9997 -1.78378 0
M  V30 4138 C 422.343 3.73336 -2.02251 0
M  V30 4139 O 423.367 3.09914 -1.75589 0
M  V30 4140 O 422.226 4.87371 -2.47249 0
M  V30 4141 H 419.32 0.752924 -0.342103 0
M  V30 4142 H 421.866 1.08062 -1.30846 0
M  V30 4143 H 420.638 2.73888 -2.79466 0
M  V30 4144 H 420.261 3.72464 -1.39126 0
M  V30 4145 N 421.258 1.00505 1.21394 0
M  V30 4146 C 422.507 0.683159 1.89778 0
M  V30 4147 C 422.82 -0.789471 1.7896 0
M  V30 4148 O 424.026 -1.22344 2.42372 0
M  V30 4149 C 422.482 1.17146 3.40301 0
M  V30 4150 C 422.09 2.67017 3.5973 0
M  V30 4151 C 423.834 0.924461 4.14311 0
M  V30 4152 C 421.741 3.09387 5.04017 0
M  V30 4153 H 420.671 0.25183 0.710702 0
M  V30 4154 H 423.322 1.21622 1.37406 0
M  V30 4155 H 421.704 0.566451 3.91928 0
M  V30 4156 H 422.878 3.32968 3.18542 0
M  V30 4157 H 421.193 2.89732 2.99073 0
M  V30 4158 H 423.79 1.21658 5.20676 0
M  V30 4159 H 424.133 -0.139286 4.16067 0
M  V30 4160 H 424.666 1.49226 3.6875 0
M  V30 4161 H 421.405 4.14989 5.07409 0
M  V30 4162 H 420.925 2.48149 5.46061 0
M  V30 4163 H 422.604 3.01371 5.72525 0
M  V30 4164 N 422.737 -1.36956 0.779787 0
M  V30 4165 C 423.67 -2.27896 0.117681 0
M  V30 4166 C 424.648 -1.46736 -0.700523 0
M  V30 4167 O 425.832 -1.76055 -0.673568 0
M  V30 4168 C 422.959 -3.28136 -0.839296 0
M  V30 4169 C 422.005 -4.26373 -0.10409 0
M  V30 4170 S 422.838 -5.2157 1.21348 0
M  V30 4171 C 423.994 -6.25359 0.260249 0
M  V30 4172 H 424.227 -2.83704 0.888778 0
M  V30 4173 H 421.76 -1.43352 0.57355 0
M  V30 4174 H 423.718 -3.86394 -1.38601 0
M  V30 4175 H 422.379 -2.7126 -1.58356 0
M  V30 4176 H 421.572 -4.97121 -0.82986 0
M  V30 4177 H 421.174 -3.72147 0.371858 0
M  V30 4178 H 423.466 -6.75145 -0.564435 0
M  V30 4179 H 424.409 -7.01885 0.936135 0
M  V30 4180 H 424.817 -5.64345 -0.132127 0
M  V30 4181 N 424.215 -0.530993 -1.48385 0
M  V30 4182 C 425.178 0.220497 -2.28137 0
M  V30 4183 C 426.178 0.866851 -1.35434 0
M  V30 4184 O 427.368 0.726746 -1.58316 0
M  V30 4185 C 424.5 1.31921 -3.1434 0
M  V30 4186 H 425.693 -0.479714 -2.96038 0
M  V30 4187 H 423.246 -0.286968 -1.53643 0
M  V30 4188 H 423.981 2.05264 -2.51072 0
M  V30 4189 H 423.766 0.86085 -3.82533 0
M  V30 4190 H 425.256 1.84776 -3.74497 0
M  V30 4191 N 425.693 1.55336 -0.266172 0
M  V30 4192 C 426.626 2.18256 0.666296 0
M  V30 4193 C 427.604 1.14064 1.1588 0
M  V30 4194 O 428.788 1.42546 1.23341 0
M  V30 4195 C 425.915 2.79867 1.90768 0
M  V30 4196 C 424.961 3.97283 1.55141 0
M  V30 4197 S 425.794 5.31694 0.637313 0
M  V30 4198 C 426.95 5.96769 1.88727 0
M  V30 4199 H 427.183 2.97008 0.131647 0
M  V30 4200 H 424.716 1.54317 -0.0504869 0
M  V30 4201 H 426.674 3.15996 2.62025 0
M  V30 4202 H 425.335 2.01025 2.41346 0
M  V30 4203 H 424.528 4.3905 2.4749 0
M  V30 4204 H 424.13 3.6253 0.919113 0
M  V30 4205 H 426.422 6.15458 2.83227 0
M  V30 4206 H 427.365 6.91752 1.51276 0
M  V30 4207 H 427.773 5.26034 2.04814 0
M  V30 4208 N 427.171 -0.0066808 1.57599 0
M  V30 4209 C 428.134 -0.985035 2.06953 0
M  V30 4210 C 429.134 -1.27663 0.977687 0
M  V30 4211 O 430.324 -1.22293 1.24057 0
M  V30 4212 C 427.456 -2.3118 2.50536 0
M  V30 4213 H 428.649 -0.558255 2.94658 0
M  V30 4214 H 426.202 -0.254011 1.54222 0
M  V30 4215 H 426.937 -2.78561 1.66054 0
M  V30 4216 H 426.722 -2.11338 3.3027 0
M  V30 4217 H 428.212 -3.01377 2.8907 0
M  V30 4218 N 428.649 -1.55105 -0.279332 0
M  V30 4219 C 429.897 -1.75066 -1.00977 0
M  V30 4220 C 430.218 -0.551276 -1.87045 0
M  V30 4221 O 429.488 0.433984 -1.91032 0
M  V30 4222 H 428.068 -0.645578 -0.375816 0
M  V30 4223 H 430.73 -1.92497 -0.305089 0
M  V30 4224 H 429.826 -2.64894 -1.65038 0
M  V30 4225 N 430.127 0.543554 -1.4793 0
M  V30 4226 C 431.077 1.64527 -1.57844 0
M  V30 4227 C 432.061 1.54869 -0.436408 0
M  V30 4228 O 433.253 1.63119 -0.687101 0
M  V30 4229 C 430.382 3.03281 -1.6086 0
M  V30 4230 C 429.468 3.18093 -2.80495 0
M  V30 4231 N 429.859 3.02923 -4.05057 0
M  V30 4232 C 428.157 3.49121 -2.77543 0
M  V30 4233 C 428.858 3.20791 -4.85251 0
M  V30 4234 N 427.834 3.47749 -4.17818 0
M  V30 4235 H 431.636 1.51388 -2.5191 0
M  V30 4236 H 429.15 0.748671 -1.44113 0
M  V30 4237 H 431.147 3.82403 -1.66054 0
M  V30 4238 H 429.807 3.17521 -0.678996 0
M  V30 4239 H 430.818 2.79966 -4.35705 0
M  V30 4240 H 427.495 3.69804 -1.93781 0
M  V30 4241 H 428.885 3.13915 -5.9406 0
M  V30 4242 N 431.605 1.3629 0.791371 0
M  V30 4243 C 433.016 1.27225 1.36641 0
M  V30 4244 C 433.367 -0.0887968 1.95999 0
M  V30 4245 O 432.492 -0.990207 1.92416 0
M  V30 4246 C 433.087 2.30375 2.48421 0
M  V30 4247 C 431.646 2.25004 3.01746 0
M  V30 4248 C 430.793 2.15259 1.7481 0
M  V30 4249 H 433.744 1.47198 0.593173 0
M  V30 4250 H 433.765 1.93905 3.27385 0
M  V30 4251 H 433.277 3.29422 2.05189 0
M  V30 4252 H 431.378 1.29417 3.49403 0
M  V30 4253 H 431.491 3.1761 3.58693 0
M  V30 4254 H 429.855 1.61482 1.96966 0
M  V30 4255 H 430.638 3.16191 1.33709 0
M  V30 4256 N 433.083 -1.0153 1.20538 0
M  V30 4257 C 434.031 -2.12215 0.952235 0
M  V30 4258 C 435.025 -1.69123 -0.0968735 0
M  V30 4259 O 436.231 -1.7992 0.0536006 0
M  V30 4260 H 432.606 -0.693576 0.290613 0
M  V30 4261 H 434.577 -2.3075 1.89201 0
M  V30 4262 C 433.326 -3.43755 0.522287 0
M  V30 4263 H 432.649 -3.7734 1.32115 0
M  V30 4264 H 434.089 -4.22254 0.384389 0
M  V30 4265 C 432.548 -3.28088 -0.765489 0
M  V30 4266 O 433.078 -3.57921 -1.8236 0
M  V30 4267 N 431.284 -2.81333 -0.728011 0
M  V30 4268 H 430.831 -2.57255 0.133332 0
M  V30 4269 H 430.789 -2.71232 -1.58999 0
M  V30 4270 N 434.561 -1.01147 -1.20859 0
M  V30 4271 C 435.807 -0.698899 -1.90377 0
M  V30 4272 C 436.14 0.76904 -1.78324 0
M  V30 4273 O 435.415 1.55817 -1.16409 0
M  V30 4274 C 435.698 -1.12878 -3.41951 0
M  V30 4275 C 435.551 -2.65665 -3.62963 0
M  V30 4276 C 436.87 -0.696114 -4.3456 0
M  V30 4277 H 433.989 -0.255372 -0.691342 0
M  V30 4278 H 436.631 -1.25831 -1.42361 0
M  V30 4279 H 434.781 -0.652827 -3.82976 0
M  V30 4280 H 436.453 -3.21074 -3.31224 0
M  V30 4281 H 434.696 -3.06878 -3.06608 0
M  V30 4282 H 435.367 -2.90797 -4.69192 0
M  V30 4283 H 437.843 -1.10521 -4.01154 0
M  V30 4284 H 436.719 -1.025 -5.39245 0
M  V30 4285 H 436.98 0.402465 -4.40264 0
M  V30 4286 N 436.039 1.36541 -0.78704 0
M  V30 4287 C 436.969 2.32659 -0.197992 0
M  V30 4288 C 437.95 1.56533 0.665697 0
M  V30 4289 O 439.135 1.84698 0.60001 0
M  V30 4290 C 436.265 3.40778 0.669901 0
M  V30 4291 C 435.219 4.27897 -0.0937039 0
M  V30 4292 C 434.545 5.27163 0.894629 0
M  V30 4293 C 435.845 5.06334 -1.28154 0
M  V30 4294 H 437.539 2.82171 -1.00099 0
M  V30 4295 H 435.085 1.35665 -0.482793 0
M  V30 4296 H 437.038 4.07008 1.09191 0
M  V30 4297 H 435.762 2.89827 1.50558 0
M  V30 4298 H 434.421 3.6322 -0.49666 0
M  V30 4299 H 434.069 4.72486 1.72527 0
M  V30 4300 H 433.769 5.86317 0.388149 0
M  V30 4301 H 435.293 5.96266 1.31525 0
M  V30 4302 H 436.707 5.65617 -0.93541 0
M  V30 4303 H 435.104 5.74888 -1.72115 0
M  V30 4304 H 436.174 4.38114 -2.07807 0
M  V30 4305 N 437.518 0.538854 1.48102 0
M  V30 4306 C 438.929 0.100679 1.86428 0
M  V30 4307 C 439.28 -1.32447 1.44749 0
M  V30 4308 O 438.405 -1.99339 0.842199 0
M  V30 4309 C 439 0.175933 3.38343 0
M  V30 4310 C 437.559 -0.207098 3.7583 0
M  V30 4311 C 436.706 0.531741 2.72154 0
M  V30 4312 H 439.657 0.749614 1.3988 0
M  V30 4313 H 439.678 -0.610144 3.75576 0
M  V30 4314 H 439.19 1.21328 3.68648 0
M  V30 4315 H 437.291 -1.24626 3.5114 0
M  V30 4316 H 437.404 0.138687 4.78899 0
M  V30 4317 H 435.768 -0.0230462 2.5469 0
M  V30 4318 H 436.551 1.56989 3.05302 0
M  V30 4319 N 438.996 -1.55193 0.274407 0
M  V30 4320 C 440.221 -2.04446 -0.348824 0
M  V30 4321 C 440.646 -1.15149 -1.48735 0
M  V30 4322 O 440.004 -0.149952 -1.80679 0
M  V30 4323 C 440.052 -3.51431 -0.808009 0
M  V30 4324 O 439.156 -3.65225 -1.91531 0
M  V30 4325 H 438.497 -0.66006 -0.0722276 0
M  V30 4326 H 441.027 -2.00481 0.408498 0
M  V30 4327 H 441.037 -3.92781 -1.10395 0
M  V30 4328 H 439.712 -4.15892 0.0249865 0
M  V30 4329 H 438.289 -3.35778 -1.62196 0
M  V30 4330 N 440.474 -0.00167713 -1.576 0
M  V30 4331 C 441.699 0.69739 -1.95323 0
M  V30 4332 C 442.124 1.6642 -0.876706 0
M  V30 4333 O 441.482 1.80548 0.165007 0
M  V30 4334 C 441.53 1.40403 -3.32144 0
M  V30 4335 O 440.634 2.5185 -3.26566 0
M  V30 4336 H 439.975 0.185373 -0.637599 0
M  V30 4337 H 442.505 -0.0553665 -2.04525 0
M  V30 4338 H 442.515 1.76707 -3.67748 0
M  V30 4339 H 441.19 0.695167 -4.10049 0
M  V30 4340 H 439.767 2.17861 -3.0264 0
M  V30 4341 N 441.952 1.55251 0.271103 0
M  V30 4342 C 443.18 1.79974 1.02064 0
M  V30 4343 C 443.595 0.574003 1.79863 0
M  V30 4344 O 442.952 -0.456962 1.76686 0
M  V30 4345 C 443.003 3.02603 1.97772 0
M  V30 4346 O 442.724 4.20443 1.23124 0
M  V30 4347 C 444.225 3.39944 2.84522 0
M  V30 4348 H 441.445 0.599489 0.301419 0
M  V30 4349 H 443.989 2.02268 0.301313 0
M  V30 4350 H 442.144 2.8243 2.65165 0
M  V30 4351 H 442.558 4.89783 1.87651 0
M  V30 4352 H 444.032 4.28915 3.47471 0
M  V30 4353 H 444.509 2.59432 3.54389 0
M  V30 4354 H 445.115 3.62383 2.22618 0
M  V30 4355 N 443.43 -0.535701 1.48216 0
M  V30 4356 C 444.378 -1.66179 1.62749 0
M  V30 4357 C 445.372 -1.62034 0.49409 0
M  V30 4358 O 446.578 -1.6696 0.672624 0
M  V30 4359 H 442.953 -0.550244 0.512578 0
M  V30 4360 H 444.924 -1.51063 2.57337 0
M  V30 4361 C 443.673 -3.04471 1.67907 0
M  V30 4362 H 442.996 -3.08351 2.54479 0
M  V30 4363 H 444.436 -3.82894 1.82121 0
M  V30 4364 C 442.895 -3.34314 0.416596 0
M  V30 4365 O 443.425 -3.98905 -0.473014 0
M  V30 4366 N 441.631 -2.89149 0.290038 0
M  V30 4367 H 441.178 -2.36764 1.01493 0
M  V30 4368 H 441.136 -3.09486 -0.55367 0
M  V30 4369 N 444.908 -1.36708 -0.784132 0
M  V30 4370 C 446.319 -1.27947 -1.35965 0
M  V30 4371 C 446.67 0.0784013 -1.96043 0
M  V30 4372 O 445.795 0.979989 -1.92938 0
M  V30 4373 C 446.39 -2.31689 -2.47195 0
M  V30 4374 C 444.949 -2.26601 -3.00548 0
M  V30 4375 C 444.096 -2.16184 -1.73666 0
M  V30 4376 H 447.047 -1.4751 -0.585358 0
M  V30 4377 H 447.068 -1.95638 -3.26352 0
M  V30 4378 H 446.58 -3.30506 -2.03439 0
M  V30 4379 H 444.681 -1.31268 -3.48711 0
M  V30 4380 H 444.794 -3.19508 -3.57004 0
M  V30 4381 H 443.158 -1.62524 -1.96107 0
M  V30 4382 H 443.941 -3.16896 -1.32031 0
M  V30 4383 N 446.386 1.0089 -1.21074 0
M  V30 4384 C 447.614 1.78191 -1.05145 0
M  V30 4385 C 448.029 1.84537 0.398952 0
M  V30 4386 O 447.386 1.30393 1.27687 0
M  V30 4387 C 447.437 3.22288 -1.63746 0
M  V30 4388 O 447.158 3.16315 -3.03111 0
M  V30 4389 C 448.659 4.16106 -1.52875 0
M  V30 4390 H 445.879 0.560129 -0.369454 0
M  V30 4391 H 448.423 1.26945 -1.60328 0
M  V30 4392 H 446.578 3.70655 -1.12664 0
M  V30 4393 H 446.992 4.06817 -3.31059 0
M  V30 4394 H 448.466 5.15026 -1.98626 0
M  V30 4395 H 448.943 4.36541 -0.482521 0
M  V30 4396 H 449.549 3.73625 -2.03185 0
M  V30 4397 N 447.864 1.01787 1.20321 0
M  V30 4398 C 449.28 0.732951 1.41774 0
M  V30 4399 C 449.48 -0.686883 1.89431 0
M  V30 4400 O 448.536 -1.45446 2.06402 0
M  V30 4401 C 449.849 1.75973 2.43832 0
M  V30 4402 C 451.397 1.77802 2.57596 0
M  V30 4403 C 451.872 2.7941 3.62897 0
M  V30 4404 N 453.363 2.78157 3.70382 0
M  V30 4405 C 454.098 3.53434 4.51521 0
M  V30 4406 N 453.594 4.38392 5.36455 0
M  V30 4407 N 455.387 3.42026 4.46066 0
M  V30 4408 H 447.538 1.93447 0.877035 0
M  V30 4409 H 449.801 0.835712 0.447536 0
M  V30 4410 H 449.507 2.77699 2.15815 0
M  V30 4411 H 449.381 1.57292 3.4284 0
M  V30 4412 H 451.768 0.767602 2.84942 0
M  V30 4413 H 451.849 2.00557 1.58779 0
M  V30 4414 H 451.493 3.80616 3.36295 0
M  V30 4415 H 451.423 2.53916 4.61339 0
M  V30 4416 H 453.914 2.16531 3.09714 0
M  V30 4417 H 454.227 4.92596 5.95457 0
M  V30 4418 H 452.572 4.4247 5.35953 0
M  V30 4419 H 455.763 2.75075 3.78749 0
M  V30 4420 H 455.936 4.00946 5.09064 0
M  V30 4421 N 449.342 -1.36122 0.79427 0
M  V30 4422 C 450.753 -1.81646 0.431446 0
M  V30 4423 C 451.104 -1.66043 -1.04518 0
M  V30 4424 O 450.229 -1.1841 -1.8113 0
M  V30 4425 C 450.824 -3.29785 0.776341 0
M  V30 4426 C 449.383 -3.73501 0.466282 0
M  V30 4427 C 448.53 -2.58313 1.00844 0
M  V30 4428 H 451.481 -1.24274 0.986995 0
M  V30 4429 H 451.502 -3.80437 0.0692413 0
M  V30 4430 H 451.014 -3.4111 1.8511 0
M  V30 4431 H 449.115 -3.67733 -0.600245 0
M  V30 4432 H 449.228 -4.68754 0.990288 0
M  V30 4433 H 447.592 -2.5102 0.431406 0
M  V30 4434 H 448.375 -2.72421 2.08906 0
M  V30 4435 N 450.82 -0.546701 -1.47814 0
M  V30 4436 C 452.067 -0.0187407 -2.02491 0
M  V30 4437 C 452.395 1.32685 -1.42215 0
M  V30 4438 O 451.65 1.87413 -0.563454 0
M  V30 4439 C 451.949 0.134869 -3.57145 0
M  V30 4440 C 451.615 -1.13849 -4.3629 0
M  V30 4441 C 450.277 -1.48743 -4.57634 0
M  V30 4442 C 452.629 -1.98277 -4.82012 0
M  V30 4443 C 449.957 -2.67932 -5.21948 0
M  V30 4444 C 452.309 -3.16659 -5.4764 0
M  V30 4445 C 450.973 -3.51879 -5.67219 0
M  V30 4446 H 450.243 -0.0068577 -0.740968 0
M  V30 4447 H 452.89 -0.716097 -1.77607 0
M  V30 4448 H 451.195 0.915118 -3.80963 0
M  V30 4449 H 452.892 0.558556 -3.97091 0
M  V30 4450 H 449.482 -0.856767 -4.19949 0
M  V30 4451 H 453.666 -1.72628 -4.6531 0
M  V30 4452 H 448.922 -2.95401 -5.35302 0
M  V30 4453 H 453.096 -3.82374 -5.82033 0
M  V30 4454 H 450.723 -4.44331 -6.16825 0
M  V30 4455 N 452.299 1.55045 -0.282633 0
M  V30 4456 C 453.527 2.04168 0.33512 0
M  V30 4457 C 453.942 1.16071 1.48906 0
M  V30 4458 O 453.299 0.182391 1.81586 0
M  V30 4459 C 453.35 3.52332 0.808957 0
M  V30 4460 O 453.071 4.37078 -0.299038 0
M  V30 4461 C 454.572 4.17375 1.49375 0
M  V30 4462 H 451.792 0.666744 0.0754543 0
M  V30 4463 H 454.336 2.00205 -0.416918 0
M  V30 4464 H 452.491 3.56715 1.51106 0
M  V30 4465 H 452.905 5.24458 0.0665514 0
M  V30 4466 H 454.379 5.22627 1.77664 0
M  V30 4467 H 454.856 3.65999 2.42778 0
M  V30 4468 H 455.462 4.17016 0.835305 0
M  V30 4469 N 453.777 0.010035 1.57597 0
M  V30 4470 C 455.023 -0.673697 1.91283 0
M  V30 4471 C 455.356 -1.72863 0.884979 0
M  V30 4472 O 454.631 -1.94268 -0.0949487 0
M  V30 4473 C 454.914 -1.30766 3.35518 0
M  V30 4474 C 454.767 -0.263578 4.49027 0
M  V30 4475 C 456.086 -2.23105 3.79358 0
M  V30 4476 H 453.205 -0.243439 0.695634 0
M  V30 4477 H 455.847 0.0633864 1.89894 0
M  V30 4478 H 453.997 -1.93588 3.36832 0
M  V30 4479 H 455.669 0.365738 4.59848 0
M  V30 4480 H 453.912 0.413077 4.31829 0
M  V30 4481 H 454.583 -0.746398 5.4693 0
M  V30 4482 H 457.059 -1.70289 3.79659 0
M  V30 4483 H 455.935 -2.64424 4.81011 0
M  V30 4484 H 456.196 -3.11433 3.13787 0
M  V30 4485 N 455.255 -1.55392 -0.262866 0
M  V30 4486 C 456.203 -1.8977 -1.345 0
M  V30 4487 C 457.197 -0.775063 -1.50629 0
M  V30 4488 O 458.403 -0.959519 -1.52293 0
M  V30 4489 H 454.778 -0.602467 -0.450041 0
M  V30 4490 H 456.749 -2.80147 -1.02762 0
M  V30 4491 C 455.498 -2.19501 -2.69657 0
M  V30 4492 H 454.821 -3.05378 -2.5804 0
M  V30 4493 H 456.261 -2.47469 -3.44289 0
M  V30 4494 C 454.72 -1.00597 -3.21531 0
M  V30 4495 O 455.25 -0.245768 -4.00947 0
M  V30 4496 N 453.456 -0.800911 -2.79345 0
M  V30 4497 H 453.003 -1.42079 -2.14875 0
M  V30 4498 H 452.961 -0.00697996 -3.14399 0
M  V30 4499 N 456.733 0.527833 -1.48498 0
M  V30 4500 C 457.961 1.30823 -1.6029 0
M  V30 4501 C 458.376 1.86945 -0.263974 0
M  V30 4502 O 457.733 1.6651 0.747034 0
M  V30 4503 C 457.784 2.45756 -2.65116 0
M  V30 4504 O 457.505 1.91946 -3.93813 0
M  V30 4505 C 459.006 3.37543 -2.87367 0
M  V30 4506 H 456.226 0.397763 -0.540394 0
M  V30 4507 H 458.77 0.636529 -1.94341 0
M  V30 4508 H 456.925 3.08806 -2.33917 0
M  V30 4509 H 457.339 2.67195 -4.51339 0
M  V30 4510 H 458.813 4.14532 -3.6451 0
M  V30 4511 H 459.29 3.92905 -1.9627 0
M  V30 4512 H 459.896 2.80283 -3.19878 0
M  V30 4513 N 458.211 1.37122 0.776871 0
M  V30 4514 C 459.46 1.31373 1.53049 0
M  V30 4515 C 459.773 -0.101016 1.95339 0
M  V30 4516 O 460.979 -0.280953 2.70042 0
M  V30 4517 C 459.435 2.30567 2.76346 0
M  V30 4518 C 459.043 3.77543 2.41175 0
M  V30 4519 C 460.787 2.33818 3.54301 0
M  V30 4520 C 458.694 4.68481 3.60943 0
M  V30 4521 H 457.624 0.488234 0.574581 0
M  V30 4522 H 460.275 1.62554 0.851372 0
M  V30 4523 H 458.657 1.92396 3.46121 0
M  V30 4524 H 459.831 4.24521 1.79216 0
M  V30 4525 H 458.146 3.77187 1.76405 0
M  V30 4526 H 460.743 2.98965 4.4331 0
M  V30 4527 H 461.086 1.3503 3.93793 0
M  V30 4528 H 461.619 2.7067 2.91518 0
M  V30 4529 H 458.358 5.68378 3.26537 0
M  V30 4530 H 457.878 4.2621 4.22025 0
M  V30 4531 H 459.557 4.85366 4.27819 0
M  V30 4532 N 459.689 -1.00246 1.21608 0
M  V30 4533 C 460.966 -1.71336 0.943568 0
M  V30 4534 C 461.346 -2.03972 -0.543943 0
M  V30 4535 O 460.694 -1.71545 -1.50946 0
M  V30 4536 C 460.904 -2.97094 1.83128 0
M  V30 4537 C 462.252 -3.70071 2.08165 0
M  V30 4538 O 463.276 -3.07081 1.80498 0
M  V30 4539 O 462.135 -4.83376 2.54971 0
M  V30 4540 H 459.229 -0.747386 0.354039 0
M  V30 4541 H 461.775 -1.05967 1.32549 0
M  V30 4542 H 460.547 -2.69407 2.83788 0
M  V30 4543 H 460.17 -3.70204 1.45034 0
M  V30 4544 N 461.167 -1.02423 -1.1978 0
M  V30 4545 C 462.077 -0.610919 -2.26506 0
M  V30 4546 C 463.093 0.355152 -1.70337 0
M  V30 4547 O 464.269 0.214195 -2.00258 0
M  V30 4548 C 461.334 0.0365921 -3.46681 0
M  V30 4549 C 460.395 -0.976389 -4.18049 0
M  V30 4550 C 459.628 -0.359683 -5.32487 0
M  V30 4551 O 459.851 0.838601 -5.64202 0
M  V30 4552 O 458.785 -1.08022 -5.92127 0
M  V30 4553 H 462.611 -1.49965 -2.64091 0
M  V30 4554 H 460.196 -0.794156 -1.26545 0
M  V30 4555 H 462.078 0.39786 -4.19518 0
M  V30 4556 H 460.753 0.899398 -3.10954 0
M  V30 4557 H 459.66 -1.38916 -3.47352 0
M  V30 4558 H 460.993 -1.80941 -4.57735 0
M  V30 4559 N 462.645 1.35699 -0.801477 0
M  V30 4560 C 463.595 2.2728 -0.181073 0
M  V30 4561 C 464.579 1.47533 0.642098 0
M  V30 4562 O 465.771 1.69785 0.500193 0
M  V30 4563 C 462.9 3.36626 0.673612 0
M  V30 4564 C 461.986 4.23802 -0.159008 0
M  V30 4565 N 462.377 4.90879 -1.2195 0
M  V30 4566 C 460.675 4.45959 0.0602005 0
M  V30 4567 C 461.376 5.5546 -1.72738 0
M  V30 4568 N 460.352 5.33663 -1.03465 0
M  V30 4569 H 464.154 2.76632 -0.992582 0
M  V30 4570 H 461.668 1.49166 -0.642127 0
M  V30 4571 H 463.665 4.01179 1.13408 0
M  V30 4572 H 462.325 2.88828 1.48353 0
M  V30 4573 H 463.336 4.92497 -1.60209 0
M  V30 4574 H 460.013 4.08969 0.839664 0
M  V30 4575 H 461.403 6.18991 -2.61342 0
M  V30 4576 N 464.123 0.554532 1.47522 0
M  V30 4577 C 465.053 -0.182974 2.32782 0
M  V30 4578 C 466.034 -0.911377 1.43624 0
M  V30 4579 O 467.219 -0.892366 1.72483 0
M  V30 4580 C 464.349 -1.21513 3.25349 0
M  V30 4581 C 463.303 -0.603355 4.23726 0
M  V30 4582 C 462.629 -1.73995 5.05598 0
M  V30 4583 C 463.929 0.441121 5.20434 0
M  V30 4584 H 465.623 0.52882 2.94693 0
M  V30 4585 H 463.169 0.255759 1.41711 0
M  V30 4586 H 465.122 -1.73922 3.83835 0
M  V30 4587 H 463.846 -1.95683 2.61487 0
M  V30 4588 H 462.505 -0.10059 3.66462 0
M  V30 4589 H 462.153 -2.47063 4.38143 0
M  V30 4590 H 461.853 -1.3364 5.72201 0
M  V30 4591 H 463.377 -2.26735 5.66942 0
M  V30 4592 H 464.791 0.00319931 5.733 0
M  V30 4593 H 463.188 0.763402 5.95224 0
M  V30 4594 H 464.258 1.33799 4.66075 0
M  V30 4595 N 465.601 -1.54893 0.290851 0
M  V30 4596 C 466.878 -1.91991 -0.373989 0
M  V30 4597 C 467.258 -1.21694 -1.72493 0
M  V30 4598 O 466.606 -0.34917 -2.25816 0
M  V30 4599 C 466.816 -3.45419 -0.498703 0
M  V30 4600 C 468.164 -4.1748 -0.774298 0
M  V30 4601 O 469.188 -3.51398 -0.582908 0
M  V30 4602 O 468.047 -5.3445 -1.14129 0
M  V30 4603 H 465.141 -0.800593 -0.207315 0
M  V30 4604 H 467.687 -1.66297 0.338164 0
M  V30 4605 H 466.459 -3.88688 0.451392 0
M  V30 4606 H 466.082 -3.77117 -1.25972 0
M  V30 4607 N 467.08 -0.0183926 -1.57589 0
M  V30 4608 C 468.013 1.00148 -2.0505 0
M  V30 4609 C 468.991 1.32387 -0.944058 0
M  V30 4610 O 470.175 1.44237 -1.21358 0
M  V30 4611 C 467.302 2.32435 -2.46357 0
M  V30 4612 C 466.348 2.15731 -3.67916 0
M  V30 4613 S 467.181 1.46613 -5.15039 0
M  V30 4614 C 468.337 2.80293 -5.59631 0
M  V30 4615 H 468.57 0.597429 -2.91235 0
M  V30 4616 H 466.103 0.193002 -1.53189 0
M  V30 4617 H 468.061 3.0849 -2.70822 0
M  V30 4618 H 466.722 2.69975 -1.60537 0
M  V30 4619 H 465.915 3.13502 -3.9463 0
M  V30 4620 H 465.517 1.4782 -3.43548 0
M  V30 4621 H 467.809 3.76557 -5.63215 0
M  V30 4622 H 468.752 2.58256 -6.59325 0
M  V30 4623 H 469.16 2.85047 -4.87246 0
M  V30 4624 N 468.558 1.5553 0.254621 0
M  V30 4625 C 469.488 1.9268 1.31897 0
M  V30 4626 C 470.469 0.790797 1.506 0
M  V30 4627 O 471.654 1.05045 1.63337 0
M  V30 4628 C 468.784 2.21477 2.67517 0
M  V30 4629 C 467.738 3.37256 2.63519 0
M  V30 4630 C 467.064 3.51576 4.02862 0
M  V30 4631 C 468.364 4.73157 2.21179 0
M  V30 4632 H 470.058 2.81832 1.01051 0
M  V30 4633 H 467.604 1.35599 0.484662 0
M  V30 4634 H 469.557 2.46055 3.42104 0
M  V30 4635 H 468.281 1.29144 2.99982 0
M  V30 4636 H 466.94 3.12675 1.9139 0
M  V30 4637 H 466.588 2.56676 4.32581 0
M  V30 4638 H 466.288 4.2943 4.01078 0
M  V30 4639 H 467.812 3.78467 4.79161 0
M  V30 4640 H 469.226 4.97158 2.85494 0
M  V30 4641 H 467.623 5.54058 2.30521 0
M  V30 4642 H 468.693 4.70739 1.16332 0
M  V30 4643 N 470.036 -0.519951 1.48776 0
M  V30 4644 C 470.969 -1.64053 1.58625 0
M  V30 4645 C 471.947 -1.5664 0.43618 0
M  V30 4646 O 473.131 -1.76969 0.649159 0
M  V30 4647 C 470.258 -3.02497 1.52359 0
M  V30 4648 C 469.304 -3.28235 2.72331 0
M  V30 4649 S 470.137 -3.13414 4.34203 0
M  V30 4650 C 471.293 -4.54287 4.30551 0
M  V30 4651 H 471.526 -1.5545 2.53422 0
M  V30 4652 H 469.059 -0.703681 1.37433 0
M  V30 4653 H 471.017 -3.82336 1.4943 0
M  V30 4654 H 469.678 -3.08531 0.588824 0
M  V30 4655 H 468.871 -4.29256 2.64113 0
M  V30 4656 H 468.473 -2.56085 2.72574 0
M  V30 4657 H 470.765 -5.46006 4.01103 0
M  V30 4658 H 471.708 -4.67558 5.31785 0
M  V30 4659 H 472.116 -4.34079 3.60881 0
M  V30 4660 N 471.514 -1.37532 -0.769588 0
M  V30 4661 C 472.76 -1.33057 -1.53048 0
M  V30 4662 C 473.093 0.0841865 -1.94017 0
M  V30 4663 O 472.368 1.04198 -1.64235 0
M  V30 4664 C 472.651 -2.27166 -2.79406 0
M  V30 4665 C 472.504 -3.77429 -2.44677 0
M  V30 4666 C 473.823 -2.19683 -3.81349 0
M  V30 4667 H 470.942 -0.484655 -0.555228 0
M  V30 4668 H 473.584 -1.68251 -0.882702 0
M  V30 4669 H 471.734 -1.97283 -3.34682 0
M  V30 4670 H 473.406 -4.17918 -1.953 0
M  V30 4671 H 471.649 -3.95892 -1.77346 0
M  V30 4672 H 472.32 -4.38716 -3.35011 0
M  V30 4673 H 474.796 -2.46029 -3.35573 0
M  V30 4674 H 473.672 -2.87668 -4.67481 0
M  V30 4675 H 473.933 -1.19045 -4.25771 0
M  V30 4676 N 472.992 0.995999 -1.22138 0
M  V30 4677 C 474.232 1.75032 -1.05561 0
M  V30 4678 C 474.596 1.87729 0.402698 0
M  V30 4679 O 475.797 2.59813 0.689234 0
M  V30 4680 C 474.068 3.11973 -1.74379 0
M  V30 4681 S 475.627 4.03182 -1.73175 0
M  V30 4682 H 472.445 0.602137 -0.37809 0
M  V30 4683 H 475.047 1.19107 -1.55028 0
M  V30 4684 H 473.751 3.00371 -2.79652 0
M  V30 4685 H 473.282 3.7297 -1.25128 0
M  V30 4686 H 475.297 4.90043 -0.77923 0
M  V30 4687 N 474.47 1.03057 1.19235 0
M  V30 4688 C 475.42 0.583386 2.2041 0
M  V30 4689 C 476.404 -0.368776 1.56617 0
M  V30 4690 O 477.596 -0.189471 1.75983 0
M  V30 4691 C 474.725 -0.0626534 3.43243 0
M  V30 4692 C 473.811 0.91205 4.14177 0
M  V30 4693 N 474.202 2.07514 4.61272 0
M  V30 4694 C 472.5 0.735859 4.39888 0
M  V30 4695 C 473.201 2.69003 5.15764 0
M  V30 4696 N 472.177 1.96954 5.06666 0
M  V30 4697 H 475.979 1.46988 2.54503 0
M  V30 4698 H 473.493 0.897785 1.35328 0
M  V30 4699 H 475.49 -0.400653 4.1497 0
M  V30 4700 H 474.15 -0.944813 3.1065 0
M  V30 4701 H 475.161 2.45448 4.56043 0
M  V30 4702 H 471.838 -0.0970656 4.17387 0
M  V30 4703 H 473.228 3.67514 5.6248 0
M  V30 4704 N 475.948 -1.35272 0.808662 0
M  V30 4705 C 476.898 -2.27181 0.193124 0
M  V30 4706 C 477.882 -1.47871 -0.634265 0
M  V30 4707 O 479.074 -1.70048 -0.491182 0
M  V30 4708 C 476.203 -3.36979 -0.655751 0
M  V30 4709 C 475.289 -4.23712 0.181481 0
M  V30 4710 N 475.68 -4.90225 1.24551 0
M  V30 4711 C 473.978 -4.45985 -0.0365493 0
M  V30 4712 C 474.679 -5.54537 1.75682 0
M  V30 4713 N 473.655 -5.33107 1.06294 0
M  V30 4714 H 477.457 -2.76101 1.00724 0
M  V30 4715 H 474.971 -1.48823 0.650029 0
M  V30 4716 H 476.968 -4.01774 -1.11279 0
M  V30 4717 H 475.628 -2.89611 -1.46819 0
M  V30 4718 H 476.639 -4.91641 1.62818 0
M  V30 4719 H 473.316 -4.09409 -0.817964 0
M  V30 4720 H 474.706 -6.17597 2.64621 0
M  V30 4721 N 477.426 -0.562348 -1.47226 0
M  V30 4722 C 478.356 0.170627 -2.32876 0
M  V30 4723 C 479.337 0.903748 -1.44106 0
M  V30 4724 O 480.522 0.883206 -1.72954 0
M  V30 4725 C 477.652 1.19786 -3.25989 0
M  V30 4726 C 476.606 0.580875 -4.2404 0
M  V30 4727 C 475.932 1.71311 -5.06514 0
M  V30 4728 C 477.232 -0.468714 -5.20193 0
M  V30 4729 H 478.926 -0.544441 -2.94408 0
M  V30 4730 H 476.472 -0.263271 -1.41573 0
M  V30 4731 H 478.425 1.71884 -3.84752 0
M  V30 4732 H 477.149 1.94294 -2.62521 0
M  V30 4733 H 475.808 0.0811538 -3.6651 0
M  V30 4734 H 475.456 2.44736 -4.39447 0
M  V30 4735 H 475.156 1.30604 -5.72902 0
M  V30 4736 H 476.68 2.23725 -5.68137 0
M  V30 4737 H 478.094 -0.0336028 -5.7329 0
M  V30 4738 H 476.491 -0.794957 -5.94811 0
M  V30 4739 H 477.561 -1.36269 -4.65359 0
M  V30 4740 N 478.904 1.54736 -0.299062 0
M  V30 4741 C 479.851 2.23448 0.577899 0
M  V30 4742 C 480.821 1.21637 1.13109 0
M  V30 4743 O 482.006 1.50252 1.17597 0
M  V30 4744 C 479.146 2.9774 1.74484 0
M  V30 4745 C 478.259 4.1432 1.22323 0
M  V30 4746 C 477.394 4.76199 2.35388 0
M  V30 4747 C 476.433 5.84927 1.80351 0
M  V30 4748 N 475.57 6.4077 2.86982 0
M  V30 4749 H 480.41 2.97996 -0.0146545 0
M  V30 4750 H 477.947 1.47088 -0.0190013 0
M  V30 4751 H 479.905 3.39045 2.43114 0
M  V30 4752 H 478.535 2.25572 2.30905 0
M  V30 4753 H 477.587 3.7797 0.429249 0
M  V30 4754 H 478.899 4.92659 0.780309 0
M  V30 4755 H 478.053 5.20346 3.11969 0
M  V30 4756 H 476.792 3.97188 2.83006 0
M  V30 4757 H 475.797 5.40207 1.02259 0
M  V30 4758 H 477.022 6.65821 1.3364 0
M  V30 4759 H 474.968 5.64643 3.33938 0
M  V30 4760 H 474.885 7.1445 2.4718 0
M  V30 4761 H 476.153 6.89574 3.63466 0
M  V30 4762 N 480.382 0.0267497 1.57577 0
M  V30 4763 C 481.314 -0.984594 2.06974 0
M  V30 4764 C 482.327 -1.29032 0.992705 0
M  V30 4765 O 483.516 -1.25539 1.26895 0
M  V30 4766 C 480.616 -2.31262 2.47732 0
M  V30 4767 C 479.789 -2.1924 3.78487 0
M  V30 4768 C 478.848 -3.34956 4.05821 0
M  V30 4769 O 477.874 -3.11948 4.76106 0
M  V30 4770 N 479.076 -4.58672 3.55809 0
M  V30 4771 H 481.841 -0.563143 2.94362 0
M  V30 4772 H 479.402 -0.160061 1.61107 0
M  V30 4773 H 481.394 -3.07496 2.63112 0
M  V30 4774 H 479.964 -2.65056 1.65723 0
M  V30 4775 H 479.184 -1.27747 3.72927 0
M  V30 4776 H 480.472 -2.08409 4.64158 0
M  V30 4777 H 479.87 -4.8026 2.98942 0
M  V30 4778 H 478.427 -5.32083 3.76472 0
M  V30 4779 N 481.861 -1.55662 -0.24637 0
M  V30 4780 C 482.809 -1.91186 -1.3248 0
M  V30 4781 C 483.803 -0.790996 -1.49799 0
M  V30 4782 O 485.009 -0.975617 -1.51267 0
M  V30 4783 H 481.384 -0.607207 -0.443626 0
M  V30 4784 H 483.355 -2.81221 -0.997853 0
M  V30 4785 C 482.104 -2.22349 -2.67313 0
M  V30 4786 H 481.427 -3.08097 -2.54786 0
M  V30 4787 H 482.867 -2.51107 -3.41645 0
M  V30 4788 C 481.326 -1.04001 -3.20446 0
M  V30 4789 O 481.856 -0.28828 -4.00664 0
M  V30 4790 N 480.062 -0.830494 -2.7848 0
M  V30 4791 H 479.609 -1.4435 -2.13356 0
M  V30 4792 H 479.567 -0.0403258 -3.14374 0
M  V30 4793 N 483.339 0.512053 -1.4905 0
M  V30 4794 C 484.588 1.26343 -1.57227 0
M  V30 4795 C 484.901 1.93876 -0.259155 0
M  V30 4796 O 486.107 2.70612 -0.219358 0
M  V30 4797 C 484.563 2.29343 -2.77362 0
M  V30 4798 C 484.171 1.67799 -4.15388 0
M  V30 4799 C 485.915 3.05378 -2.94864 0
M  V30 4800 C 483.822 2.68845 -5.2676 0
M  V30 4801 H 482.752 0.475231 -0.585382 0
M  V30 4802 H 485.403 0.53862 -1.75417 0
M  V30 4803 H 483.785 3.04938 -2.52643 0
M  V30 4804 H 484.959 0.982715 -4.50199 0
M  V30 4805 H 483.274 1.04194 -4.03153 0
M  V30 4806 H 485.871 3.80921 -3.75238 0
M  V30 4807 H 486.214 3.62327 -2.05 0
M  V30 4808 H 486.747 2.36898 -3.19569 0
M  V30 4809 H 483.486 2.16692 -6.18647 0
M  V30 4810 H 483.006 3.36647 -4.96416 0
M  V30 4811 H 484.685 3.31487 -5.5563 0
M  V30 4812 N 484.817 1.37938 0.762283 0
M  V30 4813 C 486.228 1.30094 1.33912 0
M  V30 4814 C 486.579 -0.0472026 1.96143 0
M  V30 4815 O 485.704 -0.94917 1.94473 0
M  V30 4816 C 486.299 2.35592 2.43478 0
M  V30 4817 C 484.858 2.31353 2.96905 0
M  V30 4818 C 484.005 2.18919 1.70205 0
M  V30 4819 H 486.956 1.48423 0.561816 0
M  V30 4820 H 486.977 2.00806 3.23199 0
M  V30 4821 H 486.489 3.33701 1.98155 0
M  V30 4822 H 484.59 1.36799 3.46579 0
M  V30 4823 H 484.703 3.25147 3.51875 0
M  V30 4824 H 483.067 1.65624 1.93496 0
M  V30 4825 H 483.85 3.18956 1.26973 0
M  V30 4826 N 486.295 -0.989507 1.22664 0
M  V30 4827 C 487.205 -2.11449 1.01619 0
M  V30 4828 C 488.221 -1.73962 -0.036545 0
M  V30 4829 O 489.397 -2.00788 0.156924 0
M  V30 4830 C 486.462 -3.41465 0.600204 0
M  V30 4831 C 485.523 -3.93033 1.72695 0
M  V30 4832 C 484.756 -5.16844 1.33071 0
M  V30 4833 O 484.979 -5.7001 0.210975 0
M  V30 4834 O 483.913 -5.6225 2.14845 0
M  V30 4835 H 487.739 -2.32088 1.9588 0
M  V30 4836 H 485.324 -1.09823 1.01289 0
M  V30 4837 H 487.206 -4.19695 0.37873 0
M  V30 4838 H 485.881 -3.22178 -0.313511 0
M  V30 4839 H 484.788 -3.15961 2.00298 0
M  V30 4840 H 486.121 -4.16758 2.61865 0
M  V30 4841 N 487.773 -1.03688 -1.18687 0
M  V30 4842 C 489.05 -0.652397 -1.84399 0
M  V30 4843 C 489.43 0.868386 -1.92412 0
M  V30 4844 O 488.778 1.76832 -1.44716 0
M  V30 4845 C 488.988 -1.3238 -3.22919 0
M  V30 4846 C 490.336 -1.45216 -3.98996 0
M  V30 4847 O 491.36 -1.2816 -3.32345 0
M  V30 4848 O 490.219 -1.72975 -5.18403 0
M  V30 4849 H 487.313 -0.227793 -0.795009 0
M  V30 4850 H 489.859 -1.13553 -1.2611 0
M  V30 4851 H 488.631 -2.36202 -3.11968 0
M  V30 4852 H 488.254 -0.829039 -3.88861 0
M  V30 4853 N 489.251 1.34841 -0.815825 0
M  V30 4854 C 490.497 1.98793 -0.401129 0
M  V30 4855 C 490.83 1.64548 1.03139 0
M  V30 4856 O 490.105 0.913487 1.71714 0
M  V30 4857 C 490.388 3.55143 -0.595409 0
M  V30 4858 C 490.241 3.99155 -2.07352 0
M  V30 4859 C 491.56 4.40092 -0.0268823 0
M  V30 4860 H 488.679 0.722146 -0.14722 0
M  V30 4861 H 491.321 1.59847 -1.02707 0
M  V30 4862 H 489.471 3.8845 -0.0625779 0
M  V30 4863 H 491.143 3.76216 -2.66945 0
M  V30 4864 H 489.386 3.49726 -2.56659 0
M  V30 4865 H 490.057 5.07971 -2.1603 0
M  V30 4866 H 492.533 4.13298 -0.482042 0
M  V30 4867 H 491.409 5.48562 -0.19267 0
M  V30 4868 H 491.67 4.29016 1.06759 0
M  V30 4869 N 490.729 0.570148 1.46925 0
M  V30 4870 C 491.692 -0.159933 2.28641 0
M  V30 4871 C 492.692 -0.830638 1.37685 0
M  V30 4872 O 493.882 -0.684516 1.60187 0
M  V30 4873 C 491.014 -1.2354 3.17727 0
M  V30 4874 H 492.207 0.558035 2.94662 0
M  V30 4875 H 489.76 0.327603 1.52828 0
M  V30 4876 H 490.495 -1.98535 2.56426 0
M  V30 4877 H 490.28 -0.759125 3.84681 0
M  V30 4878 H 491.77 -1.74782 3.79264 0
M  V30 4879 N 492.207 -1.54576 0.307264 0
M  V30 4880 C 493.454 -2.00263 -0.300167 0
M  V30 4881 C 493.782 -1.19561 -1.53413 0
M  V30 4882 O 493.037 -0.261487 -1.93945 0
M  V30 4883 C 493.336 -3.50572 -0.695253 0
M  V30 4884 C 493.002 -4.48771 0.437679 0
M  V30 4885 C 491.664 -4.7534 0.748681 0
M  V30 4886 C 494.016 -5.0721 1.19949 0
M  V30 4887 C 491.344 -5.5761 1.8245 0
M  V30 4888 C 493.696 -5.90651 2.26527 0
M  V30 4889 C 492.36 -6.15528 2.58227 0
M  V30 4890 H 491.63 -0.732814 -0.109839 0
M  V30 4891 H 494.277 -1.86664 0.427661 0
M  V30 4892 H 492.582 -3.61814 -1.50326 0
M  V30 4893 H 494.279 -3.83352 -1.17653 0
M  V30 4894 H 490.869 -4.282 0.185187 0
M  V30 4895 H 495.053 -4.86679 0.972474 0
M  V30 4896 H 490.309 -5.75121 2.07476 0
M  V30 4897 H 494.483 -6.34957 2.86011 0
M  V30 4898 H 492.11 -6.79066 3.4172 0
M  V30 4899 N 493.685 -0.035106 -1.57561 0
M  V30 4900 C 494.648 0.929819 -2.09492 0
M  V30 4901 C 495.648 1.25026 -1.01119 0
M  V30 4902 O 496.838 1.18961 -1.27255 0
M  V30 4903 C 493.97 2.24457 -2.56577 0
M  V30 4904 H 495.163 0.479935 -2.96035 0
M  V30 4905 H 492.716 0.213033 -1.54841 0
M  V30 4906 H 493.451 2.74061 -1.73382 0
M  V30 4907 H 493.236 2.02508 -3.35757 0
M  V30 4908 H 494.726 2.93607 -2.96959 0
M  V30 4909 N 495.163 1.55791 0.238111 0
M  V30 4910 C 496.44 1.68798 0.98826 0
M  V30 4911 C 496.82 0.577562 2.03045 0
M  V30 4912 O 496.168 -0.41778 2.24648 0
M  V30 4913 C 496.378 3.09454 1.61367 0
M  V30 4914 C 497.726 3.68335 2.11221 0
M  V30 4915 O 498.75 3.1231 1.71292 0
M  V30 4916 O 497.609 4.6657 2.84561 0
M  V30 4917 H 494.703 0.686881 0.460568 0
M  V30 4918 H 497.249 1.68118 0.231202 0
M  V30 4919 H 496.021 3.81726 0.860295 0
M  V30 4920 H 495.644 3.14182 2.4367 0
M  V30 4921 N 496.642 -0.504142 1.49319 0
M  V30 4922 C 497.867 -1.28729 1.62615 0
M  V30 4923 C 498.292 -1.85752 0.296309 0
M  V30 4924 O 497.65 -1.65704 -0.735649 0
M  V30 4925 C 497.698 -2.39561 2.69524 0
M  V30 4926 O 496.802 -3.43324 2.28478 0
M  V30 4927 H 496.143 -0.380172 0.544395 0
M  V30 4928 H 498.673 -0.603872 1.95485 0
M  V30 4929 H 498.683 -2.8537 2.91595 0
M  V30 4930 H 497.358 -1.97423 3.66056 0
M  V30 4931 H 495.935 -3.03455 2.16725 0
M  V30 4932 N 498.12 -1.38341 -0.754957 0
M  V30 4933 C 499.536 -1.19508 -1.05783 0
M  V30 4934 C 499.736 -0.0428005 -2.01455 0
M  V30 4935 O 498.792 0.611861 -2.44975 0
M  V30 4936 C 500.105 -2.52091 -1.63923 0
M  V30 4937 C 501.653 -2.58762 -1.76101 0
M  V30 4938 C 502.128 -3.91517 -2.37652 0
M  V30 4939 N 503.619 -3.93049 -2.45085 0
M  V30 4940 C 504.354 -4.9253 -2.93602 0
M  V30 4941 N 503.85 -6.02408 -3.42165 0
M  V30 4942 N 505.643 -4.79921 -2.92629 0
M  V30 4943 H 497.794 -2.1206 -0.120056 0
M  V30 4944 H 500.057 -0.94089 -0.11589 0
M  V30 4945 H 499.763 -3.36858 -1.01093 0
M  V30 4946 H 499.637 -2.70388 -2.63003 0
M  V30 4947 H 502.024 -1.74391 -2.38058 0
M  V30 4948 H 502.105 -2.44333 -0.757294 0
M  V30 4949 H 501.749 -4.76309 -1.76329 0
M  V30 4950 H 501.679 -4.03256 -3.38662 0
M  V30 4951 H 504.17 -3.13685 -2.10736 0
M  V30 4952 H 504.483 -6.74248 -3.77637 0
M  V30 4953 H 502.828 -6.0603 -3.40225 0
M  V30 4954 H 506.019 -3.93194 -2.54001 0
M  V30 4955 H 506.192 -5.57601 -3.30128 0
M  V30 4956 N 499.598 0.982988 -1.23187 0
M  V30 4957 C 500.847 1.71817 -1.05649 0
M  V30 4958 C 501.16 1.91315 0.407176 0
M  V30 4959 O 502.366 2.62256 0.702436 0
M  V30 4960 C 500.822 3.09188 -1.84203 0
M  V30 4961 C 500.43 2.97586 -3.34882 0
M  V30 4962 C 502.174 3.86684 -1.75146 0
M  V30 4963 C 500.081 4.30173 -4.05839 0
M  V30 4964 H 499.011 0.644258 -0.391724 0
M  V30 4965 H 501.662 1.09659 -1.4713 0
M  V30 4966 H 500.044 3.72087 -1.35527 0
M  V30 4967 H 501.218 2.43793 -3.91026 0
M  V30 4968 H 499.533 2.33567 -3.44725 0
M  V30 4969 H 502.13 4.84836 -2.25473 0
M  V30 4970 H 502.473 4.10136 -0.713737 0
M  V30 4971 H 503.006 3.30482 -2.21419 0
M  V30 4972 H 499.745 4.11918 -5.09906 0
M  V30 4973 H 499.265 4.83841 -3.54482 0
M  V30 4974 H 500.944 4.98873 -4.11989 0
M  V30 4975 N 501.076 1.04316 1.18135 0
M  V30 4976 C 502.492 0.762858 1.40188 0
M  V30 4977 C 502.692 -0.646547 1.90846 0
M  V30 4978 O 501.748 -1.41036 2.0944 0
M  V30 4979 C 503.061 1.81106 2.40044 0
M  V30 4980 C 504.609 1.83226 2.53766 0
M  V30 4981 C 505.084 2.87044 3.56889 0
M  V30 4982 N 506.575 2.85951 3.64398 0
M  V30 4983 C 507.31 3.62932 4.43923 0
M  V30 4984 N 506.806 4.49672 5.27036 0
M  V30 4985 N 508.599 3.51411 4.38711 0
M  V30 4986 H 500.75 1.95264 0.835805 0
M  V30 4987 H 503.013 0.845017 0.429709 0
M  V30 4988 H 502.719 2.82214 2.09876 0
M  V30 4989 H 502.593 1.64529 3.39426 0
M  V30 4990 H 504.98 0.827869 2.8325 0
M  V30 4991 H 505.061 2.03879 1.54489 0
M  V30 4992 H 504.705 3.87663 3.28145 0
M  V30 4993 H 504.635 2.63645 4.5585 0
M  V30 4994 H 507.126 2.23051 3.05052 0
M  V30 4995 H 507.439 5.05116 5.84874 0
M  V30 4996 H 505.784 4.53738 5.26447 0
M  V30 4997 H 508.975 2.83047 3.72829 0
M  V30 4998 H 509.148 4.11654 5.00445 0
M  V30 4999 N 502.554 -1.34406 0.822964 0
M  V30 5000 C 503.965 -1.8069 0.469879 0
M  V30 5001 C 504.316 -1.68223 -1.00972 0
M  V30 5002 O 503.441 -1.22226 -1.78577 0
M  V30 5003 C 504.036 -3.28064 0.846118 0
M  V30 5004 C 502.595 -3.72428 0.545402 0
M  V30 5005 C 501.742 -2.56116 1.06301 0
M  V30 5006 H 504.693 -1.22153 1.01313 0
M  V30 5007 H 504.714 -3.80205 0.149922 0
M  V30 5008 H 504.226 -3.37107 1.92304 0
M  V30 5009 H 502.327 -3.68924 -0.522109 0
M  V30 5010 H 502.44 -4.66548 1.0895 0
M  V30 5011 H 500.804 -2.50048 0.484554 0
M  V30 5012 H 501.587 -2.67928 2.14638 0
M  V30 5013 N 504.032 -0.577932 -1.46621 0
M  V30 5014 C 504.942 0.160651 -2.34049 0
M  V30 5015 C 505.958 0.890911 -1.49462 0
M  V30 5016 O 507.134 0.855166 -1.82343 0
M  V30 5017 C 504.199 1.16447 -3.26559 0
M  V30 5018 C 503.26 0.4394 -4.27045 0
M  V30 5019 C 502.493 1.3954 -5.15135 0
M  V30 5020 O 502.716 2.63162 -5.06065 0
M  V30 5021 O 501.65 0.908585 -5.95003 0
M  V30 5022 H 505.476 -0.557057 -2.98547 0
M  V30 5023 H 503.061 -0.338369 -1.45518 0
M  V30 5024 H 504.943 1.7434 -3.83645 0
M  V30 5025 H 503.618 1.86373 -2.64663 0
M  V30 5026 H 502.525 -0.181247 -3.73661 0
M  V30 5027 H 503.858 -0.218799 -4.91713 0
M  V30 5028 N 505.51 1.54411 -0.315457 0
M  V30 5029 C 506.738 2.04833 0.291738 0
M  V30 5030 C 507.153 1.19203 1.46411 0
M  V30 5031 O 506.51 0.220867 1.81159 0
M  V30 5032 C 506.561 3.53969 0.73404 0
M  V30 5033 O 506.282 4.36346 -0.391682 0
M  V30 5034 C 507.783 4.2045 1.40489 0
M  V30 5035 H 505.003 0.668195 0.0612947 0
M  V30 5036 H 507.547 1.99276 -0.45929 0
M  V30 5037 H 505.702 3.5984 1.43506 0
M  V30 5038 H 506.116 5.24481 -0.0447088 0
M  V30 5039 H 507.59 5.26278 1.66539 0
M  V30 5040 H 508.067 3.71067 2.3496 0
M  V30 5041 H 508.673 4.18694 0.746662 0
M  V30 5042 N 506.988 0.0434614 1.5754 0
M  V30 5043 C 508.237 -0.631454 1.91561 0
M  V30 5044 C 508.55 -1.72457 0.92292 0
M  V30 5045 O 509.756 -2.45712 1.15489 0
M  V30 5046 C 508.212 -1.17447 3.40197 0
M  V30 5047 C 507.82 -0.113867 4.47855 0
M  V30 5048 C 509.564 -1.82507 3.83264 0
M  V30 5049 C 507.471 -0.669326 5.876 0
M  V30 5050 H 506.401 -0.239629 0.714908 0
M  V30 5051 H 509.052 0.111097 1.83163 0
M  V30 5052 H 507.434 -1.96909 3.43574 0
M  V30 5053 H 508.608 0.659348 4.56058 0
M  V30 5054 H 506.923 0.438821 4.14081 0
M  V30 5055 H 509.52 -2.25047 4.85034 0
M  V30 5056 H 509.863 -2.67365 3.19095 0
M  V30 5057 H 510.396 -1.09712 3.82372 0
M  V30 5058 H 507.135 0.141449 6.55347 0
M  V30 5059 H 506.655 -1.4107 5.82974 0
M  V30 5060 H 508.334 -1.15463 6.36614 0
M  V30 5061 N 508.466 -1.55915 -0.229846 0
M  V30 5062 C 509.429 -1.90914 -1.26824 0
M  V30 5063 C 510.429 -0.786999 -1.40225 0
M  V30 5064 O 511.619 -1.05484 -1.38632 0
M  V30 5065 C 508.751 -2.15264 -2.64337 0
M  V30 5066 H 509.944 -2.8378 -0.969998 0
M  V30 5067 H 507.497 -1.49069 -0.4699 0
M  V30 5068 H 508.232 -1.24923 -2.99274 0
M  V30 5069 H 508.017 -2.97005 -2.55989 0
M  V30 5070 H 509.507 -2.43467 -3.39284 0
M  V30 5071 N 509.944 0.496216 -1.49584 0
M  V30 5072 C 510.907 1.57952 -1.66084 0
M  V30 5073 C 511.907 1.51729 -0.53244 0
M  V30 5074 O 513.097 1.54796 -0.79899 0
M  V30 5075 C 510.229 2.97604 -1.66268 0
M  V30 5076 H 511.422 1.44649 -2.6271 0
M  V30 5077 H 508.975 0.7208 -1.38687 0
M  V30 5078 H 509.71 3.16378 -0.712432 0
M  V30 5079 H 509.495 3.03528 -2.4822 0
M  V30 5080 H 510.985 3.76301 -1.81073 0
M  V30 5081 N 511.423 1.38739 0.74761 0
M  V30 5082 C 512.333 1.38696 1.89211 0
M  V30 5083 C 513.349 0.283303 1.71678 0
M  V30 5084 O 514.525 0.522713 1.94498 0
M  V30 5085 C 511.59 1.21662 3.24653 0
M  V30 5086 C 510.651 2.41886 3.54669 0
M  V30 5087 C 509.884 2.25655 4.83648 0
M  V30 5088 O 510.107 1.25339 5.56459 0
M  V30 5089 O 509.041 3.14372 5.13277 0
M  V30 5090 H 512.867 2.35143 1.92202 0
M  V30 5091 H 510.452 1.19721 0.893708 0
M  V30 5092 H 512.334 1.14246 4.05618 0
M  V30 5093 H 511.009 0.283024 3.2246 0
M  V30 5094 H 509.916 2.54877 2.73841 0
M  V30 5095 H 511.249 3.33895 3.61628 0
M  V30 5096 N 512.901 -0.976442 1.23707 0
M  V30 5097 C 514.178 -1.69296 0.979699 0
M  V30 5098 C 514.558 -2.0508 -0.500555 0
M  V30 5099 O 513.906 -1.74708 -1.47273 0
M  V30 5100 C 514.116 -2.93143 1.89389 0
M  V30 5101 C 515.464 -3.65572 2.15968 0
M  V30 5102 O 516.488 -3.03184 1.86971 0
M  V30 5103 O 515.347 -4.77859 2.65167 0
M  V30 5104 H 512.441 -0.739708 0.369812 0
M  V30 5105 H 514.987 -1.03131 1.34767 0
M  V30 5106 H 513.759 -2.63327 2.89439 0
M  V30 5107 H 513.382 -3.67044 1.52854 0
M  V30 5108 N 514.379 -1.04941 -1.1758 0
M  V30 5109 C 515.628 -0.753124 -1.87112 0
M  V30 5110 C 515.941 0.722507 -1.81767 0
M  V30 5111 O 517.147 1.13265 -2.46746 0
M  V30 5112 C 515.603 -1.29695 -3.35719 0
M  V30 5113 C 515.211 -2.80184 -3.49572 0
M  V30 5114 C 516.955 -1.07759 -4.10595 0
M  V30 5115 C 514.862 -3.2788 -4.92187 0
M  V30 5116 H 513.792 -0.278034 -0.700866 0
M  V30 5117 H 516.443 -1.26637 -1.32798 0
M  V30 5118 H 514.825 -0.711522 -3.89555 0
M  V30 5119 H 515.999 -3.44561 -3.05965 0
M  V30 5120 H 514.314 -3.00632 -2.88113 0
M  V30 5121 H 516.911 -1.40899 -5.15802 0
M  V30 5122 H 517.254 -0.0152302 -4.16297 0
M  V30 5123 H 517.787 -1.62809 -3.62957 0
M  V30 5124 H 514.526 -4.33535 -4.91658 0
M  V30 5125 H 514.046 -2.68245 -5.36475 0
M  V30 5126 H 515.725 -3.22412 -5.60945 0
M  V30 5127 N 515.857 1.33968 -0.830081 0
M  V30 5128 C 516.787 2.31911 -0.271911 0
M  V30 5129 C 517.768 1.58571 0.61556 0
M  V30 5130 O 518.953 1.86514 0.540946 0
M  V30 5131 C 516.083 3.42737 0.561146 0
M  V30 5132 C 515.037 4.27383 -0.229789 0
M  V30 5133 C 514.363 5.29742 0.726463 0
M  V30 5134 C 515.663 5.02 -1.44197 0
M  V30 5135 H 517.357 2.78844 -1.09025 0
M  V30 5136 H 514.903 1.34061 -0.52571 0
M  V30 5137 H 516.856 4.10276 0.961867 0
M  V30 5138 H 515.58 2.94471 1.41261 0
M  V30 5139 H 514.239 3.61456 -0.611964 0
M  V30 5140 H 513.887 4.77736 1.57408 0
M  V30 5141 H 513.587 5.87255 0.20142 0
M  V30 5142 H 515.111 6.00149 1.12489 0
M  V30 5143 H 516.525 5.62355 -1.11488 0
M  V30 5144 H 514.922 5.69122 -1.90317 0
M  V30 5145 H 515.992 4.31281 -2.2164 0
M  V30 5146 N 517.335 0.585699 1.46312 0
M  V30 5147 C 518.285 -0.166813 2.27389 0
M  V30 5148 C 519.269 -0.859076 1.36047 0
M  V30 5149 O 520.461 -0.752678 1.60199 0
M  V30 5150 C 517.59 -1.17791 3.2246 0
M  V30 5151 C 516.676 -0.487605 4.21288 0
M  V30 5152 N 517.067 0.45849 5.03718 0
M  V30 5153 C 515.365 -0.737971 4.39852 0
M  V30 5154 C 516.066 0.862213 5.75275 0
M  V30 5155 N 515.042 0.210707 5.43191 0
M  V30 5156 H 518.844 0.560167 2.88512 0
M  V30 5157 H 516.358 0.407715 1.57199 0
M  V30 5158 H 518.355 -1.73122 3.79255 0
M  V30 5159 H 517.015 -1.90568 2.62896 0
M  V30 5160 H 518.026 0.834163 5.11138 0
M  V30 5161 H 514.703 -1.45209 3.91434 0
M  V30 5162 H 516.093 1.64128 6.51546 0
M  V30 5163 N 518.813 -1.54241 0.323641 0
M  V30 5164 C 520.09 -1.92741 -0.333181 0
M  V30 5165 C 520.47 -1.25326 -1.69872 0
M  V30 5166 O 519.818 -0.396991 -2.25025 0
M  V30 5167 C 520.028 -3.46399 -0.425322 0
M  V30 5168 C 521.376 -4.19029 -0.68557 0
M  V30 5169 O 522.4 -3.52555 -0.50824 0
M  V30 5170 O 521.259 -5.36751 -1.02767 0
M  V30 5171 H 518.353 -0.804811 -0.190286 0
M  V30 5172 H 520.899 -1.65542 0.373361 0
M  V30 5173 H 519.671 -3.87643 0.533737 0
M  V30 5174 H 519.294 -3.79704 -1.17944 0
M  V30 5175 N 520.291 -0.0518155 -1.57515 0
M  V30 5176 C 521.221 0.920283 -2.146 0
M  V30 5177 C 522.202 1.32406 -1.06783 0
M  V30 5178 O 523.387 1.39866 -1.34726 0
M  V30 5179 C 520.517 2.1949 -2.6915 0
M  V30 5180 C 519.471 1.93116 -3.81956 0
M  V30 5181 C 518.797 3.27037 -4.23026 0
M  V30 5182 C 520.097 1.25225 -5.07066 0
M  V30 5183 H 521.791 0.444801 -2.96077 0
M  V30 5184 H 519.337 0.212508 -1.42423 0
M  V30 5185 H 521.29 2.87894 -3.07725 0
M  V30 5186 H 520.014 2.69244 -1.84865 0
M  V30 5187 H 518.673 1.27123 -3.43854 0
M  V30 5188 H 518.321 3.74595 -3.3569 0
M  V30 5189 H 518.021 3.10189 -4.99056 0
M  V30 5190 H 519.545 3.96673 -4.64202 0
M  V30 5191 H 520.959 1.83666 -5.43083 0
M  V30 5192 H 519.356 1.18702 -5.88243 0
M  V30 5193 H 520.426 0.228382 -4.84362 0
M  V30 5194 N 521.769 1.56035 0.221574 0
M  V30 5195 C 523.017 1.78693 0.944102 0
M  V30 5196 C 523.338 0.620317 1.8487 0
M  V30 5197 O 522.608 -0.362784 1.92512 0
M  V30 5198 H 521.188 0.659082 0.351597 0
M  V30 5199 H 523.85 1.93497 0.233435 0
M  V30 5200 H 522.946 2.70837 1.55093 0
M  V30 5201 N 523.247 -0.488276 1.49845 0
M  V30 5202 C 524.496 -1.23826 1.59217 0
M  V30 5203 C 524.809 -1.93439 0.289966 0
M  V30 5204 O 526.015 -2.70229 0.262382 0
M  V30 5205 C 524.471 -2.24902 2.80976 0
M  V30 5206 C 524.079 -1.6117 4.18005 0
M  V30 5207 C 525.823 -3.00648 2.99685 0
M  V30 5208 C 523.73 -2.60431 5.3097 0
M  V30 5209 H 522.66 -0.465858 0.592868 0
M  V30 5210 H 525.311 -0.510645 1.76252 0
M  V30 5211 H 523.693 -3.0088 2.57463 0
M  V30 5212 H 524.867 -0.910968 4.51706 0
M  V30 5213 H 523.182 -0.97767 4.0476 0
M  V30 5214 H 525.779 -3.74903 3.81251 0
M  V30 5215 H 526.122 -3.5902 2.10738 0
M  V30 5216 H 526.655 -2.31784 3.23297 0
M  V30 5217 H 523.394 -2.06823 6.22017 0
M  V30 5218 H 522.914 -3.28707 5.01709 0
M  V30 5219 H 524.593 -3.22606 5.60834 0
M  V30 5220 N 524.725 -1.39134 -0.740242 0
M  V30 5221 C 525.974 -1.35384 -1.49512 0
M  V30 5222 C 526.287 0.04919 -1.95538 0
M  V30 5223 O 527.493 0.209257 -2.70692 0
M  V30 5224 C 525.949 -2.37812 -2.70136 0
M  V30 5225 C 525.557 -3.83804 -2.31081 0
M  V30 5226 C 527.301 -2.4313 -3.47977 0
M  V30 5227 C 525.208 -4.77886 -3.48395 0
M  V30 5228 H 524.138 -0.503297 -0.561434 0
M  V30 5229 H 526.789 -1.64754 -0.807974 0
M  V30 5230 H 525.171 -2.01505 -3.40899 0
M  V30 5231 H 526.345 -4.29123 -1.67898 0
M  V30 5232 H 524.66 -3.81732 -1.66343 0
M  V30 5233 H 527.257 -3.10614 -4.35228 0
M  V30 5234 H 527.6 -1.45423 -3.90074 0
M  V30 5235 H 528.133 -2.78304 -2.84239 0
M  V30 5236 H 524.872 -5.76836 -3.11353 0
M  V30 5237 H 524.392 -4.3725 -4.10576 0
M  V30 5238 H 526.071 -4.96538 -4.148 0
M  V30 5239 N 526.204 0.969867 -1.24223 0
M  V30 5240 C 527.429 1.75289 -1.10853 0
M  V30 5241 C 527.854 1.85091 0.335079 0
M  V30 5242 O 527.212 1.32024 1.24255 0
M  V30 5243 C 527.26 3.15255 -1.75062 0
M  V30 5244 O 526.364 3.99589 -1.01992 0
M  V30 5245 H 525.705 0.538904 -0.387915 0
M  V30 5246 H 528.235 1.21675 -1.64488 0
M  V30 5247 H 528.245 3.65787 -1.80731 0
M  V30 5248 H 526.92 3.07436 -2.801 0
M  V30 5249 H 525.497 3.58077 -1.04094 0
M  V30 5250 N 527.682 1.05563 1.17022 0
M  V30 5251 C 528.615 0.604197 2.20056 0
M  V30 5252 C 529.593 -0.369169 1.58354 0
M  V30 5253 O 530.777 -0.279898 1.8641 0
M  V30 5254 C 527.904 -0.115265 3.38504 0
M  V30 5255 C 526.95 0.813698 4.18666 0
M  V30 5256 S 527.783 2.30492 4.83357 0
M  V30 5257 C 528.939 1.59674 6.0519 0
M  V30 5258 H 529.172 1.47713 2.58008 0
M  V30 5259 H 526.705 0.867932 1.27696 0
M  V30 5260 H 528.663 -0.524162 4.0714 0
M  V30 5261 H 527.324 -0.964284 2.98932 0
M  V30 5262 H 526.517 0.256736 5.03346 0
M  V30 5263 H 526.119 1.16213 3.55486 0
M  V30 5264 H 528.411 0.898164 6.7152 0
M  V30 5265 H 529.354 2.42115 6.65422 0
M  V30 5266 H 529.762 1.08252 5.54023 0
M  V30 5267 N 529.16 -1.33526 0.837174 0
M  V30 5268 C 530.093 -2.27192 0.214233 0
M  V30 5269 C 531.071 -1.49575 -0.637657 0
M  V30 5270 O 532.255 -1.78753 -0.598291 0
M  V30 5271 C 529.382 -3.31401 -0.699367 0
M  V30 5272 C 528.428 -4.26431 0.0768429 0
M  V30 5273 S 529.261 -5.15954 1.4336 0
M  V30 5274 C 530.417 -6.23692 0.525251 0
M  V30 5275 H 530.65 -2.79679 1.00831 0
M  V30 5276 H 528.183 -1.4079 0.633834 0
M  V30 5277 H 530.141 -3.91924 -1.22088 0
M  V30 5278 H 528.802 -2.77732 -1.46709 0
M  V30 5279 H 527.995 -5.00193 -0.618268 0
M  V30 5280 H 527.597 -3.70235 0.529364 0
M  V30 5281 H 529.889 -6.76931 -0.277575 0
M  V30 5282 H 530.832 -6.97283 1.23299 0
M  V30 5283 H 531.24 -5.64398 0.107351 0
M  V30 5284 N 530.638 -0.59345 -1.46 0
M  V30 5285 C 531.863 -0.0872365 -2.07216 0
M  V30 5286 C 532.288 1.2131 -1.43755 0
M  V30 5287 O 531.646 1.73528 -0.525152 0
M  V30 5288 C 531.694 0.0538197 -3.6056 0
M  V30 5289 O 530.798 1.10765 -3.97247 0
M  V30 5290 H 530.139 -0.0676598 -0.660544 0
M  V30 5291 H 532.669 -0.819445 -1.87473 0
M  V30 5292 H 532.679 0.256567 -4.07193 0
M  V30 5293 H 531.354 -0.895739 -4.0614 0
M  V30 5294 H 529.931 0.882501 -3.62307 0
M  V30 5295 N 532.116 1.54067 -0.331816 0
M  V30 5296 C 533.344 2.05131 0.269996 0
M  V30 5297 C 533.759 1.20749 1.45138 0
M  V30 5298 O 533.116 0.240069 1.80914 0
M  V30 5299 C 533.167 3.54728 0.696456 0
M  V30 5300 O 532.888 4.35906 -0.43794 0
M  V30 5301 C 534.389 4.21916 1.36021 0
M  V30 5302 H 531.609 0.668807 0.0542042 0
M  V30 5303 H 534.153 1.98777 -0.4804 0
M  V30 5304 H 532.308 3.61342 1.39681 0
M  V30 5305 H 532.722 5.24404 -0.100334 0
M  V30 5306 H 534.196 5.28015 1.60947 0
M  V30 5307 H 534.673 3.73538 2.31011 0
M  V30 5308 H 535.279 4.19463 0.702212 0
M  V30 5309 N 533.594 0.0601682 1.57485 0
M  V30 5310 C 534.871 -0.651956 1.84415 0
M  V30 5311 C 535.251 -1.88498 0.950361 0
M  V30 5312 O 534.599 -2.28496 0.0136719 0
M  V30 5313 C 534.809 -1.00069 3.34346 0
M  V30 5314 C 536.157 -1.37915 4.01578 0
M  V30 5315 O 537.181 -1.09277 3.39024 0
M  V30 5316 O 536.04 -1.91399 5.11887 0
M  V30 5317 H 533.134 -0.322668 0.761455 0
M  V30 5318 H 535.68 0.0902159 1.6946 0
M  V30 5319 H 534.452 -0.124463 3.91102 0
M  V30 5320 H 534.075 -1.80001 3.54521 0
M  V30 5321 N 535.072 -1.5615 -0.213296 0
M  V30 5322 C 536.035 -1.92249 -1.24792 0
M  V30 5323 C 537.035 -0.801828 -1.39382 0
M  V30 5324 O 538.225 -1.06948 -1.37506 0
M  V30 5325 C 535.357 -2.18056 -2.62039 0
M  V30 5326 H 536.55 -2.84793 -0.939845 0
M  V30 5327 H 534.103 -1.49559 -0.454062 0
M  V30 5328 H 534.838 -1.2809 -2.97932 0
M  V30 5329 H 534.623 -2.99703 -2.52825 0
M  V30 5330 H 536.113 -2.47051 -3.36683 0
M  V30 5331 N 536.55 0.480323 -1.50102 0
M  V30 5332 C 537.48 1.58769 -1.71215 0
M  V30 5333 C 538.461 1.60583 -0.560997 0
M  V30 5334 O 539.646 1.76996 -0.799127 0
M  V30 5335 C 536.776 2.97148 -1.79778 0
M  V30 5336 C 535.73 3.10201 -2.94888 0
M  V30 5337 C 535.056 4.50137 -2.88584 0
M  V30 5338 C 536.356 2.88283 -4.35534 0
M  V30 5339 H 538.05 1.41354 -2.6393 0
M  V30 5340 H 535.596 0.678591 -1.27008 0
M  V30 5341 H 537.549 3.74536 -1.93133 0
M  V30 5342 H 536.273 3.15699 -0.836772 0
M  V30 5343 H 534.932 2.35244 -2.81169 0
M  V30 5344 H 534.58 4.65593 -1.90349 0
M  V30 5345 H 534.28 4.59808 -3.65856 0
M  V30 5346 H 535.804 5.29558 -3.03976 0
M  V30 5347 H 537.218 3.55427 -4.49827 0
M  V30 5348 H 535.615 3.09408 -5.14186 0
M  V30 5349 H 536.685 1.84219 -4.48544 0
M  V30 5350 N 538.028 1.39524 0.732853 0
M  V30 5351 C 538.991 1.38189 1.82857 0
M  V30 5352 C 539.991 0.278624 1.58368 0
M  V30 5353 O 541.181 0.536639 1.65728 0
M  V30 5354 C 538.313 1.15661 3.2068 0
M  V30 5355 H 539.506 2.35692 1.85444 0
M  V30 5356 H 537.059 1.2512 0.936728 0
M  V30 5357 H 537.794 0.188482 3.23752 0
M  V30 5358 H 537.579 1.95559 3.39852 0
M  V30 5359 H 539.069 1.17472 4.00737 0
M  V30 5360 N 539.506 -0.963266 1.24736 0
M  V30 5361 C 540.439 -2.05758 0.986852 0
M  V30 5362 C 541.417 -1.62398 -0.0809272 0
M  V30 5363 O 542.601 -1.88414 0.0569347 0
M  V30 5364 C 539.728 -3.35135 0.490095 0
M  V30 5365 C 538.774 -3.97451 1.54709 0
M  V30 5366 S 539.607 -4.34519 3.12976 0
M  V30 5367 C 540.763 -5.67026 2.65014 0
M  V30 5368 H 540.996 -2.27539 1.91346 0
M  V30 5369 H 538.529 -1.10176 1.08169 0
M  V30 5370 H 540.487 -4.09962 0.21012 0
M  V30 5371 H 539.148 -3.11335 -0.415873 0
M  V30 5372 H 538.341 -4.90704 1.15003 0
M  V30 5373 H 537.943 -3.29071 1.77731 0
M  V30 5374 H 540.235 -6.44748 2.08102 0
M  V30 5375 H 541.178 -6.11594 3.56873 0
M  V30 5376 H 541.586 -5.25847 2.05294 0
M  V30 5377 N 540.985 -1.06182 -1.16461 0
M  V30 5378 C 542.233 -0.776326 -1.86595 0
M  V30 5379 C 542.554 0.69921 -1.82033 0
M  V30 5380 O 541.824 1.50579 -1.2531 0
M  V30 5381 H 540.404 -0.284184 -0.690832 0
M  V30 5382 H 543.066 -1.34308 -1.41235 0
M  V30 5383 H 542.162 -1.10022 -2.92064 0
M  V30 5384 N 542.463 1.3308 -0.844243 0
M  V30 5385 C 543.879 1.50447 -0.532729 0
M  V30 5386 C 544.079 1.78292 0.938837 0
M  V30 5387 O 543.135 1.84635 1.72239 0
M  V30 5388 C 544.448 2.65555 -1.41072 0
M  V30 5389 C 545.996 2.7944 -1.41005 0
M  V30 5390 C 546.471 3.97616 -2.27301 0
M  V30 5391 N 547.962 4.0486 -2.2504 0
M  V30 5392 C 548.697 4.95508 -2.88547 0
M  V30 5393 N 548.193 5.91236 -3.61126 0
M  V30 5394 N 549.986 4.88548 -2.77989 0
M  V30 5395 H 542.137 1.13269 -1.79677 0
M  V30 5396 H 544.4 0.55734 -0.766861 0
M  V30 5397 H 544.106 2.51675 -2.45668 0
M  V30 5398 H 543.98 3.61089 -1.09061 0
M  V30 5399 H 546.367 2.92749 -0.371784 0
M  V30 5400 H 546.448 1.8465 -1.77026 0
M  V30 5401 H 546.092 3.85066 -3.3119 0
M  V30 5402 H 546.022 4.91661 -1.88619 0
M  V30 5403 H 548.513 3.36353 -1.72264 0
M  V30 5404 H 548.826 6.57079 -4.06776 0
M  V30 5405 H 547.171 5.91295 -3.65234 0
M  V30 5406 H 550.362 4.12729 -2.20846 0
M  V30 5407 H 550.535 5.58994 -3.27765 0
M  V30 5408 N 543.941 0.601185 1.45683 0
M  V30 5409 C 544.904 -0.111398 2.28929 0
M  V30 5410 C 545.904 -0.801246 1.39416 0
M  V30 5411 O 547.094 -0.650383 1.61603 0
M  V30 5412 C 544.226 -1.16773 3.20276 0
M  V30 5413 H 545.419 0.620412 2.93413 0
M  V30 5414 H 542.972 0.359946 1.52099 0
M  V30 5415 H 543.707 -1.93051 2.60579 0
M  V30 5416 H 543.492 -0.677358 3.86205 0
M  V30 5417 H 544.982 -1.66698 3.82886 0
M  V30 5418 N 545.419 -1.53889 0.339982 0
M  V30 5419 C 546.667 -2.00458 -0.257112 0
M  V30 5420 C 546.988 -1.22953 -1.51353 0
M  V30 5421 O 546.258 -0.335734 -1.93002 0
M  V30 5422 H 544.838 -0.740544 -0.0979965 0
M  V30 5423 H 547.5 -1.89386 0.460317 0
M  V30 5424 H 546.596 -3.08035 -0.502057 0
M  V30 5425 N 546.897 -0.0685191 -1.57451 0
M  V30 5426 C 547.807 0.914677 -2.16034 0
M  V30 5427 C 548.823 1.32938 -1.12265 0
M  V30 5428 O 549.999 1.40275 -1.44516 0
M  V30 5429 C 547.064 2.16519 -2.70777 0
M  V30 5430 C 546.125 1.80721 -3.89408 0
M  V30 5431 C 545.358 2.9981 -4.41531 0
M  V30 5432 O 545.581 4.13727 -3.92666 0
M  V30 5433 O 544.515 2.79817 -5.32903 0
M  V30 5434 H 548.341 0.446364 -3.00402 0
M  V30 5435 H 545.926 0.154367 -1.486 0
M  V30 5436 H 547.808 2.89856 -3.05878 0
M  V30 5437 H 546.483 2.62454 -1.89471 0
M  V30 5438 H 545.39 1.04646 -3.59166 0
M  V30 5439 H 546.723 1.39571 -4.71997 0
M  V30 5440 N 548.375 1.56261 0.205012 0
M  V30 5441 C 549.308 1.88797 1.28183 0
M  V30 5442 C 550.286 0.747018 1.44424 0
M  V30 5443 O 551.47 0.997039 1.59973 0
M  V30 5444 C 548.597 2.10949 2.64987 0
M  V30 5445 C 547.643 3.33649 2.6567 0
M  V30 5446 S 548.476 4.89078 2.18088 0
M  V30 5447 C 549.632 5.14286 3.56736 0
M  V30 5448 H 549.865 2.79837 1.00393 0
M  V30 5449 H 547.398 1.48911 0.408042 0
M  V30 5450 H 549.356 2.24395 3.4374 0
M  V30 5451 H 548.017 1.20678 2.89993 0
M  V30 5452 H 547.21 3.46245 3.66239 0
M  V30 5453 H 546.812 3.19146 1.94992 0
M  V30 5454 H 549.104 5.04198 4.52537 0
M  V30 5455 H 550.047 6.16096 3.49043 0
M  V30 5456 H 550.455 4.41957 3.51189 0
M  V30 5457 N 549.853 -0.472356 1.50355 0
M  V30 5458 C 551.099 -1.22634 1.6152 0
M  V30 5459 C 551.432 -1.91645 0.313995 0
M  V30 5460 O 550.707 -1.82059 -0.684446 0
M  V30 5461 C 550.99 -2.27099 2.7946 0
M  V30 5462 C 550.843 -1.62402 4.19459 0
M  V30 5463 C 552.162 -3.28421 2.92964 0
M  V30 5464 H 549.281 -0.444494 0.587873 0
M  V30 5465 H 551.923 -0.520321 1.82737 0
M  V30 5466 H 550.073 -2.87314 2.61501 0
M  V30 5467 H 551.745 -1.05793 4.49005 0
M  V30 5468 H 549.988 -0.927184 4.23776 0
M  V30 5469 H 550.659 -2.38309 4.97909 0
M  V30 5470 H 553.135 -2.78227 3.09401 0
M  V30 5471 H 552.011 -3.98845 3.77113 0
M  V30 5472 H 552.272 -3.92467 2.03525 0
M  V30 5473 N 551.331 -1.39911 -0.725443 0
M  V30 5474 C 552.261 -1.42138 -1.85254 0
M  V30 5475 C 553.242 -0.283513 -1.67721 0
M  V30 5476 O 554.427 -0.490717 -1.87898 0
M  V30 5477 C 551.557 -1.27354 -3.23107 0
M  V30 5478 C 550.511 -2.3864 -3.55296 0
M  V30 5479 C 549.837 -2.08939 -4.92188 0
M  V30 5480 C 551.137 -3.8097 -3.57295 0
M  V30 5481 H 552.831 -2.36461 -1.83648 0
M  V30 5482 H 550.377 -1.13817 -0.882138 0
M  V30 5483 H 552.33 -1.2753 -4.01639 0
M  V30 5484 H 551.054 -0.295025 -3.25265 0
M  V30 5485 H 549.713 -2.37696 -2.79099 0
M  V30 5486 H 549.361 -1.09502 -4.90936 0
M  V30 5487 H 549.061 -2.83491 -5.14691 0
M  V30 5488 H 550.585 -2.10781 -5.73065 0
M  V30 5489 H 551.999 -3.8379 -4.25885 0
M  V30 5490 H 550.396 -4.5496 -3.9132 0
M  V30 5491 H 551.466 -4.11261 -2.5689 0
M  V30 5492 N 552.809 0.956637 -1.25245 0
M  V30 5493 C 554.225 1.22733 -1.02023 0
M  V30 5494 C 554.425 1.99761 0.264186 0
M  V30 5495 O 553.481 2.32814 0.977436 0
M  V30 5496 C 554.794 2.00367 -2.24217 0
M  V30 5497 C 556.342 2.13418 -2.28958 0
M  V30 5498 C 556.817 2.9445 -3.50803 0
M  V30 5499 N 558.308 3.02029 -3.51187 0
M  V30 5500 C 559.043 3.65116 -4.42129 0
M  V30 5501 N 558.539 4.2983 -5.43339 0
M  V30 5502 N 560.332 3.62237 -4.29815 0
M  V30 5503 H 552.483 0.441282 -2.07765 0
M  V30 5504 H 554.746 0.257686 -0.912306 0
M  V30 5505 H 554.452 1.51165 -3.17556 0
M  V30 5506 H 554.326 3.01077 -2.27228 0
M  V30 5507 H 556.713 2.61819 -1.36143 0
M  V30 5508 H 556.794 1.1202 -2.29968 0
M  V30 5509 H 556.438 2.46741 -4.43939 0
M  V30 5510 H 556.368 3.9607 -3.47039 0
M  V30 5511 H 558.859 2.56007 -2.77973 0
M  V30 5512 H 559.172 4.75819 -6.08947 0
M  V30 5513 H 557.517 4.28465 -5.47214 0
M  V30 5514 H 560.708 3.10863 -3.49974 0
M  V30 5515 H 560.881 4.11117 -5.00886 0
M  V30 5516 N 554.287 1.06798 1.15896 0
M  V30 5517 C 555.515 0.808694 1.90441 0
M  V30 5518 C 555.93 -0.637506 1.77711 0
M  V30 5519 O 555.287 -1.43684 1.12522 0
M  V30 5520 C 555.338 1.20068 3.40978 0
M  V30 5521 O 555.059 2.59013 3.53333 0
M  V30 5522 C 556.56 0.96987 4.3256 0
M  V30 5523 H 553.78 0.292809 0.603742 0
M  V30 5524 H 556.324 1.42296 1.46874 0
M  V30 5525 H 554.479 0.630842 3.82229 0
M  V30 5526 H 554.893 2.7485 4.46719 0
M  V30 5527 H 556.367 1.29371 5.36626 0
M  V30 5528 H 556.844 -0.0941209 4.39099 0
M  V30 5529 H 557.45 1.52433 3.97044 0
M  V30 5530 N 555.766 -1.3263 0.851289 0
M  V30 5531 C 557.012 -1.98061 0.462963 0
M  V30 5532 C 557.367 -1.66162 -0.969948 0
M  V30 5533 O 556.66 -0.937723 -1.67085 0
M  V30 5534 C 556.854 -3.51713 0.635015 0
M  V30 5535 C 556.683 -3.98544 2.0831 0
M  V30 5536 C 555.453 -4.25787 2.72091 0
M  V30 5537 C 557.651 -4.13858 3.0533 0
M  V30 5538 N 555.633 -4.58842 4.07845 0
M  V30 5539 C 557.004 -4.50412 4.26063 0
M  V30 5540 C 559.059 -3.96182 3.0157 0
M  V30 5541 C 557.762 -4.71136 5.43529 0
M  V30 5542 C 559.788 -4.18088 4.18278 0
M  V30 5543 C 559.15 -4.54956 5.37768 0
M  V30 5544 H 555.249 -0.750976 0.218082 0
M  V30 5545 H 557.833 -1.60514 1.10197 0
M  V30 5546 H 556.004 -3.88391 0.0257298 0
M  V30 5547 H 557.736 -4.04118 0.216915 0
M  V30 5548 H 554.491 -4.17734 2.23149 0
M  V30 5549 H 554.915 -4.7956 4.77862 0
M  V30 5550 H 559.557 -3.66783 2.1031 0
M  V30 5551 H 557.275 -4.9939 6.35323 0
M  V30 5552 H 560.861 -4.05918 4.168 0
M  V30 5553 H 559.741 -4.71567 6.26573 0
M  V30 5554 N 557.244 -0.608902 -1.45362 0
M  V30 5555 C 558.176 0.147318 -2.28726 0
M  V30 5556 C 559.189 0.830468 -1.40025 0
M  V30 5557 O 560.378 0.695636 -1.64387 0
M  V30 5558 C 557.478 1.22968 -3.15804 0
M  V30 5559 C 556.651 0.633391 -4.3279 0
M  V30 5560 C 555.71 1.60682 -5.01067 0
M  V30 5561 O 554.736 1.13261 -5.57818 0
M  V30 5562 N 555.938 2.94123 -5.00472 0
M  V30 5563 H 558.703 -0.568014 -2.94268 0
M  V30 5564 H 556.264 -0.448479 -1.55564 0
M  V30 5565 H 558.256 1.88072 -3.58345 0
M  V30 5566 H 556.826 1.84752 -2.52162 0
M  V30 5567 H 556.046 -0.195762 -3.93714 0
M  V30 5568 H 557.334 0.215255 -5.08344 0
M  V30 5569 H 556.732 3.3525 -4.55657 0
M  V30 5570 H 555.289 3.54646 -5.46872 0
M  V30 5571 N 558.722 1.53707 -0.348139 0
M  V30 5572 C 559.95 2.05406 0.248224 0
M  V30 5573 C 560.365 1.22282 1.43849 0
M  V30 5574 O 559.722 0.259244 1.80649 0
M  V30 5575 C 559.773 3.55446 0.658793 0
M  V30 5576 O 559.494 4.35417 -0.484149 0
M  V30 5577 C 560.995 4.23335 1.31539 0
M  V30 5578 H 558.215 0.669344 0.0471075 0
M  V30 5579 H 560.759 1.98257 -0.501456 0
M  V30 5580 H 558.914 3.62803 1.35841 0
M  V30 5581 H 559.328 5.24268 -0.155949 0
M  V30 5582 H 560.802 5.29692 1.55338 0
M  V30 5583 H 561.279 3.75967 2.27036 0
M  V30 5584 H 561.885 4.20184 0.657683 0
M  V30 5585 N 560.2 0.0768682 1.57412 0
M  V30 5586 C 561.163 -0.873949 2.11884 0
M  V30 5587 C 562.163 -1.22301 1.04398 0
M  V30 5588 O 563.353 -1.15545 1.30365 0
M  V30 5589 C 560.485 -2.17575 2.62438 0
M  V30 5590 H 561.678 -0.401278 2.97203 0
M  V30 5591 H 559.231 -0.171904 1.55352 0
M  V30 5592 H 559.966 -2.69368 1.80587 0
M  V30 5593 H 559.751 -1.93534 3.41009 0
M  V30 5594 H 561.241 -2.85631 3.04639 0
M  V30 5595 N 561.678 -1.56367 -0.196722 0
M  V30 5596 C 562.955 -1.71359 -0.943159 0
M  V30 5597 C 563.335 -0.631192 -2.01443 0
M  V30 5598 O 562.683 0.358071 -2.25677 0
M  V30 5599 C 562.893 -3.13623 -1.53106 0
M  V30 5600 C 564.241 -3.73806 -2.01381 0
M  V30 5601 O 565.265 -3.16742 -1.62951 0
M  V30 5602 O 564.124 -4.73951 -2.7209 0
M  V30 5603 H 561.218 -0.698851 -0.442195 0
M  V30 5604 H 563.764 -1.68672 -0.186547 0
M  V30 5605 H 562.536 -3.83873 -0.758785 0
M  V30 5606 H 562.159 -3.20532 -2.35255 0
M  V30 5607 N 563.156 0.464375 -1.50603 0
M  V30 5608 C 564.103 1.56152 -1.69956 0
M  V30 5609 C 565.073 1.57046 -0.54091 0
M  V30 5610 O 566.258 1.74473 -0.772258 0
M  V30 5611 C 563.398 2.94079 -1.80586 0
M  V30 5612 C 562.511 3.02923 -3.07996 0
M  V30 5613 C 561.646 4.31806 -3.09382 0
M  V30 5614 C 560.685 4.34417 -4.31218 0
M  V30 5615 N 559.822 5.54782 -4.30304 0
M  V30 5616 H 564.662 1.38955 -2.6362 0
M  V30 5617 H 562.199 0.675482 -1.30674 0
M  V30 5618 H 564.157 3.74073 -1.8473 0
M  V30 5619 H 562.787 3.09896 -0.903556 0
M  V30 5620 H 561.839 2.1576 -3.13292 0
M  V30 5621 H 563.151 3.00712 -3.97962 0
M  V30 5622 H 562.305 5.20153 -3.12292 0
M  V30 5623 H 561.044 4.36636 -2.17257 0
M  V30 5624 H 560.049 3.44467 -4.28512 0
M  V30 5625 H 561.274 4.31273 -5.24576 0
M  V30 5626 H 559.22 5.60384 -3.41037 0
M  V30 5627 H 559.137 5.54339 -5.14047 0
M  V30 5628 H 560.405 6.45235 -4.3737 0
M  V30 5629 N 564.634 1.40294 0.718013 0
M  V30 5630 C 565.567 1.34767 1.84155 0
M  V30 5631 C 566.545 0.218455 1.61126 0
M  V30 5632 O 567.729 0.401716 1.8417 0
M  V30 5633 C 564.856 1.09676 3.20451 0
M  V30 5634 C 563.902 2.25016 3.62312 0
M  V30 5635 S 564.735 3.87397 3.69707 0
M  V30 5636 C 565.891 3.64565 5.08766 0
M  V30 5637 H 566.124 2.29851 1.88562 0
M  V30 5638 H 563.657 1.2655 0.884555 0
M  V30 5639 H 565.615 0.95885 3.99144 0
M  V30 5640 H 564.276 0.162502 3.13679 0
M  V30 5641 H 563.469 2.03097 4.61268 0
M  V30 5642 H 563.071 2.35098 2.90869 0
M  V30 5643 H 565.363 3.22882 5.95612 0
M  V30 5644 H 566.306 4.63043 5.35721 0
M  V30 5645 H 566.714 2.98303 4.79245 0
M  V30 5646 N 566.112 -0.949982 1.2575 0
M  V30 5647 C 567.059 -2.04738 1.06541 0
M  V30 5648 C 568.029 -1.66078 -0.0268818 0
M  V30 5649 O 569.214 -1.90348 0.131196 0
M  V30 5650 C 566.354 -3.38027 0.695127 0
M  V30 5651 C 565.467 -3.89776 1.86276 0
M  V30 5652 C 564.602 -5.11411 1.4364 0
M  V30 5653 C 563.641 -5.554 2.57287 0
M  V30 5654 N 562.778 -6.68244 2.15395 0
M  V30 5655 H 567.618 -2.20502 2.00457 0
M  V30 5656 H 565.155 -1.0805 0.998178 0
M  V30 5657 H 567.113 -4.14641 0.461375 0
M  V30 5658 H 565.743 -3.22135 -0.207046 0
M  V30 5659 H 564.795 -3.0964 2.20969 0
M  V30 5660 H 566.107 -4.18368 2.71606 0
M  V30 5661 H 565.261 -5.95457 1.16257 0
M  V30 5662 H 564 -4.84545 0.553879 0
M  V30 5663 H 563.005 -4.69916 2.85409 0
M  V30 5664 H 564.23 -5.84272 3.46125 0
M  V30 5665 H 562.176 -6.43078 1.29565 0
M  V30 5666 H 562.093 -6.96377 2.94272 0
M  V30 5667 H 563.361 -7.55687 1.91201 0
M  V30 5668 N 567.59 -1.07411 -1.15328 0
M  V30 5669 C 568.537 -0.694995 -2.20087 0
M  V30 5670 C 569.507 0.313904 -1.63107 0
M  V30 5671 O 570.692 0.200216 -1.89747 0
M  V30 5672 C 567.832 -0.0996218 -3.44956 0
M  V30 5673 C 566.945 -1.16007 -4.16133 0
M  V30 5674 C 566.08 -0.529636 -5.28553 0
M  V30 5675 C 565.119 -1.57283 -5.91548 0
M  V30 5676 N 564.256 -0.964932 -6.95438 0
M  V30 5677 H 569.096 -1.5927 -2.51867 0
M  V30 5678 H 566.633 -0.796115 -1.23695 0
M  V30 5679 H 568.591 0.263197 -4.16369 0
M  V30 5680 H 567.221 0.761435 -3.13691 0
M  V30 5681 H 566.273 -1.64045 -3.4321 0
M  V30 5682 H 567.585 -1.95101 -4.59061 0
M  V30 5683 H 566.739 -0.114487 -6.06592 0
M  V30 5684 H 565.478 0.29307 -4.86819 0
M  V30 5685 H 564.483 -1.99775 -5.12221 0
M  V30 5686 H 565.708 -2.39783 -6.35359 0
M  V30 5687 H 563.654 -0.16314 -6.55797 0
M  V30 5688 H 563.571 -1.69311 -7.36797 0
M  V30 5689 H 564.839 -0.575305 -7.77374 0
M  V30 5690 N 569.068 1.32177 -0.85831 0
M  V30 5691 C 570 2.27688 -0.262835 0
M  V30 5692 C 571.013 1.52588 0.567513 0
M  V30 5693 O 572.202 1.74156 0.391407 0
M  V30 5694 C 569.302 3.32668 0.646937 0
M  V30 5695 C 568.475 4.37148 -0.148372 0
M  V30 5696 C 567.534 5.21686 0.687728 0
M  V30 5697 O 566.56 5.69074 0.119934 0
M  V30 5698 N 567.762 5.44892 2.00182 0
M  V30 5699 H 570.527 2.79426 -1.08356 0
M  V30 5700 H 568.088 1.45076 -0.718647 0
M  V30 5701 H 570.08 3.86134 1.2117 0
M  V30 5702 H 568.65 2.81061 1.36834 0
M  V30 5703 H 567.87 3.83915 -0.894572 0
M  V30 5704 H 569.158 5.04038 -0.694514 0
M  V30 5705 H 568.556 5.08128 2.4864 0
M  V30 5706 H 567.113 6.0134 2.51463 0
M  V30 5707 N 570.547 0.616602 1.45037 0
M  V30 5708 C 571.963 0.280994 1.57107 0
M  V30 5709 C 572.163 -1.21627 1.60653 0
M  V30 5710 O 571.219 -1.9997 1.54169 0
M  V30 5711 C 572.532 0.960116 2.8496 0
M  V30 5712 C 574.08 0.936884 2.98649 0
M  V30 5713 C 574.555 1.59619 4.29285 0
M  V30 5714 N 576.046 1.5621 4.36065 0
M  V30 5715 C 576.781 2.04131 5.35834 0
M  V30 5716 N 576.277 2.60177 6.4209 0
M  V30 5717 N 578.07 1.94845 5.27249 0
M  V30 5718 H 570.221 1.58867 1.40979 0
M  V30 5719 H 572.484 0.666024 0.674623 0
M  V30 5720 H 572.19 2.01473 2.88273 0
M  V30 5721 H 572.064 0.488921 3.74018 0
M  V30 5722 H 574.451 -0.109209 2.94898 0
M  V30 5723 H 574.532 1.44643 2.10979 0
M  V30 5724 H 574.176 2.64166 4.33796 0
M  V30 5725 H 574.106 1.06159 5.15789 0
M  V30 5726 H 576.597 1.15276 3.59889 0
M  V30 5727 H 576.91 2.94513 7.1448 0
M  V30 5728 H 575.255 2.64221 6.42816 0
M  V30 5729 H 578.446 1.50792 4.43147 0
M  V30 5730 H 578.619 2.32504 6.04852 0
M  V30 5731 N 572.025 -1.5352 0.356285 0
M  V30 5732 C 573.273 -2.00719 -0.235837 0
M  V30 5733 C 573.594 -1.24551 -1.5004 0
M  V30 5734 O 572.864 -0.356185 -1.92635 0
M  V30 5735 H 571.444 -0.741542 -0.0901366 0
M  V30 5736 H 574.106 -1.88887 0.480378 0
M  V30 5737 H 573.202 -3.08551 -0.469357 0
M  V30 5738 N 573.503 -0.0852151 -1.57369 0
M  V30 5739 C 574.914 0.445428 -1.81309 0
M  V30 5740 C 575.265 1.68795 -1.00013 0
M  V30 5741 O 574.39 2.15211 -0.226573 0
M  V30 5742 C 574.985 0.814887 -3.28854 0
M  V30 5743 C 573.544 1.29032 -3.53592 0
M  V30 5744 C 572.691 0.282089 -2.75861 0
M  V30 5745 H 575.642 -0.310771 -1.55627 0
M  V30 5746 H 575.663 1.67524 -3.41637 0
M  V30 5747 H 575.175 -0.0896309 -3.87996 0
M  V30 5748 H 573.276 2.21289 -2.9977 0
M  V30 5749 H 573.389 1.25898 -4.62262 0
M  V30 5750 H 571.753 0.762182 -2.43029 0
M  V30 5751 H 572.536 -0.614936 -3.37748 0
M  V30 5752 N 574.981 1.5647 0.188427 0
M  V30 5753 C 575.911 1.98101 1.23606 0
M  V30 5754 C 576.892 0.853961 1.47111 0
M  V30 5755 O 578.077 1.11879 1.58735 0
M  V30 5756 C 575.207 2.32624 2.57882 0
M  V30 5757 C 574.161 3.48129 2.48978 0
M  V30 5758 C 573.487 3.68347 3.87588 0
M  V30 5759 C 574.787 4.82112 2.00911 0
M  V30 5760 H 576.481 2.85864 0.890068 0
M  V30 5761 H 574.027 1.37532 0.426714 0
M  V30 5762 H 575.98 2.60343 3.3136 0
M  V30 5763 H 574.704 1.41751 2.94235 0
M  V30 5764 H 573.363 3.20511 1.77956 0
M  V30 5765 H 573.011 2.74793 4.21305 0
M  V30 5766 H 572.711 4.46055 3.82503 0
M  V30 5767 H 574.235 3.98449 4.62678 0
M  V30 5768 H 575.649 5.08819 2.64151 0
M  V30 5769 H 574.046 5.63337 2.06814 0
M  V30 5770 H 575.116 4.75249 0.96262 0
M  V30 5771 N 576.459 -0.456382 1.50847 0
M  V30 5772 C 577.422 -1.53493 1.70213 0
M  V30 5773 C 578.422 -1.50264 0.572481 0
M  V30 5774 O 579.612 -1.52623 0.839751 0
M  V30 5775 C 576.744 -2.93091 1.741 0
M  V30 5776 H 577.937 -1.37633 2.66453 0
M  V30 5777 H 575.49 -0.683776 1.4055 0
M  V30 5778 H 576.225 -3.14378 0.796063 0
M  V30 5779 H 576.01 -2.9684 2.5618 0
M  V30 5780 H 577.5 -3.71368 1.90987 0
M  V30 5781 N 577.937 -1.40673 -0.710563 0
M  V30 5782 C 578.847 -1.43663 -1.85467 0
M  V30 5783 C 579.863 -0.328721 -1.70867 0
M  V30 5784 O 581.039 -0.574098 -1.93044 0
M  V30 5785 C 578.104 -1.30226 -3.21313 0
M  V30 5786 C 577.165 -2.51204 -3.48131 0
M  V30 5787 C 576.398 -2.38398 -4.77495 0
M  V30 5788 O 576.621 -1.40048 -5.5294 0
M  V30 5789 O 575.555 -3.2787 -5.04762 0
M  V30 5790 H 579.381 -2.40156 -1.859 0
M  V30 5791 H 576.966 -1.22049 -0.861652 0
M  V30 5792 H 578.848 -1.2496 -4.02446 0
M  V30 5793 H 577.523 -0.368419 -3.21597 0
M  V30 5794 H 576.43 -2.62048 -2.66987 0
M  V30 5795 H 577.763 -3.43366 -3.52648 0
M  V30 5796 N 579.415 0.9433 -1.26252 0
M  V30 5797 C 580.325 2.07532 -1.09397 0
M  V30 5798 C 581.341 1.73977 -0.0280449 0
M  V30 5799 O 582.517 2.00067 -0.231337 0
M  V30 5800 C 579.582 3.39002 -0.726523 0
M  V30 5801 C 578.643 3.86353 -1.87163 0
M  V30 5802 C 577.876 5.11549 -1.52162 0
M  V30 5803 O 578.099 5.68834 -0.422385 0
M  V30 5804 O 577.033 5.53889 -2.35565 0
M  V30 5805 H 580.859 2.24658 -2.04359 0
M  V30 5806 H 578.444 1.05988 -1.05295 0
M  V30 5807 H 580.326 4.18 -0.534236 0
M  V30 5808 H 579.001 3.2312 0.193721 0
M  V30 5809 H 577.908 3.0831 -2.11886 0
M  V30 5810 H 579.241 4.06752 -2.77152 0
M  V30 5811 N 580.893 1.08022 1.14757 0
M  V30 5812 C 581.84 0.706657 2.19716 0
M  V30 5813 C 582.81 -0.30525 1.63271 0
M  V30 5814 O 583.995 -0.19015 1.8985 0
M  V30 5815 C 581.135 0.117914 3.44898 0
M  V30 5816 C 580.248 1.18212 4.15512 0
M  V30 5817 C 579.383 0.557659 5.28265 0
M  V30 5818 C 578.422 1.60418 5.90705 0
M  V30 5819 N 577.559 1.0018 6.94916 0
M  V30 5820 H 582.399 1.60603 2.51019 0
M  V30 5821 H 579.936 0.802664 1.23271 0
M  V30 5822 H 581.894 -0.241112 4.16503 0
M  V30 5823 H 580.524 -0.744788 3.1409 0
M  V30 5824 H 579.576 1.65863 3.42335 0
M  V30 5825 H 580.888 1.97533 4.5802 0
M  V30 5826 H 580.042 0.146654 6.06523 0
M  V30 5827 H 578.781 -0.267249 4.86967 0
M  V30 5828 H 577.786 2.02489 5.11154 0
M  V30 5829 H 579.011 2.43149 6.34078 0
M  V30 5830 H 576.957 0.197917 6.55701 0
M  V30 5831 H 576.874 1.73216 7.35889 0
M  V30 5832 H 578.142 0.616523 7.77058 0
M  V30 5833 N 582.371 -1.3172 0.865308 0
M  V30 5834 C 583.319 -2.30569 0.306674 0
M  V30 5835 C 584.313 -1.59317 -0.575724 0
M  V30 5836 O 585.519 -1.73961 -0.462343 0
M  V30 5837 H 581.894 -0.747681 0.0804834 0
M  V30 5838 H 583.865 -2.75165 1.15441 0
M  V30 5839 C 582.614 -3.44358 -0.480952 0
M  V30 5840 H 581.937 -3.99354 0.18876 0
M  V30 5841 H 583.377 -4.15652 -0.837241 0
M  V30 5842 C 581.836 -2.92574 -1.67039 0
M  V30 5843 O 582.366 -2.90954 -2.76964 0
M  V30 5844 N 580.572 -2.48835 -1.50097 0
M  V30 5845 H 580.119 -2.50353 -0.606738 0
M  V30 5846 H 580.077 -2.14543 -2.29823 0
M  V30 5847 N 583.85 -0.624285 -1.44708 0
M  V30 5848 C 585.098 -0.125802 -2.01708 0
M  V30 5849 C 585.418 1.2543 -1.49306 0
M  V30 5850 O 584.689 1.83198 -0.693924 0
M  V30 5851 H 583.269 -0.0435161 -0.745731 0
M  V30 5852 H 585.931 -0.809446 -1.77296 0
M  V30 5853 H 585.027 -0.0882734 -3.11975 0
M  V30 5854 N 585.328 1.53329 -0.364422 0
M  V30 5855 C 586.553 2.06132 0.229033 0
M  V30 5856 C 586.978 1.23625 1.41769 0
M  V30 5857 O 586.336 0.255038 1.79497 0
M  V30 5858 C 586.384 3.55544 0.60174 0
M  V30 5859 O 585.488 3.75771 1.69912 0
M  V30 5860 H 584.829 0.663148 0.0336213 0
M  V30 5861 H 587.359 1.97758 -0.524689 0
M  V30 5862 H 587.369 3.98549 0.873073 0
M  V30 5863 H 586.044 4.15039 -0.267421 0
M  V30 5864 H 584.621 3.44663 1.42343 0
M  V30 5865 N 586.806 0.0935595 1.57322 0
M  V30 5866 C 588.083 -0.612692 1.85756 0
M  V30 5867 C 588.463 -1.86439 0.99013 0
M  V30 5868 O 587.811 -2.28416 0.0621362 0
M  V30 5869 C 588.021 -0.929547 3.36393 0
M  V30 5870 C 589.369 -1.29366 4.04413 0
M  V30 5871 O 590.393 -1.02061 3.41265 0
M  V30 5872 O 589.252 -1.80498 5.15832 0
M  V30 5873 H 586.346 -0.306444 0.768128 0
M  V30 5874 H 588.892 0.126141 1.69231 0
M  V30 5875 H 587.664 -0.0414766 3.91278 0
M  V30 5876 H 587.287 -1.72441 3.5826 0
M  V30 5877 N 588.284 -1.56567 -0.180126 0
M  V30 5878 C 589.232 -1.96632 -1.24251 0
M  V30 5879 C 590.226 -0.853818 -1.46309 0
M  V30 5880 O 591.432 -1.0389 -1.46993 0
M  V30 5881 H 587.807 -0.625476 -0.417473 0
M  V30 5882 H 589.778 -2.85201 -0.877679 0
M  V30 5883 C 588.527 -2.33486 -2.57642 0
M  V30 5884 H 587.85 -3.18626 -2.4149 0
M  V30 5885 H 589.29 -2.65371 -3.30688 0
M  V30 5886 C 587.749 -1.17499 -3.15746 0
M  V30 5887 O 588.279 -0.457956 -3.99081 0
M  V30 5888 N 586.485 -0.94786 -2.74707 0
M  V30 5889 H 586.032 -1.53269 -2.07042 0
M  V30 5890 H 585.99 -0.173626 -3.1392 0
M  V30 5891 N 589.762 0.448376 -1.51087 0
M  V30 5892 C 591.009 1.19872 -1.63209 0
M  V30 5893 C 591.337 1.91451 -0.343062 0
M  V30 5894 O 590.592 1.83789 0.672321 0
M  V30 5895 C 590.891 2.24866 -2.77795 0
M  V30 5896 C 590.557 1.70378 -4.17471 0
M  V30 5897 C 589.219 1.55241 -4.55471 0
M  V30 5898 C 591.571 1.30203 -5.04675 0
M  V30 5899 C 588.899 0.983844 -5.78392 0
M  V30 5900 C 591.251 0.747798 -6.28165 0
M  V30 5901 C 589.915 0.583233 -6.64947 0
M  V30 5902 H 589.185 0.438642 -0.597222 0
M  V30 5903 H 591.832 0.49136 -1.85089 0
M  V30 5904 H 590.137 3.01598 -2.50092 0
M  V30 5905 H 591.834 2.82723 -2.84374 0
M  V30 5906 H 588.424 1.83134 -3.87505 0
M  V30 5907 H 592.608 1.40723 -4.75932 0
M  V30 5908 H 587.864 0.844007 -6.05546 0
M  V30 5909 H 592.038 0.427927 -6.95084 0
M  V30 5910 H 589.665 0.140532 -7.6007 0
M  V30 5911 N 591.24 1.41047 0.703093 0
M  V30 5912 C 592.656 1.23351 1.01275 0
M  V30 5913 C 592.856 0.11754 2.01157 0
M  V30 5914 O 591.912 -0.520518 2.47077 0
M  V30 5915 C 593.225 2.58001 1.54454 0
M  V30 5916 C 594.773 2.65119 1.66376 0
M  V30 5917 C 595.248 4.00067 2.22958 0
M  V30 5918 N 596.739 4.01875 2.30328 0
M  V30 5919 C 597.474 5.03087 2.75119 0
M  V30 5920 N 596.97 6.14692 3.19571 0
M  V30 5921 N 598.763 4.90451 2.74616 0
M  V30 5922 H 590.914 2.1236 0.0412686 0
M  V30 5923 H 593.177 0.944543 0.08089 0
M  V30 5924 H 592.883 3.40378 0.88521 0
M  V30 5925 H 592.757 2.79962 2.52786 0
M  V30 5926 H 595.144 1.83106 2.31422 0
M  V30 5927 H 595.225 2.46975 0.666089 0
M  V30 5928 H 594.869 4.82526 1.58529 0
M  V30 5929 H 594.799 4.15547 3.23462 0
M  V30 5930 H 597.29 3.21291 1.98949 0
M  V30 5931 H 597.603 6.87799 3.52352 0
M  V30 5932 H 595.948 6.18239 3.17498 0
M  V30 5933 H 599.139 4.0235 2.39233 0
M  V30 5934 H 599.312 5.6947 3.09206 0
M  V30 5935 N 592.718 -0.936591 1.26751 0
M  V30 5936 C 593.648 -2.05315 1.11212 0
M  V30 5937 C 594.629 -1.70092 0.0160262 0
M  V30 5938 O 595.814 -1.93279 0.188894 0
M  V30 5939 C 592.944 -3.39123 0.749171 0
M  V30 5940 C 591.898 -3.88425 1.79751 0
M  V30 5941 C 591.224 -5.18936 1.28876 0
M  V30 5942 C 592.524 -4.12798 3.19992 0
M  V30 5943 H 594.218 -2.18573 2.04613 0
M  V30 5944 H 591.764 -1.05027 0.985159 0
M  V30 5945 H 593.717 -4.16704 0.627323 0
M  V30 5946 H 592.441 -3.25855 -0.220543 0
M  V30 5947 H 591.1 -3.13028 1.90811 0
M  V30 5948 H 590.748 -5.02051 0.308757 0
M  V30 5949 H 590.448 -5.52892 1.98958 0
M  V30 5950 H 591.972 -5.99096 1.17967 0
M  V30 5951 H 593.386 -4.80977 3.11983 0
M  V30 5952 H 591.783 -4.58044 3.87705 0
M  V30 5953 H 592.853 -3.18412 3.65707 0
M  V30 5954 N 594.196 -1.08629 -1.14182 0
M  V30 5955 C 595.143 -0.718299 -2.19338 0
M  V30 5956 C 596.113 0.296587 -1.63431 0
M  V30 5957 O 597.298 0.180079 -1.89948 0
M  V30 5958 C 594.438 -0.136203 -3.44831 0
M  V30 5959 C 593.551 -1.20414 -4.14879 0
M  V30 5960 C 592.686 -0.585666 -5.27962 0
M  V30 5961 C 591.725 -1.63548 -5.89846 0
M  V30 5962 N 590.862 -1.03864 -6.94375 0
M  V30 5963 H 595.702 -1.61932 -2.50164 0
M  V30 5964 H 593.239 -0.80919 -1.22844 0
M  V30 5965 H 595.197 0.219021 -4.16625 0
M  V30 5966 H 593.827 0.728121 -3.14481 0
M  V30 5967 H 592.879 -1.67676 -3.41451 0
M  V30 5968 H 594.191 -1.99959 -4.56966 0
M  V30 5969 H 593.345 -0.178818 -6.06436 0
M  V30 5970 H 592.084 0.24142 -4.87102 0
M  V30 5971 H 591.089 -2.05197 -5.10073 0
M  V30 5972 H 592.314 -2.46509 -6.3278 0
M  V30 5973 H 590.26 -0.232687 -6.55587 0
M  V30 5974 H 590.177 -1.77116 -7.3496 0
M  V30 5975 H 591.445 -0.657724 -7.7672 0
M  V30 5976 N 595.674 1.31259 -0.872281 0
M  V30 5977 C 597.09 1.49283 -0.564521 0
M  V30 5978 C 597.29 1.80243 0.900807 0
M  V30 5979 O 596.346 1.88246 1.68284 0
M  V30 5980 C 597.659 2.62503 -1.46673 0
M  V30 5981 C 599.207 2.76386 -1.46901 0
M  V30 5982 C 599.682 3.92705 -2.35684 0
M  V30 5983 N 601.173 3.99995 -2.33577 0
M  V30 5984 C 601.908 4.89276 -2.98992 0
M  V30 5985 N 601.404 5.83443 -3.73585 0
M  V30 5986 N 603.197 4.82541 -2.88289 0
M  V30 5987 H 595.348 1.09432 -1.82039 0
M  V30 5988 H 597.611 0.540949 -0.77851 0
M  V30 5989 H 597.317 2.46407 -2.50951 0
M  V30 5990 H 597.191 3.58695 -1.16696 0
M  V30 5991 H 599.578 2.91894 -0.433796 0
M  V30 5992 H 599.659 1.80853 -1.80903 0
M  V30 5993 H 599.303 3.77954 -3.39283 0
M  V30 5994 H 599.233 4.87549 -1.99006 0
M  V30 5995 H 601.724 3.32624 -1.7936 0
M  V30 5996 H 602.037 6.48303 -4.20622 0
M  V30 5997 H 600.382 5.83415 -3.77694 0
M  V30 5998 H 603.573 4.07951 -2.2955 0
M  V30 5999 H 603.746 5.51916 -3.39549 0
M  V30 6000 N 597.152 0.631951 1.44375 0
M  V30 6001 C 598.382 0.143658 2.061 0
M  V30 6002 C 598.79 -1.18733 1.47306 0
M  V30 6003 O 598.133 -1.73943 0.590724 0
M  V30 6004 C 598.195 -0.0446102 3.59472 0
M  V30 6005 C 597.859 1.20835 4.40736 0
M  V30 6006 C 598.856 2.13224 4.74164 0
M  V30 6007 C 596.541 1.44399 4.81097 0
M  V30 6008 C 598.535 3.27487 5.46838 0
M  V30 6009 C 596.222 2.58959 5.53519 0
M  V30 6010 C 597.22 3.50329 5.86309 0
M  V30 6011 O 596.908 4.62891 6.57257 0
M  V30 6012 H 596.64 0.0772939 0.671567 0
M  V30 6013 H 599.194 0.866677 1.8622 0
M  V30 6014 H 597.424 -0.822783 3.77845 0
M  V30 6015 H 599.113 -0.487561 4.02961 0
M  V30 6016 H 599.879 1.96253 4.4352 0
M  V30 6017 H 595.758 0.741696 4.54994 0
M  V30 6018 H 599.302 3.98826 5.72349 0
M  V30 6019 H 595.199 2.75873 5.83579 0
M  V30 6020 H 595.967 4.61883 6.75726 0
M  V30 6021 N 598.631 -1.53133 0.372548 0
M  V30 6022 C 599.877 -2.01654 -0.215277 0
M  V30 6023 C 600.21 -1.25914 -1.47849 0
M  V30 6024 O 599.485 -0.3548 -1.91237 0
M  V30 6025 C 599.768 -3.56609 -0.500187 0
M  V30 6026 C 599.621 -4.43036 0.777145 0
M  V30 6027 C 600.94 -4.20528 -1.29786 0
M  V30 6028 H 598.059 -0.732991 -0.0767686 0
M  V30 6029 H 600.701 -1.83335 0.498814 0
M  V30 6030 H 598.851 -3.7235 -1.10852 0
M  V30 6031 H 600.523 -4.39079 1.41447 0
M  V30 6032 H 598.766 -4.10723 1.39604 0
M  V30 6033 H 599.437 -5.49424 0.532662 0
M  V30 6034 H 601.913 -4.08663 -0.783198 0
M  V30 6035 H 600.789 -5.28962 -1.46596 0
M  V30 6036 H 601.05 -3.77051 -2.30836 0
M  V30 6037 N 600.109 -0.101901 -1.5727 0
M  V30 6038 C 601.334 0.571759 -1.99363 0
M  V30 6039 C 601.759 1.60507 -0.980768 0
M  V30 6040 O 601.117 1.81231 0.0498517 0
M  V30 6041 C 601.165 1.18996 -3.404 0
M  V30 6042 O 600.269 2.30572 -3.41922 0
M  V30 6043 H 599.61 0.144449 -0.648098 0
M  V30 6044 H 602.14 -0.185325 -2.03759 0
M  V30 6045 H 602.15 1.52962 -3.78241 0
M  V30 6046 H 600.825 0.432984 -4.1364 0
M  V30 6047 H 599.402 1.98173 -3.15883 0
M  V30 6048 N 601.587 1.56661 0.17182 0
M  V30 6049 C 602.534 1.96371 1.21273 0
M  V30 6050 C 603.504 0.82756 1.44016 0
M  V30 6051 O 604.689 1.08764 1.56764 0
M  V30 6052 C 601.829 2.32838 2.54716 0
M  V30 6053 C 600.942 3.59628 2.39356 0
M  V30 6054 C 600.077 3.85311 3.65662 0
M  V30 6055 C 599.116 5.0545 3.45234 0
M  V30 6056 N 598.253 5.27268 4.63608 0
M  V30 6057 H 603.093 2.85106 0.86709 0
M  V30 6058 H 600.63 1.41073 0.416744 0
M  V30 6059 H 602.588 2.52004 3.3249 0
M  V30 6060 H 601.218 1.47214 2.87277 0
M  V30 6061 H 600.27 3.4838 1.52761 0
M  V30 6062 H 601.582 4.4756 2.20207 0
M  V30 6063 H 600.736 4.04841 4.51872 0
M  V30 6064 H 599.475 2.95753 3.8779 0
M  V30 6065 H 598.48 4.85819 2.5741 0
M  V30 6066 H 599.705 5.96538 3.24529 0
M  V30 6067 H 597.651 4.40662 4.85956 0
M  V30 6068 H 597.568 6.09422 4.4737 0
M  V30 6069 H 598.836 5.51277 5.51103 0
M  V30 6070 N 603.065 -0.440357 1.51323 0
M  V30 6071 C 604.295 -1.21079 1.67402 0
M  V30 6072 C 604.703 -1.85555 0.369599 0
M  V30 6073 O 604.046 -1.71375 -0.661525 0
M  V30 6074 C 604.108 -2.33839 2.73056 0
M  V30 6075 C 603.772 -1.89755 4.15743 0
M  V30 6076 C 604.769 -1.40268 5.0062 0
M  V30 6077 C 602.454 -1.97539 4.61826 0
M  V30 6078 C 604.448 -0.991474 6.29642 0
M  V30 6079 C 602.135 -1.56029 5.90845 0
M  V30 6080 C 603.133 -1.06915 6.7458 0
M  V30 6081 O 602.821 -0.659933 8.01187 0
M  V30 6082 H 602.553 -0.371133 0.56501 0
M  V30 6083 H 605.107 -0.528409 1.98487 0
M  V30 6084 H 603.337 -3.05345 2.37279 0
M  V30 6085 H 605.026 -2.95713 2.78044 0
M  V30 6086 H 605.792 -1.33652 4.66221 0
M  V30 6087 H 601.671 -2.34713 3.96776 0
M  V30 6088 H 605.215 -0.607425 6.9495 0
M  V30 6089 H 601.112 -1.62315 6.24759 0
M  V30 6090 H 601.88 -0.786052 8.14717 0
M  V30 6091 N 604.543 -1.41418 -0.695603 0
M  V30 6092 C 605.771 -1.4413 -1.48439 0
M  V30 6093 C 606.186 -0.0465698 -1.88743 0
M  V30 6094 O 605.543 0.934117 -1.56782 0
M  V30 6095 C 605.594 -2.34998 -2.74696 0
M  V30 6096 O 605.315 -3.69043 -2.36091 0
M  V30 6097 C 606.816 -2.46513 -3.68438 0
M  V30 6098 H 604.036 -0.490905 -0.457442 0
M  V30 6099 H 606.58 -1.85702 -0.856454 0
M  V30 6100 H 604.735 -1.96735 -3.33728 0
M  V30 6101 H 605.149 -4.17505 -3.17474 0
M  V30 6102 H 606.623 -3.1426 -4.53811 0
M  V30 6103 H 607.1 -1.49638 -4.12922 0
M  V30 6104 H 607.706 -2.85412 -3.1531 0
M  V30 6105 N 606.021 0.929856 -1.27246 0
M  V30 6106 C 607.27 1.67182 -1.12842 0
M  V30 6107 C 607.583 1.9287 0.325666 0
M  V30 6108 O 608.789 2.64999 0.590572 0
M  V30 6109 C 607.245 3.01097 -1.97151 0
M  V30 6110 C 606.853 2.83115 -3.47203 0
M  V30 6111 C 608.597 3.78907 -1.91389 0
M  V30 6112 C 606.504 4.12573 -4.23719 0
M  V30 6113 H 605.434 0.627064 -0.418697 0
M  V30 6114 H 608.085 1.0332 -1.51649 0
M  V30 6115 H 606.467 3.66004 -1.51186 0
M  V30 6116 H 607.641 2.26989 -4.01015 0
M  V30 6117 H 605.956 2.18736 -3.54321 0
M  V30 6118 H 608.553 4.74837 -2.45834 0
M  V30 6119 H 608.896 4.0674 -0.887047 0
M  V30 6120 H 609.429 3.20794 -2.35237 0
M  V30 6121 H 606.168 3.8992 -5.26918 0
M  V30 6122 H 605.688 4.68371 -3.74685 0
M  V30 6123 H 607.367 4.8095 -4.32777 0
M  V30 6124 N 607.499 1.09233 1.13605 0
M  V30 6125 C 608.447 0.724572 2.21027 0
M  V30 6126 C 609.441 -0.273595 1.67176 0
M  V30 6127 O 610.647 -0.135266 1.79491 0
M  V30 6128 H 607.022 0.216319 0.720215 0
M  V30 6129 H 608.993 1.63975 2.49309 0
M  V30 6130 C 607.742 0.159126 3.47336 0
M  V30 6131 H 607.065 0.918387 3.89109 0
M  V30 6132 H 608.505 -0.0602851 4.23957 0
M  V30 6133 C 606.964 -1.10514 3.18258 0
M  V30 6134 O 607.494 -2.18869 3.36837 0
M  V30 6135 N 605.7 -1.01886 2.72154 0
M  V30 6136 H 605.247 -0.137027 2.57235 0
M  V30 6137 H 605.205 -1.8655 2.53074 0
M  V30 6138 N 608.977 -1.30795 0.87923 0
M  V30 6139 C 610.388 -1.78535 0.546093 0
M  V30 6140 C 610.739 -1.72354 -0.937467 0
M  V30 6141 O 609.864 -1.2969 -1.73233 0
M  V30 6142 C 610.459 -3.24181 0.9845 0
M  V30 6143 C 609.018 -3.69779 0.702871 0
M  V30 6144 C 608.165 -2.51377 1.17068 0
M  V30 6145 H 611.116 -1.17746 1.06403 0
M  V30 6146 H 611.137 -3.79227 0.311045 0
M  V30 6147 H 610.649 -3.28647 2.06429 0
M  V30 6148 H 608.75 -3.70806 -0.365166 0
M  V30 6149 H 608.863 -4.61507 1.28639 0
M  V30 6150 H 607.227 -2.47768 0.590172 0
M  V30 6151 H 608.01 -2.58584 2.25808 0
M  V30 6152 N 610.455 -0.639598 -1.44038 0
M  V30 6153 C 611.418 0.0506628 -2.29144 0
M  V30 6154 C 612.418 0.764001 -1.41491 0
M  V30 6155 O 613.608 0.607309 -1.63271 0
M  V30 6156 C 610.74 1.0824 -3.2326 0
M  V30 6157 H 611.933 -0.697987 -2.91664 0
M  V30 6158 H 609.486 -0.400146 -1.51091 0
M  V30 6159 H 610.221 1.86075 -2.65606 0
M  V30 6160 H 610.006 0.574725 -3.87865 0
M  V30 6161 H 611.496 1.56487 -3.87171 0
M  V30 6162 N 611.933 1.52934 -0.380664 0
M  V30 6163 C 613.182 2.00651 0.205477 0
M  V30 6164 C 613.495 1.27164 1.48623 0
M  V30 6165 O 614.701 1.65547 2.15189 0
M  V30 6166 C 613.157 3.57479 0.416726 0
M  V30 6167 C 612.765 4.39857 -0.850268 0
M  V30 6168 C 614.509 4.13509 0.959702 0
M  V30 6169 C 612.416 5.88269 -0.607773 0
M  V30 6170 H 611.346 0.749684 0.0805614 0
M  V30 6171 H 613.997 1.76508 -0.501732 0
M  V30 6172 H 612.379 3.77836 1.18557 0
M  V30 6173 H 613.553 4.31269 -1.62307 0
M  V30 6174 H 611.868 3.95005 -1.31756 0
M  V30 6175 H 614.465 5.22039 1.15669 0
M  V30 6176 H 614.808 3.69054 1.92626 0
M  V30 6177 H 615.341 3.9701 0.250645 0
M  V30 6178 H 612.08 6.3703 -1.54509 0
M  V30 6179 H 611.6 5.99667 0.126247 0
M  V30 6180 H 613.279 6.46558 -0.239014 0
M  V30 6181 N 613.412 0.11024 1.57214 0
M  V30 6182 C 614.375 -0.828808 2.1369 0
M  V30 6183 C 615.375 -1.20059 1.06969 0
M  V30 6184 O 616.565 -1.12754 1.32786 0
M  V30 6185 C 613.697 -2.11959 2.66994 0
M  V30 6186 H 614.89 -0.338146 2.97988 0
M  V30 6187 H 612.443 -0.138913 1.55681 0
M  V30 6188 H 613.178 -2.65476 1.8626 0
M  V30 6189 H 612.963 -1.86258 3.45037 0
M  V30 6190 H 614.453 -2.79105 3.10629 0
M  V30 6191 N 614.89 -1.56749 -0.16351 0
M  V30 6192 C 615.822 -1.93587 -1.22705 0
M  V30 6193 C 616.835 -0.829824 -1.40063 0
M  V30 6194 O 618.024 -1.10826 -1.39928 0
M  V30 6195 C 615.124 -2.1803 -2.59454 0
M  V30 6196 C 614.297 -3.4928 -2.63292 0
M  V30 6197 C 613.356 -3.62457 -3.8146 0
M  V30 6198 O 612.382 -4.35004 -3.67096 0
M  V30 6199 N 613.584 -2.97888 -4.9824 0
M  V30 6200 H 616.349 -2.8542 -0.914081 0
M  V30 6201 H 613.91 -1.58 -0.353214 0
M  V30 6202 H 615.902 -2.24102 -3.36987 0
M  V30 6203 H 614.472 -1.32543 -2.8311 0
M  V30 6204 H 613.692 -3.54795 -1.71796 0
M  V30 6205 H 614.98 -4.35632 -2.62873 0
M  V30 6206 H 614.378 -2.38833 -5.12811 0
M  V30 6207 H 612.935 -3.09545 -5.73607 0
M  V30 6208 N 616.368 0.432326 -1.51554 0
M  V30 6209 C 617.616 1.17901 -1.64146 0
M  V30 6210 C 617.937 1.91604 -0.362367 0
M  V30 6211 O 617.207 1.85764 0.621968 0
M  V30 6212 H 615.787 0.438206 -0.604966 0
M  V30 6213 H 618.449 0.495172 -1.88505 0
M  V30 6214 H 617.545 1.90584 -2.47152 0
M  V30 6215 N 617.846 1.41785 0.688094 0
M  V30 6216 C 618.779 1.38643 1.81255 0
M  V30 6217 C 619.757 0.252583 1.60626 0
M  V30 6218 O 620.941 0.440691 1.83276 0
M  V30 6219 C 618.068 1.16449 3.18053 0
M  V30 6220 C 617.114 2.32651 3.57457 0
M  V30 6221 S 617.947 3.95152 3.61407 0
M  V30 6222 C 619.103 3.75275 5.00919 0
M  V30 6223 H 619.336 2.33799 1.83644 0
M  V30 6224 H 616.869 1.28398 0.857513 0
M  V30 6225 H 618.827 1.0433 3.97021 0
M  V30 6226 H 617.488 0.229002 3.13264 0
M  V30 6227 H 616.681 2.12835 4.56856 0
M  V30 6228 H 616.283 2.41215 2.85817 0
M  V30 6229 H 618.575 3.35443 5.88629 0
M  V30 6230 H 619.518 4.74302 5.25778 0
M  V30 6231 H 619.926 3.08401 4.7281 0
M  V30 6232 N 619.324 -0.923095 1.27737 0
M  V30 6233 C 620.287 -2.00587 1.10894 0
M  V30 6234 C 621.287 -1.60718 0.0514927 0
M  V30 6235 O 622.477 -1.71658 0.296481 0
M  V30 6236 C 619.609 -3.33829 0.690717 0
M  V30 6237 H 620.802 -2.16959 2.07048 0
M  V30 6238 H 618.355 -1.10451 1.1059 0
M  V30 6239 H 619.09 -3.23157 -0.272 0
M  V30 6240 H 618.875 -3.64125 1.45448 0
M  V30 6241 H 620.365 -4.13336 0.595252 0
M  V30 6242 N 620.802 -1.09834 -1.13024 0
M  V30 6243 C 621.752 -0.710899 -2.16634 0
M  V30 6244 C 622.736 0.276836 -1.58501 0
M  V30 6245 O 623.928 0.0865457 -1.76788 0
M  V30 6246 C 621.057 -0.137574 -3.43024 0
M  V30 6247 C 620.143 -1.15198 -4.08155 0
M  V30 6248 N 620.534 -2.34054 -4.48388 0
M  V30 6249 C 618.832 -0.991074 -4.34849 0
M  V30 6250 C 619.533 -2.98616 -4.99203 0
M  V30 6251 N 618.509 -2.26159 -4.94321 0
M  V30 6252 H 622.311 -1.61576 -2.455 0
M  V30 6253 H 619.825 -0.975158 -1.29863 0
M  V30 6254 H 621.822 0.158031 -4.166 0
M  V30 6255 H 620.482 0.762088 -3.1563 0
M  V30 6256 H 621.493 -2.7162 -4.40957 0
M  V30 6257 H 618.17 -0.146448 -4.17243 0
M  V30 6258 H 619.56 -3.99683 -5.40096 0
M  V30 6259 N 622.28 1.30327 -0.886154 0
M  V30 6260 C 623.19 2.31854 -0.357866 0
M  V30 6261 C 624.206 1.65392 0.540502 0
M  V30 6262 O 625.382 1.96683 0.433339 0
M  V30 6263 C 622.447 3.44171 0.417999 0
M  V30 6264 C 621.508 4.26257 -0.510263 0
M  V30 6265 C 620.741 5.3321 0.228669 0
M  V30 6266 O 620.964 5.51542 1.45458 0
M  V30 6267 O 619.898 6.0042 -0.421832 0
M  V30 6268 H 623.724 2.78995 -1.19982 0
M  V30 6269 H 621.309 1.34518 -0.650028 0
M  V30 6270 H 623.191 4.12588 0.857251 0
M  V30 6271 H 621.866 2.99164 1.23623 0
M  V30 6272 H 620.773 3.60533 -0.99835 0
M  V30 6273 H 622.106 4.74871 -1.29454 0
M  V30 6274 N 623.758 0.647228 1.43697 0
M  V30 6275 C 625.004 0.158422 2.0218 0
M  V30 6276 C 625.337 -1.22233 1.50907 0
M  V30 6277 O 624.612 -1.81478 0.699702 0
M  V30 6278 C 624.895 0.1627 3.59732 0
M  V30 6279 C 624.748 1.57694 4.21251 0
M  V30 6280 C 626.067 -0.504138 4.37203 0
M  V30 6281 H 623.186 0.059042 0.734631 0
M  V30 6282 H 625.828 0.826772 1.71069 0
M  V30 6283 H 623.978 -0.406414 3.86368 0
M  V30 6284 H 625.65 2.19618 4.05667 0
M  V30 6285 H 623.893 2.12603 3.7813 0
M  V30 6286 H 624.564 1.53183 5.3032 0
M  V30 6287 H 627.04 -0.0199841 4.16095 0
M  V30 6288 H 625.916 -0.470394 5.46881 0
M  V30 6289 H 626.177 -1.57726 4.13007 0
M  V30 6290 N 625.236 -1.5273 0.388769 0
M  V30 6291 C 626.484 -2.01174 -0.193208 0
M  V30 6292 C 626.805 -1.27705 -1.47365 0
M  V30 6293 O 626.075 -0.396966 -1.91836 0
M  V30 6294 H 624.655 -0.743287 -0.0743871 0
M  V30 6295 H 627.317 -1.87826 0.520336 0
M  V30 6296 H 626.413 -3.09477 -0.403803 0
M  V30 6297 N 626.714 -0.118576 -1.57153 0
M  V30 6298 C 627.939 0.550582 -1.99958 0
M  V30 6299 C 628.364 1.59458 -0.997736 0
M  V30 6300 O 627.722 1.81274 0.0306269 0
M  V30 6301 C 627.77 1.15379 -3.41643 0
M  V30 6302 O 626.874 2.26932 -3.44348 0
M  V30 6303 H 626.215 0.137567 -0.649593 0
M  V30 6304 H 628.745 -0.206926 -2.03551 0
M  V30 6305 H 628.755 1.48942 -3.79843 0
M  V30 6306 H 627.43 0.389087 -4.14076 0
M  V30 6307 H 626.007 1.94812 -3.17967 0
M  V30 6308 N 628.193 1.56834 0.155195 0
M  V30 6309 C 629.442 1.82088 0.867567 0
M  V30 6310 C 629.755 0.69849 1.82703 0
M  V30 6311 O 630.961 0.836407 2.58295 0
M  V30 6312 C 629.417 3.22707 1.59336 0
M  V30 6313 C 629.025 4.42859 0.676719 0
M  V30 6314 C 630.769 3.57242 2.293 0
M  V30 6315 C 628.676 5.74501 1.40367 0
M  V30 6316 H 627.606 0.679057 0.327715 0
M  V30 6317 H 630.257 1.83105 0.120351 0
M  V30 6318 H 628.639 3.16054 2.38591 0
M  V30 6319 H 629.813 4.60731 -0.0800196 0
M  V30 6320 H 628.128 4.16311 0.0859129 0
M  V30 6321 H 630.725 4.52847 2.84312 0
M  V30 6322 H 631.068 2.82901 3.05406 0
M  V30 6323 H 631.601 3.6552 1.56972 0
M  V30 6324 H 628.34 6.51915 0.684623 0
M  V30 6325 H 627.86 5.60579 2.13332 0
M  V30 6326 H 629.539 6.17016 1.94681 0
M  V30 6327 N 629.671 -0.424282 1.51781 0
M  V30 6328 C 630.581 -1.54087 1.76902 0
M  V30 6329 C 631.597 -1.61249 0.653826 0
M  V30 6330 O 632.773 -1.78247 0.937552 0
M  V30 6331 C 629.838 -2.8996 1.90063 0
M  V30 6332 C 628.899 -2.92809 3.13945 0
M  V30 6333 C 628.132 -4.22201 3.26469 0
M  V30 6334 O 628.355 -5.15286 2.44616 0
M  V30 6335 O 627.289 -4.31599 4.1953 0
M  V30 6336 H 631.115 -1.358 2.71647 0
M  V30 6337 H 628.7 -0.608618 1.36441 0
M  V30 6338 H 630.582 -3.70575 2.0063 0
M  V30 6339 H 629.257 -3.08347 0.985067 0
M  V30 6340 H 628.164 -2.11102 3.08847 0
M  V30 6341 H 629.497 -2.79369 4.05233 0
M  V30 6342 N 631.149 -1.42148 -0.680565 0
M  V30 6343 C 632.059 -1.47565 -1.82378 0
M  V30 6344 C 633.075 -0.36489 -1.70131 0
M  V30 6345 O 634.251 -0.614916 -1.91783 0
M  V30 6346 C 631.316 -1.37013 -3.18478 0
M  V30 6347 C 630.377 -2.58532 -3.42724 0
M  V30 6348 C 629.61 -2.48473 -4.72331 0
M  V30 6349 O 629.833 -1.51745 -5.49845 0
M  V30 6350 O 628.767 -3.38503 -4.97694 0
M  V30 6351 H 632.593 -2.44045 -1.80764 0
M  V30 6352 H 630.178 -1.23849 -0.835569 0
M  V30 6353 H 632.06 -1.33468 -3.99705 0
M  V30 6354 H 630.735 -0.436552 -3.20743 0
M  V30 6355 H 629.642 -2.67652 -2.61368 0
M  V30 6356 H 630.975 -3.50769 -3.45286 0
M  V30 6357 N 632.627 0.916307 -1.28225 0
M  V30 6358 C 633.875 1.6619 -1.15002 0
M  V30 6359 C 634.196 1.92642 0.302329 0
M  V30 6360 O 633.466 1.54076 1.20985 0
M  V30 6361 H 632.046 0.615964 -0.422608 0
M  V30 6362 H 634.708 1.09963 -1.60917 0
M  V30 6363 H 633.804 2.62533 -1.68769 0
M  V30 6364 N 634.105 1.10431 1.1244 0
M  V30 6365 C 635.052 0.753103 2.18167 0
M  V30 6366 C 636.022 -0.270549 1.63882 0
M  V30 6367 O 637.207 -0.149837 1.90211 0
M  V30 6368 C 634.347 0.191046 3.44571 0
M  V30 6369 C 633.46 1.26999 4.12911 0
M  V30 6370 C 632.595 0.669586 5.26963 0
M  V30 6371 C 631.634 1.72912 5.87169 0
M  V30 6372 N 630.771 1.14898 6.92635 0
M  V30 6373 H 635.611 1.65892 2.47556 0
M  V30 6374 H 633.148 0.828631 1.21541 0
M  V30 6375 H 635.106 -0.152712 4.1692 0
M  V30 6376 H 633.736 -0.677997 3.15599 0
M  V30 6377 H 632.788 1.73087 3.3874 0
M  V30 6378 H 634.1 2.07204 4.53727 0
M  V30 6379 H 633.254 0.275274 6.06075 0
M  V30 6380 H 631.993 -0.163895 4.87425 0
M  V30 6381 H 630.998 2.13286 5.06744 0
M  V30 6382 H 632.223 2.56544 6.28778 0
M  V30 6383 H 630.169 0.336956 6.55134 0
M  V30 6384 H 630.086 1.88786 7.32049 0
M  V30 6385 H 631.354 0.78121 7.75576 0
M  V30 6386 N 635.583 -1.29855 0.893053 0
M  V30 6387 C 636.83 -1.95826 0.515585 0
M  V30 6388 C 637.158 -1.70451 -0.936842 0
M  V30 6389 O 636.413 -1.00657 -1.67829 0
M  V30 6390 C 636.712 -3.49515 0.746588 0
M  V30 6391 C 636.378 -3.94955 2.17535 0
M  V30 6392 C 635.04 -4.07073 2.56603 0
M  V30 6393 C 637.392 -4.18536 3.10607 0
M  V30 6394 C 634.72 -4.40138 3.87938 0
M  V30 6395 C 637.072 -4.53073 4.41484 0
M  V30 6396 C 635.736 -4.634 4.80434 0
M  V30 6397 H 635.006 -0.71658 0.188666 0
M  V30 6398 H 637.653 -1.54574 1.13045 0
M  V30 6399 H 635.958 -3.9177 0.0487551 0
M  V30 6400 H 637.655 -3.98644 0.434009 0
M  V30 6401 H 634.245 -3.86035 1.86212 0
M  V30 6402 H 638.429 -4.08646 2.81641 0
M  V30 6403 H 633.685 -4.46335 4.17846 0
M  V30 6404 H 637.859 -4.70269 5.13634 0
M  V30 6405 H 635.486 -4.88775 5.82239 0
M  V30 6406 N 637.061 -0.65484 -1.43351 0
M  V30 6407 C 638.024 0.0263562 -2.29185 0
M  V30 6408 C 639.024 0.748951 -1.42293 0
M  V30 6409 O 640.214 0.589957 -1.63906 0
M  V30 6410 C 637.346 1.04806 -3.2439 0
M  V30 6411 H 638.539 -0.728883 -2.90908 0
M  V30 6412 H 636.092 -0.416149 -1.50658 0
M  V30 6413 H 636.827 1.83247 -2.67565 0
M  V30 6414 H 636.612 0.533554 -3.88453 0
M  V30 6415 H 638.102 1.52372 -3.88809 0
M  V30 6416 N 638.539 1.52521 -0.396863 0
M  V30 6417 C 639.816 1.94112 0.240842 0
M  V30 6418 C 640.196 1.33288 1.637 0
M  V30 6419 O 639.544 0.503901 2.22875 0
M  V30 6420 C 639.754 3.48033 0.259567 0
M  V30 6421 C 641.102 4.21822 0.484866 0
M  V30 6422 O 642.126 3.54579 0.339453 0
M  V30 6423 O 640.985 5.41042 0.770412 0
M  V30 6424 H 638.079 0.812973 0.151671 0
M  V30 6425 H 640.625 1.63572 -0.451918 0
M  V30 6426 H 639.397 3.84655 -0.718078 0
M  V30 6427 H 639.02 3.84899 0.996937 0
M  V30 6428 N 640.017 0.126909 1.57088 0
M  V30 6429 C 640.947 -0.816847 2.18746 0
M  V30 6430 C 641.928 -1.27161 1.12979 0
M  V30 6431 O 643.113 -1.33279 1.41246 0
M  V30 6432 C 640.243 -2.06398 2.79315 0
M  V30 6433 C 639.197 -1.74673 3.90735 0
M  V30 6434 C 638.523 -3.06482 4.38147 0
M  V30 6435 C 639.823 -1.0089 5.12463 0
M  V30 6436 H 641.517 -0.303032 2.97863 0
M  V30 6437 H 639.063 -0.144314 1.43275 0
M  V30 6438 H 641.016 -2.72885 3.2111 0
M  V30 6439 H 639.74 -2.60118 1.975 0
M  V30 6440 H 638.399 -1.10572 3.49527 0
M  V30 6441 H 638.047 -3.58152 3.5318 0
M  V30 6442 H 637.747 -2.86025 5.13287 0
M  V30 6443 H 639.271 -3.74073 4.82599 0
M  V30 6444 H 640.685 -1.57546 5.51228 0
M  V30 6445 H 639.082 -0.905006 5.93237 0
M  V30 6446 H 640.152 0.00297335 4.849 0
M  V30 6447 N 641.495 -1.56914 -0.146875 0
M  V30 6448 C 642.741 -1.83628 -0.860741 0
M  V30 6449 C 643.074 -0.708528 -1.80813 0
M  V30 6450 O 642.349 0.287838 -1.92358 0
M  V30 6451 C 642.632 -3.20836 -1.63511 0
M  V30 6452 C 642.485 -4.44174 -0.709199 0
M  V30 6453 C 643.804 -3.55268 -2.59756 0
M  V30 6454 H 640.923 -0.667949 -0.311468 0
M  V30 6455 H 643.565 -1.89582 -0.125936 0
M  V30 6456 H 641.715 -3.15891 -2.26153 0
M  V30 6457 H 643.387 -4.61205 -0.0937781 0
M  V30 6458 H 641.63 -4.33796 -0.0187856 0
M  V30 6459 H 642.301 -5.36785 -1.28707 0
M  V30 6460 H 644.777 -3.60824 -2.07232 0
M  V30 6461 H 643.653 -4.52303 -3.10987 0
M  V30 6462 H 643.914 -2.81231 -3.41118 0
M  V30 6463 N 642.974 0.416227 -1.52004 0
M  V30 6464 C 643.904 1.51365 -1.77795 0
M  V30 6465 C 644.885 1.58059 -0.628601 0
M  V30 6466 O 646.07 1.73447 -0.873478 0
M  V30 6467 C 643.2 2.89256 -1.92219 0
M  V30 6468 C 642.154 2.97415 -3.0778 0
M  V30 6469 C 641.48 4.37492 -3.07417 0
M  V30 6470 C 642.78 2.69551 -4.47369 0
M  V30 6471 H 644.474 1.30033 -2.69688 0
M  V30 6472 H 642.02 0.624112 -1.29772 0
M  V30 6473 H 643.973 3.66008 -2.08845 0
M  V30 6474 H 642.697 3.11866 -0.969917 0
M  V30 6475 H 641.356 2.23107 -2.90893 0
M  V30 6476 H 641.004 4.571 -2.09925 0
M  V30 6477 H 640.704 4.43877 -3.85029 0
M  V30 6478 H 642.228 5.16188 -3.26162 0
M  V30 6479 H 643.642 3.36028 -4.64497 0
M  V30 6480 H 642.039 2.87321 -5.26846 0
M  V30 6481 H 643.109 1.65029 -4.55953 0
M  V30 6482 N 644.452 1.42507 0.673017 0
M  V30 6483 C 645.698 1.44282 1.43367 0
M  V30 6484 C 646.053 0.0588239 1.9231 0
M  V30 6485 O 645.346 -0.919288 1.68106 0
M  V30 6486 C 645.54 2.40351 2.64511 0
M  V30 6487 C 645.369 3.87955 2.27423 0
M  V30 6488 C 644.139 4.56476 2.16697 0
M  V30 6489 C 646.337 4.7833 1.88957 0
M  V30 6490 N 644.319 5.89099 1.72731 0
M  V30 6491 C 645.69 6.00073 1.55923 0
M  V30 6492 C 647.745 4.65769 1.75965 0
M  V30 6493 C 646.448 7.10652 1.112 0
M  V30 6494 C 648.474 5.76332 1.32647 0
M  V30 6495 C 647.836 6.97188 1.00538 0
M  V30 6496 H 643.935 0.583134 0.521036 0
M  V30 6497 H 646.519 1.78547 0.776481 0
M  V30 6498 H 644.69 2.08145 3.27918 0
M  V30 6499 H 646.422 2.32694 3.31113 0
M  V30 6500 H 643.177 4.10712 2.35823 0
M  V30 6501 H 643.601 6.59446 1.53166 0
M  V30 6502 H 648.243 3.72808 1.99435 0
M  V30 6503 H 645.961 8.0346 0.864768 0
M  V30 6504 H 649.547 5.68625 1.23112 0
M  V30 6505 H 648.427 7.81287 0.675283 0
M  V30 6506 N 645.93 -0.909495 1.28709 0
M  V30 6507 C 646.84 -2.04558 1.14861 0
M  V30 6508 C 647.856 -1.73842 0.0741621 0
M  V30 6509 O 649.032 -1.99383 0.2843 0
M  V30 6510 C 646.097 -3.36957 0.816148 0
M  V30 6511 C 645.158 -3.81255 1.97341 0
M  V30 6512 C 644.391 -5.07335 1.65671 0
M  V30 6513 O 644.614 -5.67514 0.573053 0
M  V30 6514 O 643.548 -5.47449 2.50167 0
M  V30 6515 H 647.374 -2.19161 2.10243 0
M  V30 6516 H 644.959 -1.03159 1.08068 0
M  V30 6517 H 646.841 -4.16436 0.644873 0
M  V30 6518 H 645.516 -3.2352 -0.107983 0
M  V30 6519 H 644.423 -3.02584 2.19986 0
M  V30 6520 H 645.756 -3.99261 2.87839 0
M  V30 6521 N 647.408 -1.11026 -1.11852 0
M  V30 6522 C 648.819 -0.873203 -1.65021 0
M  V30 6523 C 649.17 0.595364 -1.86949 0
M  V30 6524 O 648.295 1.45645 -1.60051 0
M  V30 6525 C 648.89 -1.57859 -2.99777 0
M  V30 6526 C 647.449 -1.38807 -3.49871 0
M  V30 6527 C 646.596 -1.62403 -2.24768 0
M  V30 6528 H 649.547 -1.26712 -0.955503 0
M  V30 6529 H 649.568 -1.02111 -3.66543 0
M  V30 6530 H 649.08 -2.6474 -2.83786 0
M  V30 6531 H 647.181 -0.341163 -3.71035 0
M  V30 6532 H 647.294 -2.13421 -4.28938 0
M  V30 6533 H 645.658 -1.04714 -2.32179 0
M  V30 6534 H 646.441 -2.70549 -2.11324 0
M  V30 6535 N 648.886 1.2938 -0.899927 0
M  V30 6536 C 649.833 2.27713 -0.376243 0
M  V30 6537 C 650.803 1.57016 0.541774 0
M  V30 6538 O 651.988 1.84997 0.466966 0
M  V30 6539 C 649.128 3.42889 0.39 0
M  V30 6540 C 648.241 4.28369 -0.558938 0
M  V30 6541 C 647.376 5.30726 0.224379 0
M  V30 6542 C 646.415 6.07862 -0.719068 0
M  V30 6543 N 645.552 7.02094 0.0298569 0
M  V30 6544 H 650.392 2.71888 -1.21988 0
M  V30 6545 H 647.929 1.33724 -0.612879 0
M  V30 6546 H 649.887 4.08443 0.850314 0
M  V30 6547 H 648.517 2.99743 1.19809 0
M  V30 6548 H 647.569 3.62986 -1.13777 0
M  V30 6549 H 648.881 4.82068 -1.2811 0
M  V30 6550 H 648.035 6.02098 0.745881 0
M  V30 6551 H 646.774 4.77759 0.979674 0
M  V30 6552 H 645.779 5.35353 -1.25207 0
M  V30 6553 H 647.004 6.62917 -1.4737 0
M  V30 6554 H 644.95 6.51496 0.767415 0
M  V30 6555 H 644.867 7.5335 -0.632391 0
M  V30 6556 H 646.135 7.77685 0.531615 0
M  V30 6557 N 650.364 0.662433 1.43002 0
M  V30 6558 C 651.611 0.179591 2.01702 0
M  V30 6559 C 651.939 -1.20964 1.52309 0
M  V30 6560 O 651.194 -1.82343 0.7106 0
M  V30 6561 C 651.493 0.149363 3.57088 0
M  V30 6562 C 651.159 1.48158 4.25864 0
M  V30 6563 C 649.821 1.84638 4.44367 0
M  V30 6564 C 652.173 2.35953 4.64732 0
M  V30 6565 C 649.501 3.08561 4.99006 0
M  V30 6566 C 651.853 3.59176 5.20745 0
M  V30 6567 C 650.517 3.95841 5.37463 0
M  V30 6568 H 649.787 0.0657172 0.73808 0
M  V30 6569 H 652.434 0.854968 1.71355 0
M  V30 6570 H 650.739 -0.609491 3.8703 0
M  V30 6571 H 652.436 -0.241241 4.00274 0
M  V30 6572 H 649.026 1.18777 4.11813 0
M  V30 6573 H 653.21 2.09058 4.50121 0
M  V30 6574 H 648.466 3.37005 5.10135 0
M  V30 6575 H 652.64 4.27417 5.49807 0
M  V30 6576 H 650.267 4.91942 5.79566 0
M  V30 6577 N 651.842 -1.52309 0.404946 0
M  V30 6578 C 653.089 -2.01767 -0.1722 0
M  V30 6579 C 653.417 -1.29075 -1.45498 0
M  V30 6580 O 652.672 -0.3843 -1.9189 0
M  V30 6581 C 652.971 -3.54284 -0.470895 0
M  V30 6582 C 652.637 -4.45079 0.722194 0
M  V30 6583 C 651.299 -4.69617 1.04946 0
M  V30 6584 C 653.651 -4.98555 1.51962 0
M  V30 6585 C 650.979 -5.44878 2.17543 0
M  V30 6586 C 653.331 -5.75049 2.63632 0
M  V30 6587 C 651.995 -5.9786 2.9685 0
M  V30 6588 H 651.265 -0.738316 -0.0630125 0
M  V30 6589 H 653.912 -1.83566 0.545506 0
M  V30 6590 H 652.217 -3.70642 -1.27012 0
M  V30 6591 H 653.914 -3.90058 -0.930346 0
M  V30 6592 H 650.504 -4.26155 0.457131 0
M  V30 6593 H 654.688 -4.79509 1.28002 0
M  V30 6594 H 649.944 -5.60762 2.43631 0
M  V30 6595 H 654.118 -6.15483 3.25813 0
M  V30 6596 H 651.745 -6.5596 3.84215 0
M  V30 6597 N 653.32 -0.135238 -1.57019 0
M  V30 6598 C 654.568 0.51777 -1.95355 0
M  V30 6599 C 654.889 1.6617 -1.02042 0
M  V30 6600 O 654.159 1.95738 -0.0797343 0
M  V30 6601 H 652.739 0.194264 -0.721298 0
M  V30 6602 H 655.401 -0.207983 -1.93787 0
M  V30 6603 H 654.497 0.901675 -2.98791 0
M  V30 6604 N 654.798 1.5699 0.138552 0
M  V30 6605 C 656.044 1.84081 0.85099 0
M  V30 6606 C 656.377 0.718107 1.80435 0
M  V30 6607 O 655.652 -0.277633 1.92508 0
M  V30 6608 C 655.935 3.21699 1.61808 0
M  V30 6609 C 655.788 4.44544 0.685633 0
M  V30 6610 C 657.107 3.5664 2.57868 0
M  V30 6611 H 654.226 0.669592 0.307922 0
M  V30 6612 H 656.868 1.89646 0.11588 0
M  V30 6613 H 655.018 3.17086 2.24474 0
M  V30 6614 H 656.69 4.61248 0.0693179 0
M  V30 6615 H 654.933 4.338 -0.00421993 0
M  V30 6616 H 655.604 5.3746 1.25858 0
M  V30 6617 H 658.08 3.61918 2.05316 0
M  V30 6618 H 656.956 4.53946 3.08584 0
M  V30 6619 H 657.217 2.83036 3.39622 0
M  V30 6620 N 656.276 -0.40816 1.52223 0
M  V30 6621 C 657.223 -1.49737 1.75635 0
M  V30 6622 C 658.193 -1.5493 0.598824 0
M  V30 6623 O 659.378 -1.71487 0.83648 0
M  V30 6624 C 656.518 -2.87174 1.91376 0
M  V30 6625 C 655.631 -2.91283 3.19027 0
M  V30 6626 C 654.766 -4.20026 3.25195 0
M  V30 6627 C 653.805 -4.18113 4.47044 0
M  V30 6628 N 652.942 -5.38429 4.50598 0
M  V30 6629 H 657.782 -1.29075 2.68596 0
M  V30 6630 H 655.319 -0.626518 1.33091 0
M  V30 6631 H 657.277 -3.66959 1.98486 0
M  V30 6632 H 655.907 -3.06329 1.01795 0
M  V30 6633 H 654.959 -2.03984 3.21084 0
M  V30 6634 H 656.271 -2.85734 4.08849 0
M  V30 6635 H 655.425 -5.08204 3.31382 0
M  V30 6636 H 654.164 -4.28271 2.33313 0
M  V30 6637 H 653.169 -3.28325 4.41002 0
M  V30 6638 H 654.394 -4.11507 5.40221 0
M  V30 6639 H 652.34 -5.4734 3.616 0
M  V30 6640 H 652.257 -5.34879 5.34266 0
M  V30 6641 H 653.525 -6.28557 4.61016 0
M  V30 6642 N 657.755 -1.42862 -0.66545 0
M  V30 6643 C 658.718 -1.46756 -1.76055 0
M  V30 6644 C 659.718 -0.353866 -1.56858 0
M  V30 6645 O 660.908 -0.615099 -1.62979 0
M  V30 6646 C 658.04 -1.30829 -3.14796 0
M  V30 6647 H 659.233 -2.44271 -1.73987 0
M  V30 6648 H 656.786 -1.29447 -0.875965 0
M  V30 6649 H 657.521 -0.342733 -3.22484 0
M  V30 6650 H 657.306 -2.11551 -3.30134 0
M  V30 6651 H 658.796 -1.36458 -3.94676 0
M  V30 6652 N 659.233 0.902656 -1.29189 0
M  V30 6653 C 660.51 1.63296 -1.07674 0
M  V30 6654 C 660.89 2.07649 0.380137 0
M  V30 6655 O 660.238 1.82997 1.36837 0
M  V30 6656 C 660.448 2.81603 -2.06158 0
M  V30 6657 C 661.796 3.52359 -2.36914 0
M  V30 6658 O 662.82 2.91767 -2.04329 0
M  V30 6659 O 661.679 4.61586 -2.92576 0
M  V30 6660 H 658.773 0.716889 -0.41231 0
M  V30 6661 H 661.319 0.950984 -1.4055 0
M  V30 6662 H 660.091 2.46004 -3.04299 0
M  V30 6663 H 659.714 3.57508 -1.73993 0
M  V30 6664 N 660.711 1.11618 1.11262 0
M  V30 6665 C 662.127 0.850468 1.35053 0
M  V30 6666 C 662.327 -0.523868 1.94571 0
M  V30 6667 O 661.383 -1.2743 2.17986 0
M  V30 6668 C 662.696 1.96005 2.28041 0
M  V30 6669 C 664.244 1.98993 2.416 0
M  V30 6670 C 664.719 3.0916 3.37911 0
M  V30 6671 N 666.21 3.08547 3.45475 0
M  V30 6672 C 666.945 3.9043 4.19943 0
M  V30 6673 N 666.441 4.8228 4.97371 0
M  V30 6674 N 668.234 3.786 4.15474 0
M  V30 6675 H 660.385 2.00184 0.709932 0
M  V30 6676 H 662.648 0.870635 0.375099 0
M  V30 6677 H 662.354 2.9499 1.91503 0
M  V30 6678 H 662.228 1.85782 3.28275 0
M  V30 6679 H 664.615 1.00633 2.77411 0
M  V30 6680 H 664.696 2.13292 1.4121 0
M  V30 6681 H 664.34 4.07748 3.02827 0
M  V30 6682 H 664.27 2.92102 4.3816 0
M  V30 6683 H 666.761 2.42 2.90249 0
M  V30 6684 H 667.074 5.41289 5.51567 0
M  V30 6685 H 665.419 4.863 4.96525 0
M  V30 6686 H 668.61 3.06185 3.54074 0
M  V30 6687 H 668.783 4.42647 4.73253 0
M  V30 6688 N 662.189 -1.289 0.906776 0
M  V30 6689 C 663.435 -1.95558 0.53712 0
M  V30 6690 C 663.768 -1.71262 -0.915582 0
M  V30 6691 O 663.043 -1.02961 -1.65013 0
M  V30 6692 C 663.326 -3.50198 0.838645 0
M  V30 6693 C 663.179 -3.83923 2.34357 0
M  V30 6694 C 664.498 -4.38861 0.329988 0
M  V30 6695 H 661.617 -0.710289 0.196617 0
M  V30 6696 H 664.259 -1.52392 1.13475 0
M  V30 6697 H 662.409 -3.87096 0.330024 0
M  V30 6698 H 664.081 -3.56933 2.92227 0
M  V30 6699 H 662.324 -3.31215 2.80141 0
M  V30 6700 H 662.995 -4.91883 2.5051 0
M  V30 6701 H 665.471 -4.08996 0.765609 0
M  V30 6702 H 664.347 -5.45931 0.570105 0
M  V30 6703 H 664.608 -4.35352 -0.769511 0
M  V30 6704 N 663.667 -0.670007 -1.42649 0
M  V30 6705 C 664.916 -0.187526 -2.00826 0
M  V30 6706 C 665.229 1.21142 -1.53571 0
M  V30 6707 O 666.435 1.79001 -2.04134 0
M  V30 6708 C 664.891 -0.284409 -3.58774 0
M  V30 6709 C 664.499 -1.6871 -4.15019 0
M  V30 6710 C 666.243 0.139605 -4.2427 0
M  V30 6711 C 664.15 -1.73701 -5.65316 0
M  V30 6712 H 663.08 -0.0663468 -0.751075 0
M  V30 6713 H 665.731 -0.834492 -1.63427 0
M  V30 6714 H 664.113 0.430364 -3.93655 0
M  V30 6715 H 665.287 -2.42857 -3.91608 0
M  V30 6716 H 663.602 -2.05855 -3.61957 0
M  V30 6717 H 666.199 0.122398 -5.3456 0
M  V30 6718 H 666.542 1.17403 -3.99402 0
M  V30 6719 H 667.075 -0.523995 -3.94334 0
M  V30 6720 H 663.814 -2.75109 -5.94975 0
M  V30 6721 H 663.334 -1.03903 -5.90732 0
M  V30 6722 H 665.013 -1.48829 -6.2965 0
M  V30 6723 N 665.145 1.52092 -0.413018 0
M  V30 6724 C 666.092 2.27119 0.410558 0
M  V30 6725 C 667.062 1.29692 1.03774 0
M  V30 6726 O 668.247 1.58561 1.06128 0
M  V30 6727 C 665.387 3.09863 1.51918 0
M  V30 6728 C 664.5 4.22252 0.912528 0
M  V30 6729 C 663.635 4.92348 1.99417 0
M  V30 6730 C 662.674 5.96694 1.36466 0
M  V30 6731 N 661.811 6.60292 2.38661 0
M  V30 6732 H 666.651 2.97067 -0.235661 0
M  V30 6733 H 664.188 1.46542 -0.128055 0
M  V30 6734 H 666.146 3.56144 2.17295 0
M  V30 6735 H 664.776 2.42078 2.13537 0
M  V30 6736 H 663.828 3.80113 0.147697 0
M  V30 6737 H 665.14 4.9709 0.412717 0
M  V30 6738 H 664.294 5.42054 2.72512 0
M  V30 6739 H 663.033 4.17087 2.52764 0
M  V30 6740 H 662.038 5.46304 0.61906 0
M  V30 6741 H 663.263 6.73899 0.838827 0
M  V30 6742 H 661.209 5.87858 2.91134 0
M  V30 6743 H 661.126 7.30816 1.93503 0
M  V30 6744 H 662.394 7.14635 3.11314 0
M  V30 6745 N 666.623 0.143563 1.56945 0
M  V30 6746 C 667.871 -0.507402 1.95627 0
M  V30 6747 C 668.192 -1.65626 1.02922 0
M  V30 6748 O 667.462 -1.95693 0.0901136 0
M  V30 6749 H 666.042 -0.190436 0.722318 0
M  V30 6750 H 668.704 0.218257 1.93674 0
M  V30 6751 H 667.8 -0.885816 2.99265 0
M  V30 6752 N 668.101 -1.57061 -0.130224 0
M  V30 6753 C 669.349 -1.83893 -0.838313 0
M  V30 6754 C 669.67 -0.727046 -1.80939 0
M  V30 6755 O 668.94 0.249927 -1.94299 0
M  V30 6756 H 667.52 -0.67846 -0.312573 0
M  V30 6757 H 670.182 -1.94529 -0.120224 0
M  V30 6758 H 669.278 -2.79419 -1.39038 0
M  V30 6759 N 669.579 0.400081 -1.52437 0
M  V30 6760 C 670.828 1.14332 -1.66166 0
M  V30 6761 C 671.141 1.91419 -0.402253 0
M  V30 6762 O 672.347 2.6824 -0.419487 0
M  V30 6763 C 670.803 2.08137 -2.9361 0
M  V30 6764 C 670.411 1.36524 -4.26691 0
M  V30 6765 C 672.155 2.82664 -3.16703 0
M  V30 6766 C 670.062 2.29031 -5.45251 0
M  V30 6767 H 668.992 0.430499 -0.61902 0
M  V30 6768 H 671.643 0.407017 -1.78929 0
M  V30 6769 H 670.025 2.85358 -2.74567 0
M  V30 6770 H 671.199 0.646061 -4.56249 0
M  V30 6771 H 669.514 0.74002 -4.09771 0
M  V30 6772 H 672.111 3.52037 -4.0246 0
M  V30 6773 H 672.454 3.46122 -2.31312 0
M  V30 6774 H 672.987 2.12541 -3.36261 0
M  V30 6775 H 669.726 1.70206 -6.33017 0
M  V30 6776 H 669.246 2.98896 -5.2002 0
M  V30 6777 H 670.925 2.89359 -5.78689 0
M  V30 6778 N 671.057 1.43213 0.657864 0
M  V30 6779 C 672.306 1.43871 1.41365 0
M  V30 6780 C 672.619 0.064898 1.95492 0
M  V30 6781 O 673.825 -0.0510796 2.71452 0
M  V30 6782 C 672.281 2.53158 2.55811 0
M  V30 6783 C 671.889 3.96624 2.08311 0
M  V30 6784 C 673.633 2.63004 3.3321 0
M  V30 6785 C 671.54 4.97385 3.1994 0
M  V30 6786 H 670.47 0.535174 0.531136 0
M  V30 6787 H 673.121 1.69185 0.710543 0
M  V30 6788 H 671.503 2.21037 3.2857 0
M  V30 6789 H 672.677 4.38182 1.42593 0
M  V30 6790 H 670.992 3.90781 1.43804 0
M  V30 6791 H 673.589 3.3546 4.16378 0
M  V30 6792 H 673.932 1.67918 3.80932 0
M  V30 6793 H 674.465 2.94403 2.67529 0
M  V30 6794 H 671.204 5.94007 2.77192 0
M  V30 6795 H 670.724 4.60444 3.84385 0
M  V30 6796 H 672.403 5.19877 3.85145 0
M  V30 6797 N 672.536 -0.895792 1.29666 0
M  V30 6798 C 673.499 -1.98189 1.15124 0
M  V30 6799 C 674.499 -1.60572 0.0855717 0
M  V30 6800 O 675.689 -1.70991 0.332826 0
M  V30 6801 C 672.821 -3.32289 0.761372 0
M  V30 6802 H 674.014 -2.12518 2.11603 0
M  V30 6803 H 671.567 -1.0808 1.12908 0
M  V30 6804 H 672.302 -3.23662 -0.203393 0
M  V30 6805 H 672.087 -3.60958 1.53139 0
M  V30 6806 H 673.577 -4.1198 0.682792 0
M  V30 6807 N 674.014 -1.12206 -1.10668 0
M  V30 6808 C 675.244 -0.897332 -1.86095 0
M  V30 6809 C 675.652 0.556778 -1.80822 0
M  V30 6810 O 674.995 1.39658 -1.19337 0
M  V30 6811 C 675.057 -1.29095 -3.35522 0
M  V30 6812 C 674.721 -2.75586 -3.64556 0
M  V30 6813 C 675.718 -3.73785 -3.6136 0
M  V30 6814 C 673.403 -3.12432 -3.93309 0
M  V30 6815 C 675.397 -5.06845 -3.86506 0
M  V30 6816 C 673.084 -4.45675 -4.18111 0
M  V30 6817 C 674.082 -5.42691 -4.147 0
M  V30 6818 O 673.77 -6.73532 -4.38873 0
M  V30 6819 H 673.502 -0.320704 -0.595084 0
M  V30 6820 H 676.056 -1.49517 -1.40833 0
M  V30 6821 H 674.286 -0.636299 -3.81429 0
M  V30 6822 H 675.975 -1.04073 -3.92331 0
M  V30 6823 H 676.741 -3.46664 -3.39189 0
M  V30 6824 H 672.62 -2.3753 -3.95096 0
M  V30 6825 H 676.164 -5.82559 -3.83758 0
M  V30 6826 H 672.061 -4.72526 -4.39761 0
M  V30 6827 H 672.829 -6.79442 -4.564 0
M  V30 6828 N 675.492 1.28418 -0.913599 0
M  V30 6829 C 676.455 2.25564 -0.406624 0
M  V30 6830 C 677.455 1.5387 0.466965 0
M  V30 6831 O 678.645 1.72094 0.270042 0
M  V30 6832 C 675.777 3.38339 0.417053 0
M  V30 6833 H 676.97 2.71926 -1.26477 0
M  V30 6834 H 674.523 1.40098 -0.692986 0
M  V30 6835 H 675.258 2.97339 1.29461 0
M  V30 6836 H 675.043 3.91542 -0.209102 0
M  V30 6837 H 676.533 4.10578 0.762602 0
M  V30 6838 N 676.97 0.677563 1.42291 0
M  V30 6839 C 677.902 -0.0380218 2.29168 0
M  V30 6840 C 678.915 -0.762714 1.43828 0
M  V30 6841 O 680.104 -0.616413 1.67519 0
M  V30 6842 C 677.204 -1.07761 3.21311 0
M  V30 6843 C 676.377 -0.42618 4.35319 0
M  V30 6844 C 675.436 -1.36592 5.08162 0
M  V30 6845 O 674.462 -0.865174 5.62586 0
M  V30 6846 N 675.664 -2.69909 5.13935 0
M  V30 6847 H 678.429 0.707766 2.91223 0
M  V30 6848 H 675.99 0.52219 1.53247 0
M  V30 6849 H 677.982 -1.70761 3.6691 0
M  V30 6850 H 676.552 -1.72511 2.60689 0
M  V30 6851 H 675.772 0.383385 3.92331 0
M  V30 6852 H 677.06 0.0275277 5.08793 0
M  V30 6853 H 676.458 -3.13129 4.71134 0
M  V30 6854 H 675.015 -3.2815 5.6317 0
M  V30 6855 N 678.448 -1.51871 0.421078 0
M  V30 6856 C 679.697 -2.01125 -0.152206 0
M  V30 6857 C 680.01 -1.3106 -1.45199 0
M  V30 6858 O 681.216 -1.71195 -2.10724 0
M  V30 6859 C 679.672 -3.58458 -0.3218 0
M  V30 6860 C 679.28 -4.37448 0.96659 0
M  V30 6861 C 681.024 -4.15908 -0.84973 0
M  V30 6862 C 678.931 -5.86451 0.763529 0
M  V30 6863 H 677.861 -0.751556 -0.0606565 0
M  V30 6864 H 680.512 -1.75115 0.548354 0
M  V30 6865 H 678.894 -3.80847 -1.08498 0
M  V30 6866 H 680.068 -4.26814 1.73684 0
M  V30 6867 H 678.383 -3.91373 1.42183 0
M  V30 6868 H 680.98 -5.24922 -1.01788 0
M  V30 6869 H 681.323 -3.74031 -1.82774 0
M  V30 6870 H 681.856 -3.97535 -0.145297 0
M  V30 6871 H 678.595 -6.3271 1.71344 0
M  V30 6872 H 678.115 -5.99791 0.0327889 0
M  V30 6873 H 679.794 -6.45697 0.410354 0
M  V30 6874 N 679.926 -0.151884 -1.56866 0
M  V30 6875 C 681.174 0.497021 -1.95893 0
M  V30 6876 C 681.495 1.65078 -1.03799 0
M  V30 6877 O 680.765 1.95642 -0.10049 0
M  V30 6878 H 679.345 0.186603 -0.723318 0
M  V30 6879 H 682.007 -0.228525 -1.93556 0
M  V30 6880 H 681.103 0.869933 -2.99731 0
M  V30 6881 N 681.404 1.57128 0.121893 0
M  V30 6882 C 682.681 1.75664 0.860327 0
M  V30 6883 C 683.061 0.726585 1.98202 0
M  V30 6884 O 682.409 -0.24999 2.27128 0
M  V30 6885 C 682.619 3.20571 1.37968 0
M  V30 6886 C 683.967 3.82988 1.83317 0
M  V30 6887 O 684.991 3.24156 1.47654 0
M  V30 6888 O 683.85 4.86393 2.49168 0
M  V30 6889 H 680.944 0.719153 0.408348 0
M  V30 6890 H 683.49 1.6937 0.105859 0
M  V30 6891 H 682.262 3.87056 0.57477 0
M  V30 6892 H 681.885 3.31392 2.19694 0
M  V30 6893 N 682.882 -0.391992 1.52647 0
M  V30 6894 C 684.293 -0.970064 1.5952 0
M  V30 6895 C 684.644 -1.91059 0.446207 0
M  V30 6896 O 683.769 -2.12062 -0.431125 0
M  V30 6897 C 684.364 -1.76614 2.89125 0
M  V30 6898 C 682.923 -2.29396 2.9842 0
M  V30 6899 C 682.07 -1.09864 2.54608 0
M  V30 6900 H 685.021 -0.171638 1.57769 0
M  V30 6901 H 685.042 -2.62511 2.75442 0
M  V30 6902 H 684.554 -1.08135 3.72731 0
M  V30 6903 H 682.655 -3.01196 2.19344 0
M  V30 6904 H 682.768 -2.59088 4.03002 0
M  V30 6905 H 681.132 -1.45777 2.08857 0
M  V30 6906 H 681.915 -0.429249 3.40606 0
M  V30 6907 N 684.36 -1.4356 -0.65026 0
M  V30 6908 C 685.585 -1.48995 -1.44275 0
M  V30 6909 C 686.01 -0.109954 -1.87778 0
M  V30 6910 O 685.368 0.896926 -1.57559 0
M  V30 6911 C 685.416 -2.44341 -2.65198 0
M  V30 6912 O 684.52 -1.93172 -3.6436 0
M  V30 6913 H 683.861 -0.503852 -0.432469 0
M  V30 6914 H 686.391 -1.88504 -0.795446 0
M  V30 6915 H 686.401 -2.61743 -3.12977 0
M  V30 6916 H 685.076 -3.44588 -2.32877 0
M  V30 6917 H 683.653 -1.85445 -3.23519 0
M  V30 6918 N 685.838 0.888903 -1.30139 0
M  V30 6919 C 686.801 1.97576 -1.16174 0
M  V30 6920 C 687.801 1.60525 -0.094086 0
M  V30 6921 O 688.991 1.70812 -0.341889 0
M  V30 6922 C 686.123 3.3188 -0.778983 0
M  V30 6923 H 687.316 2.11393 -2.12728 0
M  V30 6924 H 684.869 1.0748 -1.1348 0
M  V30 6925 H 685.604 3.23765 0.186225 0
M  V30 6926 H 685.389 3.60141 -1.55051 0
M  V30 6927 H 686.879 4.11612 -0.704631 0
M  V30 6928 N 687.317 1.12792 1.10072 0
M  V30 6929 C 688.542 0.908838 1.86427 0
M  V30 6930 C 688.967 -0.536793 1.80278 0
M  V30 6931 O 688.325 -1.38033 1.17543 0
M  V30 6932 C 688.373 1.39295 3.3261 0
M  V30 6933 O 687.477 0.573846 4.08388 0
M  V30 6934 H 686.818 0.326234 0.578331 0
M  V30 6935 H 689.348 1.50094 1.39043 0
M  V30 6936 H 689.358 1.39366 3.83459 0
M  V30 6937 H 688.033 2.44555 3.36401 0
M  V30 6938 H 686.61 0.640438 3.67359 0
M  V30 6939 N 688.795 -1.27931 0.920396 0
M  V30 6940 C 690.044 -1.93975 0.552867 0
M  V30 6941 C 690.357 -1.73193 -0.909035 0
M  V30 6942 O 691.563 -2.33515 -1.38502 0
M  V30 6943 C 690.019 -3.47463 0.937947 0
M  V30 6944 C 689.627 -3.77013 2.42003 0
M  V30 6945 C 691.371 -4.19628 0.64132 0
M  V30 6946 C 689.278 -5.23841 2.74489 0
M  V30 6947 H 688.208 -0.726146 0.203046 0
M  V30 6948 H 690.859 -1.45339 1.12022 0
M  V30 6949 H 689.241 -3.94867 0.299317 0
M  V30 6950 H 690.415 -3.40393 3.10595 0
M  V30 6951 H 688.73 -3.18035 2.6878 0
M  V30 6952 H 691.327 -5.27729 0.860622 0
M  V30 6953 H 691.67 -4.14164 -0.421168 0
M  V30 6954 H 692.203 -3.78022 1.23872 0
M  V30 6955 H 688.942 -5.34388 3.79618 0
M  V30 6956 H 688.462 -5.61634 2.1054 0
M  V30 6957 H 690.141 -5.91647 2.61845 0
M  V30 6958 N 690.273 -0.685099 -1.4193 0
M  V30 6959 C 691.684 -0.287699 -1.8447 0
M  V30 6960 C 692.035 1.17215 -1.57338 0
M  V30 6961 O 691.16 1.89856 -1.03845 0
M  V30 6962 C 691.755 -0.515385 -3.34857 0
M  V30 6963 C 690.314 -0.172006 -3.76007 0
M  V30 6964 C 689.461 -0.802808 -2.65425 0
M  V30 6965 H 692.412 -0.88652 -1.3163 0
M  V30 6966 H 692.433 0.229251 -3.79809 0
M  V30 6967 H 691.945 -1.57796 -3.54573 0
M  V30 6968 H 690.046 0.886716 -3.61895 0
M  V30 6969 H 690.159 -0.619717 -4.75075 0
M  V30 6970 H 688.523 -0.233267 -2.5363 0
M  V30 6971 H 689.306 -1.86904 -2.87961 0
M  V30 6972 N 691.751 1.51645 -0.429126 0
M  V30 6973 C 692.979 2.06433 0.138994 0
M  V30 6974 C 693.394 1.29735 1.37165 0
M  V30 6975 O 692.751 0.354638 1.79021 0
M  V30 6976 C 692.802 3.58439 0.469452 0
M  V30 6977 O 692.523 4.32238 -0.714273 0
M  V30 6978 C 694.024 4.29712 1.08914 0
M  V30 6979 H 691.244 0.6709 0.0115608 0
M  V30 6980 H 693.788 1.9532 -0.605843 0
M  V30 6981 H 691.943 3.69494 1.16419 0
M  V30 6982 H 692.357 5.22704 -0.433633 0
M  V30 6983 H 693.831 5.37182 1.27042 0
M  V30 6984 H 694.308 3.87473 2.06788 0
M  V30 6985 H 694.914 4.2308 0.434028 0
M  V30 6986 N 693.229 0.160201 1.56784 0
M  V30 6987 C 694.64 -0.358417 1.83227 0
M  V30 6988 C 694.991 -1.63831 1.07952 0
M  V30 6989 O 694.116 -2.13885 0.328995 0
M  V30 6990 C 694.711 -0.657058 3.32368 0
M  V30 6991 C 693.27 -1.12015 3.59346 0
M  V30 6992 C 692.417 -0.15015 2.76893 0
M  V30 6993 H 695.368 0.384669 1.53967 0
M  V30 6994 H 695.389 -1.51033 3.49241 0
M  V30 6995 H 694.901 0.274647 3.87127 0
M  V30 6996 H 693.002 -2.06734 3.09987 0
M  V30 6997 H 693.115 -1.037 4.67743 0
M  V30 6998 H 691.479 -0.645361 2.46388 0
M  V30 6999 H 692.262 0.775379 3.34429 0
M  V30 7000 N 694.707 -1.5719 -0.113559 0
M  V30 7001 C 695.639 -1.97393 -1.16484 0
M  V30 7002 C 696.652 -0.873964 -1.37352 0
M  V30 7003 O 697.841 -1.15222 -1.36331 0
M  V30 7004 C 694.941 -2.26174 -2.52386 0
M  V30 7005 C 694.114 -3.57479 -2.52046 0
M  V30 7006 C 693.173 -3.74409 -3.69735 0
M  V30 7007 O 692.199 -4.46463 -3.53071 0
M  V30 7008 N 693.401 -3.13588 -4.88511 0
M  V30 7009 H 696.166 -2.88184 -0.822814 0
M  V30 7010 H 693.727 -1.59044 -0.302769 0
M  V30 7011 H 695.719 -2.3471 -3.29687 0
M  V30 7012 H 694.289 -1.41483 -2.7875 0
M  V30 7013 H 693.509 -3.60081 -1.60421 0
M  V30 7014 H 694.797 -4.43775 -2.48881 0
M  V30 7015 H 694.195 -2.55026 -5.04953 0
M  V30 7016 H 692.752 -3.27637 -5.63469 0
M  V30 7017 N 696.185 0.383891 -1.52853 0
M  V30 7018 C 697.596 0.961591 -1.60032 0
M  V30 7019 C 697.947 1.90819 -0.456333 0
M  V30 7020 O 697.072 2.12288 0.419873 0
M  V30 7021 C 697.667 1.75078 -2.90057 0
M  V30 7022 C 696.226 2.2781 -2.99632 0
M  V30 7023 C 695.373 1.08512 -2.55187 0
M  V30 7024 H 698.324 0.163269 -1.57858 0
M  V30 7025 H 698.345 2.61046 -2.7683 0
M  V30 7026 H 697.857 1.06157 -3.73299 0
M  V30 7027 H 695.958 3.00028 -2.20939 0
M  V30 7028 H 696.071 2.56947 -4.0437 0
M  V30 7029 H 694.435 1.44667 -2.09627 0
M  V30 7030 H 695.218 0.41118 -3.40829 0
M  V30 7031 N 697.663 1.43903 0.642637 0
M  V30 7032 C 698.909 1.46296 1.40447 0
M  V30 7033 C 699.242 0.0908361 1.93987 0
M  V30 7034 O 698.517 -0.889884 1.72949 0
M  V30 7035 C 698.8 2.51399 2.57819 0
M  V30 7036 C 698.653 3.97926 2.09702 0
M  V30 7037 C 699.972 2.53125 3.60022 0
M  V30 7038 H 697.091 0.532676 0.509338 0
M  V30 7039 H 699.733 1.75515 0.727635 0
M  V30 7040 H 697.883 2.26614 3.1556 0
M  V30 7041 H 699.555 4.33804 1.5688 0
M  V30 7042 H 697.798 4.10252 1.40982 0
M  V30 7043 H 698.469 4.67096 2.94152 0
M  V30 7044 H 700.945 2.75242 3.12059 0
M  V30 7045 H 699.821 3.28589 4.39682 0
M  V30 7046 H 700.082 1.56895 4.13324 0
M  V30 7047 N 699.141 -0.881989 1.30609 0
M  V30 7048 C 700.074 -1.99066 1.11571 0
M  V30 7049 C 701.052 -1.62584 0.022516 0
M  V30 7050 O 702.236 -1.87671 0.176644 0
M  V30 7051 C 699.363 -3.3134 0.702237 0
M  V30 7052 C 698.409 -3.86807 1.79673 0
M  V30 7053 S 699.242 -4.13735 3.39976 0
M  V30 7054 C 700.398 -5.49024 3.00538 0
M  V30 7055 H 700.631 -2.1491 2.05429 0
M  V30 7056 H 698.164 -1.03074 1.14957 0
M  V30 7057 H 700.122 -4.07796 0.470415 0
M  V30 7058 H 698.783 -3.13349 -0.217034 0
M  V30 7059 H 697.976 -4.82397 1.45977 0
M  V30 7060 H 697.578 -3.17102 1.98298 0
M  V30 7061 H 699.87 -6.30208 2.48684 0
M  V30 7062 H 700.813 -5.8766 3.95046 0
M  V30 7063 H 701.221 -5.11726 2.3832 0
M  V30 7064 N 700.619 -1.13374 -1.09472 0
M  V30 7065 C 701.867 -0.893422 -1.8128 0
M  V30 7066 C 702.188 0.582029 -1.86111 0
M  V30 7067 O 701.458 1.42305 -1.34633 0
M  V30 7068 H 700.038 -0.327543 -0.67136 0
M  V30 7069 H 702.7 -1.43018 -1.32408 0
M  V30 7070 H 701.796 -1.28374 -2.84476 0
M  V30 7071 N 702.098 1.27442 -0.927168 0
M  V30 7072 C 703.514 1.46754 -0.627329 0
M  V30 7073 C 703.714 1.83902 0.823549 0
M  V30 7074 O 702.77 1.95215 1.60148 0
M  V30 7075 C 704.083 2.56045 -1.57674 0
M  V30 7076 C 705.631 2.69906 -1.58491 0
M  V30 7077 C 706.106 3.82355 -2.52128 0
M  V30 7078 N 707.597 3.89728 -2.50332 0
M  V30 7079 C 708.332 4.76155 -3.19475 0
M  V30 7080 N 707.828 5.67073 -3.97995 0
M  V30 7081 N 709.621 4.6988 -3.08496 0
M  V30 7082 H 701.772 1.01613 -1.86517 0
M  V30 7083 H 704.035 0.507443 -0.800753 0
M  V30 7084 H 703.741 2.35542 -2.61176 0
M  V30 7085 H 703.615 3.53423 -1.31804 0
M  V30 7086 H 706.002 2.89792 -0.557208 0
M  V30 7087 H 706.083 1.73018 -1.8841 0
M  V30 7088 H 705.727 3.63224 -3.55008 0
M  V30 7089 H 705.657 4.7867 -2.19505 0
M  V30 7090 H 708.148 3.24717 -1.93306 0
M  V30 7091 H 708.461 6.2988 -4.4774 0
M  V30 7092 H 706.806 5.6687 -4.02098 0
M  V30 7093 H 709.997 3.97848 -2.46646 0
M  V30 7094 H 710.17 5.37017 -3.62652 0
M  V30 7095 N 703.576 0.692616 1.41565 0
M  V30 7096 C 704.992 0.363878 1.55397 0
M  V30 7097 C 705.192 -1.1294 1.66874 0
M  V30 7098 O 704.248 -1.91517 1.64552 0
M  V30 7099 C 705.561 1.10982 2.7947 0
M  V30 7100 C 707.109 1.09387 2.93263 0
M  V30 7101 C 707.584 1.8215 4.20221 0
M  V30 7102 N 709.075 1.79105 4.27172 0
M  V30 7103 C 709.81 2.32247 5.2426 0
M  V30 7104 N 709.306 2.93847 6.27396 0
M  V30 7105 N 711.099 2.22519 5.1618 0
M  V30 7106 H 703.25 1.66116 1.3236 0
M  V30 7107 H 705.513 0.700848 0.63837 0
M  V30 7108 H 705.219 2.1647 2.77188 0
M  V30 7109 H 705.093 0.686492 3.709 0
M  V30 7110 H 707.48 0.0472638 2.95062 0
M  V30 7111 H 707.561 1.55623 2.03015 0
M  V30 7112 H 707.205 2.86789 4.19183 0
M  V30 7113 H 707.135 1.33351 5.09436 0
M  V30 7114 H 709.626 1.34191 3.53272 0
M  V30 7115 H 709.939 3.31972 6.97864 0
M  V30 7116 H 708.284 2.97924 6.27906 0
M  V30 7117 H 711.475 1.7407 4.34531 0
M  V30 7118 H 711.648 2.64239 5.91677 0
M  V30 7119 N 705.054 -1.51416 0.437162 0
M  V30 7120 C 705.987 -2.24309 -0.419602 0
M  V30 7121 C 706.965 -1.26236 -1.02485 0
M  V30 7122 O 708.149 -1.5537 -1.06735 0
M  V30 7123 C 705.276 -2.99335 -1.58482 0
M  V30 7124 C 704.322 -4.12064 -1.10027 0
M  V30 7125 S 705.155 -5.35483 -0.0424476 0
M  V30 7126 C 706.311 -6.14047 -1.21234 0
M  V30 7127 H 706.544 -2.96632 0.199259 0
M  V30 7128 H 704.077 -1.528 0.22168 0
M  V30 7129 H 706.035 -3.43159 -2.25282 0
M  V30 7130 H 704.696 -2.26602 -2.17509 0
M  V30 7131 H 703.889 -4.63836 -1.97161 0
M  V30 7132 H 703.491 -3.70499 -0.510507 0
M  V30 7133 H 705.783 -6.43123 -2.13072 0
M  V30 7134 H 706.726 -7.04279 -0.734582 0
M  V30 7135 H 707.134 -5.45538 -1.45082 0
M  V30 7136 N 706.532 -0.168513 -1.56696 0
M  V30 7137 C 707.762 0.482802 -2.0088 0
M  V30 7138 C 708.17 1.57537 -1.0478 0
M  V30 7139 O 707.513 1.83656 -0.0402746 0
M  V30 7140 C 707.575 1.1236 -3.4149 0
M  V30 7141 C 707.239 0.173027 -4.56672 0
M  V30 7142 C 708.236 -0.607565 -5.16338 0
M  V30 7143 C 705.921 0.0696691 -5.02252 0
M  V30 7144 C 707.915 -1.47874 -6.2001 0
M  V30 7145 C 705.602 -0.805096 -6.05773 0
M  V30 7146 C 706.6 -1.57789 -6.64524 0
M  V30 7147 O 706.288 -2.43804 -7.66038 0
M  V30 7148 H 706.02 0.128246 -0.663723 0
M  V30 7149 H 708.574 -0.266532 -2.03663 0
M  V30 7150 H 706.804 1.921 -3.35611 0
M  V30 7151 H 708.493 1.67683 -3.69645 0
M  V30 7152 H 709.259 -0.53787 -4.82008 0
M  V30 7153 H 705.138 0.660957 -4.56237 0
M  V30 7154 H 708.682 -2.0824 -6.65794 0
M  V30 7155 H 704.579 -0.876005 -6.39528 0
M  V30 7156 H 705.347 -2.37289 -7.83349 0
M  V30 7157 N 708.01 1.57248 0.105221 0
M  V30 7158 C 709.258 1.85204 0.808951 0
M  V30 7159 C 709.579 0.75574 1.7976 0
M  V30 7160 O 708.849 -0.218984 1.94672 0
M  V30 7161 H 707.429 0.683346 0.301739 0
M  V30 7162 H 710.091 1.94695 0.0892605 0
M  V30 7163 H 709.187 2.81595 1.34575 0
M  V30 7164 N 709.488 -0.375779 1.53054 0
M  V30 7165 C 710.716 -1.14036 1.72637 0
M  V30 7166 C 711.131 -1.83342 0.450687 0
M  V30 7167 O 710.488 -1.7318 -0.575749 0
M  V30 7168 C 710.539 -2.17841 2.88492 0
M  V30 7169 O 710.26 -1.51358 4.11123 0
M  V30 7170 C 711.761 -3.06924 3.19863 0
M  V30 7171 H 708.981 -0.341386 0.577665 0
M  V30 7172 H 711.525 -0.437809 1.99759 0
M  V30 7173 H 709.68 -2.8371 2.63794 0
M  V30 7174 H 710.094 -2.20439 4.75928 0
M  V30 7175 H 711.568 -3.75763 4.04359 0
M  V30 7176 H 712.045 -3.71169 2.34798 0
M  V30 7177 H 712.651 -2.46684 3.46449 0
M  V30 7178 N 710.966 -1.44241 -0.634997 0
M  V30 7179 C 712.212 -1.47038 -1.39669 0
M  V30 7180 C 712.545 -0.101122 -1.93937 0
M  V30 7181 O 711.82 0.880699 -1.73418 0
M  V30 7182 C 712.103 -2.52763 -2.56482 0
M  V30 7183 C 711.956 -3.99032 -2.07589 0
M  V30 7184 C 713.275 -2.55031 -3.58674 0
M  V30 7185 H 710.394 -0.53537 -0.506506 0
M  V30 7186 H 713.036 -1.75898 -0.718317 0
M  V30 7187 H 711.186 -2.28284 -3.14354 0
M  V30 7188 H 712.858 -4.3463 -1.54577 0
M  V30 7189 H 711.101 -4.10994 -1.38804 0
M  V30 7190 H 711.772 -4.68649 -2.91671 0
M  V30 7191 H 714.248 -2.76893 -3.10595 0
M  V30 7192 H 713.124 -3.30916 -4.37934 0
M  V30 7193 H 713.385 -1.59085 -4.12486 0
M  V30 7194 N 712.444 0.87505 -1.31075 0
M  V30 7195 C 713.692 1.62447 -1.20231 0
M  V30 7196 C 714.013 1.93506 0.240888 0
M  V30 7197 O 713.283 1.57847 1.16022 0
M  V30 7198 H 711.863 0.602207 -0.441991 0
M  V30 7199 H 714.525 1.04788 -1.64334 0
M  V30 7200 H 713.621 2.57031 -1.77036 0
M  V30 7201 N 713.922 1.13953 1.08869 0
M  V30 7202 C 715.199 0.815768 1.77777 0
M  V30 7203 C 715.579 -0.691624 1.99449 0
M  V30 7204 O 714.927 -1.63085 1.60049 0
M  V30 7205 C 715.137 1.60916 3.09689 0
M  V30 7206 C 716.485 1.80549 3.84301 0
M  V30 7207 O 717.509 1.57562 3.19457 0
M  V30 7208 O 716.368 2.18946 5.00724 0
M  V30 7209 H 713.462 0.298445 0.771271 0
M  V30 7210 H 716.008 1.24446 1.15374 0
M  V30 7211 H 714.78 2.6333 2.89435 0
M  V30 7212 H 714.403 1.17578 3.79817 0
M  V30 7213 N 715.4 -1.26948 0.933913 0
M  V30 7214 C 716.33 -2.29017 0.45534 0
M  V30 7215 C 717.311 -1.62961 -0.487605 0
M  V30 7216 O 718.496 -1.90223 -0.391022 0
M  V30 7217 C 715.626 -3.46112 -0.287015 0
M  V30 7218 C 714.58 -4.24205 0.568682 0
M  V30 7219 C 713.906 -5.3384 -0.303206 0
M  V30 7220 C 715.206 -4.88954 1.83633 0
M  V30 7221 H 716.9 -2.69298 1.30839 0
M  V30 7222 H 714.446 -1.29459 0.630579 0
M  V30 7223 H 716.399 -4.16622 -0.6328 0
M  V30 7224 H 715.123 -3.04765 -1.17414 0
M  V30 7225 H 713.782 -3.5545 0.897261 0
M  V30 7226 H 713.43 -4.88734 -1.18947 0
M  V30 7227 H 713.13 -5.86998 0.265879 0
M  V30 7228 H 714.654 -6.0719 -0.644423 0
M  V30 7229 H 716.068 -5.51717 1.55823 0
M  V30 7230 H 714.465 -5.52198 2.34941 0
M  V30 7231 H 715.535 -4.12305 2.55211 0
M  V30 7232 N 716.879 -0.700114 -1.41195 0
M  V30 7233 C 718.128 -0.230082 -2.00383 0
M  V30 7234 C 718.441 1.17857 -1.56106 0
M  V30 7235 O 719.647 1.74631 -2.07885 0
M  V30 7236 C 718.103 -0.360447 -3.5809 0
M  V30 7237 C 717.711 -1.77475 -4.11347 0
M  V30 7238 C 719.455 0.0495799 -4.24471 0
M  V30 7239 C 717.362 -1.85653 -5.61504 0
M  V30 7240 H 716.292 -0.0822633 -0.749499 0
M  V30 7241 H 718.943 -0.868969 -1.6162 0
M  V30 7242 H 717.325 0.346768 -3.94479 0
M  V30 7243 H 718.499 -2.51109 -3.86369 0
M  V30 7244 H 716.814 -2.13486 -3.57509 0
M  V30 7245 H 719.411 0.00898219 -5.34699 0
M  V30 7246 H 719.754 1.08904 -4.01803 0
M  V30 7247 H 720.287 -0.607521 -3.93134 0
M  V30 7248 H 717.026 -2.87667 -5.89006 0
M  V30 7249 H 716.546 -1.1641 -5.88395 0
M  V30 7250 H 718.225 -1.62151 -6.26351 0
M  V30 7251 N 718.357 1.51182 -0.445186 0
M  V30 7252 C 719.307 2.24804 0.380394 0
M  V30 7253 C 720.291 1.27344 0.983482 0
M  V30 7254 O 721.483 1.52392 0.900322 0
M  V30 7255 C 718.612 3.09922 1.4766 0
M  V30 7256 C 717.698 4.14816 0.882517 0
M  V30 7257 N 718.089 5.05797 0.0183278 0
M  V30 7258 C 716.387 4.30938 1.14927 0
M  V30 7259 C 717.088 5.8084 -0.316152 0
M  V30 7260 N 716.064 5.42759 0.302214 0
M  V30 7261 H 719.866 2.92508 -0.285737 0
M  V30 7262 H 717.38 1.60342 -0.257733 0
M  V30 7263 H 719.377 3.61249 2.08098 0
M  V30 7264 H 718.037 2.43763 2.14498 0
M  V30 7265 H 719.048 5.16725 -0.348679 0
M  V30 7266 H 715.725 3.76005 1.81457 0
M  V30 7267 H 717.115 6.64115 -1.01986 0
M  V30 7268 N 719.835 0.176821 1.56605 0
M  V30 7269 C 721.112 -0.513365 1.88743 0
M  V30 7270 C 721.492 -1.80929 1.08757 0
M  V30 7271 O 720.84 -2.27765 0.183127 0
M  V30 7272 C 721.05 -0.749925 3.40848 0
M  V30 7273 C 722.398 -1.07747 4.10701 0
M  V30 7274 O 723.422 -0.838277 3.46196 0
M  V30 7275 O 722.281 -1.52901 5.24675 0
M  V30 7276 H 719.375 -0.265296 0.783292 0
M  V30 7277 H 721.921 0.215669 1.68324 0
M  V30 7278 H 720.693 0.16599 3.90948 0
M  V30 7279 H 720.316 -1.53208 3.66897 0
M  V30 7280 N 721.313 -1.57302 -0.09688 0
M  V30 7281 C 722.541 -1.90202 -0.814295 0
M  V30 7282 C 722.956 -0.770344 -1.72369 0
M  V30 7283 O 722.313 0.257764 -1.8067 0
M  V30 7284 C 722.364 -3.22708 -1.62916 0
M  V30 7285 O 722.085 -4.31522 -0.756343 0
M  V30 7286 C 723.586 -3.69459 -2.44979 0
M  V30 7287 H 720.806 -0.629275 -0.232925 0
M  V30 7288 H 723.35 -2.04364 -0.0746482 0
M  V30 7289 H 721.505 -3.1015 -2.32133 0
M  V30 7290 H 721.919 -5.07604 -1.32054 0
M  V30 7291 H 723.393 -4.64875 -2.9765 0
M  V30 7292 H 723.87 -2.97211 -3.23361 0
M  V30 7293 H 724.476 -3.84879 -1.80964 0
M  V30 7294 N 722.791 0.367657 -1.53252 0
M  V30 7295 C 723.739 1.47061 -1.8021 0
M  V30 7296 C 724.733 1.55539 -0.671112 0
M  V30 7297 O 725.939 1.58451 -0.854014 0
M  V30 7298 H 722.314 0.489868 -0.570555 0
M  V30 7299 H 724.285 1.21527 -2.72532 0
M  V30 7300 C 723.034 2.83924 -2.00706 0
M  V30 7301 H 722.357 2.78158 -2.87172 0
M  V30 7302 H 723.797 3.60281 -2.23547 0
M  V30 7303 C 722.256 3.27613 -0.785568 0
M  V30 7304 O 722.786 4.01691 0.0267459 0
M  V30 7305 N 720.992 2.84134 -0.609597 0
M  V30 7306 H 720.539 2.24017 -1.27178 0
M  V30 7307 H 720.497 3.13723 0.206281 0
M  V30 7308 N 724.269 1.44576 0.627338 0
M  V30 7309 C 725.518 1.46837 1.38281 0
M  V30 7310 C 725.831 0.10635 1.95311 0
M  V30 7311 O 727.037 0.00651084 2.71499 0
M  V30 7312 C 725.493 2.58527 2.50384 0
M  V30 7313 C 725.101 4.00953 1.99851 0
M  V30 7314 C 726.845 2.70013 3.27557 0
M  V30 7315 C 724.752 5.0406 3.09318 0
M  V30 7316 H 723.682 0.546319 0.519664 0
M  V30 7317 H 726.333 1.70654 0.674497 0
M  V30 7318 H 724.715 2.27957 3.23808 0
M  V30 7319 H 725.889 4.41108 1.33267 0
M  V30 7320 H 724.204 3.93743 1.35482 0
M  V30 7321 H 726.801 3.44217 4.09168 0
M  V30 7322 H 727.144 1.75961 3.77284 0
M  V30 7323 H 727.677 3.00011 2.61224 0
M  V30 7324 H 724.416 5.99753 2.6453 0
M  V30 7325 H 723.936 4.68493 3.74532 0
M  V30 7326 H 725.615 5.2793 3.74031 0
M  V30 7327 N 725.747 -0.868086 1.31537 0
M  V30 7328 C 726.975 -1.65402 1.24298 0
M  V30 7329 C 727.39 -1.87827 -0.191389 0
M  V30 7330 O 726.747 -1.43776 -1.12404 0
M  V30 7331 C 726.798 -3.02093 1.9855 0
M  V30 7332 O 726.519 -2.80668 3.36388 0
M  V30 7333 C 728.02 -3.96538 1.98173 0
M  V30 7334 H 725.24 -0.515598 0.429417 0
M  V30 7335 H 727.784 -1.0834 1.73444 0
M  V30 7336 H 725.939 -3.55838 1.53161 0
M  V30 7337 H 726.353 -3.67504 3.74221 0
M  V30 7338 H 727.827 -4.8976 2.54635 0
M  V30 7339 H 728.304 -4.28474 0.964697 0
M  V30 7340 H 728.91 -3.48729 2.4345 0
M  V30 7341 N 727.225 -1.14528 -1.08264 0
M  V30 7342 C 728.472 -0.914405 -1.80679 0
M  V30 7343 C 728.8 0.558952 -1.86295 0
M  V30 7344 O 728.055 1.43017 -1.33584 0
M  V30 7345 C 728.354 -1.46226 -3.26117 0
M  V30 7346 C 728.02 -2.95451 -3.40616 0
M  V30 7347 C 726.682 -3.36191 -3.4428 0
M  V30 7348 C 729.034 -3.91399 -3.44175 0
M  V30 7349 C 726.362 -4.71539 -3.49096 0
M  V30 7350 C 728.714 -5.26606 -3.50526 0
M  V30 7351 C 727.378 -5.66856 -3.52464 0
M  V30 7352 H 726.648 -0.334604 -0.661151 0
M  V30 7353 H 729.295 -1.4292 -1.27461 0
M  V30 7354 H 727.6 -0.868442 -3.82054 0
M  V30 7355 H 729.297 -1.25955 -3.80705 0
M  V30 7356 H 725.887 -2.62955 -3.38456 0
M  V30 7357 H 730.071 -3.61004 -3.40573 0
M  V30 7358 H 725.327 -5.02082 -3.4889 0
M  V30 7359 H 729.501 -6.00758 -3.52225 0
M  V30 7360 H 727.128 -6.71718 -3.55948 0
M  V30 7361 N 728.703 1.26451 -0.940633 0
M  V30 7362 C 729.636 2.24771 -0.394094 0
M  V30 7363 C 730.614 1.54169 0.516781 0
M  V30 7364 O 731.798 1.82942 0.454352 0
M  V30 7365 C 728.925 3.3591 0.433807 0
M  V30 7366 C 727.971 4.24472 -0.415464 0
M  V30 7367 S 728.804 5.0293 -1.83907 0
M  V30 7368 C 729.96 6.17546 -1.01921 0
M  V30 7369 H 730.193 2.70782 -1.22737 0
M  V30 7370 H 727.726 1.35308 -0.743709 0
M  V30 7371 H 729.684 4.00387 0.905576 0
M  V30 7372 H 728.345 2.88512 1.24175 0
M  V30 7373 H 727.538 5.03525 0.218833 0
M  V30 7374 H 727.14 3.64857 -0.821897 0
M  V30 7375 H 729.432 6.76996 -0.261227 0
M  V30 7376 H 730.375 6.8528 -1.78318 0
M  V30 7377 H 730.783 5.6176 -0.555511 0
M  V30 7378 N 730.181 0.707592 1.40822 0
M  V30 7379 C 731.406 0.251626 2.05868 0
M  V30 7380 C 731.831 -1.09503 1.5294 0
M  V30 7381 O 731.189 -1.68806 0.661385 0
M  V30 7382 C 731.237 0.23287 3.59847 0
M  V30 7383 O 730.341 -0.788477 4.04792 0
M  V30 7384 H 729.682 0.119936 0.653078 0
M  V30 7385 H 732.212 0.96583 1.80369 0
M  V30 7386 H 732.222 0.0678204 4.07944 0
M  V30 7387 H 730.897 1.21565 3.97737 0
M  V30 7388 H 729.474 -0.591802 3.68174 0
M  V30 7389 N 731.66 -1.50943 0.453197 0
M  V30 7390 C 732.607 -2.28128 -0.350197 0
M  V30 7391 C 733.577 -1.32398 -1.00299 0
M  V30 7392 O 734.762 -1.61319 -1.01887 0
M  V30 7393 C 731.902 -3.13782 -1.43649 0
M  V30 7394 C 731.015 -4.24523 -0.800255 0
M  V30 7395 C 730.15 -4.97462 -1.86293 0
M  V30 7396 C 729.189 -6.00102 -1.20598 0
M  V30 7397 N 728.326 -6.66387 -2.21071 0
M  V30 7398 H 733.166 -2.96337 0.31434 0
M  V30 7399 H 730.703 -1.46151 0.166863 0
M  V30 7400 H 732.661 -3.6178 -2.07776 0
M  V30 7401 H 731.291 -2.47655 -2.07044 0
M  V30 7402 H 730.343 -3.80371 -0.0468651 0
M  V30 7403 H 731.655 -4.98009 -0.280777 0
M  V30 7404 H 730.809 -5.49088 -2.58044 0
M  V30 7405 H 729.548 -4.23642 -2.41617 0
M  V30 7406 H 728.553 -5.47753 -0.474 0
M  V30 7407 H 729.778 -6.75887 -0.659859 0
M  V30 7408 H 727.724 -5.9537 -2.75446 0
M  V30 7409 H 727.641 -7.3569 -1.74058 0
M  V30 7410 H 728.909 -7.22638 -2.92257 0
M  V30 7411 N 733.138 -0.185124 -1.56509 0
M  V30 7412 C 734.363 0.465278 -2.02114 0
M  V30 7413 C 734.788 1.55083 -1.06447 0
M  V30 7414 O 734.146 1.81241 -0.0462852 0
M  V30 7415 C 734.194 1.00784 -3.46229 0
M  V30 7416 O 733.298 2.12123 -3.53663 0
M  V30 7417 H 732.639 0.109891 -0.654843 0
M  V30 7418 H 735.169 -0.293072 -2.0249 0
M  V30 7419 H 735.179 1.32697 -3.85818 0
M  V30 7420 H 733.854 0.213113 -4.15354 0
M  V30 7421 H 732.431 1.8115 -3.25943 0
M  V30 7422 N 734.616 1.57351 0.0885366 0
M  V30 7423 C 735.841 1.91011 0.80805 0
M  V30 7424 C 736.266 0.780009 1.71165 0
M  V30 7425 O 735.624 -0.268083 1.79307 0
M  V30 7426 C 735.672 3.23562 1.59185 0
M  V30 7427 O 734.776 3.11615 2.7013 0
M  V30 7428 H 734.117 0.625943 0.221565 0
M  V30 7429 H 736.647 2.04507 0.0617954 0
M  V30 7430 H 736.657 3.5703 1.97468 0
M  V30 7431 H 735.332 4.05398 0.928741 0
M  V30 7432 H 733.909 2.89673 2.34827 0
M  V30 7433 N 736.094 -0.359525 1.53444 0
M  V30 7434 C 737.343 -1.09886 1.69139 0
M  V30 7435 C 737.656 -1.90285 0.452863 0
M  V30 7436 O 738.862 -2.67033 0.490459 0
M  V30 7437 C 737.318 -2.0028 2.99025 0
M  V30 7438 C 736.926 -1.25164 4.30161 0
M  V30 7439 C 738.67 -2.74168 3.24086 0
M  V30 7440 C 736.577 -2.14494 5.51132 0
M  V30 7441 H 735.507 -0.413936 0.630217 0
M  V30 7442 H 738.158 -0.359434 1.79945 0
M  V30 7443 H 736.54 -2.77978 2.82036 0
M  V30 7444 H 737.714 -0.524867 4.57801 0
M  V30 7445 H 736.029 -0.631116 4.11589 0
M  V30 7446 H 738.626 -3.41243 4.11652 0
M  V30 7447 H 738.969 -3.39868 2.40407 0
M  V30 7448 H 739.502 -2.0355 3.41778 0
M  V30 7449 H 736.241 -1.53362 6.37307 0
M  V30 7450 H 735.761 -2.85004 5.27762 0
M  V30 7451 H 737.44 -2.73914 5.86157 0
M  V30 7452 N 737.572 -1.44907 -0.619662 0
M  V30 7453 C 738.504 -1.48652 -1.74457 0
M  V30 7454 C 739.517 -0.378596 -1.58337 0
M  V30 7455 O 740.706 -0.644987 -1.6644 0
M  V30 7456 C 737.806 -1.31568 -3.12319 0
M  V30 7457 C 736.979 -2.55816 -3.54792 0
M  V30 7458 C 736.038 -2.33465 -4.71573 0
M  V30 7459 O 735.064 -3.07015 -4.79302 0
M  V30 7460 N 736.266 -1.37254 -5.6404 0
M  V30 7461 H 739.031 -2.45632 -1.71712 0
M  V30 7462 H 736.592 -1.40492 -0.804582 0
M  V30 7463 H 738.584 -1.14445 -3.88181 0
M  V30 7464 H 737.154 -0.429095 -3.09641 0
M  V30 7465 H 736.374 -2.88137 -2.69018 0
M  V30 7466 H 737.662 -3.38431 -3.79924 0
M  V30 7467 H 737.06 -0.765309 -5.60499 0
M  V30 7468 H 735.617 -1.26106 -6.39485 0
M  V30 7469 N 739.05 0.861098 -1.31996 0
M  V30 7470 C 739.982 1.97551 -1.16216 0
M  V30 7471 C 740.995 1.625 -0.0988527 0
M  V30 7472 O 742.184 1.75091 -0.3472 0
M  V30 7473 C 739.284 3.30376 -0.755307 0
M  V30 7474 C 738.457 3.93711 -1.90552 0
M  V30 7475 C 737.516 5.04862 -1.48328 0
M  V30 7476 O 736.542 5.25204 -2.19431 0
M  V30 7477 N 737.744 5.79283 -0.375656 0
M  V30 7478 H 740.509 2.11632 -2.12208 0
M  V30 7479 H 738.07 1.03559 -1.24448 0
M  V30 7480 H 740.062 4.0213 -0.455364 0
M  V30 7481 H 738.632 3.12395 0.113269 0
M  V30 7482 H 737.852 3.14825 -2.37231 0
M  V30 7483 H 739.14 4.32762 -2.67571 0
M  V30 7484 H 738.538 5.65286 0.216284 0
M  V30 7485 H 737.095 6.5166 -0.135289 0
M  V30 7486 N 740.528 1.15101 1.07655 0
M  V30 7487 C 741.776 0.922149 1.79836 0
M  V30 7488 C 742.097 -0.552346 1.87014 0
M  V30 7489 O 741.367 -1.40145 1.3688 0
M  V30 7490 H 739.947 0.338182 0.666064 0
M  V30 7491 H 742.609 1.45107 1.30115 0
M  V30 7492 H 741.705 1.32883 2.82398 0
M  V30 7493 N 742.006 -1.2595 0.947325 0
M  V30 7494 C 743.252 -1.9375 0.599064 0
M  V30 7495 C 743.585 -1.74088 -0.860632 0
M  V30 7496 O 742.86 -1.08158 -1.61654 0
M  V30 7497 C 743.143 -3.47353 0.949634 0
M  V30 7498 C 742.996 -3.76273 2.46452 0
M  V30 7499 C 744.315 -4.37589 0.469442 0
M  V30 7500 H 741.434 -0.703674 0.219115 0
M  V30 7501 H 744.076 -1.48705 1.18266 0
M  V30 7502 H 742.226 -3.8585 0.453008 0
M  V30 7503 H 743.898 -3.47455 3.03435 0
M  V30 7504 H 742.141 -3.22135 2.90537 0
M  V30 7505 H 742.812 -4.83664 2.66032 0
M  V30 7506 H 745.288 -4.06353 0.89534 0
M  V30 7507 H 744.164 -5.43841 0.7435 0
M  V30 7508 H 744.425 -4.37579 -0.630618 0
M  V30 7509 N 743.484 -0.715051 -1.40445 0
M  V30 7510 C 744.895 -0.326763 -1.83818 0
M  V30 7511 C 745.246 1.13851 -1.59789 0
M  V30 7512 O 744.371 1.87611 -1.07848 0
M  V30 7513 C 744.966 -0.586297 -3.33688 0
M  V30 7514 C 743.525 -0.251724 -3.75557 0
M  V30 7515 C 742.672 -0.858928 -2.63662 0
M  V30 7516 H 745.623 -0.914241 -1.2972 0
M  V30 7517 H 745.644 0.148636 -3.8021 0
M  V30 7518 H 745.156 -1.65281 -3.51146 0
M  V30 7519 H 743.257 0.809754 -3.63695 0
M  V30 7520 H 743.37 -0.720348 -4.73654 0
M  V30 7521 H 741.734 -0.287013 -2.53078 0
M  V30 7522 H 742.517 -1.9297 -2.83932 0
M  V30 7523 N 744.962 1.50701 -0.461195 0
M  V30 7524 C 745.925 2.2686 0.326679 0
M  V30 7525 C 746.925 1.31243 0.929085 0
M  V30 7526 O 748.115 1.54754 0.799807 0
M  V30 7527 C 745.247 3.07844 1.46441 0
M  V30 7528 H 746.44 2.97954 -0.341095 0
M  V30 7529 H 743.993 1.54814 -0.214984 0
M  V30 7530 H 744.728 2.41223 2.16753 0
M  V30 7531 H 744.513 3.78101 1.03836 0
M  V30 7532 H 746.003 3.65469 2.02044 0
M  V30 7533 N 746.441 0.193421 1.56409 0
M  V30 7534 C 747.388 -0.728124 2.19014 0
M  V30 7535 C 748.358 -1.21098 1.13686 0
M  V30 7536 O 749.543 -1.27517 1.4193 0
M  V30 7537 C 746.683 -1.94277 2.8522 0
M  V30 7538 C 745.796 -1.50143 4.05069 0
M  V30 7539 C 744.931 -2.67145 4.59137 0
M  V30 7540 C 743.97 -2.19609 5.71348 0
M  V30 7541 N 743.107 -3.29782 6.19829 0
M  V30 7542 H 747.947 -0.187499 2.9741 0
M  V30 7543 H 745.484 -0.0808064 1.46878 0
M  V30 7544 H 747.442 -2.65551 3.21774 0
M  V30 7545 H 746.072 -2.45673 2.09391 0
M  V30 7546 H 745.124 -0.684624 3.74189 0
M  V30 7547 H 746.436 -1.11266 4.86232 0
M  V30 7548 H 745.59 -3.46544 4.97988 0
M  V30 7549 H 744.329 -3.09295 3.77078 0
M  V30 7550 H 743.334 -1.38664 5.32027 0
M  V30 7551 H 744.559 -1.78492 6.55223 0
M  V30 7552 H 742.505 -3.71466 5.40693 0
M  V30 7553 H 742.422 -2.95069 6.96039 0
M  V30 7554 H 743.69 -4.094 6.63334 0
M  V30 7555 N 747.919 -1.57396 -0.0801906 0
M  V30 7556 C 748.849 -2.06145 -1.09665 0
M  V30 7557 C 749.83 -0.953273 -1.40878 0
M  V30 7558 O 751.015 -1.22548 -1.50651 0
M  V30 7559 C 748.145 -2.49836 -2.41245 0
M  V30 7560 C 747.099 -3.64454 -2.24405 0
M  V30 7561 C 746.425 -3.94172 -3.61293 0
M  V30 7562 C 747.725 -4.94807 -1.67223 0
M  V30 7563 H 749.419 -2.91316 -0.691028 0
M  V30 7564 H 746.965 -1.40145 -0.330957 0
M  V30 7565 H 748.918 -2.82552 -3.12638 0
M  V30 7566 H 747.642 -1.61683 -2.83771 0
M  V30 7567 H 746.301 -3.32008 -1.55454 0
M  V30 7568 H 745.949 -3.03163 -4.01374 0
M  V30 7569 H 745.649 -4.71345 -3.50867 0
M  V30 7570 H 747.173 -4.29376 -4.3413 0
M  V30 7571 H 748.587 -5.25807 -2.28472 0
M  V30 7572 H 746.984 -5.76245 -1.67515 0
M  V30 7573 H 748.054 -4.80751 -0.632944 0
M  V30 7574 N 749.397 0.351382 -1.53633 0
M  V30 7575 C 750.645 1.09034 -1.70165 0
M  V30 7576 C 750.966 1.89413 -0.463422 0
M  V30 7577 O 750.236 1.888 0.522624 0
M  V30 7578 H 748.816 0.405522 -0.627344 0
M  V30 7579 H 751.478 0.394554 -1.90865 0
M  V30 7580 H 750.574 1.77215 -2.56907 0
M  V30 7581 N 750.875 1.45233 0.611969 0
M  V30 7582 C 751.805 1.5641 1.73373 0
M  V30 7583 C 752.786 0.415896 1.64937 0
M  V30 7584 O 753.971 0.638478 1.83404 0
M  V30 7585 C 751.101 1.52627 3.11965 0
M  V30 7586 C 750.055 2.66119 3.35208 0
M  V30 7587 C 749.381 2.4739 4.74028 0
M  V30 7588 C 750.681 4.08157 3.25891 0
M  V30 7589 H 752.375 2.50307 1.64277 0
M  V30 7590 H 749.921 1.20467 0.788904 0
M  V30 7591 H 751.874 1.59043 3.90235 0
M  V30 7592 H 750.598 0.552564 3.21892 0
M  V30 7593 H 749.257 2.59123 2.59327 0
M  V30 7594 H 748.905 1.48168 4.80682 0
M  V30 7595 H 748.605 3.23494 4.90536 0
M  V30 7596 H 750.129 2.55653 5.54503 0
M  V30 7597 H 751.543 4.1642 3.9404 0
M  V30 7598 H 749.94 4.84617 3.5393 0
M  V30 7599 H 751.01 4.30374 2.23397 0
M  V30 7600 N 752.353 -0.854086 1.3245 0
M  V30 7601 C 753.3 -1.96271 1.21434 0
M  V30 7602 C 754.27 -1.6582 0.0963851 0
M  V30 7603 O 755.455 -1.88851 0.27203 0
M  V30 7604 C 752.595 -3.31939 0.943952 0
M  V30 7605 C 751.708 -3.74885 2.14675 0
M  V30 7606 C 750.843 -4.99347 1.81179 0
M  V30 7607 C 749.882 -5.34785 2.97777 0
M  V30 7608 N 749.019 -6.50425 2.6437 0
M  V30 7609 H 753.859 -2.05025 2.16261 0
M  V30 7610 H 751.396 -1.00348 1.07558 0
M  V30 7611 H 753.354 -4.10076 0.767675 0
M  V30 7612 H 751.984 -3.22784 0.0324763 0
M  V30 7613 H 751.036 -2.92396 2.43328 0
M  V30 7614 H 752.348 -3.97068 3.01891 0
M  V30 7615 H 751.502 -5.85193 1.60107 0
M  V30 7616 H 750.241 -4.79101 0.911777 0
M  V30 7617 H 749.246 -4.47451 3.1948 0
M  V30 7618 H 750.471 -5.56988 3.88511 0
M  V30 7619 H 748.417 -6.31695 1.7691 0
M  V30 7620 H 748.334 -6.7263 3.45116 0
M  V30 7621 H 749.602 -7.39422 2.46729 0
M  V30 7622 N 753.831 -1.1567 -1.07043 0
M  V30 7623 C 755.247 -0.900006 -1.31803 0
M  V30 7624 C 755.447 0.451293 -1.96381 0
M  V30 7625 O 754.503 1.19252 -2.22565 0
M  V30 7626 C 755.816 -2.04334 -2.20609 0
M  V30 7627 C 757.364 -2.07823 -2.34048 0
M  V30 7628 C 757.839 -3.21488 -3.26204 0
M  V30 7629 N 759.33 -3.21156 -3.33786 0
M  V30 7630 C 760.065 -4.05746 -4.05163 0
M  V30 7631 N 759.561 -5.00407 -4.79129 0
M  V30 7632 N 761.354 -3.93759 -4.01136 0
M  V30 7633 H 753.505 -2.02681 -0.635146 0
M  V30 7634 H 755.768 -0.883956 -0.342528 0
M  V30 7635 H 755.474 -3.01895 -1.80423 0
M  V30 7636 H 755.348 -1.97838 -3.21154 0
M  V30 7637 H 757.735 -1.1086 -2.73485 0
M  V30 7638 H 757.816 -2.18386 -1.33197 0
M  V30 7639 H 757.46 -4.18706 -2.87485 0
M  V30 7640 H 757.39 -3.08162 -4.27017 0
M  V30 7641 H 759.881 -2.52606 -2.81067 0
M  V30 7642 H 760.194 -5.61387 -5.31097 0
M  V30 7643 H 758.539 -5.04393 -4.78135 0
M  V30 7644 H 761.73 -3.19115 -3.42466 0
M  V30 7645 H 761.903 -4.59906 -4.56498 0
M  V30 7646 N 755.309 1.25446 -0.953992 0
M  V30 7647 C 756.725 1.4539 -0.658316 0
M  V30 7648 C 756.925 1.85607 0.784356 0
M  V30 7649 O 755.981 1.98568 1.55972 0
M  V30 7650 C 757.294 2.52643 -1.6307 0
M  V30 7651 C 758.842 2.66484 -1.64181 0
M  V30 7652 C 759.317 3.76921 -2.60182 0
M  V30 7653 N 760.808 3.84331 -2.58542 0
M  V30 7654 C 761.543 4.69271 -3.29503 0
M  V30 7655 N 761.039 5.58503 -4.09934 0
M  V30 7656 N 762.832 4.6323 -3.18393 0
M  V30 7657 H 754.983 0.976337 -1.8863 0
M  V30 7658 H 757.246 0.490343 -0.811337 0
M  V30 7659 H 756.952 2.29949 -2.66114 0
M  V30 7660 H 756.826 3.50547 -1.39271 0
M  V30 7661 H 759.213 2.88545 -0.618552 0
M  V30 7662 H 759.294 1.68982 -1.92038 0
M  V30 7663 H 758.938 3.55612 -3.62633 0
M  V30 7664 H 758.868 4.73906 -2.29609 0
M  V30 7665 H 761.359 3.20544 -2.0015 0
M  V30 7666 H 761.672 6.20241 -4.61 0
M  V30 7667 H 760.017 5.58214 -4.14032 0
M  V30 7668 H 763.208 3.92527 -2.5503 0
M  V30 7669 H 763.381 5.29204 -3.73961 0
M  V30 7670 N 756.787 0.722489 1.40064 0
M  V30 7671 C 758.036 0.261932 1.99992 0
M  V30 7672 C 758.349 -1.15358 1.57961 0
M  V30 7673 O 759.555 -1.71301 2.10637 0
M  V30 7674 C 758.011 0.41737 3.57472 0
M  V30 7675 C 757.619 1.83997 4.08472 0
M  V30 7676 C 759.363 0.0179561 4.24496 0
M  V30 7677 C 757.27 1.94563 5.5848 0
M  V30 7678 H 756.2 0.0941768 0.748095 0
M  V30 7679 H 758.851 0.894572 1.60218 0
M  V30 7680 H 757.233 -0.283965 3.94981 0
M  V30 7681 H 758.407 2.57224 3.82325 0
M  V30 7682 H 756.722 2.19147 3.54067 0
M  V30 7683 H 759.319 0.076085 5.34646 0
M  V30 7684 H 759.662 -1.02498 4.03485 0
M  V30 7685 H 760.195 0.669988 3.92117 0
M  V30 7686 H 756.934 2.97001 5.84355 0
M  V30 7687 H 756.454 1.25756 5.86469 0
M  V30 7688 H 758.133 1.72095 6.23692 0
M  V30 7689 N 758.265 -1.50454 0.469181 0
M  V30 7690 C 759.513 -2.01916 -0.0862982 0
M  V30 7691 C 759.834 -1.35337 -1.40388 0
M  V30 7692 O 759.104 -0.498096 -1.89462 0
M  V30 7693 H 757.684 -0.746185 -0.0348825 0
M  V30 7694 H 760.346 -1.84804 0.619167 0
M  V30 7695 H 759.442 -3.11182 -0.239189 0
M  V30 7696 N 759.743 -0.201713 -1.56304 0
M  V30 7697 C 760.971 0.440723 -2.02152 0
M  V30 7698 C 761.386 1.54735 -1.08179 0
M  V30 7699 O 760.743 1.82289 -0.0878196 0
M  V30 7700 C 760.794 0.990884 -3.47655 0
M  V30 7701 O 760.515 -0.0715937 -4.38041 0
M  V30 7702 C 762.016 1.70854 -4.09052 0
M  V30 7703 H 759.236 0.109987 -0.661924 0
M  V30 7704 H 761.78 -0.312358 -2.021 0
M  V30 7705 H 759.935 1.69432 -3.48384 0
M  V30 7706 H 760.349 0.338892 -5.23404 0
M  V30 7707 H 761.823 2.04572 -5.12693 0
M  V30 7708 H 762.3 2.61462 -3.52894 0
M  V30 7709 H 762.906 1.0508 -4.12114 0
M  V30 7710 N 761.222 1.57436 0.0718424 0
M  V30 7711 C 762.468 1.87525 0.772149 0
M  V30 7712 C 762.801 0.79399 1.77227 0
M  V30 7713 O 762.076 -0.195733 1.93513 0
M  V30 7714 C 762.359 3.28272 1.48018 0
M  V30 7715 C 762.212 4.47052 0.49647 0
M  V30 7716 C 763.531 3.67256 2.42509 0
M  V30 7717 H 760.65 0.682049 0.279245 0
M  V30 7718 H 763.292 1.89967 0.03534 0
M  V30 7719 H 761.442 3.26321 2.10824 0
M  V30 7720 H 763.114 4.61127 -0.126375 0
M  V30 7721 H 761.357 4.33392 -0.188205 0
M  V30 7722 H 762.028 5.42315 1.02949 0
M  V30 7723 H 764.504 3.70301 1.89781 0
M  V30 7724 H 763.38 4.66626 2.89053 0
M  V30 7725 H 763.641 2.97186 3.27312 0
M  V30 7726 N 762.7 -0.34323 1.53817 0
M  V30 7727 C 763.647 -1.42153 1.81827 0
M  V30 7728 C 764.617 -1.52251 0.663996 0
M  V30 7729 O 765.802 -1.67784 0.908461 0
M  V30 7730 C 762.942 -2.78799 2.03384 0
M  V30 7731 C 762.055 -2.7749 3.31094 0
M  V30 7732 C 761.19 -4.05856 3.42717 0
M  V30 7733 C 760.229 -3.98776 4.64375 0
M  V30 7734 N 759.366 -5.18833 4.73029 0
M  V30 7735 H 764.206 -1.17567 2.73829 0
M  V30 7736 H 761.743 -0.569506 1.35628 0
M  V30 7737 H 763.701 -3.58211 2.13872 0
M  V30 7738 H 762.331 -3.01736 1.14696 0
M  V30 7739 H 761.383 -1.90182 3.29446 0
M  V30 7740 H 762.695 -2.68137 4.206 0
M  V30 7741 H 761.849 -4.93691 3.52638 0
M  V30 7742 H 760.588 -4.1799 2.51267 0
M  V30 7743 H 759.593 -3.09325 4.5453 0
M  V30 7744 H 760.818 -3.88224 5.57189 0
M  V30 7745 H 758.764 -5.31511 3.84489 0
M  V30 7746 H 758.681 -5.11737 5.56472 0
M  V30 7747 H 759.949 -6.08439 4.87261 0
M  V30 7748 N 764.178 -1.45556 -0.604258 0
M  V30 7749 C 765.126 -1.5482 -1.7359 0
M  V30 7750 C 766.12 -0.417966 -1.64163 0
M  V30 7751 O 767.326 -0.594007 -1.69916 0
M  V30 7752 H 763.701 -0.486352 -0.573556 0
M  V30 7753 H 765.672 -2.5001 -1.62903 0
M  V30 7754 C 764.421 -1.53521 -3.11972 0
M  V30 7755 H 763.744 -2.39818 -3.19886 0
M  V30 7756 H 765.184 -1.64061 -3.90973 0
M  V30 7757 C 763.643 -0.260191 -3.35894 0
M  V30 7758 O 764.173 0.658582 -3.96265 0
M  V30 7759 N 762.379 -0.154839 -2.90187 0
M  V30 7760 H 761.926 -0.903378 -2.4124 0
M  V30 7761 H 761.884 0.697437 -3.06567 0
M  V30 7762 N 765.656 0.84705 -1.32902 0
M  V30 7763 C 766.896 1.61554 -1.25218 0
M  V30 7764 C 767.26 1.91141 0.18143 0
M  V30 7765 O 768.461 2.6607 0.382106 0
M  V30 7766 C 766.732 2.89553 -2.09509 0
M  V30 7767 S 768.291 3.80283 -2.18931 0
M  V30 7768 H 765.109 0.554031 -0.445613 0
M  V30 7769 H 767.711 1.00251 -1.67839 0
M  V30 7770 H 766.415 2.65776 -3.12716 0
M  V30 7771 H 765.946 3.55868 -1.67694 0
M  V30 7772 H 767.961 4.77641 -1.34438 0
M  V30 7773 N 767.134 1.16236 1.06428 0
M  V30 7774 C 768.55 0.906983 1.31324 0
M  V30 7775 C 768.75 -0.440872 1.96618 0
M  V30 7776 O 767.806 -1.1807 2.23194 0
M  V30 7777 C 769.119 2.05501 2.19522 0
M  V30 7778 C 770.667 2.09061 2.32943 0
M  V30 7779 C 771.142 3.23214 3.24495 0
M  V30 7780 N 772.633 3.22922 3.32078 0
M  V30 7781 C 773.368 4.07889 4.03006 0
M  V30 7782 N 772.864 5.02941 4.76469 0
M  V30 7783 N 774.657 3.95881 3.99043 0
M  V30 7784 H 766.808 2.03015 0.624388 0
M  V30 7785 H 769.071 0.88576 0.337835 0
M  V30 7786 H 768.777 3.02847 1.78819 0
M  V30 7787 H 768.651 1.99538 3.201 0
M  V30 7788 H 771.038 1.12308 2.72893 0
M  V30 7789 H 771.119 2.19089 1.32037 0
M  V30 7790 H 770.763 4.20225 2.85261 0
M  V30 7791 H 770.693 3.10423 4.25377 0
M  V30 7792 H 773.184 2.54093 2.79724 0
M  V30 7793 H 773.497 5.64196 5.28112 0
M  V30 7794 H 771.842 5.06922 4.75453 0
M  V30 7795 H 775.033 3.20927 3.40769 0
M  V30 7796 H 775.206 4.62321 4.54052 0
M  V30 7797 N 768.612 -1.24939 0.960631 0
M  V30 7798 C 769.56 -2.27659 0.47686 0
M  V30 7799 C 770.554 -1.63148 -0.455961 0
M  V30 7800 O 771.76 -1.76911 -0.332029 0
M  V30 7801 H 768.135 -0.739651 0.135723 0
M  V30 7802 H 770.106 -2.65844 1.35534 0
M  V30 7803 C 768.855 -3.46976 -0.224191 0
M  V30 7804 H 768.178 -3.96854 0.484471 0
M  V30 7805 H 769.618 -4.20717 -0.526615 0
M  V30 7806 C 768.077 -3.04159 -1.44876 0
M  V30 7807 O 768.607 -3.10697 -2.54618 0
M  V30 7808 N 766.813 -2.59284 -1.31226 0
M  V30 7809 H 766.36 -2.54164 -0.419361 0
M  V30 7810 H 766.318 -2.31 -2.13275 0
M  V30 7811 N 770.09 -0.729906 -1.39679 0
M  V30 7812 C 771.339 -0.272534 -1.9985 0
M  V30 7813 C 771.652 1.14519 -1.58571 0
M  V30 7814 O 772.858 1.70182 -2.11543 0
M  V30 7815 C 771.314 -0.436322 -3.57245 0
M  V30 7816 C 770.922 -1.86161 -4.0749 0
M  V30 7817 C 772.666 -0.0404679 -4.24481 0
M  V30 7818 C 770.573 -1.97522 -5.5744 0
M  V30 7819 H 769.503 -0.0981428 -0.747585 0
M  V30 7820 H 772.154 -0.903056 -1.59741 0
M  V30 7821 H 770.536 0.263015 -3.95126 0
M  V30 7822 H 771.71 -2.59248 -3.80955 0
M  V30 7823 H 770.025 -2.21021 -3.529 0
M  V30 7824 H 772.622 -0.104437 -5.34598 0
M  V30 7825 H 772.965 1.00357 -4.04023 0
M  V30 7826 H 773.498 -0.690774 -3.91757 0
M  V30 7827 H 770.237 -3.00096 -5.82771 0
M  V30 7828 H 769.757 -1.28864 -5.85794 0
M  V30 7829 H 771.436 -1.754 -6.22771 0
M  V30 7830 N 771.568 1.50203 -0.477153 0
M  V30 7831 C 772.816 2.01959 0.0755889 0
M  V30 7832 C 773.137 1.3608 1.39668 0
M  V30 7833 O 772.407 0.508136 1.89195 0
M  V30 7834 H 770.987 0.74636 0.0309248 0
M  V30 7835 H 773.649 1.84473 -0.628959 0
M  V30 7836 H 772.745 3.11305 0.222683 0
M  V30 7837 N 773.046 0.209999 1.56195 0
M  V30 7838 C 773.993 -0.704854 2.19774 0
M  V30 7839 C 774.963 -1.19886 1.14964 0
M  V30 7840 O 776.148 -1.26005 1.43274 0
M  V30 7841 C 773.288 -1.91241 2.87265 0
M  V30 7842 C 772.401 -1.45838 4.06639 0
M  V30 7843 C 771.536 -2.6226 4.61945 0
M  V30 7844 C 770.575 -2.13537 5.73645 0
M  V30 7845 N 769.712 -3.2319 6.23292 0
M  V30 7846 H 774.552 -0.155944 2.97592 0
M  V30 7847 H 772.089 -0.0652235 1.46955 0
M  V30 7848 H 774.047 -2.62123 3.24573 0
M  V30 7849 H 772.677 -2.43439 2.11985 0
M  V30 7850 H 771.729 -0.644897 3.74894 0
M  V30 7851 H 773.041 -1.06103 4.87384 0
M  V30 7852 H 772.195 -3.41243 5.01636 0
M  V30 7853 H 770.934 -3.05278 3.80338 0
M  V30 7854 H 769.939 -1.33013 5.33468 0
M  V30 7855 H 771.164 -1.71533 6.57079 0
M  V30 7856 H 769.11 -3.65711 5.44602 0
M  V30 7857 H 769.027 -2.8767 6.99129 0
M  V30 7858 H 770.295 -4.02342 6.67639 0
M  V30 7859 N 774.524 -1.57472 -0.0634922 0
M  V30 7860 C 775.471 -2.04258 -1.07457 0
M  V30 7861 C 776.441 -0.924804 -1.37973 0
M  V30 7862 O 777.626 -1.19305 -1.48899 0
M  V30 7863 C 774.766 -2.49832 -2.38071 0
M  V30 7864 C 773.879 -3.75263 -2.14014 0
M  V30 7865 C 773.014 -4.09585 -3.38251 0
M  V30 7866 C 772.053 -5.28032 -3.09594 0
M  V30 7867 N 771.19 -5.57953 -4.26185 0
M  V30 7868 H 776.03 -2.90402 -0.668626 0
M  V30 7869 H 773.567 -1.43609 -0.318572 0
M  V30 7870 H 775.525 -2.7431 -3.14341 0
M  V30 7871 H 774.155 -1.66654 -2.76453 0
M  V30 7872 H 773.207 -3.58075 -1.28399 0
M  V30 7873 H 774.519 -4.61667 -1.88852 0
M  V30 7874 H 773.673 -4.35008 -4.2291 0
M  V30 7875 H 772.412 -3.21765 -3.66495 0
M  V30 7876 H 771.417 -5.02397 -2.23332 0
M  V30 7877 H 772.642 -6.17477 -2.82663 0
M  V30 7878 H 770.588 -4.73092 -4.54445 0
M  V30 7879 H 770.505 -6.38793 -4.04326 0
M  V30 7880 H 771.773 -5.87931 -5.11817 0
M  V30 7881 N 776.003 0.335068 -1.53997 0
M  V30 7882 C 777.28 1.09188 -1.62288 0
M  V30 7883 C 777.66 2.0626 -0.449458 0
M  V30 7884 O 777.008 2.21596 0.557444 0
M  V30 7885 C 777.218 1.80403 -2.98757 0
M  V30 7886 C 778.566 2.33841 -3.54406 0
M  V30 7887 O 779.59 1.90487 -3.00987 0
M  V30 7888 O 778.449 3.1318 -4.47862 0
M  V30 7889 H 775.543 0.502621 -0.656736 0
M  V30 7890 H 778.089 0.33588 -1.66343 0
M  V30 7891 H 776.861 1.09732 -3.75599 0
M  V30 7892 H 776.484 2.62841 -2.9833 0
M  V30 7893 N 777.481 1.45874 0.596531 0
M  V30 7894 C 778.414 1.49889 1.72071 0
M  V30 7895 C 779.392 0.354224 1.58695 0
M  V30 7896 O 780.576 0.556355 1.80103 0
M  V30 7897 C 777.703 1.3644 3.10003 0
M  V30 7898 C 776.749 2.54913 3.41938 0
M  V30 7899 S 777.582 4.17336 3.35545 0
M  V30 7900 C 778.738 4.06372 4.76039 0
M  V30 7901 H 778.971 2.45005 1.68404 0
M  V30 7902 H 776.504 1.33592 0.77412 0
M  V30 7903 H 778.462 1.29368 3.89582 0
M  V30 7904 H 777.123 0.427762 3.11174 0
M  V30 7905 H 776.316 2.41458 4.42396 0
M  V30 7906 H 775.918 2.58904 2.69898 0
M  V30 7907 H 778.21 3.72199 5.66105 0
M  V30 7908 H 779.153 5.0678 4.9455 0
M  V30 7909 H 779.561 3.37846 4.52239 0
M  V30 7910 N 778.959 -0.83999 1.33349 0
M  V30 7911 C 779.906 -1.94972 1.23509 0
M  V30 7912 C 780.876 -1.65709 0.113967 0
M  V30 7913 O 782.061 -1.88552 0.292045 0
M  V30 7914 C 779.201 -3.30919 0.979105 0
M  V30 7915 C 778.314 -3.72587 2.18639 0
M  V30 7916 C 777.449 -4.97397 1.86465 0
M  V30 7917 C 776.488 -5.31597 3.03432 0
M  V30 7918 N 775.625 -6.47584 2.71254 0
M  V30 7919 H 780.465 -2.0272 2.18423 0
M  V30 7920 H 778.002 -0.992017 1.08616 0
M  V30 7921 H 779.96 -4.09239 0.811126 0
M  V30 7922 H 778.59 -3.22731 0.0667099 0
M  V30 7923 H 777.642 -2.89799 2.46416 0
M  V30 7924 H 778.954 -3.93844 3.06086 0
M  V30 7925 H 778.108 -5.83462 1.66305 0
M  V30 7926 H 776.847 -4.78107 0.96254 0
M  V30 7927 H 775.852 -4.44037 3.24208 0
M  V30 7928 H 777.077 -5.52836 3.94397 0
M  V30 7929 H 775.023 -6.29783 1.836 0
M  V30 7930 H 774.94 -6.68931 3.52231 0
M  V30 7931 H 776.208 -7.36764 2.54558 0
M  V30 7932 N 780.437 -1.16799 -1.0581 0
M  V30 7933 C 781.683 -0.963929 -1.79109 0
M  V30 7934 C 782.038 0.502569 -1.8572 0
M  V30 7935 O 781.331 1.36813 -1.34137 0
M  V30 7936 C 781.525 -1.53111 -3.22942 0
M  V30 7937 C 781.354 -3.05123 -3.30348 0
M  V30 7938 C 780.124 -3.73804 -3.39998 0
M  V30 7939 C 782.322 -4.02777 -3.19805 0
M  V30 7940 N 780.304 -5.1348 -3.36469 0
M  V30 7941 C 781.675 -5.28866 -3.23576 0
M  V30 7942 C 783.73 -3.94533 -3.03724 0
M  V30 7943 C 782.433 -6.47669 -3.12918 0
M  V30 7944 C 784.459 -5.12913 -2.94405 0
M  V30 7945 C 783.821 -6.37884 -2.98803 0
M  V30 7946 H 779.92 -0.406555 -0.66801 0
M  V30 7947 H 782.504 -1.48277 -1.26183 0
M  V30 7948 H 780.675 -1.03869 -3.74254 0
M  V30 7949 H 782.407 -1.2643 -3.84444 0
M  V30 7950 H 779.162 -3.24457 -3.44999 0
M  V30 7951 H 779.586 -5.86477 -3.38191 0
M  V30 7952 H 784.228 -2.98763 -2.99166 0
M  V30 7953 H 781.946 -7.43656 -3.16231 0
M  V30 7954 H 785.532 -5.08309 -2.83042 0
M  V30 7955 H 784.412 -7.27946 -2.91657 0
M  V30 7956 N 781.915 1.24427 -0.967243 0
M  V30 7957 C 782.863 2.27403 -0.488927 0
M  V30 7958 C 783.857 1.63388 0.447302 0
M  V30 7959 O 785.063 1.77085 0.322643 0
M  V30 7960 H 781.438 0.738921 -0.139643 0
M  V30 7961 H 783.409 2.65122 -1.36942 0
M  V30 7962 C 782.158 3.4709 0.205787 0
M  V30 7963 H 781.481 3.96591 -0.50551 0
M  V30 7964 H 782.921 4.2099 0.504296 0
M  V30 7965 C 781.38 3.04923 1.43261 0
M  V30 7966 O 781.91 3.12043 2.52967 0
M  V30 7967 N 780.116 2.59976 1.29849 0
M  V30 7968 H 779.663 2.54382 0.405876 0
M  V30 7969 H 779.621 2.32128 2.12047 0
M  V30 7970 N 783.393 0.737304 1.3929 0
M  V30 7971 C 784.67 0.212464 1.94443 0
M  V30 7972 C 785.05 -1.28621 1.67391 0
M  V30 7973 O 784.398 -2.0529 1.00342 0
M  V30 7974 C 784.608 0.548565 3.44662 0
M  V30 7975 C 785.956 0.499177 4.21656 0
M  V30 7976 O 786.98 0.485892 3.5287 0
M  V30 7977 O 785.839 0.495739 5.44247 0
M  V30 7978 H 782.933 0.0395457 0.826054 0
M  V30 7979 H 785.479 0.816319 1.48776 0
M  V30 7980 H 784.251 1.58426 3.57795 0
M  V30 7981 H 783.874 -0.0841399 3.97511 0
M  V30 7982 N 784.871 -1.49948 0.485112 0
M  V30 7983 C 786.117 -2.02695 -0.0651022 0
M  V30 7984 C 786.45 -1.36534 -1.38102 0
M  V30 7985 O 785.725 -0.495677 -1.88078 0
M  V30 7986 C 786.008 -3.59337 -0.234285 0
M  V30 7987 C 785.861 -4.3605 1.10364 0
M  V30 7988 C 787.18 -4.28996 -0.982351 0
M  V30 7989 H 784.299 -0.736666 -0.0221856 0
M  V30 7990 H 786.941 -1.7913 0.633433 0
M  V30 7991 H 785.091 -3.79546 -0.829262 0
M  V30 7992 H 786.763 -4.27377 1.73627 0
M  V30 7993 H 785.006 -3.99236 1.69686 0
M  V30 7994 H 785.677 -5.43959 0.938743 0
M  V30 7995 H 788.153 -4.13346 -0.477904 0
M  V30 7996 H 787.029 -5.38379 -1.06955 0
M  V30 7997 H 787.29 -3.93135 -2.02231 0
M  V30 7998 N 786.349 -0.21828 -1.56081 0
M  V30 7999 C 787.577 0.419258 -2.02608 0
M  V30 8000 C 787.992 1.53578 -1.09814 0
M  V30 8001 O 787.349 1.82185 -0.107149 0
M  V30 8002 C 787.4 0.953955 -3.48686 0
M  V30 8003 O 787.121 -0.11805 -4.37941 0
M  V30 8004 C 788.622 1.66506 -4.10841 0
M  V30 8005 H 785.842 0.10296 -0.663054 0
M  V30 8006 H 788.386 -0.333776 -2.01758 0
M  V30 8007 H 786.541 1.65727 -3.50162 0
M  V30 8008 H 786.955 0.283359 -5.23734 0
M  V30 8009 H 788.429 1.99123 -5.14834 0
M  V30 8010 H 788.906 2.57705 -3.55647 0
M  V30 8011 H 789.512 1.00703 -4.13206 0
M  V30 8012 N 787.827 1.57504 0.0551401 0
M  V30 8013 C 789.055 1.92294 0.76358 0
M  V30 8014 C 789.47 0.815774 1.70266 0
M  V30 8015 O 788.827 -0.209772 1.8129 0
M  V30 8016 C 788.878 3.26914 1.54302 0
M  V30 8017 O 788.599 4.33375 0.641666 0
M  V30 8018 C 790.1 3.75825 2.35097 0
M  V30 8019 H 787.32 0.635229 0.216159 0
M  V30 8020 H 789.864 2.0449 0.0204385 0
M  V30 8021 H 788.019 3.16196 2.23828 0
M  V30 8022 H 788.433 5.10927 1.1855 0
M  V30 8023 H 789.907 4.72603 2.8522 0
M  V30 8024 H 790.384 3.0568 3.15367 0
M  V30 8025 H 790.99 3.89542 1.70696 0
M  V30 8026 N 789.305 -0.326896 1.54172 0
M  V30 8027 C 790.582 -1.08326 1.62864 0
M  V30 8028 C 790.962 -2.06018 0.46039 0
M  V30 8029 O 790.31 -2.21889 -0.545685 0
M  V30 8030 C 790.52 -1.78816 2.9971 0
M  V30 8031 C 791.868 -2.31958 3.55641 0
M  V30 8032 O 792.892 -1.88888 3.01993 0
M  V30 8033 O 791.751 -3.10801 4.49517 0
M  V30 8034 H 788.845 -0.499131 0.659392 0
M  V30 8035 H 791.391 -0.327054 1.66519 0
M  V30 8036 H 790.163 -1.07739 3.76176 0
M  V30 8037 H 789.786 -2.61255 2.99719 0
M  V30 8038 N 790.784 -1.46188 -0.588786 0
M  V30 8039 C 792.033 -1.50452 -1.34339 0
M  V30 8040 C 792.346 -0.158096 -1.9496 0
M  V30 8041 O 793.552 -0.0784918 -2.71387 0
M  V30 8042 C 792.008 -2.65074 -2.43441 0
M  V30 8043 C 791.616 -4.06111 -1.8915 0
M  V30 8044 C 793.36 -2.78603 -3.20282 0
M  V30 8045 C 791.267 -5.12084 -2.95845 0
M  V30 8046 H 790.197 -0.559905 -0.504997 0
M  V30 8047 H 792.848 -1.72382 -0.629014 0
M  V30 8048 H 791.23 -2.36462 -3.1765 0
M  V30 8049 H 792.404 -4.44487 -1.21524 0
M  V30 8050 H 790.719 -3.97197 -1.24995 0
M  V30 8051 H 793.316 -3.54944 -3.99898 0
M  V30 8052 H 793.659 -1.85902 -3.72486 0
M  V30 8053 H 794.192 -3.06832 -2.53178 0
M  V30 8054 H 790.931 -6.06556 -2.48535 0
M  V30 8055 H 790.451 -4.78259 -3.61979 0
M  V30 8056 H 792.13 -5.37661 -3.59902 0
M  V30 8057 N 792.262 0.832906 -1.33792 0
M  V30 8058 C 793.539 1.57359 -1.16178 0
M  V30 8059 C 793.919 2.09372 0.269532 0
M  V30 8060 O 793.267 1.89993 1.26944 0
M  V30 8061 C 793.477 2.70279 -2.20795 0
M  V30 8062 C 794.825 3.39305 -2.55259 0
M  V30 8063 O 795.849 2.80526 -2.19508 0
M  V30 8064 O 794.708 4.45428 -3.16632 0
M  V30 8065 H 791.802 0.694025 -0.449731 0
M  V30 8066 H 794.348 0.875144 -1.45394 0
M  V30 8067 H 793.12 2.29527 -3.16911 0
M  V30 8068 H 792.743 3.47782 -1.927 0
M  V30 8069 N 793.74 1.17359 1.05189 0
M  V30 8070 C 794.989 0.956412 1.77583 0
M  V30 8071 C 795.302 -0.516018 1.88671 0
M  V30 8072 O 796.508 -0.851401 2.57805 0
M  V30 8073 C 794.964 1.66203 3.19225 0
M  V30 8074 C 794.572 3.17299 3.16267 0
M  V30 8075 C 796.316 1.52725 3.96075 0
M  V30 8076 C 794.223 3.8055 4.52698 0
M  V30 8077 H 793.153 0.354204 0.665624 0
M  V30 8078 H 795.804 1.40612 1.17901 0
M  V30 8079 H 794.186 1.14006 3.79234 0
M  V30 8080 H 795.36 3.76431 2.65776 0
M  V30 8081 H 793.675 3.3079 2.52917 0
M  V30 8082 H 796.272 1.97351 4.96947 0
M  V30 8083 H 796.615 0.477803 4.13549 0
M  V30 8084 H 797.148 2.02139 3.42614 0
M  V30 8085 H 793.887 4.85492 4.4043 0
M  V30 8086 H 793.407 3.26206 5.03339 0
M  V30 8087 H 795.086 3.82757 5.21638 0
M  V30 8088 N 795.218 -1.23913 0.973828 0
M  V30 8089 C 796.166 -2.27141 0.50098 0
M  V30 8090 C 797.16 -1.63623 -0.438631 0
M  V30 8091 O 798.366 -1.77253 -0.313247 0
M  V30 8092 H 794.741 -0.73817 0.14356 0
M  V30 8093 H 796.712 -2.64392 1.38346 0
M  V30 8094 C 795.461 -3.47195 -0.187377 0
M  V30 8095 H 794.784 -3.96318 0.526535 0
M  V30 8096 H 796.224 -4.21252 -0.481962 0
M  V30 8097 C 794.683 -3.05678 -1.41642 0
M  V30 8098 O 795.213 -3.1338 -2.51309 0
M  V30 8099 N 793.419 -2.60661 -1.28469 0
M  V30 8100 H 792.966 -2.54594 -0.39238 0
M  V30 8101 H 792.924 -2.33249 -2.10813 0
M  V30 8102 N 796.696 -0.74468 -1.38897 0
M  V30 8103 C 798.107 -0.36568 -1.83084 0
M  V30 8104 C 798.458 1.10436 -1.62168 0
M  V30 8105 O 797.583 1.85281 -1.11804 0
M  V30 8106 C 798.178 -0.656946 -3.3237 0
M  V30 8107 C 796.737 -0.331329 -3.74939 0
M  V30 8108 C 795.884 -0.914661 -2.61781 0
M  V30 8109 H 798.835 -0.941551 -1.27752 0
M  V30 8110 H 798.856 0.0679546 -3.80439 0
M  V30 8111 H 798.368 -1.72693 -3.47561 0
M  V30 8112 H 796.469 0.732426 -3.6533 0
M  V30 8113 H 796.582 -0.820655 -4.72019 0
M  V30 8114 H 794.946 -0.34063 -2.52412 0
M  V30 8115 H 795.729 -1.98949 -2.79775 0
M  V30 8116 N 798.174 1.49689 -0.493057 0
M  V30 8117 C 799.084 2.32746 0.294358 0
M  V30 8118 C 800.1 1.44117 0.975003 0
M  V30 8119 O 801.276 1.77149 0.958138 0
M  V30 8120 C 798.341 3.19358 1.34949 0
M  V30 8121 C 797.402 4.2383 0.683122 0
M  V30 8122 C 796.635 5.06303 1.68798 0
M  V30 8123 O 796.858 4.90172 2.91698 0
M  V30 8124 O 795.792 5.88826 1.24768 0
M  V30 8125 H 799.618 3.01247 -0.385254 0
M  V30 8126 H 797.203 1.47216 -0.254519 0
M  V30 8127 H 799.085 3.73037 1.96014 0
M  V30 8128 H 797.76 2.53561 2.01217 0
M  V30 8129 H 796.667 3.74086 0.0329351 0
M  V30 8130 H 798 4.9216 0.0630192 0
M  V30 8131 N 799.652 0.226554 1.55963 0
M  V30 8132 C 800.88 -0.408507 2.02827 0
M  V30 8133 C 801.295 -1.52994 1.10627 0
M  V30 8134 O 800.652 -1.82126 0.116809 0
M  V30 8135 C 800.703 -0.93545 3.49187 0
M  V30 8136 O 800.424 0.141273 4.37872 0
M  V30 8137 C 801.925 -1.64325 4.11719 0
M  V30 8138 H 799.145 -0.099442 0.66359 0
M  V30 8139 H 801.689 0.344471 2.01578 0
M  V30 8140 H 799.844 -1.63868 3.51036 0
M  V30 8141 H 800.258 -0.25558 5.23877 0
M  V30 8142 H 801.732 -1.9639 5.15883 0
M  V30 8143 H 802.209 -2.55815 3.57009 0
M  V30 8144 H 802.815 -0.9851 4.13734 0
M  V30 8145 N 801.13 -1.57531 -0.0467866 0
M  V30 8146 C 802.36 -1.92417 -0.752279 0
M  V30 8147 C 802.768 -0.823134 -1.70356 0
M  V30 8148 O 802.111 0.210598 -1.82489 0
M  V30 8149 C 802.173 -3.22974 -1.57887 0
M  V30 8150 C 801.837 -4.50045 -0.794285 0
M  V30 8151 C 802.834 -5.19799 -0.102368 0
M  V30 8152 C 800.519 -4.96608 -0.754061 0
M  V30 8153 C 802.513 -6.34385 0.619267 0
M  V30 8154 C 800.2 -6.11093 -0.0286682 0
M  V30 8155 C 801.198 -6.79835 0.656772 0
M  V30 8156 O 800.886 -7.92133 1.37042 0
M  V30 8157 H 800.618 -0.640029 -0.217576 0
M  V30 8158 H 803.172 -2.05395 -0.0137438 0
M  V30 8159 H 801.402 -3.06273 -2.3608 0
M  V30 8160 H 803.091 -3.43319 -2.16533 0
M  V30 8161 H 803.857 -4.8484 -0.124589 0
M  V30 8162 H 799.736 -4.42958 -1.27706 0
M  V30 8163 H 803.28 -6.87975 1.15483 0
M  V30 8164 H 799.177 -6.455 -0.00446214 0
M  V30 8165 H 799.945 -8.08394 1.28227 0
M  V30 8166 N 802.608 0.318715 -1.54344 0
M  V30 8167 C 803.518 1.41535 -1.87097 0
M  V30 8168 C 804.534 1.56361 -0.763353 0
M  V30 8169 O 805.71 1.71365 -1.05811 0
M  V30 8170 C 802.775 2.76178 -2.09587 0
M  V30 8171 C 801.836 2.70486 -3.3337 0
M  V30 8172 C 801.069 3.98708 -3.54778 0
M  V30 8173 O 801.292 4.9721 -2.79532 0
M  V30 8174 O 800.226 4.01674 -4.48266 0
M  V30 8175 H 804.052 1.16764 -2.80357 0
M  V30 8176 H 801.637 0.51318 -1.4031 0
M  V30 8177 H 803.519 3.55873 -2.25682 0
M  V30 8178 H 802.194 3.00829 -1.19514 0
M  V30 8179 H 801.101 1.89325 -3.22656 0
M  V30 8180 H 802.434 2.50789 -4.23516 0
M  V30 8181 N 804.086 1.46499 0.581025 0
M  V30 8182 C 805.332 1.52121 1.34116 0
M  V30 8183 C 805.665 0.173031 1.93428 0
M  V30 8184 O 804.94 -0.815729 1.76568 0
M  V30 8185 C 805.223 2.62108 2.46924 0
M  V30 8186 C 805.076 4.06462 1.92636 0
M  V30 8187 C 806.395 2.68167 3.48962 0
M  V30 8188 H 803.514 0.5538 0.486287 0
M  V30 8189 H 806.156 1.78443 0.652538 0
M  V30 8190 H 804.306 2.39794 3.05665 0
M  V30 8191 H 805.978 4.40068 1.3834 0
M  V30 8192 H 804.221 4.15862 1.23455 0
M  V30 8193 H 804.892 4.79152 2.74076 0
M  V30 8194 H 807.368 2.8823 3.00104 0
M  V30 8195 H 806.244 3.46942 4.2535 0
M  V30 8196 H 806.505 1.74284 4.06297 0
M  V30 8197 N 805.565 -0.825799 1.34232 0
M  V30 8198 C 806.512 -1.93651 1.2557 0
M  V30 8199 C 807.482 -1.65578 0.131536 0
M  V30 8200 O 808.667 -1.88231 0.312027 0
M  V30 8201 C 805.807 -3.29862 1.01415 0
M  V30 8202 C 804.92 -3.70247 2.22579 0
M  V30 8203 C 804.055 -4.95392 1.91731 0
M  V30 8204 C 803.094 -5.28349 3.09053 0
M  V30 8205 N 802.231 -6.44671 2.78107 0
M  V30 8206 H 807.071 -2.00392 2.20561 0
M  V30 8207 H 804.608 -0.980441 1.09662 0
M  V30 8208 H 806.566 -4.08356 0.854485 0
M  V30 8209 H 805.196 -3.22642 0.100936 0
M  V30 8210 H 804.248 -2.87169 2.49476 0
M  V30 8211 H 805.56 -3.90575 3.10246 0
M  V30 8212 H 804.714 -5.81665 1.72484 0
M  V30 8213 H 803.453 -4.77059 1.0132 0
M  V30 8214 H 802.458 -4.40574 3.289 0
M  V30 8215 H 803.683 -5.48622 4.00239 0
M  V30 8216 H 801.629 -6.278 1.9027 0
M  V30 8217 H 801.546 -6.65158 3.59306 0
M  V30 8218 H 802.814 -7.34022 2.62358 0
M  V30 8219 N 807.043 -1.17915 -1.04565 0
M  V30 8220 C 808.289 -0.972863 -1.77942 0
M  V30 8221 C 808.622 0.496753 -1.87739 0
M  V30 8222 O 807.897 1.3688 -1.38181 0
M  V30 8223 C 808.18 -1.62227 -3.21488 0
M  V30 8224 C 808.033 -3.16441 -3.19664 0
M  V30 8225 C 809.352 -1.33137 -4.19479 0
M  V30 8226 H 806.471 -0.354843 -0.645953 0
M  V30 8227 H 809.113 -1.45508 -1.22178 0
M  V30 8228 H 807.263 -1.21224 -3.69103 0
M  V30 8229 H 808.935 -3.66544 -2.80077 0
M  V30 8230 H 807.178 -3.48863 -2.57832 0
M  V30 8231 H 807.849 -3.57012 -4.21006 0
M  V30 8232 H 810.325 -1.68654 -3.80388 0
M  V30 8233 H 809.201 -1.81151 -5.18146 0
M  V30 8234 H 809.462 -0.253319 -4.41374 0
M  V30 8235 N 808.521 1.23394 -0.980386 0
M  V30 8236 C 809.798 1.87242 -0.565667 0
M  V30 8237 C 810.178 1.88151 0.957197 0
M  V30 8238 O 809.526 1.36309 1.8339 0
M  V30 8239 C 809.736 3.28743 -1.17172 0
M  V30 8240 C 811.084 4.05335 -1.26446 0
M  V30 8241 O 812.108 3.37962 -1.12517 0
M  V30 8242 O 810.967 5.25908 -1.48604 0
M  V30 8243 H 808.061 0.80477 -0.190459 0
M  V30 8244 H 810.607 1.3127 -1.07547 0
M  V30 8245 H 809.379 3.22647 -2.21392 0
M  V30 8246 H 809.002 3.92305 -0.646739 0
M  V30 8247 N 809.999 0.752036 1.385 0
M  V30 8248 C 811.247 0.306895 1.99756 0
M  V30 8249 C 811.568 -1.11478 1.59992 0
M  V30 8250 O 810.838 -1.76206 0.856045 0
M  V30 8251 H 809.418 0.11048 0.738785 0
M  V30 8252 H 812.08 0.965785 1.69289 0
M  V30 8253 H 811.176 0.368797 3.09913 0
M  V30 8254 N 811.477 -1.49425 0.500989 0
M  V30 8255 C 812.387 -2.32899 -0.282011 0
M  V30 8256 C 813.403 -1.44632 -0.967346 0
M  V30 8257 O 814.579 -1.77654 -0.94873 0
M  V30 8258 C 811.644 -3.20069 -1.33253 0
M  V30 8259 C 810.705 -4.24186 -0.660636 0
M  V30 8260 C 809.938 -5.07191 -1.6611 0
M  V30 8261 O 810.161 -4.91712 -2.89094 0
M  V30 8262 O 809.095 -5.8948 -1.21643 0
M  V30 8263 H 812.921 -3.01038 0.401224 0
M  V30 8264 H 810.506 -1.47079 0.262323 0
M  V30 8265 H 812.388 -3.74071 -1.94033 0
M  V30 8266 H 811.063 -2.54625 -1.9987 0
M  V30 8267 H 809.97 -3.74098 -0.0130959 0
M  V30 8268 H 811.303 -4.92186 -0.0369179 0
M  V30 8269 N 812.955 -0.234822 -1.55841 0
M  V30 8270 C 814.201 0.393843 -1.98939 0
M  V30 8271 C 814.534 1.58466 -1.1226 0
M  V30 8272 O 813.809 1.93635 -0.183242 0
M  V30 8273 C 814.092 0.815492 -3.50745 0
M  V30 8274 C 813.945 -0.379878 -4.48193 0
M  V30 8275 C 815.264 1.66687 -4.07312 0
M  V30 8276 H 812.383 0.141681 -0.723253 0
M  V30 8277 H 815.025 -0.333716 -1.87046 0
M  V30 8278 H 813.175 1.43541 -3.6101 0
M  V30 8279 H 814.847 -1.0182 -4.49923 0
M  V30 8280 H 813.09 -1.02507 -4.21515 0
M  V30 8281 H 813.761 -0.0417069 -5.51984 0
M  V30 8282 H 816.237 1.14369 -4.00074 0
M  V30 8283 H 815.113 1.93078 -5.13821 0
M  V30 8284 H 815.374 2.63468 -3.55017 0
M  V30 8285 N 814.433 1.57553 0.0384317 0
M  V30 8286 C 815.363 2.0898 1.04161 0
M  V30 8287 C 816.344 0.99029 1.38301 0
M  V30 8288 O 817.529 1.26499 1.47349 0
M  V30 8289 C 814.659 2.56145 2.34536 0
M  V30 8290 C 813.613 3.70275 2.14663 0
M  V30 8291 C 812.939 4.03612 3.50715 0
M  V30 8292 C 814.239 4.99067 1.54045 0
M  V30 8293 H 815.933 2.93046 0.613548 0
M  V30 8294 H 813.479 1.40973 0.293684 0
M  V30 8295 H 815.432 2.90741 3.05037 0
M  V30 8296 H 814.156 1.6915 2.79385 0
M  V30 8297 H 812.815 3.36013 1.46597 0
M  V30 8298 H 812.463 3.13698 3.93195 0
M  V30 8299 H 812.163 4.80482 3.38247 0
M  V30 8300 H 813.687 4.40735 4.22593 0
M  V30 8301 H 815.101 5.3168 2.14451 0
M  V30 8302 H 813.498 5.80484 1.52178 0
M  V30 8303 H 814.568 4.8226 0.505259 0
M  V30 8304 N 815.911 -0.310526 1.54511 0
M  V30 8305 C 817.139 -1.06611 1.77318 0
M  V30 8306 C 817.554 -1.81265 0.528043 0
M  V30 8307 O 816.911 -1.75466 -0.50178 0
M  V30 8308 C 816.962 -2.05409 2.97472 0
M  V30 8309 O 816.683 -1.33785 4.17173 0
M  V30 8310 C 818.184 -2.93082 3.32593 0
M  V30 8311 H 815.404 -0.316578 0.591624 0
M  V30 8312 H 817.948 -0.352691 2.01436 0
M  V30 8313 H 816.103 -2.72266 2.7559 0
M  V30 8314 H 816.517 -2.00055 4.84849 0
M  V30 8315 H 817.991 -3.58274 4.19933 0
M  V30 8316 H 818.468 -3.60877 2.50329 0
M  V30 8317 H 819.074 -2.31768 3.566 0
M  V30 8318 N 817.389 -1.46805 -0.573248 0
M  V30 8319 C 818.629 -1.5417 -1.34205 0
M  V30 8320 C 818.993 -0.192675 -1.91031 0
M  V30 8321 O 820.194 -0.141111 -2.68429 0
M  V30 8322 C 818.465 -2.61682 -2.43428 0
M  V30 8323 S 820.024 -2.88519 -3.30609 0
M  V30 8324 H 816.842 -0.544592 -0.4571 0
M  V30 8325 H 819.444 -1.84094 -0.658001 0
M  V30 8326 H 818.148 -3.58319 -2.00088 0
M  V30 8327 H 817.679 -2.33521 -3.16594 0
M  V30 8328 H 819.694 -2.2451 -4.42504 0
M  V30 8329 N 818.867 0.818669 -1.34668 0
M  V30 8330 C 819.777 1.9616 -1.2868 0
M  V30 8331 C 820.793 1.72918 -0.193742 0
M  V30 8332 O 821.969 1.96951 -0.420975 0
M  V30 8333 C 819.034 3.30534 -1.04633 0
M  V30 8334 C 818.095 3.66755 -2.23136 0
M  V30 8335 C 817.328 4.94717 -2.00227 0
M  V30 8336 O 817.551 5.62218 -0.96264 0
M  V30 8337 O 816.485 5.28915 -2.87286 0
M  V30 8338 H 820.311 2.04157 -2.24842 0
M  V30 8339 H 817.896 0.954691 -1.14917 0
M  V30 8340 H 819.778 4.11005 -0.930216 0
M  V30 8341 H 818.453 3.23495 -0.115139 0
M  V30 8342 H 817.36 2.8671 -2.40308 0
M  V30 8343 H 818.693 3.78484 -3.1466 0
M  V30 8344 N 820.346 1.18468 1.03938 0
M  V30 8345 C 821.757 0.984808 1.58614 0
M  V30 8346 C 822.108 -0.465165 1.90606 0
M  V30 8347 O 821.233 -1.34274 1.69704 0
M  V30 8348 C 821.828 1.78135 2.8819 0
M  V30 8349 C 820.387 1.62579 3.39478 0
M  V30 8350 C 819.534 1.77501 2.13046 0
M  V30 8351 H 822.485 1.32993 0.865944 0
M  V30 8352 H 822.506 1.27119 3.58638 0
M  V30 8353 H 822.018 2.83661 2.64874 0
M  V30 8354 H 820.119 0.59595 3.67803 0
M  V30 8355 H 820.232 2.42463 4.13217 0
M  V30 8356 H 818.596 1.2046 2.24414 0
M  V30 8357 H 819.379 2.84464 1.92185 0
M  V30 8358 N 821.824 -1.22873 0.986916 0
M  V30 8359 C 823.07 -1.91746 0.660401 0
M  V30 8360 C 823.403 -1.76738 -0.804812 0
M  V30 8361 O 822.678 -1.13246 -1.58131 0
M  V30 8362 C 822.961 -3.44156 1.05966 0
M  V30 8363 C 822.814 -3.68242 2.58298 0
M  V30 8364 C 824.133 -4.35874 0.60842 0
M  V30 8365 H 821.252 -0.696347 0.241391 0
M  V30 8366 H 823.894 -1.44867 1.22937 0
M  V30 8367 H 822.044 -3.84213 0.575534 0
M  V30 8368 H 823.716 -3.37626 3.14335 0
M  V30 8369 H 821.959 -3.12728 3.00638 0
M  V30 8370 H 822.63 -4.74956 2.81285 0
M  V30 8371 H 825.106 -4.03299 1.02417 0
M  V30 8372 H 823.982 -5.41201 0.916142 0
M  V30 8373 H 824.243 -4.39364 -0.491086 0
M  V30 8374 N 823.302 -0.75937 -1.38099 0
M  V30 8375 C 824.249 -0.135508 -2.30402 0
M  V30 8376 C 825.219 0.703356 -1.50473 0
M  V30 8377 O 826.404 0.658287 -1.79084 0
M  V30 8378 C 823.544 0.747228 -3.36913 0
M  V30 8379 C 822.657 -0.106893 -4.31868 0
M  V30 8380 C 821.792 0.779388 -5.25451 0
M  V30 8381 C 820.831 -0.0780179 -6.1205 0
M  V30 8382 N 819.968 0.765545 -6.97914 0
M  V30 8383 H 824.808 -0.9282 -2.83176 0
M  V30 8384 H 822.345 -0.46935 -1.39411 0
M  V30 8385 H 824.303 1.27371 -3.97281 0
M  V30 8386 H 822.933 1.50565 -2.85535 0
M  V30 8387 H 821.985 -0.751063 -3.72912 0
M  V30 8388 H 823.297 -0.768798 -4.9284 0
M  V30 8389 H 822.451 1.37282 -5.90964 0
M  V30 8390 H 821.19 1.47501 -4.6486 0
M  V30 8391 H 820.195 -0.684078 -5.45528 0
M  V30 8392 H 821.42 -0.770786 -6.74712 0
M  V30 8393 H 819.366 1.44601 -6.39864 0
M  V30 8394 H 819.283 0.160666 -7.55829 0
M  V30 8395 H 820.551 1.34377 -7.6783 0
M  V30 8396 N 824.78 1.49157 -0.508906 0
M  V30 8397 C 825.69 2.33045 0.269656 0
M  V30 8398 C 826.706 1.45143 0.959662 0
M  V30 8399 O 827.882 1.78155 0.939295 0
M  V30 8400 C 824.947 3.20772 1.31554 0
M  V30 8401 C 824.008 4.24531 0.638131 0
M  V30 8402 C 823.241 5.08065 1.63418 0
M  V30 8403 O 823.464 4.93238 2.86483 0
M  V30 8404 O 822.398 5.90117 1.18516 0
M  V30 8405 H 826.224 3.00821 -0.417183 0
M  V30 8406 H 823.809 1.46938 -0.270119 0
M  V30 8407 H 825.691 3.75095 1.92047 0
M  V30 8408 H 824.366 2.55681 1.98516 0
M  V30 8409 H 823.273 3.74099 -0.00674357 0
M  V30 8410 H 824.606 4.92199 0.0108155 0
M  V30 8411 N 826.258 0.243083 1.55714 0
M  V30 8412 C 827.188 -0.652336 2.24203 0
M  V30 8413 C 828.169 -1.1843 1.221 0
M  V30 8414 O 829.354 -1.22435 1.50743 0
M  V30 8415 C 826.484 -1.85111 2.93856 0
M  V30 8416 C 825.438 -1.45208 4.02615 0
M  V30 8417 C 824.764 -2.73137 4.59674 0
M  V30 8418 C 826.064 -0.625988 5.18535 0
M  V30 8419 H 827.758 -0.0812504 2.9929 0
M  V30 8420 H 825.304 -0.0376388 1.43951 0
M  V30 8421 H 827.257 -2.48314 3.40468 0
M  V30 8422 H 825.981 -2.44751 2.16251 0
M  V30 8423 H 824.64 -0.843406 3.56766 0
M  V30 8424 H 824.288 -3.30967 3.78774 0
M  V30 8425 H 823.988 -2.47163 5.33089 0
M  V30 8426 H 825.512 -3.37245 5.09017 0
M  V30 8427 H 826.926 -1.16223 5.61396 0
M  V30 8428 H 825.323 -0.462465 5.98315 0
M  V30 8429 H 826.393 0.362652 4.83542 0
M  V30 8430 N 827.736 -1.57571 -0.0300757 0
M  V30 8431 C 829.147 -1.77567 -0.576802 0
M  V30 8432 C 829.498 -0.874034 -1.75656 0
M  V30 8433 O 828.623 -0.0686124 -2.16291 0
M  V30 8434 C 829.218 -3.22016 -1.05315 0
M  V30 8435 C 827.777 -3.43212 -1.5454 0
M  V30 8436 C 826.924 -2.73061 -0.483033 0
M  V30 8437 H 829.875 -1.57483 0.196151 0
M  V30 8438 H 829.896 -3.28474 -1.92055 0
M  V30 8439 H 829.408 -3.87613 -0.194298 0
M  V30 8440 H 827.509 -2.82788 -2.42615 0
M  V30 8441 H 827.622 -4.5182 -1.5936 0
M  V30 8442 H 825.986 -2.36805 -0.937835 0
M  V30 8443 H 826.769 -3.4134 0.366341 0
M  V30 8444 N 829.214 0.302327 -1.54673 0
M  V30 8445 C 830.147 1.39738 -1.80412 0
M  V30 8446 C 831.125 1.48813 -0.655241 0
M  V30 8447 O 832.309 1.65895 -0.89505 0
M  V30 8448 C 829.436 2.7766 -1.93966 0
M  V30 8449 C 828.482 2.86014 -3.16383 0
M  V30 8450 S 829.315 2.48246 -4.74483 0
M  V30 8451 C 830.471 3.88198 -4.90971 0
M  V30 8452 H 830.704 1.17696 -2.73011 0
M  V30 8453 H 828.237 0.500364 -1.46068 0
M  V30 8454 H 830.195 3.571 -2.0246 0
M  V30 8455 H 828.856 2.96971 -1.02307 0
M  V30 8456 H 828.049 3.87174 -3.22664 0
M  V30 8457 H 827.651 2.14568 -3.06328 0
M  V30 8458 H 829.943 4.83181 -4.74913 0
M  V30 8459 H 830.886 3.86887 -5.93063 0
M  V30 8460 H 831.294 3.78139 -4.19131 0
M  V30 8461 N 830.692 1.47107 0.565454 0
M  V30 8462 C 831.655 1.58535 1.65527 0
M  V30 8463 C 832.655 0.461081 1.54048 0
M  V30 8464 O 833.845 0.725911 1.58355 0
M  V30 8465 C 830.977 1.52204 3.05036 0
M  V30 8466 H 832.17 2.55676 1.56747 0
M  V30 8467 H 829.723 1.35174 0.78471 0
M  V30 8468 H 830.458 0.564071 3.19357 0
M  V30 8469 H 830.243 2.3379 3.14777 0
M  V30 8470 H 831.733 1.63322 3.84338 0
M  V30 8471 N 832.17 -0.811516 1.35101 0
M  V30 8472 C 833.102 -1.93102 1.23468 0
M  V30 8473 C 834.115 -1.62021 0.159095 0
M  V30 8474 O 835.304 -1.73682 0.411945 0
M  V30 8475 C 832.404 -3.27345 0.877404 0
M  V30 8476 C 831.577 -3.86368 2.05033 0
M  V30 8477 C 830.636 -4.99009 1.66963 0
M  V30 8478 O 829.662 -5.16698 2.38772 0
M  V30 8479 N 830.864 -5.7749 0.590394 0
M  V30 8480 H 833.629 -2.0361 2.19916 0
M  V30 8481 H 831.19 -0.988687 1.28205 0
M  V30 8482 H 833.182 -4.00163 0.604298 0
M  V30 8483 H 831.752 -3.126 0.00275267 0
M  V30 8484 H 830.972 -3.05804 2.48752 0
M  V30 8485 H 832.26 -4.22533 2.83449 0
M  V30 8486 H 831.658 -5.657 -0.00633259 0
M  V30 8487 H 830.215 -6.50708 0.377055 0
M  V30 8488 N 833.648 -1.19017 -1.03309 0
M  V30 8489 C 835.064 -0.941483 -1.28873 0
M  V30 8490 C 835.264 0.388587 -1.97718 0
M  V30 8491 O 834.32 1.12111 -2.26246 0
M  V30 8492 C 835.633 -2.11249 -2.13996 0
M  V30 8493 C 837.181 -2.15164 -2.27318 0
M  V30 8494 C 837.656 -3.31704 -3.15811 0
M  V30 8495 N 839.147 -3.31613 -3.23399 0
M  V30 8496 C 839.882 -4.18431 -3.9205 0
M  V30 8497 N 839.378 -5.15397 -4.62966 0
M  V30 8498 N 841.171 -4.06321 -3.88406 0
M  V30 8499 H 833.322 -2.04599 -0.570343 0
M  V30 8500 H 835.585 -0.894406 -0.314232 0
M  V30 8501 H 835.291 -3.07482 -1.70727 0
M  V30 8502 H 835.165 -2.07955 -3.14697 0
M  V30 8503 H 837.552 -1.19504 -2.6982 0
M  V30 8504 H 837.633 -2.22513 -1.26182 0
M  V30 8505 H 837.277 -4.2764 -2.74019 0
M  V30 8506 H 837.207 -3.21592 -4.16997 0
M  V30 8507 H 839.698 -2.6142 -2.72888 0
M  V30 8508 H 840.011 -5.78 -5.12968 0
M  V30 8509 H 838.356 -5.19349 -4.61846 0
M  V30 8510 H 841.547 -3.29849 -3.3214 0
M  V30 8511 H 841.72 -4.74196 -4.41635 0
M  V30 8512 N 835.127 1.22348 -0.993418 0
M  V30 8513 C 836.357 1.94842 -0.687023 0
M  V30 8514 C 836.765 1.73594 0.752445 0
M  V30 8515 O 836.108 1.03238 1.51946 0
M  V30 8516 C 836.17 3.47694 -0.913754 0
M  V30 8517 C 835.834 3.92678 -2.33781 0
M  V30 8518 C 836.831 4.0031 -3.31734 0
M  V30 8519 C 834.516 4.25311 -2.67237 0
M  V30 8520 C 836.51 4.39951 -4.61218 0
M  V30 8521 C 834.197 4.64631 -3.9694 0
M  V30 8522 C 835.195 4.71919 -4.93742 0
M  V30 8523 O 834.883 5.10349 -6.21127 0
M  V30 8524 H 834.615 0.626771 -0.253247 0
M  V30 8525 H 837.169 1.56436 -1.33105 0
M  V30 8526 H 835.399 3.86115 -0.212552 0
M  V30 8527 H 837.088 4.01403 -0.602528 0
M  V30 8528 H 837.854 3.75288 -3.07219 0
M  V30 8529 H 833.733 4.18842 -1.92594 0
M  V30 8530 H 837.277 4.45555 -5.36774 0
M  V30 8531 H 833.174 4.89104 -4.21245 0
M  V30 8532 H 833.942 5.2842 -6.25072 0
M  V30 8533 N 836.605 0.766683 1.37694 0
M  V30 8534 C 837.852 0.328714 1.99814 0
M  V30 8535 C 838.18 -1.09333 1.60862 0
M  V30 8536 O 837.435 -1.7657 0.8439 0
M  V30 8537 C 837.734 0.413831 3.54996 0
M  V30 8538 C 837.4 1.7934 4.137 0
M  V30 8539 C 836.062 2.17092 4.29447 0
M  V30 8540 C 838.414 2.69776 4.45949 0
M  V30 8541 C 835.742 3.44726 4.74743 0
M  V30 8542 C 838.094 3.96814 4.92667 0
M  V30 8543 C 836.758 4.34618 5.0662 0
M  V30 8544 H 836.028 0.120285 0.731172 0
M  V30 8545 H 838.675 0.97972 1.64541 0
M  V30 8546 H 836.98 -0.320723 3.90485 0
M  V30 8547 H 838.677 0.0563369 4.0096 0
M  V30 8548 H 835.267 1.48997 4.01868 0
M  V30 8549 H 839.451 2.41871 4.33373 0
M  V30 8550 H 834.707 3.73917 4.83731 0
M  V30 8551 H 838.881 4.67022 5.16588 0
M  V30 8552 H 836.508 5.33578 5.41478 0
M  V30 8553 N 838.083 -1.48885 0.516809 0
M  V30 8554 C 839.013 -2.32241 -0.242157 0
M  V30 8555 C 839.994 -1.41258 -0.947633 0
M  V30 8556 O 841.179 -1.70156 -0.935973 0
M  V30 8557 C 838.309 -3.22151 -1.29754 0
M  V30 8558 C 837.263 -4.22053 -0.710995 0
M  V30 8559 C 836.589 -5.01007 -1.86806 0
M  V30 8560 C 837.889 -5.21388 0.30853 0
M  V30 8561 H 839.583 -2.95943 0.453651 0
M  V30 8562 H 837.129 -1.42316 0.219612 0
M  V30 8563 H 839.082 -3.79284 -1.83634 0
M  V30 8564 H 837.806 -2.56423 -2.02274 0
M  V30 8565 H 836.465 -3.66087 -0.193819 0
M  V30 8566 H 836.113 -4.31713 -2.58133 0
M  V30 8567 H 835.813 -5.68615 -1.48159 0
M  V30 8568 H 837.337 -5.60989 -2.4109 0
M  V30 8569 H 838.751 -5.73122 -0.142703 0
M  V30 8570 H 837.148 -5.96975 0.611673 0
M  V30 8571 H 838.218 -4.69329 1.21894 0
M  V30 8572 N 839.561 -0.251338 -1.55583 0
M  V30 8573 C 840.808 0.372169 -1.99051 0
M  V30 8574 C 841.136 1.57623 -1.13953 0
M  V30 8575 O 840.391 1.94762 -0.191398 0
M  V30 8576 C 840.69 0.821186 -3.47838 0
M  V30 8577 C 840.356 -0.275608 -4.50057 0
M  V30 8578 C 839.018 -0.57683 -4.7773 0
M  V30 8579 C 841.37 -1.01585 -5.11204 0
M  V30 8580 C 838.698 -1.62229 -5.63825 0
M  V30 8581 C 841.05 -2.05087 -5.98433 0
M  V30 8582 C 839.714 -2.35869 -6.24437 0
M  V30 8583 H 838.984 0.136186 -0.728378 0
M  V30 8584 H 841.631 -0.360089 -1.88084 0
M  V30 8585 H 839.936 1.63272 -3.56159 0
M  V30 8586 H 841.633 1.31396 -3.78861 0
M  V30 8587 H 838.223 -0.030697 -4.28589 0
M  V30 8588 H 842.407 -0.79639 -4.89869 0
M  V30 8589 H 837.663 -1.86607 -5.82226 0
M  V30 8590 H 841.837 -2.62934 -6.44855 0
M  V30 8591 H 839.464 -3.17017 -6.90944 0
M  V30 8592 O 841.078 1.61082 -0.116113 0
M  V30 8593 H 841.769 1.8758 0.483052 0
M  V30 END ATOM
M  V30 BEGIN BOND
M  V30 END BOND
M  V30 END CTAB
M  END
$$$$
