drugbank_target|Q3JUV5 Inorganic pyrophosphatase (DB06851; DB07291)
 OpenBabel12092120383D

  0  0  0     0  0            999 V3000
M  V30 BEGIN CTAB
M  V30 COUNTS 2715 2746 0 0 0
M  V30 BEGIN ATOM
M  V30 1 H -0.908 1.98254 -0.117106 0
M  V30 2 N 0 1.576 0 0
M  V30 3 C 0.933 2.03868 1.02534 0
M  V30 4 C 1.911 0.928543 1.3348 0
M  V30 5 O 3.095 1.19667 1.45644 0
M  V30 6 C 0.222 2.43627 2.35294 0
M  V30 7 C -0.732 3.65373 2.2001 0
M  V30 8 S 0.101 5.13292 1.52614 0
M  V30 9 C 1.257 5.56322 2.86805 0
M  V30 10 H 1.49 2.90518 0.631377 0
M  V30 11 H -0.977 1.52953 0.210867 0
M  V30 12 H 0.981 2.67203 3.11629 0
M  V30 13 H -0.358 1.57376 2.7183 0
M  V30 14 H -1.165 3.90944 3.18086 0
M  V30 15 H -1.563 3.418 1.51819 0
M  V30 16 H 0.729 5.58782 3.83104 0
M  V30 17 H 1.672 6.56266 2.65933 0
M  V30 18 H 2.08 4.83886 2.90714 0
M  V30 19 N 1.4781 -0.272755 1.55222 0
M  V30 20 C 2.7031 -1.02683 1.80197 0
M  V30 21 C 3.1281 -1.79142 0.573551 0
M  V30 22 O 2.4861 -1.74917 -0.476849 0
M  V30 23 C 2.5341 -1.9609 3.02624 0
M  V30 24 O 1.6381 -3.04863 2.77727 0
M  V30 25 H 0.9791 -0.293557 0.595584 0
M  V30 26 H 3.5091 -0.30159 2.02365 0
M  V30 27 H 3.5191 -2.38039 3.31363 0
M  V30 28 H 2.1941 -1.39851 3.91682 0
M  V30 29 H 0.7711 -2.67228 2.60084 0
M  V30 30 N 2.9562 -1.48159 -0.537278 0
M  V30 31 C 4.2032 -1.55804 -1.29349 0
M  V30 32 C 4.5312 -0.228802 -1.9315 0
M  V30 33 O 3.7862 0.780242 -1.79473 0
M  V30 34 C 4.0852 -2.63956 -2.40961 0
M  V30 35 C 3.7512 -4.0662 -1.94861 0
M  V30 36 C 2.4132 -4.45452 -1.82006 0
M  V30 37 C 4.7652 -4.96055 -1.59933 0
M  V30 38 C 2.0932 -5.71531 -1.32547 0
M  V30 39 C 4.4452 -6.22617 -1.11939 0
M  V30 40 C 3.1092 -6.60312 -0.976951 0
M  V30 41 H 2.3792 -0.570129 -0.473322 0
M  V30 42 H 5.0262 -1.81845 -0.600372 0
M  V30 43 H 3.3312 -2.31747 -3.15912 0
M  V30 44 H 5.0282 -2.67089 -2.99107 0
M  V30 45 H 1.6182 -3.75949 -2.05815 0
M  V30 46 H 5.8022 -4.66738 -1.68728 0
M  V30 47 H 1.0582 -5.99468 -1.202 0
M  V30 48 H 5.2322 -6.91318 -0.839811 0
M  V30 49 H 2.8592 -7.57895 -0.591501 0
M  V30 50 N 4.4343 0.785586 -1.36625 0
M  V30 51 C 5.6593 1.57963 -1.34397 0
M  V30 52 C 6.0843 1.87964 0.071526 0
M  V30 53 O 5.4423 1.48182 1.0446 0
M  V30 54 C 5.4903 2.87511 -2.17646 0
M  V30 55 O 4.5943 3.81281 -1.57158 0
M  V30 56 H 3.9353 0.479014 -0.459828 0
M  V30 57 H 6.4653 0.973411 -1.79961 0
M  V30 58 H 6.4753 3.36745 -2.30362 0
M  V30 59 H 5.1503 2.65002 -3.20541 0
M  V30 60 H 3.7273 3.39885 -1.53403 0
M  V30 61 N 5.9124 1.20967 1.01018 0
M  V30 62 C 6.8604 0.961223 2.1181 0
M  V30 63 C 7.8544 -0.0897034 1.69162 0
M  V30 64 O 9.0604 0.0612271 1.79896 0
M  V30 65 H 5.4354 0.29355 0.692338 0
M  V30 66 H 7.4064 1.90178 2.29946 0
M  V30 67 C 6.1554 0.536854 3.4353 0
M  V30 68 H 5.4784 1.33713 3.76777 0
M  V30 69 H 6.9184 0.402286 4.22087 0
M  V30 70 C 5.3774 -0.751574 3.2841 0
M  V30 71 O 5.9074 -1.80841 3.58691 0
M  V30 72 N 4.1134 -0.716079 2.81639 0
M  V30 73 H 3.6604 0.144236 2.57196 0
M  V30 74 H 3.6184 -1.57847 2.71904 0
M  V30 75 N 7.3905 -1.2043 1.01659 0
M  V30 76 C 8.6365 -1.90079 0.706963 0
M  V30 77 C 8.9695 -1.78648 -0.761474 0
M  V30 78 O 8.2445 -1.17069 -1.55323 0
M  V30 79 C 8.5275 -3.41469 1.14327 0
M  V30 80 C 8.3805 -3.61833 2.67201 0
M  V30 81 C 9.6995 -4.34261 0.714529 0
M  V30 82 H 6.8185 -0.690254 0.2583 0
M  V30 83 H 9.4605 -1.41826 1.26433 0
M  V30 84 H 7.6105 -3.82696 0.669056 0
M  V30 85 H 9.2825 -3.2986 3.22475 0
M  V30 86 H 7.5255 -3.05304 3.08175 0
M  V30 87 H 8.1965 -4.67955 2.92783 0
M  V30 88 H 10.6725 -4.00682 1.12221 0
M  V30 89 H 9.5485 -5.38806 1.04784 0
M  V30 90 H 9.8095 -4.40431 -0.383799 0
M  V30 91 N 8.8686 -0.792821 -1.36206 0
M  V30 92 C 10.2796 -0.429513 -1.81692 0
M  V30 93 C 10.6306 1.04695 -1.65932 0
M  V30 94 O 9.7556 1.81256 -1.18218 0
M  V30 95 C 10.3506 -0.772831 -3.29868 0
M  V30 96 C 8.9096 -0.462307 -3.7355 0
M  V30 97 C 8.0566 -1.00569 -2.5842 0
M  V30 98 H 11.0076 -0.985672 -1.24379 0
M  V30 99 H 11.0286 -0.0651928 -3.80444 0
M  V30 100 H 10.5406 -1.84747 -3.41307 0
M  V30 101 H 8.6416 0.604158 -3.67669 0
M  V30 102 H 8.7546 -0.985299 -4.68859 0
M  V30 103 H 7.1186 -0.428734 -2.51066 0
M  V30 104 H 7.9016 -2.08616 -2.72643 0
M  V30 105 N 10.3467 1.47872 -0.545128 0
M  V30 106 C 11.3097 2.28337 0.198717 0
M  V30 107 C 12.3097 1.36255 0.853888 0
M  V30 108 O 13.4997 1.59003 0.711606 0
M  V30 109 C 10.6317 3.15585 1.28915 0
M  V30 110 H 11.8247 2.95567 -0.507941 0
M  V30 111 H 9.3777 1.53362 -0.301616 0
M  V30 112 H 10.1127 2.53019 2.02859 0
M  V30 113 H 9.8977 3.83337 0.824309 0
M  V30 114 H 11.3877 3.76243 1.81194 0
M  V30 115 N 11.8248 0.280983 1.55075 0
M  V30 116 C 13.0728 -0.333455 1.9933 0
M  V30 117 C 13.3938 -1.55937 1.17085 0
M  V30 118 O 12.6638 -1.94143 0.261805 0
M  V30 119 H 11.2438 -0.126197 0.736263 0
M  V30 120 H 13.9058 0.387678 1.91005 0
M  V30 121 H 13.0018 -0.619292 3.05894 0
M  V30 122 N 13.3029 -1.57598 0.00835791 0
M  V30 123 C 14.2499 -2.08945 -0.980346 0
M  V30 124 C 15.2199 -0.986738 -1.33614 0
M  V30 125 O 16.4049 -1.25968 -1.43306 0
M  V30 126 C 13.5449 -2.60425 -2.26435 0
M  V30 127 C 12.6579 -3.84628 -1.96685 0
M  V30 128 C 11.7929 -4.24579 -3.19228 0
M  V30 129 C 10.8319 -5.41596 -2.85202 0
M  V30 130 N 9.9689 -5.768 -4.00307 0
M  V30 131 H 14.8089 -2.93148 -0.535551 0
M  V30 132 H 12.3459 -1.44912 -0.252776 0
M  V30 133 H 14.3039 -2.88354 -3.01509 0
M  V30 134 H 12.9339 -1.79083 -2.68568 0
M  V30 135 H 11.9859 -3.63556 -1.11942 0
M  V30 136 H 13.2979 -4.69796 -1.67611 0
M  V30 137 H 12.4519 -4.53834 -4.02641 0
M  V30 138 H 11.1909 -3.38137 -3.51447 0
M  V30 139 H 10.1959 -5.12056 -2.00198 0
M  V30 140 H 11.4209 -6.29721 -2.54222 0
M  V30 141 H 9.3669 -4.93316 -4.32407 0
M  V30 142 H 9.2839 -6.5656 -3.74786 0
M  V30 143 H 10.5519 -6.10652 -4.84484 0
M  V30 144 N 14.781 0.264519 -1.55364 0
M  V30 145 C 16.058 1.01677 -1.67096 0
M  V30 146 C 16.438 2.03996 -0.543015 0
M  V30 147 O 15.786 2.23907 0.45585 0
M  V30 148 C 15.996 1.66596 -3.0667 0
M  V30 149 C 17.344 2.17442 -3.64697 0
M  V30 150 O 18.368 1.76568 -3.09358 0
M  V30 151 O 17.227 2.92439 -4.61673 0
M  V30 152 H 14.321 0.472161 -0.678965 0
M  V30 153 H 16.867 0.259703 -1.67701 0
M  V30 154 H 15.639 0.924962 -3.80211 0
M  V30 155 H 15.262 2.48968 -3.10001 0
M  V30 156 N 16.2591 1.48442 0.529413 0
M  V30 157 C 17.1891 1.65902 1.64313 0
M  V30 158 C 18.1701 0.507897 1.6234 0
M  V30 159 O 19.3551 0.740503 1.79528 0
M  V30 160 C 16.4851 1.69911 3.02898 0
M  V30 161 C 15.4391 2.8453 3.19729 0
M  V30 162 C 14.7651 2.73629 4.59381 0
M  V30 163 C 16.0651 4.25821 3.02447 0
M  V30 164 H 17.7591 2.5914 1.49955 0
M  V30 165 H 15.3051 1.24709 0.719982 0
M  V30 166 H 17.2581 1.80715 3.80684 0
M  V30 167 H 15.9821 0.732524 3.18279 0
M  V30 168 H 14.6411 2.73283 2.44361 0
M  V30 169 H 14.2891 1.74938 4.71599 0
M  V30 170 H 13.9891 3.50541 4.71588 0
M  V30 171 H 15.5131 2.86401 5.39265 0
M  V30 172 H 16.9271 4.37898 3.70024 0
M  V30 173 H 15.3241 5.03735 3.26146 0
M  V30 174 H 16.3941 4.42244 1.98867 0
M  V30 175 N 17.7372 -0.778329 1.37039 0
M  V30 176 C 19.1482 -1.35421 1.28523 0
M  V30 177 C 19.4992 -1.96075 -0.0700901 0
M  V30 178 O 18.6242 -1.93352 -0.971801 0
M  V30 179 C 19.2192 -2.46211 2.32735 0
M  V30 180 C 17.7782 -2.99585 2.27873 0
M  V30 181 C 16.9252 -1.72748 2.16918 0
M  V30 182 H 19.8762 -0.5791 1.47757 0
M  V30 183 H 19.8972 -3.2552 1.9702 0
M  V30 184 H 19.4092 -2.02036 3.31365 0
M  V30 185 H 17.5102 -3.48152 1.32745 0
M  V30 186 H 17.6232 -3.55646 3.21018 0
M  V30 187 H 15.9872 -1.95416 1.63354 0
M  V30 188 H 16.7702 -1.30686 3.17452 0
M  V30 189 N 19.2153 -1.21501 -1.00376 0
M  V30 190 C 20.1473 -0.933174 -2.09343 0
M  V30 191 C 21.1603 0.0840896 -1.62583 0
M  V30 192 O 22.3493 -0.148563 -1.77881 0
M  V30 193 C 19.4493 -0.379869 -3.36764 0
M  V30 194 C 18.6223 -1.45176 -4.12605 0
M  V30 195 C 17.6813 -0.907476 -5.18316 0
M  V30 196 O 16.7073 -1.5912 -5.46507 0
M  V30 197 N 17.9093 0.276649 -5.7984 0
M  V30 198 H 20.6743 -1.87124 -2.34104 0
M  V30 199 H 18.2353 -1.12043 -1.16867 0
M  V30 200 H 20.2273 -0.00131488 -4.047 0
M  V30 201 H 18.7973 0.463048 -3.09151 0
M  V30 202 H 18.0173 -2.00411 -3.39454 0
M  V30 203 H 19.3053 -2.17328 -4.6005 0
M  V30 204 H 18.7033 0.849147 -5.59291 0
M  V30 205 H 17.2603 0.596702 -6.49063 0
M  V30 206 N 20.6934 1.19889 -1.02296 0
M  V30 207 C 21.9704 1.85148 -0.630832 0
M  V30 208 C 22.3504 1.91385 0.890782 0
M  V30 209 O 21.6984 1.42642 1.78509 0
M  V30 210 C 21.9084 3.24442 -1.28602 0
M  V30 211 C 23.2564 4.00663 -1.4055 0
M  V30 212 O 24.2804 3.33818 -1.24273 0
M  V30 213 O 23.1394 5.20387 -1.66913 0
M  V30 214 H 20.2334 0.797613 -0.218499 0
M  V30 215 H 22.7794 1.27427 -1.12074 0
M  V30 216 H 21.5514 3.14704 -2.32545 0
M  V30 217 H 21.1744 3.89802 -0.7836 0
M  V30 218 N 22.1715 0.800033 1.35784 0
M  V30 219 C 23.4185 0.377342 1.98953 0
M  V30 220 C 23.7465 -1.05378 1.6348 0
M  V30 221 O 23.0015 -1.74459 0.886707 0
M  V30 222 C 23.3005 0.500276 3.53881 0
M  V30 223 C 22.9665 1.89375 4.09204 0
M  V30 224 C 21.6285 2.27499 4.24025 0
M  V30 225 C 23.9805 2.8057 4.39238 0
M  V30 226 C 21.3085 3.562 4.66195 0
M  V30 227 C 23.6605 4.0871 4.82844 0
M  V30 228 C 22.3245 4.46843 4.95871 0
M  V30 229 H 21.5945 0.138079 0.728021 0
M  V30 230 H 24.2415 1.01955 1.62103 0
M  V30 231 H 22.5465 -0.225405 3.91151 0
M  V30 232 H 24.2435 0.154097 4.00704 0
M  V30 233 H 20.8335 1.58753 3.98115 0
M  V30 234 H 25.0175 2.52367 4.27346 0
M  V30 235 H 20.2735 3.85602 4.74469 0
M  V30 236 H 24.4475 4.79481 5.05046 0
M  V30 237 H 22.0745 5.46623 5.28306 0
M  V30 238 N 23.6496 -1.47581 0.552962 0
M  V30 239 C 24.5976 -2.31648 -0.21023 0
M  V30 240 C 25.5916 -1.42663 -0.913432 0
M  V30 241 O 26.7976 -1.5945 -0.835201 0
M  V30 242 H 23.1726 -0.746989 -0.0866676 0
M  V30 243 H 25.1436 -2.93869 0.518051 0
M  V30 244 C 23.8926 -3.25226 -1.22976 0
M  V30 245 H 23.2156 -3.93658 -0.698077 0
M  V30 246 H 24.6556 -3.86889 -1.73473 0
M  V30 247 C 23.1146 -2.48448 -2.27542 0
M  V30 248 O 23.6446 -2.22585 -3.34393 0
M  V30 249 N 21.8506 -2.09532 -2.01357 0
M  V30 250 H 21.3976 -2.30765 -1.14478 0
M  V30 251 H 21.3556 -1.58476 -2.71538 0
M  V30 252 N 25.1277 -0.289203 -1.54924 0
M  V30 253 C 26.3737 0.323998 -2.00195 0
M  V30 254 C 26.7067 1.54441 -1.17735 0
M  V30 255 O 25.9817 1.92875 -0.250878 0
M  V30 256 C 26.2647 0.692276 -3.53383 0
M  V30 257 C 26.1177 -0.536457 -4.46589 0
M  V30 258 C 27.4367 1.52335 -4.12895 0
M  V30 259 H 24.5557 0.116289 -0.727768 0
M  V30 260 H 27.1977 -0.398954 -1.85764 0
M  V30 261 H 25.3477 1.30822 -3.65811 0
M  V30 262 H 27.0197 -1.17499 -4.46085 0
M  V30 263 H 25.2627 -1.17192 -4.1767 0
M  V30 264 H 25.9337 -0.234806 -5.515 0
M  V30 265 H 28.4097 1.00302 -4.0383 0
M  V30 266 H 27.2857 1.74982 -5.20262 0
M  V30 267 H 27.5467 2.50886 -3.64018 0
M  V30 268 N 26.6058 1.57591 -0.0167156 0
M  V30 269 C 27.8548 1.90461 0.663877 0
M  V30 270 C 28.1678 0.893515 1.73999 0
M  V30 271 O 29.3738 1.11302 2.47637 0
M  V30 272 C 27.8298 3.38155 1.23204 0
M  V30 273 C 27.4378 4.47597 0.189866 0
M  V30 274 C 29.1818 3.80111 1.88986 0
M  V30 275 C 27.0888 5.86379 0.768964 0
M  V30 276 H 26.0188 0.710738 0.251729 0
M  V30 277 H 28.6698 1.83326 -0.0799926 0
M  V30 278 H 27.0518 3.40182 2.02712 0
M  V30 279 H 28.2258 4.57112 -0.581846 0
M  V30 280 H 26.5408 4.14766 -0.368475 0
M  V30 281 H 29.1378 4.81145 2.33247 0
M  V30 282 H 29.4808 3.14511 2.72743 0
M  V30 283 H 30.0138 3.80454 1.16187 0
M  V30 284 H 26.7528 6.55493 -0.0301957 0
M  V30 285 H 26.2728 5.80496 1.50945 0
M  V30 286 H 27.9518 6.34563 1.26251 0
M  V30 287 N 28.0839 -0.256276 1.55502 0
M  V30 288 C 29.3329 -0.983486 1.76098 0
M  V30 289 C 29.6459 -1.86837 0.578896 0
M  V30 290 O 30.8519 -2.63163 0.667648 0
M  V30 291 C 29.3079 -1.79868 3.1173 0
M  V30 292 C 28.9159 -0.961648 4.37557 0
M  V30 293 C 30.6599 -2.51919 3.41668 0
M  V30 294 C 28.5669 -1.77219 5.64223 0
M  V30 295 H 27.4969 -0.370936 0.656447 0
M  V30 296 H 30.1479 -0.238492 1.81944 0
M  V30 297 H 28.5299 -2.58527 2.99966 0
M  V30 298 H 29.7039 -0.218048 4.60284 0
M  V30 299 H 28.0189 -0.354913 4.14885 0
M  V30 300 H 30.6159 -3.12998 4.33516 0
M  V30 301 H 30.9589 -3.23059 2.62562 0
M  V30 302 H 31.4919 -1.80278 3.54605 0
M  V30 303 H 28.2309 -1.10471 6.46124 0
M  V30 304 H 27.7509 -2.49132 5.45613 0
M  V30 305 H 29.4299 -2.34169 6.03137 0
M  V30 306 N 29.562 -1.4872 -0.521534 0
M  V30 307 C 30.472 -1.66569 -1.65203 0
M  V30 308 C 31.488 -0.548197 -1.65139 0
M  V30 309 O 32.664 -0.820339 -1.83936 0
M  V30 310 C 29.729 -1.70917 -3.01642 0
M  V30 311 C 28.79 -2.94356 -3.12495 0
M  V30 312 C 28.023 -2.98487 -4.42426 0
M  V30 313 O 28.246 -2.10786 -5.30024 0
M  V30 314 O 27.18 -3.90746 -4.57822 0
M  V30 315 H 31.006 -2.62298 -1.5308 0
M  V30 316 H 28.591 -1.3222 -0.695565 0
M  V30 317 H 30.473 -1.7625 -3.82771 0
M  V30 318 H 29.148 -0.783633 -3.14071 0
M  V30 319 H 28.055 -2.94552 -2.3063 0
M  V30 320 H 29.388 -3.86322 -3.04986 0
M  V30 321 N 31.0401 0.771051 -1.3745 0
M  V30 322 C 32.2891 1.52491 -1.3202 0
M  V30 323 C 32.6021 1.9538 0.0927347 0
M  V30 324 O 33.8081 2.70159 0.269503 0
M  V30 325 C 32.2641 2.75366 -2.31736 0
M  V30 326 C 31.8721 2.39573 -3.78562 0
M  V30 327 C 33.6161 3.53307 -2.35318 0
M  V30 328 C 31.5231 3.58954 -4.70007 0
M  V30 329 H 30.4531 0.572506 -0.490666 0
M  V30 330 H 33.1041 0.844474 -1.62914 0
M  V30 331 H 31.4861 3.45303 -1.93861 0
M  V30 332 H 32.6601 1.77415 -4.25277 0
M  V30 333 H 30.9751 1.74805 -3.77932 0
M  V30 334 H 33.5721 4.42039 -3.00842 0
M  V30 335 H 33.9151 3.93217 -1.36698 0
M  V30 336 H 34.4481 2.90367 -2.71904 0
M  V30 337 H 31.1871 3.24125 -5.69757 0
M  V30 338 H 30.7071 4.20214 -4.27996 0
M  V30 339 H 32.3861 4.25758 -4.87175 0
M  V30 340 N 32.5182 1.22032 0.997298 0
M  V30 341 C 33.9292 1.0397 1.55071 0
M  V30 342 C 34.2802 -0.398192 1.92117 0
M  V30 343 O 33.4052 -1.28254 1.74298 0
M  V30 344 C 34.0002 1.88109 2.81781 0
M  V30 345 C 32.5592 1.74357 3.33581 0
M  V30 346 C 31.7062 1.84846 2.06706 0
M  V30 347 H 34.6572 1.35941 0.818883 0
M  V30 348 H 34.6782 1.39589 3.53971 0
M  V30 349 H 34.1902 2.92754 2.54787 0
M  V30 350 H 32.2912 0.72427 3.65493 0
M  V30 351 H 32.4042 2.56772 4.04481 0
M  V30 352 H 30.7682 1.28238 2.20062 0
M  V30 353 H 31.5512 2.91014 1.82114 0
M  V30 354 N 33.9963 -1.19345 1.0293 0
M  V30 355 C 34.9593 -2.20793 0.615069 0
M  V30 356 C 35.9593 -1.57553 -0.321533 0
M  V30 357 O 37.1493 -1.73862 -0.108483 0
M  V30 358 C 34.2813 -3.40754 -0.0999222 0
M  V30 359 H 35.4743 -2.58955 1.51269 0
M  V30 360 H 33.0273 -1.3303 0.820534 0
M  V30 361 H 33.7623 -3.0811 -1.01187 0
M  V30 362 H 33.5473 -3.87889 0.57309 0
M  V30 363 H 35.0373 -4.15898 -0.376645 0
M  V30 364 N 35.4744 -0.807222 -1.35358 0
M  V30 365 C 36.4064 -0.175717 -2.28525 0
M  V30 366 C 37.4194 0.625354 -1.5031 0
M  V30 367 O 38.6084 0.457611 -1.72535 0
M  V30 368 C 35.7084 0.773471 -3.29956 0
M  V30 369 C 34.8814 0.0186296 -4.37396 0
M  V30 370 C 33.9404 0.886395 -5.18681 0
M  V30 371 O 32.9664 0.337106 -5.68201 0
M  V30 372 N 34.1684 2.20839 -5.36852 0
M  V30 373 H 36.9334 -0.976091 -2.83359 0
M  V30 374 H 34.4944 -0.662737 -1.47714 0
M  V30 375 H 36.4864 1.35824 -3.81227 0
M  V30 376 H 35.0564 1.47465 -2.75632 0
M  V30 377 H 34.2764 -0.747349 -3.87051 0
M  V30 378 H 35.5644 -0.501577 -5.06322 0
M  V30 379 H 34.9624 2.67858 -4.98265 0
M  V30 380 H 33.5194 2.74237 -5.91301 0
M  V30 381 N 36.9525 1.47285 -0.560781 0
M  V30 382 C 38.1775 2.07359 -0.0410566 0
M  V30 383 C 38.6025 1.41017 1.24483 0
M  V30 384 O 37.9605 0.486368 1.74654 0
M  V30 385 C 38.0085 3.6035 0.134123 0
M  V30 386 O 37.1125 3.94681 1.19587 0
M  V30 387 H 36.4535 0.661887 -0.0529291 0
M  V30 388 H 38.9835 1.89252 -0.777482 0
M  V30 389 H 38.9935 4.0652 0.347207 0
M  V30 390 H 37.6685 4.08034 -0.805047 0
M  V30 391 H 36.2455 3.60251 0.962987 0
M  V30 392 N 38.4306 0.297415 1.54768 0
M  V30 393 C 39.3406 -0.58983 2.27064 0
M  V30 394 C 40.3566 -1.15144 1.30453 0
M  V30 395 O 41.5326 -1.17699 1.63428 0
M  V30 396 C 38.5976 -1.74714 2.9946 0
M  V30 397 C 37.6586 -1.21997 4.11601 0
M  V30 398 C 36.8916 -2.32212 4.80535 0
M  V30 399 O 37.1146 -3.52036 4.48806 0
M  V30 400 O 36.0486 -1.99106 5.68014 0
M  V30 401 H 39.8746 -0.00348199 3.037 0
M  V30 402 H 37.4596 0.0640035 1.49263 0
M  V30 403 H 39.3416 -2.42147 3.44881 0
M  V30 404 H 38.0166 -2.32016 2.25722 0
M  V30 405 H 36.9236 -0.511458 3.70587 0
M  V30 406 H 38.2566 -0.692419 4.87305 0
M  V30 407 N 39.9087 -1.5758 0.0250728 0
M  V30 408 C 41.3197 -1.79476 -0.514323 0
M  V30 409 C 41.6707 -0.934956 -1.72491 0
M  V30 410 O 40.7957 -0.144245 -2.15919 0
M  V30 411 C 41.3907 -3.25503 -0.939842 0
M  V30 412 C 39.9497 -3.48408 -1.42438 0
M  V30 413 C 39.0967 -2.74583 -0.387201 0
M  V30 414 H 42.0477 -1.567 0.25113 0
M  V30 415 H 42.0687 -3.34992 -1.80445 0
M  V30 416 H 41.5807 -3.88056 -0.0585628 0
M  V30 417 H 39.6817 -2.91103 -2.32572 0
M  V30 418 H 39.7947 -4.57119 -1.43455 0
M  V30 419 H 38.1587 -2.39942 -0.854409 0
M  V30 420 H 38.9417 -3.39849 0.485543 0
M  V30 421 N 41.3868 0.248026 -1.55636 0
M  V30 422 C 42.6328 0.97767 -1.77678 0
M  V30 423 C 42.9658 1.85016 -0.590135 0
M  V30 424 O 42.2408 1.90095 0.411611 0
M  V30 425 C 42.5238 1.83914 -3.09593 0
M  V30 426 C 42.3768 0.99491 -4.38659 0
M  V30 427 C 43.6958 2.82183 -3.37729 0
M  V30 428 H 40.8148 0.354005 -0.646413 0
M  V30 429 H 43.4568 0.248253 -1.88371 0
M  V30 430 H 41.6068 2.46104 -3.00608 0
M  V30 431 H 43.2788 0.391789 -4.59633 0
M  V30 432 H 41.5218 0.299231 -4.32767 0
M  V30 433 H 42.1928 1.63145 -5.2734 0
M  V30 434 H 44.6688 2.30129 -3.4667 0
M  V30 435 H 43.5448 3.39582 -4.31249 0
M  V30 436 H 43.8058 3.58588 -2.58586 0
M  V30 437 N 42.8649 1.48995 0.513639 0
M  V30 438 C 43.8119 1.6473 1.61656 0
M  V30 439 C 44.7819 0.488984 1.58739 0
M  V30 440 O 45.9669 0.714478 1.76918 0
M  V30 441 C 43.1069 1.7082 2.99858 0
M  V30 442 C 42.2199 2.9787 3.12885 0
M  V30 443 C 41.3549 2.95017 4.41744 0
M  V30 444 C 40.3939 4.16702 4.48359 0
M  V30 445 N 39.5309 4.11832 5.68629 0
M  V30 446 H 44.3709 2.58909 1.47547 0
M  V30 447 H 41.9079 1.28382 0.71808 0
M  V30 448 H 43.8659 1.72331 3.79944 0
M  V30 449 H 42.4959 0.801181 3.12699 0
M  V30 450 H 41.5479 3.06029 2.25944 0
M  V30 451 H 42.8599 3.8786 3.13633 0
M  V30 452 H 42.0139 2.95021 5.30139 0
M  V30 453 H 40.7529 2.02784 4.43542 0
M  V30 454 H 39.7579 4.16955 3.58369 0
M  V30 455 H 40.9829 5.10113 4.48287 0
M  V30 456 H 38.9289 3.22428 5.71293 0
M  V30 457 H 38.8459 4.95543 5.7094 0
M  V30 458 H 40.1139 4.1592 6.59266 0
M  V30 459 N 44.343 -0.763751 1.37857 0
M  V30 460 C 45.573 -1.55067 1.3652 0
M  V30 461 C 45.981 -1.89135 -0.0494227 0
M  V30 462 O 45.324 -1.52529 -1.02375 0
M  V30 463 C 45.386 -2.8838 2.14656 0
M  V30 464 C 45.05 -2.76905 3.63555 0
M  V30 465 C 46.047 -2.4739 4.57268 0
M  V30 466 C 43.732 -2.94676 4.06781 0
M  V30 467 C 45.726 -2.35786 5.92186 0
M  V30 468 C 43.413 -2.82692 5.41782 0
M  V30 469 C 44.411 -2.53289 6.34298 0
M  V30 470 O 44.099 -2.41345 7.66817 0
M  V30 471 H 43.831 -0.486776 0.469069 0
M  V30 472 H 46.385 -0.953812 1.81911 0
M  V30 473 H 44.615 -3.50217 1.63967 0
M  V30 474 H 46.304 -3.49828 2.05852 0
M  V30 475 H 47.07 -2.33339 4.2518 0
M  V30 476 H 42.949 -3.16563 3.35126 0
M  V30 477 H 46.493 -2.12757 6.64365 0
M  V30 478 H 42.39 -2.96314 5.7347 0
M  V30 479 H 43.158 -2.56634 7.77226 0
M  V30 480 N 45.8211 -1.22559 -0.990812 0
M  V30 481 C 46.7311 -1.01394 -2.11557 0
M  V30 482 C 47.7471 0.0383962 -1.73958 0
M  V30 483 O 48.9231 -0.154787 -2.00804 0
M  V30 484 C 45.9881 -0.596569 -3.41529 0
M  V30 485 C 45.0491 -1.72276 -3.93217 0
M  V30 486 C 44.2821 -1.32521 -5.16985 0
M  V30 487 O 44.5051 -0.204909 -5.70032 0
M  V30 488 O 43.4391 -2.14247 -5.62478 0
M  V30 489 H 47.2651 -1.95633 -2.32296 0
M  V30 490 H 44.8501 -1.01172 -1.0993 0
M  V30 491 H 46.7321 -0.374263 -4.19735 0
M  V30 492 H 45.4071 0.316939 -3.22145 0
M  V30 493 H 44.3141 -1.99961 -3.16174 0
M  V30 494 H 45.6471 -2.61421 -4.17037 0
M  V30 495 N 47.2992 1.18797 -1.03562 0
M  V30 496 C 48.2622 2.20464 -0.626769 0
M  V30 497 C 49.2622 1.57721 0.313173 0
M  V30 498 O 50.4522 1.73917 0.0992615 0
M  V30 499 C 47.5842 3.40802 0.0818498 0
M  V30 500 H 48.7772 2.58149 -1.5264 0
M  V30 501 H 46.3302 1.32593 -0.827578 0
M  V30 502 H 47.0652 3.08642 0.995518 0
M  V30 503 H 46.8502 3.8758 -0.593652 0
M  V30 504 H 48.3402 4.16092 0.354584 0
M  V30 505 N 48.7773 0.814389 1.34928 0
M  V30 506 C 50.0543 0.321363 1.92942 0
M  V30 507 C 50.4343 -1.19014 1.74353 0
M  V30 508 O 49.7823 -1.99328 1.11716 0
M  V30 509 C 49.9923 0.741323 3.41036 0
M  V30 510 C 51.3403 0.735266 4.18185 0
M  V30 511 O 52.3643 0.68336 3.49584 0
M  V30 512 O 51.2233 0.800703 5.40602 0
M  V30 513 H 48.3173 0.0858893 0.822528 0
M  V30 514 H 50.8633 0.898609 1.43955 0
M  V30 515 H 49.6353 1.78276 3.4833 0
M  V30 516 H 49.2583 0.139307 3.97356 0
M  V30 517 N 50.2554 -1.46986 0.568584 0
M  V30 518 C 51.2024 -2.30153 -0.172707 0
M  V30 519 C 52.1724 -1.39759 -0.897586 0
M  V30 520 O 53.3574 -1.68716 -0.891044 0
M  V30 521 C 50.4974 -3.23952 -1.1895 0
M  V30 522 C 49.6104 -4.29441 -0.469517 0
M  V30 523 C 48.7454 -5.1038 -1.47259 0
M  V30 524 C 47.7844 -6.07632 -0.738225 0
M  V30 525 N 46.9214 -6.8149 -1.68868 0
M  V30 526 H 51.7614 -2.93019 0.542596 0
M  V30 527 H 49.2984 -1.44422 0.279401 0
M  V30 528 H 51.2564 -3.76767 -1.79173 0
M  V30 529 H 49.8864 -2.62926 -1.87269 0
M  V30 530 H 48.9384 -3.79594 0.247467 0
M  V30 531 H 50.2504 -4.98689 0.105241 0
M  V30 532 H 49.4044 -5.67402 -2.14803 0
M  V30 533 H 48.1434 -4.4106 -2.08128 0
M  V30 534 H 47.1484 -5.49778 -0.0489293 0
M  V30 535 H 48.3734 -6.78966 -0.135129 0
M  V30 536 H 46.3194 -6.14891 -2.28573 0
M  V30 537 H 46.2364 -7.46948 -1.16636 0
M  V30 538 H 47.5044 -7.43078 -2.3549 0
M  V30 539 N 51.7335 -0.305618 -1.54608 0
M  V30 540 C 52.6965 0.555591 -2.22364 0
M  V30 541 C 53.6965 1.05768 -1.21119 0
M  V30 542 O 54.8865 0.952972 -1.45822 0
M  V30 543 C 52.0185 1.76974 -2.91364 0
M  V30 544 H 53.2115 -0.0364572 -2.99878 0
M  V30 545 H 50.7645 -0.0565007 -1.56198 0
M  V30 546 H 51.4995 2.40151 -2.17941 0
M  V30 547 H 51.2845 1.41732 -3.65588 0
M  V30 548 H 52.7745 2.38148 -3.43038 0
M  V30 549 N 53.2116 1.57565 -0.0334293 0
M  V30 550 C 54.1416 2.13511 0.945265 0
M  V30 551 C 55.1226 1.05231 1.33643 0
M  V30 552 O 56.3076 1.33084 1.41429 0
M  V30 553 C 53.4376 2.6657 2.22616 0
M  V30 554 C 52.3916 3.79676 1.97561 0
M  V30 555 C 51.7176 4.1918 3.31952 0
M  V30 556 C 53.0176 5.0557 1.31135 0
M  V30 557 H 54.7116 2.95538 0.479325 0
M  V30 558 H 52.2576 1.42166 0.229115 0
M  V30 559 H 54.2106 3.04344 2.91466 0
M  V30 560 H 52.9346 1.8171 2.71384 0
M  V30 561 H 51.5936 3.42347 1.31127 0
M  V30 562 H 51.2416 3.31296 3.78487 0
M  V30 563 H 50.9416 4.95402 3.15992 0
M  V30 564 H 52.4656 4.59541 4.02063 0
M  V30 565 H 53.8796 5.40903 1.89992 0
M  V30 566 H 52.2766 5.86818 1.25559 0
M  V30 567 H 53.3466 4.84062 0.284894 0
M  V30 568 N 54.6897 -0.239769 1.55765 0
M  V30 569 C 55.9377 -0.964892 1.77579 0
M  V30 570 C 56.2587 -1.85582 0.598699 0
M  V30 571 O 55.5287 -1.92075 -0.385226 0
M  V30 572 H 54.1087 -0.359265 0.654933 0
M  V30 573 H 56.7707 -0.256001 1.93211 0
M  V30 574 H 55.8667 -1.58243 2.69009 0
M  V30 575 N 56.1678 -1.49265 -0.50573 0
M  V30 576 C 57.0978 -1.68495 -1.61653 0
M  V30 577 C 58.0788 -0.53366 -1.61512 0
M  V30 578 O 59.2638 -0.76897 -1.78327 0
M  V30 579 C 56.3938 -1.74709 -3.00157 0
M  V30 580 C 55.3478 -2.89581 -3.15162 0
M  V30 581 C 54.6738 -2.80903 -4.5497 0
M  V30 582 C 55.9738 -4.30578 -2.95634 0
M  V30 583 H 57.6678 -2.61493 -1.45814 0
M  V30 584 H 55.2138 -1.25838 -0.70005 0
M  V30 585 H 57.1668 -1.86748 -3.77761 0
M  V30 586 H 55.8908 -0.783067 -3.17074 0
M  V30 587 H 54.5498 -2.77136 -2.39982 0
M  V30 588 H 54.1978 -1.82419 -4.68756 0
M  V30 589 H 53.8978 -3.57999 -4.65951 0
M  V30 590 H 55.4218 -2.94944 -5.34641 0
M  V30 591 H 56.8358 -4.4373 -3.63011 0
M  V30 592 H 55.2328 -5.0886 -3.18091 0
M  V30 593 H 56.3028 -4.45352 -1.91806 0
M  V30 594 N 57.6459 0.756429 -1.3826 0
M  V30 595 C 58.5759 1.88374 -1.37976 0
M  V30 596 C 59.5569 1.68311 -0.246082 0
M  V30 597 O 60.7419 1.88944 -0.44874 0
M  V30 598 C 57.8719 3.25864 -1.20125 0
M  V30 599 C 56.8259 3.60523 -2.30666 0
M  V30 600 C 56.1519 4.9672 -1.97923 0
M  V30 601 C 57.4519 3.65692 -3.72916 0
M  V30 602 H 59.1459 1.88869 -2.32312 0
M  V30 603 H 56.6919 0.907272 -1.11824 0
M  V30 604 H 58.6449 4.0438 -1.18552 0
M  V30 605 H 57.3689 3.25841 -0.222498 0
M  V30 606 H 56.0279 2.84324 -2.3142 0
M  V30 607 H 55.6759 4.93253 -0.985393 0
M  V30 608 H 55.3759 5.20878 -2.71955 0
M  V30 609 H 56.8999 5.77618 -1.97964 0
M  V30 610 H 58.3139 4.34328 -3.74208 0
M  V30 611 H 56.7109 4.01358 -4.4613 0
M  V30 612 H 57.7809 2.65987 -4.05436 0
M  V30 613 N 59.124 1.23083 0.984299 0
M  V30 614 C 60.37 1.06214 1.72761 0
M  V30 615 C 60.703 -0.400584 1.90024 0
M  V30 616 O 59.978 -1.29672 1.44967 0
M  V30 617 C 60.261 1.78375 3.12817 0
M  V30 618 C 60.114 3.32296 3.03149 0
M  V30 619 C 61.433 1.54309 4.12161 0
M  V30 620 H 58.552 0.387251 0.627061 0
M  V30 621 H 61.194 1.51536 1.14616 0
M  V30 622 H 59.344 1.39848 3.62457 0
M  V30 623 H 61.016 3.8032 2.61064 0
M  V30 624 H 59.259 3.6153 2.39747 0
M  V30 625 H 59.93 3.77972 4.02295 0
M  V30 626 H 62.406 1.87791 3.71314 0
M  V30 627 H 61.282 2.07281 5.08258 0
M  V30 628 H 61.543 0.477572 4.39513 0
M  V30 629 N 60.6021 -1.18246 1.0419 0
M  V30 630 C 61.8481 -1.88536 0.747122 0
M  V30 631 C 62.1811 -1.80223 -0.723409 0
M  V30 632 O 61.4561 -1.20337 -1.52804 0
M  V30 633 C 61.7391 -3.38968 1.21544 0
M  V30 634 C 61.5921 -3.56084 2.74816 0
M  V30 635 C 62.9111 -4.32648 0.806482 0
M  V30 636 H 60.0301 -0.684619 0.272883 0
M  V30 637 H 62.6721 -1.39113 1.29413 0
M  V30 638 H 60.8221 -3.8119 0.750081 0
M  V30 639 H 62.4941 -3.22946 3.29399 0
M  V30 640 H 60.7371 -2.98699 3.14582 0
M  V30 641 H 61.4081 -4.61639 3.02644 0
M  V30 642 H 63.8841 -3.98211 1.20695 0
M  V30 643 H 62.7601 -5.36462 1.1619 0
M  V30 644 H 63.0211 -4.41146 -0.29029 0
M  V30 645 N 62.0802 -0.821533 -1.34494 0
M  V30 646 C 63.3572 -0.33159 -1.92769 0
M  V30 647 C 63.7372 1.18088 -1.74981 0
M  V30 648 O 63.0852 1.98733 -1.12772 0
M  V30 649 C 63.2952 -0.759398 -3.40638 0
M  V30 650 C 64.6432 -0.757433 -4.1779 0
M  V30 651 O 65.6672 -0.70189 -3.49216 0
M  V30 652 O 64.5262 -0.829361 -5.4017 0
M  V30 653 H 61.6202 -0.0902502 -0.822061 0
M  V30 654 H 64.1662 -0.906231 -1.43477 0
M  V30 655 H 62.9382 -1.8012 -3.47379 0
M  V30 656 H 62.5612 -0.160378 -3.97276 0
M  V30 657 N 63.5583 1.46682 -0.576371 0
M  V30 658 C 64.9743 1.57822 -0.237562 0
M  V30 659 C 65.1743 1.57237 1.26011 0
M  V30 660 O 64.2303 1.48596 2.04146 0
M  V30 661 C 65.5433 2.87499 -0.881168 0
M  V30 662 C 67.0913 3.01119 -0.85417 0
M  V30 663 C 67.5663 4.33524 -1.4772 0
M  V30 664 N 69.0573 4.40207 -1.44125 0
M  V30 665 C 69.7923 5.4126 -1.89276 0
M  V30 666 N 69.2883 6.49021 -2.42371 0
M  V30 667 N 71.0813 5.32422 -1.80231 0
M  V30 668 H 63.2323 1.45306 -1.54919 0
M  V30 669 H 65.4953 0.692733 -0.647167 0
M  V30 670 H 65.2013 2.9372 -1.93447 0
M  V30 671 H 65.0753 3.75224 -0.385592 0
M  V30 672 H 67.4623 2.94485 0.190491 0
M  V30 673 H 67.5433 2.14887 -1.3877 0
M  V30 674 H 67.1873 4.40916 -2.52103 0
M  V30 675 H 67.1173 5.1852 -0.918947 0
M  V30 676 H 69.6083 3.62931 -1.05307 0
M  V30 677 H 69.9213 7.2233 -2.74698 0
M  V30 678 H 68.2663 6.49858 -2.46393 0
M  V30 679 H 71.4573 4.47137 -1.38514 0
M  V30 680 H 71.6303 6.11034 -2.15735 0
M  V30 681 N 65.0364 0.313813 1.54444 0
M  V30 682 C 66.2834 -0.291675 2.00388 0
M  V30 683 C 66.6114 -1.52904 1.2021 0
M  V30 684 O 65.8664 -1.93833 0.269707 0
M  V30 685 C 66.1654 -0.680386 3.50864 0
M  V30 686 C 65.8314 0.456699 4.48581 0
M  V30 687 C 64.4934 0.768824 4.75018 0
M  V30 688 C 66.8454 1.22098 5.06697 0
M  V30 689 C 64.1734 1.84812 5.56831 0
M  V30 690 C 66.5254 2.29029 5.89685 0
M  V30 691 C 65.1894 2.60834 6.14428 0
M  V30 692 H 64.4594 -0.106732 0.733273 0
M  V30 693 H 67.1064 0.43557 1.86481 0
M  V30 694 H 65.4114 -1.48791 3.62448 0
M  V30 695 H 67.1084 -1.16026 3.83847 0
M  V30 696 H 63.6984 0.203337 4.28117 0
M  V30 697 H 67.8824 0.993096 4.86263 0
M  V30 698 H 63.1384 2.09912 5.74236 0
M  V30 699 H 67.3124 2.887 6.33739 0
M  V30 700 H 64.9394 3.44596 6.77612 0
M  V30 701 N 66.5145 -1.57545 0.0417849 0
M  V30 702 C 67.7635 -1.91494 -0.633492 0
M  V30 703 C 68.0765 -0.921084 -1.72556 0
M  V30 704 O 69.2825 -1.15228 -2.45835 0
M  V30 705 C 67.7385 -3.40072 -1.17808 0
M  V30 706 C 67.3465 -4.47843 -0.118633 0
M  V30 707 C 69.0905 -3.8307 -1.82915 0
M  V30 708 C 66.9975 -5.87529 -0.675578 0
M  V30 709 H 65.9275 -0.714653 -0.24039 0
M  V30 710 H 68.5785 -1.83175 0.109148 0
M  V30 711 H 66.9605 -3.43364 -1.97274 0
M  V30 712 H 68.1345 -4.56128 0.654494 0
M  V30 713 H 66.4495 -4.14128 0.434414 0
M  V30 714 H 69.0465 -4.84794 -2.25563 0
M  V30 715 H 69.3895 -3.1881 -2.67705 0
M  V30 716 H 69.9225 -3.82255 -1.10119 0
M  V30 717 H 66.6615 -6.55362 0.134475 0
M  V30 718 H 66.1815 -5.82824 -1.4169 0
M  V30 719 H 67.8605 -6.36491 -1.1614 0
M  V30 720 N 67.9926 0.231505 -1.5589 0
M  V30 721 C 69.2406 0.955461 -1.78088 0
M  V30 722 C 69.5616 1.85262 -0.608533 0
M  V30 723 O 68.8316 1.92277 0.375035 0
M  V30 724 H 67.4116 0.355787 -0.656829 0
M  V30 725 H 70.0736 0.245751 -1.93344 0
M  V30 726 H 69.1696 1.56814 -2.69844 0
M  V30 727 N 69.4707 1.49531 0.497807 0
M  V30 728 C 70.6987 1.62893 1.27567 0
M  V30 729 C 71.1137 0.301585 1.86376 0
M  V30 730 O 70.4707 -0.713335 1.67982 0
M  V30 731 C 70.5217 2.70013 2.40364 0
M  V30 732 O 70.2427 3.976 1.83972 0
M  V30 733 C 71.7437 2.94109 3.31685 0
M  V30 734 H 68.9637 0.548298 0.386794 0
M  V30 735 H 71.5077 1.95584 0.597245 0
M  V30 736 H 69.6627 2.40092 3.04031 0
M  V30 737 H 70.0767 4.56631 2.58047 0
M  V30 738 H 71.5507 3.72788 4.07104 0
M  V30 739 H 72.0277 2.04147 3.88871 0
M  V30 740 H 72.6337 3.2546 2.73781 0
M  V30 741 N 70.9488 -0.749086 1.3866 0
M  V30 742 C 72.1968 -1.50535 1.34847 0
M  V30 743 C 72.5178 -1.94909 -0.0595016 0
M  V30 744 O 71.7878 -1.67973 -1.00806 0
M  V30 745 H 70.3678 -0.558395 0.49619 0
M  V30 746 H 73.0298 -0.890165 1.73384 0
M  V30 747 H 72.1258 -2.39413 2.00219 0
M  V30 748 N 72.4269 -1.23603 -0.977757 0
M  V30 749 C 73.3599 -0.962772 -2.06896 0
M  V30 750 C 74.3379 0.0998743 -1.62293 0
M  V30 751 O 75.5219 -0.0349421 -1.88468 0
M  V30 752 C 72.6489 -0.45095 -3.35685 0
M  V30 753 C 71.6949 -1.50061 -3.99229 0
M  V30 754 S 72.5279 -3.07884 -4.38142 0
M  V30 755 C 73.6839 -2.58378 -5.7008 0
M  V30 756 H 73.9169 -1.88677 -2.29757 0
M  V30 757 H 71.4499 -1.06876 -1.11431 0
M  V30 758 H 73.4079 -0.162261 -4.10179 0
M  V30 759 H 72.0689 0.452179 -3.10828 0
M  V30 760 H 71.2619 -1.09269 -4.92013 0
M  V30 761 H 70.8639 -1.73878 -3.31123 0
M  V30 762 H 73.1559 -2.00563 -6.47133 0
M  V30 763 H 74.0989 -3.49711 -6.15717 0
M  V30 764 H 74.5069 -1.99143 -5.28207 0
M  V30 765 N 73.905 1.17692 -1.04816 0
M  V30 766 C 75.321 1.39863 -0.768794 0
M  V30 767 C 75.521 1.91118 0.638451 0
M  V30 768 O 74.577 2.10036 1.40146 0
M  V30 769 C 75.89 2.39274 -1.82122 0
M  V30 770 C 77.438 2.52987 -1.843 0
M  V30 771 C 77.913 3.55669 -2.88555 0
M  V30 772 N 79.404 3.63183 -2.87493 0
M  V30 773 C 80.139 4.42381 -3.64811 0
M  V30 774 N 79.635 5.25125 -4.51903 0
M  V30 775 N 81.428 4.37217 -3.53267 0
M  V30 776 H 73.579 0.82752 -1.95617 0
M  V30 777 H 75.842 0.426123 -0.846831 0
M  V30 778 H 75.548 2.08678 -2.83102 0
M  V30 779 H 75.422 3.38725 -1.65967 0
M  V30 780 H 77.809 2.82896 -0.839869 0
M  V30 781 H 77.89 1.53623 -2.04532 0
M  V30 782 H 77.534 3.26499 -3.89051 0
M  V30 783 H 77.464 4.54728 -2.65575 0
M  V30 784 H 79.955 3.04103 -2.24343 0
M  V30 785 H 80.268 5.82728 -5.07591 0
M  V30 786 H 78.613 5.24519 -4.55966 0
M  V30 787 H 81.804 3.71626 -2.84625 0
M  V30 788 H 81.977 4.98696 -4.13771 0
M  V30 789 N 75.3831 0.828654 1.34056 0
M  V30 790 C 76.6131 0.431993 2.02033 0
M  V30 791 C 77.0211 -0.96844 1.62536 0
M  V30 792 O 76.3641 -1.6391 0.829408 0
M  V30 793 C 76.4261 0.461224 3.56529 0
M  V30 794 C 76.0901 1.81599 4.1937 0
M  V30 795 C 77.0871 2.7777 4.39477 0
M  V30 796 C 74.7721 2.10604 4.56017 0
M  V30 797 C 76.7661 4.01115 4.95364 0
M  V30 798 C 74.4531 3.34207 5.11614 0
M  V30 799 C 75.4511 4.2928 5.31232 0
M  V30 800 O 75.1391 5.50699 5.8565 0
M  V30 801 H 74.8711 0.170943 0.654029 0
M  V30 802 H 77.4251 1.11988 1.72185 0
M  V30 803 H 75.6551 -0.283388 3.8566 0
M  V30 804 H 77.3441 0.0838149 4.05813 0
M  V30 805 H 78.1101 2.56659 4.11523 0
M  V30 806 H 73.9891 1.37402 4.40047 0
M  V30 807 H 77.5331 4.75333 5.10592 0
M  V30 808 H 73.4301 3.55179 5.38997 0
M  V30 809 H 74.1981 5.52298 6.04077 0
M  V30 810 N 76.8612 -1.46375 0.584142 0
M  V30 811 C 78.2722 -1.86031 0.157959 0
M  V30 812 C 78.6232 -1.48753 -1.27933 0
M  V30 813 O 77.7482 -0.903098 -1.96655 0
M  V30 814 C 78.3432 -3.37642 0.279892 0
M  V30 815 C 76.9022 -3.76289 -0.09143 0
M  V30 816 C 76.0492 -2.7039 0.615178 0
M  V30 817 H 79.0002 -1.37509 0.792274 0
M  V30 818 H 79.0212 -3.77275 -0.494364 0
M  V30 819 H 78.5332 -3.64742 1.32607 0
M  V30 820 H 76.6342 -3.54806 -1.13769 0
M  V30 821 H 76.7472 -4.78246 0.285886 0
M  V30 822 H 75.1112 -2.5464 0.0552833 0
M  V30 823 H 75.8942 -3.0033 1.66303 0
M  V30 824 N 78.3393 -0.321999 -1.54275 0
M  V30 825 C 79.5853 0.281461 -2.00837 0
M  V30 826 C 79.9183 1.51909 -1.20985 0
M  V30 827 O 79.1933 1.923 -0.291733 0
M  V30 828 C 79.4763 0.617162 -3.54772 0
M  V30 829 C 79.3293 -0.631064 -4.45351 0
M  V30 830 C 80.6483 1.43542 -4.16033 0
M  V30 831 H 77.7673 0.100826 -0.730071 0
M  V30 832 H 80.4093 -0.438268 -1.84876 0
M  V30 833 H 78.5593 1.23034 -3.68504 0
M  V30 834 H 80.2313 -1.26934 -4.43492 0
M  V30 835 H 78.4743 -1.26025 -4.15091 0
M  V30 836 H 79.1453 -0.351735 -5.50878 0
M  V30 837 H 81.6213 0.917134 -4.05867 0
M  V30 838 H 80.4973 1.63907 -5.23856 0
M  V30 839 H 80.7583 2.43108 -3.69257 0
M  V30 840 N 79.8174 1.5752 -0.0501392 0
M  V30 841 C 80.7654 2.12651 0.942459 0
M  V30 842 C 81.7594 1.05807 1.32292 0
M  V30 843 O 82.9654 1.24217 1.3027 0
M  V30 844 H 79.3404 0.679673 0.321789 0
M  V30 845 H 81.3114 2.94951 0.452356 0
M  V30 846 C 80.0604 2.68565 2.20836 0
M  V30 847 H 79.3834 3.50439 1.92439 0
M  V30 848 H 80.8234 3.10761 2.8845 0
M  V30 849 C 79.2824 1.62291 2.95234 0
M  V30 850 O 79.8124 1.03508 3.88135 0
M  V30 851 N 78.0184 1.33836 2.57946 0
M  V30 852 H 77.5654 1.81826 1.82475 0
M  V30 853 H 77.5234 0.629595 3.08032 0
M  V30 854 N 81.2955 -0.223234 1.56011 0
M  V30 855 C 82.5255 -0.963413 1.82762 0
M  V30 856 C 82.9335 -1.78516 0.626804 0
M  V30 857 O 82.2765 -1.78974 -0.414014 0
M  V30 858 C 82.3385 -1.93126 3.0322 0
M  V30 859 C 82.0025 -1.2942 4.38291 0
M  V30 860 C 82.9995 -0.684916 5.15369 0
M  V30 861 C 80.6845 -1.30647 4.85012 0
M  V30 862 C 82.6785 -0.0963971 6.37327 0
M  V30 863 C 80.3655 -0.71411 6.06913 0
M  V30 864 C 81.3635 -0.110123 6.82911 0
M  V30 865 O 81.0515 0.47303 8.02507 0
M  V30 866 H 80.7835 -0.288011 0.611576 0
M  V30 867 H 83.3375 -0.244103 2.03944 0
M  V30 868 H 81.5675 -2.68952 2.77852 0
M  V30 869 H 83.2565 -2.53685 3.16857 0
M  V30 870 H 84.0225 -0.667774 4.80381 0
M  V30 871 H 79.9015 -1.76598 4.25833 0
M  V30 872 H 83.4455 0.375657 6.96588 0
M  V30 873 H 79.3425 -0.728659 6.41374 0
M  V30 874 H 80.1105 0.367186 8.17676 0
M  V30 875 N 82.7736 -1.49793 -0.48987 0
M  V30 876 C 84.0216 -1.59525 -1.24081 0
M  V30 877 C 84.3426 -0.288953 -1.92847 0
M  V30 878 O 83.6126 0.692436 -1.83254 0
M  V30 879 H 82.1926 -0.587796 -0.460983 0
M  V30 880 H 84.8546 -1.86477 -0.566778 0
M  V30 881 H 83.9506 -2.39696 -1.99881 0
M  V30 882 N 84.2517 0.741722 -1.39055 0
M  V30 883 C 85.4987 1.50114 -1.35912 0
M  V30 884 C 85.8267 1.94443 0.0470937 0
M  V30 885 O 85.0817 1.66612 1.02659 0
M  V30 886 C 85.3807 2.7592 -2.27163 0
M  V30 887 C 85.0467 2.50493 -3.74919 0
M  V30 888 C 83.7087 2.43267 -4.1518 0
M  V30 889 C 86.0607 2.28585 -4.684 0
M  V30 890 C 83.3887 2.12166 -5.46994 0
M  V30 891 C 85.7407 1.99002 -6.00484 0
M  V30 892 C 84.4047 1.90241 -6.39816 0
M  V30 893 H 83.6747 0.549306 -0.497336 0
M  V30 894 H 86.3217 0.851896 -1.71508 0
M  V30 895 H 84.6267 3.45553 -1.84663 0
M  V30 896 H 86.3237 3.33923 -2.22028 0
M  V30 897 H 82.9137 2.56992 -3.43006 0
M  V30 898 H 87.0977 2.33139 -4.38132 0
M  V30 899 H 82.3537 2.03901 -5.76398 0
M  V30 900 H 86.5277 1.81057 -6.72452 0
M  V30 901 H 84.1547 1.65907 -7.41875 0
M  V30 902 N 85.7298 1.2412 0.971189 0
M  V30 903 C 86.9788 1.07284 1.70801 0
M  V30 904 C 87.2918 -0.388902 1.91695 0
M  V30 905 O 88.4978 -0.677379 2.62914 0
M  V30 906 C 86.9538 1.87145 3.07416 0
M  V30 907 C 86.5618 3.37707 2.94377 0
M  V30 908 C 88.3058 1.78828 3.84995 0
M  V30 909 C 86.2128 4.09925 4.26281 0
M  V30 910 H 85.1428 0.397854 0.64049 0
M  V30 911 H 87.7938 1.4817 1.0825 0
M  V30 912 H 86.1758 1.39071 3.70777 0
M  V30 913 H 87.3498 3.93335 2.4005 0
M  V30 914 H 85.6648 3.46938 2.30267 0
M  V30 915 H 88.2618 2.30089 4.82662 0
M  V30 916 H 88.6048 0.75284 4.09436 0
M  V30 917 H 89.1378 2.24563 3.28354 0
M  V30 918 H 85.8768 5.13813 4.07033 0
M  V30 919 H 85.3968 3.59083 4.80437 0
M  V30 920 H 87.0758 4.1673 4.94919 0
M  V30 921 N 87.2079 -1.17134 1.05439 0
M  V30 922 C 88.6189 -1.69084 0.791676 0
M  V30 923 C 88.9699 -1.83822 -0.685839 0
M  V30 924 O 88.0949 -1.52757 -1.53278 0
M  V30 925 C 88.6899 -3.07119 1.4305 0
M  V30 926 C 87.2489 -3.56225 1.21577 0
M  V30 927 C 86.3959 -2.32421 1.51247 0
M  V30 928 H 89.3469 -1.01617 1.219 0
M  V30 929 H 89.3679 -3.71087 0.84112 0
M  V30 930 H 88.8799 -2.9636 2.50584 0
M  V30 931 H 86.9809 -3.72257 0.159787 0
M  V30 932 H 87.0939 -4.38837 1.92246 0
M  V30 933 H 85.4579 -2.3701 0.932653 0
M  V30 934 H 86.2409 -2.24268 2.5992 0
M  V30 935 N 88.686 -0.835752 -1.33615 0
M  V30 936 C 89.618 -0.224151 -2.28101 0
M  V30 937 C 90.631 0.593331 -1.51603 0
M  V30 938 O 91.82 0.420911 -1.73466 0
M  V30 939 C 88.92 0.703309 -3.31522 0
M  V30 940 C 88.093 -0.0741528 -4.37337 0
M  V30 941 C 87.152 0.776176 -5.20444 0
M  V30 942 O 86.178 0.216506 -5.68788 0
M  V30 943 N 87.38 2.09401 -5.41416 0
M  V30 944 H 90.145 -1.03598 -2.81225 0
M  V30 945 H 87.706 -0.69392 -1.46275 0
M  V30 946 H 89.698 1.27707 -3.84022 0
M  V30 947 H 88.268 1.41585 -2.78698 0
M  V30 948 H 87.488 -0.82928 -3.85378 0
M  V30 949 H 88.776 -0.608863 -5.05144 0
M  V30 950 H 88.174 2.57229 -5.03835 0
M  V30 951 H 86.731 2.61633 -5.96985 0
M  V30 952 N 90.1641 1.46063 -0.591896 0
M  V30 953 C 91.3921 2.06717 -0.0868936 0
M  V30 954 C 91.8071 1.43916 1.22203 0
M  V30 955 O 91.1641 0.547698 1.74088 0
M  V30 956 C 91.2151 3.6142 0.0758725 0
M  V30 957 O 90.9361 4.21874 -1.18126 0
M  V30 958 C 92.4371 4.39025 0.61416 0
M  V30 959 H 89.6571 0.668162 -0.0616518 0
M  V30 960 H 92.2011 1.8755 -0.815175 0
M  V30 961 H 90.3561 3.79983 0.754413 0
M  V30 962 H 90.7701 5.14861 -1.00092 0
M  V30 963 H 92.2441 5.4783 0.677193 0
M  V30 964 H 92.7211 4.07708 1.63312 0
M  V30 965 H 93.3271 4.2529 -0.0298142 0
M  V30 966 N 91.6422 0.330177 1.54103 0
M  V30 967 C 92.5722 -0.525353 2.27513 0
M  V30 968 C 93.5532 -1.11383 1.2856 0
M  V30 969 O 94.7382 -1.13773 1.57383 0
M  V30 970 C 91.8682 -1.6831 3.03791 0
M  V30 971 C 90.8222 -1.2236 4.10137 0
M  V30 972 C 90.1482 -2.46882 4.74293 0
M  V30 973 C 91.4482 -0.333697 5.21233 0
M  V30 974 H 93.1422 0.087013 2.99274 0
M  V30 975 H 90.6882 0.0432893 1.43935 0
M  V30 976 H 92.6412 -2.28795 3.5388 0
M  V30 977 H 91.3652 -2.32216 2.29659 0
M  V30 978 H 90.0242 -0.64165 3.60941 0
M  V30 979 H 89.6722 -3.09165 3.96769 0
M  V30 980 H 89.3722 -2.16825 5.46133 0
M  V30 981 H 90.8962 -3.08117 5.27159 0
M  V30 982 H 92.3102 -0.845013 5.67038 0
M  V30 983 H 90.7072 -0.125612 5.99969 0
M  V30 984 H 91.7772 0.633724 4.80741 0
M  V30 985 N 93.1203 -1.57491 0.0584922 0
M  V30 986 C 94.3453 -1.97711 -0.62652 0
M  V30 987 C 94.7703 -0.936132 -1.63151 0
M  V30 988 O 94.1283 0.099811 -1.81025 0
M  V30 989 C 94.1763 -3.36989 -1.28338 0
M  V30 990 O 93.2803 -3.35433 -2.39913 0
M  V30 991 H 92.6213 -0.643868 -0.162266 0
M  V30 992 H 95.1513 -2.04193 0.129064 0
M  V30 993 H 95.1613 -3.73879 -1.63335 0
M  V30 994 H 93.8363 -4.12289 -0.546889 0
M  V30 995 H 92.4133 -3.10298 -2.06809 0
M  V30 996 N 94.5984 0.214957 -1.56127 0
M  V30 997 C 95.8464 0.936518 -1.79091 0
M  V30 998 C 96.1674 1.84606 -0.628148 0
M  V30 999 O 95.4374 1.92664 0.35462 0
M  V30 1000 H 94.0174 0.3488 -0.660566 0
M  V30 1001 H 96.6794 0.22523 -1.93594 0
M  V30 1002 H 95.7754 1.53943 -2.71492 0
M  V30 1003 N 96.0765 1.50051 0.48192 0
M  V30 1004 C 97.3535 1.51009 1.2432 0
M  V30 1005 C 97.7335 0.248587 2.09631 0
M  V30 1006 O 97.0815 -0.768409 2.15192 0
M  V30 1007 C 97.2915 2.79981 2.08355 0
M  V30 1008 C 98.6395 3.3022 2.66908 0
M  V30 1009 O 99.6635 2.81228 2.18607 0
M  V30 1010 O 98.5225 4.15595 3.54884 0
M  V30 1011 H 95.6165 0.605239 0.563573 0
M  V30 1012 H 98.1625 1.62332 0.494627 0
M  V30 1013 H 96.9345 3.63275 1.45419 0
M  V30 1014 H 96.5575 2.7161 2.90368 0
M  V30 1015 N 97.5546 -0.734337 1.39446 0
M  V30 1016 C 98.8026 -1.49096 1.36436 0
M  V30 1017 C 99.1236 -1.94961 -0.0388255 0
M  V30 1018 O 98.3936 -1.69033 -0.990191 0
M  V30 1019 H 96.9736 -0.5531 0.502085 0
M  V30 1020 H 99.6356 -0.871725 1.74319 0
M  V30 1021 H 98.7316 -2.37276 2.02747 0
M  V30 1022 N 99.0327 -1.24633 -0.964593 0
M  V30 1023 C 100.31 -0.995809 -1.68354 0
M  V30 1024 C 100.69 0.480964 -2.05548 0
M  V30 1025 O 100.038 1.45599 -1.76105 0
M  V30 1026 C 100.248 -1.92177 -2.91323 0
M  V30 1027 C 101.596 -2.19446 -3.63495 0
M  V30 1028 O 102.62 -1.89855 -3.01386 0
M  V30 1029 O 101.479 -2.69714 -4.75307 0
M  V30 1030 H 98.5727 -0.376854 -0.736146 0
M  V30 1031 H 101.119 -1.35745 -1.0184 0
M  V30 1032 H 99.8907 -2.91938 -2.60553 0
M  V30 1033 H 99.5137 -1.56349 -3.65569 0
M  V30 1034 N 100.511 1.16574 -1.06058 0
M  V30 1035 C 101.922 1.68662 -0.800632 0
M  V30 1036 C 102.273 1.84184 0.67608 0
M  V30 1037 O 101.398 1.53568 1.52466 0
M  V30 1038 C 101.993 3.06356 -1.44676 0
M  V30 1039 C 100.552 3.55575 -1.23465 0
M  V30 1040 C 99.6988 2.31616 -1.52477 0
M  V30 1041 H 102.65 1.00969 -1.22438 0
M  V30 1042 H 102.671 3.70636 -0.860788 0
M  V30 1043 H 102.183 2.95027 -2.52152 0
M  V30 1044 H 100.284 3.72167 -0.179527 0
M  V30 1045 H 100.397 4.37812 -1.94571 0
M  V30 1046 H 98.7608 2.36512 -0.945209 0
M  V30 1047 H 99.5438 2.22887 -2.61106 0
M  V30 1048 N 101.989 0.842826 1.3317 0
M  V30 1049 C 103.235 0.441099 1.97945 0
M  V30 1050 C 103.568 -0.998024 1.66593 0
M  V30 1051 O 102.843 -1.69839 0.947898 0
M  V30 1052 C 103.126 0.666841 3.53872 0
M  V30 1053 C 102.979 2.15352 3.94897 0
M  V30 1054 C 104.298 0.115544 4.39948 0
M  V30 1055 H 101.417 0.161739 0.719034 0
M  V30 1056 H 104.059 1.05907 1.57746 0
M  V30 1057 H 102.209 0.140828 3.88245 0
M  V30 1058 H 103.881 2.7447 3.70761 0
M  V30 1059 H 102.124 2.63653 3.44484 0
M  V30 1060 H 102.795 2.26221 5.03516 0
M  V30 1061 H 105.271 0.565213 4.12243 0
M  V30 1062 H 104.147 0.303152 5.48062 0
M  V30 1063 H 104.408 -0.980935 4.3108 0
M  V30 1064 N 103.467 -1.45747 0.599634 0
M  V30 1065 C 104.744 -1.95585 0.0240846 0
M  V30 1066 C 105.124 -1.54217 -1.44154 0
M  V30 1067 O 104.472 -0.800903 -2.14004 0
M  V30 1068 C 104.682 -3.48344 0.21385 0
M  V30 1069 C 106.03 -4.24504 0.0904902 0
M  V30 1070 O 107.054 -3.55911 0.143558 0
M  V30 1071 O 105.913 -5.46491 -0.0310766 0
M  V30 1072 H 103.007 -0.82602 -0.0402478 0
M  V30 1073 H 105.553 -1.55951 0.669139 0
M  V30 1074 H 104.325 -3.71397 1.23206 0
M  V30 1075 H 103.948 -3.9485 -0.466842 0
M  V30 1076 N 104.945 -0.338344 -1.53925 0
M  V30 1077 C 106.191 0.260143 -2.01125 0
M  V30 1078 C 106.524 1.50617 -1.22589 0
M  V30 1079 O 105.799 1.91979 -0.312113 0
M  V30 1080 C 106.082 0.579499 -3.55407 0
M  V30 1081 C 105.935 -0.678264 -4.44657 0
M  V30 1082 C 107.254 1.39122 -4.17532 0
M  V30 1083 H 104.373 0.0930772 -0.731099 0
M  V30 1084 H 107.015 -0.457852 -1.84401 0
M  V30 1085 H 105.165 1.19118 -3.69788 0
M  V30 1086 H 106.837 -1.31631 -4.42121 0
M  V30 1087 H 105.08 -1.3042 -4.13731 0
M  V30 1088 H 105.751 -0.410143 -5.50474 0
M  V30 1089 H 108.227 0.874035 -4.06817 0
M  V30 1090 H 107.103 1.58342 -5.25565 0
M  V30 1091 H 107.364 2.39178 -3.71815 0
M  V30 1092 N 106.423 1.57458 -0.0668435 0
M  V30 1093 C 107.353 2.15468 0.899764 0
M  V30 1094 C 108.334 1.08042 1.31381 0
M  V30 1095 O 109.519 1.36054 1.38574 0
M  V30 1096 C 106.649 2.71232 2.16911 0
M  V30 1097 C 105.603 3.83781 1.89463 0
M  V30 1098 C 104.929 4.26127 3.22986 0
M  V30 1099 C 106.229 5.08238 1.20381 0
M  V30 1100 H 107.923 2.96488 0.416529 0
M  V30 1101 H 105.469 1.4262 0.198908 0
M  V30 1102 H 107.422 3.10458 2.84945 0
M  V30 1103 H 106.146 1.87426 2.67468 0
M  V30 1104 H 104.805 3.45051 1.23836 0
M  V30 1105 H 104.453 3.39249 3.71374 0
M  V30 1106 H 104.153 5.01993 3.05413 0
M  V30 1107 H 105.677 4.67966 3.92225 0
M  V30 1108 H 107.091 5.44811 1.78475 0
M  V30 1109 H 105.488 5.89349 1.13083 0
M  V30 1110 H 106.558 4.84558 0.182153 0
M  V30 1111 N 107.901 -0.206675 1.56239 0
M  V30 1112 C 109.147 -0.930218 1.80208 0
M  V30 1113 C 109.48 -1.83387 0.638981 0
M  V30 1114 O 108.755 -1.91119 -0.361066 0
M  V30 1115 C 109.038 -1.75641 3.1436 0
M  V30 1116 C 108.891 -0.878257 4.41142 0
M  V30 1117 C 110.21 -2.73129 3.45092 0
M  V30 1118 H 107.329 -0.336742 0.655571 0
M  V30 1119 H 109.971 -0.198222 1.88963 0
M  V30 1120 H 108.121 -2.38048 3.07027 0
M  V30 1121 H 109.793 -0.269787 4.6051 0
M  V30 1122 H 108.036 -0.184385 4.33408 0
M  V30 1123 H 108.707 -1.49106 5.3148 0
M  V30 1124 H 111.183 -2.20856 3.52649 0
M  V30 1125 H 110.059 -3.28028 4.40101 0
M  V30 1126 H 110.32 -3.51606 2.68003 0
M  V30 1127 N 109.379 -1.50304 -0.473955 0
M  V30 1128 C 110.628 -1.60392 -1.22301 0
M  V30 1129 C 110.941 -0.308411 -1.93153 0
M  V30 1130 O 112.147 -0.288156 -2.69966 0
M  V30 1131 C 110.603 -2.83109 -2.2221 0
M  V30 1132 C 110.211 -4.19524 -1.57173 0
M  V30 1133 C 111.955 -3.0254 -2.97775 0
M  V30 1134 C 109.862 -5.33431 -2.55353 0
M  V30 1135 H 108.792 -0.597286 -0.460179 0
M  V30 1136 H 111.443 -1.76731 -0.493803 0
M  V30 1137 H 109.825 -2.60322 -2.9841 0
M  V30 1138 H 110.999 -4.52554 -0.867824 0
M  V30 1139 H 109.314 -4.05674 -0.939002 0
M  V30 1140 H 111.911 -3.84811 -3.71248 0
M  V30 1141 H 112.254 -2.14154 -3.56992 0
M  V30 1142 H 112.787 -3.25494 -2.28688 0
M  V30 1143 H 109.526 -6.23962 -2.00878 0
M  V30 1144 H 109.046 -5.04823 -3.23904 0
M  V30 1145 H 110.725 -5.63887 -3.17239 0
M  V30 1146 N 110.857 0.726932 -1.39834 0
M  V30 1147 C 112.085 1.51613 -1.40787 0
M  V30 1148 C 112.5 1.88799 -0.00451505 0
M  V30 1149 O 111.857 1.54662 0.968809 0
M  V30 1150 C 111.908 2.79863 -2.28821 0
M  V30 1151 O 111.629 2.44253 -3.63692 0
M  V30 1152 C 113.13 3.73837 -2.38245 0
M  V30 1153 H 110.35 0.468264 -0.480593 0
M  V30 1154 H 112.894 0.897607 -1.83748 0
M  V30 1155 H 111.049 3.38027 -1.89252 0
M  V30 1156 H 111.463 3.26695 -4.1033 0
M  V30 1157 H 112.937 4.60699 -3.04073 0
M  V30 1158 H 113.414 4.16153 -1.40403 0
M  V30 1159 H 114.02 3.21589 -2.78317 0
M  V30 1160 N 112.336 1.25143 0.95797 0
M  V30 1161 C 113.747 1.08851 1.51685 0
M  V30 1162 C 114.098 -0.33687 1.93286 0
M  V30 1163 O 113.223 -1.22644 1.7829 0
M  V30 1164 C 113.818 1.96978 2.75654 0
M  V30 1165 C 112.377 1.84881 3.27866 0
M  V30 1166 C 111.524 1.91329 2.0072 0
M  V30 1167 H 114.475 1.38478 0.77522 0
M  V30 1168 H 114.496 1.5078 3.4935 0
M  V30 1169 H 114.008 3.00712 2.45345 0
M  V30 1170 H 112.109 0.840182 3.63004 0
M  V30 1171 H 112.222 2.6951 3.96107 0
M  V30 1172 H 110.586 1.35174 2.15871 0
M  V30 1173 H 111.369 2.96661 1.72764 0
M  V30 1174 N 113.814 -1.1601 1.06675 0
M  V30 1175 C 115.061 -1.86633 0.785781 0
M  V30 1176 C 115.389 -1.81929 -0.687896 0
M  V30 1177 O 114.644 -1.23253 -1.52011 0
M  V30 1178 C 114.943 -3.35547 1.23057 0
M  V30 1179 C 114.609 -3.60448 2.70902 0
M  V30 1180 C 113.271 -3.66954 3.11285 0
M  V30 1181 C 115.623 -3.7071 3.66365 0
M  V30 1182 C 112.951 -3.81225 4.45965 0
M  V30 1183 C 115.303 -3.86503 5.00797 0
M  V30 1184 C 113.967 -3.91252 5.40813 0
M  V30 1185 H 113.237 -0.682937 0.287538 0
M  V30 1186 H 115.884 -1.37146 1.33654 0
M  V30 1187 H 114.189 -3.87193 0.59907 0
M  V30 1188 H 115.886 -3.88583 0.990163 0
M  V30 1189 H 112.476 -3.56021 2.38636 0
M  V30 1190 H 116.66 -3.64991 3.36296 0
M  V30 1191 H 111.916 -3.83155 4.76447 0
M  V30 1192 H 116.09 -3.93385 5.74649 0
M  V30 1193 H 113.717 -4.02062 6.45174 0
M  V30 1194 N 115.292 -0.849877 -1.32721 0
M  V30 1195 C 116.703 -0.506188 -1.79707 0
M  V30 1196 C 117.054 0.975627 -1.70223 0
M  V30 1197 O 116.179 1.76078 -1.25799 0
M  V30 1198 C 116.774 -0.912044 -3.26293 0
M  V30 1199 C 115.333 -0.620326 -3.71253 0
M  V30 1200 C 114.48 -1.11439 -2.53922 0
M  V30 1201 H 117.431 -1.03754 -1.20087 0
M  V30 1202 H 117.452 -0.226493 -3.79825 0
M  V30 1203 H 116.964 -1.99057 -3.33164 0
M  V30 1204 H 115.065 0.447674 -3.69901 0
M  V30 1205 H 115.178 -1.18327 -4.64258 0
M  V30 1206 H 113.542 -0.534834 -2.49021 0
M  V30 1207 H 114.325 -2.19992 -2.6355 0
M  V30 1208 N 116.77 1.45427 -0.607355 0
M  V30 1209 C 117.7 2.3329 0.0989352 0
M  V30 1210 C 118.681 1.46816 0.859007 0
M  V30 1211 O 119.866 1.75588 0.829604 0
M  V30 1212 C 116.996 3.29518 1.09705 0
M  V30 1213 C 115.95 4.25626 0.450206 0
M  V30 1214 C 115.276 5.11542 1.55655 0
M  V30 1215 C 116.576 5.18505 -0.628455 0
M  V30 1216 H 118.27 2.92595 -0.634716 0
M  V30 1217 H 115.816 1.40696 -0.306681 0
M  V30 1218 H 117.769 3.89855 1.59971 0
M  V30 1219 H 116.493 2.68372 1.86129 0
M  V30 1220 H 115.152 3.66586 -0.0315886 0
M  V30 1221 H 114.8 4.46765 2.31107 0
M  V30 1222 H 114.5 5.76647 1.12925 0
M  V30 1223 H 116.024 5.74748 2.06148 0
M  V30 1224 H 117.438 5.72916 -0.209877 0
M  V30 1225 H 115.835 5.92085 -0.977489 0
M  V30 1226 H 116.905 4.60948 -1.50514 0
M  V30 1227 N 118.248 0.346503 1.53744 0
M  V30 1228 C 119.178 -0.501193 2.28058 0
M  V30 1229 C 120.159 -1.10014 1.29734 0
M  V30 1230 O 121.344 -1.12097 1.58581 0
M  V30 1231 C 118.474 -1.65078 3.05559 0
M  V30 1232 C 117.428 -1.18003 4.11411 0
M  V30 1233 C 116.754 -2.41837 4.76884 0
M  V30 1234 C 118.054 -0.278394 5.21558 0
M  V30 1235 H 119.748 0.11875 2.99164 0
M  V30 1236 H 117.294 0.0585531 1.43881 0
M  V30 1237 H 119.247 -2.25028 3.56287 0
M  V30 1238 H 117.971 -2.29767 2.32109 0
M  V30 1239 H 116.63 -0.603331 3.61601 0
M  V30 1240 H 116.278 -3.0494 4.00026 0
M  V30 1241 H 115.978 -2.1102 5.48402 0
M  V30 1242 H 117.502 -3.02508 5.30397 0
M  V30 1243 H 118.916 -0.784823 5.67903 0
M  V30 1244 H 117.313 -0.0619707 6.00068 0
M  V30 1245 H 118.383 0.684677 4.80042 0
M  V30 1246 N 119.726 -1.57421 0.075193 0
M  V30 1247 C 120.689 -2.11791 -0.876203 0
M  V30 1248 C 121.689 -1.04268 -1.22412 0
M  V30 1249 O 122.879 -1.30242 -1.15684 0
M  V30 1250 C 120.011 -2.62207 -2.17854 0
M  V30 1251 H 121.204 -2.9716 -0.40444 0
M  V30 1252 H 118.757 -1.55333 -0.173557 0
M  V30 1253 H 119.492 -1.803 -2.6956 0
M  V30 1254 H 119.277 -3.40802 -1.93897 0
M  V30 1255 H 120.767 -3.04335 -2.85955 0
M  V30 1256 N 121.204 0.198386 -1.56346 0
M  V30 1257 C 122.452 0.91747 -1.80075 0
M  V30 1258 C 122.773 1.83929 -0.647692 0
M  V30 1259 O 122.043 1.93029 0.334166 0
M  V30 1260 H 120.623 0.341774 -0.664228 0
M  V30 1261 H 123.285 0.204684 -1.93822 0
M  V30 1262 H 122.381 1.51055 -2.7311 0
M  V30 1263 N 122.682 1.50554 0.465978 0
M  V30 1264 C 123.907 1.65838 1.24549 0
M  V30 1265 C 124.332 0.343486 1.84937 0
M  V30 1266 O 123.69 -0.69324 1.67523 0
M  V30 1267 C 123.738 2.75533 2.32624 0
M  V30 1268 O 122.842 2.37142 3.37398 0
M  V30 1269 H 122.183 0.553893 0.366194 0
M  V30 1270 H 124.713 1.96959 0.553927 0
M  V30 1271 H 124.723 2.98763 2.77857 0
M  V30 1272 H 123.398 3.70962 1.88043 0
M  V30 1273 H 121.975 2.24377 2.97841 0
M  V30 1274 N 124.16 -0.719506 1.40217 0
M  V30 1275 C 125.406 -1.48152 1.38488 0
M  V30 1276 C 125.739 -1.94195 -0.0141867 0
M  V30 1277 O 125.014 -1.67884 -0.982096 0
M  V30 1278 C 125.297 -2.71035 2.37091 0
M  V30 1279 C 125.15 -2.30912 3.86005 0
M  V30 1280 C 126.469 -3.73182 2.33288 0
M  V30 1281 H 123.588 -0.537395 0.504357 0
M  V30 1282 H 126.23 -0.821472 1.71324 0
M  V30 1283 H 124.38 -3.27352 2.0922 0
M  V30 1284 H 126.052 -1.80107 4.24687 0
M  V30 1285 H 124.295 -1.62958 4.02029 0
M  V30 1286 H 124.966 -3.18978 4.50508 0
M  V30 1287 H 127.442 -3.26485 2.57966 0
M  V30 1288 H 126.318 -4.56806 3.04334 0
M  V30 1289 H 126.579 -4.21202 1.34317 0
M  V30 1290 N 125.638 -1.25649 -0.95132 0
M  V30 1291 C 126.884 -1.10757 -1.69884 0
M  V30 1292 C 127.217 0.350061 -1.91019 0
M  V30 1293 O 126.492 1.25783 -1.48354 0
M  V30 1294 C 126.775 -1.86606 -3.07978 0
M  V30 1295 C 126.628 -3.40217 -2.94232 0
M  V30 1296 C 127.947 -1.65182 -4.07925 0
M  V30 1297 H 125.066 -0.40374 -0.616574 0
M  V30 1298 H 127.708 -1.54521 -1.10558 0
M  V30 1299 H 125.858 -1.49409 -3.58621 0
M  V30 1300 H 127.53 -3.87108 -2.50889 0
M  V30 1301 H 125.773 -3.67759 -2.30078 0
M  V30 1302 H 126.444 -3.88505 -3.92133 0
M  V30 1303 H 128.92 -1.9757 -3.66204 0
M  V30 1304 H 127.796 -2.20683 -5.02583 0
M  V30 1305 H 128.057 -0.593933 -4.38092 0
M  V30 1306 N 127.117 1.15442 -1.07289 0
M  V30 1307 C 128.533 1.38201 -0.798288 0
M  V30 1308 C 128.733 1.92429 0.597769 0
M  V30 1309 O 127.789 2.12962 1.3566 0
M  V30 1310 C 129.102 2.35357 -1.87156 0
M  V30 1311 C 130.65 2.49021 -1.89624 0
M  V30 1312 C 131.125 3.49468 -2.96034 0
M  V30 1313 N 132.616 3.57003 -2.95132 0
M  V30 1314 C 133.351 4.34543 -3.74112 0
M  V30 1315 N 132.847 5.15421 -4.6294 0
M  V30 1316 N 134.64 4.29625 -3.62462 0
M  V30 1317 H 126.791 0.78584 -1.97328 0
M  V30 1318 H 129.054 0.408065 -0.855679 0
M  V30 1319 H 128.76 2.02626 -2.87464 0
M  V30 1320 H 128.634 3.35129 -1.73114 0
M  V30 1321 H 131.021 2.81051 -0.899687 0
M  V30 1322 H 131.102 1.4925 -2.07745 0
M  V30 1323 H 130.746 3.18173 -3.95889 0
M  V30 1324 H 130.676 4.48992 -2.75161 0
M  V30 1325 H 133.167 2.99276 -2.30743 0
M  V30 1326 H 133.48 5.7183 -5.19837 0
M  V30 1327 H 131.825 5.14729 -4.66989 0
M  V30 1328 H 135.016 3.65505 -2.92444 0
M  V30 1329 H 135.189 4.89807 -4.24256 0
M  V30 1330 N 128.595 0.856903 1.32268 0
M  V30 1331 C 129.558 0.308171 2.27119 0
M  V30 1332 C 130.558 -0.533421 1.51695 0
M  V30 1333 O 131.748 -0.344607 1.70757 0
M  V30 1334 C 128.88 -0.563757 3.36206 0
M  V30 1335 H 130.073 1.14535 2.77167 0
M  V30 1336 H 127.626 0.631421 1.42978 0
M  V30 1337 H 128.361 -1.42266 2.91429 0
M  V30 1338 H 128.146 0.0386749 3.92081 0
M  V30 1339 H 129.636 -0.940386 4.06874 0
M  V30 1340 N 130.073 -1.45103 0.615059 0
M  V30 1341 C 131.489 -1.57137 0.279322 0
M  V30 1342 C 131.689 -1.60523 -1.21797 0
M  V30 1343 O 130.745 -1.53956 -2.00134 0
M  V30 1344 C 132.058 -2.85062 0.957083 0
M  V30 1345 C 133.606 -2.98749 0.933706 0
M  V30 1346 C 134.081 -4.29455 1.59162 0
M  V30 1347 N 135.572 -4.36231 1.55746 0
M  V30 1348 C 136.307 -5.36051 2.0356 0
M  V30 1349 N 135.803 -6.42367 2.59494 0
M  V30 1350 N 137.596 -5.27456 1.94284 0
M  V30 1351 H 129.747 -1.41148 1.58717 0
M  V30 1352 H 132.01 -0.675331 0.665306 0
M  V30 1353 H 131.716 -2.88488 2.01166 0
M  V30 1354 H 131.59 -3.7407 0.48494 0
M  V30 1355 H 133.977 -2.94886 -0.112347 0
M  V30 1356 H 134.058 -2.11132 1.44419 0
M  V30 1357 H 133.702 -4.34077 2.63704 0
M  V30 1358 H 133.632 -5.15901 1.0561 0
M  V30 1359 H 136.123 -3.60011 1.14893 0
M  V30 1360 H 136.436 -7.14793 2.93752 0
M  V30 1361 H 134.781 -6.43097 2.63537 0
M  V30 1362 H 137.972 -4.43308 1.5032 0
M  V30 1363 H 138.145 -6.05099 2.3186 0
M  V30 1364 N 131.551 -0.354651 -1.53558 0
M  V30 1365 C 132.514 0.484566 -2.24019 0
M  V30 1366 C 133.514 1.01861 -1.24422 0
M  V30 1367 O 134.704 0.906097 -1.4878 0
M  V30 1368 C 131.836 1.67615 -2.96847 0
M  V30 1369 H 133.029 -0.131843 -2.9961 0
M  V30 1370 H 130.582 -0.106165 -1.55939 0
M  V30 1371 H 131.317 2.33095 -2.25471 0
M  V30 1372 H 131.102 1.30029 -3.69912 0
M  V30 1373 H 132.592 2.27114 -3.50441 0
M  V30 1374 N 133.029 1.57378 -0.0835403 0
M  V30 1375 C 133.959 2.1641 0.87686 0
M  V30 1376 C 134.94 1.09429 1.30228 0
M  V30 1377 O 136.125 1.37516 1.37124 0
M  V30 1378 C 133.255 2.73517 2.14022 0
M  V30 1379 C 132.209 3.85769 1.85381 0
M  V30 1380 C 131.535 4.29529 3.18448 0
M  V30 1381 C 132.835 5.09486 1.14984 0
M  V30 1382 H 134.529 2.96914 0.385059 0
M  V30 1383 H 132.075 1.42823 0.18377 0
M  V30 1384 H 134.028 3.13463 2.81636 0
M  V30 1385 H 132.752 1.90252 2.65465 0
M  V30 1386 H 131.411 3.46345 1.20169 0
M  V30 1387 H 131.059 3.43169 3.67755 0
M  V30 1388 H 130.759 5.05204 3.00071 0
M  V30 1389 H 132.283 4.72099 3.8724 0
M  V30 1390 H 133.697 5.46674 1.72687 0
M  V30 1391 H 132.094 5.90515 1.06826 0
M  V30 1392 H 133.164 4.84724 0.130749 0
M  V30 1393 N 134.507 -0.190092 1.56449 0
M  V30 1394 C 135.755 -0.907908 1.80559 0
M  V30 1395 C 136.076 -1.83583 0.657438 0
M  V30 1396 O 135.346 -1.93203 -0.323924 0
M  V30 1397 H 133.926 -0.338247 0.666032 0
M  V30 1398 H 136.588 -0.194403 1.93928 0
M  V30 1399 H 135.684 -1.49604 2.73907 0
M  V30 1400 N 135.985 -1.50799 -0.457987 0
M  V30 1401 C 136.918 -1.65273 -1.57353 0
M  V30 1402 C 137.896 -0.500578 -1.54703 0
M  V30 1403 O 139.08 -0.721781 -1.74134 0
M  V30 1404 C 136.207 -1.64737 -2.95938 0
M  V30 1405 C 135.253 -2.8567 -3.16693 0
M  V30 1406 S 136.086 -4.46791 -2.95191 0
M  V30 1407 C 137.242 -4.48968 -4.36095 0
M  V30 1408 H 137.475 -2.59633 -1.44838 0
M  V30 1409 H 135.008 -1.40225 -0.64625 0
M  V30 1410 H 136.966 -1.65112 -3.7583 0
M  V30 1411 H 135.627 -0.715899 -3.05833 0
M  V30 1412 H 134.82 -2.81637 -4.17967 0
M  V30 1413 H 134.422 -2.8293 -2.44594 0
M  V30 1414 H 136.714 -4.23337 -5.28954 0
M  V30 1415 H 137.657 -5.50664 -4.45168 0
M  V30 1416 H 138.065 -3.78522 -4.18786 0
M  V30 1417 N 137.463 0.71206 -1.40597 0
M  V30 1418 C 138.393 1.83889 -1.43899 0
M  V30 1419 C 139.374 1.67442 -0.299504 0
M  V30 1420 O 140.559 1.87421 -0.508624 0
M  V30 1421 C 137.689 3.21877 -1.30431 0
M  V30 1422 C 136.643 3.53002 -2.42019 0
M  V30 1423 C 135.969 4.90172 -2.13626 0
M  V30 1424 C 137.269 3.53643 -3.84362 0
M  V30 1425 H 138.963 1.81383 -2.38203 0
M  V30 1426 H 136.509 0.871237 -1.14654 0
M  V30 1427 H 138.462 4.00404 -1.31357 0
M  V30 1428 H 137.186 3.24968 -0.326049 0
M  V30 1429 H 135.845 2.76818 -2.40349 0
M  V30 1430 H 135.493 4.89869 -1.14182 0
M  V30 1431 H 135.193 5.11962 -2.88389 0
M  V30 1432 H 136.717 5.71028 -2.1624 0
M  V30 1433 H 138.131 4.22203 -3.87837 0
M  V30 1434 H 136.528 3.86961 -4.58673 0
M  V30 1435 H 137.598 2.52954 -4.13693 0
M  V30 1436 N 138.941 1.26152 0.944643 0
M  V30 1437 C 139.888 1.07408 2.04285 0
M  V30 1438 C 140.858 -0.0198413 1.66088 0
M  V30 1439 O 142.043 0.139264 1.90291 0
M  V30 1440 C 139.183 0.70945 3.37729 0
M  V30 1441 C 138.296 1.87926 3.88983 0
M  V30 1442 C 137.431 1.45807 5.10797 0
M  V30 1443 C 136.47 2.5964 5.54305 0
M  V30 1444 N 135.607 2.18226 6.67324 0
M  V30 1445 H 140.447 2.01389 2.1965 0
M  V30 1446 H 137.984 1.00275 1.07626 0
M  V30 1447 H 139.942 0.478948 4.14442 0
M  V30 1448 H 138.572 -0.193389 3.2222 0
M  V30 1449 H 137.624 2.22279 3.08701 0
M  V30 1450 H 138.936 2.73377 4.17213 0
M  V30 1451 H 138.09 1.18781 5.94959 0
M  V30 1452 H 136.829 0.574414 4.84305 0
M  V30 1453 H 135.834 2.87399 4.68702 0
M  V30 1454 H 137.059 3.48599 5.828 0
M  V30 1455 H 135.005 1.3229 6.42523 0
M  V30 1456 H 134.922 2.97221 6.95123 0
M  V30 1457 H 136.19 1.94403 7.54869 0
M  V30 1458 N 140.419 -1.14872 1.07899 0
M  V30 1459 C 141.352 -2.18794 0.64841 0
M  V30 1460 C 142.33 -1.59065 -0.337189 0
M  V30 1461 O 143.514 -1.86936 -0.242284 0
M  V30 1462 C 140.641 -3.38667 -0.0470417 0
M  V30 1463 C 139.687 -4.16942 0.897884 0
M  V30 1464 S 140.52 -4.78615 2.40183 0
M  V30 1465 C 141.676 -6.0185 1.71834 0
M  V30 1466 H 141.909 -2.5498 1.52881 0
M  V30 1467 H 139.442 -1.25922 0.893484 0
M  V30 1468 H 141.4 -4.08113 -0.442027 0
M  V30 1469 H 140.061 -3.00814 -0.903861 0
M  V30 1470 H 139.254 -5.02726 0.358096 0
M  V30 1471 H 138.856 -3.53073 1.23352 0
M  V30 1472 H 141.148 -6.69574 1.03328 0
M  V30 1473 H 142.091 -6.60408 2.55473 0
M  V30 1474 H 142.499 -5.5173 1.19392 0
M  V30 1475 N 141.898 -0.863906 -1.31812 0
M  V30 1476 C 143.126 -0.486111 -2.01108 0
M  V30 1477 C 143.541 0.919755 -1.64882 0
M  V30 1478 O 142.898 1.60162 -0.874893 0
M  V30 1479 C 142.949 -0.626435 -3.56031 0
M  V30 1480 O 142.67 -1.97693 -3.90959 0
M  V30 1481 C 144.171 -0.248857 -4.42601 0
M  V30 1482 H 141.391 -0.190052 -0.643523 0
M  V30 1483 H 143.935 -1.1634 -1.68182 0
M  V30 1484 H 142.09 0.00322717 -3.874 0
M  V30 1485 H 142.504 -1.98034 -4.85678 0
M  V30 1486 H 143.978 -0.398016 -5.50563 0
M  V30 1487 H 144.455 0.811489 -4.31638 0
M  V30 1488 H 145.061 -0.853971 -4.16638 0
M  V30 1489 N 143.376 1.44774 -0.622745 0
M  V30 1490 C 144.653 1.95522 -0.0551974 0
M  V30 1491 C 145.033 1.5649 1.41683 0
M  V30 1492 O 144.381 0.834848 2.12703 0
M  V30 1493 C 144.591 3.4796 -0.269242 0
M  V30 1494 C 145.939 4.24306 -0.158014 0
M  V30 1495 O 146.963 3.55637 -0.200162 0
M  V30 1496 O 145.822 5.46471 -0.0558693 0
M  V30 1497 H 142.916 0.826556 0.0271015 0
M  V30 1498 H 145.462 1.54866 -0.693864 0
M  V30 1499 H 144.234 3.6939 -1.29099 0
M  V30 1500 H 143.857 3.95543 0.403966 0
M  V30 1501 N 144.854 0.36279 1.53368 0
M  V30 1502 C 145.764 -0.492994 2.29362 0
M  V30 1503 C 146.78 -1.09507 1.35219 0
M  V30 1504 O 147.956 -1.10662 1.68273 0
M  V30 1505 C 145.021 -1.61855 3.066 0
M  V30 1506 C 144.082 -1.04429 4.16405 0
M  V30 1507 C 143.315 -2.11621 4.89951 0
M  V30 1508 O 143.538 -3.32684 4.63333 0
M  V30 1509 O 142.472 -1.74835 5.75948 0
M  V30 1510 H 146.298 0.125331 3.03441 0
M  V30 1511 H 143.883 0.127253 1.48857 0
M  V30 1512 H 145.765 -2.27302 3.54841 0
M  V30 1513 H 144.44 -2.22233 2.3536 0
M  V30 1514 H 143.347 -0.353819 3.72423 0
M  V30 1515 H 144.68 -0.485113 4.89804 0
M  V30 1516 N 146.332 -1.57332 0.0918853 0
M  V30 1517 C 147.557 -1.98995 -0.584442 0
M  V30 1518 C 147.982 -0.970528 -1.61128 0
M  V30 1519 O 147.34 0.0613904 -1.81196 0
M  V30 1520 C 147.388 -3.39636 -1.21161 0
M  V30 1521 O 146.492 -3.40447 -2.32744 0
M  V30 1522 H 145.833 -0.647165 -0.148572 0
M  V30 1523 H 148.363 -2.03873 0.172347 0
M  V30 1524 H 148.373 -3.7726 -1.55367 0
M  V30 1525 H 147.048 -4.13356 -0.459313 0
M  V30 1526 H 145.625 -3.14614 -2.0018 0
M  V30 1527 N 147.81 0.181792 -1.56548 0
M  V30 1528 C 149.058 0.89832 -1.81038 0
M  V30 1529 C 149.379 1.83232 -0.667164 0
M  V30 1530 O 148.649 1.93372 0.313673 0
M  V30 1531 H 147.229 0.33471 -0.667816 0
M  V30 1532 H 149.891 0.184116 -1.94028 0
M  V30 1533 H 148.987 1.4815 -2.74696 0
M  V30 1534 N 149.288 1.51039 0.449983 0
M  V30 1535 C 150.534 1.63322 1.20223 0
M  V30 1536 C 150.867 0.34241 1.91158 0
M  V30 1537 O 150.142 -0.657344 1.83055 0
M  V30 1538 C 150.425 2.82801 2.22925 0
M  V30 1539 C 150.278 4.21823 1.56157 0
M  V30 1540 C 151.597 2.97807 3.24035 0
M  V30 1541 H 148.716 0.594407 0.435718 0
M  V30 1542 H 151.358 1.83489 0.493136 0
M  V30 1543 H 149.508 2.65738 2.834 0
M  V30 1544 H 151.18 4.50526 0.991162 0
M  V30 1545 H 149.423 4.25105 0.864172 0
M  V30 1546 H 150.094 5.01391 2.30891 0
M  V30 1547 H 152.57 3.13497 2.73603 0
M  V30 1548 H 151.446 3.82992 3.93202 0
M  V30 1549 H 151.707 2.09328 3.89402 0
M  V30 1550 N 150.766 -0.704594 1.40972 0
M  V30 1551 C 152.043 -1.45847 1.30338 0
M  V30 1552 C 152.423 -2.10973 -0.0732344 0
M  V30 1553 O 151.771 -2.00997 -1.08685 0
M  V30 1554 C 151.981 -2.48525 2.45023 0
M  V30 1555 C 153.329 -3.1404 2.8577 0
M  V30 1556 O 154.353 -2.58848 2.44696 0
M  V30 1557 O 153.212 -4.13981 3.56766 0
M  V30 1558 H 150.306 -0.649092 0.512454 0
M  V30 1559 H 152.852 -0.735836 1.52917 0
M  V30 1560 H 151.624 -1.98994 3.36923 0
M  V30 1561 H 151.247 -3.2831 2.24272 0
M  V30 1562 N 152.244 -1.26651 -0.937939 0
M  V30 1563 C 153.207 -1.08546 -2.01867 0
M  V30 1564 C 154.207 -0.0327327 -1.60767 0
M  V30 1565 O 155.397 -0.276427 -1.71993 0
M  V30 1566 C 152.529 -0.651711 -3.34613 0
M  V30 1567 H 153.722 -2.04502 -2.1936 0
M  V30 1568 H 151.275 -1.09294 -1.11734 0
M  V30 1569 H 152.01 0.309696 -3.22818 0
M  V30 1570 H 151.795 -1.41189 -3.65798 0
M  V30 1571 H 153.285 -0.546973 -4.14002 0
M  V30 1572 N 153.722 1.14298 -1.08507 0
M  V30 1573 C 154.669 2.19414 -0.715965 0
M  V30 1574 C 155.639 1.63399 0.298326 0
M  V30 1575 O 156.824 1.89929 0.182101 0
M  V30 1576 C 153.964 3.44845 -0.132534 0
M  V30 1577 C 153.077 4.15007 -1.19973 0
M  V30 1578 C 152.212 5.28024 -0.580048 0
M  V30 1579 C 151.251 5.9002 -1.62921 0
M  V30 1580 N 150.388 6.94485 -1.03125 0
M  V30 1581 H 155.228 2.50336 -1.61666 0
M  V30 1582 H 152.765 1.2293 -0.807882 0
M  V30 1583 H 154.723 4.16601 0.223454 0
M  V30 1584 H 153.353 3.14403 0.731467 0
M  V30 1585 H 152.405 3.41629 -1.67313 0
M  V30 1586 H 153.717 4.57178 -1.99473 0
M  V30 1587 H 152.871 6.06455 -0.172364 0
M  V30 1588 H 151.61 4.87076 0.246603 0
M  V30 1589 H 150.615 5.10291 -2.04654 0
M  V30 1590 H 151.84 6.33042 -2.45835 0
M  V30 1591 H 149.786 6.55612 -0.225711 0
M  V30 1592 H 149.703 7.35148 -1.76334 0
M  V30 1593 H 150.971 7.7679 -0.649458 0
M  V30 1594 N 155.201 0.870884 1.31352 0
M  V30 1595 C 156.131 0.343096 2.30966 0
M  V30 1596 C 157.112 -0.566507 1.60389 0
M  V30 1597 O 158.297 -0.483336 1.88089 0
M  V30 1598 C 155.427 -0.455487 3.443 0
M  V30 1599 C 154.381 0.361103 4.26474 0
M  V30 1600 C 153.707 -0.563221 5.31725 0
M  V30 1601 C 155.007 1.59566 4.97329 0
M  V30 1602 H 156.701 1.17548 2.75359 0
M  V30 1603 H 154.247 0.566686 1.32381 0
M  V30 1604 H 156.2 -0.83525 4.13039 0
M  V30 1605 H 154.924 -1.32139 2.98675 0
M  V30 1606 H 153.583 0.722825 3.59403 0
M  V30 1607 H 153.231 -1.42643 4.82351 0
M  V30 1608 H 152.931 -0.0207409 5.87596 0
M  V30 1609 H 154.455 -0.939808 6.03324 0
M  V30 1610 H 155.869 1.28728 5.58661 0
M  V30 1611 H 154.266 2.07728 5.63 0
M  V30 1612 H 155.336 2.34798 4.24262 0
M  V30 1613 N 156.679 -1.44442 0.630414 0
M  V30 1614 C 157.925 -2.02351 0.134816 0
M  V30 1615 C 158.258 -1.4947 -1.23986 0
M  V30 1616 O 157.533 -0.678475 -1.82283 0
M  V30 1617 C 157.816 -3.59898 0.120707 0
M  V30 1618 C 157.669 -4.23063 1.52767 0
M  V30 1619 C 158.988 -4.36585 -0.555127 0
M  V30 1620 H 156.107 -0.73527 0.0504646 0
M  V30 1621 H 158.749 -1.72022 0.806751 0
M  V30 1622 H 156.899 -3.85868 -0.451477 0
M  V30 1623 H 158.571 -4.08202 2.14869 0
M  V30 1624 H 156.814 -3.80586 2.08175 0
M  V30 1625 H 157.485 -5.32071 1.46984 0
M  V30 1626 H 159.961 -4.16044 -0.0685429 0
M  V30 1627 H 158.837 -5.46294 -0.534185 0
M  V30 1628 H 159.098 -4.11138 -1.62535 0
M  V30 1629 N 158.157 -0.370918 -1.53173 0
M  V30 1630 C 159.12 0.460778 -2.24521 0
M  V30 1631 C 160.12 1.00536 -1.25496 0
M  V30 1632 O 161.31 0.890266 -1.49733 0
M  V30 1633 C 158.442 1.64457 -2.98608 0
M  V30 1634 H 159.635 -0.163613 -2.99453 0
M  V30 1635 H 157.188 -0.122699 -1.55818 0
M  V30 1636 H 157.923 2.30691 -2.2793 0
M  V30 1637 H 157.708 1.26099 -3.7127 0
M  V30 1638 H 159.198 2.23384 -3.5283 0
M  V30 1639 N 159.635 1.57281 -0.100228 0
M  V30 1640 C 160.881 1.94826 0.563101 0
M  V30 1641 C 161.214 0.982475 1.67514 0
M  V30 1642 O 160.489 0.0164069 1.94493 0
M  V30 1643 C 160.772 3.42453 1.11346 0
M  V30 1644 C 160.625 4.498 0.00612081 0
M  V30 1645 C 161.944 3.91506 2.01024 0
M  V30 1646 H 159.063 0.708428 0.203221 0
M  V30 1647 H 161.705 1.8922 -0.171979 0
M  V30 1648 H 159.855 3.47361 1.7399 0
M  V30 1649 H 161.527 4.57 -0.628357 0
M  V30 1650 H 159.77 4.28756 -0.659581 0
M  V30 1651 H 160.441 5.50306 0.432109 0
M  V30 1652 H 162.917 3.88784 1.48278 0
M  V30 1653 H 161.793 4.95358 2.36457 0
M  V30 1654 H 162.054 3.31099 2.92961 0
M  V30 1655 N 161.113 -0.173488 1.56642 0
M  V30 1656 C 162.524 -0.736155 1.71574 0
M  V30 1657 C 162.875 -1.82888 0.710389 0
M  V30 1658 O 162 -2.16017 -0.1287 0
M  V30 1659 C 162.595 -1.34211 3.11083 0
M  V30 1660 C 161.154 -1.85162 3.27707 0
M  V30 1661 C 160.301 -0.729765 2.67525 0
M  V30 1662 H 163.252 0.0518786 1.58615 0
M  V30 1663 H 163.273 -2.21178 3.09613 0
M  V30 1664 H 162.785 -0.546579 3.84232 0
M  V30 1665 H 160.886 -2.67366 2.59512 0
M  V30 1666 H 160.999 -1.99855 4.35425 0
M  V30 1667 H 159.363 -1.14965 2.27278 0
M  V30 1668 H 160.146 0.0538806 3.43258 0
M  V30 1669 N 162.591 -1.51276 -0.441967 0
M  V30 1670 C 163.541 -1.6864 -1.53442 0
M  V30 1671 C 164.525 -0.540444 -1.51552 0
M  V30 1672 O 165.717 -0.796157 -1.58083 0
M  V30 1673 C 162.846 -1.8106 -2.91672 0
M  V30 1674 C 161.932 -3.01424 -2.98336 0
M  V30 1675 N 162.323 -4.2467 -2.74752 0
M  V30 1676 C 160.621 -3.00584 -3.29493 0
M  V30 1677 C 161.322 -5.05891 -2.87139 0
M  V30 1678 N 160.298 -4.40442 -3.18609 0
M  V30 1679 H 164.1 -2.61598 -1.33954 0
M  V30 1680 H 161.614 -1.4886 -0.6492 0
M  V30 1681 H 163.611 -1.91609 -3.70259 0
M  V30 1682 H 162.271 -0.892795 -3.12185 0
M  V30 1683 H 163.282 -4.53691 -2.49769 0
M  V30 1684 H 159.959 -2.18417 -3.55809 0
M  V30 1685 H 161.349 -6.13983 -2.72899 0
M  V30 1686 N 164.069 0.697108 -1.41344 0
M  V30 1687 C 165.346 1.45154 -1.31109 0
M  V30 1688 C 165.726 2.11009 0.0620449 0
M  V30 1689 O 165.074 2.01571 1.07618 0
M  V30 1690 C 165.284 2.47223 -2.46337 0
M  V30 1691 C 166.632 3.1252 -2.87431 0
M  V30 1692 O 167.656 2.57547 -2.46065 0
M  V30 1693 O 166.515 4.12083 -3.58957 0
M  V30 1694 H 163.609 0.646365 -0.515889 0
M  V30 1695 H 166.155 0.727716 -1.53305 0
M  V30 1696 H 164.927 1.97204 -3.37974 0
M  V30 1697 H 164.55 3.27116 -2.2601 0
M  V30 1698 N 165.547 1.27147 0.931209 0
M  V30 1699 C 166.494 1.09568 2.03134 0
M  V30 1700 C 167.464 -0.00222433 1.661 0
M  V30 1701 O 168.649 0.159439 1.90133 0
M  V30 1702 C 165.789 0.745231 3.36957 0
M  V30 1703 C 164.902 1.92041 3.86968 0
M  V30 1704 C 164.037 1.51216 5.09222 0
M  V30 1705 C 163.076 2.65504 5.5152 0
M  V30 1706 N 162.213 2.25291 6.64972 0
M  V30 1707 H 167.053 2.03708 2.17502 0
M  V30 1708 H 164.59 1.01411 1.06556 0
M  V30 1709 H 166.548 0.522878 4.1391 0
M  V30 1710 H 165.178 -0.159202 3.22407 0
M  V30 1711 H 164.23 2.25541 3.06326 0
M  V30 1712 H 165.542 2.77787 4.1429 0
M  V30 1713 H 164.696 1.25084 5.93666 0
M  V30 1714 H 163.435 0.625749 4.83669 0
M  V30 1715 H 162.44 2.92354 4.65628 0
M  V30 1716 H 163.665 3.54761 5.7907 0
M  V30 1717 H 161.611 1.39098 6.41083 0
M  V30 1718 H 161.528 3.04577 6.91931 0
M  V30 1719 H 162.796 2.02398 7.52765 0
M  V30 1720 N 167.025 -1.13721 1.09112 0
M  V30 1721 C 168.271 -1.85198 0.826414 0
M  V30 1722 C 168.604 -1.83129 -0.646319 0
M  V30 1723 O 167.879 -1.2671 -1.47563 0
M  V30 1724 C 168.162 -3.33507 1.35812 0
M  V30 1725 C 168.015 -3.44108 2.89672 0
M  V30 1726 C 169.334 -4.28838 0.989256 0
M  V30 1727 H 166.453 -0.67243 0.301675 0
M  V30 1728 H 169.095 -1.33499 1.35197 0
M  V30 1729 H 167.245 -3.77666 0.911082 0
M  V30 1730 H 168.917 -3.08684 3.428 0
M  V30 1731 H 167.16 -2.85087 3.26967 0
M  V30 1732 H 167.831 -4.48388 3.21951 0
M  V30 1733 H 170.307 -3.92734 1.37475 0
M  V30 1734 H 169.183 -5.31051 1.38838 0
M  V30 1735 H 169.444 -4.4198 -0.102924 0
M  V30 1736 N 168.503 -0.877838 -1.30888 0
M  V30 1737 C 169.743 -0.499301 -1.98208 0
M  V30 1738 C 170.107 0.932649 -1.67826 0
M  V30 1739 O 171.308 1.41694 -2.28421 0
M  V30 1740 C 169.579 -0.758221 -3.49265 0
M  V30 1741 S 171.138 -0.480719 -4.36159 0
M  V30 1742 H 167.956 -0.186062 -0.686223 0
M  V30 1743 H 170.558 -1.13556 -1.59139 0
M  V30 1744 H 169.262 -1.79903 -3.68867 0
M  V30 1745 H 168.793 -0.109247 -3.93248 0
M  V30 1746 H 170.808 0.683698 -4.91467 0
M  V30 1747 N 169.982 1.44106 -0.638065 0
M  V30 1748 C 171.393 1.85316 -0.226894 0
M  V30 1749 C 171.744 1.53399 1.22324 0
M  V30 1750 O 170.869 0.975463 1.93167 0
M  V30 1751 C 171.464 3.3637 -0.405013 0
M  V30 1752 C 170.023 3.76369 -0.0482902 0
M  V30 1753 C 169.17 2.67921 -0.715108 0
M  V30 1754 H 172.121 1.34474 -0.842764 0
M  V30 1755 H 172.142 3.7885 0.354 0
M  V30 1756 H 171.654 3.59569 -1.46053 0
M  V30 1757 H 169.755 3.58784 1.00522 0
M  V30 1758 H 169.868 4.76856 -0.463187 0
M  V30 1759 H 168.232 2.54259 -0.149753 0
M  V30 1760 H 169.015 2.93951 -1.77335 0
M  V30 1761 N 171.46 0.379036 1.52974 0
M  V30 1762 C 172.393 -0.504932 2.22544 0
M  V30 1763 C 173.371 -1.0723 1.22231 0
M  V30 1764 O 174.555 -1.12589 1.51182 0
M  V30 1765 C 171.682 -1.69794 2.93066 0
M  V30 1766 C 170.728 -1.25678 4.07563 0
M  V30 1767 S 171.561 -0.246852 5.34931 0
M  V30 1768 C 172.717 -1.44588 6.08971 0
M  V30 1769 H 172.95 0.0858666 2.97176 0
M  V30 1770 H 170.483 0.163183 1.53535 0
M  V30 1771 H 172.441 -2.38219 3.34308 0
M  V30 1772 H 171.102 -2.26002 2.18133 0
M  V30 1773 H 170.295 -2.14725 4.5597 0
M  V30 1774 H 169.897 -0.651584 3.6828 0
M  V30 1775 H 172.189 -2.37469 6.34519 0
M  V30 1776 H 173.132 -1.00292 7.00962 0
M  V30 1777 H 173.54 -1.65804 5.39601 0
M  V30 1778 N 172.938 -1.57226 0.108567 0
M  V30 1779 C 174.166 -1.99179 -0.559954 0
M  V30 1780 C 174.581 -0.988022 -1.60884 0
M  V30 1781 O 173.938 0.0205512 -1.82488 0
M  V30 1782 C 173.989 -3.41159 -1.19552 0
M  V30 1783 O 173.71 -4.37694 -0.188577 0
M  V30 1784 C 175.211 -3.98188 -1.94837 0
M  V30 1785 H 172.431 -0.654228 -0.149088 0
M  V30 1786 H 174.975 -2.03598 0.19183 0
M  V30 1787 H 173.13 -3.37711 -1.89815 0
M  V30 1788 H 173.544 -5.20469 -0.649014 0
M  V30 1789 H 175.018 -4.99644 -2.34648 0
M  V30 1790 H 175.495 -3.3675 -2.81951 0
M  V30 1791 H 176.101 -4.0515 -1.2936 0
M  V30 1792 N 174.416 0.165178 -1.56732 0
M  V30 1793 C 175.379 1.18822 -1.95995 0
M  V30 1794 C 176.379 1.3685 -0.84431 0
M  V30 1795 O 177.569 1.34152 -1.11126 0
M  V30 1796 C 174.701 2.5521 -2.26011 0
M  V30 1797 H 175.894 0.851825 -2.87548 0
M  V30 1798 H 173.447 0.407857 -1.50885 0
M  V30 1799 H 174.182 2.93852 -1.37191 0
M  V30 1800 H 173.967 2.43489 -3.07336 0
M  V30 1801 H 175.457 3.28927 -2.57288 0
M  V30 1802 N 175.894 1.51508 0.433938 0
M  V30 1803 C 176.842 1.73646 1.54757 0
M  V30 1804 C 177.836 0.602854 1.5831 0
M  V30 1805 O 179.042 0.784318 1.62014 0
M  V30 1806 H 175.417 0.548718 0.51421 0
M  V30 1807 H 177.388 2.66991 1.33261 0
M  V30 1808 C 176.137 1.88172 2.92381 0
M  V30 1809 H 175.46 2.74808 2.90381 0
M  V30 1810 H 176.9 2.07672 3.6966 0
M  V30 1811 C 175.359 0.64239 3.30719 0
M  V30 1812 O 175.889 -0.201362 4.01195 0
M  V30 1813 N 174.095 0.485489 2.86516 0
M  V30 1814 H 173.642 1.17318 2.29334 0
M  V30 1815 H 173.6 -0.342482 3.12529 0
M  V30 1816 N 177.372 -0.689602 1.41712 0
M  V30 1817 C 178.302 -1.81577 1.46806 0
M  V30 1818 C 179.283 -1.66945 0.326105 0
M  V30 1819 O 180.468 -1.86588 0.538377 0
M  V30 1820 C 177.598 -3.19762 1.35535 0
M  V30 1821 C 176.552 -3.49107 2.47605 0
M  V30 1822 C 175.878 -4.86711 2.21397 0
M  V30 1823 C 177.178 -3.47483 3.89939 0
M  V30 1824 H 178.872 -1.7757 2.41058 0
M  V30 1825 H 176.418 -0.852887 1.16025 0
M  V30 1826 H 178.371 -3.98263 1.3771 0
M  V30 1827 H 177.095 -3.24409 0.377708 0
M  V30 1828 H 175.754 -2.72959 2.44722 0
M  V30 1829 H 175.402 -4.8799 1.21961 0
M  V30 1830 H 175.102 -5.0731 2.96497 0
M  V30 1831 H 176.626 -5.67515 2.25297 0
M  V30 1832 H 178.04 -4.1598 3.94505 0
M  V30 1833 H 176.437 -3.79615 4.64771 0
M  V30 1834 H 177.507 -2.46341 4.17665 0
M  V30 1835 N 178.85 -1.27639 -0.924453 0
M  V30 1836 C 179.797 -1.10644 -2.0255 0
M  V30 1837 C 180.767 -0.00658438 -1.66099 0
M  V30 1838 O 181.952 -0.16952 -1.90045 0
M  V30 1839 C 179.092 -0.76309 -3.36557 0
M  V30 1840 C 178.205 -1.94091 -3.85944 0
M  V30 1841 C 177.34 -1.53914 -5.08413 0
M  V30 1842 C 176.379 -2.68425 -5.50104 0
M  V30 1843 N 175.516 -2.28815 -6.63768 0
M  V30 1844 H 180.356 -2.04858 -2.16419 0
M  V30 1845 H 177.893 -1.01974 -1.06017 0
M  V30 1846 H 179.851 -0.544822 -4.13627 0
M  V30 1847 H 178.481 0.142102 -3.22487 0
M  V30 1848 H 177.533 -2.27162 -3.05125 0
M  V30 1849 H 178.845 -2.7998 -4.12811 0
M  V30 1850 H 177.999 -1.28231 -5.92994 0
M  V30 1851 H 176.738 -0.651391 -4.8333 0
M  V30 1852 H 175.743 -2.94819 -4.64071 0
M  V30 1853 H 176.968 -3.57826 -5.7718 0
M  V30 1854 H 174.914 -1.42495 -6.40337 0
M  V30 1855 H 174.831 -3.08242 -6.90306 0
M  V30 1856 H 176.099 -2.06387 -7.51681 0
M  V30 1857 N 180.328 1.1314 -1.09713 0
M  V30 1858 C 181.553 1.88862 -0.857081 0
M  V30 1859 C 181.978 1.78729 0.586304 0
M  V30 1860 O 181.336 1.13692 1.41222 0
M  V30 1861 C 181.384 3.36325 -1.30069 0
M  V30 1862 O 180.488 4.09815 -0.461007 0
M  V30 1863 H 179.829 0.587108 -0.310162 0
M  V30 1864 H 182.359 1.43129 -1.46203 0
M  V30 1865 H 182.369 3.87157 -1.28738 0
M  V30 1866 H 181.044 3.43017 -2.35185 0
M  V30 1867 H 179.621 3.68986 -0.538888 0
M  V30 1868 N 181.806 0.884767 1.30421 0
M  V30 1869 C 183.055 0.499164 1.95426 0
M  V30 1870 C 183.368 -0.95645 1.70621 0
M  V30 1871 O 184.574 -1.44889 2.29607 0
M  V30 1872 C 183.03 0.84177 3.49917 0
M  V30 1873 C 182.638 2.31514 3.83543 0
M  V30 1874 C 184.382 0.525355 4.21237 0
M  V30 1875 C 182.289 2.59939 5.31212 0
M  V30 1876 H 181.219 0.182944 0.73147 0
M  V30 1877 H 183.87 1.07971 1.48373 0
M  V30 1878 H 182.252 0.190311 3.95542 0
M  V30 1879 H 183.426 3.0109 3.48829 0
M  V30 1880 H 181.741 2.59907 3.25326 0
M  V30 1881 H 184.338 0.714762 5.29901 0
M  V30 1882 H 184.681 -0.535222 4.12845 0
M  V30 1883 H 185.214 1.134 3.81294 0
M  V30 1884 H 181.953 3.64736 5.44654 0
M  V30 1885 H 181.473 1.94972 5.67227 0
M  V30 1886 H 183.152 2.45429 5.98643 0
M  V30 1887 N 183.284 -1.43765 0.645699 0
M  V30 1888 C 184.561 -1.9541 0.0862963 0
M  V30 1889 C 184.941 -1.58725 -1.39175 0
M  V30 1890 O 184.289 -0.868581 -2.11348 0
M  V30 1891 C 184.499 -3.47488 0.324565 0
M  V30 1892 C 185.847 -4.24001 0.225497 0
M  V30 1893 O 186.871 -3.55274 0.256715 0
M  V30 1894 O 185.73 -5.46313 0.142801 0
M  V30 1895 H 182.824 -0.826882 -0.0139483 0
M  V30 1896 H 185.37 -1.53743 0.718415 0
M  V30 1897 H 184.142 -3.67289 1.3496 0
M  V30 1898 H 183.765 -3.96135 -0.340987 0
M  V30 1899 N 184.763 -0.387143 -1.52771 0
M  V30 1900 C 186.04 0.253197 -1.93954 0
M  V30 1901 C 186.42 1.64545 -1.32243 0
M  V30 1902 O 185.768 2.23191 -0.489699 0
M  V30 1903 C 185.978 0.281722 -3.47861 0
M  V30 1904 C 187.326 0.511715 -4.21505 0
M  V30 1905 O 188.35 0.362023 -3.54356 0
M  V30 1906 O 187.209 0.804847 -5.40541 0
M  V30 1907 H 184.303 0.156845 -0.811991 0
M  V30 1908 H 186.849 -0.441494 -1.63856 0
M  V30 1909 H 185.621 -0.693571 -3.85104 0
M  V30 1910 H 185.244 1.02142 -3.84256 0
M  V30 1911 N 186.241 1.57166 -0.116904 0
M  V30 1912 C 187.487 1.95412 0.542405 0
M  V30 1913 C 187.82 1.00019 1.66463 0
M  V30 1914 O 187.095 0.0370346 1.94465 0
M  V30 1915 C 187.378 3.43615 1.07708 0
M  V30 1916 C 187.231 4.49781 -0.0415868 0
M  V30 1917 C 188.55 3.93616 1.96861 0
M  V30 1918 H 185.669 0.710543 0.195696 0
M  V30 1919 H 188.311 1.89027 -0.192038 0
M  V30 1920 H 186.461 3.49187 1.70296 0
M  V30 1921 H 188.133 4.56308 -0.676793 0
M  V30 1922 H 186.376 4.28033 -0.705019 0
M  V30 1923 H 187.047 5.50733 0.373717 0
M  V30 1924 H 189.523 3.90335 1.44146 0
M  V30 1925 H 188.399 4.97838 2.3119 0
M  V30 1926 H 188.66 3.34188 2.89432 0
M  V30 1927 N 187.719 -0.156864 1.56817 0
M  V30 1928 C 189.13 -0.717916 1.72345 0
M  V30 1929 C 189.481 -1.82124 0.729747 0
M  V30 1930 O 188.606 -2.16141 -0.105781 0
M  V30 1931 C 189.201 -1.30904 3.12489 0
M  V30 1932 C 187.76 -1.81676 3.29653 0
M  V30 1933 C 186.907 -0.701349 2.68284 0
M  V30 1934 H 189.858 0.0686989 1.58551 0
M  V30 1935 H 189.879 -2.17882 3.11942 0
M  V30 1936 H 189.391 -0.505796 3.8479 0
M  V30 1937 H 187.492 -2.64598 2.62333 0
M  V30 1938 H 187.605 -1.95226 4.3752 0
M  V30 1939 H 185.969 -1.12548 2.28484 0
M  V30 1940 H 186.752 0.0902846 3.43181 0
M  V30 1941 N 189.197 -1.51736 -0.425897 0
M  V30 1942 C 190.16 -1.73271 -1.50032 0
M  V30 1943 C 191.16 -0.602639 -1.4908 0
M  V30 1944 O 192.35 -0.87033 -1.509 0
M  V30 1945 C 189.482 -1.79969 -2.89523 0
M  V30 1946 H 190.675 -2.69172 -1.32237 0
M  V30 1947 H 188.228 -1.41899 -0.65532 0
M  V30 1948 H 188.963 -0.859241 -3.1271 0
M  V30 1949 H 188.748 -2.62109 -2.91619 0
M  V30 1950 H 190.238 -1.9843 -3.67444 0
M  V30 1951 N 190.675 0.682077 -1.42076 0
M  V30 1952 C 191.905 1.46844 -1.45329 0
M  V30 1953 C 192.313 1.89102 -0.0609328 0
M  V30 1954 O 191.656 1.58238 0.933082 0
M  V30 1955 C 191.718 2.75375 -2.31104 0
M  V30 1956 C 191.382 2.55238 -3.79081 0
M  V30 1957 C 192.379 2.20309 -4.70914 0
M  V30 1958 C 190.064 2.70459 -4.2327 0
M  V30 1959 C 192.058 2.00859 -6.04925 0
M  V30 1960 C 189.745 2.50624 -5.57343 0
M  V30 1961 C 190.743 2.15876 -6.47986 0
M  V30 1962 O 190.431 1.96227 -7.79583 0
M  V30 1963 H 190.163 0.4586 -0.496651 0
M  V30 1964 H 192.717 0.846131 -1.87162 0
M  V30 1965 H 190.947 3.40061 -1.84107 0
M  V30 1966 H 192.636 3.37231 -2.25898 0
M  V30 1967 H 193.402 2.08153 -4.38061 0
M  V30 1968 H 189.281 2.96485 -3.53012 0
M  V30 1969 H 192.825 1.7366 -6.75639 0
M  V30 1970 H 188.722 2.62375 -5.89771 0
M  V30 1971 H 189.49 2.10883 -7.90867 0
M  V30 1972 N 192.153 1.28127 0.917671 0
M  V30 1973 C 193.083 1.14248 2.03641 0
M  V30 1974 C 194.064 0.0412748 1.7005 0
M  V30 1975 O 195.249 0.217566 1.92977 0
M  V30 1976 C 192.379 0.799431 3.37974 0
M  V30 1977 C 191.333 1.85497 3.85713 0
M  V30 1978 C 190.659 1.36565 5.16966 0
M  V30 1979 C 191.959 3.26085 4.08002 0
M  V30 1980 H 193.653 2.07835 2.15511 0
M  V30 1981 H 191.199 1.00064 1.03553 0
M  V30 1982 H 193.152 0.689114 4.15727 0
M  V30 1983 H 191.876 -0.172145 3.26146 0
M  V30 1984 H 190.535 1.95437 3.10161 0
M  V30 1985 H 190.183 0.383253 5.01538 0
M  V30 1986 H 189.883 2.07143 5.49878 0
M  V30 1987 H 191.407 1.26848 5.97279 0
M  V30 1988 H 192.821 3.19089 4.76293 0
M  V30 1989 H 191.218 3.94462 4.52238 0
M  V30 1990 H 192.288 3.70394 3.12948 0
M  V30 1991 N 193.631 -1.12557 1.10312 0
M  V30 1992 C 194.578 -2.18247 0.750781 0
M  V30 1993 C 195.548 -1.63853 -0.272293 0
M  V30 1994 O 196.733 -1.90195 -0.151862 0
M  V30 1995 C 193.873 -3.44591 0.187379 0
M  V30 1996 C 192.986 -4.13046 1.2656 0
M  V30 1997 C 192.121 -5.27034 0.663978 0
M  V30 1998 C 191.16 -5.87353 1.72287 0
M  V30 1999 N 190.297 -6.92757 1.1416 0
M  V30 2000 H 195.137 -2.47732 1.65628 0
M  V30 2001 H 192.674 -1.21629 0.827337 0
M  V30 2002 H 194.632 -4.16904 -0.157148 0
M  V30 2003 H 193.262 -3.15527 -0.681355 0
M  V30 2004 H 192.314 -3.38924 1.72727 0
M  V30 2005 H 193.626 -4.53947 2.06721 0
M  V30 2006 H 192.78 -6.06104 0.268824 0
M  V30 2007 H 191.519 -4.87407 -0.169082 0
M  V30 2008 H 190.524 -5.06971 2.12746 0
M  V30 2009 H 191.749 -6.29051 2.55875 0
M  V30 2010 H 189.695 -6.5517 0.329984 0
M  V30 2011 H 189.612 -7.3225 1.88007 0
M  V30 2012 H 190.88 -7.75658 0.772956 0
M  V30 2013 N 195.109 -0.891671 -1.2995 0
M  V30 2014 C 196.386 -0.433307 -1.9074 0
M  V30 2015 C 196.766 1.08646 -1.80995 0
M  V30 2016 O 196.114 1.92476 -1.23147 0
M  V30 2017 C 196.324 -0.938895 -3.36134 0
M  V30 2018 C 197.672 -0.977829 -4.13187 0
M  V30 2019 O 198.696 -0.886015 -3.45005 0
M  V30 2020 O 197.555 -1.11453 -5.35015 0
M  V30 2021 H 194.649 -0.133699 -0.816121 0
M  V30 2022 H 197.195 -0.981011 -1.38471 0
M  V30 2023 H 195.967 -1.98281 -3.37343 0
M  V30 2024 H 195.59 -0.37074 -3.95868 0
M  V30 2025 N 196.587 1.43421 -0.653314 0
M  V30 2026 C 197.519 2.29071 0.0769134 0
M  V30 2027 C 198.532 1.42513 0.787017 0
M  V30 2028 O 199.721 1.66449 0.644757 0
M  V30 2029 C 196.821 3.19436 1.13199 0
M  V30 2030 C 195.994 4.34533 0.500006 0
M  V30 2031 C 195.053 5.05771 1.45198 0
M  V30 2032 O 194.079 5.61037 0.960538 0
M  V30 2033 N 195.281 5.0928 2.78594 0
M  V30 2034 H 198.046 2.92382 -0.658235 0
M  V30 2035 H 195.607 1.54112 -0.496104 0
M  V30 2036 H 197.599 3.63958 1.76964 0
M  V30 2037 H 196.169 2.57724 1.7691 0
M  V30 2038 H 195.389 3.92925 -0.316738 0
M  V30 2039 H 196.677 5.08766 0.0588345 0
M  V30 2040 H 196.075 4.65751 3.2108 0
M  V30 2041 H 194.632 5.57519 3.37662 0
M  V30 2042 N 198.065 0.39524 1.52563 0
M  V30 2043 C 199.314 -0.186321 2.00838 0
M  V30 2044 C 199.627 -1.47402 1.28577 0
M  V30 2045 O 200.833 -2.13599 1.67593 0
M  V30 2046 C 199.289 -0.382595 3.57861 0
M  V30 2047 C 198.897 0.892202 4.39026 0
M  V30 2048 C 200.641 -0.9202 4.14406 0
M  V30 2049 C 198.548 0.66388 5.87662 0
M  V30 2050 H 197.478 -0.0734041 0.750418 0
M  V30 2051 H 200.129 0.518552 1.76021 0
M  V30 2052 H 198.511 -1.14946 3.7895 0
M  V30 2053 H 199.685 1.66414 4.29701 0
M  V30 2054 H 198 1.35519 3.9373 0
M  V30 2055 H 200.597 -1.10683 5.23119 0
M  V30 2056 H 200.94 -1.89096 3.70875 0
M  V30 2057 H 201.473 -0.212751 3.97231 0
M  V30 2058 H 198.212 1.6058 6.35527 0
M  V30 2059 H 197.732 -0.0690193 5.9976 0
M  V30 2060 H 199.411 0.300699 6.46301 0
M  V30 2061 N 199.544 -1.57102 0.125237 0
M  V30 2062 C 200.491 -2.15641 -0.822655 0
M  V30 2063 C 201.461 -1.08313 -1.25927 0
M  V30 2064 O 202.646 -1.36251 -1.33567 0
M  V30 2065 C 199.786 -2.76504 -2.06494 0
M  V30 2066 C 198.899 -3.98158 -1.67612 0
M  V30 2067 C 198.034 -4.47088 -2.86854 0
M  V30 2068 C 197.073 -5.6126 -2.44242 0
M  V30 2069 N 196.21 -6.04905 -3.56419 0
M  V30 2070 H 201.05 -2.96313 -0.316625 0
M  V30 2071 H 198.587 -1.46388 -0.144588 0
M  V30 2072 H 200.545 -3.09925 -2.79289 0
M  V30 2073 H 199.175 -1.98512 -2.54545 0
M  V30 2074 H 198.227 -3.70858 -0.846661 0
M  V30 2075 H 199.539 -4.80934 -1.32301 0
M  V30 2076 H 198.693 -4.82451 -3.67867 0
M  V30 2077 H 197.432 -3.63275 -3.25396 0
M  V30 2078 H 196.437 -5.25495 -1.61663 0
M  V30 2079 H 197.662 -6.46843 -2.0681 0
M  V30 2080 H 195.608 -5.24032 -3.94623 0
M  V30 2081 H 195.525 -6.82552 -3.25051 0
M  V30 2082 H 196.793 -6.44907 -4.37853 0
M  V30 2083 N 201.022 0.148545 -1.56898 0
M  V30 2084 C 201.972 1.1886 -1.94567 0
M  V30 2085 C 202.956 1.3863 -0.816735 0
M  V30 2086 O 204.148 1.40218 -1.08018 0
M  V30 2087 C 201.277 2.52262 -2.32849 0
M  V30 2088 C 200.363 2.36092 -3.52309 0
M  V30 2089 N 200.754 1.89674 -4.6889 0
M  V30 2090 C 199.052 2.66848 -3.57363 0
M  V30 2091 C 199.753 1.86511 -5.50989 0
M  V30 2092 N 198.729 2.29766 -4.92655 0
M  V30 2093 H 202.531 0.821793 -2.82177 0
M  V30 2094 H 200.045 0.356615 -1.58436 0
M  V30 2095 H 202.042 3.27447 -2.58039 0
M  V30 2096 H 200.702 2.89727 -1.46589 0
M  V30 2097 H 201.713 1.59663 -4.92674 0
M  V30 2098 H 198.39 3.08198 -2.81639 0
M  V30 2099 H 199.78 1.52128 -6.54452 0
M  V30 2100 N 202.5 1.5196 0.417844 0
M  V30 2101 C 203.747 1.65591 1.16559 0
M  V30 2102 C 204.075 0.381565 1.90721 0
M  V30 2103 O 203.33 -0.635156 1.85106 0
M  V30 2104 C 203.629 2.82269 2.19223 0
M  V30 2105 C 203.295 4.20819 1.61933 0
M  V30 2106 C 201.957 4.58506 1.46033 0
M  V30 2107 C 204.309 5.07196 1.20008 0
M  V30 2108 C 201.637 5.80257 0.867113 0
M  V30 2109 C 203.989 6.29544 0.621086 0
M  V30 2110 C 202.653 6.65987 0.449144 0
M  V30 2111 H 201.923 0.605939 0.42652 0
M  V30 2112 H 204.57 1.86041 0.45397 0
M  V30 2113 H 202.875 2.56118 2.96498 0
M  V30 2114 H 204.572 2.90012 2.76936 0
M  V30 2115 H 201.162 3.91116 1.7529 0
M  V30 2116 H 205.346 4.7867 1.31105 0
M  V30 2117 H 200.602 6.07124 0.721833 0
M  V30 2118 H 204.776 6.95805 0.287798 0
M  V30 2119 H 202.403 7.60199 -0.012632 0
M  V30 2120 N 203.978 -0.674533 1.42435 0
M  V30 2121 C 205.225 -1.43459 1.42919 0
M  V30 2122 C 205.553 -1.94446 0.0457312 0
M  V30 2123 O 204.808 -1.7132 -0.94593 0
M  V30 2124 C 205.107 -2.64767 2.40069 0
M  V30 2125 C 204.773 -2.3232 3.86443 0
M  V30 2126 C 203.435 -2.23182 4.26314 0
M  V30 2127 C 205.787 -2.05977 4.78773 0
M  V30 2128 C 203.115 -1.85827 5.56494 0
M  V30 2129 C 205.467 -1.70125 6.09295 0
M  V30 2130 C 204.131 -1.59498 6.48164 0
M  V30 2131 H 203.401 -0.524952 0.522978 0
M  V30 2132 H 206.048 -0.769097 1.75377 0
M  V30 2133 H 204.353 -3.36349 2.00939 0
M  V30 2134 H 206.05 -3.22949 2.37707 0
M  V30 2135 H 202.64 -2.40334 3.54877 0
M  V30 2136 H 206.824 -2.11969 4.48757 0
M  V30 2137 H 202.08 -1.76168 5.8547 0
M  V30 2138 H 206.254 -1.48767 6.80324 0
M  V30 2139 H 203.881 -1.30322 7.48946 0
M  V30 2140 N 205.456 -1.28612 -0.910864 0
M  V30 2141 C 206.366 -1.14643 -2.0468 0
M  V30 2142 C 207.382 -0.0723121 -1.7385 0
M  V30 2143 O 208.558 -0.282178 -1.99413 0
M  V30 2144 C 205.623 -0.812561 -3.37044 0
M  V30 2145 C 204.684 -1.96935 -3.81465 0
M  V30 2146 C 203.917 -1.65131 -5.07511 0
M  V30 2147 O 204.14 -0.567013 -5.67575 0
M  V30 2148 O 203.074 -2.49585 -5.47714 0
M  V30 2149 H 206.9 -2.1001 -2.19384 0
M  V30 2150 H 204.485 -1.07958 -1.03274 0
M  V30 2151 H 206.367 -0.640441 -4.16505 0
M  V30 2152 H 205.042 0.111426 -3.23508 0
M  V30 2153 H 203.949 -2.19664 -3.02818 0
M  V30 2154 H 205.282 -2.87414 -3.99567 0
M  V30 2155 N 206.934 1.1197 -1.10907 0
M  V30 2156 C 207.866 2.17592 -0.720175 0
M  V30 2157 C 208.879 1.60938 0.245495 0
M  V30 2158 O 210.068 1.78476 0.0292245 0
M  V30 2159 C 207.168 3.38873 -0.0427917 0
M  V30 2160 C 206.341 4.25006 -1.03388 0
M  V30 2161 C 205.4 5.24774 -0.387075 0
M  V30 2162 O 204.426 5.59631 -1.03934 0
M  V30 2163 N 205.628 5.74208 0.852407 0
M  V30 2164 H 208.393 2.51567 -1.62893 0
M  V30 2165 H 205.954 1.27439 -0.998543 0
M  V30 2166 H 207.946 4.02703 0.401501 0
M  V30 2167 H 206.516 3.03007 0.768456 0
M  V30 2168 H 205.736 3.57716 -1.65629 0
M  V30 2169 H 207.024 4.79397 -1.70458 0
M  V30 2170 H 206.422 5.48062 1.40161 0
M  V30 2171 H 204.979 6.39901 1.23977 0
M  V30 2172 N 208.412 0.89855 1.29475 0
M  V30 2173 C 209.642 0.538479 1.99459 0
M  V30 2174 C 210.05 -0.880922 1.67441 0
M  V30 2175 O 209.393 -1.59283 0.915127 0
M  V30 2176 C 209.455 0.649564 3.53583 0
M  V30 2177 C 209.119 2.03573 4.09154 0
M  V30 2178 C 210.116 3.00675 4.24135 0
M  V30 2179 C 207.801 2.3448 4.44212 0
M  V30 2180 C 209.795 4.26809 4.73405 0
M  V30 2181 C 207.482 3.60857 4.93179 0
M  V30 2182 C 208.48 4.56836 5.0773 0
M  V30 2183 O 208.168 5.80969 5.55635 0
M  V30 2184 H 207.9 0.205372 0.644048 0
M  V30 2185 H 210.454 1.20958 1.66007 0
M  V30 2186 H 208.684 -0.0785592 3.8662 0
M  V30 2187 H 210.373 0.29881 4.04799 0
M  V30 2188 H 211.139 2.78112 3.97339 0
M  V30 2189 H 207.018 1.60534 4.32145 0
M  V30 2190 H 210.562 5.0173 4.84678 0
M  V30 2191 H 206.459 3.83251 5.19412 0
M  V30 2192 H 207.227 5.83542 5.73952 0
M  V30 2193 N 209.89 -1.43072 0.660911 0
M  V30 2194 C 210.837 -2.30785 -0.0259884 0
M  V30 2195 C 211.807 -1.45184 -0.806888 0
M  V30 2196 O 212.992 -1.74041 -0.781943 0
M  V30 2197 C 210.132 -3.30861 -0.981067 0
M  V30 2198 C 209.245 -4.31558 -0.195458 0
M  V30 2199 C 208.38 -5.18712 -1.14503 0
M  V30 2200 C 207.419 -6.11097 -0.350299 0
M  V30 2201 N 206.556 -6.90849 -1.25186 0
M  V30 2202 H 211.396 -2.88975 0.727846 0
M  V30 2203 H 208.933 -1.42353 0.370682 0
M  V30 2204 H 210.891 -3.87399 -1.54849 0
M  V30 2205 H 209.521 -2.74304 -1.70169 0
M  V30 2206 H 208.573 -3.77252 0.488374 0
M  V30 2207 H 209.885 -4.9701 0.422176 0
M  V30 2208 H 209.039 -5.79914 -1.78284 0
M  V30 2209 H 207.778 -4.53404 -1.79656 0
M  V30 2210 H 206.783 -5.48976 0.300808 0
M  V30 2211 H 208.008 -6.7845 0.296941 0
M  V30 2212 H 205.954 -6.28182 -1.89005 0
M  V30 2213 H 205.871 -7.52854 -0.688971 0
M  V30 2214 H 207.139 -7.5655 -1.87757 0
M  V30 2215 N 211.368 -0.403325 -1.52352 0
M  V30 2216 C 212.331 0.413051 -2.25447 0
M  V30 2217 C 213.331 0.978513 -1.276 0
M  V30 2218 O 214.521 0.858305 -1.51587 0
M  V30 2219 C 211.653 1.58087 -3.02029 0
M  V30 2220 H 212.846 -0.227094 -2.99039 0
M  V30 2221 H 210.399 -0.155722 -1.55522 0
M  V30 2222 H 211.134 2.25804 -2.32772 0
M  V30 2223 H 210.919 1.18195 -3.73861 0
M  V30 2224 H 212.409 2.1585 -3.57489 0
M  V30 2225 N 212.846 1.57033 -0.133567 0
M  V30 2226 C 213.776 2.1909 0.807567 0
M  V30 2227 C 214.757 1.13517 1.26681 0
M  V30 2228 O 215.942 1.41809 1.32679 0
M  V30 2229 C 213.072 2.80188 2.05212 0
M  V30 2230 C 212.026 3.91471 1.73015 0
M  V30 2231 C 211.352 4.39443 3.04622 0
M  V30 2232 C 212.652 5.12886 0.987168 0
M  V30 2233 H 214.346 2.97988 0.290403 0
M  V30 2234 H 211.892 1.43335 0.138239 0
M  V30 2235 H 213.845 3.22264 2.71521 0
M  V30 2236 H 212.569 1.98601 2.59278 0
M  V30 2237 H 211.228 3.49993 1.0909 0
M  V30 2238 H 210.876 3.54695 3.56651 0
M  V30 2239 H 210.576 5.14495 2.83847 0
M  V30 2240 H 212.1 4.8418 3.72024 0
M  V30 2241 H 213.514 5.51891 1.55208 0
M  V30 2242 H 211.911 5.93615 0.87985 0
M  V30 2243 H 212.981 4.84894 -0.0235286 0
M  V30 2244 N 214.325 -0.140222 1.56975 0
M  V30 2245 C 215.235 -1.19223 2.02047 0
M  V30 2246 C 216.251 -1.46612 0.937062 0
M  V30 2247 O 217.427 -1.58148 1.24704 0
M  V30 2248 C 214.492 -2.50414 2.39778 0
M  V30 2249 C 213.553 -2.30612 3.621 0
M  V30 2250 C 212.786 -3.55547 3.98023 0
M  V30 2251 O 213.009 -4.62004 3.34528 0
M  V30 2252 O 211.943 -3.47808 4.91237 0
M  V30 2253 H 215.769 -0.839559 2.91865 0
M  V30 2254 H 213.354 -0.349453 1.45256 0
M  V30 2255 H 215.236 -3.27747 2.64877 0
M  V30 2256 H 213.911 -2.85198 1.53114 0
M  V30 2257 H 212.818 -1.51207 3.4218 0
M  V30 2258 H 214.151 -2.00741 4.49404 0
M  V30 2259 N 215.803 -1.52179 -0.40978 0
M  V30 2260 C 216.75 -1.75475 -1.49924 0
M  V30 2261 C 217.72 -0.597175 -1.54994 0
M  V30 2262 O 218.905 -0.834655 -1.71575 0
M  V30 2263 C 216.045 -1.9107 -2.87378 0
M  V30 2264 C 215.158 -3.18717 -2.91622 0
M  V30 2265 C 214.293 -3.24747 -4.20372 0
M  V30 2266 C 213.332 -4.46598 -4.18588 0
M  V30 2267 N 212.469 -4.50025 -5.38908 0
M  V30 2268 H 217.309 -2.68458 -1.29361 0
M  V30 2269 H 214.846 -1.33024 -0.627934 0
M  V30 2270 H 216.804 -1.98096 -3.6717 0
M  V30 2271 H 215.434 -1.01469 -3.06437 0
M  V30 2272 H 214.486 -3.20866 -2.04326 0
M  V30 2273 H 215.798 -4.08544 -2.86169 0
M  V30 2274 H 214.952 -3.30841 -5.08556 0
M  V30 2275 H 213.691 -2.32857 -4.28519 0
M  V30 2276 H 212.696 -4.40652 -3.28794 0
M  V30 2277 H 213.921 -5.39783 -4.12081 0
M  V30 2278 H 211.867 -3.61017 -5.47725 0
M  V30 2279 H 211.784 -5.33697 -5.35447 0
M  V30 2280 H 213.052 -4.60347 -6.29048 0
M  V30 2281 N 217.281 0.66697 -1.42791 0
M  V30 2282 C 218.529 1.42417 -1.43394 0
M  V30 2283 C 218.85 1.94925 -0.0542373 0
M  V30 2284 O 218.12 1.73564 0.908415 0
M  V30 2285 H 216.7 0.528515 -0.527902 0
M  V30 2286 H 219.362 0.787562 -1.78279 0
M  V30 2287 H 218.458 2.27333 -2.13837 0
M  V30 2288 N 218.759 1.29093 0.90403 0
M  V30 2289 C 219.706 1.13853 2.00764 0
M  V30 2290 C 220.676 0.0330084 1.66067 0
M  V30 2291 O 221.861 0.199733 1.89752 0
M  V30 2292 C 219.001 0.816537 3.35301 0
M  V30 2293 C 218.114 2.00206 3.82807 0
M  V30 2294 C 217.249 1.61983 5.059 0
M  V30 2295 C 216.288 2.77143 5.45764 0
M  V30 2296 N 215.425 2.39346 6.60044 0
M  V30 2297 H 220.265 2.08276 2.13132 0
M  V30 2298 H 217.802 1.03648 1.04381 0
M  V30 2299 H 219.76 0.610557 4.12708 0
M  V30 2300 H 218.39 -0.090779 3.22672 0
M  V30 2301 H 217.442 2.31988 3.01473 0
M  V30 2302 H 218.754 2.86512 4.08304 0
M  V30 2303 H 217.908 1.37649 5.90879 0
M  V30 2304 H 216.647 0.728202 4.82233 0
M  V30 2305 H 215.652 3.02165 4.59322 0
M  V30 2306 H 216.877 3.66964 5.71414 0
M  V30 2307 H 214.823 1.52665 6.37989 0
M  V30 2308 H 214.74 3.19185 6.85315 0
M  V30 2309 H 216.008 2.1832 7.48303 0
M  V30 2310 N 220.237 -1.11381 1.11499 0
M  V30 2311 C 221.483 -1.83597 0.875423 0
M  V30 2312 C 221.838 -1.83048 -0.592555 0
M  V30 2313 O 221.131 -1.27304 -1.43193 0
M  V30 2314 C 221.325 -3.30026 1.37177 0
M  V30 2315 C 221.154 -3.44837 2.88647 0
M  V30 2316 C 219.924 -3.57825 3.56776 0
M  V30 2317 C 222.122 -3.3907 3.86699 0
M  V30 2318 N 220.104 -3.61113 4.96458 0
M  V30 2319 C 221.475 -3.48986 5.12454 0
M  V30 2320 C 223.53 -3.22605 3.7925 0
M  V30 2321 C 222.233 -3.44135 6.31636 0
M  V30 2322 C 224.259 -3.19072 4.97943 0
M  V30 2323 C 223.621 -3.29559 6.22551 0
M  V30 2324 H 219.72 -0.687044 0.37349 0
M  V30 2325 H 222.304 -1.33265 1.41946 0
M  V30 2326 H 220.475 -3.78874 0.854919 0
M  V30 2327 H 222.207 -3.90153 1.07529 0
M  V30 2328 H 218.962 -3.60414 3.07244 0
M  V30 2329 H 219.386 -3.66394 5.69284 0
M  V30 2330 H 224.028 -3.13382 2.83816 0
M  V30 2331 H 221.746 -3.52126 7.27347 0
M  V30 2332 H 225.332 -3.07498 4.93899 0
M  V30 2333 H 224.212 -3.26815 7.12855 0
M  V30 2334 N 221.715 -0.905404 -1.28997 0
M  V30 2335 C 222.961 -0.535039 -1.95615 0
M  V30 2336 C 223.294 0.917404 -1.71165 0
M  V30 2337 O 222.569 1.65123 -1.02785 0
M  V30 2338 C 222.852 -0.834918 -3.50287 0
M  V30 2339 C 222.705 -2.33948 -3.84172 0
M  V30 2340 C 224.024 -0.325318 -4.38896 0
M  V30 2341 H 221.143 -0.195861 -0.710498 0
M  V30 2342 H 223.785 -1.13313 -1.52513 0
M  V30 2343 H 221.935 -0.325904 -3.87131 0
M  V30 2344 H 223.607 -2.91847 -3.57243 0
M  V30 2345 H 221.85 -2.79789 -3.31513 0
M  V30 2346 H 222.521 -2.49987 -4.92149 0
M  V30 2347 H 224.997 -0.761256 -4.09077 0
M  V30 2348 H 223.873 -0.564295 -5.45992 0
M  V30 2349 H 224.134 0.774144 -4.35269 0
M  V30 2350 N 223.193 1.4272 -0.668489 0
M  V30 2351 C 224.14 2.30796 0.0137489 0
M  V30 2352 C 225.11 1.4561 0.799177 0
M  V30 2353 O 226.295 1.74453 0.772702 0
M  V30 2354 C 223.435 3.31377 0.963507 0
M  V30 2355 C 222.548 4.31655 0.172569 0
M  V30 2356 C 221.683 5.19312 1.1175 0
M  V30 2357 C 220.722 6.11274 0.317886 0
M  V30 2358 N 219.859 6.91504 1.2152 0
M  V30 2359 H 224.699 2.88585 -0.743161 0
M  V30 2360 H 222.236 1.42154 -0.378226 0
M  V30 2361 H 224.194 3.88214 1.52792 0
M  V30 2362 H 222.824 2.75202 1.68712 0
M  V30 2363 H 221.876 3.76988 -0.508374 0
M  V30 2364 H 223.188 4.96779 -0.448527 0
M  V30 2365 H 222.342 5.80851 1.75206 0
M  V30 2366 H 221.081 4.5435 1.77249 0
M  V30 2367 H 220.086 5.48809 -0.329918 0
M  V30 2368 H 221.311 6.78283 -0.332917 0
M  V30 2369 H 219.257 6.29176 1.85671 0
M  V30 2370 H 219.174 7.53209 0.649036 0
M  V30 2371 H 220.442 7.57535 1.83742 0
M  V30 2372 N 224.671 0.411399 1.52136 0
M  V30 2373 C 225.917 -0.163888 2.02137 0
M  V30 2374 C 226.25 -1.44597 1.29636 0
M  V30 2375 O 225.525 -1.90272 0.403353 0
M  V30 2376 C 225.808 -0.40927 3.57767 0
M  V30 2377 C 225.661 0.889643 4.40914 0
M  V30 2378 C 226.98 -1.19042 4.23694 0
M  V30 2379 H 224.099 -0.0580896 0.734707 0
M  V30 2380 H 226.741 0.54531 1.82007 0
M  V30 2381 H 224.891 -1.0134 3.7505 0
M  V30 2382 H 226.563 1.52575 4.35337 0
M  V30 2383 H 224.806 1.50011 4.07037 0
M  V30 2384 H 225.477 0.672314 5.4789 0
M  V30 2385 H 227.953 -0.678942 4.10524 0
M  V30 2386 H 226.829 -1.33086 5.32522 0
M  V30 2387 H 227.09 -2.21166 3.82803 0
M  V30 2388 N 226.149 -1.5696 0.141893 0
M  V30 2389 C 227.059 -2.20066 -0.812905 0
M  V30 2390 C 228.075 -1.18344 -1.27557 0
M  V30 2391 O 229.251 -1.50902 -1.33381 0
M  V30 2392 C 226.316 -2.80583 -2.03652 0
M  V30 2393 C 225.377 -3.97414 -1.62359 0
M  V30 2394 C 224.61 -4.55036 -2.78887 0
M  V30 2395 O 224.833 -4.11538 -3.94959 0
M  V30 2396 O 223.767 -5.45376 -2.54653 0
M  V30 2397 H 227.593 -3.02157 -0.305746 0
M  V30 2398 H 225.178 -1.49159 -0.0848799 0
M  V30 2399 H 227.06 -3.19067 -2.75272 0
M  V30 2400 H 225.735 -2.01508 -2.5333 0
M  V30 2401 H 224.642 -3.63656 -0.877775 0
M  V30 2402 H 225.975 -4.77994 -1.17401 0
M  V30 2403 N 227.627 0.131896 -1.57047 0
M  V30 2404 C 228.875 0.840269 -1.83804 0
M  V30 2405 C 229.196 1.81017 -0.72512 0
M  V30 2406 O 228.466 1.94272 0.251995 0
M  V30 2407 H 227.046 0.313294 -0.678127 0
M  V30 2408 H 229.708 0.122294 -1.94516 0
M  V30 2409 H 228.804 1.39335 -2.79271 0
M  V30 2410 N 229.106 1.52395 0.401703 0
M  V30 2411 C 230.352 1.68019 1.14635 0
M  V30 2412 C 230.707 0.408722 1.88009 0
M  V30 2413 O 230 -0.597133 1.82057 0
M  V30 2414 C 230.194 2.84578 2.16217 0
M  V30 2415 C 230.023 4.22938 1.5282 0
M  V30 2416 C 228.793 4.88352 1.29772 0
M  V30 2417 C 230.991 5.04778 0.985094 0
M  V30 2418 N 228.973 6.10726 0.623455 0
M  V30 2419 C 230.344 6.1845 0.438172 0
M  V30 2420 C 232.399 4.90057 0.880275 0
M  V30 2421 C 231.102 7.19013 -0.203306 0
M  V30 2422 C 233.128 5.9086 0.252639 0
M  V30 2423 C 232.49 7.03829 -0.283573 0
M  V30 2424 H 228.589 0.668413 0.405892 0
M  V30 2425 H 231.173 1.89717 0.437674 0
M  V30 2426 H 229.344 2.64483 2.84435 0
M  V30 2427 H 231.076 2.89202 2.83098 0
M  V30 2428 H 227.831 4.46846 1.56926 0
M  V30 2429 H 228.255 6.76323 0.302733 0
M  V30 2430 H 232.897 4.02938 1.28065 0
M  V30 2431 H 230.615 8.05751 -0.615726 0
M  V30 2432 H 234.201 5.81543 0.172954 0
M  V30 2433 H 233.081 7.80493 -0.761575 0
M  V30 2434 N 230.584 -0.659388 1.43143 0
M  V30 2435 C 231.861 -1.41627 1.34912 0
M  V30 2436 C 232.241 -2.11099 -0.00607785 0
M  V30 2437 O 231.589 -2.04353 -1.02236 0
M  V30 2438 C 231.799 -2.40604 2.52805 0
M  V30 2439 C 233.147 -3.04789 2.95616 0
M  V30 2440 O 234.171 -2.50932 2.52807 0
M  V30 2441 O 233.03 -4.02421 3.69756 0
M  V30 2442 H 230.124 -0.63246 0.532844 0
M  V30 2443 H 232.67 -0.686814 1.5518 0
M  V30 2444 H 231.442 -1.88174 3.43083 0
M  V30 2445 H 231.065 -3.21009 2.34604 0
M  V30 2446 N 232.062 -1.29571 -0.897171 0
M  V30 2447 C 233.31 -1.17456 -1.64464 0
M  V30 2448 C 233.631 0.273698 -1.9307 0
M  V30 2449 O 232.901 1.18684 -1.55855 0
M  V30 2450 H 231.481 -0.431706 -0.609622 0
M  V30 2451 H 234.143 -1.62531 -1.07562 0
M  V30 2452 H 233.239 -1.72648 -2.59998 0
M  V30 2453 N 233.54 1.10788 -1.12088 0
M  V30 2454 C 234.789 1.82036 -0.868659 0
M  V30 2455 C 235.102 1.85929 0.607426 0
M  V30 2456 O 236.308 2.53346 0.97613 0
M  V30 2457 C 234.764 3.26951 -1.50435 0
M  V30 2458 C 234.372 3.31367 -3.01496 0
M  V30 2459 C 236.116 4.03053 -1.33225 0
M  V30 2460 C 234.023 4.7072 -3.58017 0
M  V30 2461 H 232.953 0.682108 -0.321318 0
M  V30 2462 H 235.604 1.24618 -1.34694 0
M  V30 2463 H 233.986 3.84343 -0.953735 0
M  V30 2464 H 235.16 2.83819 -3.6302 0
M  V30 2465 H 233.475 2.6875 -3.18061 0
M  V30 2466 H 236.072 5.05981 -1.72878 0
M  V30 2467 H 236.415 4.15387 -0.275529 0
M  V30 2468 H 236.948 3.52066 -1.85188 0
M  V30 2469 H 233.687 4.63585 -4.63432 0
M  V30 2470 H 233.207 5.1865 -3.01268 0
M  V30 2471 H 234.886 5.39685 -3.56859 0
M  V30 2472 N 235.018 0.912232 1.28515 0
M  V30 2473 C 236.295 0.463597 1.90027 0
M  V30 2474 C 236.675 -1.05753 1.82701 0
M  V30 2475 O 236.023 -1.90492 1.26194 0
M  V30 2476 C 236.233 0.992253 3.34597 0
M  V30 2477 C 237.581 1.04344 4.11579 0
M  V30 2478 O 238.605 0.94079 3.43551 0
M  V30 2479 O 237.464 1.1995 5.33174 0
M  V30 2480 H 234.558 0.146666 0.813891 0
M  V30 2481 H 237.104 1.00292 1.36893 0
M  V30 2482 H 235.876 2.03623 3.34146 0
M  V30 2483 H 235.499 0.433672 3.95228 0
M  V30 2484 N 236.496 -1.42363 0.676048 0
M  V30 2485 C 237.459 -2.29199 0.00766941 0
M  V30 2486 C 238.459 -1.43389 -0.727745 0
M  V30 2487 O 239.649 -1.64764 -0.56556 0
M  V30 2488 C 236.781 -3.2591 -0.999785 0
M  V30 2489 H 237.974 -2.89794 0.771988 0
M  V30 2490 H 235.527 -1.50024 0.438468 0
M  V30 2491 H 236.262 -2.70256 -1.79255 0
M  V30 2492 H 236.047 -3.89202 -0.475829 0
M  V30 2493 H 237.537 -3.91028 -1.46583 0
M  V30 2494 N 237.974 -0.419461 -1.51915 0
M  V30 2495 C 238.937 0.389116 -2.25873 0
M  V30 2496 C 239.937 0.964924 -1.28631 0
M  V30 2497 O 241.127 0.842179 -1.52489 0
M  V30 2498 C 238.259 1.54874 -3.03689 0
M  V30 2499 H 239.452 -0.258799 -2.98781 0
M  V30 2500 H 237.005 -0.172209 -1.55348 0
M  V30 2501 H 237.74 2.23323 -2.35154 0
M  V30 2502 H 237.525 1.14223 -3.75094 0
M  V30 2503 H 239.015 2.12046 -3.59759 0
M  V30 2504 N 239.452 1.56882 -0.150215 0
M  V30 2505 C 240.402 2.13501 0.800071 0
M  V30 2506 C 241.386 1.06368 1.20726 0
M  V30 2507 O 242.578 1.32538 1.17314 0
M  V30 2508 C 239.707 2.76271 2.03787 0
M  V30 2509 C 238.793 3.90533 1.65364 0
M  V30 2510 N 239.184 4.96259 0.977794 0
M  V30 2511 C 237.482 4.013 1.94613 0
M  V30 2512 C 238.183 5.76286 0.791794 0
M  V30 2513 N 237.159 5.27163 1.32666 0
M  V30 2514 H 240.961 2.92615 0.274517 0
M  V30 2515 H 238.475 1.62319 0.0512144 0
M  V30 2516 H 240.472 3.15197 2.72867 0
M  V30 2517 H 239.132 1.98631 2.56857 0
M  V30 2518 H 240.143 5.13953 0.638193 0
M  V30 2519 H 236.82 3.3474 2.4951 0
M  V30 2520 H 238.21 6.71401 0.258894 0
M  V30 2521 N 240.93 -0.123565 1.57115 0
M  V30 2522 C 241.877 -1.15177 2.00007 0
M  V30 2523 C 242.847 -1.41403 0.871454 0
M  V30 2524 O 244.032 -1.53346 1.13533 0
M  V30 2525 C 241.172 -2.47436 2.40561 0
M  V30 2526 C 240.285 -2.28184 3.66819 0
M  V30 2527 C 239.42 -3.53641 3.96373 0
M  V30 2528 C 238.459 -3.29528 5.15827 0
M  V30 2529 N 237.596 -4.47175 5.41275 0
M  V30 2530 H 242.436 -0.779008 2.87638 0
M  V30 2531 H 239.973 -0.373166 1.42288 0
M  V30 2532 H 241.931 -3.24584 2.62109 0
M  V30 2533 H 240.561 -2.82614 1.55978 0
M  V30 2534 H 239.613 -1.41976 3.52912 0
M  V30 2535 H 240.925 -2.0634 4.5412 0
M  V30 2536 H 240.079 -4.39209 4.18545 0
M  V30 2537 H 238.818 -3.78512 3.07538 0
M  V30 2538 H 237.823 -2.42349 4.93505 0
M  V30 2539 H 239.048 -3.06031 6.06236 0
M  V30 2540 H 236.994 -4.72175 4.55397 0
M  V30 2541 H 236.911 -4.28419 6.22891 0
M  V30 2542 H 238.179 -5.3389 5.67963 0
M  V30 2543 N 242.408 -1.52605 -0.393616 0
M  V30 2544 C 243.318 -1.79971 -1.50492 0
M  V30 2545 C 244.334 -0.686181 -1.59899 0
M  V30 2546 O 245.51 -0.973274 -1.76322 0
M  V30 2547 C 242.575 -1.95867 -2.86072 0
M  V30 2548 C 241.636 -3.19781 -2.86424 0
M  V30 2549 C 240.869 -3.34909 -4.15538 0
M  V30 2550 O 241.092 -2.54948 -5.10253 0
M  V30 2551 O 240.026 -4.28141 -4.23059 0
M  V30 2552 H 243.852 -2.74328 -1.30299 0
M  V30 2553 H 241.437 -1.3764 -0.581005 0
M  V30 2554 H 243.319 -2.08056 -3.66457 0
M  V30 2555 H 241.994 -1.04699 -3.063 0
M  V30 2556 H 240.901 -3.13038 -2.04837 0
M  V30 2557 H 242.234 -4.1078 -2.71147 0
M  V30 2558 N 243.887 0.651787 -1.4349 0
M  V30 2559 C 245.136 1.40754 -1.44469 0
M  V30 2560 C 245.449 1.95463 -0.0731845 0
M  V30 2561 O 246.655 2.71471 0.0395721 0
M  V30 2562 C 245.111 2.54735 -2.5424 0
M  V30 2563 C 244.719 2.06628 -3.97504 0
M  V30 2564 C 246.463 3.32092 -2.64414 0
M  V30 2565 C 244.37 3.17829 -4.98737 0
M  V30 2566 H 243.3 0.528862 -0.53742 0
M  V30 2567 H 245.951 0.703365 -1.69485 0
M  V30 2568 H 244.333 3.2763 -2.22428 0
M  V30 2569 H 245.507 1.40734 -4.38783 0
M  V30 2570 H 243.822 1.42146 -3.91387 0
M  V30 2571 H 246.419 4.14952 -3.37223 0
M  V30 2572 H 246.762 3.80217 -1.69532 0
M  V30 2573 H 247.295 2.66279 -2.95534 0
M  V30 2574 H 244.034 2.74671 -5.95177 0
M  V30 2575 H 243.554 3.82429 -4.62069 0
M  V30 2576 H 245.233 3.82937 -5.21505 0
M  V30 2577 N 245.365 1.30045 0.890287 0
M  V30 2578 C 246.593 1.21472 1.67487 0
M  V30 2579 C 247.008 -0.223241 1.87476 0
M  V30 2580 O 246.365 -1.14828 1.41847 0
M  V30 2581 C 246.416 1.93394 3.05419 0
M  V30 2582 O 246.137 3.31576 2.86337 0
M  V30 2583 C 247.638 1.91414 3.99844 0
M  V30 2584 H 244.858 0.420604 0.522813 0
M  V30 2585 H 247.402 1.7158 1.11268 0
M  V30 2586 H 245.557 1.47099 3.58386 0
M  V30 2587 H 245.971 3.67929 3.73802 0
M  V30 2588 H 247.445 2.46285 4.94012 0
M  V30 2589 H 247.922 0.891833 4.3005 0
M  V30 2590 H 248.528 2.37496 3.52811 0
M  V30 2591 N 246.843 -1.10192 1.12674 0
M  V30 2592 C 248.12 -1.78717 0.794965 0
M  V30 2593 C 248.5 -1.98628 -0.714853 0
M  V30 2594 O 247.848 -1.58135 -1.64941 0
M  V30 2595 C 248.058 -3.11546 1.5729 0
M  V30 2596 C 249.406 -3.86382 1.76052 0
M  V30 2597 O 250.43 -3.21274 1.53823 0
M  V30 2598 O 249.289 -5.03246 2.13087 0
M  V30 2599 H 246.383 -0.774702 0.289423 0
M  V30 2600 H 248.929 -1.16819 1.23091 0
M  V30 2601 H 247.701 -2.92489 2.59935 0
M  V30 2602 H 247.324 -3.81164 1.13137 0
M  V30 2603 N 248.321 -0.919034 -1.28029 0
M  V30 2604 C 249.569 -0.553838 -1.94363 0
M  V30 2605 C 249.89 0.906357 -1.72656 0
M  V30 2606 O 249.16 1.64143 -1.0693 0
M  V30 2607 H 247.74 -0.201834 -0.719216 0
M  V30 2608 H 250.402 -1.16954 -1.55909 0
M  V30 2609 H 249.498 -0.752758 -3.02886 0
M  V30 2610 N 249.799 1.42003 -0.683588 0
M  V30 2611 C 251.045 2.01712 -0.209825 0
M  V30 2612 C 251.378 1.53968 1.18353 0
M  V30 2613 O 250.653 0.745661 1.79639 0
M  V30 2614 C 250.936 3.59202 -0.254197 0
M  V30 2615 C 250.789 4.17102 -1.68363 0
M  V30 2616 C 252.108 4.38344 0.392709 0
M  V30 2617 H 249.227 0.732891 -0.0777189 0
M  V30 2618 H 251.869 1.68909 -0.87004 0
M  V30 2619 H 250.019 3.87278 0.307954 0
M  V30 2620 H 251.691 3.99946 -2.29871 0
M  V30 2621 H 249.934 3.72597 -2.22157 0
M  V30 2622 H 250.605 5.26249 -1.6663 0
M  V30 2623 H 253.081 4.16011 -0.0859162 0
M  V30 2624 H 251.957 5.47901 0.331063 0
M  V30 2625 H 252.218 4.16887 1.47164 0
M  V30 2626 N 251.277 0.427512 1.51691 0
M  V30 2627 C 252.24 -0.377132 2.26076 0
M  V30 2628 C 253.24 -0.958089 1.29141 0
M  V30 2629 O 254.43 -0.83408 1.52934 0
M  V30 2630 C 251.562 -1.53262 3.04506 0
M  V30 2631 H 252.755 0.27464 2.9864 0
M  V30 2632 H 250.308 0.180445 1.55255 0
M  V30 2633 H 251.043 -2.22072 2.36335 0
M  V30 2634 H 250.828 -1.12232 3.75694 0
M  V30 2635 H 252.318 -2.10135 3.60878 0
M  V30 2636 N 252.755 -1.56801 0.158532 0
M  V30 2637 C 253.703 -2.18638 -0.793729 0
M  V30 2638 C 254.697 -1.14669 -1.24689 0
M  V30 2639 O 255.903 -1.32895 -1.21403 0
M  V30 2640 H 252.278 -0.700226 -0.274204 0
M  V30 2641 H 254.249 -2.97367 -0.248095 0
M  V30 2642 C 252.998 -2.83139 -2.0181 0
M  V30 2643 H 252.321 -3.62863 -1.67841 0
M  V30 2644 H 253.761 -3.29894 -2.66357 0
M  V30 2645 C 252.22 -1.82244 -2.83353 0
M  V30 2646 O 252.75 -1.3 -3.80083 0
M  V30 2647 N 250.956 -1.51288 -2.48114 0
M  V30 2648 H 250.503 -1.93964 -1.69516 0
M  V30 2649 H 250.461 -0.840296 -3.02963 0
M  V30 2650 N 254.233 0.115231 -1.57178 0
M  V30 2651 C 255.48 0.822351 -1.8505 0
M  V30 2652 C 255.808 1.79701 -0.744168 0
M  V30 2653 O 255.063 1.93909 0.26414 0
M  V30 2654 C 255.362 1.60324 -3.19423 0
M  V30 2655 C 255.028 0.772536 -4.44233 0
M  V30 2656 C 253.69 0.543468 -4.78121 0
M  V30 2657 C 256.042 0.193746 -5.2084 0
M  V30 2658 C 253.37 -0.274583 -5.86057 0
M  V30 2659 C 255.722 -0.611517 -6.29637 0
M  V30 2660 C 254.386 -0.850867 -6.62055 0
M  V30 2661 H 253.656 0.30092 -0.677147 0
M  V30 2662 H 256.303 0.0845802 -1.91313 0
M  V30 2663 H 254.608 2.41203 -3.08753 0
M  V30 2664 H 256.305 2.1544 -3.38211 0
M  V30 2665 H 252.895 0.96117 -4.17683 0
M  V30 2666 H 257.079 0.357926 -4.95008 0
M  V30 2667 H 252.335 -0.469206 -6.09597 0
M  V30 2668 H 256.509 -1.06697 -6.88178 0
M  V30 2669 H 254.136 -1.48657 -7.45523 0
M  V30 2670 N 255.711 1.52812 0.385517 0
M  V30 2671 C 256.658 1.77838 1.47113 0
M  V30 2672 C 257.628 0.621757 1.54024 0
M  V30 2673 O 258.813 0.861846 1.70226 0
M  V30 2674 C 255.953 1.95618 2.84302 0
M  V30 2675 C 255.066 3.23316 2.86515 0
M  V30 2676 C 254.201 3.31394 4.15152 0
M  V30 2677 C 253.24 4.53201 4.1143 0
M  V30 2678 N 252.377 4.58542 5.3168 0
M  V30 2679 H 257.217 2.70482 1.25073 0
M  V30 2680 H 254.754 1.34006 0.606692 0
M  V30 2681 H 256.712 2.03912 3.63972 0
M  V30 2682 H 255.342 1.06331 3.04784 0
M  V30 2683 H 254.394 3.24076 1.99195 0
M  V30 2684 H 255.706 4.13045 2.79634 0
M  V30 2685 H 254.86 3.3889 5.03228 0
M  V30 2686 H 253.599 2.39645 4.24761 0
M  V30 2687 H 252.604 4.45827 3.21742 0
M  V30 2688 H 253.829 5.46271 4.03442 0
M  V30 2689 H 251.775 3.69686 5.41912 0
M  V30 2690 H 251.692 5.42148 5.26889 0
M  V30 2691 H 252.96 4.70296 6.21644 0
M  V30 2692 N 257.189 -0.644168 1.43834 0
M  V30 2693 C 258.136 -1.75671 1.49694 0
M  V30 2694 C 259.106 -1.6246 0.345809 0
M  V30 2695 O 260.291 -1.82573 0.554234 0
M  V30 2696 C 257.431 -3.13867 1.43463 0
M  V30 2697 C 256.544 -3.38147 2.6885 0
M  V30 2698 C 255.679 -4.66241 2.54544 0
M  V30 2699 C 254.718 -4.83657 3.75157 0
M  V30 2700 N 253.855 -6.03016 3.59605 0
M  V30 2701 H 258.695 -1.69998 2.44754 0
M  V30 2702 H 256.232 -0.829458 1.21484 0
M  V30 2703 H 258.19 -3.9377 1.37843 0
M  V30 2704 H 256.82 -3.18588 0.519783 0
M  V30 2705 H 255.872 -2.52276 2.84712 0
M  V30 2706 H 257.184 -3.46899 3.58417 0
M  V30 2707 H 256.338 -5.54285 2.46683 0
M  V30 2708 H 255.077 -4.59826 1.62516 0
M  V30 2709 H 254.082 -3.94046 3.83416 0
M  V30 2710 H 255.307 -4.91896 4.68204 0
M  V30 2711 H 253.253 -5.97715 2.7032 0
M  V30 2712 H 253.17 -6.12766 4.42779 0
M  V30 2713 H 254.438 -6.93657 3.55613 0
M  V30 2714 O 258.706 -1.41006 -0.787381 0
M  V30 2715 H 259.397 -1.30255 -1.43364 0
M  V30 END ATOM
M  V30 BEGIN BOND
M  V30 END BOND
M  V30 END CTAB
M  END
$$$$
