drugbank_target|Q99884 Sodium-dependent proline transporter (DB00172)
 OpenBabel12092119383D

  0  0  0     0  0            999 V3000
M  V30 BEGIN CTAB
M  V30 COUNTS 10038 10184 0 0 0
M  V30 BEGIN ATOM
M  V30 1 H -0.908 1.98254 -0.117106 0
M  V30 2 N 0 1.576 0 0
M  V30 3 C 0.933 2.03868 1.02534 0
M  V30 4 C 1.911 0.928543 1.3348 0
M  V30 5 O 3.095 1.19667 1.45644 0
M  V30 6 C 0.222 2.43627 2.35294 0
M  V30 7 C -0.732 3.65373 2.2001 0
M  V30 8 S 0.101 5.13292 1.52614 0
M  V30 9 C 1.257 5.56322 2.86805 0
M  V30 10 H 1.49 2.90518 0.631377 0
M  V30 11 H -0.977 1.52953 0.210867 0
M  V30 12 H 0.981 2.67203 3.11629 0
M  V30 13 H -0.358 1.57376 2.7183 0
M  V30 14 H -1.165 3.90944 3.18086 0
M  V30 15 H -1.563 3.418 1.51819 0
M  V30 16 H 0.729 5.58782 3.83104 0
M  V30 17 H 1.672 6.56266 2.65933 0
M  V30 18 H 2.08 4.83886 2.90714 0
M  V30 19 N 1.4781 -0.272755 1.55222 0
M  V30 20 C 2.4251 -1.33716 1.88119 0
M  V30 21 C 3.3951 -1.49066 0.73271 0
M  V30 22 O 4.5801 -1.63469 0.984002 0
M  V30 23 C 1.7201 -2.69238 2.15882 0
M  V30 24 C 0.8331 -2.62108 3.43399 0
M  V30 25 C -0.0319 -3.89811 3.60861 0
M  V30 26 C -0.9929 -3.77193 4.8207 0
M  V30 27 N -1.8559 -4.9673 4.96189 0
M  V30 28 H 2.9841 -1.04962 2.78903 0
M  V30 29 H 0.5211 -0.507088 1.38083 0
M  V30 30 H 2.4791 -3.48089 2.29978 0
M  V30 31 H 1.1091 -2.96194 1.28331 0
M  V30 32 H 0.1611 -1.74967 3.37773 0
M  V30 33 H 1.4731 -2.48685 4.32386 0
M  V30 34 H 0.6271 -4.77103 3.74777 0
M  V30 35 H -0.6339 -4.06102 2.7006 0
M  V30 36 H -1.6289 -2.88284 4.68159 0
M  V30 37 H -0.4039 -3.62421 5.74307 0
M  V30 38 H -2.4579 -5.13431 4.08319 0
M  V30 39 H -2.5409 -4.85839 5.79221 0
M  V30 40 H -1.2729 -5.85594 5.1449 0
M  V30 41 N 2.9562 -1.48159 -0.537278 0
M  V30 42 C 3.9032 -1.62138 -1.64256 0
M  V30 43 C 4.8732 -0.463668 -1.59497 0
M  V30 44 O 6.0582 -0.686241 -1.78032 0
M  V30 45 C 3.1982 -1.66028 -3.02537 0
M  V30 46 C 2.3112 -2.92855 -3.17585 0
M  V30 47 C 1.4462 -2.87952 -4.46382 0
M  V30 48 C 0.4852 -4.09516 -4.54932 0
M  V30 49 N -0.3778 -4.02733 -5.75109 0
M  V30 50 H 4.4622 -2.56529 -1.51647 0
M  V30 51 H 1.9992 -1.27224 -0.738414 0
M  V30 52 H 3.9572 -1.66265 -3.82638 0
M  V30 53 H 2.5872 -0.751331 -3.13934 0
M  V30 54 H 1.6392 -3.02395 -2.30784 0
M  V30 55 H 2.9512 -3.82822 -3.19764 0
M  V30 56 H 2.1052 -2.8655 -5.34765 0
M  V30 57 H 0.8442 -1.95702 -4.46712 0
M  V30 58 H -0.1508 -4.11201 -3.64957 0
M  V30 59 H 1.0742 -5.02917 -4.56346 0
M  V30 60 H -0.9798 -3.13299 -5.76351 0
M  V30 61 H -1.0628 -4.86397 -5.78752 0
M  V30 62 H 0.2052 -4.05379 -6.65799 0
M  V30 63 N 4.4343 0.785586 -1.36625 0
M  V30 64 C 5.3643 1.91259 -1.33949 0
M  V30 65 C 6.3453 1.68795 -0.210325 0
M  V30 66 O 7.5303 1.89854 -0.408561 0
M  V30 67 C 4.6603 3.28339 -1.13186 0
M  V30 68 C 3.6143 3.65335 -2.22967 0
M  V30 69 C 2.9403 5.00806 -1.87342 0
M  V30 70 C 4.2403 3.7352 -3.65075 0
M  V30 71 H 5.9343 1.93755 -2.28253 0
M  V30 72 H 3.4803 0.930788 -1.09874 0
M  V30 73 H 5.4333 4.06804 -1.09948 0
M  V30 74 H 4.1573 3.2624 -0.153332 0
M  V30 75 H 2.8163 2.89169 -2.25337 0
M  V30 76 H 2.4643 4.95233 -0.880545 0
M  V30 77 H 2.1643 5.26529 -2.60846 0
M  V30 78 H 3.6883 5.81687 -1.85667 0
M  V30 79 H 5.1023 4.42168 -3.64911 0
M  V30 80 H 3.4993 4.10731 -4.37516 0
M  V30 81 H 4.5693 2.74527 -3.99703 0
M  V30 82 N 5.9124 1.20967 1.01018 0
M  V30 83 C 6.8444 0.922059 2.09835 0
M  V30 84 C 7.8574 -0.0927106 1.62536 0
M  V30 85 O 9.0464 0.139127 1.77957 0
M  V30 86 C 6.1464 0.362004 3.36961 0
M  V30 87 C 5.3194 1.42986 4.13369 0
M  V30 88 C 4.3784 0.879976 5.1879 0
M  V30 89 O 3.4044 1.56219 5.47343 0
M  V30 90 N 4.6064 -0.307396 5.79686 0
M  V30 91 H 7.3714 1.8588 2.35093 0
M  V30 92 H 4.9324 1.11422 1.1746 0
M  V30 93 H 6.9244 -0.0201474 4.04695 0
M  V30 94 H 5.4944 -0.479437 3.08902 0
M  V30 95 H 4.7144 1.98608 3.40512 0
M  V30 96 H 6.0024 2.14885 4.61196 0
M  V30 97 H 5.4004 -0.878796 5.58832 0
M  V30 98 H 3.9574 -0.631115 6.48737 0
M  V30 99 N 7.3905 -1.2043 1.01659 0
M  V30 100 C 8.6385 -1.89423 0.704522 0
M  V30 101 C 8.9595 -1.79231 -0.768197 0
M  V30 102 O 8.2295 -1.1947 -1.55254 0
M  V30 103 H 6.8095 -0.701178 0.257602 0
M  V30 104 H 9.4715 -1.4626 1.28818 0
M  V30 105 H 8.5675 -2.96052 0.987916 0
M  V30 106 N 8.8686 -0.792821 -1.36206 0
M  V30 107 C 9.8316 -0.199459 -2.2833 0
M  V30 108 C 10.8316 0.605189 -1.48977 0
M  V30 109 O 12.0216 0.425685 -1.68919 0
M  V30 110 C 9.1536 0.723523 -3.33134 0
M  V30 111 H 10.3466 -1.01181 -2.82316 0
M  V30 112 H 7.8996 -0.562485 -1.45828 0
M  V30 113 H 8.6346 1.56008 -2.84309 0
M  V30 114 H 8.4196 0.148436 -3.91819 0
M  V30 115 H 9.9096 1.13344 -4.01924 0
M  V30 116 N 10.3467 1.47872 -0.545128 0
M  V30 117 C 11.2967 2.26842 0.229456 0
M  V30 118 C 12.2807 1.33626 0.896267 0
M  V30 119 O 13.4727 1.58063 0.79657 0
M  V30 120 C 10.6017 3.19089 1.26638 0
M  V30 121 C 9.6877 4.19783 0.603598 0
M  V30 122 N 10.0787 5.0479 -0.319405 0
M  V30 123 C 8.3767 4.3765 0.858989 0
M  V30 124 C 9.0777 5.77433 -0.703241 0
M  V30 125 N 8.0537 5.43566 -0.0608309 0
M  V30 126 H 11.8557 2.89947 -0.480391 0
M  V30 127 H 9.3697 1.58263 -0.364209 0
M  V30 128 H 11.3667 3.74337 1.83515 0
M  V30 129 H 10.0267 2.5754 1.97745 0
M  V30 130 H 11.0377 5.13244 -0.692889 0
M  V30 131 H 7.7147 3.87281 1.55948 0
M  V30 132 H 9.1047 6.55824 -1.46098 0
M  V30 133 N 11.8248 0.280983 1.55075 0
M  V30 134 C 12.7548 -0.597469 2.25727 0
M  V30 135 C 13.7358 -1.15417 1.24952 0
M  V30 136 O 14.9208 -1.18722 1.53684 0
M  V30 137 C 12.0508 -1.7789 2.98283 0
M  V30 138 C 11.0048 -1.35347 4.06036 0
M  V30 139 C 10.3308 -2.61846 4.66198 0
M  V30 140 C 11.6308 -0.499354 5.19907 0
M  V30 141 H 13.3248 -0.00824265 2.99399 0
M  V30 142 H 10.8708 -0.0025244 1.44 0
M  V30 143 H 12.8238 -2.39937 3.46422 0
M  V30 144 H 11.5478 -2.39405 2.22155 0
M  V30 145 H 10.2068 -0.756156 3.58717 0
M  V30 146 H 9.8548 -3.21632 3.86732 0
M  V30 147 H 9.5548 -2.3409 5.38958 0
M  V30 148 H 11.0788 -3.24732 5.1709 0
M  V30 149 H 12.4928 -1.02498 5.64063 0
M  V30 150 H 10.8898 -0.316424 5.99265 0
M  V30 151 H 11.9598 0.480459 4.82514 0
M  V30 152 N 13.3029 -1.57598 0.00835791 0
M  V30 153 C 14.7189 -1.55764 -0.347822 0
M  V30 154 C 14.9189 -1.01186 -1.74252 0
M  V30 155 O 13.9749 -0.649371 -2.44007 0
M  V30 156 C 15.2879 -2.99927 -0.215407 0
M  V30 157 C 16.8359 -3.11656 -0.289725 0
M  V30 158 C 17.3109 -4.57621 -0.18634 0
M  V30 159 N 18.8019 -4.62557 -0.243978 0
M  V30 160 C 19.5369 -5.73094 -0.18745 0
M  V30 161 N 19.0329 -6.92753 -0.0810331 0
M  V30 162 N 20.8259 -5.61588 -0.239925 0
M  V30 163 H 12.9769 -1.91411 0.92062 0
M  V30 164 H 15.2399 -0.879562 0.353659 0
M  V30 165 H 14.9459 -3.43729 0.744512 0
M  V30 166 H 14.8199 -3.63865 -0.994097 0
M  V30 167 H 17.2069 -2.67779 -1.24009 0
M  V30 168 H 17.2879 -2.5048 0.51898 0
M  V30 169 H 16.9319 -5.02174 0.760519 0
M  V30 170 H 16.8619 -5.16752 -1.01364 0
M  V30 171 H 19.3529 -3.76481 -0.327217 0
M  V30 172 H 19.6659 -7.72787 -0.0440241 0
M  V30 173 H 18.0109 -6.94984 -0.0465419 0
M  V30 174 H 21.2019 -4.66996 -0.321317 0
M  V30 175 H 21.3749 -6.47714 -0.192407 0
M  V30 176 N 14.781 0.264519 -1.55364 0
M  V30 177 C 15.728 1.32717 -1.88825 0
M  V30 178 C 16.698 1.48675 -0.740605 0
M  V30 179 O 17.883 1.62945 -0.992657 0
M  V30 180 C 15.023 2.68089 -2.17307 0
M  V30 181 C 14.136 2.60284 -3.44785 0
M  V30 182 C 13.271 3.87892 -3.62924 0
M  V30 183 C 12.31 3.74631 -4.84064 0
M  V30 184 N 11.447 4.94092 -4.98816 0
M  V30 185 H 16.287 1.03481 -2.79456 0
M  V30 186 H 13.824 0.499757 -1.3835 0
M  V30 187 H 15.782 3.46864 -2.31821 0
M  V30 188 H 14.412 2.95509 -1.299 0
M  V30 189 H 13.464 1.73173 -3.38697 0
M  V30 190 H 14.776 2.46388 -4.33698 0
M  V30 191 H 13.93 4.75109 -3.77302 0
M  V30 192 H 12.669 4.04664 -2.7221 0
M  V30 193 H 11.674 2.85797 -4.69681 0
M  V30 194 H 12.899 3.5937 -5.76221 0
M  V30 195 H 10.845 5.11259 -4.11036 0
M  V30 196 H 10.762 4.8276 -5.81789 0
M  V30 197 H 12.03 5.82857 -5.17588 0
M  V30 198 N 16.2591 1.48442 0.529413 0
M  V30 199 C 17.6701 1.5002 1.11134 0
M  V30 200 C 18.0211 0.27031 1.94329 0
M  V30 201 O 17.1461 -0.622507 2.07253 0
M  V30 202 C 17.7411 2.71834 2.02217 0
M  V30 203 C 16.3001 2.76283 2.55627 0
M  V30 204 C 15.4471 2.43542 1.326 0
M  V30 205 H 18.3981 1.5555 0.314641 0
M  V30 206 H 18.4191 2.50384 2.8651 0
M  V30 207 H 17.9311 3.61331 1.41639 0
M  V30 208 H 16.0321 1.90995 3.19924 0
M  V30 209 H 16.1451 3.77725 2.94721 0
M  V30 210 H 14.5091 1.94709 1.64196 0
M  V30 211 H 15.2921 3.3528 0.737734 0
M  V30 212 N 17.7372 -0.778329 1.37039 0
M  V30 213 C 18.9832 -1.53892 1.32079 0
M  V30 214 C 19.3162 -1.9396 -0.0965386 0
M  V30 215 O 18.5912 -1.63568 -1.05242 0
M  V30 216 C 18.8742 -2.80847 2.25382 0
M  V30 217 C 18.7272 -2.47076 3.75864 0
M  V30 218 C 20.0462 -3.82741 2.1725 0
M  V30 219 H 17.1652 -0.558303 0.48111 0
M  V30 220 H 19.8072 -0.893397 1.67685 0
M  V30 221 H 17.9572 -3.35931 1.95148 0
M  V30 222 H 19.6292 -1.97957 4.16666 0
M  V30 223 H 17.8722 -1.79863 3.94755 0
M  V30 224 H 18.5432 -3.37798 4.36574 0
M  V30 225 H 21.0192 -3.37133 2.43887 0
M  V30 226 H 19.8952 -4.69303 2.84686 0
M  V30 227 H 20.1562 -4.2652 1.16331 0
M  V30 228 N 19.2153 -1.21501 -1.00376 0
M  V30 229 C 20.4433 -1.059 -1.77744 0
M  V30 230 C 20.8583 0.391125 -1.84704 0
M  V30 231 O 20.2153 1.27133 -1.30933 0
M  V30 232 C 20.2663 -1.65111 -3.21591 0
M  V30 233 O 19.9873 -3.0445 -3.15027 0
M  V30 234 C 21.4883 -1.54637 -4.15454 0
M  V30 235 H 18.7083 -0.371825 -0.558558 0
M  V30 236 H 21.2523 -1.60865 -1.26264 0
M  V30 237 H 19.4073 -1.14235 -3.70175 0
M  V30 238 H 19.8213 -3.3278 -4.0541 0
M  V30 239 H 21.2953 -2.00808 -5.14179 0
M  V30 240 H 21.7723 -0.501022 -4.36333 0
M  V30 241 H 22.3783 -2.04767 -3.72761 0
M  V30 242 N 20.6934 1.19889 -1.02296 0
M  V30 243 C 22.1044 1.71124 -0.746568 0
M  V30 244 C 22.4554 1.81939 0.734335 0
M  V30 245 O 21.5804 1.48639 1.57275 0
M  V30 246 C 22.1754 3.10804 -1.34857 0
M  V30 247 C 20.7344 3.59323 -1.1209 0
M  V30 248 C 19.8814 2.3635 -1.45031 0
M  V30 249 H 22.8324 1.04813 -1.19163 0
M  V30 250 H 22.8534 3.73186 -0.742437 0
M  V30 251 H 22.3654 3.029 -2.42638 0
M  V30 252 H 20.4664 3.7255 -0.0610337 0
M  V30 253 H 20.5794 4.4378 -1.80544 0
M  V30 254 H 18.9434 2.39399 -0.869487 0
M  V30 255 H 19.7264 2.31081 -2.53883 0
M  V30 256 N 22.1715 0.800033 1.35784 0
M  V30 257 C 23.4485 0.30088 1.93272 0
M  V30 258 C 23.8285 -1.20857 1.73081 0
M  V30 259 O 23.1765 -2.00502 1.09596 0
M  V30 260 C 23.3865 0.70511 3.41803 0
M  V30 261 C 24.7345 0.690871 4.18942 0
M  V30 262 O 25.7585 0.646244 3.50289 0
M  V30 263 O 24.6175 0.74332 5.41421 0
M  V30 264 H 21.7115 0.0771605 0.823393 0
M  V30 265 H 24.2575 0.88329 1.449 0
M  V30 266 H 23.0295 1.74571 3.50201 0
M  V30 267 H 22.6525 0.0971541 3.97481 0
M  V30 268 N 23.6496 -1.47581 0.552962 0
M  V30 269 C 24.5796 -2.32762 -0.185451 0
M  V30 270 C 25.5606 -1.43527 -0.912905 0
M  V30 271 O 26.7456 -1.72388 -0.894201 0
M  V30 272 C 23.8756 -3.25219 -1.21859 0
M  V30 273 C 22.8296 -4.23661 -0.607864 0
M  V30 274 C 22.1556 -5.05413 -1.74533 0
M  V30 275 C 23.4556 -5.20481 0.435582 0
M  V30 276 H 25.1496 -2.94749 0.525684 0
M  V30 277 H 22.6956 -1.41738 0.254251 0
M  V30 278 H 24.6486 -3.8365 -1.7433 0
M  V30 279 H 23.3726 -2.61279 -1.95961 0
M  V30 280 H 22.0316 -3.66451 -0.104489 0
M  V30 281 H 21.6796 -4.3788 -2.47529 0
M  V30 282 H 21.3796 -5.72059 -1.34249 0
M  V30 283 H 22.9036 -5.66701 -2.27338 0
M  V30 284 H 24.3176 -5.733 -0.00290157 0
M  V30 285 H 22.7146 -5.95305 0.757067 0
M  V30 286 H 23.7846 -4.66217 1.33303 0
M  V30 287 N 25.1277 -0.289203 -1.54924 0
M  V30 288 C 26.0577 0.58549 -2.2604 0
M  V30 289 C 27.0387 1.14753 -1.25562 0
M  V30 290 O 28.2237 1.17906 -1.54311 0
M  V30 291 C 25.3537 1.76305 -2.99222 0
M  V30 292 C 24.3077 1.33191 -4.06748 0
M  V30 293 C 23.6337 2.5937 -4.6758 0
M  V30 294 C 24.9337 0.471775 -5.20165 0
M  V30 295 H 26.6277 -0.00763532 -2.99399 0
M  V30 296 H 24.1737 -0.00511229 -1.43999 0
M  V30 297 H 26.1267 2.38097 -3.47689 0
M  V30 298 H 24.8507 2.38223 -2.23422 0
M  V30 299 H 23.5097 0.737121 -3.59113 0
M  V30 300 H 23.1577 3.19576 -3.88433 0
M  V30 301 H 22.8577 2.31228 -5.40192 0
M  V30 302 H 24.3817 3.21985 -5.18804 0
M  V30 303 H 25.7957 0.995056 -5.64599 0
M  V30 304 H 24.1927 0.284639 -5.99425 0
M  V30 305 H 25.2627 -0.506041 -4.82252 0
M  V30 306 N 26.6058 1.57591 -0.0167156 0
M  V30 307 C 27.5388 2.04944 1.00366 0
M  V30 308 C 28.5168 0.942648 1.32487 0
M  V30 309 O 29.7008 1.21205 1.44367 0
M  V30 310 C 26.8278 2.46109 2.32697 0
M  V30 311 C 25.8738 3.67686 2.16123 0
M  V30 312 S 26.7068 5.14882 1.47161 0
M  V30 313 C 27.8628 5.59332 2.80888 0
M  V30 314 H 28.0958 2.91172 0.600528 0
M  V30 315 H 25.6288 1.53168 0.194632 0
M  V30 316 H 27.5868 2.70493 3.08778 0
M  V30 317 H 26.2478 1.6025 2.70146 0
M  V30 318 H 25.4408 3.94296 3.13922 0
M  V30 319 H 25.0428 3.43391 1.48185 0
M  V30 320 H 27.3348 5.62814 3.77156 0
M  V30 321 H 28.2778 6.5905 2.58958 0
M  V30 322 H 28.6858 4.86942 2.85565 0
M  V30 323 N 28.0839 -0.256276 1.55502 0
M  V30 324 C 29.3119 -1.00342 1.8094 0
M  V30 325 C 29.7269 -1.79307 0.59114 0
M  V30 326 O 29.0839 -1.77114 -0.440081 0
M  V30 327 C 29.1349 -1.94875 3.04476 0
M  V30 328 O 28.8559 -1.19107 4.21598 0
M  V30 329 C 30.3569 -2.81266 3.42644 0
M  V30 330 H 27.5769 -0.295685 0.602338 0
M  V30 331 H 30.1209 -0.281998 2.02546 0
M  V30 332 H 28.2759 -2.62457 2.84947 0
M  V30 333 H 28.6899 -1.82969 4.91551 0
M  V30 334 H 30.1639 -3.43362 4.32211 0
M  V30 335 H 30.6409 -3.51897 2.62802 0
M  V30 336 H 31.2469 -2.1915 3.64491 0
M  V30 337 N 29.562 -1.4872 -0.521534 0
M  V30 338 C 30.973 -1.50607 -1.10337 0
M  V30 339 C 31.324 -0.280612 -1.94183 0
M  V30 340 O 30.449 0.611507 -2.0758 0
M  V30 341 C 31.044 -2.72903 -2.00772 0
M  V30 342 C 29.603 -2.77634 -2.54158 0
M  V30 343 C 28.75 -2.44241 -1.31307 0
M  V30 344 H 31.701 -1.55714 -0.306388 0
M  V30 345 H 31.722 -2.519 -2.85178 0
M  V30 346 H 31.234 -3.62077 -1.39721 0
M  V30 347 H 29.335 -1.92689 -3.18907 0
M  V30 348 H 29.448 -3.79283 -2.92714 0
M  V30 349 H 27.812 -1.95577 -1.63161 0
M  V30 350 H 28.595 -3.35666 -0.719943 0
M  V30 351 N 31.0401 0.771051 -1.3745 0
M  V30 352 C 32.2651 1.56529 -1.36065 0
M  V30 353 C 32.6901 1.88029 0.0515859 0
M  V30 354 O 32.0481 1.49282 1.02882 0
M  V30 355 C 32.0961 2.85187 -2.20683 0
M  V30 356 O 31.2001 3.79593 -1.61193 0
M  V30 357 H 30.5411 0.47411 -0.464883 0
M  V30 358 H 33.0711 0.954269 -1.80983 0
M  V30 359 H 33.0811 3.34283 -2.33921 0
M  V30 360 H 31.7561 2.61588 -3.23334 0
M  V30 361 H 30.3331 3.38239 -1.56999 0
M  V30 362 N 32.5182 1.22032 0.997298 0
M  V30 363 C 33.7952 0.950823 1.70935 0
M  V30 364 C 34.1752 -0.535292 2.042 0
M  V30 365 O 33.5232 -1.50217 1.72183 0
M  V30 366 C 33.7332 1.84386 2.96315 0
M  V30 367 C 35.0812 2.09732 3.69185 0
M  V30 368 O 36.1052 1.81798 3.06314 0
M  V30 369 O 34.9642 2.57018 4.82291 0
M  V30 370 H 32.0582 0.357204 0.745878 0
M  V30 371 H 34.6042 1.32997 1.05404 0
M  V30 372 H 33.3762 2.84928 2.68201 0
M  V30 373 H 32.9992 1.46602 3.69586 0
M  V30 374 N 33.9963 -1.19345 1.0293 0
M  V30 375 C 34.9283 -2.22036 0.56857 0
M  V30 376 C 35.9413 -1.58865 -0.355779 0
M  V30 377 O 37.1303 -1.77851 -0.152103 0
M  V30 378 C 34.2303 -3.38363 -0.190752 0
M  V30 379 C 33.4033 -4.31118 0.738643 0
M  V30 380 C 32.4623 -5.26194 0.0246497 0
M  V30 381 O 31.4883 -5.65461 0.651354 0
M  V30 382 N 32.6903 -5.66971 -1.24594 0
M  V30 383 H 35.4553 -2.6219 1.45177 0
M  V30 384 H 33.0163 -1.34015 0.908381 0
M  V30 385 H 35.0083 -3.98981 -0.677961 0
M  V30 386 H 33.5783 -2.96994 -0.975366 0
M  V30 387 H 32.7983 -3.68276 1.40593 0
M  V30 388 H 34.0863 -4.90001 1.37029 0
M  V30 389 H 33.4843 -5.37104 -1.77583 0
M  V30 390 H 32.0413 -6.2984 -1.67764 0
M  V30 391 N 35.4744 -0.807222 -1.35358 0
M  V30 392 C 36.7224 -0.387122 -1.98358 0
M  V30 393 C 37.0434 1.04942 -1.64354 0
M  V30 394 O 36.3134 1.72615 -0.926339 0
M  V30 395 H 34.8934 -0.140154 -0.733734 0
M  V30 396 H 37.5554 -1.0332 -1.6526 0
M  V30 397 H 36.6514 -0.493352 -3.08176 0
M  V30 398 N 36.9525 1.47285 -0.560781 0
M  V30 399 C 38.2295 1.9558 0.0277798 0
M  V30 400 C 38.6095 1.5034 1.48192 0
M  V30 401 O 37.9575 0.743882 2.16052 0
M  V30 402 C 38.1675 3.48789 -0.121418 0
M  V30 403 C 39.5155 4.24594 0.0220912 0
M  V30 404 O 40.5395 3.56166 -0.0491439 0
M  V30 405 O 39.3985 5.46217 0.175958 0
M  V30 406 H 36.4925 0.824663 0.0621342 0
M  V30 407 H 39.0385 1.5767 -0.627556 0
M  V30 408 H 37.8105 3.74533 -1.13316 0
M  V30 409 H 37.4335 3.93473 0.571366 0
M  V30 410 N 38.4306 0.297415 1.54768 0
M  V30 411 C 39.6766 -0.313376 2.00364 0
M  V30 412 C 40.0096 -1.53815 1.18553 0
M  V30 413 O 39.2846 -1.92739 0.261103 0
M  V30 414 C 39.5676 -0.673525 3.53745 0
M  V30 415 C 39.4206 0.560133 4.46299 0
M  V30 416 C 40.7396 -1.50143 4.13697 0
M  V30 417 H 37.8586 -0.112428 0.728374 0
M  V30 418 H 40.5006 0.4088 1.8555 0
M  V30 419 H 38.6506 -1.28881 3.665 0
M  V30 420 H 40.3226 1.19863 4.45455 0
M  V30 421 H 38.5656 1.19405 4.17043 0
M  V30 422 H 39.2366 0.26405 5.51368 0
M  V30 423 H 41.7126 -0.981588 4.04356 0
M  V30 424 H 40.5886 -1.72221 5.21182 0
M  V30 425 H 40.8496 -2.48952 3.65343 0
M  V30 426 N 39.9087 -1.5758 0.0250728 0
M  V30 427 C 41.1857 -1.82917 -0.692873 0
M  V30 428 C 41.5657 -0.908137 -1.90568 0
M  V30 429 O 40.9137 0.0372298 -2.2847 0
M  V30 430 C 41.1237 -3.32034 -1.07492 0
M  V30 431 C 42.4717 -3.98406 -1.46826 0
M  V30 432 O 43.4957 -3.36505 -1.16801 0
M  V30 433 O 42.3547 -5.07497 -2.02754 0
M  V30 434 H 39.4487 -0.754079 -0.33955 0
M  V30 435 H 41.9947 -1.69619 0.0524456 0
M  V30 436 H 40.7667 -3.90728 -0.211552 0
M  V30 437 H 40.3897 -3.50424 -1.87854 0
M  V30 438 N 41.3868 0.248026 -1.55636 0
M  V30 439 C 42.3168 1.31079 -1.93237 0
M  V30 440 C 43.2978 1.50264 -0.797174 0
M  V30 441 O 44.4828 1.62891 -1.05737 0
M  V30 442 C 41.6128 2.66575 -2.22609 0
M  V30 443 C 40.5668 2.62087 -3.3837 0
M  V30 444 C 39.8928 4.01369 -3.53281 0
M  V30 445 C 41.1928 2.19171 -4.7409 0
M  V30 446 H 42.8868 0.998556 -2.82257 0
M  V30 447 H 40.4328 0.47891 -1.35803 0
M  V30 448 H 42.3858 3.41057 -2.47503 0
M  V30 449 H 41.1098 2.99432 -1.30414 0
M  V30 450 H 39.7688 1.90063 -3.13483 0
M  V30 451 H 39.4168 4.31489 -2.58508 0
M  V30 452 H 39.1168 3.99254 -4.31127 0
M  V30 453 H 40.6408 4.77552 -3.80495 0
M  V30 454 H 42.0548 2.83384 -4.98363 0
M  V30 455 H 40.4518 2.2817 -5.5503 0
M  V30 456 H 41.5218 1.14336 -4.71227 0
M  V30 457 N 42.8649 1.48995 0.513639 0
M  V30 458 C 44.1419 1.48338 1.27495 0
M  V30 459 C 44.5219 0.204065 2.10111 0
M  V30 460 O 43.8699 -0.813881 2.13514 0
M  V30 461 C 44.0799 2.75498 2.14247 0
M  V30 462 C 45.4279 3.24484 2.73852 0
M  V30 463 O 46.4519 2.76528 2.24523 0
M  V30 464 O 45.3109 4.07974 3.6362 0
M  V30 465 H 42.4049 0.593149 0.576284 0
M  V30 466 H 44.9509 1.61246 0.528948 0
M  V30 467 H 43.7229 3.60109 1.53092 0
M  V30 468 H 43.3459 2.6539 2.96064 0
M  V30 469 N 44.343 -0.763751 1.37857 0
M  V30 470 C 45.589 -1.52483 1.33704 0
M  V30 471 C 45.922 -1.94051 -0.0759612 0
M  V30 472 O 45.197 -1.64675 -1.03501 0
M  V30 473 C 45.48 -2.78441 2.28348 0
M  V30 474 C 45.333 -2.43075 3.78463 0
M  V30 475 C 46.652 -3.80415 2.21298 0
M  V30 476 H 43.771 -0.553169 0.487005 0
M  V30 477 H 46.413 -0.875562 1.68624 0
M  V30 478 H 44.563 -3.33842 1.987 0
M  V30 479 H 46.235 -1.93527 4.18742 0
M  V30 480 H 44.478 -1.75666 3.96641 0
M  V30 481 H 45.149 -3.33149 4.40132 0
M  V30 482 H 47.625 -3.34527 2.47449 0
M  V30 483 H 46.501 -4.66257 2.89647 0
M  V30 484 H 46.762 -4.25262 1.20849 0
M  V30 485 N 45.8211 -1.22559 -0.990812 0
M  V30 486 C 47.0981 -0.959875 -1.70428 0
M  V30 487 C 47.4781 0.524455 -2.04481 0
M  V30 488 O 46.8261 1.49302 -1.72977 0
M  V30 489 C 47.0361 -1.85955 -2.95333 0
M  V30 490 C 48.3841 -2.11687 -3.68068 0
M  V30 491 O 49.4081 -1.8342 -3.05345 0
M  V30 492 O 48.2671 -2.59572 -4.80921 0
M  V30 493 H 45.3611 -0.361154 -0.743974 0
M  V30 494 H 47.9071 -1.33554 -1.04697 0
M  V30 495 H 46.6791 -2.86346 -2.66687 0
M  V30 496 H 46.3021 -1.4856 -3.68803 0
M  V30 497 N 47.2992 1.18797 -1.03562 0
M  V30 498 C 48.5462 1.8865 -0.736023 0
M  V30 499 C 48.8742 1.80041 0.735889 0
M  V30 500 O 48.1292 1.19179 1.55225 0
M  V30 501 C 48.4282 3.38692 -1.14117 0
M  V30 502 C 48.0942 3.67504 -2.6125 0
M  V30 503 C 46.7562 3.75078 -3.01447 0
M  V30 504 C 49.1082 3.80293 -3.56408 0
M  V30 505 C 46.4362 3.92915 -4.35701 0
M  V30 506 C 48.7882 3.99645 -4.90374 0
M  V30 507 C 47.4522 4.05453 -5.30249 0
M  V30 508 H 46.7222 0.690321 -0.26933 0
M  V30 509 H 49.3692 1.40641 -1.29971 0
M  V30 510 H 47.6742 3.88645 -0.496202 0
M  V30 511 H 49.3712 3.91072 -0.886789 0
M  V30 512 H 45.9612 3.62223 -2.29113 0
M  V30 513 H 50.1452 3.73779 -3.26501 0
M  V30 514 H 45.4012 3.95653 -4.66121 0
M  V30 515 H 49.5752 4.08482 -5.64017 0
M  V30 516 H 47.2022 4.19027 -6.34288 0
M  V30 517 N 48.7773 0.814389 1.34928 0
M  V30 518 C 49.7403 0.235759 2.27984 0
M  V30 519 C 50.7403 -0.581412 1.49921 0
M  V30 520 O 51.9303 -0.398758 1.69575 0
M  V30 521 C 49.0623 -0.670433 3.34242 0
M  V30 522 H 50.2553 1.05659 2.80671 0
M  V30 523 H 47.8083 0.585614 1.44915 0
M  V30 524 H 48.5433 -1.51466 2.86755 0
M  V30 525 H 48.3283 -0.0860822 3.92005 0
M  V30 526 H 49.8183 -1.06935 4.03676 0
M  V30 527 N 50.2554 -1.46986 0.568584 0
M  V30 528 C 51.2184 -2.28624 -0.162366 0
M  V30 529 C 52.2184 -1.37596 -0.832103 0
M  V30 530 O 53.4084 -1.60115 -0.68622 0
M  V30 531 C 50.5404 -3.17596 -1.23878 0
M  V30 532 H 51.7334 -2.94722 0.554899 0
M  V30 533 H 49.2864 -1.52863 0.325976 0
M  V30 534 H 50.0214 -2.56214 -1.98808 0
M  V30 535 H 49.8064 -3.846 -0.763219 0
M  V30 536 H 51.2964 -3.79078 -1.75185 0
M  V30 537 N 51.7335 -0.305618 -1.54608 0
M  V30 538 C 52.6835 0.583595 -2.20405 0
M  V30 539 C 53.6675 1.09539 -1.17856 0
M  V30 540 O 54.8595 1.0354 -1.43557 0
M  V30 541 C 51.9885 1.75277 -2.95183 0
M  V30 542 C 51.0745 1.25672 -4.05052 0
M  V30 543 N 51.4655 0.478998 -5.03527 0
M  V30 544 C 49.7635 1.53704 -4.18678 0
M  V30 545 C 50.4645 0.214269 -5.81305 0
M  V30 546 N 49.4405 0.795374 -5.3775 0
M  V30 547 H 53.2425 -0.0180946 -2.93894 0
M  V30 548 H 50.7565 -0.110601 -1.62023 0
M  V30 549 H 52.7535 2.4014 -3.40791 0
M  V30 550 H 51.4135 2.35812 -2.23211 0
M  V30 551 H 52.4245 0.123473 -5.17753 0
M  V30 552 H 49.1015 2.14954 -3.57912 0
M  V30 553 H 50.4915 -0.410656 -6.70644 0
M  V30 554 N 53.2116 1.57565 -0.0334293 0
M  V30 555 C 54.6276 1.56297 0.322997 0
M  V30 556 C 54.8276 1.03945 1.7262 0
M  V30 557 O 53.8836 0.688109 2.42943 0
M  V30 558 C 55.1966 3.00232 0.167664 0
M  V30 559 C 56.7446 3.12078 0.240107 0
M  V30 560 C 57.2196 4.57859 0.113513 0
M  V30 561 N 58.7106 4.62887 0.170359 0
M  V30 562 C 59.4456 5.73319 0.0962517 0
M  V30 563 N 58.9416 6.92794 -0.0291881 0
M  V30 564 N 60.7346 5.61898 0.150551 0
M  V30 565 H 52.8856 1.89923 -0.950956 0
M  V30 566 H 55.1486 0.873824 -0.367608 0
M  V30 567 H 54.8546 3.42501 -0.799102 0
M  V30 568 H 54.7286 3.654 0.936083 0
M  V30 569 H 57.1156 2.69718 1.19733 0
M  V30 570 H 57.1966 2.49623 -0.558763 0
M  V30 571 H 56.8406 5.009 -0.840314 0
M  V30 572 H 56.7706 5.18299 0.931302 0
M  V30 573 H 59.2616 3.76954 0.26728 0
M  V30 574 H 59.5746 7.7276 -0.0789252 0
M  V30 575 H 57.9196 6.94971 -0.0640299 0
M  V30 576 H 61.1106 4.67448 0.246981 0
M  V30 577 H 61.2836 6.47938 0.0893365 0
M  V30 578 N 54.6897 -0.239769 1.55765 0
M  V30 579 C 55.9377 -0.964892 1.77579 0
M  V30 580 C 56.2587 -1.85582 0.598699 0
M  V30 581 O 55.5287 -1.92075 -0.385226 0
M  V30 582 H 54.1087 -0.359265 0.654933 0
M  V30 583 H 56.7707 -0.256001 1.93211 0
M  V30 584 H 55.8667 -1.58243 2.69009 0
M  V30 585 N 56.1678 -1.49265 -0.50573 0
M  V30 586 C 57.1158 -1.66065 -1.62866 0
M  V30 587 C 58.1098 -0.526636 -1.61006 0
M  V30 588 O 59.3158 -0.706126 -1.65571 0
M  V30 589 H 55.6908 -0.52356 -0.539805 0
M  V30 590 H 57.6618 -2.60329 -1.45848 0
M  V30 591 C 56.4108 -1.74008 -3.01026 0
M  V30 592 H 55.7338 -2.6064 -3.03161 0
M  V30 593 H 57.1738 -1.89798 -3.79147 0
M  V30 594 C 55.6328 -0.483868 -3.33407 0
M  V30 595 O 56.1628 0.392548 -3.99777 0
M  V30 596 N 54.3688 -0.348236 -2.88506 0
M  V30 597 H 53.9158 -1.06242 -2.34671 0
M  V30 598 H 53.8738 0.491204 -3.10539 0
M  V30 599 N 57.6459 0.756429 -1.3826 0
M  V30 600 C 58.8919 1.5168 -1.35517 0
M  V30 601 C 59.2469 1.9232 0.0554451 0
M  V30 602 O 58.5399 1.62352 1.01746 0
M  V30 603 C 58.7339 2.78313 -2.24224 0
M  V30 604 C 58.5629 2.50053 -3.7377 0
M  V30 605 C 57.3329 2.43414 -4.42807 0
M  V30 606 C 59.5309 2.1702 -4.66269 0
M  V30 607 N 57.5129 2.07398 -5.77805 0
M  V30 608 C 58.8839 1.91271 -5.89759 0
M  V30 609 C 60.9389 2.03305 -4.54501 0
M  V30 610 C 59.6419 1.53192 -7.02798 0
M  V30 611 C 61.6679 1.66627 -5.67441 0
M  V30 612 C 61.0299 1.4175 -6.8999 0
M  V30 613 H 57.1289 0.554735 -0.551174 0
M  V30 614 H 59.7129 0.881106 -1.73622 0
M  V30 615 H 57.8839 3.39696 -1.88311 0
M  V30 616 H 59.6159 3.44343 -2.12627 0
M  V30 617 H 56.3709 2.59789 -3.95988 0
M  V30 618 H 56.7949 1.92044 -6.4919 0
M  V30 619 H 61.4369 2.21215 -3.60311 0
M  V30 620 H 59.1549 1.34022 -7.96909 0
M  V30 621 H 62.7409 1.56652 -5.60314 0
M  V30 622 H 61.6209 1.1379 -7.759 0
M  V30 623 N 59.124 1.23083 0.984299 0
M  V30 624 C 60.352 1.08714 1.76037 0
M  V30 625 C 60.767 -0.361691 1.85303 0
M  V30 626 O 60.124 -1.25034 1.32939 0
M  V30 627 C 60.175 1.70206 3.18923 0
M  V30 628 O 59.896 3.09423 3.10144 0
M  V30 629 C 61.397 1.61227 4.12941 0
M  V30 630 H 58.617 0.380664 0.552572 0
M  V30 631 H 61.161 1.62853 1.23689 0
M  V30 632 H 59.316 1.20109 3.6831 0
M  V30 633 H 59.73 3.39188 4.00065 0
M  V30 634 H 61.204 2.08962 5.10919 0
M  V30 635 H 61.681 0.570375 4.35481 0
M  V30 636 H 62.287 2.10671 3.69456 0
M  V30 637 N 60.6021 -1.18246 1.0419 0
M  V30 638 C 61.8501 -1.87886 0.744543 0
M  V30 639 C 62.1711 -1.8082 -0.730006 0
M  V30 640 O 61.4411 -1.22736 -1.52685 0
M  V30 641 H 60.0211 -0.695556 0.272417 0
M  V30 642 H 62.6831 -1.43494 1.31892 0
M  V30 643 H 61.7791 -2.9389 1.05049 0
M  V30 644 N 62.0802 -0.821533 -1.34494 0
M  V30 645 C 63.0272 -0.240397 -2.29545 0
M  V30 646 C 63.9972 0.634031 -1.53523 0
M  V30 647 O 65.1822 0.575966 -1.81899 0
M  V30 648 C 62.3222 0.592869 -3.39969 0
M  V30 649 C 61.4352 -0.30365 -4.30932 0
M  V30 650 C 60.5702 0.539049 -5.28458 0
M  V30 651 C 59.6092 -0.356942 -6.11058 0
M  V30 652 N 58.7462 0.446603 -7.00678 0
M  V30 653 H 63.5862 -1.05632 -2.7865 0
M  V30 654 H 61.1232 -0.532413 -1.37127 0
M  V30 655 H 63.0812 1.09129 -4.02675 0
M  V30 656 H 61.7112 1.37392 -2.92102 0
M  V30 657 H 60.7632 -0.920276 -3.691 0
M  V30 658 H 62.0752 -0.992661 -4.88823 0
M  V30 659 H 61.2292 1.102 -5.96608 0
M  V30 660 H 59.9682 1.26157 -4.71101 0
M  V30 661 H 58.9732 -0.932047 -5.41842 0
M  V30 662 H 60.1982 -1.07755 -6.70497 0
M  V30 663 H 58.1442 1.15282 -6.45791 0
M  V30 664 H 58.0612 -0.184048 -7.55776 0
M  V30 665 H 59.3292 0.992352 -7.73158 0
M  V30 666 N 63.5583 1.46682 -0.576371 0
M  V30 667 C 64.4883 2.33028 0.148397 0
M  V30 668 C 65.4693 1.44961 0.889956 0
M  V30 669 O 66.6543 1.73789 0.866662 0
M  V30 670 C 63.7843 3.27117 1.1667 0
M  V30 671 C 62.7383 4.24575 0.540386 0
M  V30 672 C 62.0643 5.08126 1.6647 0
M  V30 673 C 63.3643 5.19722 -0.518331 0
M  V30 674 H 65.0583 2.93875 -0.572509 0
M  V30 675 H 62.6043 1.41315 -0.276768 0
M  V30 676 H 64.5573 3.86374 1.68204 0
M  V30 677 H 63.2813 2.64364 1.9178 0
M  V30 678 H 61.9403 3.66571 0.0461769 0
M  V30 679 H 61.5883 4.41762 2.40531 0
M  V30 680 H 61.2883 5.74122 1.25131 0
M  V30 681 H 62.8123 5.70246 2.18293 0
M  V30 682 H 64.2263 5.73232 -0.0883058 0
M  V30 683 H 62.6233 5.94026 -0.851679 0
M  V30 684 H 63.6933 4.64037 -1.40703 0
M  V30 685 N 65.0364 0.313813 1.54444 0
M  V30 686 C 66.3134 -0.345447 1.92525 0
M  V30 687 C 66.6934 -1.70667 1.24242 0
M  V30 688 O 66.0414 -2.25273 0.382654 0
M  V30 689 C 66.2514 -0.44737 3.46121 0
M  V30 690 C 67.5994 -0.712238 4.18584 0
M  V30 691 O 68.6234 -0.530678 3.52225 0
M  V30 692 O 67.4824 -1.06183 5.36085 0
M  V30 693 H 64.5764 -0.195407 0.803583 0
M  V30 694 H 67.1224 0.362813 1.65776 0
M  V30 695 H 65.8944 0.509043 3.87975 0
M  V30 696 H 65.5174 -1.20359 3.78945 0
M  V30 697 N 66.5145 -1.57545 0.0417849 0
M  V30 698 C 67.7615 -1.92317 -0.634082 0
M  V30 699 C 68.0895 -0.919334 -1.71402 0
M  V30 700 O 67.3445 0.0698253 -1.95575 0
M  V30 701 C 67.6435 -3.33794 -1.27735 0
M  V30 702 C 67.3095 -4.49716 -0.326543 0
M  V30 703 C 65.9715 -4.81156 -0.0648814 0
M  V30 704 C 68.3235 -5.20182 0.325623 0
M  V30 705 C 65.6515 -5.80414 0.856539 0
M  V30 706 C 68.0035 -6.20424 1.23518 0
M  V30 707 C 66.6675 -6.50298 1.5056 0
M  V30 708 H 65.9375 -0.703736 -0.232027 0
M  V30 709 H 68.5845 -1.91205 0.106259 0
M  V30 710 H 66.8895 -3.31228 -2.09274 0
M  V30 711 H 68.5865 -3.57975 -1.80707 0
M  V30 712 H 65.1765 -4.25176 -0.540665 0
M  V30 713 H 69.3605 -4.96112 0.136546 0
M  V30 714 H 64.6165 -6.019 1.07363 0
M  V30 715 H 68.7905 -6.74141 1.74664 0
M  V30 716 H 66.4175 -7.27025 2.22123 0
M  V30 717 N 67.9926 0.231505 -1.5589 0
M  V30 718 C 68.9226 1.29022 -1.94617 0
M  V30 719 C 69.9036 1.4941 -0.813067 0
M  V30 720 O 71.0886 1.6176 -1.07459 0
M  V30 721 C 68.2186 2.64199 -2.25424 0
M  V30 722 C 67.1726 2.58484 -3.41131 0
M  V30 723 C 66.4986 3.97599 -3.57518 0
M  V30 724 C 67.7986 2.1413 -4.76388 0
M  V30 725 H 69.4926 0.968563 -2.83301 0
M  V30 726 H 67.0386 0.464479 -1.36303 0
M  V30 727 H 68.9916 3.38413 -2.51107 0
M  V30 728 H 67.7156 2.98032 -1.33583 0
M  V30 729 H 66.3746 1.86727 -3.15481 0
M  V30 730 H 66.0226 4.28723 -2.6307 0
M  V30 731 H 65.7226 3.94659 -4.35337 0
M  V30 732 H 67.2466 4.7349 -3.85538 0
M  V30 733 H 68.6606 2.78083 -5.01341 0
M  V30 734 H 67.0576 2.2227 -5.57419 0
M  V30 735 H 68.1276 1.09331 -4.72414 0
M  V30 736 N 69.4707 1.49531 0.497807 0
M  V30 737 C 70.4007 1.6935 1.60757 0
M  V30 738 C 71.3817 0.542218 1.61227 0
M  V30 739 O 72.5667 0.778417 1.77917 0
M  V30 740 C 69.6967 1.76298 2.99226 0
M  V30 741 C 68.6507 2.91248 3.13622 0
M  V30 742 C 67.9767 2.83312 4.53474 0
M  V30 743 C 69.2767 4.3214 2.93346 0
M  V30 744 H 70.9707 2.62263 1.44425 0
M  V30 745 H 68.5167 1.26208 0.693367 0
M  V30 746 H 70.4697 1.88749 3.76765 0
M  V30 747 H 69.1937 0.799871 3.16654 0
M  V30 748 H 67.8527 2.78404 2.38509 0
M  V30 749 H 67.5007 1.84902 4.67782 0
M  V30 750 H 67.2007 3.60465 4.64046 0
M  V30 751 H 68.7247 2.97775 5.33069 0
M  V30 752 H 70.1387 4.45649 3.60652 0
M  V30 753 H 68.5357 5.1054 3.15387 0
M  V30 754 H 69.6057 4.46363 1.89441 0
M  V30 755 N 70.9488 -0.749086 1.3866 0
M  V30 756 C 72.1738 -1.54344 1.38538 0
M  V30 757 C 72.5988 -1.88088 -0.0216655 0
M  V30 758 O 71.9568 -1.50899 -1.00494 0
M  V30 759 C 72.0048 -2.8164 2.25192 0
M  V30 760 O 71.1088 -3.7698 1.67212 0
M  V30 761 H 70.4498 -0.466654 0.472367 0
M  V30 762 H 72.9798 -0.925355 1.82478 0
M  V30 763 H 72.9898 -3.30519 2.3921 0
M  V30 764 H 71.6648 -2.56411 3.27454 0
M  V30 765 H 70.2418 -3.35699 1.6236 0
M  V30 766 N 72.4269 -1.23603 -0.977757 0
M  V30 767 C 73.6669 -1.08148 -1.73446 0
M  V30 768 C 74.0309 0.374785 -1.88307 0
M  V30 769 O 75.2319 0.650588 -2.60808 0
M  V30 770 C 73.5029 -1.78991 -3.0935 0
M  V30 771 S 75.0619 -1.79141 -4.00567 0
M  V30 772 H 71.8799 -0.386987 -0.596458 0
M  V30 773 H 74.4819 -1.5678 -1.16792 0
M  V30 774 H 73.1859 -2.8408 -2.96187 0
M  V30 775 H 72.7169 -1.30651 -3.71071 0
M  V30 776 H 74.7319 -0.851892 -4.88833 0
M  V30 777 N 73.905 1.17692 -1.04816 0
M  V30 778 C 75.154 1.87192 -0.751132 0
M  V30 779 C 75.467 1.8169 0.724441 0
M  V30 780 O 76.673 2.46625 1.13527 0
M  V30 781 C 75.129 3.35857 -1.29338 0
M  V30 782 C 74.737 3.4987 -2.79812 0
M  V30 783 C 76.481 4.10709 -1.07322 0
M  V30 784 C 74.388 4.92536 -3.27356 0
M  V30 785 H 73.318 0.701162 -0.277288 0
M  V30 786 H 75.969 1.32932 -1.26496 0
M  V30 787 H 74.351 3.89631 -0.707376 0
M  V30 788 H 75.525 3.06332 -3.44235 0
M  V30 789 H 73.84 2.88433 -3.00325 0
M  V30 790 H 76.437 5.15952 -1.4035 0
M  V30 791 H 76.78 4.16299 -0.0108001 0
M  V30 792 H 77.313 3.6313 -1.62423 0
M  V30 793 H 74.052 4.92119 -4.33012 0
M  V30 794 H 73.572 5.3676 -2.67673 0
M  V30 795 H 75.251 5.61288 -3.21815 0
M  V30 796 N 75.3831 0.828654 1.34056 0
M  V30 797 C 76.6311 0.41863 1.97717 0
M  V30 798 C 76.9521 -1.02314 1.66002 0
M  V30 799 O 76.2221 -1.71119 0.953683 0
M  V30 800 H 74.8021 0.151809 0.731412 0
M  V30 801 H 77.4641 1.05936 1.63596 0
M  V30 802 H 76.5601 0.542318 3.07352 0
M  V30 803 N 76.8612 -1.46375 0.584142 0
M  V30 804 C 78.0912 -2.06461 0.0758195 0
M  V30 805 C 78.4992 -1.43322 -1.23512 0
M  V30 806 O 77.8422 -0.533216 -1.75791 0
M  V30 807 C 77.9042 -3.59131 -0.162773 0
M  V30 808 C 77.5682 -4.4447 1.06279 0
M  V30 809 C 78.5652 -4.80918 1.97519 0
M  V30 810 C 76.2502 -4.85584 1.28504 0
M  V30 811 C 78.2442 -5.57309 3.09331 0
M  V30 812 C 75.9312 -5.61734 2.4062 0
M  V30 813 C 76.9292 -5.9751 3.30863 0
M  V30 814 O 76.6172 -6.72121 4.41032 0
M  V30 815 H 76.3492 -0.673745 0.0551725 0
M  V30 816 H 78.9032 -1.88969 0.804984 0
M  V30 817 H 77.1332 -3.74936 -0.946565 0
M  V30 818 H 78.8222 -4.0114 -0.619782 0
M  V30 819 H 79.5882 -4.49732 1.81565 0
M  V30 820 H 75.4672 -4.57187 0.591702 0
M  V30 821 H 79.0112 -5.85152 3.79793 0
M  V30 822 H 74.9082 -5.92334 2.56537 0
M  V30 823 H 75.6762 -6.90547 4.39417 0
M  V30 824 N 78.3393 -0.321999 -1.54275 0
M  V30 825 C 79.5793 0.281657 -2.0245 0
M  V30 826 C 79.9433 1.49468 -1.20513 0
M  V30 827 O 81.1443 2.17109 -1.58484 0
M  V30 828 C 79.4153 0.609014 -3.52173 0
M  V30 829 S 80.9743 1.19255 -4.22284 0
M  V30 830 H 77.7923 0.0852825 -0.705867 0
M  V30 831 H 80.3943 -0.454758 -1.90137 0
M  V30 832 H 79.0983 -0.281982 -4.0943 0
M  V30 833 H 78.6293 1.37567 -3.68563 0
M  V30 834 H 80.6443 2.47944 -4.29812 0
M  V30 835 N 79.8174 1.5752 -0.0501392 0
M  V30 836 C 81.0634 1.92936 0.624798 0
M  V30 837 C 81.3964 0.928685 1.70555 0
M  V30 838 O 80.6714 -0.0454779 1.94447 0
M  V30 839 C 80.9544 3.38737 1.22185 0
M  V30 840 C 80.8074 4.49552 0.149218 0
M  V30 841 C 82.1264 3.84913 2.13378 0
M  V30 842 H 79.2454 0.701604 0.225657 0
M  V30 843 H 81.8874 1.89671 -0.111693 0
M  V30 844 H 80.0374 3.4165 1.84953 0
M  V30 845 H 81.7094 4.58768 -0.482648 0
M  V30 846 H 79.9524 4.30638 -0.522841 0
M  V30 847 H 80.6234 5.48653 0.606966 0
M  V30 848 H 83.0994 3.8387 1.60572 0
M  V30 849 H 81.9754 4.87584 2.52097 0
M  V30 850 H 82.2364 3.21611 3.03346 0
M  V30 851 N 81.2955 -0.223234 1.56011 0
M  V30 852 C 82.5435 -0.946003 1.78592 0
M  V30 853 C 82.8645 -1.84936 0.618349 0
M  V30 854 O 82.1345 -1.92473 -0.364833 0
M  V30 855 H 80.7145 -0.352298 0.658707 0
M  V30 856 H 83.3765 -0.235494 1.93472 0
M  V30 857 H 82.4725 -1.55381 2.70672 0
M  V30 858 N 82.7736 -1.49793 -0.48987 0
M  V30 859 C 83.7036 -1.70201 -1.59856 0
M  V30 860 C 84.6846 -0.55076 -1.60937 0
M  V30 861 O 85.8696 -0.787841 -1.77501 0
M  V30 862 C 82.9996 -1.77882 -2.98287 0
M  V30 863 C 81.9536 -2.92907 -3.12073 0
M  V30 864 C 81.2796 -2.85712 -4.51965 0
M  V30 865 C 82.5796 -4.3369 -2.91051 0
M  V30 866 H 84.2736 -2.63025 -1.43032 0
M  V30 867 H 81.8196 -1.26574 -0.686664 0
M  V30 868 H 83.7726 -1.90744 -3.75759 0
M  V30 869 H 82.4966 -0.816653 -3.16225 0
M  V30 870 H 81.1556 -2.79665 -2.37029 0
M  V30 871 H 80.8036 -1.8738 -4.66795 0
M  V30 872 H 80.5036 -3.62921 -4.62128 0
M  V30 873 H 82.0276 -3.00598 -5.31482 0
M  V30 874 H 83.4416 -4.47555 -3.58284 0
M  V30 875 H 81.8386 -5.12205 -3.12675 0
M  V30 876 H 82.9086 -4.47362 -1.87071 0
M  V30 877 N 84.2517 0.741722 -1.39055 0
M  V30 878 C 85.4997 1.49818 -1.35643 0
M  V30 879 C 85.8207 1.94938 0.0491642 0
M  V30 880 O 85.0907 1.68505 0.999141 0
M  V30 881 H 83.6707 0.555755 -0.499144 0
M  V30 882 H 86.3327 0.880957 -1.73854 0
M  V30 883 H 85.4287 2.38348 -2.01486 0
M  V30 884 N 85.7298 1.2412 0.971189 0
M  V30 885 C 86.6778 1.02812 2.08644 0
M  V30 886 C 87.6718 -0.0358403 1.69362 0
M  V30 887 O 88.8778 0.118429 1.7961 0
M  V30 888 H 85.2528 0.315428 0.682649 0
M  V30 889 H 87.2238 1.97397 2.23779 0
M  V30 890 C 85.9728 0.645874 3.41649 0
M  V30 891 H 85.2958 1.45632 3.72332 0
M  V30 892 H 86.7358 0.536366 4.20594 0
M  V30 893 C 85.1948 -0.646713 3.30635 0
M  V30 894 O 85.7248 -1.69338 3.64263 0
M  V30 895 N 83.9308 -0.626115 2.83775 0
M  V30 896 H 83.4778 0.225988 2.56607 0
M  V30 897 H 83.4358 -1.49117 2.76788 0
M  V30 898 N 87.2079 -1.17134 1.05439 0
M  V30 899 C 88.4539 -1.87733 0.767077 0
M  V30 900 C 88.7869 -1.8098 -0.704253 0
M  V30 901 O 88.0619 -1.21951 -1.5152 0
M  V30 902 C 88.3449 -3.37659 1.25133 0
M  V30 903 C 88.1979 -3.53149 2.78578 0
M  V30 904 C 89.5169 -4.31768 0.852324 0
M  V30 905 H 86.6359 -0.681687 0.280129 0
M  V30 906 H 89.2779 -1.37732 1.30881 0
M  V30 907 H 87.4279 -3.80373 0.790469 0
M  V30 908 H 89.0999 -3.19434 3.32806 0
M  V30 909 H 87.3429 -2.95345 3.17732 0
M  V30 910 H 88.0139 -4.58403 3.07523 0
M  V30 911 H 90.4899 -3.96909 1.24911 0
M  V30 912 H 89.3659 -5.35199 1.21873 0
M  V30 913 H 89.6269 -4.41429 -0.243485 0
M  V30 914 N 88.686 -0.835752 -1.33615 0
M  V30 915 C 89.932 -0.439817 -1.98588 0
M  V30 916 C 90.287 0.989274 -1.65019 0
M  V30 917 O 89.58 1.68168 -0.918159 0
M  V30 918 C 89.774 -0.593925 -3.52431 0
M  V30 919 C 89.603 -2.03644 -4.00948 0
M  V30 920 C 88.373 -2.67103 -4.28934 0
M  V30 921 C 90.571 -3.00479 -4.17393 0
M  V30 922 N 88.553 -4.02462 -4.6357 0
M  V30 923 C 89.924 -4.20777 -4.55353 0
M  V30 924 C 91.979 -2.96926 -3.99674 0
M  V30 925 C 90.682 -5.37994 -4.77447 0
M  V30 926 C 92.708 -4.1337 -4.22941 0
M  V30 927 C 92.07 -5.32422 -4.61201 0
M  V30 928 H 88.169 -0.209303 -0.75347 0
M  V30 929 H 90.753 -1.08316 -1.61789 0
M  V30 930 H 88.924 0.019599 -3.88395 0
M  V30 931 H 90.656 -0.169738 -4.04344 0
M  V30 932 H 87.411 -2.18259 -4.20309 0
M  V30 933 H 87.835 -4.72232 -4.85104 0
M  V30 934 H 92.477 -2.06015 -3.69212 0
M  V30 935 H 90.195 -6.29451 -5.06771 0
M  V30 936 H 93.781 -4.12034 -4.10754 0
M  V30 937 H 92.661 -6.21027 -4.78848 0
M  V30 938 N 90.1641 1.46063 -0.591896 0
M  V30 939 C 91.5801 1.57561 -0.254288 0
M  V30 940 C 91.7801 1.58565 1.24336 0
M  V30 941 O 90.8361 1.50753 2.02558 0
M  V30 942 C 92.1491 2.86549 -0.911611 0
M  V30 943 C 93.6971 3.00197 -0.886059 0
M  V30 944 C 94.1721 4.31933 -1.5231 0
M  V30 945 N 95.6631 4.38654 -1.48786 0
M  V30 946 C 96.3981 5.39222 -1.95006 0
M  V30 947 N 95.8941 6.46414 -2.49241 0
M  V30 948 N 97.6871 5.3048 -1.85868 0
M  V30 949 H 89.8381 1.43655 -1.56451 0
M  V30 950 H 92.1011 0.68583 -0.654478 0
M  V30 951 H 91.8071 2.91651 -1.96551 0
M  V30 952 H 91.6811 3.74794 -0.425368 0
M  V30 953 H 94.0681 2.9467 0.159246 0
M  V30 954 H 94.1491 2.13403 -1.41041 0
M  V30 955 H 93.7931 4.38217 -2.56765 0
M  V30 956 H 93.7231 5.17516 -0.973891 0
M  V30 957 H 96.2141 3.61793 -1.09151 0
M  V30 958 H 96.5271 7.19376 -2.82344 0
M  V30 959 H 94.8721 6.47208 -2.53272 0
M  V30 960 H 98.0631 4.45643 -1.43248 0
M  V30 961 H 98.2361 6.08711 -2.22204 0
M  V30 962 N 91.6422 0.330177 1.54103 0
M  V30 963 C 92.8892 -0.270405 2.00686 0
M  V30 964 C 93.2172 -1.51621 1.21825 0
M  V30 965 O 92.4722 -1.93536 0.29025 0
M  V30 966 C 92.7712 -0.643134 3.51566 0
M  V30 967 C 92.4372 0.504251 4.48072 0
M  V30 968 C 91.0992 0.819163 4.74176 0
M  V30 969 C 93.4512 1.27465 5.05373 0
M  V30 970 C 90.7792 1.90708 5.5484 0
M  V30 971 C 93.1312 2.35271 5.87223 0
M  V30 972 C 91.7952 2.67336 6.11627 0
M  V30 973 H 91.0652 -0.0989482 0.734364 0
M  V30 974 H 93.7122 0.455324 1.86008 0
M  V30 975 H 92.0172 -1.44938 3.64006 0
M  V30 976 H 93.7142 -1.11949 3.85056 0
M  V30 977 H 90.3042 0.248733 4.27878 0
M  V30 978 H 94.4882 1.04462 4.85182 0
M  V30 979 H 89.7442 2.15991 5.71977 0
M  V30 980 H 93.9182 2.95405 6.30641 0
M  V30 981 H 91.5452 3.51763 6.73919 0
M  V30 982 N 93.1203 -1.57491 0.0584922 0
M  V30 983 C 94.5313 -1.80526 -0.476138 0
M  V30 984 C 94.8823 -0.971334 -1.70469 0
M  V30 985 O 94.0073 -0.190012 -2.15564 0
M  V30 986 C 94.6023 -3.27424 -0.870587 0
M  V30 987 C 93.1613 -3.51351 -1.35015 0
M  V30 988 C 92.3083 -2.75343 -0.32887 0
M  V30 989 H 95.2593 -1.56133 0.284312 0
M  V30 990 H 95.2803 -3.38745 -1.73299 0
M  V30 991 H 94.7923 -3.88093 0.0237627 0
M  V30 992 H 92.8933 -2.95971 -2.26345 0
M  V30 993 H 93.0063 -4.60059 -1.33726 0
M  V30 994 H 91.3703 -2.417 -0.803321 0
M  V30 995 H 92.1533 -3.38743 0.557521 0
M  V30 996 N 94.5984 0.214957 -1.56127 0
M  V30 997 C 95.8284 0.953707 -1.8327 0
M  V30 998 C 96.2364 1.78181 -0.636262 0
M  V30 999 O 95.5794 1.79191 0.404516 0
M  V30 1000 C 95.6414 1.91516 -3.0424 0
M  V30 1001 C 95.3054 1.27094 -4.38972 0
M  V30 1002 C 96.3024 0.657575 -5.15725 0
M  V30 1003 C 93.9874 1.28073 -4.85698 0
M  V30 1004 C 95.9814 0.0625968 -6.37369 0
M  V30 1005 C 93.6684 0.681914 -6.07283 0
M  V30 1006 C 94.6664 0.0739046 -6.8296 0
M  V30 1007 O 94.3544 -0.515582 -8.02245 0
M  V30 1008 H 94.0864 0.284764 -0.613095 0
M  V30 1009 H 96.6404 0.233283 -2.04071 0
M  V30 1010 H 94.8704 2.67475 -2.79274 0
M  V30 1011 H 96.5594 2.52001 -3.18198 0
M  V30 1012 H 97.3254 0.642288 -4.80728 0
M  V30 1013 H 93.2044 1.74337 -4.26764 0
M  V30 1014 H 96.7484 -0.412593 -6.96379 0
M  V30 1015 H 92.6454 0.694636 -6.41752 0
M  V30 1016 H 93.4134 -0.410544 -8.1747 0
M  V30 1017 N 96.0765 1.50051 0.48192 0
M  V30 1018 C 97.4925 1.37237 0.814756 0
M  V30 1019 C 97.6925 0.420109 1.97072 0
M  V30 1020 O 96.7485 -0.141246 2.52105 0
M  V30 1021 C 98.0615 2.78375 1.13701 0
M  V30 1022 C 99.6095 2.87213 1.2441 0
M  V30 1023 C 100.084 4.29161 1.59954 0
M  V30 1024 N 101.575 4.32061 1.66967 0
M  V30 1025 C 102.31 5.38879 1.95952 0
M  V30 1026 N 101.806 6.55918 2.23031 0
M  V30 1027 N 103.599 5.26312 1.97363 0
M  V30 1028 H 95.7505 2.10546 -0.28005 0
M  V30 1029 H 98.0135 0.945921 -0.0627454 0
M  V30 1030 H 97.7195 3.49845 0.360787 0
M  V30 1031 H 97.5935 3.14941 2.07586 0
M  V30 1032 H 99.9805 2.15969 2.01101 0
M  V30 1033 H 100.061 2.54204 0.285299 0
M  V30 1034 H 99.7055 5.00938 0.838067 0
M  V30 1035 H 99.6355 4.59648 2.56966 0
M  V30 1036 H 102.126 3.47661 1.48123 0
M  V30 1037 H 102.439 7.33139 2.44391 0
M  V30 1038 H 100.784 6.59112 2.20447 0
M  V30 1039 H 103.975 4.33876 1.75697 0
M  V30 1040 H 104.148 6.09649 2.19618 0
M  V30 1041 N 97.5546 -0.734337 1.39446 0
M  V30 1042 C 98.5176 -1.83004 1.37994 0
M  V30 1043 C 99.5176 -1.58397 0.276938 0
M  V30 1044 O 100.708 -1.65785 0.534875 0
M  V30 1045 C 97.8396 -3.20802 1.1532 0
M  V30 1046 H 99.0326 -1.85694 2.35494 0
M  V30 1047 H 96.5856 -0.938059 1.25021 0
M  V30 1048 H 97.3206 -3.23772 0.185036 0
M  V30 1049 H 97.1056 -3.4006 1.95197 0
M  V30 1050 H 98.5956 -4.00862 1.17046 0
M  V30 1051 N 99.0327 -1.24633 -0.964593 0
M  V30 1052 C 100.263 -1.11339 -1.74032 0
M  V30 1053 C 100.671 0.336593 -1.86182 0
M  V30 1054 O 100.014 1.24389 -1.35178 0
M  V30 1055 C 100.076 -1.68284 -3.1768 0
M  V30 1056 C 99.7397 -3.17196 -3.28992 0
M  V30 1057 C 100.737 -4.14308 -3.14078 0
M  V30 1058 C 98.4217 -3.57215 -3.53133 0
M  V30 1059 C 100.416 -5.4942 -3.23135 0
M  V30 1060 C 98.1027 -4.92468 -3.61827 0
M  V30 1061 C 99.1007 -5.8838 -3.46841 0
M  V30 1062 O 98.7887 -7.21173 -3.55197 0
M  V30 1063 H 98.5207 -0.389551 -0.552472 0
M  V30 1064 H 101.075 -1.65282 -1.21946 0
M  V30 1065 H 99.3047 -1.08777 -3.71085 0
M  V30 1066 H 100.994 -1.50234 -3.77074 0
M  V30 1067 H 101.76 -3.84731 -2.95308 0
M  V30 1068 H 97.6387 -2.83063 -3.63863 0
M  V30 1069 H 101.183 -6.24263 -3.11355 0
M  V30 1070 H 97.0797 -5.21714 -3.80111 0
M  V30 1071 H 97.8477 -7.29135 -3.71892 0
M  V30 1072 N 100.511 1.16574 -1.06058 0
M  V30 1073 C 101.739 1.90952 -0.796552 0
M  V30 1074 C 102.154 1.77302 0.648808 0
M  V30 1075 O 101.511 1.11605 1.44397 0
M  V30 1076 C 101.562 3.41736 -1.17894 0
M  V30 1077 O 101.283 3.54975 -2.56758 0
M  V30 1078 C 102.784 4.33169 -0.942308 0
M  V30 1079 H 100.004 0.605594 -0.288959 0
M  V30 1080 H 102.548 1.47777 -1.41358 0
M  V30 1081 H 100.703 3.82623 -0.606491 0
M  V30 1082 H 101.117 4.4846 -2.72 0
M  V30 1083 H 102.591 5.37439 -1.25952 0
M  V30 1084 H 103.068 4.3903 0.122078 0
M  V30 1085 H 103.674 3.98007 -1.49902 0
M  V30 1086 N 101.989 0.842826 1.3317 0
M  V30 1087 C 102.937 0.267495 2.31057 0
M  V30 1088 C 103.931 -0.602682 1.58316 0
M  V30 1089 O 105.137 -0.491803 1.73151 0
M  V30 1090 H 101.512 0.0677813 0.748939 0
M  V30 1091 H 103.483 1.10754 2.77085 0
M  V30 1092 C 102.232 -0.539331 3.43492 0
M  V30 1093 H 101.555 0.12095 3.99617 0
M  V30 1094 H 102.995 -0.90767 4.14171 0
M  V30 1095 C 101.454 -1.71981 2.89697 0
M  V30 1096 O 101.984 -2.81862 2.86211 0
M  V30 1097 N 100.19 -1.54299 2.46252 0
M  V30 1098 H 99.7369 -0.649143 2.49287 0
M  V30 1099 H 99.6949 -2.33431 2.10612 0
M  V30 1100 N 103.467 -1.45747 0.599634 0
M  V30 1101 C 104.715 -2.01893 0.0915472 0
M  V30 1102 C 105.036 -1.47155 -1.27946 0
M  V30 1103 O 104.306 -0.66273 -1.84349 0
M  V30 1104 H 102.886 -0.746363 0.0308524 0
M  V30 1105 H 105.548 -1.78645 0.779237 0
M  V30 1106 H 104.644 -3.1208 0.0353086 0
M  V30 1107 N 104.945 -0.338344 -1.53925 0
M  V30 1108 C 106.193 0.259245 -2.0043 0
M  V30 1109 C 106.514 1.51484 -1.22791 0
M  V30 1110 O 105.784 1.93037 -0.33368 0
M  V30 1111 H 104.364 0.0987845 -0.740439 0
M  V30 1112 H 107.026 -0.458302 -1.89435 0
M  V30 1113 H 106.122 0.505334 -3.07982 0
M  V30 1114 N 106.423 1.57458 -0.0668435 0
M  V30 1115 C 107.671 1.92919 0.602214 0
M  V30 1116 C 107.992 0.947215 1.70449 0
M  V30 1117 O 107.262 -0.00544117 1.95899 0
M  V30 1118 H 105.842 0.71217 0.22544 0
M  V30 1119 H 108.504 1.94508 -0.123535 0
M  V30 1120 H 107.6 2.94589 1.03073 0
M  V30 1121 N 107.901 -0.206675 1.56239 0
M  V30 1122 C 108.864 -1.23976 1.92776 0
M  V30 1123 C 109.864 -1.39041 0.807729 0
M  V30 1124 O 111.054 -1.37051 1.0753 0
M  V30 1125 C 108.186 -2.61112 2.19165 0
M  V30 1126 H 109.379 -0.927764 2.85189 0
M  V30 1127 H 106.932 -0.447718 1.4975 0
M  V30 1128 H 107.667 -2.97386 1.29352 0
M  V30 1129 H 107.452 -2.51552 3.00772 0
M  V30 1130 H 108.942 -3.35633 2.48476 0
M  V30 1131 N 109.379 -1.50304 -0.473955 0
M  V30 1132 C 110.626 -1.6115 -1.22625 0
M  V30 1133 C 110.954 -0.310517 -1.92005 0
M  V30 1134 O 110.209 0.703419 -1.82621 0
M  V30 1135 C 110.508 -2.73938 -2.29549 0
M  V30 1136 C 110.174 -4.14519 -1.7744 0
M  V30 1137 C 108.836 -4.5277 -1.62949 0
M  V30 1138 C 111.188 -5.02392 -1.3875 0
M  V30 1139 C 108.516 -5.76639 -1.08187 0
M  V30 1140 C 110.868 -6.26805 -0.854309 0
M  V30 1141 C 109.532 -6.63861 -0.696011 0
M  V30 1142 H 108.802 -0.589691 -0.448715 0
M  V30 1143 H 111.449 -1.84228 -0.522705 0
M  V30 1144 H 109.754 -2.44937 -3.05799 0
M  V30 1145 H 111.451 -2.79534 -2.87509 0
M  V30 1146 H 108.041 -3.8434 -1.89685 0
M  V30 1147 H 112.225 -4.73474 -1.4878 0
M  V30 1148 H 107.481 -6.04027 -0.946666 0
M  V30 1149 H 111.655 -6.94258 -0.545843 0
M  V30 1150 H 109.282 -7.59722 -0.26952 0
M  V30 1151 N 110.857 0.726932 -1.39834 0
M  V30 1152 C 111.787 1.85405 -1.41941 0
M  V30 1153 C 112.768 1.67751 -0.281728 0
M  V30 1154 O 113.953 1.8795 -0.488717 0
M  V30 1155 C 111.083 3.23243 -1.2701 0
M  V30 1156 C 110.037 3.55549 -2.38262 0
M  V30 1157 C 109.363 4.9241 -2.08415 0
M  V30 1158 C 110.663 3.577 -3.80589 0
M  V30 1159 H 112.357 1.83899 -2.36266 0
M  V30 1160 H 109.903 0.883349 -1.13723 0
M  V30 1161 H 111.856 4.01775 -1.27103 0
M  V30 1162 H 110.58 3.25296 -0.291564 0
M  V30 1163 H 109.239 2.79351 -2.37399 0
M  V30 1164 H 108.887 4.91052 -1.0898 0
M  V30 1165 H 108.587 5.14992 -2.82943 0
M  V30 1166 H 110.111 5.73289 -2.10171 0
M  V30 1167 H 111.525 4.26293 -3.83337 0
M  V30 1168 H 109.922 3.91804 -4.54543 0
M  V30 1169 H 110.992 2.57328 -4.10987 0
M  V30 1170 N 112.336 1.25143 0.95797 0
M  V30 1171 C 113.582 1.09855 1.70469 0
M  V30 1172 C 113.915 -0.360187 1.90831 0
M  V30 1173 O 113.19 -1.26568 1.47685 0
M  V30 1174 C 113.473 1.8497 3.08963 0
M  V30 1175 C 113.326 3.38652 2.96032 0
M  V30 1176 C 114.645 1.63016 4.08795 0
M  V30 1177 H 111.764 0.400465 0.618706 0
M  V30 1178 H 114.406 1.53933 1.11376 0
M  V30 1179 H 112.556 1.47505 3.59409 0
M  V30 1180 H 114.228 3.85772 2.52938 0
M  V30 1181 H 112.471 3.66534 2.32025 0
M  V30 1182 H 113.142 3.8642 3.94187 0
M  V30 1183 H 115.618 1.95625 3.67247 0
M  V30 1184 H 114.494 2.18015 5.03747 0
M  V30 1185 H 114.755 0.570692 4.38401 0
M  V30 1186 N 113.814 -1.1601 1.06675 0
M  V30 1187 C 115.225 -1.68235 0.809565 0
M  V30 1188 C 115.576 -1.8454 -0.666303 0
M  V30 1189 O 114.701 -1.54374 -1.5165 0
M  V30 1190 C 115.296 -3.05585 1.46299 0
M  V30 1191 C 113.855 -3.54915 1.25349 0
M  V30 1192 C 113.002 -2.30804 1.53703 0
M  V30 1193 H 115.953 -1.00318 1.22971 0
M  V30 1194 H 115.974 -3.70174 0.880431 0
M  V30 1195 H 115.486 -2.93686 2.53713 0
M  V30 1196 H 113.587 -3.72067 0.199261 0
M  V30 1197 H 113.7 -4.36774 1.9689 0
M  V30 1198 H 112.064 -2.36007 0.957739 0
M  V30 1199 H 112.847 -2.21499 2.62284 0
M  V30 1200 N 115.292 -0.849877 -1.32721 0
M  V30 1201 C 116.522 -0.46408 -2.0132 0
M  V30 1202 C 116.93 0.94246 -1.64056 0
M  V30 1203 O 116.273 1.6257 -0.855379 0
M  V30 1204 C 116.335 -0.517887 -3.5575 0
M  V30 1205 C 115.999 -1.88248 -4.16427 0
M  V30 1206 C 116.996 -2.84726 -4.35002 0
M  V30 1207 C 114.681 -2.17832 -4.52609 0
M  V30 1208 C 116.675 -4.08945 -4.8892 0
M  V30 1209 C 114.362 -3.42304 -5.06232 0
M  V30 1210 C 115.36 -4.37677 -5.24335 0
M  V30 1211 O 115.048 -5.59946 -5.76815 0
M  V30 1212 H 114.78 -0.181327 -0.651227 0
M  V30 1213 H 117.334 -1.14713 -1.70382 0
M  V30 1214 H 115.564 0.221997 -3.86062 0
M  V30 1215 H 117.253 -0.148366 -4.05629 0
M  V30 1216 H 118.019 -2.63174 -4.07388 0
M  V30 1217 H 113.898 -1.44385 -4.37806 0
M  V30 1218 H 117.442 -4.83396 -5.02966 0
M  V30 1219 H 113.339 -3.63709 -5.33278 0
M  V30 1220 H 114.107 -5.61838 -5.95214 0
M  V30 1221 N 116.77 1.45427 -0.607355 0
M  V30 1222 C 118.017 2.02241 -0.102455 0
M  V30 1223 C 118.345 1.4758 1.26691 0
M  V30 1224 O 117.6 0.640468 1.84923 0
M  V30 1225 C 117.899 3.57398 -0.0129263 0
M  V30 1226 C 117.565 4.3121 -1.31792 0
M  V30 1227 C 116.227 4.51092 -1.67539 0
M  V30 1228 C 118.579 4.73401 -2.18039 0
M  V30 1229 C 115.907 5.10422 -2.89285 0
M  V30 1230 C 118.259 5.34078 -3.39034 0
M  V30 1231 C 116.923 5.52184 -3.75033 0
M  V30 1232 H 116.193 0.740051 -0.037491 0
M  V30 1233 H 118.84 1.74494 -0.788926 0
M  V30 1234 H 117.145 3.84421 0.756806 0
M  V30 1235 H 118.842 3.99061 0.393881 0
M  V30 1236 H 115.432 4.16047 -1.02968 0
M  V30 1237 H 119.616 4.57774 -1.91721 0
M  V30 1238 H 114.872 5.22629 -3.17283 0
M  V30 1239 H 119.046 5.65724 -4.06115 0
M  V30 1240 H 116.673 5.97925 -4.69457 0
M  V30 1241 N 118.248 0.346503 1.53744 0
M  V30 1242 C 119.178 -0.501193 2.28058 0
M  V30 1243 C 120.159 -1.10014 1.29734 0
M  V30 1244 O 121.344 -1.12097 1.58581 0
M  V30 1245 C 118.474 -1.65078 3.05559 0
M  V30 1246 C 117.428 -1.18003 4.11411 0
M  V30 1247 C 116.754 -2.41837 4.76884 0
M  V30 1248 C 118.054 -0.278394 5.21558 0
M  V30 1249 H 119.748 0.11875 2.99164 0
M  V30 1250 H 117.294 0.0585531 1.43881 0
M  V30 1251 H 119.247 -2.25028 3.56287 0
M  V30 1252 H 117.971 -2.29767 2.32109 0
M  V30 1253 H 116.63 -0.603331 3.61601 0
M  V30 1254 H 116.278 -3.0494 4.00026 0
M  V30 1255 H 115.978 -2.1102 5.48402 0
M  V30 1256 H 117.502 -3.02508 5.30397 0
M  V30 1257 H 118.916 -0.784823 5.67903 0
M  V30 1258 H 117.313 -0.0619707 6.00068 0
M  V30 1259 H 118.383 0.684677 4.80042 0
M  V30 1260 N 119.726 -1.57421 0.075193 0
M  V30 1261 C 120.659 -2.08528 -0.926904 0
M  V30 1262 C 121.637 -0.991171 -1.28898 0
M  V30 1263 O 122.821 -1.26479 -1.39769 0
M  V30 1264 C 119.948 -2.54576 -2.23402 0
M  V30 1265 C 118.994 -3.75454 -2.02327 0
M  V30 1266 S 119.827 -5.19989 -1.27951 0
M  V30 1267 C 120.983 -5.69372 -2.59935 0
M  V30 1268 H 121.216 -2.932 -0.492048 0
M  V30 1269 H 118.749 -1.53785 -0.137651 0
M  V30 1270 H 120.707 -2.81767 -2.98526 0
M  V30 1271 H 119.368 -1.70166 -2.64012 0
M  V30 1272 H 118.561 -4.05675 -2.99071 0
M  V30 1273 H 118.163 -3.48654 -1.35339 0
M  V30 1274 H 120.455 -5.76424 -3.56008 0
M  V30 1275 H 121.398 -6.68207 -2.34319 0
M  V30 1276 H 121.806 -4.97205 -2.67296 0
M  V30 1277 N 121.204 0.198386 -1.56346 0
M  V30 1278 C 122.134 1.24865 -1.9731 0
M  V30 1279 C 123.115 1.47651 -0.844576 0
M  V30 1280 O 124.3 1.59444 -1.10866 0
M  V30 1281 C 121.43 2.59358 -2.30977 0
M  V30 1282 C 120.384 2.5119 -3.46537 0
M  V30 1283 C 119.71 3.89926 -3.65871 0
M  V30 1284 C 121.01 2.03977 -4.80823 0
M  V30 1285 H 122.704 0.908252 -2.85291 0
M  V30 1286 H 120.25 0.435462 -1.37258 0
M  V30 1287 H 122.203 3.33011 -2.58228 0
M  V30 1288 H 120.927 2.95132 -1.39874 0
M  V30 1289 H 119.586 1.79993 -3.19371 0
M  V30 1290 H 119.234 4.23046 -2.72105 0
M  V30 1291 H 118.934 3.85336 -4.4361 0
M  V30 1292 H 120.458 4.65205 -3.95495 0
M  V30 1293 H 121.872 2.67386 -5.07127 0
M  V30 1294 H 120.269 2.10397 -5.62008 0
M  V30 1295 H 121.339 0.992861 -4.74626 0
M  V30 1296 N 122.682 1.50554 0.465978 0
M  V30 1297 C 123.645 1.69233 1.54574 0
M  V30 1298 C 124.645 0.562901 1.50626 0
M  V30 1299 O 125.835 0.830016 1.53155 0
M  V30 1300 C 122.967 1.7223 2.94193 0
M  V30 1301 H 124.16 2.65571 1.39327 0
M  V30 1302 H 121.713 1.40111 0.692711 0
M  V30 1303 H 122.448 0.77603 3.14878 0
M  V30 1304 H 122.233 2.54285 2.98466 0
M  V30 1305 H 123.723 1.88618 3.72576 0
M  V30 1306 N 124.16 -0.719506 1.40217 0
M  V30 1307 C 125.409 -1.47486 1.37589 0
M  V30 1308 C 125.722 -1.9559 -0.0201568 0
M  V30 1309 O 126.928 -2.70973 -0.169049 0
M  V30 1310 C 125.384 -2.66575 2.41796 0
M  V30 1311 C 124.992 -2.25358 3.87192 0
M  V30 1312 C 126.736 -3.4433 2.48269 0
M  V30 1313 C 124.643 -3.41262 4.83005 0
M  V30 1314 H 123.573 -0.553901 0.511576 0
M  V30 1315 H 126.224 -0.783427 1.65936 0
M  V30 1316 H 124.606 -3.3787 2.06543 0
M  V30 1317 H 125.78 -1.61509 4.31569 0
M  V30 1318 H 124.095 -1.60657 3.84159 0
M  V30 1319 H 126.692 -4.30569 3.17041 0
M  V30 1320 H 127.035 -3.87872 1.51198 0
M  V30 1321 H 127.568 -2.80076 2.82493 0
M  V30 1322 H 124.307 -3.02755 5.81394 0
M  V30 1323 H 123.827 -4.0404 4.43297 0
M  V30 1324 H 125.506 -4.07383 5.02641 0
M  V30 1325 N 125.638 -1.25649 -0.95132 0
M  V30 1326 C 126.878 -1.11802 -1.71113 0
M  V30 1327 C 127.242 0.334758 -1.89059 0
M  V30 1328 O 128.443 0.595121 -2.62129 0
M  V30 1329 C 126.714 -1.85512 -3.05483 0
M  V30 1330 S 128.273 -1.87597 -3.96677 0
M  V30 1331 H 125.091 -0.399552 -0.588115 0
M  V30 1332 H 127.693 -1.59222 -1.1344 0
M  V30 1333 H 126.397 -2.90299 -2.90094 0
M  V30 1334 H 125.928 -1.38493 -3.68216 0
M  V30 1335 H 127.943 -0.955389 -4.86916 0
M  V30 1336 N 127.117 1.15442 -1.07289 0
M  V30 1337 C 128.365 1.85845 -0.794096 0
M  V30 1338 C 128.686 1.82692 0.681809 0
M  V30 1339 O 127.956 1.26741 1.49377 0
M  V30 1340 H 126.536 0.688089 -0.290763 0
M  V30 1341 H 129.198 1.39947 -1.3565 0
M  V30 1342 H 128.294 2.91001 -1.12804 0
M  V30 1343 N 128.595 0.856903 1.32268 0
M  V30 1344 C 129.844 0.457599 1.96441 0
M  V30 1345 C 130.157 -0.992426 1.68553 0
M  V30 1346 O 131.363 -1.49727 2.26482 0
M  V30 1347 C 129.819 0.767358 3.51624 0
M  V30 1348 C 129.427 2.23326 3.88367 0
M  V30 1349 C 131.171 0.435887 4.22256 0
M  V30 1350 C 129.078 2.48613 5.36606 0
M  V30 1351 H 128.008 0.167387 0.735185 0
M  V30 1352 H 130.659 1.048 1.5063 0
M  V30 1353 H 129.041 0.106367 3.95857 0
M  V30 1354 H 130.215 2.93623 3.55137 0
M  V30 1355 H 128.53 2.52948 3.30766 0
M  V30 1356 H 131.127 0.602202 5.31298 0
M  V30 1357 H 131.47 -0.622672 4.11617 0
M  V30 1358 H 132.003 1.05286 3.83614 0
M  V30 1359 H 128.742 3.53101 5.52268 0
M  V30 1360 H 128.262 1.82896 5.71235 0
M  V30 1361 H 129.941 2.32676 6.03714 0
M  V30 1362 N 130.073 -1.45103 0.615059 0
M  V30 1363 C 131.484 -1.85654 0.197383 0
M  V30 1364 C 131.835 -1.51433 -1.24749 0
M  V30 1365 O 130.96 -0.944608 -1.94695 0
M  V30 1366 C 131.555 -3.36972 0.351448 0
M  V30 1367 C 130.114 -3.76398 -0.011593 0
M  V30 1368 C 129.261 -2.69024 0.672394 0
M  V30 1369 H 132.212 -1.35797 0.821263 0
M  V30 1370 H 132.233 -3.78239 -0.414227 0
M  V30 1371 H 131.745 -3.61847 1.40314 0
M  V30 1372 H 129.846 -3.5714 -1.06217 0
M  V30 1373 H 129.959 -4.77532 0.387265 0
M  V30 1374 H 128.323 -2.54465 0.109284 0
M  V30 1375 H 129.106 -2.96735 1.72636 0
M  V30 1376 N 131.551 -0.354651 -1.53558 0
M  V30 1377 C 132.481 0.489091 -2.2832 0
M  V30 1378 C 133.462 1.09324 -1.30316 0
M  V30 1379 O 134.647 1.11255 -1.59173 0
M  V30 1380 C 131.777 1.63456 -3.0643 0
M  V30 1381 C 130.731 1.1582 -4.12031 0
M  V30 1382 C 130.057 2.39305 -4.7816 0
M  V30 1383 C 131.357 0.250731 -5.21698 0
M  V30 1384 H 133.051 -0.134614 -2.99097 0
M  V30 1385 H 130.597 -0.0661826 -1.43848 0
M  V30 1386 H 132.55 2.23136 -3.57475 0
M  V30 1387 H 131.274 2.28533 -2.33325 0
M  V30 1388 H 129.933 0.584146 -3.61916 0
M  V30 1389 H 129.581 3.02814 -4.01637 0
M  V30 1390 H 129.281 2.08109 -5.49513 0
M  V30 1391 H 130.805 2.99691 -5.31994 0
M  V30 1392 H 132.219 0.754695 -5.68311 0
M  V30 1393 H 130.616 0.0301468 -6.00092 0
M  V30 1394 H 131.686 -0.710125 -4.79672 0
M  V30 1395 N 133.029 1.57378 -0.0835403 0
M  V30 1396 C 134.276 1.9393 0.58287 0
M  V30 1397 C 134.604 0.964455 1.68904 0
M  V30 1398 O 133.859 -0.0179474 1.95692 0
M  V30 1399 C 134.158 3.37063 1.1884 0
M  V30 1400 C 133.824 4.50424 0.207194 0
M  V30 1401 C 132.486 4.81159 -0.0627115 0
M  V30 1402 C 134.838 5.19136 -0.463426 0
M  V30 1403 C 132.166 5.77939 -1.01012 0
M  V30 1404 C 134.518 6.16931 -1.39924 0
M  V30 1405 C 133.182 6.46078 -1.67749 0
M  V30 1406 H 132.452 0.70964 0.213287 0
M  V30 1407 H 135.099 1.90856 -0.156916 0
M  V30 1408 H 133.404 3.3666 2.00418 0
M  V30 1409 H 135.101 3.6264 1.71153 0
M  V30 1410 H 131.691 4.2646 0.427747 0
M  V30 1411 H 135.875 4.95576 -0.268034 0
M  V30 1412 H 131.131 5.98842 -1.23283 0
M  V30 1413 H 135.305 6.69273 -1.92476 0
M  V30 1414 H 132.932 7.2088 -2.41321 0
M  V30 1415 N 134.507 -0.190092 1.56449 0
M  V30 1416 C 135.754 -0.909705 1.80916 0
M  V30 1417 C 136.082 -1.83047 0.657583 0
M  V30 1418 O 135.337 -1.92428 -0.356356 0
M  V30 1419 C 135.636 -1.75382 3.1141 0
M  V30 1420 C 135.302 -0.983606 4.40041 0
M  V30 1421 C 133.964 -0.770967 4.74984 0
M  V30 1422 C 136.316 -0.442024 5.19322 0
M  V30 1423 C 133.644 -0.0053448 5.867 0
M  V30 1424 C 135.996 0.310412 6.31838 0
M  V30 1425 C 134.66 0.534023 6.6536 0
M  V30 1426 H 133.93 -0.332885 0.662019 0
M  V30 1427 H 136.577 -0.175762 1.90692 0
M  V30 1428 H 134.882 -2.55659 2.96893 0
M  V30 1429 H 136.579 -2.31331 3.27547 0
M  V30 1430 H 133.169 -1.15936 4.12622 0
M  V30 1431 H 137.353 -0.593693 4.92736 0
M  V30 1432 H 132.609 0.177825 6.11141 0
M  V30 1433 H 136.783 0.737419 6.92485 0
M  V30 1434 H 134.41 1.12918 7.51767 0
M  V30 1435 N 135.985 -1.50799 -0.457987 0
M  V30 1436 C 136.915 -1.73553 -1.5621 0
M  V30 1437 C 137.896 -0.584774 -1.59732 0
M  V30 1438 O 139.081 -0.825314 -1.7579 0
M  V30 1439 C 136.211 -1.84169 -2.94447 0
M  V30 1440 C 135.165 -2.99461 -3.0579 0
M  V30 1441 C 134.491 -2.95235 -4.45803 0
M  V30 1442 C 135.791 -4.39766 -2.81786 0
M  V30 1443 H 137.485 -2.66 -1.37421 0
M  V30 1444 H 135.031 -1.28002 -0.659662 0
M  V30 1445 H 136.984 -1.98672 -3.71628 0
M  V30 1446 H 135.708 -0.883545 -3.14422 0
M  V30 1447 H 134.367 -2.8463 -2.31044 0
M  V30 1448 H 134.015 -1.97239 -4.62715 0
M  V30 1449 H 133.715 -3.72642 -4.54326 0
M  V30 1450 H 135.239 -3.11803 -5.24987 0
M  V30 1451 H 136.653 -4.55054 -3.4871 0
M  V30 1452 H 135.05 -5.18722 -3.0174 0
M  V30 1453 H 136.12 -4.51229 -1.7754 0
M  V30 1454 N 137.463 0.71206 -1.40597 0
M  V30 1455 C 138.373 1.8562 -1.43466 0
M  V30 1456 C 139.389 1.70902 -0.326902 0
M  V30 1457 O 140.565 1.93105 -0.572043 0
M  V30 1458 C 137.63 3.21451 -1.29884 0
M  V30 1459 C 136.691 3.48398 -2.50833 0
M  V30 1460 C 135.924 4.77749 -2.3789 0
M  V30 1461 O 136.147 5.53089 -1.39459 0
M  V30 1462 O 135.081 5.05111 -3.27333 0
M  V30 1463 H 138.907 1.86155 -2.39958 0
M  V30 1464 H 136.492 0.86295 -1.21957 0
M  V30 1465 H 138.374 4.02579 -1.24531 0
M  V30 1466 H 137.049 3.21636 -0.364997 0
M  V30 1467 H 135.956 2.67265 -2.61763 0
M  V30 1468 H 137.289 3.53014 -3.4299 0
M  V30 1469 N 138.941 1.26152 0.944643 0
M  V30 1470 C 139.871 1.09902 2.06019 0
M  V30 1471 C 140.852 0.00519538 1.70099 0
M  V30 1472 O 142.037 0.176583 1.93396 0
M  V30 1473 C 139.167 0.727562 3.39594 0
M  V30 1474 C 138.121 1.77274 3.89561 0
M  V30 1475 C 137.447 1.25569 5.19747 0
M  V30 1476 C 138.747 3.17357 4.14827 0
M  V30 1477 H 140.441 2.03217 2.19871 0
M  V30 1478 H 137.987 0.978452 1.05652 0
M  V30 1479 H 139.94 0.600777 4.17095 0
M  V30 1480 H 138.664 -0.241287 3.25707 0
M  V30 1481 H 137.323 1.88814 3.14237 0
M  V30 1482 H 136.971 0.276783 5.02238 0
M  V30 1483 H 136.671 1.95433 5.54148 0
M  V30 1484 H 138.195 1.1415 5.99835 0
M  V30 1485 H 139.609 3.08914 4.82954 0
M  V30 1486 H 138.006 3.84781 4.60504 0
M  V30 1487 H 139.076 3.63673 3.20734 0
M  V30 1488 N 140.419 -1.14872 1.07899 0
M  V30 1489 C 141.644 -1.90202 0.826926 0
M  V30 1490 C 142.069 -1.77774 -0.614664 0
M  V30 1491 O 141.427 -1.11431 -1.43013 0
M  V30 1492 C 141.475 -3.38352 1.24702 0
M  V30 1493 O 140.579 -4.10497 0.39575 0
M  V30 1494 H 139.92 -0.591968 0.300782 0
M  V30 1495 H 142.45 -1.45437 1.43907 0
M  V30 1496 H 142.46 -3.89156 1.22563 0
M  V30 1497 H 141.135 -3.46715 2.29698 0
M  V30 1498 H 139.712 -3.69796 0.480117 0
M  V30 1499 N 141.898 -0.863906 -1.31812 0
M  V30 1500 C 142.828 -0.330843 -2.31144 0
M  V30 1501 C 143.809 0.575005 -1.60087 0
M  V30 1502 O 144.994 0.493304 -1.8783 0
M  V30 1503 C 142.124 0.47374 -3.44054 0
M  V30 1504 C 141.078 -0.338481 -4.26659 0
M  V30 1505 C 140.404 0.591412 -5.31419 0
M  V30 1506 C 141.704 -1.56926 -4.98168 0
M  V30 1507 H 143.398 -1.16086 -2.75979 0
M  V30 1508 H 140.944 -0.559657 -1.32679 0
M  V30 1509 H 142.897 0.857143 -4.12591 0
M  V30 1510 H 141.621 1.33721 -2.9797 0
M  V30 1511 H 140.28 -0.703754 -3.59782 0
M  V30 1512 H 139.928 1.45199 -4.81587 0
M  V30 1513 H 139.628 0.0519022 -5.87577 0
M  V30 1514 H 141.152 0.97179 -6.02817 0
M  V30 1515 H 142.566 -1.25764 -5.59336 0
M  V30 1516 H 140.963 -2.04739 -5.64094 0
M  V30 1517 H 142.033 -2.32544 -4.25501 0
M  V30 1518 N 143.376 1.44774 -0.622745 0
M  V30 1519 C 144.624 2.01721 -0.123655 0
M  V30 1520 C 144.945 1.49172 1.25589 0
M  V30 1521 O 144.215 0.691974 1.83272 0
M  V30 1522 H 142.795 0.745777 -0.0427225 0
M  V30 1523 H 145.457 1.77382 -0.807559 0
M  V30 1524 H 144.553 3.11984 -0.0849534 0
M  V30 1525 N 144.854 0.36279 1.53368 0
M  V30 1526 C 145.786 -0.519668 2.23231 0
M  V30 1527 C 146.799 -1.04844 1.24546 0
M  V30 1528 O 147.988 -0.955296 1.50786 0
M  V30 1529 C 145.088 -1.72995 2.9142 0
M  V30 1530 C 144.261 -1.33316 4.16588 0
M  V30 1531 C 143.32 -2.40521 4.68013 0
M  V30 1532 O 142.346 -2.03027 5.3176 0
M  V30 1533 N 143.548 -3.72065 4.45587 0
M  V30 1534 H 146.313 0.078751 2.99597 0
M  V30 1535 H 143.874 0.187833 1.60807 0
M  V30 1536 H 145.866 -2.44184 3.22733 0
M  V30 1537 H 144.436 -2.2353 2.18525 0
M  V30 1538 H 143.656 -0.451236 3.91609 0
M  V30 1539 H 144.944 -1.04432 4.97967 0
M  V30 1540 H 144.342 -4.05304 3.94646 0
M  V30 1541 H 142.899 -4.39366 4.81457 0
M  V30 1542 N 146.332 -1.57332 0.0918853 0
M  V30 1543 C 147.579 -1.94236 -0.572577 0
M  V30 1544 C 147.907 -0.973398 -1.6839 0
M  V30 1545 O 147.162 0.00756912 -1.95699 0
M  V30 1546 C 147.461 -3.37689 -1.17051 0
M  V30 1547 C 147.127 -4.50527 -0.183304 0
M  V30 1548 C 145.789 -4.81119 0.0882276 0
M  V30 1549 C 148.141 -5.18883 0.49095 0
M  V30 1550 C 145.469 -5.77395 1.04076 0
M  V30 1551 C 147.821 -6.1618 1.43193 0
M  V30 1552 C 146.485 -6.45179 1.71173 0
M  V30 1553 H 145.755 -0.710762 -0.209521 0
M  V30 1554 H 148.402 -1.9077 0.167036 0
M  V30 1555 H 146.707 -3.37718 -1.9863 0
M  V30 1556 H 148.404 -3.63543 -1.69227 0
M  V30 1557 H 144.994 -4.26681 -0.405124 0
M  V30 1558 H 149.178 -4.95427 0.294312 0
M  V30 1559 H 144.434 -5.98179 1.26457 0
M  V30 1560 H 148.608 -6.68243 1.96023 0
M  V30 1561 H 146.235 -7.1959 2.4514 0
M  V30 1562 N 147.81 0.181792 -1.56548 0
M  V30 1563 C 149.035 0.920019 -1.85877 0
M  V30 1564 C 149.46 1.75494 -0.677021 0
M  V30 1565 O 148.818 1.77399 0.374056 0
M  V30 1566 C 148.866 1.78112 -3.13542 0
M  V30 1567 O 147.97 2.88152 -2.95029 0
M  V30 1568 H 147.311 0.258334 -0.611686 0
M  V30 1569 H 149.841 0.183092 -2.03779 0
M  V30 1570 H 149.851 2.18314 -3.44678 0
M  V30 1571 H 148.526 1.16777 -3.99169 0
M  V30 1572 H 147.103 2.51609 -2.75222 0
M  V30 1573 N 149.288 1.51039 0.449983 0
M  V30 1574 C 150.513 1.6715 1.22783 0
M  V30 1575 C 150.938 0.363081 1.84563 0
M  V30 1576 O 150.296 -0.675433 1.68249 0
M  V30 1577 C 150.344 2.77985 2.29689 0
M  V30 1578 O 149.448 2.40707 3.34864 0
M  V30 1579 H 148.789 0.557746 0.360299 0
M  V30 1580 H 151.319 1.97535 0.533005 0
M  V30 1581 H 151.329 3.01693 2.74673 0
M  V30 1582 H 150.004 3.72935 1.84098 0
M  V30 1583 H 148.581 2.27523 2.95445 0
M  V30 1584 N 150.766 -0.704594 1.40972 0
M  V30 1585 C 151.696 -1.83124 1.44872 0
M  V30 1586 C 152.677 -1.67281 0.30838 0
M  V30 1587 O 153.862 -1.87149 0.518556 0
M  V30 1588 C 150.992 -3.21181 1.32136 0
M  V30 1589 C 149.946 -3.51714 2.43888 0
M  V30 1590 C 149.272 -4.89032 2.16222 0
M  V30 1591 C 150.572 -3.516 3.86232 0
M  V30 1592 H 152.266 -1.80117 2.39161 0
M  V30 1593 H 149.812 -0.865145 1.15114 0
M  V30 1594 H 151.765 -3.99702 1.33479 0
M  V30 1595 H 150.489 -3.24791 0.343279 0
M  V30 1596 H 149.148 -2.75539 2.41813 0
M  V30 1597 H 148.796 -4.89256 1.16778 0
M  V30 1598 H 148.496 -5.10426 2.911 0
M  V30 1599 H 150.02 -5.69873 2.19265 0
M  V30 1600 H 151.434 -4.2014 3.9007 0
M  V30 1601 H 149.831 -3.84523 4.60719 0
M  V30 1602 H 150.901 -2.50757 4.15029 0
M  V30 1603 N 152.244 -1.26651 -0.937939 0
M  V30 1604 C 153.492 -1.12165 -1.68118 0
M  V30 1605 C 153.813 0.334983 -1.92101 0
M  V30 1606 O 153.083 1.23583 -1.52 0
M  V30 1607 H 151.663 -0.412093 -0.623048 0
M  V30 1608 H 154.325 -1.59027 -1.12678 0
M  V30 1609 H 153.421 -1.64289 -2.6536 0
M  V30 1610 N 153.722 1.14298 -1.08507 0
M  V30 1611 C 155.133 1.66926 -0.836227 0
M  V30 1612 C 155.484 1.85576 0.63686 0
M  V30 1613 O 154.609 1.56767 1.49175 0
M  V30 1614 C 155.204 3.03219 -1.51142 0
M  V30 1615 C 153.763 3.52876 -1.30979 0
M  V30 1616 C 152.91 2.2833 -1.57356 0
M  V30 1617 H 155.861 0.983491 -1.24552 0
M  V30 1618 H 155.882 3.68726 -0.939211 0
M  V30 1619 H 155.394 2.89612 -2.58353 0
M  V30 1620 H 153.495 3.71703 -0.258429 0
M  V30 1621 H 153.608 4.33586 -2.03814 0
M  V30 1622 H 151.972 2.34454 -0.995164 0
M  V30 1623 H 152.755 2.17298 -2.65775 0
M  V30 1624 N 155.201 0.870884 1.31352 0
M  V30 1625 C 156.131 0.343096 2.30966 0
M  V30 1626 C 157.112 -0.566507 1.60389 0
M  V30 1627 O 158.297 -0.483336 1.88089 0
M  V30 1628 C 155.427 -0.455487 3.443 0
M  V30 1629 C 154.381 0.361103 4.26474 0
M  V30 1630 C 153.707 -0.563221 5.31725 0
M  V30 1631 C 155.007 1.59566 4.97329 0
M  V30 1632 H 156.701 1.17548 2.75359 0
M  V30 1633 H 154.247 0.566686 1.32381 0
M  V30 1634 H 156.2 -0.83525 4.13039 0
M  V30 1635 H 154.924 -1.32139 2.98675 0
M  V30 1636 H 153.583 0.722825 3.59403 0
M  V30 1637 H 153.231 -1.42643 4.82351 0
M  V30 1638 H 152.931 -0.0207409 5.87596 0
M  V30 1639 H 154.455 -0.939808 6.03324 0
M  V30 1640 H 155.869 1.28728 5.58661 0
M  V30 1641 H 154.266 2.07728 5.63 0
M  V30 1642 H 155.336 2.34798 4.24262 0
M  V30 1643 N 156.679 -1.44442 0.630414 0
M  V30 1644 C 157.642 -2.29107 -0.0652523 0
M  V30 1645 C 158.642 -1.41002 -0.772995 0
M  V30 1646 O 159.832 -1.62881 -0.617692 0
M  V30 1647 C 156.964 -3.22564 -1.10296 0
M  V30 1648 H 158.157 -2.92103 0.679401 0
M  V30 1649 H 155.71 -1.51343 0.390517 0
M  V30 1650 H 156.445 -2.64416 -1.87762 0
M  V30 1651 H 156.23 -3.87491 -0.59941 0
M  V30 1652 H 157.72 -3.86167 -1.5895 0
M  V30 1653 N 158.157 -0.370918 -1.53173 0
M  V30 1654 C 159.403 0.217423 -2.01631 0
M  V30 1655 C 159.736 1.47983 -1.25756 0
M  V30 1656 O 159.011 1.91274 -0.352764 0
M  V30 1657 C 159.294 0.503982 -3.56556 0
M  V30 1658 C 159.147 -0.77243 -4.43118 0
M  V30 1659 C 160.466 1.30234 -4.20389 0
M  V30 1660 H 157.585 0.0775486 -0.732909 0
M  V30 1661 H 160.227 -0.496863 -1.83388 0
M  V30 1662 H 158.377 1.11248 -3.72231 0
M  V30 1663 H 160.049 -1.4098 -4.39229 0
M  V30 1664 H 158.292 -1.39167 -4.10871 0
M  V30 1665 H 158.963 -0.526815 -5.4948 0
M  V30 1666 H 161.439 0.787546 -4.08579 0
M  V30 1667 H 160.315 1.47158 -5.28806 0
M  V30 1668 H 160.576 2.31237 -3.76805 0
M  V30 1669 N 159.635 1.57281 -0.100228 0
M  V30 1670 C 160.881 1.95626 0.556946 0
M  V30 1671 C 161.236 0.981655 1.65473 0
M  V30 1672 O 160.529 0.00849847 1.91598 0
M  V30 1673 C 160.723 3.38305 1.15259 0
M  V30 1674 C 160.552 4.49555 0.114035 0
M  V30 1675 C 159.322 5.0434 -0.311266 0
M  V30 1676 C 161.52 5.10051 -0.659768 0
M  V30 1677 N 159.502 5.99152 -1.33755 0
M  V30 1678 C 160.873 6.00628 -1.53774 0
M  V30 1679 C 162.928 4.92772 -0.712723 0
M  V30 1680 C 161.631 6.7578 -2.46403 0
M  V30 1681 C 163.657 5.6859 -1.62663 0
M  V30 1682 C 163.019 6.58838 -2.49222 0
M  V30 1683 H 159.118 0.7624 0.173982 0
M  V30 1684 H 161.702 1.93829 -0.183988 0
M  V30 1685 H 159.873 3.40786 1.86332 0
M  V30 1686 H 161.605 3.63817 1.77254 0
M  V30 1687 H 158.36 4.73537 0.0774812 0
M  V30 1688 H 158.784 6.5126 -1.84905 0
M  V30 1689 H 163.426 4.22761 -0.0576648 0
M  V30 1690 H 161.144 7.4505 -3.12931 0
M  V30 1691 H 164.73 5.57233 -1.67281 0
M  V30 1692 H 163.61 7.16479 -3.18791 0
M  V30 1693 N 161.113 -0.173488 1.56642 0
M  V30 1694 C 162.06 -1.21482 1.96242 0
M  V30 1695 C 163.03 -1.44104 0.826027 0
M  V30 1696 O 164.215 -1.5688 1.08597 0
M  V30 1697 C 161.355 -2.54964 2.32567 0
M  V30 1698 C 160.468 -2.39739 3.59373 0
M  V30 1699 C 159.603 -3.66072 3.84921 0
M  V30 1700 C 158.642 -3.45771 5.05083 0
M  V30 1701 N 157.779 -4.64169 5.26775 0
M  V30 1702 H 162.619 -0.870123 2.85014 0
M  V30 1703 H 160.156 -0.418245 1.41029 0
M  V30 1704 H 162.114 -3.32758 2.5165 0
M  V30 1705 H 160.744 -2.87433 1.46908 0
M  V30 1706 H 159.796 -1.53131 3.48217 0
M  V30 1707 H 161.108 -2.20683 4.47326 0
M  V30 1708 H 160.262 -4.52303 4.0436 0
M  V30 1709 H 159.001 -3.88105 2.9534 0
M  V30 1710 H 158.006 -2.57927 4.85545 0
M  V30 1711 H 159.231 -3.25163 5.96193 0
M  V30 1712 H 157.177 -4.86425 4.40144 0
M  V30 1713 H 157.094 -4.48019 6.08946 0
M  V30 1714 H 158.362 -5.51689 5.5069 0
M  V30 1715 N 162.591 -1.51276 -0.441967 0
M  V30 1716 C 163.84 -1.6295 -1.18871 0
M  V30 1717 C 164.153 -0.349312 -1.92456 0
M  V30 1718 O 165.359 -0.345355 -2.69295 0
M  V30 1719 C 163.815 -2.87759 -2.16155 0
M  V30 1720 C 163.423 -4.22764 -1.48239 0
M  V30 1721 C 165.167 -3.08788 -2.91291 0
M  V30 1722 C 163.074 -5.38728 -2.4398 0
M  V30 1723 H 162.004 -0.606913 -0.447406 0
M  V30 1724 H 164.655 -1.77739 -0.456205 0
M  V30 1725 H 163.037 -2.66593 -2.92821 0
M  V30 1726 H 164.211 -4.54293 -0.771635 0
M  V30 1727 H 162.526 -4.07575 -0.852741 0
M  V30 1728 H 165.123 -3.92599 -3.63002 0
M  V30 1729 H 165.466 -2.21679 -3.5237 0
M  V30 1730 H 165.999 -3.30272 -2.21733 0
M  V30 1731 H 162.738 -6.28082 -1.87598 0
M  V30 1732 H 162.258 -5.1158 -3.13123 0
M  V30 1733 H 163.937 -5.70489 -3.05207 0
M  V30 1734 N 164.069 0.697108 -1.41344 0
M  V30 1735 C 165.294 1.49096 -1.44171 0
M  V30 1736 C 165.719 1.88038 -0.0481568 0
M  V30 1737 O 165.077 1.54525 0.948243 0
M  V30 1738 C 165.125 2.73088 -2.3549 0
M  V30 1739 O 164.229 3.70514 -1.81088 0
M  V30 1740 H 163.57 0.448801 -0.489361 0
M  V30 1741 H 166.1 0.856992 -1.85787 0
M  V30 1742 H 166.11 3.21413 -2.51312 0
M  V30 1743 H 164.785 2.44081 -3.36745 0
M  V30 1744 H 163.362 3.29441 -1.74708 0
M  V30 1745 N 165.547 1.27147 0.931209 0
M  V30 1746 C 166.958 1.12044 1.49342 0
M  V30 1747 C 167.309 -0.295795 1.93957 0
M  V30 1748 O 166.434 -1.18835 1.80852 0
M  V30 1749 C 167.029 2.02781 2.71414 0
M  V30 1750 C 165.588 1.91794 3.2387 0
M  V30 1751 C 164.735 1.95543 1.96617 0
M  V30 1752 H 167.686 1.40091 0.745672 0
M  V30 1753 H 167.707 1.58156 3.46074 0
M  V30 1754 H 167.219 3.05848 2.38911 0
M  V30 1755 H 165.32 0.916992 3.6114 0
M  V30 1756 H 165.433 2.77852 3.90302 0
M  V30 1757 H 163.797 1.39722 2.12955 0
M  V30 1758 H 164.58 3.00259 1.66432 0
M  V30 1759 N 167.025 -1.13721 1.09112 0
M  V30 1760 C 167.955 -2.21148 0.749385 0
M  V30 1761 C 168.936 -1.6792 -0.271475 0
M  V30 1762 O 170.121 -1.93693 -0.140251 0
M  V30 1763 C 167.251 -3.46905 0.165659 0
M  V30 1764 C 166.205 -4.13203 1.11567 0
M  V30 1765 C 165.531 -5.33248 0.393809 0
M  V30 1766 C 166.831 -4.60912 2.45678 0
M  V30 1767 H 168.525 -2.4999 1.64758 0
M  V30 1768 H 166.071 -1.20156 0.793626 0
M  V30 1769 H 168.024 -4.21313 -0.085466 0
M  V30 1770 H 166.748 -3.17449 -0.767714 0
M  V30 1771 H 165.407 -3.40758 1.35202 0
M  V30 1772 H 165.055 -5.00054 -0.543599 0
M  V30 1773 H 164.755 -5.78552 1.02721 0
M  V30 1774 H 166.279 -6.10413 0.150908 0
M  V30 1775 H 167.693 -5.26759 2.26269 0
M  V30 1776 H 166.09 -5.16944 3.04776 0
M  V30 1777 H 167.16 -3.75603 3.06677 0
M  V30 1778 N 168.503 -0.877838 -1.30888 0
M  V30 1779 C 169.75 -0.492696 -1.96415 0
M  V30 1780 C 170.078 0.956671 -1.69346 0
M  V30 1781 O 169.333 1.68993 -0.986913 0
M  V30 1782 C 169.632 -0.705748 -3.50363 0
M  V30 1783 C 169.298 -2.1291 -3.97467 0
M  V30 1784 C 167.96 -2.51834 -4.1004 0
M  V30 1785 C 170.312 -3.05702 -4.22132 0
M  V30 1786 C 167.64 -3.82775 -4.44635 0
M  V30 1787 C 169.992 -4.36166 -4.58194 0
M  V30 1788 C 168.656 -4.74993 -4.68975 0
M  V30 1789 H 167.926 -0.18029 -0.718733 0
M  V30 1790 H 170.573 -1.11233 -1.55883 0
M  V30 1791 H 168.878 -0.00303058 -3.918 0
M  V30 1792 H 170.575 -0.387456 -3.99124 0
M  V30 1793 H 167.165 -1.81694 -3.88182 0
M  V30 1794 H 171.349 -2.76853 -4.11906 0
M  V30 1795 H 166.605 -4.12609 -4.51181 0
M  V30 1796 H 170.779 -5.08111 -4.76231 0
M  V30 1797 H 168.406 -5.76495 -4.95537 0
M  V30 1798 N 169.982 1.44106 -0.638065 0
M  V30 1799 C 170.929 2.30715 0.062701 0
M  V30 1800 C 171.899 1.43882 0.829883 0
M  V30 1801 O 173.084 1.72775 0.809532 0
M  V30 1802 C 170.224 3.29258 1.03358 0
M  V30 1803 C 169.337 4.31192 0.26409 0
M  V30 1804 C 168.472 5.16825 1.22741 0
M  V30 1805 C 167.511 6.10462 0.447475 0
M  V30 1806 N 166.648 6.8877 1.36161 0
M  V30 1807 H 171.488 2.90096 -0.681781 0
M  V30 1808 H 169.025 1.42925 -0.347988 0
M  V30 1809 H 170.983 3.84886 1.60992 0
M  V30 1810 H 169.613 2.71562 1.74511 0
M  V30 1811 H 168.665 3.77981 -0.428295 0
M  V30 1812 H 169.977 4.97619 -0.343052 0
M  V30 1813 H 169.131 5.77004 1.87487 0
M  V30 1814 H 167.87 4.50488 1.86847 0
M  V30 1815 H 166.875 5.49386 -0.213433 0
M  V30 1816 H 168.1 6.78837 -0.188968 0
M  V30 1817 H 166.046 6.25096 1.98975 0
M  V30 1818 H 165.963 7.51663 0.808656 0
M  V30 1819 H 167.231 7.53467 1.99769 0
M  V30 1820 N 171.46 0.379036 1.52974 0
M  V30 1821 C 172.708 -0.206014 2.01047 0
M  V30 1822 C 173.029 -1.48175 1.26765 0
M  V30 1823 O 172.299 -1.92085 0.384743 0
M  V30 1824 H 170.879 -0.0791184 0.742798 0
M  V30 1825 H 173.541 0.508366 1.88153 0
M  V30 1826 H 172.637 -0.423501 3.09213 0
M  V30 1827 N 172.938 -1.57226 0.108567 0
M  V30 1828 C 173.901 -2.13602 -0.831082 0
M  V30 1829 C 174.901 -1.06841 -1.20173 0
M  V30 1830 O 176.091 -1.32666 -1.12895 0
M  V30 1831 C 173.223 -2.66769 -2.12243 0
M  V30 1832 H 174.416 -2.97951 -0.341317 0
M  V30 1833 H 171.969 -1.55667 -0.14057 0
M  V30 1834 H 172.704 -1.85977 -2.65675 0
M  V30 1835 H 172.489 -3.44839 -1.86625 0
M  V30 1836 H 173.979 -3.10332 -2.79435 0
M  V30 1837 N 174.416 0.165178 -1.56732 0
M  V30 1838 C 175.664 0.879068 -1.8198 0
M  V30 1839 C 175.985 1.82514 -0.686561 0
M  V30 1840 O 175.255 1.93694 0.293146 0
M  V30 1841 H 173.835 0.327608 -0.671329 0
M  V30 1842 H 176.497 0.163526 -1.94213 0
M  V30 1843 H 175.593 1.45228 -2.76252 0
M  V30 1844 N 175.894 1.51508 0.433938 0
M  V30 1845 C 176.857 1.72473 1.50949 0
M  V30 1846 C 177.857 0.594725 1.49398 0
M  V30 1847 O 179.047 0.862315 1.5136 0
M  V30 1848 C 176.179 1.78431 2.90474 0
M  V30 1849 H 177.372 2.68467 1.33662 0
M  V30 1850 H 174.925 1.41549 0.662836 0
M  V30 1851 H 175.66 0.842645 3.13161 0
M  V30 1852 H 175.445 2.60558 2.93005 0
M  V30 1853 H 176.935 1.96479 3.68491 0
M  V30 1854 N 177.372 -0.689602 1.41712 0
M  V30 1855 C 178.335 -1.78521 1.43746 0
M  V30 1856 C 179.335 -1.57436 0.327191 0
M  V30 1857 O 180.525 -1.64 0.587348 0
M  V30 1858 C 177.657 -3.16971 1.25467 0
M  V30 1859 H 178.85 -1.78108 2.41283 0
M  V30 1860 H 176.403 -0.89781 1.27942 0
M  V30 1861 H 177.138 -3.23019 0.287948 0
M  V30 1862 H 176.923 -3.33678 2.05917 0
M  V30 1863 H 178.413 -3.96935 1.2974 0
M  V30 1864 N 178.85 -1.27639 -0.924453 0
M  V30 1865 C 179.783 -1.04966 -2.02626 0
M  V30 1866 C 180.761 0.0309505 -1.62571 0
M  V30 1867 O 181.945 -0.114846 -1.8815 0
M  V30 1868 C 179.072 -0.59292 -3.3347 0
M  V30 1869 C 178.118 -1.66858 -3.92506 0
M  V30 1870 S 178.951 -3.2619 -4.24689 0
M  V30 1871 C 180.107 -2.82325 -5.58609 0
M  V30 1872 H 180.34 -1.98252 -2.21547 0
M  V30 1873 H 177.873 -1.11506 -1.06798 0
M  V30 1874 H 179.831 -0.336086 -4.09122 0
M  V30 1875 H 178.492 0.319939 -3.12466 0
M  V30 1876 H 177.685 -1.30038 -4.86935 0
M  V30 1877 H 177.287 -1.87766 -3.2345 0
M  V30 1878 H 179.579 -2.2783 -6.38044 0
M  V30 1879 H 180.522 -3.75511 -6.00331 0
M  V30 1880 H 180.93 -2.21367 -5.19285 0
M  V30 1881 N 180.328 1.1314 -1.09713 0
M  V30 1882 C 181.258 2.20748 -0.761102 0
M  V30 1883 C 182.239 1.68061 0.262566 0
M  V30 1884 O 183.424 1.93765 0.129977 0
M  V30 1885 C 180.554 3.46812 -0.184054 0
M  V30 1886 C 179.508 4.12606 -1.13757 0
M  V30 1887 C 178.834 5.33031 -0.422083 0
M  V30 1888 C 180.134 4.59603 -2.48118 0
M  V30 1889 H 181.828 2.49113 -1.66082 0
M  V30 1890 H 179.374 1.19734 -0.799987 0
M  V30 1891 H 181.327 4.21353 0.0631215 0
M  V30 1892 H 180.051 3.17851 0.750868 0
M  V30 1893 H 178.71 3.40036 -1.37007 0
M  V30 1894 H 178.358 5.00335 0.517072 0
M  V30 1895 H 178.058 5.77999 -1.05788 0
M  V30 1896 H 179.582 6.10325 -0.183277 0
M  V30 1897 H 180.996 5.25552 -2.29059 0
M  V30 1898 H 179.393 5.15321 -3.07514 0
M  V30 1899 H 180.463 3.73971 -3.08665 0
M  V30 1900 N 181.806 0.884767 1.30421 0
M  V30 1901 C 182.736 0.367574 2.30589 0
M  V30 1902 C 183.717 -0.549464 1.60981 0
M  V30 1903 O 184.902 -0.46336 1.88591 0
M  V30 1904 C 182.032 -0.418944 3.44764 0
M  V30 1905 C 180.986 0.406316 4.26067 0
M  V30 1906 C 180.312 -0.506793 5.32293 0
M  V30 1907 C 181.612 1.64832 4.95608 0
M  V30 1908 H 183.306 1.20462 2.74097 0
M  V30 1909 H 180.852 0.580695 1.31772 0
M  V30 1910 H 182.805 -0.791395 4.13902 0
M  V30 1911 H 181.529 -1.28964 3.0006 0
M  V30 1912 H 180.188 0.760903 3.58617 0
M  V30 1913 H 179.836 -1.37519 4.83836 0
M  V30 1914 H 179.536 0.0415828 5.87585 0
M  V30 1915 H 181.06 -0.875764 6.04287 0
M  V30 1916 H 182.474 1.34646 5.57264 0
M  V30 1917 H 180.871 2.13688 5.60765 0
M  V30 1918 H 181.941 2.39284 4.21748 0
M  V30 1919 N 183.284 -1.43765 0.645699 0
M  V30 1920 C 184.533 -2.01116 0.153412 0
M  V30 1921 C 184.846 -1.51493 -1.23731 0
M  V30 1922 O 186.052 -2.01067 -1.8244 0
M  V30 1923 C 184.508 -3.59206 0.223473 0
M  V30 1924 C 184.116 -4.17823 1.61642 0
M  V30 1925 C 185.86 -4.23972 -0.211597 0
M  V30 1926 C 183.767 -5.68183 1.64081 0
M  V30 1927 H 182.697 -0.752093 0.0535891 0
M  V30 1928 H 185.348 -1.6482 0.806633 0
M  V30 1929 H 183.73 -3.92867 -0.497118 0
M  V30 1930 H 184.904 -3.95674 2.36176 0
M  V30 1931 H 183.219 -3.65399 1.99681 0
M  V30 1932 H 185.816 -5.34275 -0.213112 0
M  V30 1933 H 186.159 -3.97352 -1.24165 0
M  V30 1934 H 186.692 -3.95166 0.456988 0
M  V30 1935 H 183.431 -5.99559 2.64971 0
M  V30 1936 H 182.951 -5.9241 0.938611 0
M  V30 1937 H 184.63 -6.32085 1.3812 0
M  V30 1938 N 184.763 -0.387143 -1.52771 0
M  V30 1939 C 186.009 0.196025 -2.0185 0
M  V30 1940 C 186.342 1.46641 -1.27319 0
M  V30 1941 O 185.617 1.90889 -0.373032 0
M  V30 1942 C 185.9 0.466136 -3.5707 0
M  V30 1943 C 185.753 -0.819385 -4.42274 0
M  V30 1944 C 187.072 1.25768 -4.21747 0
M  V30 1945 H 184.191 0.0697708 -0.73369 0
M  V30 1946 H 186.833 -0.516286 -1.82851 0
M  V30 1947 H 184.983 1.07293 -3.7339 0
M  V30 1948 H 186.655 -1.4563 -4.37709 0
M  V30 1949 H 184.898 -1.43517 -4.09372 0
M  V30 1950 H 185.569 -0.585065 -5.48891 0
M  V30 1951 H 188.045 0.744167 -4.09391 0
M  V30 1952 H 186.921 1.41541 -5.30337 0
M  V30 1953 H 187.182 2.27228 -3.79236 0
M  V30 1954 N 186.241 1.57166 -0.116904 0
M  V30 1955 C 187.489 1.94737 0.540533 0
M  V30 1956 C 187.81 1.00096 1.67349 0
M  V30 1957 O 187.08 0.0568854 1.95817 0
M  V30 1958 H 185.66 0.718981 0.202669 0
M  V30 1959 H 188.322 1.94017 -0.185353 0
M  V30 1960 H 187.418 2.97719 0.936483 0
M  V30 1961 N 187.719 -0.156864 1.56817 0
M  V30 1962 C 188.649 -1.19589 2.00551 0
M  V30 1963 C 189.63 -1.4536 0.883426 0
M  V30 1964 O 190.815 -1.56449 1.15054 0
M  V30 1965 C 187.945 -2.53143 2.37773 0
M  V30 1966 C 186.899 -2.41913 3.53075 0
M  V30 1967 C 186.225 -3.80088 3.76081 0
M  V30 1968 C 187.525 -1.91157 4.86062 0
M  V30 1969 H 189.219 -0.832293 2.87599 0
M  V30 1970 H 186.765 -0.398918 1.38364 0
M  V30 1971 H 188.718 -3.26047 2.66967 0
M  V30 1972 H 187.442 -2.91319 1.4765 0
M  V30 1973 H 186.101 -1.71462 3.24031 0
M  V30 1974 H 185.749 -4.15683 2.83225 0
M  V30 1975 H 185.449 -3.73439 4.53671 0
M  V30 1976 H 186.973 -4.54556 4.0769 0
M  V30 1977 H 188.387 -2.53846 5.14038 0
M  V30 1978 H 186.784 -1.95422 5.67389 0
M  V30 1979 H 187.854 -0.866673 4.77092 0
M  V30 1980 N 189.197 -1.51736 -0.425897 0
M  V30 1981 C 190.443 -1.65214 -1.1761 0
M  V30 1982 C 190.776 -0.372778 -1.90589 0
M  V30 1983 O 190.051 0.628139 -1.84078 0
M  V30 1984 C 190.334 -2.86312 -2.18398 0
M  V30 1985 C 190.187 -4.24254 -1.49426 0
M  V30 1986 C 191.506 -3.02925 -3.19256 0
M  V30 1987 H 188.625 -0.601263 -0.426206 0
M  V30 1988 H 191.267 -1.8425 -0.463882 0
M  V30 1989 H 189.417 -2.70213 -2.79137 0
M  V30 1990 H 191.089 -4.52046 -0.919362 0
M  V30 1991 H 189.332 -4.26426 -0.796432 0
M  V30 1992 H 190.003 -5.05001 -2.22885 0
M  V30 1993 H 192.479 -3.1781 -2.68581 0
M  V30 1994 H 191.355 -3.89199 -3.8706 0
M  V30 1995 H 191.616 -2.15497 -3.86023 0
M  V30 1996 N 190.675 0.682077 -1.42076 0
M  V30 1997 C 191.638 1.77756 -1.44691 0
M  V30 1998 C 192.638 1.5726 -0.335535 0
M  V30 1999 O 193.828 1.63686 -0.596037 0
M  V30 2000 C 190.96 3.16301 -1.27146 0
M  V30 2001 H 192.153 1.76826 -2.42224 0
M  V30 2002 H 189.706 0.891012 -1.28416 0
M  V30 2003 H 190.441 3.22862 -0.305075 0
M  V30 2004 H 190.226 3.32581 -2.07683 0
M  V30 2005 H 191.716 3.96241 -1.31843 0
M  V30 2006 N 192.153 1.28127 0.917671 0
M  V30 2007 C 193.402 1.14432 1.66097 0
M  V30 2008 C 193.715 -0.307247 1.93172 0
M  V30 2009 O 194.921 -0.565259 2.65551 0
M  V30 2010 C 193.377 2.00015 2.99202 0
M  V30 2011 C 192.985 3.49889 2.79789 0
M  V30 2012 C 194.729 1.94996 3.77064 0
M  V30 2013 C 192.636 4.27636 4.08511 0
M  V30 2014 H 191.566 0.424662 0.62304 0
M  V30 2015 H 194.217 1.52628 1.01868 0
M  V30 2016 H 192.599 1.54672 3.64544 0
M  V30 2017 H 193.773 4.03162 2.23152 0
M  V30 2018 H 192.088 3.56392 2.15345 0
M  V30 2019 H 194.685 2.50354 4.72469 0
M  V30 2020 H 195.028 0.925819 4.05875 0
M  V30 2021 H 195.561 2.38287 3.18534 0
M  V30 2022 H 192.3 5.30615 3.84874 0
M  V30 2023 H 191.82 3.79137 4.64774 0
M  V30 2024 H 193.499 4.37346 4.76799 0
M  V30 2025 N 193.631 -1.12557 1.10312 0
M  V30 2026 C 194.861 -1.87592 0.865617 0
M  V30 2027 C 195.269 -1.79851 -0.587389 0
M  V30 2028 O 194.612 -1.16949 -1.41664 0
M  V30 2029 C 194.674 -3.37665 1.23381 0
M  V30 2030 C 194.338 -3.69181 2.69359 0
M  V30 2031 C 195.335 -3.67652 3.67597 0
M  V30 2032 C 193.02 -3.98555 3.05711 0
M  V30 2033 C 195.014 -3.95053 5.00212 0
M  V30 2034 C 192.701 -4.25616 4.38514 0
M  V30 2035 C 193.699 -4.23851 5.35574 0
M  V30 2036 O 193.387 -4.50242 6.65986 0
M  V30 2037 H 193.119 -0.600442 0.310557 0
M  V30 2038 H 195.673 -1.4335 1.47105 0
M  V30 2039 H 193.903 -3.82454 0.571467 0
M  V30 2040 H 195.592 -3.94041 0.973994 0
M  V30 2041 H 196.358 -3.45024 3.40857 0
M  V30 2042 H 192.237 -3.99071 2.30789 0
M  V30 2043 H 195.781 -3.93591 5.75962 0
M  V30 2044 H 191.678 -4.47718 4.64994 0
M  V30 2045 H 192.446 -4.67867 6.71597 0
M  V30 2046 N 195.109 -0.891671 -1.2995 0
M  V30 2047 C 196.339 -0.527893 -1.99742 0
M  V30 2048 C 196.747 0.88979 -1.66971 0
M  V30 2049 O 196.09 1.59766 -0.906667 0
M  V30 2050 C 196.152 -0.630804 -3.53922 0
M  V30 2051 C 195.816 -2.01401 -4.10228 0
M  V30 2052 C 196.813 -2.98422 -4.25724 0
M  V30 2053 C 194.498 -2.32121 -4.45449 0
M  V30 2054 C 196.492 -4.24293 -4.75662 0
M  V30 2055 C 194.179 -3.58237 -4.95086 0
M  V30 2056 C 195.177 -4.54137 -5.10146 0
M  V30 2057 O 194.865 -5.78014 -5.58708 0
M  V30 2058 H 194.597 -0.201953 -0.645129 0
M  V30 2059 H 197.151 -1.20076 -1.66646 0
M  V30 2060 H 195.381 0.0990616 -3.86573 0
M  V30 2061 H 197.07 -0.277338 -4.04951 0
M  V30 2062 H 197.836 -2.76001 -3.98809 0
M  V30 2063 H 193.715 -1.5824 -4.32991 0
M  V30 2064 H 197.259 -4.99153 -4.87332 0
M  V30 2065 H 193.156 -3.80491 -5.21437 0
M  V30 2066 H 193.924 -5.8049 -5.77039 0
M  V30 2067 N 196.587 1.43421 -0.653314 0
M  V30 2068 C 197.535 2.32546 0.0501531 0
M  V30 2069 C 198.529 1.48617 0.812985 0
M  V30 2070 O 199.735 1.64825 0.723375 0
M  V30 2071 H 196.11 0.751185 0.0350032 0
M  V30 2072 H 198.081 2.89602 -0.719261 0
M  V30 2073 C 196.83 3.32925 1.00279 0
M  V30 2074 H 196.153 3.97532 0.425236 0
M  V30 2075 H 197.593 3.9792 1.46409 0
M  V30 2076 C 196.052 2.63532 2.09886 0
M  V30 2077 O 196.582 2.45092 3.18265 0
M  V30 2078 N 194.788 2.22905 1.86445 0
M  V30 2079 H 194.335 2.38103 0.98309 0
M  V30 2080 H 194.293 1.76805 2.59976 0
M  V30 2081 N 198.065 0.39524 1.52563 0
M  V30 2082 C 198.998 -0.4813 2.23067 0
M  V30 2083 C 199.976 -1.05927 1.23362 0
M  V30 2084 O 201.16 -1.10979 1.52368 0
M  V30 2085 C 198.287 -1.66676 2.9485 0
M  V30 2086 C 197.333 -1.21348 4.08873 0
M  V30 2087 S 198.166 -0.190102 5.35162 0
M  V30 2088 C 199.322 -1.38121 6.1047 0
M  V30 2089 H 199.555 0.117381 2.97068 0
M  V30 2090 H 197.088 0.179458 1.53354 0
M  V30 2091 H 199.046 -2.3466 3.36816 0
M  V30 2092 H 197.707 -2.23676 2.20518 0
M  V30 2093 H 196.9 -2.09877 4.58222 0
M  V30 2094 H 196.502 -0.612486 3.68951 0
M  V30 2095 H 198.794 -2.30726 6.37002 0
M  V30 2096 H 199.737 -0.928521 7.01986 0
M  V30 2097 H 200.145 -1.60071 5.41329 0
M  V30 2098 N 199.544 -1.57102 0.125237 0
M  V30 2099 C 200.793 -1.94582 -0.531095 0
M  V30 2100 C 201.106 -1.01126 -1.6743 0
M  V30 2101 O 202.312 -1.28097 -2.39381 0
M  V30 2102 C 200.768 -3.45839 -0.996164 0
M  V30 2103 C 200.376 -4.47842 0.118926 0
M  V30 2104 C 202.12 -3.92227 -1.62352 0
M  V30 2105 C 200.027 -5.90284 -0.363192 0
M  V30 2106 H 198.957 -0.726391 -0.20217 0
M  V30 2107 H 201.608 -1.82339 0.206092 0
M  V30 2108 H 199.99 -3.53338 -1.78796 0
M  V30 2109 H 201.164 -4.52018 0.895358 0
M  V30 2110 H 199.479 -4.11243 0.653324 0
M  V30 2111 H 202.076 -4.96069 -1.99548 0
M  V30 2112 H 202.419 -3.32552 -2.50429 0
M  V30 2113 H 202.952 -3.87554 -0.897019 0
M  V30 2114 H 199.691 -6.53728 0.481679 0
M  V30 2115 H 199.211 -5.89515 -1.10597 0
M  V30 2116 H 200.89 -6.41752 -0.822377 0
M  V30 2117 N 201.022 0.148545 -1.56898 0
M  V30 2118 C 202.271 0.85984 -1.82454 0
M  V30 2119 C 202.584 1.82406 -0.706229 0
M  V30 2120 O 203.79 2.57938 -0.847349 0
M  V30 2121 C 202.246 1.57967 -3.2338 0
M  V30 2122 C 201.854 0.65794 -4.43142 0
M  V30 2123 C 203.598 2.27784 -3.58211 0
M  V30 2124 C 201.505 1.3793 -5.75091 0
M  V30 2125 H 200.435 0.324834 -0.68044 0
M  V30 2126 H 203.086 0.112588 -1.83154 0
M  V30 2127 H 201.468 2.37249 -3.17063 0
M  V30 2128 H 202.642 -0.0995497 -4.60692 0
M  V30 2129 H 200.957 0.0682643 -4.16344 0
M  V30 2130 H 203.554 2.8239 -4.54048 0
M  V30 2131 H 203.897 3.04204 -2.84193 0
M  V30 2132 H 204.43 1.55421 -3.66182 0
M  V30 2133 H 201.169 0.656982 -6.52199 0
M  V30 2134 H 200.689 2.10954 -5.61479 0
M  V30 2135 H 202.368 1.92063 -6.17835 0
M  V30 2136 N 202.5 1.5196 0.417844 0
M  V30 2137 C 203.463 1.74065 1.49111 0
M  V30 2138 C 204.463 0.610537 1.48758 0
M  V30 2139 O 205.653 0.87832 1.50437 0
M  V30 2140 C 202.785 1.81502 2.88565 0
M  V30 2141 H 203.978 2.69869 1.30807 0
M  V30 2142 H 201.531 1.42244 0.647785 0
M  V30 2143 H 202.266 0.875813 3.1225 0
M  V30 2144 H 202.051 2.63651 2.90225 0
M  V30 2145 H 203.541 2.00376 3.66387 0
M  V30 2146 N 203.978 -0.674533 1.42435 0
M  V30 2147 C 205.208 -1.46071 1.46105 0
M  V30 2148 C 205.616 -1.89067 0.0709605 0
M  V30 2149 O 204.959 -1.58731 -0.924677 0
M  V30 2150 C 205.021 -2.74145 2.32561 0
M  V30 2151 C 204.685 -2.53224 3.8043 0
M  V30 2152 C 205.682 -2.17809 4.72075 0
M  V30 2153 C 203.367 -2.6821 4.24698 0
M  V30 2154 C 205.361 -1.97648 6.05982 0
M  V30 2155 C 203.048 -2.47665 5.58664 0
M  V30 2156 C 204.046 -2.12437 6.49122 0
M  V30 2157 O 203.734 -1.9209 7.80613 0
M  V30 2158 H 203.466 -0.455959 0.499076 0
M  V30 2159 H 206.02 -0.836193 1.87609 0
M  V30 2160 H 204.25 -3.3908 1.85908 0
M  V30 2161 H 205.939 -3.36028 2.27683 0
M  V30 2162 H 206.705 -2.05826 4.39159 0
M  V30 2163 H 202.584 -2.94609 3.54579 0
M  V30 2164 H 206.128 -1.70075 6.7655 0
M  V30 2165 H 202.025 -2.59244 5.91154 0
M  V30 2166 H 202.793 -2.06686 7.91974 0
M  V30 2167 N 205.456 -1.28612 -0.910864 0
M  V30 2168 C 206.702 -1.16106 -1.66274 0
M  V30 2169 C 207.035 0.289113 -1.92036 0
M  V30 2170 O 206.31 1.21 -1.52281 0
M  V30 2171 C 206.593 -1.96309 -3.01885 0
M  V30 2172 C 206.446 -3.49405 -2.8326 0
M  V30 2173 C 207.765 -1.78076 -4.02463 0
M  V30 2174 H 204.884 -0.423152 -0.603417 0
M  V30 2175 H 207.526 -1.57961 -1.05586 0
M  V30 2176 H 205.676 -1.60742 -3.53687 0
M  V30 2177 H 207.348 -3.94894 -2.38446 0
M  V30 2178 H 205.591 -3.74893 -2.18261 0
M  V30 2179 H 206.262 -4.00784 -3.79574 0
M  V30 2180 H 208.738 -2.0912 -3.59733 0
M  V30 2181 H 207.614 -2.36561 -4.95308 0
M  V30 2182 H 207.875 -0.733008 -4.35981 0
M  V30 2183 N 206.934 1.1197 -1.10907 0
M  V30 2184 C 207.864 2.19928 -0.784473 0
M  V30 2185 C 208.845 1.6833 0.244726 0
M  V30 2186 O 210.03 1.93892 0.109418 0
M  V30 2187 C 207.16 3.46597 -0.220827 0
M  V30 2188 C 206.114 4.11376 -1.18127 0
M  V30 2189 C 205.44 5.32554 -0.478594 0
M  V30 2190 C 206.74 4.56945 -2.52979 0
M  V30 2191 H 208.434 2.47337 -1.68715 0
M  V30 2192 H 205.98 1.18879 -0.812642 0
M  V30 2193 H 207.933 4.21396 0.0184278 0
M  V30 2194 H 206.657 3.1863 0.717113 0
M  V30 2195 H 205.316 3.38564 -1.40606 0
M  V30 2196 H 204.964 5.00856 0.463976 0
M  V30 2197 H 204.664 5.76844 -1.11912 0
M  V30 2198 H 206.188 6.10096 -0.248 0
M  V30 2199 H 207.602 5.23093 -2.3462 0
M  V30 2200 H 205.999 5.1203 -3.12962 0
M  V30 2201 H 207.069 3.70676 -3.12614 0
M  V30 2202 N 208.412 0.89855 1.29475 0
M  V30 2203 C 209.659 0.523882 1.95606 0
M  V30 2204 C 209.987 -0.929608 1.70847 0
M  V30 2205 O 209.242 -1.67401 1.01367 0
M  V30 2206 C 209.541 0.761398 3.49195 0
M  V30 2207 C 209.207 2.19207 3.94029 0
M  V30 2208 C 207.869 2.58326 4.05982 0
M  V30 2209 C 210.221 3.12379 4.17216 0
M  V30 2210 C 207.549 3.898 4.38489 0
M  V30 2211 C 209.901 4.43401 4.51197 0
M  V30 2212 C 208.565 4.82394 4.61359 0
M  V30 2213 H 207.835 0.191702 0.715773 0
M  V30 2214 H 210.482 1.13699 1.54094 0
M  V30 2215 H 208.787 0.0653622 3.91745 0
M  V30 2216 H 210.484 0.450904 3.98457 0
M  V30 2217 H 207.074 1.87846 3.85242 0
M  V30 2218 H 211.258 2.83371 4.07449 0
M  V30 2219 H 206.514 4.19734 4.44559 0
M  V30 2220 H 210.688 5.15623 4.68087 0
M  V30 2221 H 208.315 5.84306 4.86303 0
M  V30 2222 N 209.89 -1.43072 0.660911 0
M  V30 2223 C 211.12 -2.05769 0.185153 0
M  V30 2224 C 211.528 -1.49668 -1.15742 0
M  V30 2225 O 210.871 -0.625649 -1.72717 0
M  V30 2226 C 210.933 -3.59489 0.0278237 0
M  V30 2227 C 210.597 -4.38212 1.2969 0
M  V30 2228 C 211.594 -4.69772 2.22734 0
M  V30 2229 C 209.279 -4.7809 1.54063 0
M  V30 2230 C 211.273 -5.40129 3.38437 0
M  V30 2231 C 208.96 -5.4819 2.70058 0
M  V30 2232 C 209.958 -5.79132 3.62071 0
M  V30 2233 O 209.646 -6.47798 4.76039 0
M  V30 2234 H 209.378 -0.669873 0.0908086 0
M  V30 2235 H 211.932 -1.84436 0.90402 0
M  V30 2236 H 210.162 -3.79426 -0.746489 0
M  V30 2237 H 211.851 -4.03862 -0.406275 0
M  V30 2238 H 212.617 -4.39476 2.05149 0
M  V30 2239 H 208.496 -4.53408 0.833215 0
M  V30 2240 H 212.04 -5.64198 4.10277 0
M  V30 2241 H 207.937 -5.77902 2.87574 0
M  V30 2242 H 208.705 -6.66283 4.75404 0
M  V30 2243 N 211.368 -0.403325 -1.52352 0
M  V30 2244 C 212.298 0.416205 -2.29761 0
M  V30 2245 C 213.279 1.05123 -1.33728 0
M  V30 2246 O 214.464 1.06134 -1.62632 0
M  V30 2247 C 211.594 1.53624 -3.11475 0
M  V30 2248 C 210.548 1.02653 -4.15507 0
M  V30 2249 C 209.874 2.23971 -4.85532 0
M  V30 2250 C 211.174 0.08463 -5.22231 0
M  V30 2251 H 212.868 -0.229701 -2.98518 0
M  V30 2252 H 210.414 -0.111913 -1.43564 0
M  V30 2253 H 212.367 2.1165 -3.64393 0
M  V30 2254 H 211.091 2.20994 -2.40477 0
M  V30 2255 H 209.75 0.46871 -3.63591 0
M  V30 2256 H 209.398 2.89883 -4.11068 0
M  V30 2257 H 209.098 1.90521 -5.55856 0
M  V30 2258 H 210.622 2.82614 -5.41259 0
M  V30 2259 H 212.036 0.573509 -5.70424 0
M  V30 2260 H 210.433 -0.160783 -5.99885 0
M  V30 2261 H 211.503 -0.86237 -4.7717 0
M  V30 2262 N 212.846 1.57033 -0.133567 0
M  V30 2263 C 214.093 1.95686 0.520877 0
M  V30 2264 C 214.421 1.0177 1.6575 0
M  V30 2265 O 213.676 0.0443195 1.9565 0
M  V30 2266 C 213.975 3.40674 1.08057 0
M  V30 2267 C 213.641 4.50855 0.0637899 0
M  V30 2268 C 212.303 4.80716 -0.215757 0
M  V30 2269 C 214.655 5.17398 -0.62835 0
M  V30 2270 C 211.983 5.74433 -1.19348 0
M  V30 2271 C 214.335 6.12167 -1.5948 0
M  V30 2272 C 212.999 6.40414 -1.88218 0
M  V30 2273 H 212.269 0.716067 0.190602 0
M  V30 2274 H 214.916 1.9026 -0.217556 0
M  V30 2275 H 213.221 3.42865 1.89606 0
M  V30 2276 H 214.918 3.67902 1.59529 0
M  V30 2277 H 211.508 4.27605 0.291855 0
M  V30 2278 H 215.692 4.94472 -0.425562 0
M  V30 2279 H 210.948 5.94616 -1.42272 0
M  V30 2280 H 215.122 6.6281 -2.13671 0
M  V30 2281 H 212.749 7.12838 -2.64133 0
M  V30 2282 N 214.325 -0.140222 1.56975 0
M  V30 2283 C 215.288 -1.15689 1.97861 0
M  V30 2284 C 216.288 -1.3549 0.865974 0
M  V30 2285 O 217.478 -1.32367 1.13246 0
M  V30 2286 C 214.61 -2.51582 2.30042 0
M  V30 2287 H 215.803 -0.805971 2.88867 0
M  V30 2288 H 213.356 -0.383801 1.51515 0
M  V30 2289 H 214.091 -2.91632 1.41849 0
M  V30 2290 H 213.876 -2.38569 3.11171 0
M  V30 2291 H 215.366 -3.24792 2.62488 0
M  V30 2292 N 215.803 -1.52179 -0.40978 0
M  V30 2293 C 217.028 -1.70347 -1.18308 0
M  V30 2294 C 217.453 -0.411887 -1.83535 0
M  V30 2295 O 216.811 0.630587 -1.6998 0
M  V30 2296 C 216.859 -2.83977 -2.22238 0
M  V30 2297 O 215.963 -2.495 -3.28365 0
M  V30 2298 H 215.304 -0.567103 -0.345384 0
M  V30 2299 H 217.834 -1.98879 -0.480445 0
M  V30 2300 H 217.844 -3.0887 -2.66577 0
M  V30 2301 H 216.519 -3.77685 -1.74146 0
M  V30 2302 H 215.096 -2.35277 -2.89308 0
M  V30 2303 N 217.281 0.66697 -1.42791 0
M  V30 2304 C 218.211 1.79218 -1.49677 0
M  V30 2305 C 219.192 1.66405 -0.352623 0
M  V30 2306 O 220.377 1.85708 -0.567993 0
M  V30 2307 C 217.507 3.17565 -1.40605 0
M  V30 2308 C 216.461 3.45124 -2.53127 0
M  V30 2309 C 215.787 4.83127 -2.29112 0
M  V30 2310 C 217.087 3.41236 -3.95418 0
M  V30 2311 H 218.781 1.73713 -2.43853 0
M  V30 2312 H 216.327 0.83432 -1.17367 0
M  V30 2313 H 218.28 3.96022 -1.44029 0
M  V30 2314 H 217.004 3.23767 -0.429271 0
M  V30 2315 H 215.663 2.69031 -2.49034 0
M  V30 2316 H 215.311 4.85988 -1.29709 0
M  V30 2317 H 215.011 5.02528 -3.04531 0
M  V30 2318 H 216.535 5.63859 -2.34297 0
M  V30 2319 H 217.949 4.09651 -4.01073 0
M  V30 2320 H 216.346 3.72173 -4.70752 0
M  V30 2321 H 217.416 2.39665 -4.21532 0
M  V30 2322 N 218.759 1.29093 0.90403 0
M  V30 2323 C 219.987 1.19689 1.68766 0
M  V30 2324 C 220.402 -0.243113 1.87228 0
M  V30 2325 O 219.759 -1.16326 1.40621 0
M  V30 2326 C 219.81 1.90144 3.07453 0
M  V30 2327 O 219.531 3.2852 2.89838 0
M  V30 2328 C 221.032 1.87162 4.01852 0
M  V30 2329 H 218.252 0.415035 0.527244 0
M  V30 2330 H 220.796 1.7039 1.13082 0
M  V30 2331 H 218.951 1.43289 3.59926 0
M  V30 2332 H 219.365 3.63944 3.77684 0
M  V30 2333 H 220.839 2.41032 4.96596 0
M  V30 2334 H 221.316 0.84617 4.30972 0
M  V30 2335 H 221.922 2.33741 3.5531 0
M  V30 2336 N 220.237 -1.11381 1.11499 0
M  V30 2337 C 221.462 -1.87475 0.887019 0
M  V30 2338 C 221.887 -1.79639 -0.557796 0
M  V30 2339 O 221.245 -1.15924 -1.39396 0
M  V30 2340 C 221.293 -3.34213 1.35403 0
M  V30 2341 O 220.397 -4.0903 0.526146 0
M  V30 2342 H 219.738 -0.582099 0.319463 0
M  V30 2343 H 222.268 -1.40785 1.48461 0
M  V30 2344 H 222.278 -3.8506 1.34881 0
M  V30 2345 H 220.953 -3.39232 2.40612 0
M  V30 2346 H 219.53 -3.68082 0.597522 0
M  V30 2347 N 221.715 -0.905404 -1.28997 0
M  V30 2348 C 222.992 -0.453513 -1.9027 0
M  V30 2349 C 223.372 1.06721 -1.82137 0
M  V30 2350 O 222.72 1.91159 -1.25182 0
M  V30 2351 C 222.93 -0.974494 -3.35119 0
M  V30 2352 C 224.278 -1.0216 -4.12127 0
M  V30 2353 O 225.302 -0.922557 -3.44046 0
M  V30 2354 O 224.161 -1.17121 -5.33802 0
M  V30 2355 H 221.255 -0.142347 -0.814657 0
M  V30 2356 H 223.801 -0.995642 -1.37423 0
M  V30 2357 H 222.573 -2.01848 -3.35221 0
M  V30 2358 H 222.196 -0.412706 -3.95452 0
M  V30 2359 N 223.193 1.4272 -0.668489 0
M  V30 2360 C 224.123 2.335 -0.000100175 0
M  V30 2361 C 225.104 1.50328 0.795964 0
M  V30 2362 O 226.289 1.78949 0.754385 0
M  V30 2363 C 223.419 3.33874 0.956302 0
M  V30 2364 C 222.373 4.27152 0.269278 0
M  V30 2365 C 221.699 5.17684 1.33818 0
M  V30 2366 C 222.999 5.15373 -0.847805 0
M  V30 2367 H 224.693 2.89639 -0.758244 0
M  V30 2368 H 222.239 1.39269 -0.366079 0
M  V30 2369 H 224.192 3.9629 1.43292 0
M  V30 2370 H 222.916 2.76025 1.74579 0
M  V30 2371 H 221.575 3.66123 -0.187042 0
M  V30 2372 H 221.223 4.56165 2.1195 0
M  V30 2373 H 220.923 5.80918 0.883659 0
M  V30 2374 H 222.447 5.82974 1.81586 0
M  V30 2375 H 223.861 5.7151 -0.452681 0
M  V30 2376 H 222.258 5.87407 -1.22773 0
M  V30 2377 H 223.328 4.5415 -1.69929 0
M  V30 2378 N 224.671 0.411399 1.52136 0
M  V30 2379 C 226.082 -0.0576826 1.86611 0
M  V30 2380 C 226.433 -1.44238 1.33003 0
M  V30 2381 O 225.558 -2.05759 0.670228 0
M  V30 2382 C 226.153 -0.111448 3.38617 0
M  V30 2383 C 224.712 -0.52487 3.72723 0
M  V30 2384 C 223.859 0.299176 2.75681 0
M  V30 2385 H 226.81 0.628368 1.4573 0
M  V30 2386 H 226.831 -0.926252 3.69054 0
M  V30 2387 H 226.343 0.896488 3.77604 0
M  V30 2388 H 224.444 -1.53936 3.39315 0
M  V30 2389 H 224.557 -0.267681 4.78352 0
M  V30 2390 H 222.921 -0.238814 2.53578 0
M  V30 2391 H 223.704 1.3055 3.17508 0
M  V30 2392 N 226.149 -1.5696 0.141893 0
M  V30 2393 C 227.395 -1.97034 -0.504884 0
M  V30 2394 C 227.75 -1.02518 -1.62812 0
M  V30 2395 O 227.043 -0.0592943 -1.91508 0
M  V30 2396 C 227.237 -3.41242 -1.06249 0
M  V30 2397 C 227.066 -4.497 0.00519653 0
M  V30 2398 C 225.836 -5.03338 0.444873 0
M  V30 2399 C 228.034 -5.08122 0.794767 0
M  V30 2400 N 226.016 -5.95395 1.49593 0
M  V30 2401 C 227.387 -5.96339 1.69645 0
M  V30 2402 C 229.442 -4.9071 0.843122 0
M  V30 2403 C 228.145 -6.69009 2.64233 0
M  V30 2404 C 230.171 -5.64077 1.77681 0
M  V30 2405 C 229.533 -6.51999 2.66603 0
M  V30 2406 H 225.632 -0.766745 -0.153707 0
M  V30 2407 H 228.216 -1.93273 0.235313 0
M  V30 2408 H 226.387 -3.45606 -1.77231 0
M  V30 2409 H 228.119 -3.68389 -1.67546 0
M  V30 2410 H 224.874 -4.73576 0.0480959 0
M  V30 2411 H 225.298 -6.46128 2.02107 0
M  V30 2412 H 229.94 -4.22459 0.169732 0
M  V30 2413 H 227.658 -7.36492 3.32575 0
M  V30 2414 H 231.244 -5.52602 1.81996 0
M  V30 2415 H 230.124 -7.07775 3.37675 0
M  V30 2416 N 227.627 0.131896 -1.57047 0
M  V30 2417 C 228.537 1.1815 -2.02676 0
M  V30 2418 C 229.553 1.46113 -0.944824 0
M  V30 2419 O 230.729 1.57485 -1.25541 0
M  V30 2420 C 227.794 2.49139 -2.41103 0
M  V30 2421 C 226.855 2.28688 -3.63318 0
M  V30 2422 C 226.088 3.53431 -3.99903 0
M  V30 2423 O 226.311 4.60223 -3.36973 0
M  V30 2424 O 225.245 3.45198 -4.93074 0
M  V30 2425 H 229.071 0.824069 -2.92306 0
M  V30 2426 H 226.656 0.341745 -1.45439 0
M  V30 2427 H 228.538 3.26338 -2.66611 0
M  V30 2428 H 227.213 2.84382 -1.54624 0
M  V30 2429 H 226.12 1.4939 -3.42977 0
M  V30 2430 H 227.453 1.98355 -4.50462 0
M  V30 2431 N 229.106 1.52395 0.401703 0
M  V30 2432 C 230.056 1.72649 1.48917 0
M  V30 2433 C 231.04 0.580436 1.50066 0
M  V30 2434 O 232.232 0.83779 1.55917 0
M  V30 2435 C 229.361 1.88729 2.86769 0
M  V30 2436 C 228.447 3.09228 2.90239 0
M  V30 2437 N 228.838 4.31805 2.63396 0
M  V30 2438 C 227.136 3.09214 3.21408 0
M  V30 2439 C 227.837 5.13326 2.73625 0
M  V30 2440 N 226.813 4.48735 3.06819 0
M  V30 2441 H 230.615 2.65058 1.26971 0
M  V30 2442 H 228.129 1.50528 0.609504 0
M  V30 2443 H 230.126 2.01358 3.65049 0
M  V30 2444 H 228.786 0.975252 3.09708 0
M  V30 2445 H 229.797 4.60154 2.37653 0
M  V30 2446 H 226.474 2.27774 3.49893 0
M  V30 2447 H 227.864 6.21003 2.56524 0
M  V30 2448 N 230.584 -0.659388 1.43143 0
M  V30 2449 C 231.824 -1.43121 1.45931 0
M  V30 2450 C 232.188 -1.91838 0.0789298 0
M  V30 2451 O 233.389 -2.68794 -0.018491 0
M  V30 2452 C 231.66 -2.58534 2.46769 0
M  V30 2453 S 233.219 -3.47154 2.68384 0
M  V30 2454 H 230.037 -0.488624 0.516496 0
M  V30 2455 H 232.639 -0.766128 1.79863 0
M  V30 2456 H 231.343 -2.21007 3.45809 0
M  V30 2457 H 230.874 -3.29898 2.14315 0
M  V30 2458 H 232.889 -4.55051 1.97845 0
M  V30 2459 N 232.062 -1.29571 -0.897171 0
M  V30 2460 C 233.31 -1.17456 -1.64464 0
M  V30 2461 C 233.631 0.273698 -1.9307 0
M  V30 2462 O 232.901 1.18684 -1.55855 0
M  V30 2463 H 231.481 -0.431706 -0.609622 0
M  V30 2464 H 234.143 -1.62531 -1.07562 0
M  V30 2465 H 233.239 -1.72648 -2.59998 0
M  V30 2466 N 233.54 1.10788 -1.12088 0
M  V30 2467 C 234.488 2.19111 -0.780587 0
M  V30 2468 C 235.482 1.67818 0.230961 0
M  V30 2469 O 236.688 1.79777 0.0895427 0
M  V30 2470 H 233.063 0.714477 -0.234578 0
M  V30 2471 H 235.034 2.45055 -1.70266 0
M  V30 2472 C 233.783 3.46818 -0.24747 0
M  V30 2473 H 233.106 3.86646 -1.01712 0
M  V30 2474 H 234.546 4.23973 -0.0476291 0
M  V30 2475 C 233.005 3.20968 1.02378 0
M  V30 2476 O 233.535 3.42298 2.10226 0
M  V30 2477 N 231.741 2.74658 0.949271 0
M  V30 2478 H 231.288 2.57501 0.0715173 0
M  V30 2479 H 231.246 2.57739 1.80049 0
M  V30 2480 N 235.018 0.912232 1.28515 0
M  V30 2481 C 236.264 0.554851 1.95686 0
M  V30 2482 C 236.619 -0.89138 1.70506 0
M  V30 2483 O 235.912 -1.62529 1.01464 0
M  V30 2484 C 236.106 0.798392 3.48368 0
M  V30 2485 C 235.935 2.26674 3.88393 0
M  V30 2486 C 234.705 2.91657 4.12631 0
M  V30 2487 C 236.903 3.24303 3.99164 0
M  V30 2488 N 234.885 4.28805 4.39317 0
M  V30 2489 C 236.256 4.4661 4.30046 0
M  V30 2490 C 238.311 3.19723 3.81683 0
M  V30 2491 C 237.014 5.64915 4.45268 0
M  V30 2492 C 239.04 4.37325 3.98121 0
M  V30 2493 C 238.402 5.58406 4.29375 0
M  V30 2494 H 234.501 0.252876 0.739985 0
M  V30 2495 H 237.085 1.17565 1.55199 0
M  V30 2496 H 235.256 0.20688 3.87849 0
M  V30 2497 H 236.988 0.405193 4.02666 0
M  V30 2498 H 233.743 2.42393 4.06869 0
M  V30 2499 H 234.167 4.99712 4.56746 0
M  V30 2500 H 238.809 2.27191 3.56573 0
M  V30 2501 H 236.527 6.57927 4.6921 0
M  V30 2502 H 240.113 4.35282 3.86033 0
M  V30 2503 H 238.993 6.47889 4.41825 0
M  V30 2504 N 236.496 -1.42363 0.676048 0
M  V30 2505 C 237.742 -2.02336 0.207809 0
M  V30 2506 C 238.097 -1.52506 -1.17302 0
M  V30 2507 O 237.39 -0.718048 -1.77636 0
M  V30 2508 C 237.584 -3.56929 0.183431 0
M  V30 2509 C 237.413 -4.21762 1.56036 0
M  V30 2510 C 236.183 -4.56881 2.15842 0
M  V30 2511 C 238.381 -4.49267 2.50327 0
M  V30 2512 N 236.363 -5.069 3.46303 0
M  V30 2513 C 237.734 -5.00851 3.65443 0
M  V30 2514 C 239.789 -4.31257 2.48841 0
M  V30 2515 C 238.492 -5.36317 4.79329 0
M  V30 2516 C 240.518 -4.678 3.61824 0
M  V30 2517 C 239.88 -5.19537 4.75668 0
M  V30 2518 H 235.979 -0.772583 0.120993 0
M  V30 2519 H 238.563 -1.73203 0.889306 0
M  V30 2520 H 236.734 -3.85576 -0.467483 0
M  V30 2521 H 238.466 -4.03603 -0.297808 0
M  V30 2522 H 235.221 -4.4268 1.68319 0
M  V30 2523 H 235.645 -5.36338 4.13123 0
M  V30 2524 H 240.287 -3.90511 1.62051 0
M  V30 2525 H 238.005 -5.75995 5.66794 0
M  V30 2526 H 241.591 -4.55541 3.61903 0
M  V30 2527 H 240.471 -5.47287 5.61646 0
M  V30 2528 N 237.974 -0.419461 -1.51915 0
M  V30 2529 C 238.922 0.415502 -2.28859 0
M  V30 2530 C 239.916 1.03674 -1.3397 0
M  V30 2531 O 241.122 0.973757 -1.51387 0
M  V30 2532 H 237.497 0.152786 -0.736315 0
M  V30 2533 H 239.468 -0.254531 -2.97312 0
M  V30 2534 C 238.217 1.51425 -3.12995 0
M  V30 2535 H 237.54 1.04556 -3.85886 0
M  V30 2536 H 238.98 2.07208 -3.6992 0
M  V30 2537 C 237.439 2.48745 -2.27217 0
M  V30 2538 O 237.969 3.52871 -1.9195 0
M  V30 2539 N 236.175 2.19202 -1.90785 0
M  V30 2540 H 235.722 1.34556 -2.19664 0
M  V30 2541 H 235.68 2.84561 -1.33687 0
M  V30 2542 N 239.452 1.56882 -0.150215 0
M  V30 2543 C 240.68 2.00593 0.506948 0
M  V30 2544 C 241.095 1.03033 1.58208 0
M  V30 2545 O 240.452 0.0278396 1.82479 0
M  V30 2546 C 240.503 3.44209 1.10465 0
M  V30 2547 O 240.224 4.3804 0.0724636 0
M  V30 2548 C 241.725 4.03214 1.84211 0
M  V30 2549 H 238.945 0.65795 0.13169 0
M  V30 2550 H 241.489 2.03018 -0.245743 0
M  V30 2551 H 239.644 3.42625 1.80795 0
M  V30 2552 H 240.058 5.22007 0.510793 0
M  V30 2553 H 241.532 5.0569 2.21318 0
M  V30 2554 H 242.009 3.44107 2.72923 0
M  V30 2555 H 242.615 4.08437 1.18572 0
M  V30 2556 N 240.93 -0.123565 1.57115 0
M  V30 2557 C 241.84 -1.17074 2.033 0
M  V30 2558 C 242.856 -1.4561 0.952559 0
M  V30 2559 O 244.032 -1.56817 1.26374 0
M  V30 2560 C 241.097 -2.47857 2.42421 0
M  V30 2561 C 240.158 -2.26758 3.64526 0
M  V30 2562 C 239.391 -3.51305 4.01771 0
M  V30 2563 O 239.614 -4.5843 3.39409 0
M  V30 2564 O 238.548 -3.42578 4.94898 0
M  V30 2565 H 242.374 -0.808555 2.92739 0
M  V30 2566 H 239.959 -0.334027 1.45618 0
M  V30 2567 H 241.841 -3.2492 2.68338 0
M  V30 2568 H 240.516 -2.83558 1.5613 0
M  V30 2569 H 239.423 -1.47569 3.43765 0
M  V30 2570 H 240.756 -1.95963 4.51508 0
M  V30 2571 N 242.408 -1.52605 -0.393616 0
M  V30 2572 C 243.338 -1.80022 -1.48709 0
M  V30 2573 C 244.319 -0.651995 -1.57108 0
M  V30 2574 O 245.504 -0.89913 -1.72132 0
M  V30 2575 C 242.634 -1.96492 -2.86371 0
M  V30 2576 C 241.588 -3.12161 -2.92813 0
M  V30 2577 C 240.914 -3.13877 -4.3288 0
M  V30 2578 C 242.214 -4.51322 -2.6288 0
M  V30 2579 H 243.908 -2.71589 -1.26015 0
M  V30 2580 H 241.454 -1.30684 -0.604778 0
M  V30 2581 H 243.407 -2.14255 -3.62867 0
M  V30 2582 H 242.131 -1.01611 -3.10391 0
M  V30 2583 H 240.79 -2.94173 -2.18764 0
M  V30 2584 H 240.438 -2.16687 -4.53933 0
M  V30 2585 H 240.138 -3.91576 -4.38112 0
M  V30 2586 H 241.662 -3.33789 -5.1129 0
M  V30 2587 H 243.076 -4.69435 -3.29096 0
M  V30 2588 H 241.473 -5.31053 -2.79468 0
M  V30 2589 H 242.543 -4.58353 -1.58242 0
M  V30 2590 N 243.887 0.651787 -1.4349 0
M  V30 2591 C 245.127 1.42345 -1.46688 0
M  V30 2592 C 245.491 1.91793 -0.0891023 0
M  V30 2593 O 246.692 2.688 0.00423594 0
M  V30 2594 C 244.963 2.57221 -2.48137 0
M  V30 2595 S 246.522 3.45725 -2.70221 0
M  V30 2596 H 243.34 0.485878 -0.51908 0
M  V30 2597 H 245.942 0.756578 -1.80267 0
M  V30 2598 H 244.646 2.1917 -3.46976 0
M  V30 2599 H 244.177 3.28757 -2.16061 0
M  V30 2600 H 246.192 4.53996 -2.00255 0
M  V30 2601 N 245.365 1.30045 0.890287 0
M  V30 2602 C 246.295 1.18541 2.01172 0
M  V30 2603 C 247.276 0.0773356 1.69924 0
M  V30 2604 O 248.461 0.25845 1.92473 0
M  V30 2605 C 245.591 0.870941 3.36202 0
M  V30 2606 C 244.545 1.93637 3.81692 0
M  V30 2607 C 243.871 1.475 5.13953 0
M  V30 2608 C 245.171 3.34666 4.00994 0
M  V30 2609 H 246.865 2.12359 2.11054 0
M  V30 2610 H 244.411 1.02238 1.01407 0
M  V30 2611 H 246.364 0.777141 4.14172 0
M  V30 2612 H 245.088 -0.102926 3.26438 0
M  V30 2613 H 243.747 2.01972 3.05946 0
M  V30 2614 H 243.395 0.489551 5.00612 0
M  V30 2615 H 243.095 2.1876 5.4536 0
M  V30 2616 H 244.619 1.39489 5.94454 0
M  V30 2617 H 246.033 3.2912 4.69417 0
M  V30 2618 H 244.43 4.03966 4.43769 0
M  V30 2619 H 245.5 3.76949 3.05021 0
M  V30 2620 N 246.843 -1.10192 1.12674 0
M  V30 2621 C 247.753 -2.20172 0.810026 0
M  V30 2622 C 248.769 -1.72821 -0.202188 0
M  V30 2623 O 249.945 -2.01369 -0.0351691 0
M  V30 2624 C 247.01 -3.45631 0.272007 0
M  V30 2625 C 246.071 -4.07704 1.34447 0
M  V30 2626 C 245.304 -5.27175 0.832029 0
M  V30 2627 O 245.527 -5.69425 -0.333284 0
M  V30 2628 O 244.461 -5.80168 1.60277 0
M  V30 2629 H 248.287 -2.49701 1.72867 0
M  V30 2630 H 245.872 -1.18977 0.903597 0
M  V30 2631 H 247.754 -4.21394 -0.0230219 0
M  V30 2632 H 246.429 -3.17723 -0.619164 0
M  V30 2633 H 245.336 -3.33614 1.6927 0
M  V30 2634 H 246.669 -4.3982 2.2095 0
M  V30 2635 N 248.321 -0.919034 -1.28029 0
M  V30 2636 C 249.271 -0.382574 -2.24767 0
M  V30 2637 C 250.255 0.508286 -1.52661 0
M  V30 2638 O 251.447 0.347145 -1.73562 0
M  V30 2639 C 248.576 0.371432 -3.41285 0
M  V30 2640 C 247.662 -0.535449 -4.20706 0
M  V30 2641 N 248.053 -1.65141 -4.78082 0
M  V30 2642 C 246.351 -0.336824 -4.44726 0
M  V30 2643 C 247.052 -2.21475 -5.37888 0
M  V30 2644 N 246.028 -1.50537 -5.22341 0
M  V30 2645 H 249.83 -1.23477 -2.66703 0
M  V30 2646 H 247.344 -0.772299 -1.42861 0
M  V30 2647 H 249.341 0.772638 -4.09678 0
M  V30 2648 H 248.001 1.22066 -3.00882 0
M  V30 2649 H 249.012 -2.03392 -4.7629 0
M  V30 2650 H 245.689 0.47246 -4.14818 0
M  V30 2651 H 247.079 -3.15379 -5.93284 0
M  V30 2652 N 249.799 1.42003 -0.683588 0
M  V30 2653 C 251.215 1.55625 -0.353976 0
M  V30 2654 C 251.415 1.66151 1.14 0
M  V30 2655 O 250.471 1.63329 1.92561 0
M  V30 2656 C 251.784 2.80171 -1.092 0
M  V30 2657 C 253.332 2.93954 -1.07518 0
M  V30 2658 C 253.807 4.21372 -1.79471 0
M  V30 2659 N 255.298 4.28303 -1.76381 0
M  V30 2660 C 256.033 5.25729 -2.28904 0
M  V30 2661 N 255.529 6.29254 -2.89846 0
M  V30 2662 N 257.322 5.17586 -2.19228 0
M  V30 2663 H 249.473 1.33415 -1.6527 0
M  V30 2664 H 251.736 0.64282 -0.696769 0
M  V30 2665 H 251.442 2.78561 -2.14701 0
M  V30 2666 H 251.316 3.7133 -0.662862 0
M  V30 2667 H 253.703 2.95086 -0.028475 0
M  V30 2668 H 253.784 2.04002 -1.54328 0
M  V30 2669 H 253.428 4.21001 -2.84114 0
M  V30 2670 H 253.358 5.10275 -1.30104 0
M  V30 2671 H 255.849 3.54119 -1.31939 0
M  V30 2672 H 256.162 6.99964 -3.27522 0
M  V30 2673 H 254.507 6.29791 -2.93919 0
M  V30 2674 H 257.698 4.35631 -1.71299 0
M  V30 2675 H 257.871 5.93348 -2.60466 0
M  V30 2676 N 251.277 0.427512 1.51691 0
M  V30 2677 C 252.523 -0.142439 2.02299 0
M  V30 2678 C 252.856 -1.43214 1.31162 0
M  V30 2679 O 252.131 -1.89833 0.423511 0
M  V30 2680 C 252.414 -0.371301 3.58181 0
M  V30 2681 C 252.267 0.936358 4.39946 0
M  V30 2682 C 253.586 -1.14542 4.24933 0
M  V30 2683 H 250.705 -0.0502937 0.735282 0
M  V30 2684 H 253.347 0.564584 1.81418 0
M  V30 2685 H 251.497 -0.973559 3.76104 0
M  V30 2686 H 253.169 1.57184 4.33694 0
M  V30 2687 H 251.412 1.5432 4.05423 0
M  V30 2688 H 252.083 0.730388 5.47147 0
M  V30 2689 H 254.559 -0.635362 4.11221 0
M  V30 2690 H 253.435 -1.27431 5.33903 0
M  V30 2691 H 253.696 -2.17093 3.85127 0
M  V30 2692 N 252.755 -1.56801 0.158532 0
M  V30 2693 C 253.98 -2.01295 -0.499516 0
M  V30 2694 C 254.405 -1.03799 -1.56867 0
M  V30 2695 O 253.763 -0.0155162 -1.81293 0
M  V30 2696 C 253.811 -3.44469 -1.06647 0
M  V30 2697 O 252.915 -3.50012 -2.18095 0
M  V30 2698 H 252.256 -0.652884 -0.12099 0
M  V30 2699 H 254.786 -2.02958 0.258661 0
M  V30 2700 H 254.796 -3.8351 -1.39227 0
M  V30 2701 H 253.471 -4.14932 -0.283581 0
M  V30 2702 H 252.048 -3.22822 -1.86656 0
M  V30 2703 N 254.233 0.115231 -1.57178 0
M  V30 2704 C 255.18 1.14115 -2.00615 0
M  V30 2705 C 256.15 1.40939 -0.878941 0
M  V30 2706 O 257.335 1.52741 -1.14345 0
M  V30 2707 C 254.475 2.46156 -2.4187 0
M  V30 2708 C 253.588 2.26236 -3.68024 0
M  V30 2709 C 252.723 3.51534 -3.98243 0
M  V30 2710 C 251.762 3.26787 -5.17568 0
M  V30 2711 N 250.899 4.44298 -5.43639 0
M  V30 2712 H 255.739 0.763743 -2.88047 0
M  V30 2713 H 253.276 0.365615 -1.42484 0
M  V30 2714 H 255.234 3.23189 -2.63827 0
M  V30 2715 H 253.864 2.81783 -1.57475 0
M  V30 2716 H 252.916 1.40102 -3.5366 0
M  V30 2717 H 254.228 2.03929 -4.55208 0
M  V30 2718 H 253.382 4.36984 -4.20868 0
M  V30 2719 H 252.121 3.76876 -3.09541 0
M  V30 2720 H 251.126 2.39729 -4.94783 0
M  V30 2721 H 252.351 3.02812 -6.0785 0
M  V30 2722 H 250.297 4.69754 -4.57895 0
M  V30 2723 H 250.214 4.25109 -6.25154 0
M  V30 2724 H 251.482 5.3087 -5.70786 0
M  V30 2725 N 255.711 1.52812 0.385517 0
M  V30 2726 C 256.988 1.5861 1.14465 0
M  V30 2727 C 257.368 0.381402 2.07626 0
M  V30 2728 O 256.716 -0.629999 2.19643 0
M  V30 2729 C 256.926 2.92664 1.90128 0
M  V30 2730 C 258.274 3.46526 2.45367 0
M  V30 2731 O 259.298 2.94562 2.0028 0
M  V30 2732 O 258.157 4.37323 3.27736 0
M  V30 2733 H 255.251 0.639855 0.523941 0
M  V30 2734 H 257.797 1.65149 0.390389 0
M  V30 2735 H 256.569 3.71788 1.22022 0
M  V30 2736 H 256.192 2.89527 2.72507 0
M  V30 2737 N 257.189 -0.644168 1.43834 0
M  V30 2738 C 258.437 -1.40117 1.45642 0
M  V30 2739 C 258.758 -1.94814 0.0852413 0
M  V30 2740 O 258.028 -1.74988 -0.880688 0
M  V30 2741 H 256.608 -0.52005 0.536243 0
M  V30 2742 H 259.27 -0.7591 1.7951 0
M  V30 2743 H 258.366 -2.23902 2.17427 0
M  V30 2744 N 258.668 -1.30515 -0.883378 0
M  V30 2745 C 259.616 -1.16941 -2.01066 0
M  V30 2746 C 260.61 -0.0809148 -1.69207 0
M  V30 2747 O 261.816 -0.241877 -1.78367 0
M  V30 2748 H 258.191 -0.361705 -0.659298 0
M  V30 2749 H 260.162 -2.12344 -2.09649 0
M  V30 2750 C 258.911 -0.879694 -3.36388 0
M  V30 2751 H 258.234 -1.70936 -3.61415 0
M  V30 2752 H 259.674 -0.82483 -4.159 0
M  V30 2753 C 258.133 0.417409 -3.34304 0
M  V30 2754 O 258.663 1.43843 -3.75063 0
M  V30 2755 N 256.869 0.429141 -2.87414 0
M  V30 2756 H 256.416 -0.402222 -2.5444 0
M  V30 2757 H 256.374 1.29696 -2.86403 0
M  V30 2758 N 260.146 1.09593 -1.13257 0
M  V30 2759 C 261.394 1.81375 -0.891492 0
M  V30 2760 C 261.715 1.86049 0.584009 0
M  V30 2761 O 260.985 1.34481 1.42449 0
M  V30 2762 H 259.565 0.671708 -0.326828 0
M  V30 2763 H 262.227 1.3256 -1.42877 0
M  V30 2764 H 261.323 2.84612 -1.28071 0
M  V30 2765 N 261.624 0.925811 1.2754 0
M  V30 2766 C 262.587 0.428129 2.25166 0
M  V30 2767 C 263.587 -0.452261 1.54309 0
M  V30 2768 O 264.777 -0.253608 1.72344 0
M  V30 2769 C 261.909 -0.384749 3.38722 0
M  V30 2770 H 263.102 1.29066 2.70706 0
M  V30 2771 H 260.655 0.706323 1.3943 0
M  V30 2772 H 261.39 -1.26618 2.98561 0
M  V30 2773 H 261.175 0.246454 3.91325 0
M  V30 2774 H 262.665 -0.723389 4.11287 0
M  V30 2775 N 263.102 -1.41638 0.69111 0
M  V30 2776 C 264.032 -2.3347 0.037248 0
M  V30 2777 C 265.013 -1.51575 -0.771947 0
M  V30 2778 O 266.198 -1.80126 -0.72582 0
M  V30 2779 C 263.328 -3.35354 -0.903064 0
M  V30 2780 C 262.282 -4.27526 -0.201288 0
M  V30 2781 C 261.608 -5.19747 -1.25565 0
M  V30 2782 C 262.908 -5.13959 0.929689 0
M  V30 2783 H 264.602 -2.88397 0.804227 0
M  V30 2784 H 262.148 -1.38669 0.388189 0
M  V30 2785 H 264.101 -3.98519 -1.36969 0
M  V30 2786 H 262.825 -2.78767 -1.70166 0
M  V30 2787 H 261.484 -3.65779 0.245265 0
M  V30 2788 H 261.132 -4.59479 -2.04666 0
M  V30 2789 H 260.832 -5.8225 -0.791128 0
M  V30 2790 H 262.356 -5.85789 -1.72288 0
M  V30 2791 H 263.77 -5.70718 0.543546 0
M  V30 2792 H 262.167 -5.85379 1.32103 0
M  V30 2793 H 263.237 -4.51389 1.77133 0
M  V30 2794 N 264.58 -0.43555 -1.51462 0
M  V30 2795 C 265.991 0.0279871 -1.86679 0
M  V30 2796 C 266.342 1.42104 -1.35281 0
M  V30 2797 O 265.467 2.04667 -0.702878 0
M  V30 2798 C 266.062 0.0575626 -3.38751 0
M  V30 2799 C 264.621 0.465507 -3.7351 0
M  V30 2800 C 263.768 -0.342996 -2.75171 0
M  V30 2801 H 266.719 -0.651473 -1.44712 0
M  V30 2802 H 266.74 0.867421 -3.70481 0
M  V30 2803 H 266.252 -0.956448 -3.7613 0
M  V30 2804 H 264.353 1.48519 -3.41721 0
M  V30 2805 H 264.466 0.191546 -4.78717 0
M  V30 2806 H 262.83 0.198442 -2.53926 0
M  V30 2807 H 263.613 -1.35585 -3.15391 0
M  V30 2808 N 266.058 1.56714 -0.166846 0
M  V30 2809 C 266.988 2.20754 0.760913 0
M  V30 2810 C 267.969 1.16178 1.24244 0
M  V30 2811 O 269.154 1.44592 1.29641 0
M  V30 2812 C 266.284 2.84478 1.99223 0
M  V30 2813 C 265.238 3.95053 1.64672 0
M  V30 2814 C 264.564 4.45805 2.95232 0
M  V30 2815 C 265.864 5.14865 0.878155 0
M  V30 2816 H 267.558 2.98537 0.22713 0
M  V30 2817 H 265.104 1.43596 0.107805 0
M  V30 2818 H 267.057 3.27951 2.64624 0
M  V30 2819 H 265.781 2.04056 2.55007 0
M  V30 2820 H 264.44 3.52228 1.01641 0
M  V30 2821 H 264.088 3.62181 3.49047 0
M  V30 2822 H 263.788 5.204 2.7287 0
M  V30 2823 H 265.312 4.91962 3.6167 0
M  V30 2824 H 266.726 5.55059 1.43466 0
M  V30 2825 H 265.123 5.95348 0.753738 0
M  V30 2826 H 266.193 4.84735 -0.126377 0
M  V30 2827 N 267.536 -0.106894 1.57237 0
M  V30 2828 C 268.484 -1.14944 2.02215 0
M  V30 2829 C 269.478 -1.42167 0.92114 0
M  V30 2830 O 270.684 -1.41987 1.10634 0
M  V30 2831 H 267.059 -0.387841 0.64427 0
M  V30 2832 H 269.03 -0.743683 2.88984 0
M  V30 2833 C 267.779 -2.4647 2.4525 0
M  V30 2834 H 267.102 -2.26363 3.29545 0
M  V30 2835 H 268.542 -3.17948 2.80508 0
M  V30 2836 C 267.001 -3.09921 1.321 0
M  V30 2837 O 267.531 -3.9651 0.643622 0
M  V30 2838 N 265.737 -2.69986 1.07497 0
M  V30 2839 H 265.284 -1.99667 1.62761 0
M  V30 2840 H 265.242 -3.12769 0.319876 0
M  V30 2841 N 269.014 -1.53014 -0.377408 0
M  V30 2842 C 269.944 -1.81589 -1.46791 0
M  V30 2843 C 270.925 -0.668622 -1.56408 0
M  V30 2844 O 272.11 -0.917337 -1.71168 0
M  V30 2845 C 269.24 -1.99519 -2.8427 0
M  V30 2846 C 268.194 -3.15249 -2.89486 0
M  V30 2847 C 267.52 -3.18451 -4.29527 0
M  V30 2848 C 268.82 -4.54084 -2.58079 0
M  V30 2849 H 270.514 -2.7291 -1.23127 0
M  V30 2850 H 268.06 -1.31319 -0.590883 0
M  V30 2851 H 270.013 -2.18092 -3.60575 0
M  V30 2852 H 268.737 -1.04897 -3.09296 0
M  V30 2853 H 267.396 -2.96477 -2.15631 0
M  V30 2854 H 267.044 -2.2149 -4.5161 0
M  V30 2855 H 266.744 -3.962 -4.33934 0
M  V30 2856 H 268.268 -3.39193 -5.07721 0
M  V30 2857 H 269.682 -4.72899 -3.24098 0
M  V30 2858 H 268.079 -5.33987 -2.7382 0
M  V30 2859 H 269.149 -4.60006 -1.53372 0
M  V30 2860 N 270.492 0.636531 -1.44174 0
M  V30 2861 C 271.72 1.42353 -1.50144 0
M  V30 2862 C 272.135 1.88389 -0.124575 0
M  V30 2863 O 271.492 1.6051 0.868489 0
M  V30 2864 C 271.543 2.64744 -2.46156 0
M  V30 2865 O 271.264 2.20629 -3.7849 0
M  V30 2866 C 272.765 3.57929 -2.61537 0
M  V30 2867 H 269.985 0.436752 -0.5094 0
M  V30 2868 H 272.529 0.778933 -1.89084 0
M  V30 2869 H 270.684 3.25307 -2.10366 0
M  V30 2870 H 271.098 2.99938 -4.30276 0
M  V30 2871 H 272.572 4.40428 -3.32757 0
M  V30 2872 H 273.049 4.06382 -1.66585 0
M  V30 2873 H 273.655 3.03238 -2.98206 0
M  V30 2874 N 271.97 1.30982 0.876444 0
M  V30 2875 C 273.21 1.21589 1.64303 0
M  V30 2876 C 273.574 -0.223962 1.90689 0
M  V30 2877 O 274.775 -0.44128 2.65153 0
M  V30 2878 C 273.046 2.03007 2.94148 0
M  V30 2879 S 274.605 2.10405 3.85065 0
M  V30 2880 H 271.423 0.433161 0.563819 0
M  V30 2881 H 274.025 1.65565 1.03964 0
M  V30 2882 H 272.729 3.06719 2.72675 0
M  V30 2883 H 272.26 1.59725 3.59515 0
M  V30 2884 H 274.275 1.23765 4.80517 0
M  V30 2885 N 273.449 -1.08991 1.13837 0
M  V30 2886 C 274.677 -1.85011 0.926202 0
M  V30 2887 C 275.092 -1.8135 -0.525127 0
M  V30 2888 O 274.449 -1.21287 -1.36366 0
M  V30 2889 C 274.5 -3.32802 1.41155 0
M  V30 2890 O 274.221 -3.36444 2.80601 0
M  V30 2891 C 275.722 -4.25649 1.23847 0
M  V30 2892 H 272.942 -0.584249 0.32999 0
M  V30 2893 H 275.486 -1.37688 1.51202 0
M  V30 2894 H 273.641 -3.77536 0.868631 0
M  V30 2895 H 274.055 -4.28657 3.02248 0
M  V30 2896 H 275.529 -5.27485 1.62675 0
M  V30 2897 H 276.006 -4.38828 0.18065 0
M  V30 2898 H 276.612 -3.86735 1.76964 0
M  V30 2899 N 274.927 -0.932562 -1.27047 0
M  V30 2900 C 276.173 -0.576412 -1.94436 0
M  V30 2901 C 276.506 0.880891 -1.73072 0
M  V30 2902 O 275.781 1.62905 -1.06264 0
M  V30 2903 C 276.064 -0.909031 -3.48437 0
M  V30 2904 C 275.917 -2.42044 -3.79123 0
M  V30 2905 C 277.236 -0.418341 -4.38107 0
M  V30 2906 H 274.355 -0.210888 -0.706184 0
M  V30 2907 H 276.997 -1.16522 -1.50075 0
M  V30 2908 H 275.147 -0.407947 -3.86352 0
M  V30 2909 H 276.819 -2.99359 -3.50973 0
M  V30 2910 H 275.062 -2.86758 -3.25503 0
M  V30 2911 H 275.733 -2.6037 -4.86736 0
M  V30 2912 H 278.209 -0.847856 -4.0737 0
M  V30 2913 H 277.085 -0.679981 -5.44672 0
M  V30 2914 H 277.346 0.681642 -4.36814 0
M  V30 2915 N 276.405 1.4127 -0.698611 0
M  V30 2916 C 277.63 2.06024 -0.238512 0
M  V30 2917 C 278.055 1.5224 1.10475 0
M  V30 2918 O 277.413 0.650623 1.69223 0
M  V30 2919 C 277.461 3.59988 -0.209952 0
M  V30 2920 O 276.565 4.04282 0.814235 0
M  V30 2921 H 275.906 0.653829 -0.115775 0
M  V30 2922 H 278.436 1.8098 -0.954326 0
M  V30 2923 H 278.446 4.07979 -0.0418436 0
M  V30 2924 H 277.121 3.98503 -1.1903 0
M  V30 2925 H 275.698 3.6779 0.615234 0
M  V30 2926 N 277.883 0.443576 1.51229 0
M  V30 2927 C 279.294 -0.0180867 1.86691 0
M  V30 2928 C 279.645 -1.41384 1.36033 0
M  V30 2929 O 278.77 -2.04291 0.713722 0
M  V30 2930 C 279.365 -0.039597 3.38777 0
M  V30 2931 C 277.924 -0.445692 3.73752 0
M  V30 2932 C 277.071 0.357584 2.74985 0
M  V30 2933 H 280.022 0.659138 1.44364 0
M  V30 2934 H 280.043 -0.847761 3.70936 0
M  V30 2935 H 279.555 0.976382 3.75617 0
M  V30 2936 H 277.656 -1.46704 3.42503 0
M  V30 2937 H 277.769 -0.166155 4.78812 0
M  V30 2938 H 276.133 -0.184973 2.54027 0
M  V30 2939 H 276.916 1.37256 3.14668 0
M  V30 2940 N 279.361 -1.56624 0.175154 0
M  V30 2941 C 280.586 -2.01813 -0.478137 0
M  V30 2942 C 281.011 -1.05457 -1.55757 0
M  V30 2943 O 280.369 -0.0347439 -1.81267 0
M  V30 2944 C 280.417 -3.45581 -1.02987 0
M  V30 2945 O 279.521 -3.52305 -2.14371 0
M  V30 2946 H 278.862 -0.65413 -0.114059 0
M  V30 2947 H 281.392 -2.02673 0.280173 0
M  V30 2948 H 281.402 -3.84965 -1.35151 0
M  V30 2949 H 280.077 -4.1521 -0.239556 0
M  V30 2950 H 278.654 -3.24783 -1.83222 0
M  V30 2951 N 280.839 0.0985539 -1.57292 0
M  V30 2952 C 281.749 1.13824 -2.05137 0
M  V30 2953 C 282.765 1.44076 -0.975604 0
M  V30 2954 O 283.941 1.54786 -1.28853 0
M  V30 2955 C 281.006 2.43969 -2.46333 0
M  V30 2956 C 280.067 2.2093 -3.68087 0
M  V30 2957 C 279.3 3.44869 -4.0731 0
M  V30 2958 O 279.523 4.52972 -3.46659 0
M  V30 2959 O 278.457 3.34661 -5.00285 0
M  V30 2960 H 282.283 0.761881 -2.93988 0
M  V30 2961 H 279.868 0.310818 -1.46131 0
M  V30 2962 H 281.75 3.20609 -2.73473 0
M  V30 2963 H 280.425 2.81038 -1.60621 0
M  V30 2964 H 279.332 1.42081 -3.46069 0
M  V30 2965 H 280.665 1.88755 -4.54568 0
M  V30 2966 N 282.317 1.53212 0.369288 0
M  V30 2967 C 283.227 1.82342 1.47609 0
M  V30 2968 C 284.243 0.711532 1.58787 0
M  V30 2969 O 285.419 1.0012 1.74751 0
M  V30 2970 C 282.484 2.00393 2.8292 0
M  V30 2971 C 281.545 3.24297 2.81301 0
M  V30 2972 C 280.778 3.41478 4.10157 0
M  V30 2973 O 281.001 2.63033 5.06132 0
M  V30 2974 O 279.935 4.34817 4.16194 0
M  V30 2975 H 283.761 2.76366 1.25918 0
M  V30 2976 H 281.346 1.38547 0.559034 0
M  V30 2977 H 283.228 2.13859 3.63101 0
M  V30 2978 H 281.903 1.09559 3.04596 0
M  V30 2979 H 280.81 3.16257 1.99831 0
M  V30 2980 H 282.143 4.15041 2.64578 0
M  V30 2981 N 283.795 -0.628877 1.44509 0
M  V30 2982 C 285.025 -1.41349 1.50678 0
M  V30 2983 C 285.433 -1.88745 0.131075 0
M  V30 2984 O 284.776 -1.61592 -0.87371 0
M  V30 2985 C 284.838 -2.66608 2.41165 0
M  V30 2986 C 284.502 -2.40993 3.88293 0
M  V30 2987 C 285.499 -2.0268 4.78766 0
M  V30 2988 C 283.184 -2.54563 4.33016 0
M  V30 2989 C 285.178 -1.78269 6.11963 0
M  V30 2990 C 282.865 -2.29766 5.6626 0
M  V30 2991 C 283.863 -1.91678 6.55552 0
M  V30 2992 O 283.551 -1.67158 7.86329 0
M  V30 2993 H 283.283 -0.439851 0.51333 0
M  V30 2994 H 285.837 -0.776084 1.90174 0
M  V30 2995 H 284.067 -3.32994 1.96601 0
M  V30 2996 H 285.756 -3.28615 2.38259 0
M  V30 2997 H 286.522 -1.91751 4.45485 0
M  V30 2998 H 282.401 -2.83179 3.63773 0
M  V30 2999 H 285.945 -1.48465 6.81619 0
M  V30 3000 H 281.842 -2.40306 5.99102 0
M  V30 3001 H 282.61 -1.81386 7.98149 0
M  V30 3002 N 285.273 -1.31445 -0.869486 0
M  V30 3003 C 286.519 -1.22347 -1.62489 0
M  V30 3004 C 286.874 0.216204 -1.91181 0
M  V30 3005 O 286.167 1.14977 -1.53268 0
M  V30 3006 C 286.361 -2.00145 -2.96102 0
M  V30 3007 C 286.19 -3.51531 -2.80456 0
M  V30 3008 C 284.96 -4.20882 -2.79618 0
M  V30 3009 C 287.158 -4.46471 -2.5528 0
M  V30 3010 N 285.14 -5.58421 -2.55027 0
M  V30 3011 C 286.511 -5.71682 -2.39957 0
M  V30 3012 C 288.566 -4.35892 -2.40629 0
M  V30 3013 C 287.269 -6.87511 -2.11472 0
M  V30 3014 C 289.295 -5.51505 -2.13532 0
M  V30 3015 C 288.657 -6.75707 -1.98998 0
M  V30 3016 H 284.756 -0.502815 -0.598917 0
M  V30 3017 H 287.34 -1.65639 -1.02332 0
M  V30 3018 H 285.511 -1.59221 -3.54264 0
M  V30 3019 H 287.243 -1.83063 -3.60929 0
M  V30 3020 H 283.998 -3.72857 -2.92018 0
M  V30 3021 H 284.422 -6.30841 -2.45701 0
M  V30 3022 H 289.064 -3.40533 -2.50593 0
M  V30 3023 H 286.782 -7.82897 -2.00245 0
M  V30 3024 H 290.368 -5.45238 -2.02995 0
M  V30 3025 H 289.248 -7.63655 -1.78326 0
M  V30 3026 N 286.751 1.08385 -1.14413 0
M  V30 3027 C 287.976 1.85057 -0.936413 0
M  V30 3028 C 288.401 1.81055 0.509971 0
M  V30 3029 O 287.759 1.1958 1.36273 0
M  V30 3030 C 287.807 3.30505 -1.44217 0
M  V30 3031 O 286.911 4.07491 -0.634409 0
M  V30 3032 H 286.252 0.573425 -0.334784 0
M  V30 3033 H 288.782 1.36799 -1.52142 0
M  V30 3034 H 288.792 3.81348 -1.45043 0
M  V30 3035 H 287.467 3.32734 -2.49522 0
M  V30 3036 H 286.044 3.66368 -0.694902 0
M  V30 3037 N 288.23 0.939286 1.26551 0
M  V30 3038 C 289.646 0.641304 1.46149 0
M  V30 3039 C 289.846 -0.805964 1.84679 0
M  V30 3040 O 288.902 -1.58278 1.96734 0
M  V30 3041 C 290.215 1.6011 2.54529 0
M  V30 3042 C 291.763 1.6106 2.68382 0
M  V30 3043 C 292.238 2.55765 3.79932 0
M  V30 3044 N 293.729 2.5404 3.87322 0
M  V30 3045 C 294.464 3.24004 4.73085 0
M  V30 3046 N 293.96 4.03388 5.63249 0
M  V30 3047 N 295.753 3.12965 4.66914 0
M  V30 3048 H 287.904 1.87478 0.998285 0
M  V30 3049 H 290.167 0.805559 0.499779 0
M  V30 3050 H 289.873 2.63412 2.33039 0
M  V30 3051 H 289.747 1.35171 3.52149 0
M  V30 3052 H 292.134 0.584835 2.89247 0
M  V30 3053 H 292.215 1.90053 1.71212 0
M  V30 3054 H 291.859 3.58458 3.5982 0
M  V30 3055 H 291.789 2.24063 4.76554 0
M  V30 3056 H 294.28 1.96396 3.22858 0
M  V30 3057 H 294.593 4.5373 6.25579 0
M  V30 3058 H 292.938 4.07489 5.63008 0
M  V30 3059 H 296.129 2.50432 3.95476 0
M  V30 3060 H 296.302 3.67759 5.33533 0
M  V30 3061 N 289.708 -1.40897 0.706093 0
M  V30 3062 C 290.938 -2.05075 0.250523 0
M  V30 3063 C 291.346 -1.53275 -1.10921 0
M  V30 3064 O 290.689 -0.680281 -1.7064 0
M  V30 3065 C 290.751 -3.59219 0.142178 0
M  V30 3066 C 290.415 -4.33864 1.43566 0
M  V30 3067 C 291.412 -4.62448 2.37566 0
M  V30 3068 C 289.097 -4.72946 1.69195 0
M  V30 3069 C 291.091 -5.29088 3.5545 0
M  V30 3070 C 288.778 -5.3932 2.87362 0
M  V30 3071 C 289.776 -5.6732 3.80312 0
M  V30 3072 O 289.464 -6.32325 4.96408 0
M  V30 3073 H 289.196 -0.666645 0.112074 0
M  V30 3074 H 291.75 -1.81467 0.962239 0
M  V30 3075 H 289.98 -3.81609 -0.6254 0
M  V30 3076 H 291.669 -4.0495 -0.277584 0
M  V30 3077 H 292.435 -4.32727 2.19027 0
M  V30 3078 H 288.314 -4.50527 0.977042 0
M  V30 3079 H 291.858 -5.50859 4.28018 0
M  V30 3080 H 287.755 -5.68461 3.05814 0
M  V30 3081 H 288.523 -6.50821 4.9636 0
M  V30 3082 N 291.186 -0.45159 -1.50991 0
M  V30 3083 C 292.432 0.110237 -2.025 0
M  V30 3084 C 292.765 1.41109 -1.33424 0
M  V30 3085 O 292.04 1.89135 -0.453659 0
M  V30 3086 C 292.323 0.314271 -3.58726 0
M  V30 3087 C 292.176 -1.00623 -4.38401 0
M  V30 3088 C 293.495 1.07767 -4.26702 0
M  V30 3089 H 290.614 0.0385897 -0.735989 0
M  V30 3090 H 293.256 -0.593374 -1.80497 0
M  V30 3091 H 291.406 0.913601 -3.77605 0
M  V30 3092 H 293.078 -1.64064 -4.31139 0
M  V30 3093 H 291.321 -1.6075 -4.02917 0
M  V30 3094 H 291.992 -0.817341 -5.45915 0
M  V30 3095 H 294.468 0.56986 -4.12179 0
M  V30 3096 H 293.344 1.18921 -5.35863 0
M  V30 3097 H 293.605 2.10939 -3.88532 0
M  V30 3098 N 292.664 1.56529 -0.183458 0
M  V30 3099 C 293.594 2.21549 0.737456 0
M  V30 3100 C 294.575 1.17489 1.23005 0
M  V30 3101 O 295.76 1.45959 1.281 0
M  V30 3102 C 292.89 2.86575 1.96194 0
M  V30 3103 C 291.844 3.96778 1.60473 0
M  V30 3104 C 291.17 4.48911 2.90487 0
M  V30 3105 C 292.47 5.15767 0.823497 0
M  V30 3106 H 294.164 2.98761 0.195453 0
M  V30 3107 H 291.71 1.43702 0.0925686 0
M  V30 3108 H 293.663 3.30739 2.61131 0
M  V30 3109 H 292.387 2.06749 2.52828 0
M  V30 3110 H 291.046 3.53286 0.978997 0
M  V30 3111 H 290.694 3.65862 3.45186 0
M  V30 3112 H 290.394 5.23265 2.67335 0
M  V30 3113 H 291.918 4.95771 3.56432 0
M  V30 3114 H 293.332 5.56549 1.37571 0
M  V30 3115 H 291.729 5.96114 0.690551 0
M  V30 3116 H 292.799 4.84574 -0.177782 0
M  V30 3117 N 294.142 -0.090211 1.57342 0
M  V30 3118 C 295.092 -1.11557 1.98844 0
M  V30 3119 C 296.076 -1.35503 0.867624 0
M  V30 3120 O 297.268 -1.36113 1.13148 0
M  V30 3121 C 294.397 -2.43446 2.42051 0
M  V30 3122 C 293.483 -2.22853 3.60828 0
M  V30 3123 N 293.874 -1.72141 4.75606 0
M  V30 3124 C 292.172 -2.53401 3.67021 0
M  V30 3125 C 292.873 -1.65932 5.57531 0
M  V30 3126 N 291.849 -2.11323 5.00843 0
M  V30 3127 H 295.651 -0.716499 2.85032 0
M  V30 3128 H 293.165 -0.297567 1.59651 0
M  V30 3129 H 295.162 -3.17644 2.70014 0
M  V30 3130 H 293.822 -2.84087 1.57241 0
M  V30 3131 H 294.833 -1.41268 4.98261 0
M  V30 3132 H 291.51 -2.97532 2.92884 0
M  V30 3133 H 292.9 -1.27733 6.59647 0
M  V30 3134 N 295.62 -1.53406 -0.361157 0
M  V30 3135 C 296.869 -1.69022 -1.10066 0
M  V30 3136 C 297.182 -0.450838 -1.90333 0
M  V30 3137 O 298.388 -0.487617 -2.67085 0
M  V30 3138 C 296.844 -2.98812 -2.00598 0
M  V30 3139 C 296.452 -4.30027 -1.25621 0
M  V30 3140 C 298.196 -3.23795 -2.74513 0
M  V30 3141 C 296.103 -5.50903 -2.1508 0
M  V30 3142 H 295.033 -0.629776 -0.414606 0
M  V30 3143 H 297.684 -1.79907 -0.361348 0
M  V30 3144 H 296.066 -2.8174 -2.78278 0
M  V30 3145 H 297.24 -4.57745 -0.529739 0
M  V30 3146 H 295.555 -4.11522 -0.635496 0
M  V30 3147 H 298.152 -4.11289 -3.41681 0
M  V30 3148 H 298.495 -2.40045 -3.40123 0
M  V30 3149 H 299.028 -3.41561 -2.03914 0
M  V30 3150 H 295.767 -6.37143 -1.54041 0
M  V30 3151 H 295.287 -5.27459 -2.85565 0
M  V30 3152 H 296.966 -5.85865 -2.74538 0
M  V30 3153 N 297.098 0.621204 -1.44841 0
M  V30 3154 C 298.03 1.74615 -1.48466 0
M  V30 3155 C 299.043 1.58377 -0.37691 0
M  V30 3156 O 300.232 1.66508 -0.643215 0
M  V30 3157 C 297.332 3.12459 -1.31236 0
M  V30 3158 C 296.505 3.55064 -2.55438 0
M  V30 3159 C 295.564 4.71821 -2.32963 0
M  V30 3160 O 294.59 4.79628 -3.06505 0
M  V30 3161 N 295.792 5.64186 -1.36654 0
M  V30 3162 H 298.557 1.71973 -2.45449 0
M  V30 3163 H 296.118 0.806077 -1.40407 0
M  V30 3164 H 298.11 3.88302 -1.14032 0
M  V30 3165 H 296.68 3.09686 -0.4258 0
M  V30 3166 H 295.9 2.69324 -2.87851 0
M  V30 3167 H 297.188 3.80284 -3.38026 0
M  V30 3168 H 296.586 5.6058 -0.759344 0
M  V30 3169 H 295.143 6.39618 -1.25425 0
M  V30 3170 N 298.576 1.31904 0.862503 0
M  V30 3171 C 299.824 1.21776 1.61292 0
M  V30 3172 C 300.145 -0.222413 1.93727 0
M  V30 3173 O 299.415 -1.1451 1.58947 0
M  V30 3174 H 297.995 0.447717 0.597962 0
M  V30 3175 H 300.657 1.65326 1.03215 0
M  V30 3176 H 299.753 1.7948 2.5533 0
M  V30 3177 N 300.054 -1.07777 1.14986 0
M  V30 3178 C 301.279 -1.84558 0.946213 0
M  V30 3179 C 301.704 -1.81323 -0.500362 0
M  V30 3180 O 301.062 -1.20301 -1.35637 0
M  V30 3181 C 301.11 -3.29736 1.45968 0
M  V30 3182 O 300.214 -4.07149 0.65601 0
M  V30 3183 H 299.555 -0.571641 0.33782 0
M  V30 3184 H 302.085 -1.35991 1.52865 0
M  V30 3185 H 302.095 -3.80574 1.47063 0
M  V30 3186 H 300.77 -3.31406 2.51283 0
M  V30 3187 H 299.347 -3.65994 0.714322 0
M  V30 3188 N 301.532 -0.945985 -1.26051 0
M  V30 3189 C 302.464 -0.416662 -2.25381 0
M  V30 3190 C 303.477 0.462712 -1.56086 0
M  V30 3191 O 304.666 0.272383 -1.7641 0
M  V30 3192 C 301.766 0.419812 -3.3629 0
M  V30 3193 C 300.939 -0.444531 -4.35135 0
M  V30 3194 C 299.998 0.332305 -5.2515 0
M  V30 3195 O 299.024 -0.266324 -5.68577 0
M  V30 3196 N 300.226 1.62763 -5.57215 0
M  V30 3197 H 302.991 -1.27059 -2.71433 0
M  V30 3198 H 300.552 -0.815392 -1.39868 0
M  V30 3199 H 302.544 0.947013 -3.93464 0
M  V30 3200 H 301.114 1.17456 -2.89694 0
M  V30 3201 H 300.334 -1.15291 -3.76964 0
M  V30 3202 H 301.622 -1.03478 -4.98166 0
M  V30 3203 H 301.02 2.13603 -5.23823 0
M  V30 3204 H 299.577 2.10097 -6.17011 0
M  V30 3205 N 303.011 1.40521 -0.713556 0
M  V30 3206 C 304.259 2.00527 -0.251692 0
M  V30 3207 C 304.58 1.56857 1.15848 0
M  V30 3208 O 303.85 0.807127 1.785 0
M  V30 3209 H 302.43 0.741551 -0.0900646 0
M  V30 3210 H 305.092 1.71887 -0.918733 0
M  V30 3211 H 304.188 3.10813 -0.283192 0
M  V30 3212 N 304.489 0.459591 1.5075 0
M  V30 3213 C 305.738 -0.100971 2.01447 0
M  V30 3214 C 306.051 -1.41816 1.34713 0
M  V30 3215 O 307.257 -2.06299 1.76502 0
M  V30 3216 C 305.713 -0.23047 3.59161 0
M  V30 3217 C 305.321 1.0776 4.34847 0
M  V30 3218 C 307.065 -0.743608 4.17936 0
M  V30 3219 C 304.972 0.91253 5.84317 0
M  V30 3220 H 303.902 -0.0415102 0.752856 0
M  V30 3221 H 306.553 0.592742 1.73663 0
M  V30 3222 H 304.935 -0.987703 3.83485 0
M  V30 3223 H 306.109 1.8449 4.22256 0
M  V30 3224 H 304.424 1.52097 3.87628 0
M  V30 3225 H 307.021 -0.883959 5.27343 0
M  V30 3226 H 307.364 -1.73196 3.78562 0
M  V30 3227 H 307.897 -0.04408 3.97776 0
M  V30 3228 H 304.636 1.87391 6.28144 0
M  V30 3229 H 304.156 0.185422 5.99513 0
M  V30 3230 H 305.835 0.574547 6.44444 0
M  V30 3231 N 305.967 -1.56429 0.191757 0
M  V30 3232 C 307.215 -1.97095 -0.447006 0
M  V30 3233 C 307.536 -1.07967 -1.62383 0
M  V30 3234 O 306.806 -0.150248 -1.95323 0
M  V30 3235 H 305.386 -0.727832 -0.168135 0
M  V30 3236 H 308.048 -1.92911 0.27771 0
M  V30 3237 H 307.144 -3.01848 -0.793371 0
M  V30 3238 N 307.445 0.0818655 -1.57387 0
M  V30 3239 C 308.67 0.799946 -1.91352 0
M  V30 3240 C 309.095 1.70833 -0.787258 0
M  V30 3241 O 308.453 1.79419 0.26048 0
M  V30 3242 C 308.501 1.57812 -3.24234 0
M  V30 3243 O 307.605 2.68806 -3.12757 0
M  V30 3244 H 306.946 0.21891 -0.626877 0
M  V30 3245 H 309.476 0.0531256 -2.04531 0
M  V30 3246 H 309.486 1.95952 -3.57864 0
M  V30 3247 H 308.161 0.911548 -4.05788 0
M  V30 3248 H 306.738 2.33597 -2.90666 0
M  V30 3249 N 308.923 1.53595 0.353017 0
M  V30 3250 C 310.334 1.61937 0.929153 0
M  V30 3251 C 310.685 0.494686 1.89861 0
M  V30 3252 O 309.81 -0.377017 2.1309 0
M  V30 3253 C 310.405 2.93526 1.69199 0
M  V30 3254 C 308.964 3.04161 2.21727 0
M  V30 3255 C 308.111 2.57322 1.03348 0
M  V30 3256 H 311.062 1.58155 0.131431 0
M  V30 3257 H 311.083 2.82034 2.55416 0
M  V30 3258 H 310.595 3.75362 0.986144 0
M  V30 3259 H 308.696 2.26938 2.95516 0
M  V30 3260 H 308.809 4.09465 2.48748 0
M  V30 3261 H 307.173 2.12499 1.40414 0
M  V30 3262 H 307.956 3.41588 0.342428 0
M  V30 3263 N 310.401 -0.613514 1.45168 0
M  V30 3264 C 311.649 -1.36997 1.48581 0
M  V30 3265 C 311.97 -1.94589 0.126545 0
M  V30 3266 O 311.24 -1.76816 -0.843372 0
M  V30 3267 H 309.82 -0.508558 0.547154 0
M  V30 3268 H 312.482 -0.720853 1.81079 0
M  V30 3269 H 311.578 -2.1924 2.22127 0
M  V30 3270 N 311.879 -1.3236 -0.855495 0
M  V30 3271 C 312.789 -1.23221 -1.99634 0
M  V30 3272 C 313.805 -0.145983 -1.73387 0
M  V30 3273 O 314.981 -0.366502 -1.98037 0
M  V30 3274 C 312.046 -0.954782 -3.33294 0
M  V30 3275 C 311.107 -2.12937 -3.72769 0
M  V30 3276 C 310.34 -1.86508 -5.00051 0
M  V30 3277 O 310.563 -0.807231 -5.64659 0
M  V30 3278 O 309.497 -2.72591 -5.36636 0
M  V30 3279 H 313.323 -2.19126 -2.1028 0
M  V30 3280 H 310.908 -1.12241 -0.986018 0
M  V30 3281 H 312.79 -0.816519 -4.13414 0
M  V30 3282 H 311.465 -0.0258854 -3.2369 0
M  V30 3283 H 310.372 -2.3231 -2.93228 0
M  V30 3284 H 311.705 -3.04102 -3.87018 0
M  V30 3285 N 313.357 1.07166 -1.15556 0
M  V30 3286 C 314.606 1.79181 -0.926132 0
M  V30 3287 C 314.919 1.87768 0.547967 0
M  V30 3288 O 316.125 2.56323 0.895036 0
M  V30 3289 C 314.581 3.22 -1.60761 0
M  V30 3290 C 314.189 3.21607 -3.11886 0
M  V30 3291 C 315.933 3.9861 -1.4598 0
M  V30 3292 C 313.84 4.59092 -3.72812 0
M  V30 3293 H 312.77 0.67154 -0.342856 0
M  V30 3294 H 315.421 1.2027 -1.3859 0
M  V30 3295 H 313.803 3.81115 -1.07553 0
M  V30 3296 H 314.977 2.72127 -3.71865 0
M  V30 3297 H 313.292 2.58495 -3.2645 0
M  V30 3298 H 315.889 5.00225 -1.88888 0
M  V30 3299 H 316.232 4.143 -0.407541 0
M  V30 3300 H 316.765 3.45996 -1.96295 0
M  V30 3301 H 313.504 4.48606 -4.77946 0
M  V30 3302 H 313.024 5.08803 -3.17616 0
M  V30 3303 H 314.703 5.28059 -3.73848 0
M  V30 3304 N 314.835 0.952656 1.25548 0
M  V30 3305 C 316.251 0.656769 1.4546 0
M  V30 3306 C 316.451 -0.78633 1.85524 0
M  V30 3307 O 315.507 -1.56183 1.98402 0
M  V30 3308 C 316.82 1.62801 2.52817 0
M  V30 3309 C 318.368 1.63897 2.66659 0
M  V30 3310 C 318.843 2.5978 3.77198 0
M  V30 3311 N 320.334 2.58133 3.84606 0
M  V30 3312 C 321.069 3.29003 4.69621 0
M  V30 3313 N 320.565 4.09339 5.58939 0
M  V30 3314 N 322.358 3.179 4.63569 0
M  V30 3315 H 314.509 1.88526 0.978344 0
M  V30 3316 H 316.772 0.810815 0.491206 0
M  V30 3317 H 316.478 2.65869 2.30232 0
M  V30 3318 H 316.352 1.38898 3.50695 0
M  V30 3319 H 318.739 0.615481 2.8861 0
M  V30 3320 H 318.82 1.91858 1.69187 0
M  V30 3321 H 318.464 3.62254 3.55997 0
M  V30 3322 H 318.394 2.29105 4.7415 0
M  V30 3323 H 320.885 1.99809 3.20757 0
M  V30 3324 H 321.198 4.6034 6.20731 0
M  V30 3325 H 319.543 4.13438 5.58654 0
M  V30 3326 H 322.734 2.54612 3.92798 0
M  V30 3327 H 322.907 3.73398 5.29602 0
M  V30 3328 N 316.313 -1.40141 0.720998 0
M  V30 3329 C 317.559 -2.01572 0.272075 0
M  V30 3330 C 317.914 -1.5616 -1.12391 0
M  V30 3331 O 317.207 -0.774198 -1.75262 0
M  V30 3332 C 317.401 -3.56165 0.296892 0
M  V30 3333 C 317.23 -4.16584 1.69375 0
M  V30 3334 C 316 -4.49783 2.30269 0
M  V30 3335 C 318.198 -4.41076 2.64493 0
M  V30 3336 N 316.18 -4.95626 3.62254 0
M  V30 3337 C 317.551 -4.88971 3.81192 0
M  V30 3338 C 319.606 -4.23122 2.62435 0
M  V30 3339 C 318.309 -5.20796 4.96149 0
M  V30 3340 C 320.335 -4.56052 3.76524 0
M  V30 3341 C 319.697 -5.04141 4.91956 0
M  V30 3342 H 315.796 -0.768343 0.145511 0
M  V30 3343 H 318.38 -1.70287 0.943959 0
M  V30 3344 H 316.551 -3.86868 -0.344578 0
M  V30 3345 H 318.283 -4.04346 -0.169254 0
M  V30 3346 H 315.038 -4.37101 1.82318 0
M  V30 3347 H 315.462 -5.22923 4.29977 0
M  V30 3348 H 320.104 -3.85158 1.74393 0
M  V30 3349 H 317.822 -5.57672 5.84831 0
M  V30 3350 H 321.408 -4.43796 3.76213 0
M  V30 3351 H 320.288 -5.29142 5.78774 0
M  V30 3352 N 317.792 -0.46758 -1.50504 0
M  V30 3353 C 318.74 0.342482 -2.30065 0
M  V30 3354 C 319.734 0.993596 -1.37201 0
M  V30 3355 O 320.94 0.925102 -1.54408 0
M  V30 3356 H 317.315 0.129283 -0.740803 0
M  V30 3357 H 319.286 -0.34899 -2.96352 0
M  V30 3358 C 318.035 1.4139 -3.17654 0
M  V30 3359 H 317.358 0.922264 -3.89017 0
M  V30 3360 H 318.798 1.95335 -3.76325 0
M  V30 3361 C 317.257 2.4139 -2.35016 0
M  V30 3362 O 317.787 3.46586 -2.03079 0
M  V30 3363 N 315.993 2.13021 -1.97662 0
M  V30 3364 H 315.54 1.27499 -2.23834 0
M  V30 3365 H 315.498 2.80164 -1.42673 0
M  V30 3366 N 319.27 1.56325 -0.20005 0
M  V30 3367 C 320.2 2.22318 0.713916 0
M  V30 3368 C 321.181 1.18788 1.21752 0
M  V30 3369 O 322.366 1.47309 1.26545 0
M  V30 3370 C 319.496 2.88639 1.93144 0
M  V30 3371 C 318.45 3.98457 1.56255 0
M  V30 3372 C 317.776 4.51967 2.85709 0
M  V30 3373 C 319.076 5.16612 0.768747 0
M  V30 3374 H 320.77 2.98952 0.163755 0
M  V30 3375 H 318.316 1.43792 0.0773219 0
M  V30 3376 H 320.269 3.33491 2.57608 0
M  V30 3377 H 318.993 2.09419 2.50621 0
M  V30 3378 H 317.652 3.54305 0.941471 0
M  V30 3379 H 317.3 3.69503 3.41287 0
M  V30 3380 H 317 5.26071 2.6177 0
M  V30 3381 H 318.524 4.99523 3.51154 0
M  V30 3382 H 319.938 5.57977 1.3166 0
M  V30 3383 H 318.335 5.96812 0.627286 0
M  V30 3384 H 319.405 4.84358 -0.229168 0
M  V30 3385 N 320.748 -0.0735177 1.57428 0
M  V30 3386 C 321.988 -0.778363 1.89 0
M  V30 3387 C 322.352 -1.7483 0.793634 0
M  V30 3388 O 323.553 -2.49811 0.992367 0
M  V30 3389 C 321.824 -1.46929 3.25802 0
M  V30 3390 S 323.383 -2.20943 3.79117 0
M  V30 3391 H 320.201 -0.258874 0.662197 0
M  V30 3392 H 322.803 -0.0345338 1.95469 0
M  V30 3393 H 321.507 -0.749532 4.03497 0
M  V30 3394 H 321.038 -2.25258 3.22525 0
M  V30 3395 H 323.053 -3.47435 3.54265 0
M  V30 3396 N 322.226 -1.5378 -0.344866 0
M  V30 3397 C 323.156 -1.84662 -1.42906 0
M  V30 3398 C 324.137 -0.701648 -1.54955 0
M  V30 3399 O 325.322 -0.953438 -1.69184 0
M  V30 3400 C 322.452 -2.05503 -2.79974 0
M  V30 3401 C 321.406 -3.21318 -2.82734 0
M  V30 3402 C 320.732 -3.2749 -4.22675 0
M  V30 3403 C 322.032 -4.59456 -2.48389 0
M  V30 3404 H 323.726 -2.75461 -1.17311 0
M  V30 3405 H 321.272 -1.32542 -0.562896 0
M  V30 3406 H 323.225 -2.25691 -3.55867 0
M  V30 3407 H 321.949 -1.11434 -3.07002 0
M  V30 3408 H 320.608 -3.00984 -2.09294 0
M  V30 3409 H 320.256 -2.31019 -4.4681 0
M  V30 3410 H 319.956 -4.05316 -4.25433 0
M  V30 3411 H 321.48 -3.49887 -5.00412 0
M  V30 3412 H 322.894 -4.79667 -3.13995 0
M  V30 3413 H 321.291 -5.39675 -2.62432 0
M  V30 3414 H 322.361 -4.63155 -1.4358 0
M  V30 3415 N 323.704 0.605807 -1.45491 0
M  V30 3416 C 324.944 1.37606 -1.51142 0
M  V30 3417 C 325.308 1.91413 -0.150075 0
M  V30 3418 O 326.509 2.68677 -0.0812828 0
M  V30 3419 C 324.78 2.49197 -2.56195 0
M  V30 3420 S 326.339 3.36953 -2.81083 0
M  V30 3421 H 323.157 0.469118 -0.534275 0
M  V30 3422 H 325.759 0.698845 -1.82583 0
M  V30 3423 H 324.463 2.0802 -3.53773 0
M  V30 3424 H 323.994 3.21717 -2.26411 0
M  V30 3425 H 326.009 4.47395 -2.14598 0
M  V30 3426 N 325.182 1.32811 0.848464 0
M  V30 3427 C 326.112 1.24882 1.97299 0
M  V30 3428 C 327.093 0.131357 1.69592 0
M  V30 3429 O 328.278 0.319553 1.91553 0
M  V30 3430 C 325.408 0.97746 3.33261 0
M  V30 3431 C 324.362 2.05682 3.75338 0
M  V30 3432 C 323.688 1.63777 5.09 0
M  V30 3433 C 324.988 3.47254 3.90144 0
M  V30 3434 H 326.682 2.18966 2.04191 0
M  V30 3435 H 324.228 1.05413 0.981029 0
M  V30 3436 H 326.181 0.908513 4.1149 0
M  V30 3437 H 324.905 0.000980011 3.266 0
M  V30 3438 H 323.564 2.11603 2.99366 0
M  V30 3439 H 323.212 0.648569 4.98801 0
M  V30 3440 H 322.912 2.36 5.38124 0
M  V30 3441 H 324.436 1.5833 5.89715 0
M  V30 3442 H 325.85 3.43888 4.58709 0
M  V30 3443 H 324.247 4.1788 4.30693 0
M  V30 3444 H 325.317 3.86462 2.92874 0
M  V30 3445 N 326.66 -1.06551 1.16123 0
M  V30 3446 C 327.59 -2.15935 0.88851 0
M  V30 3447 C 328.571 -1.69306 -0.164135 0
M  V30 3448 O 329.756 -1.94193 -0.0167857 0
M  V30 3449 C 326.886 -3.45149 0.385942 0
M  V30 3450 C 325.84 -4.05271 1.3762 0
M  V30 3451 C 325.166 -5.29664 0.732137 0
M  V30 3452 C 326.466 -4.44355 2.74493 0
M  V30 3453 H 328.16 -2.39006 1.80323 0
M  V30 3454 H 325.706 -1.14866 0.868435 0
M  V30 3455 H 327.659 -4.21004 0.182647 0
M  V30 3456 H 326.383 -3.21689 -0.564274 0
M  V30 3457 H 325.042 -3.3147 1.56599 0
M  V30 3458 H 324.69 -5.02499 -0.224483 0
M  V30 3459 H 324.39 -5.70848 1.39307 0
M  V30 3460 H 325.914 -6.08218 0.538802 0
M  V30 3461 H 327.328 -5.11303 2.59311 0
M  V30 3462 H 325.725 -4.96515 3.37035 0
M  V30 3463 H 326.795 -3.55339 3.29943 0
M  V30 3464 N 328.138 -0.959301 -1.25041 0
M  V30 3465 C 329.068 -0.501388 -2.28053 0
M  V30 3466 C 330.049 0.454673 -1.63911 0
M  V30 3467 O 331.234 0.352618 -1.90972 0
M  V30 3468 C 328.364 0.217224 -3.4662 0
M  V30 3469 C 327.318 -0.654034 -4.22973 0
M  V30 3470 C 326.644 0.195589 -5.34342 0
M  V30 3471 C 327.944 -1.93447 -4.85155 0
M  V30 3472 H 329.638 -1.36238 -2.66608 0
M  V30 3473 H 327.184 -0.656534 -1.28163 0
M  V30 3474 H 329.137 0.548732 -4.17812 0
M  V30 3475 H 327.861 1.1125 -3.07068 0
M  V30 3476 H 326.52 -0.968693 -3.5357 0
M  V30 3477 H 326.168 1.09076 -4.91031 0
M  V30 3478 H 325.868 -0.384091 -5.86343 0
M  V30 3479 H 327.392 0.521958 -6.08365 0
M  V30 3480 H 328.806 -1.66908 -5.48466 0
M  V30 3481 H 327.203 -2.46018 -5.47353 0
M  V30 3482 H 328.273 -2.63466 -4.07079 0
M  V30 3483 N 329.616 1.39756 -0.72842 0
M  V30 3484 C 330.579 2.29012 -0.0927297 0
M  V30 3485 C 331.579 1.45992 0.674025 0
M  V30 3486 O 332.769 1.66749 0.50402 0
M  V30 3487 C 329.901 3.29396 0.878137 0
M  V30 3488 H 331.094 2.86729 -0.879011 0
M  V30 3489 H 328.647 1.48293 -0.493847 0
M  V30 3490 H 329.382 2.76722 1.69101 0
M  V30 3491 H 329.167 3.907 0.331051 0
M  V30 3492 H 330.657 3.96199 1.3197 0
M  V30 3493 N 331.094 0.475555 1.50254 0
M  V30 3494 C 332.34 -0.0701075 2.03279 0
M  V30 3495 C 332.695 -1.37007 1.35081 0
M  V30 3496 O 331.988 -1.8577 0.469052 0
M  V30 3497 C 332.182 -0.305114 3.56095 0
M  V30 3498 C 332.011 0.970515 4.39103 0
M  V30 3499 C 330.781 1.51509 4.82051 0
M  V30 3500 C 332.979 1.8671 4.79212 0
M  V30 3501 N 330.961 2.73928 5.49397 0
M  V30 3502 C 332.332 2.93715 5.46014 0
M  V30 3503 C 334.387 1.87695 4.61167 0
M  V30 3504 C 333.09 4.01699 5.96683 0
M  V30 3505 C 335.116 2.94637 5.12779 0
M  V30 3506 C 334.478 4.00361 5.79561 0
M  V30 3507 H 330.577 0.014486 0.781866 0
M  V30 3508 H 333.161 0.644755 1.83714 0
M  V30 3509 H 331.332 -0.989019 3.75597 0
M  V30 3510 H 333.064 -0.845516 3.95769 0
M  V30 3511 H 329.819 1.06367 4.61501 0
M  V30 3512 H 330.243 3.36109 5.87673 0
M  V30 3513 H 334.885 1.07273 4.08965 0
M  V30 3514 H 332.603 4.82934 6.4792 0
M  V30 3515 H 336.189 2.96388 5.00645 0
M  V30 3516 H 335.069 4.81751 6.18778 0
M  V30 3517 N 332.573 -1.56217 0.208337 0
M  V30 3518 C 333.819 -1.98242 -0.427552 0
M  V30 3519 C 334.152 -1.09554 -1.60348 0
M  V30 3520 O 333.427 -0.15035 -1.93918 0
M  V30 3521 C 333.71 -3.4931 -0.874907 0
M  V30 3522 C 333.563 -4.48773 0.303751 0
M  V30 3523 C 334.882 -4.04424 -1.73577 0
M  V30 3524 H 332.001 -0.720744 -0.153936 0
M  V30 3525 H 334.643 -1.87586 0.30192 0
M  V30 3526 H 332.793 -3.58522 -1.49648 0
M  V30 3527 H 334.465 -4.51586 0.941682 0
M  V30 3528 H 332.708 -4.23194 0.953375 0
M  V30 3529 H 333.379 -5.51976 -0.0519883 0
M  V30 3530 H 335.855 -3.98075 -1.21143 0
M  V30 3531 H 334.731 -5.1047 -2.01771 0
M  V30 3532 H 334.992 -3.50494 -2.69456 0
M  V30 3533 N 334.051 0.0651679 -1.57465 0
M  V30 3534 C 335.3 0.761916 -1.86756 0
M  V30 3535 C 335.613 1.78406 -0.801925 0
M  V30 3536 O 336.819 2.53084 -0.982885 0
M  V30 3537 C 335.275 1.40603 -3.31299 0
M  V30 3538 C 334.883 0.422115 -4.46007 0
M  V30 3539 C 336.627 2.08476 -3.69781 0
M  V30 3540 C 334.534 1.07252 -5.81593 0
M  V30 3541 H 333.464 0.288308 -0.696702 0
M  V30 3542 H 336.115 0.015344 -1.83494 0
M  V30 3543 H 334.497 2.20109 -3.29193 0
M  V30 3544 H 335.671 -0.343613 -4.59517 0
M  V30 3545 H 333.986 -0.152527 -4.16121 0
M  V30 3546 H 336.583 2.57925 -4.68379 0
M  V30 3547 H 336.926 2.88712 -2.99919 0
M  V30 3548 H 337.459 1.35792 -3.73905 0
M  V30 3549 H 334.198 0.310342 -6.54765 0
M  V30 3550 H 333.718 1.80895 -5.71872 0
M  V30 3551 H 335.397 1.59043 -6.27148 0
M  V30 3552 N 335.529 1.53961 0.336706 0
M  V30 3553 C 336.775 1.7179 1.07777 0
M  V30 3554 C 337.108 0.483263 1.88091 0
M  V30 3555 O 336.383 -0.519747 1.87427 0
M  V30 3556 C 336.666 2.98558 2.01334 0
M  V30 3557 C 336.519 4.32245 1.24437 0
M  V30 3558 C 337.838 3.21023 3.01052 0
M  V30 3559 H 334.957 0.625089 0.390426 0
M  V30 3560 H 337.599 1.86641 0.35567 0
M  V30 3561 H 335.749 2.86028 2.62908 0
M  V30 3562 H 337.421 4.56637 0.654243 0
M  V30 3563 H 335.664 4.30344 0.546458 0
M  V30 3564 H 336.335 5.17137 1.93063 0
M  V30 3565 H 338.811 3.32929 2.49595 0
M  V30 3566 H 337.687 4.11104 3.6371 0
M  V30 3567 H 337.948 2.37637 3.72802 0
M  V30 3568 N 337.007 -0.598083 1.45811 0
M  V30 3569 C 338.254 -1.35681 1.50323 0
M  V30 3570 C 338.582 -1.9393 0.148739 0
M  V30 3571 O 337.837 -1.76094 -0.853787 0
M  V30 3572 C 338.136 -2.51669 2.53766 0
M  V30 3573 C 337.802 -2.11508 3.98215 0
M  V30 3574 C 336.464 -2.0027 4.37545 0
M  V30 3575 C 338.816 -1.80308 4.89018 0
M  V30 3576 C 336.144 -1.56067 5.65562 0
M  V30 3577 C 338.496 -1.37589 6.17456 0
M  V30 3578 C 337.16 -1.24916 6.55708 0
M  V30 3579 H 336.43 -0.496492 0.550069 0
M  V30 3580 H 339.077 -0.675052 1.79207 0
M  V30 3581 H 337.382 -3.25225 2.18486 0
M  V30 3582 H 339.079 -3.09895 2.54492 0
M  V30 3583 H 335.669 -2.21185 3.67117 0
M  V30 3584 H 339.853 -1.87884 4.59362 0
M  V30 3585 H 335.109 -1.44886 5.93985 0
M  V30 3586 H 339.283 -1.12495 6.87254 0
M  V30 3587 H 336.91 -0.904386 7.54801 0
M  V30 3588 N 338.485 -1.33259 -0.841409 0
M  V30 3589 C 339.415 -1.25926 -1.96634 0
M  V30 3590 C 340.396 -0.140349 -1.6952 0
M  V30 3591 O 341.581 -0.329707 -1.91381 0
M  V30 3592 C 338.711 -0.99512 -3.32738 0
M  V30 3593 C 337.665 -2.0767 -3.74242 0
M  V30 3594 C 336.991 -1.66474 -5.08125 0
M  V30 3595 C 338.291 -3.49318 -3.88297 0
M  V30 3596 H 339.985 -2.20046 -2.03027 0
M  V30 3597 H 337.531 -1.05931 -0.975425 0
M  V30 3598 H 339.484 -0.930323 -4.11002 0
M  V30 3599 H 338.208 -0.0183004 -3.26595 0
M  V30 3600 H 336.867 -2.13187 -2.98239 0
M  V30 3601 H 336.515 -0.675012 -4.9845 0
M  V30 3602 H 336.215 -2.3885 -5.36865 0
M  V30 3603 H 337.739 -1.61455 -5.88867 0
M  V30 3604 H 339.153 -3.46316 -4.56879 0
M  V30 3605 H 337.55 -4.20158 -4.28471 0
M  V30 3606 H 338.62 -3.8801 -2.9082 0
M  V30 3607 N 339.963 1.05934 -1.16686 0
M  V30 3608 C 341.203 1.80382 -0.961345 0
M  V30 3609 C 341.567 1.85331 0.501643 0
M  V30 3610 O 342.768 2.55795 0.825986 0
M  V30 3611 C 341.039 3.20777 -1.57596 0
M  V30 3612 S 342.598 4.11795 -1.51559 0
M  V30 3613 H 339.416 0.621332 -0.345641 0
M  V30 3614 H 342.018 1.27157 -1.48497 0
M  V30 3615 H 340.722 3.14773 -2.63337 0
M  V30 3616 H 340.253 3.79078 -1.05182 0
M  V30 3617 H 342.268 4.93485 -0.518374 0
M  V30 3618 N 341.441 0.965919 1.2453 0
M  V30 3619 C 342.69 0.622437 1.91856 0
M  V30 3620 C 343.003 -0.846006 1.76358 0
M  V30 3621 O 344.209 -1.29993 2.38357 0
M  V30 3622 C 342.665 1.0626 3.43856 0
M  V30 3623 C 342.273 2.55437 3.68043 0
M  V30 3624 C 344.017 0.792183 4.17043 0
M  V30 3625 C 341.924 2.93196 5.13605 0
M  V30 3626 H 340.854 0.229092 0.718354 0
M  V30 3627 H 343.505 1.17189 1.41206 0
M  V30 3628 H 341.887 0.441476 3.93531 0
M  V30 3629 H 343.061 3.22665 3.28974 0
M  V30 3630 H 341.376 2.8007 3.08139 0
M  V30 3631 H 343.973 1.05031 5.24283 0
M  V30 3632 H 344.316 -0.271584 4.15413 0
M  V30 3633 H 344.849 1.37419 3.73311 0
M  V30 3634 H 341.588 3.98636 5.20355 0
M  V30 3635 H 341.108 2.30651 5.53679 0
M  V30 3636 H 342.787 2.83004 5.81823 0
M  V30 3637 N 342.919 -1.39368 0.735821 0
M  V30 3638 C 343.849 -2.33234 0.111506 0
M  V30 3639 C 344.83 -1.53954 -0.723334 0
M  V30 3640 O 346.015 -1.82344 -0.668147 0
M  V30 3641 C 343.145 -3.38057 -0.795917 0
M  V30 3642 C 342.099 -4.2795 -0.065172 0
M  V30 3643 C 341.425 -5.23479 -1.08967 0
M  V30 3644 C 342.725 -5.10741 1.09273 0
M  V30 3645 H 344.419 -2.85692 0.895571 0
M  V30 3646 H 341.965 -1.37364 0.432109 0
M  V30 3647 H 343.918 -4.02675 -1.24221 0
M  V30 3648 H 342.642 -2.8404 -1.61211 0
M  V30 3649 H 341.301 -3.64813 0.361511 0
M  V30 3650 H 340.949 -4.65758 -1.89944 0
M  V30 3651 H 340.649 -5.84472 -0.605489 0
M  V30 3652 H 342.173 -5.90974 -1.53565 0
M  V30 3653 H 343.587 -5.68699 0.724841 0
M  V30 3654 H 341.984 -5.8088 1.50659 0
M  V30 3655 H 343.054 -4.45525 1.91404 0
M  V30 3656 N 344.397 -0.483516 -1.5 0
M  V30 3657 C 345.344 0.304164 -2.28787 0
M  V30 3658 C 346.314 0.976114 -1.34392 0
M  V30 3659 O 347.499 0.986156 -1.63339 0
M  V30 3660 C 344.639 1.37298 -3.16612 0
M  V30 3661 C 343.752 0.714561 -4.26049 0
M  V30 3662 C 342.887 1.76232 -5.01114 0
M  V30 3663 C 341.926 1.08483 -6.0241 0
M  V30 3664 N 341.063 2.076 -6.70706 0
M  V30 3665 H 345.903 -0.373981 -2.95644 0
M  V30 3666 H 343.44 -0.196275 -1.45785 0
M  V30 3667 H 345.398 2.00445 -3.65893 0
M  V30 3668 H 344.028 2.02012 -2.51776 0
M  V30 3669 H 343.08 -0.0297798 -3.80388 0
M  V30 3670 H 344.392 0.180383 -4.98474 0
M  V30 3671 H 343.546 2.46929 -5.54176 0
M  V30 3672 H 342.285 2.33033 -4.28424 0
M  V30 3673 H 341.29 0.363545 -5.48597 0
M  V30 3674 H 342.515 0.523551 -6.77079 0
M  V30 3675 H 340.461 2.63394 -6.00799 0
M  V30 3676 H 340.378 1.59201 -7.39047 0
M  V30 3677 H 341.646 2.77639 -7.2838 0
M  V30 3678 N 345.875 1.56104 -0.216619 0
M  V30 3679 C 347.123 1.97781 0.415593 0
M  V30 3680 C 347.444 1.10536 1.60645 0
M  V30 3681 O 346.714 0.181303 1.95059 0
M  V30 3682 H 345.294 0.730415 0.156534 0
M  V30 3683 H 347.956 1.92445 -0.308366 0
M  V30 3684 H 347.052 3.03072 0.74525 0
M  V30 3685 N 347.353 -0.0568162 1.57498 0
M  V30 3686 C 348.599 -0.75422 1.88253 0
M  V30 3687 C 348.932 -1.76461 0.810865 0
M  V30 3688 O 348.207 -1.93691 -0.177259 0
M  V30 3689 C 348.49 -1.44878 3.2967 0
M  V30 3690 C 348.343 -0.453789 4.47505 0
M  V30 3691 C 349.662 -2.38994 3.69554 0
M  V30 3692 H 346.781 -0.272724 0.684683 0
M  V30 3693 H 349.423 -0.0172113 1.89992 0
M  V30 3694 H 347.573 -2.077 3.28318 0
M  V30 3695 H 349.245 0.170371 4.60985 0
M  V30 3696 H 347.488 0.229552 4.33192 0
M  V30 3697 H 348.159 -0.977699 5.43273 0
M  V30 3698 H 350.635 -1.86239 3.72095 0
M  V30 3699 H 349.511 -2.84587 4.69363 0
M  V30 3700 H 349.772 -3.24461 3.00296 0
M  V30 3701 N 348.832 -1.54138 -0.328536 0
M  V30 3702 C 349.779 -1.83176 -1.40411 0
M  V30 3703 C 350.749 -0.678494 -1.5161 0
M  V30 3704 O 351.934 -0.92443 -1.6691 0
M  V30 3705 C 349.074 -2.06035 -2.76846 0
M  V30 3706 C 348.187 -3.33727 -2.74318 0
M  V30 3707 C 347.322 -3.46574 -4.02567 0
M  V30 3708 C 346.361 -4.68159 -3.94327 0
M  V30 3709 N 345.498 -4.77959 -5.14296 0
M  V30 3710 H 350.338 -2.74938 -1.14948 0
M  V30 3711 H 347.875 -1.36166 -0.556538 0
M  V30 3712 H 349.833 -2.1728 -3.56153 0
M  V30 3713 H 348.463 -1.1757 -3.00628 0
M  V30 3714 H 347.515 -3.31246 -1.8703 0
M  V30 3715 H 348.827 -4.23139 -2.64111 0
M  V30 3716 H 347.981 -3.57333 -4.90304 0
M  V30 3717 H 346.72 -2.55245 -4.15574 0
M  V30 3718 H 345.725 -4.57461 -3.04974 0
M  V30 3719 H 346.95 -5.60868 -3.82889 0
M  V30 3720 H 344.896 -3.89544 -5.27818 0
M  V30 3721 H 344.813 -5.6133 -5.06404 0
M  V30 3722 H 346.081 -4.93044 -6.03761 0
M  V30 3723 N 350.31 0.590341 -1.46126 0
M  V30 3724 C 351.535 1.37991 -1.54833 0
M  V30 3725 C 351.96 1.87163 -0.187506 0
M  V30 3726 O 351.318 1.61133 0.831008 0
M  V30 3727 C 351.366 2.54867 -2.55098 0
M  V30 3728 O 350.47 3.56061 -2.08073 0
M  V30 3729 H 349.811 0.411265 -0.521303 0
M  V30 3730 H 352.341 0.716819 -1.91632 0
M  V30 3731 H 352.351 3.01886 -2.74461 0
M  V30 3732 H 351.026 2.18429 -3.53923 0
M  V30 3733 H 349.603 3.15574 -1.98664 0
M  V30 3734 N 351.788 1.33704 0.83433 0
M  V30 3735 C 353.013 1.28615 1.62705 0
M  V30 3736 C 353.438 -0.139242 1.87584 0
M  V30 3737 O 352.796 -1.09734 1.4432 0
M  V30 3738 C 352.844 2.07139 2.95171 0
M  V30 3739 O 351.948 1.4331 3.86699 0
M  V30 3740 H 351.289 0.44226 0.49528 0
M  V30 3741 H 353.819 1.76335 1.03766 0
M  V30 3742 H 353.829 2.18073 3.44831 0
M  V30 3743 H 352.504 3.10779 2.76386 0
M  V30 3744 H 351.081 1.4105 3.45195 0
M  V30 3745 N 353.266 -1.05314 1.17247 0
M  V30 3746 C 354.514 -1.77941 0.958194 0
M  V30 3747 C 354.835 -1.88089 -0.514556 0
M  V30 3748 O 354.105 -1.39676 -1.37359 0
M  V30 3749 H 352.685 -0.659116 0.351533 0
M  V30 3750 H 355.347 -1.27166 1.47699 0
M  V30 3751 H 354.443 -2.79663 1.38546 0
M  V30 3752 N 354.744 -0.972509 -1.24016 0
M  V30 3753 C 355.691 -0.505969 -2.25186 0
M  V30 3754 C 356.661 0.451009 -1.5986 0
M  V30 3755 O 357.846 0.360307 -1.87367 0
M  V30 3756 C 354.986 0.193089 -3.44559 0
M  V30 3757 C 354.099 -0.803222 -4.24467 0
M  V30 3758 C 353.234 -0.0797793 -5.3114 0
M  V30 3759 C 352.273 -1.06583 -6.02749 0
M  V30 3760 N 351.41 -0.372074 -7.01113 0
M  V30 3761 H 356.25 -1.37351 -2.64459 0
M  V30 3762 H 353.787 -0.688419 -1.29997 0
M  V30 3763 H 355.745 0.615125 -4.1264 0
M  V30 3764 H 354.375 1.02455 -3.06109 0
M  V30 3765 H 353.427 -1.34368 -3.55878 0
M  V30 3766 H 354.739 -1.55494 -4.73944 0
M  V30 3767 H 353.893 0.400015 -6.0538 0
M  V30 3768 H 352.632 0.704597 -4.82583 0
M  V30 3769 H 351.637 -1.55645 -5.27309 0
M  V30 3770 H 352.862 -1.85074 -6.53395 0
M  V30 3771 H 350.808 0.393238 -6.5482 0
M  V30 3772 H 350.725 -1.06258 -7.48495 0
M  V30 3773 H 351.993 0.0855932 -7.79453 0
M  V30 3774 N 356.222 1.38976 -0.743202 0
M  V30 3775 C 357.468 2.0064 -0.295189 0
M  V30 3776 C 357.801 1.5885 1.11716 0
M  V30 3777 O 357.076 0.821181 1.76315 0
M  V30 3778 C 357.359 3.578 -0.406318 0
M  V30 3779 C 357.212 4.09586 -1.85903 0
M  V30 3780 C 358.531 4.39616 0.206439 0
M  V30 3781 H 355.65 0.728935 -0.108733 0
M  V30 3782 H 358.292 1.65067 -0.940897 0
M  V30 3783 H 356.442 3.88235 0.143419 0
M  V30 3784 H 358.114 3.89837 -2.46627 0
M  V30 3785 H 356.357 3.6284 -2.3776 0
M  V30 3786 H 357.028 5.18708 -1.888 0
M  V30 3787 H 359.504 4.15273 -0.262283 0
M  V30 3788 H 358.38 5.48812 0.0983819 0
M  V30 3789 H 358.641 4.22754 1.2935 0
M  V30 3790 N 357.7 0.491464 1.49741 0
M  V30 3791 C 358.946 -0.0565092 2.02721 0
M  V30 3792 C 359.279 -1.37522 1.37118 0
M  V30 3793 O 358.554 -1.87866 0.503645 0
M  V30 3794 C 358.837 -0.219051 3.59433 0
M  V30 3795 C 358.69 1.12211 4.35579 0
M  V30 3796 C 360.009 -0.964157 4.29409 0
M  V30 3797 H 357.128 -0.0190627 0.736753 0
M  V30 3798 H 359.77 0.641021 1.7886 0
M  V30 3799 H 357.92 -0.813165 3.79895 0
M  V30 3800 H 359.592 1.75437 4.26637 0
M  V30 3801 H 357.835 1.71377 3.98513 0
M  V30 3802 H 358.506 0.961794 5.43556 0
M  V30 3803 H 360.982 -0.460378 4.13545 0
M  V30 3804 H 359.858 -1.04671 5.38828 0
M  V30 3805 H 360.119 -2.00563 3.93988 0
M  V30 3806 N 359.178 -1.55987 0.224894 0
M  V30 3807 C 360.408 -2.02489 -0.41007 0
M  V30 3808 C 360.816 -1.10391 -1.53657 0
M  V30 3809 O 360.159 -0.106458 -1.83391 0
M  V30 3810 C 360.221 -3.45319 -0.999757 0
M  V30 3811 C 359.885 -4.56999 -0.00827976 0
M  V30 3812 C 360.882 -5.13812 0.793314 0
M  V30 3813 C 358.567 -5.02176 0.111442 0
M  V30 3814 C 360.561 -6.14276 1.7013 0
M  V30 3815 C 358.248 -6.02477 1.02296 0
M  V30 3816 C 359.246 -6.58403 1.81643 0
M  V30 3817 O 358.934 -7.56751 2.71262 0
M  V30 3818 H 358.666 -0.667915 -0.104235 0
M  V30 3819 H 361.22 -2.0257 0.339782 0
M  V30 3820 H 359.45 -3.42318 -1.79876 0
M  V30 3821 H 361.139 -3.7545 -1.54248 0
M  V30 3822 H 361.905 -4.79756 0.711288 0
M  V30 3823 H 357.784 -4.58323 -0.49605 0
M  V30 3824 H 361.328 -6.57854 2.32107 0
M  V30 3825 H 357.225 -6.35954 1.10599 0
M  V30 3826 H 357.993 -7.74286 2.65375 0
M  V30 3827 N 360.656 0.0484629 -1.57525 0
M  V30 3828 C 361.903 0.743125 -1.88372 0
M  V30 3829 C 362.231 1.76383 -0.819715 0
M  V30 3830 O 361.486 1.94855 0.181659 0
M  V30 3831 C 361.785 1.46632 -3.25935 0
M  V30 3832 C 361.451 0.583427 -4.4711 0
M  V30 3833 C 360.113 0.340191 -4.79996 0
M  V30 3834 C 362.465 -0.0273345 -5.21193 0
M  V30 3835 C 359.793 -0.522903 -5.84365 0
M  V30 3836 C 362.145 -0.878017 -6.26477 0
M  V30 3837 C 360.809 -1.1309 -6.5785 0
M  V30 3838 H 360.079 0.271929 -0.689301 0
M  V30 3839 H 362.726 0.00336166 -1.915 0
M  V30 3840 H 361.031 2.2789 -3.18706 0
M  V30 3841 H 362.728 2.00902 -3.47044 0
M  V30 3842 H 359.318 0.783151 -4.21384 0
M  V30 3843 H 363.502 0.147654 -4.9608 0
M  V30 3844 H 358.758 -0.727335 -6.07058 0
M  V30 3845 H 362.932 -1.35789 -6.83033 0
M  V30 3846 H 360.559 -1.80144 -7.38547 0
M  V30 3847 N 362.134 1.5431 0.320358 0
M  V30 3848 C 363.362 1.76636 1.07738 0
M  V30 3849 C 363.777 0.51649 1.81598 0
M  V30 3850 O 363.134 -0.512942 1.75143 0
M  V30 3851 C 363.185 2.96158 2.07299 0
M  V30 3852 O 362.906 4.16313 1.36438 0
M  V30 3853 C 364.407 3.3072 2.95193 0
M  V30 3854 H 361.627 0.589597 0.320339 0
M  V30 3855 H 364.171 2.01207 0.36551 0
M  V30 3856 H 362.326 2.73851 2.74016 0
M  V30 3857 H 362.74 4.83565 2.03138 0
M  V30 3858 H 364.214 4.17643 3.60941 0
M  V30 3859 H 364.691 2.48026 3.62463 0
M  V30 3860 H 365.297 3.55117 2.34034 0
M  V30 3861 N 363.613 -0.582584 1.46437 0
M  V30 3862 C 364.576 -1.67366 1.56592 0
M  V30 3863 C 365.576 -1.54575 0.443072 0
M  V30 3864 O 366.766 -1.59191 0.707381 0
M  V30 3865 C 363.898 -3.06791 1.48634 0
M  V30 3866 H 365.091 -1.5972 2.5383 0
M  V30 3867 H 362.644 -0.800432 1.34249 0
M  V30 3868 H 363.379 -3.19993 0.526763 0
M  V30 3869 H 363.164 -3.17484 2.30101 0
M  V30 3870 H 364.654 -3.86218 1.58826 0
M  V30 3871 N 365.091 -1.34144 -0.827227 0
M  V30 3872 C 366.319 -1.29325 -1.61501 0
M  V30 3873 C 366.734 0.13354 -1.88327 0
M  V30 3874 O 366.091 1.0793 -1.47164 0
M  V30 3875 C 366.142 -2.07746 -2.95844 0
M  V30 3876 O 365.863 -3.4486 -2.70191 0
M  V30 3877 C 367.364 -2.10273 -3.90256 0
M  V30 3878 H 364.584 -0.445069 -0.50215 0
M  V30 3879 H 367.128 -1.76693 -1.02955 0
M  V30 3880 H 365.283 -1.6403 -3.5096 0
M  V30 3881 H 365.697 -3.85345 -3.55822 0
M  V30 3882 H 367.171 -2.69575 -4.81698 0
M  V30 3883 H 367.648 -1.096 -4.25305 0
M  V30 3884 H 368.254 -2.54059 -3.41078 0
M  V30 3885 N 366.569 1.04691 -1.17803 0
M  V30 3886 C 367.816 1.77782 -0.969532 0
M  V30 3887 C 368.144 1.87926 0.501401 0
M  V30 3888 O 367.399 1.37918 1.38842 0
M  V30 3889 C 367.698 3.21467 -1.56186 0
M  V30 3890 C 367.364 3.3137 -3.05786 0
M  V30 3891 C 366.026 3.3378 -3.46619 0
M  V30 3892 C 368.378 3.31976 -4.01797 0
M  V30 3893 C 365.706 3.34431 -4.82051 0
M  V30 3894 C 368.058 3.34167 -5.37136 0
M  V30 3895 C 366.722 3.34866 -5.77426 0
M  V30 3896 H 365.992 0.650549 -0.354777 0
M  V30 3897 H 368.639 1.23006 -1.46772 0
M  V30 3898 H 366.944 3.79203 -0.985515 0
M  V30 3899 H 368.641 3.76652 -1.37602 0
M  V30 3900 H 365.231 3.3021 -2.73238 0
M  V30 3901 H 369.415 3.29311 -3.71306 0
M  V30 3902 H 364.671 3.33285 -5.12573 0
M  V30 3903 H 368.845 3.33585 -6.11305 0
M  V30 3904 H 366.472 3.35124 -6.82346 0
M  V30 3905 N 368.047 0.979072 1.23499 0
M  V30 3906 C 369.458 0.684391 1.73704 0
M  V30 3907 C 369.809 -0.799448 1.79174 0
M  V30 3908 O 368.934 -1.62531 1.42873 0
M  V30 3909 C 369.529 1.23564 3.15464 0
M  V30 3910 C 368.088 0.99063 3.6313 0
M  V30 3911 C 367.235 1.36416 2.41425 0
M  V30 3912 H 370.186 1.15307 1.09041 0
M  V30 3913 H 370.207 0.607417 3.7562 0
M  V30 3914 H 369.719 2.31561 3.1145 0
M  V30 3915 H 367.82 -0.0733136 3.72528 0
M  V30 3916 H 367.933 1.64427 4.5 0
M  V30 3917 H 366.297 0.782616 2.42378 0
M  V30 3918 H 367.08 2.45387 2.40083 0
M  V30 3919 N 369.525 -1.3858 0.750561 0
M  V30 3920 C 370.755 -2.04175 0.31564 0
M  V30 3921 C 371.163 -1.56726 -1.05989 0
M  V30 3922 O 370.506 -0.734225 -1.68389 0
M  V30 3923 C 370.568 -3.58585 0.256389 0
M  V30 3924 C 370.232 -4.29077 1.57296 0
M  V30 3925 C 371.229 -4.54656 2.52159 0
M  V30 3926 C 368.914 -4.67324 1.84156 0
M  V30 3927 C 370.908 -5.17512 3.72103 0
M  V30 3928 C 368.595 -5.29905 3.04374 0
M  V30 3929 C 369.593 -5.54933 3.98168 0
M  V30 3930 O 369.281 -6.16212 5.16273 0
M  V30 3931 H 369.013 -0.662742 0.133226 0
M  V30 3932 H 371.567 -1.78313 1.01948 0
M  V30 3933 H 369.797 -3.83406 -0.503677 0
M  V30 3934 H 371.486 -4.05628 -0.148612 0
M  V30 3935 H 372.252 -4.25539 2.32683 0
M  V30 3936 H 368.131 -4.47191 1.11988 0
M  V30 3937 H 371.675 -5.36963 4.45327 0
M  V30 3938 H 367.572 -5.58444 3.23745 0
M  V30 3939 H 368.34 -6.34701 5.16815 0
M  V30 3940 N 371.003 -0.499398 -1.49478 0
M  V30 3941 C 371.933 0.269244 -2.31943 0
M  V30 3942 C 372.914 0.964054 -1.40143 0
M  V30 3943 O 374.099 0.955767 -1.69052 0
M  V30 3944 C 371.229 1.33504 -3.20615 0
M  V30 3945 C 370.183 0.760202 -4.21195 0
M  V30 3946 C 369.509 1.9264 -4.98792 0
M  V30 3947 C 370.809 -0.247661 -5.21712 0
M  V30 3948 H 372.503 -0.419082 -2.96452 0
M  V30 3949 H 370.049 -0.202988 -1.42562 0
M  V30 3950 H 372.002 1.88048 -3.77115 0
M  V30 3951 H 370.726 2.05253 -2.54045 0
M  V30 3952 H 369.385 0.23653 -3.65836 0
M  V30 3953 H 369.033 2.63154 -4.28671 0
M  V30 3954 H 368.733 1.54785 -5.66847 0
M  V30 3955 H 370.257 2.4762 -5.58137 0
M  V30 3956 H 371.671 0.209579 -5.72917 0
M  V30 3957 H 370.068 -0.541962 -5.97648 0
M  V30 3958 H 371.138 -1.16409 -4.7072 0
M  V30 3959 N 372.481 1.55866 -0.233164 0
M  V30 3960 C 373.73 1.97779 0.39579 0
M  V30 3961 C 374.043 1.12419 1.60066 0
M  V30 3962 O 375.249 1.44283 2.29988 0
M  V30 3963 C 373.705 3.5188 0.755556 0
M  V30 3964 C 373.313 4.45959 -0.427152 0
M  V30 3965 C 375.057 4.02479 1.34946 0
M  V30 3966 C 372.964 5.91383 -0.0443043 0
M  V30 3967 H 371.894 0.738592 0.15165 0
M  V30 3968 H 374.545 1.80486 -0.331212 0
M  V30 3969 H 372.927 3.64816 1.5403 0
M  V30 3970 H 374.101 4.44776 -1.20462 0
M  V30 3971 H 372.416 4.05765 -0.935068 0
M  V30 3972 H 375.013 5.08637 1.649 0
M  V30 3973 H 375.356 3.49014 2.26925 0
M  V30 3974 H 375.889 3.92813 0.62791 0
M  V30 3975 H 372.628 6.48857 -0.930874 0
M  V30 3976 H 372.148 5.95734 0.697238 0
M  V30 3977 H 373.827 6.45893 0.378334 0
M  V30 3978 N 373.959 -0.0401083 1.57549 0
M  V30 3979 C 374.889 -1.04384 2.08869 0
M  V30 3980 C 375.87 -1.38407 0.988817 0
M  V30 3981 O 377.055 -1.47483 1.26342 0
M  V30 3982 C 374.185 -2.34808 2.55895 0
M  V30 3983 C 373.139 -2.15057 3.70047 0
M  V30 3984 C 372.465 -3.51145 4.03239 0
M  V30 3985 C 373.765 -1.54576 4.98902 0
M  V30 3986 H 375.459 -0.616666 2.92981 0
M  V30 3987 H 373.005 -0.295184 1.40942 0
M  V30 3988 H 374.958 -3.05346 2.90417 0
M  V30 3989 H 373.682 -2.79565 1.68853 0
M  V30 3990 H 372.341 -1.46954 3.35857 0
M  V30 3991 H 371.989 -3.93529 3.13279 0
M  V30 3992 H 371.689 -3.38758 4.80122 0
M  V30 3993 H 373.213 -4.23062 4.40285 0
M  V30 3994 H 374.627 -2.15017 5.31451 0
M  V30 3995 H 373.024 -1.52796 5.80322 0
M  V30 3996 H 374.094 -0.51039 4.82206 0
M  V30 3997 N 375.437 -1.54477 -0.31217 0
M  V30 3998 C 376.367 -1.87652 -1.38957 0
M  V30 3999 C 377.348 -0.734358 -1.53431 0
M  V30 4000 O 378.533 -0.98911 -1.67123 0
M  V30 4001 C 375.663 -2.11396 -2.75552 0
M  V30 4002 C 374.617 -3.27243 -2.75855 0
M  V30 4003 C 373.943 -3.36382 -4.15633 0
M  V30 4004 C 375.243 -4.64622 -2.38587 0
M  V30 4005 H 376.937 -2.77887 -1.11442 0
M  V30 4006 H 374.483 -1.33707 -0.534655 0
M  V30 4007 H 376.436 -2.33189 -3.51 0
M  V30 4008 H 375.16 -1.17921 -3.04569 0
M  V30 4009 H 373.819 -3.05356 -2.02863 0
M  V30 4010 H 373.467 -2.40445 -4.41809 0
M  V30 4011 H 373.167 -4.14249 -4.1674 0
M  V30 4012 H 374.691 -3.60422 -4.92877 0
M  V30 4013 H 376.105 -4.86219 -3.03749 0
M  V30 4014 H 374.502 -5.45121 -2.50925 0
M  V30 4015 H 375.572 -4.66097 -1.33723 0
M  V30 4016 N 376.915 0.57481 -1.46744 0
M  V30 4017 C 377.848 1.69827 -1.52427 0
M  V30 4018 C 378.826 1.58151 -0.377744 0
M  V30 4019 O 380.01 1.79257 -0.58303 0
M  V30 4020 C 377.137 3.07943 -1.41027 0
M  V30 4021 C 376.183 3.38116 -2.59961 0
M  V30 4022 S 377.016 3.29313 -4.22272 0
M  V30 4023 C 378.172 4.69953 -4.13394 0
M  V30 4024 H 378.405 1.64748 -2.47478 0
M  V30 4025 H 375.938 0.754203 -1.34726 0
M  V30 4026 H 377.896 3.87619 -1.35137 0
M  V30 4027 H 376.557 3.10504 -0.473909 0
M  V30 4028 H 375.75 4.38762 -2.47999 0
M  V30 4029 H 375.352 2.66024 -2.62882 0
M  V30 4030 H 377.644 5.60517 -3.80562 0
M  V30 4031 H 378.587 4.86972 -5.14066 0
M  V30 4032 H 378.995 4.47174 -3.44522 0
M  V30 4033 N 378.394 1.34581 0.820102 0
M  V30 4034 C 379.324 1.29038 1.94606 0
M  V30 4035 C 380.305 0.1673 1.69275 0
M  V30 4036 O 381.49 0.360112 1.90832 0
M  V30 4037 C 378.62 1.04793 3.31113 0
M  V30 4038 C 377.574 2.13597 3.70891 0
M  V30 4039 C 376.9 1.74537 5.05412 0
M  V30 4040 C 378.2 3.55451 3.8269 0
M  V30 4041 H 379.894 2.23248 1.99501 0
M  V30 4042 H 377.44 1.0747 0.958449 0
M  V30 4043 H 379.393 0.995592 4.0947 0
M  V30 4044 H 378.117 0.0702565 3.26524 0
M  V30 4045 H 376.776 2.17905 2.9481 0
M  V30 4046 H 376.424 0.754226 4.97313 0
M  V30 4047 H 376.124 2.47361 5.32997 0
M  V30 4048 H 377.648 1.70803 5.86224 0
M  V30 4049 H 379.062 3.5354 4.51312 0
M  V30 4050 H 377.459 4.26922 4.21732 0
M  V30 4051 H 378.529 3.92587 2.84611 0
M  V30 4052 N 379.872 -1.04064 1.18357 0
M  V30 4053 C 380.802 -2.14001 0.934113 0
M  V30 4054 C 381.783 -1.69616 -0.128186 0
M  V30 4055 O 382.968 -1.94185 0.0244093 0
M  V30 4056 C 380.098 -3.44253 0.459066 0
M  V30 4057 C 379.052 -4.02261 1.46185 0
M  V30 4058 C 378.378 -5.27992 0.844322 0
M  V30 4059 C 379.678 -4.38432 2.83856 0
M  V30 4060 H 381.372 -2.35127 1.85352 0
M  V30 4061 H 378.918 -1.12998 0.892604 0
M  V30 4062 H 380.871 -4.20522 0.271907 0
M  V30 4063 H 379.595 -3.22813 -0.495912 0
M  V30 4064 H 378.254 -3.28074 1.63595 0
M  V30 4065 H 377.902 -5.02862 -0.117845 0
M  V30 4066 H 377.602 -5.67765 1.51384 0
M  V30 4067 H 379.126 -6.06938 0.667693 0
M  V30 4068 H 380.54 -5.05688 2.70098 0
M  V30 4069 H 378.937 -4.89254 3.47491 0
M  V30 4070 H 380.007 -3.4826 3.37406 0
M  V30 4071 N 381.35 -0.985608 -1.22978 0
M  V30 4072 C 382.596 -0.65836 -1.91816 0
M  V30 4073 C 382.929 0.806692 -1.76653 0
M  V30 4074 O 382.204 1.58252 -1.13078 0
M  V30 4075 C 382.487 -1.056 -3.44268 0
M  V30 4076 C 382.34 -2.57906 -3.68516 0
M  V30 4077 C 383.659 -0.603781 -4.35939 0
M  V30 4078 H 380.778 -0.24065 -0.696604 0
M  V30 4079 H 383.42 -1.22783 -1.44998 0
M  V30 4080 H 381.57 -0.571445 -3.84274 0
M  V30 4081 H 383.242 -3.13976 -3.3796 0
M  V30 4082 H 381.485 -3.00305 -3.13048 0
M  V30 4083 H 382.156 -2.80779 -4.75255 0
M  V30 4084 H 384.632 -1.01987 -4.03408 0
M  V30 4085 H 383.508 -0.910383 -5.41298 0
M  V30 4086 H 383.769 0.495761 -4.39312 0
M  V30 4087 N 382.828 1.3818 -0.7579 0
M  V30 4088 C 384.244 1.5353 -0.435972 0
M  V30 4089 C 384.444 1.71961 1.05032 0
M  V30 4090 O 383.5 1.73307 1.83633 0
M  V30 4091 C 384.813 2.73989 -1.23898 0
M  V30 4092 C 386.361 2.87841 -1.22949 0
M  V30 4093 C 386.836 4.11266 -2.01554 0
M  V30 4094 N 388.327 4.18352 -1.98837 0
M  V30 4095 C 389.062 5.12856 -2.5645 0
M  V30 4096 N 388.558 6.13005 -3.22794 0
M  V30 4097 N 390.351 5.05238 -2.46356 0
M  V30 4098 H 382.502 1.24467 -1.7211 0
M  V30 4099 H 384.765 0.604982 -0.729864 0
M  V30 4100 H 384.471 2.66789 -2.29165 0
M  V30 4101 H 384.345 3.67294 -0.858764 0
M  V30 4102 H 386.732 2.9452 -0.184854 0
M  V30 4103 H 386.813 1.95534 -1.64924 0
M  V30 4104 H 386.457 4.05349 -3.06031 0
M  V30 4105 H 386.387 5.02661 -1.5697 0
M  V30 4106 H 388.878 3.46628 -1.50524 0
M  V30 4107 H 389.191 6.81619 -3.64165 0
M  V30 4108 H 387.536 6.13325 -3.2689 0
M  V30 4109 H 390.727 4.25938 -1.9415 0
M  V30 4110 H 390.9 5.78707 -2.91552 0
M  V30 4111 N 384.306 0.507319 1.49211 0
M  V30 4112 C 385.554 -0.0348839 2.0207 0
M  V30 4113 C 385.875 -1.36898 1.38866 0
M  V30 4114 O 385.145 -1.88133 0.546151 0
M  V30 4115 H 383.725 -0.0158812 0.746831 0
M  V30 4116 H 386.387 0.665998 1.83168 0
M  V30 4117 H 385.483 -0.159917 3.1169 0
M  V30 4118 N 385.784 -1.5574 0.241426 0
M  V30 4119 C 387.03 -1.99104 -0.385406 0
M  V30 4120 C 387.363 -1.1293 -1.57988 0
M  V30 4121 O 386.638 -0.191449 -1.93555 0
M  V30 4122 C 386.921 -3.51087 -0.800616 0
M  V30 4123 C 386.774 -4.48028 0.398874 0
M  V30 4124 C 388.093 -4.08015 -1.64959 0
M  V30 4125 H 385.212 -0.723848 -0.138614 0
M  V30 4126 H 387.854 -1.86903 0.341642 0
M  V30 4127 H 386.004 -3.61615 -1.4201 0
M  V30 4128 H 387.676 -4.49487 1.03726 0
M  V30 4129 H 385.919 -4.21077 1.04293 0
M  V30 4130 H 386.59 -5.51962 0.0651056 0
M  V30 4131 H 389.066 -4.00555 -1.12672 0
M  V30 4132 H 387.942 -5.14635 -1.90898 0
M  V30 4133 H 388.203 -3.56131 -2.61961 0
M  V30 4134 N 387.262 0.0317525 -1.57568 0
M  V30 4135 C 388.49 0.734949 -1.93407 0
M  V30 4136 C 388.905 1.69036 -0.84096 0
M  V30 4137 O 388.262 1.81582 0.182836 0
M  V30 4138 C 388.313 1.49432 -3.29169 0
M  V30 4139 O 388.034 0.577261 -4.3428 0
M  V30 4140 C 389.535 2.29492 -3.79273 0
M  V30 4141 H 386.755 0.206706 -0.638368 0
M  V30 4142 H 389.299 -0.00992046 -2.04498 0
M  V30 4143 H 387.454 2.1911 -3.19483 0
M  V30 4144 H 387.868 1.10952 -5.1263 0
M  V30 4145 H 389.342 2.78172 -4.76785 0
M  V30 4146 H 389.819 3.10794 -3.10328 0
M  V30 4147 H 390.425 1.64894 -3.92033 0
M  V30 4148 N 388.74 1.54641 0.303973 0
M  V30 4149 C 389.67 1.88386 1.3796 0
M  V30 4150 C 390.651 0.742485 1.5304 0
M  V30 4151 O 391.836 0.997959 1.66597 0
M  V30 4152 C 388.966 2.12854 2.74427 0
M  V30 4153 C 387.92 3.28702 2.74115 0
M  V30 4154 C 387.246 3.38582 4.13844 0
M  V30 4155 C 388.546 4.65881 2.3612 0
M  V30 4156 H 390.24 2.78474 1.09966 0
M  V30 4157 H 387.786 1.33988 0.527556 0
M  V30 4158 H 389.739 2.35047 3.49758 0
M  V30 4159 H 388.463 1.19535 3.03939 0
M  V30 4160 H 387.122 3.06428 2.0124 0
M  V30 4161 H 386.77 2.42784 4.40528 0
M  V30 4162 H 386.47 4.16453 4.14537 0
M  V30 4163 H 387.994 3.63031 4.90959 0
M  V30 4164 H 389.408 4.87823 3.01167 0
M  V30 4165 H 387.805 5.46444 2.48031 0
M  V30 4166 H 388.875 4.66799 1.3125 0
M  V30 4167 N 390.218 -0.567019 1.47046 0
M  V30 4168 C 391.629 -1.14916 1.47143 0
M  V30 4169 C 391.98 -1.94954 0.220767 0
M  V30 4170 O 391.105 -2.05602 -0.67505 0
M  V30 4171 C 391.7 -2.09069 2.666 0
M  V30 4172 C 390.259 -2.62575 2.69687 0
M  V30 4173 C 389.406 -1.38755 2.40088 0
M  V30 4174 H 392.357 -0.354126 1.54699 0
M  V30 4175 H 392.378 -2.92789 2.43011 0
M  V30 4176 H 391.89 -1.50789 3.57609 0
M  V30 4177 H 389.991 -3.24681 1.82792 0
M  V30 4178 H 390.104 -3.04239 3.70102 0
M  V30 4179 H 388.468 -1.69098 1.90468 0
M  V30 4180 H 389.251 -0.822822 3.33293 0
M  V30 4181 N 391.696 -1.35014 -0.812953 0
M  V30 4182 C 392.944 -1.27678 -1.56661 0
M  V30 4183 C 393.265 0.150359 -1.94419 0
M  V30 4184 O 392.535 1.08532 -1.63088 0
M  V30 4185 H 391.115 -0.469602 -0.580933 0
M  V30 4186 H 393.777 -1.69043 -0.970076 0
M  V30 4187 H 392.873 -1.88833 -2.48492 0
M  V30 4188 N 393.175 1.03435 -1.18907 0
M  V30 4189 C 394.138 2.09756 -0.923844 0
M  V30 4190 C 395.138 1.60528 0.093416 0
M  V30 4191 O 396.328 1.73631 -0.140727 0
M  V30 4192 C 393.46 3.38692 -0.387354 0
M  V30 4193 H 394.653 2.34719 -1.86674 0
M  V30 4194 H 392.206 1.19959 -1.00197 0
M  V30 4195 H 392.941 3.19396 0.561845 0
M  V30 4196 H 392.726 3.75742 -1.12074 0
M  V30 4197 H 394.216 4.17016 -0.220694 0
M  V30 4198 N 394.653 0.992116 1.22453 0
M  V30 4199 C 395.899 0.678177 1.91761 0
M  V30 4200 C 396.254 -0.781141 1.75829 0
M  V30 4201 O 395.547 -1.55747 1.11595 0
M  V30 4202 C 395.741 1.01832 3.42586 0
M  V30 4203 C 395.57 2.50916 3.73191 0
M  V30 4204 C 394.34 3.17308 3.93248 0
M  V30 4205 C 396.538 3.49032 3.77732 0
M  V30 4206 N 394.52 4.55876 4.11157 0
M  V30 4207 C 395.891 4.73055 4.00773 0
M  V30 4208 C 397.946 3.43349 3.60577 0
M  V30 4209 C 396.649 5.92089 4.0844 0
M  V30 4210 C 398.675 4.61759 3.69503 0
M  V30 4211 C 398.037 5.84582 3.92993 0
M  V30 4212 H 394.136 0.299425 0.722405 0
M  V30 4213 H 396.72 1.27197 1.47408 0
M  V30 4214 H 394.891 0.453118 3.85748 0
M  V30 4215 H 396.623 0.660454 3.99274 0
M  V30 4216 H 393.378 2.67778 3.9063 0
M  V30 4217 H 393.802 5.27748 4.24042 0
M  V30 4218 H 398.444 2.49408 3.41402 0
M  V30 4219 H 396.162 6.86435 4.26418 0
M  V30 4220 H 399.748 4.58951 3.57569 0
M  V30 4221 H 398.628 6.74676 3.99728 0
M  V30 4222 N 396.131 -1.37776 0.765217 0
M  V30 4223 C 397.078 -2.30342 0.145274 0
M  V30 4224 C 398.048 -1.5077 -0.696971 0
M  V30 4225 O 399.233 -1.79362 -0.650689 0
M  V30 4226 C 396.373 -3.37227 -0.732939 0
M  V30 4227 C 395.486 -4.31819 0.125199 0
M  V30 4228 C 394.621 -5.25777 -0.757107 0
M  V30 4229 C 393.66 -6.12012 0.103963 0
M  V30 4230 N 392.797 -6.98232 -0.735953 0
M  V30 4231 H 397.637 -2.8278 0.940195 0
M  V30 4232 H 395.174 -1.39211 0.475255 0
M  V30 4233 H 397.132 -3.97818 -1.25686 0
M  V30 4234 H 395.762 -2.86171 -1.49353 0
M  V30 4235 H 394.814 -3.7259 0.766865 0
M  V30 4236 H 396.126 -4.92509 0.789683 0
M  V30 4237 H 395.28 -5.91541 -1.34776 0
M  V30 4238 H 394.019 -4.65481 -1.45529 0
M  V30 4239 H 393.024 -5.45233 0.707197 0
M  V30 4240 H 394.249 -6.74379 0.799381 0
M  V30 4241 H 392.195 -6.40472 -1.41887 0
M  V30 4242 H 392.112 -7.55891 -0.128624 0
M  V30 4243 H 393.38 -7.68393 -1.31121 0
M  V30 4244 N 397.609 -0.515225 -1.4894 0
M  V30 4245 C 398.857 0.0241671 -2.02086 0
M  V30 4246 C 399.178 1.3616 -1.3959 0
M  V30 4247 O 398.448 1.87841 -0.556121 0
M  V30 4248 H 397.028 0.0119203 -0.746905 0
M  V30 4249 H 399.69 -0.675702 -1.82812 0
M  V30 4250 H 398.786 0.143385 -3.1177 0
M  V30 4251 N 399.087 1.5561 -0.249682 0
M  V30 4252 C 400.336 1.98187 0.37479 0
M  V30 4253 C 400.649 1.14111 1.58865 0
M  V30 4254 O 401.855 1.46714 2.28445 0
M  V30 4255 C 400.311 3.52661 0.718192 0
M  V30 4256 C 399.919 4.45481 -0.474428 0
M  V30 4257 C 401.663 4.03888 1.3067 0
M  V30 4258 C 399.57 5.91303 -0.107026 0
M  V30 4259 H 398.5 0.740159 0.143808 0
M  V30 4260 H 401.151 1.80125 -0.350336 0
M  V30 4261 H 399.533 3.66429 1.50152 0
M  V30 4262 H 400.707 4.43473 -1.25172 0
M  V30 4263 H 399.022 4.04751 -0.978052 0
M  V30 4264 H 401.619 5.10358 1.59496 0
M  V30 4265 H 401.962 3.51401 2.23211 0
M  V30 4266 H 402.495 3.93457 0.586211 0
M  V30 4267 H 399.234 6.47833 -0.999642 0
M  V30 4268 H 398.754 5.9644 0.634013 0
M  V30 4269 H 400.433 6.46258 0.309807 0
M  V30 4270 N 400.565 -0.0233959 1.57583 0
M  V30 4271 C 401.497 -1.04994 2.03737 0
M  V30 4272 C 402.51 -1.32125 0.951152 0
M  V30 4273 O 403.699 -1.29512 1.22837 0
M  V30 4274 C 400.799 -2.39026 2.40249 0
M  V30 4275 C 399.972 -2.31171 3.7132 0
M  V30 4276 C 399.031 -3.47698 3.94959 0
M  V30 4277 O 398.057 -3.26937 4.65941 0
M  V30 4278 N 399.259 -4.6976 3.41037 0
M  V30 4279 H 402.024 -0.656507 2.92421 0
M  V30 4280 H 399.585 -0.211235 1.60516 0
M  V30 4281 H 401.577 -3.15712 2.53196 0
M  V30 4282 H 400.147 -2.70194 1.57207 0
M  V30 4283 H 399.367 -1.39547 3.68674 0
M  V30 4284 H 400.655 -2.23071 4.57293 0
M  V30 4285 H 400.053 -4.89528 2.83512 0
M  V30 4286 H 398.61 -5.43791 3.59353 0
M  V30 4287 N 402.043 -1.548 -0.295768 0
M  V30 4288 C 403.29 -1.74329 -1.03032 0
M  V30 4289 C 403.618 -0.531915 -1.87085 0
M  V30 4290 O 402.873 0.486052 -1.89568 0
M  V30 4291 C 403.172 -2.98797 -1.961 0
M  V30 4292 C 402.838 -4.32356 -1.2798 0
M  V30 4293 C 401.5 -4.68661 -1.09135 0
M  V30 4294 C 403.852 -5.15128 -0.793243 0
M  V30 4295 C 401.18 -5.85312 -0.403269 0
M  V30 4296 C 403.532 -6.32488 -0.118854 0
M  V30 4297 C 402.196 -6.6745 0.0815043 0
M  V30 4298 H 401.466 -0.637916 -0.37702 0
M  V30 4299 H 404.113 -1.8906 -0.304696 0
M  V30 4300 H 402.418 -2.78869 -2.75207 0
M  V30 4301 H 404.115 -3.11102 -2.53015 0
M  V30 4302 H 400.705 -4.03808 -1.43655 0
M  V30 4303 H 404.889 -4.87575 -0.92653 0
M  V30 4304 H 400.145 -6.1094 -0.237098 0
M  V30 4305 H 404.319 -6.95892 0.266035 0
M  V30 4306 H 401.946 -7.57695 0.616685 0
M  V30 4307 N 403.521 0.559213 -1.47345 0
M  V30 4308 C 404.751 1.33999 -1.57251 0
M  V30 4309 C 405.159 1.87905 -0.220978 0
M  V30 4310 O 404.502 1.65577 0.795617 0
M  V30 4311 C 404.564 2.54798 -2.53611 0
M  V30 4312 C 404.228 2.22192 -3.99349 0
M  V30 4313 C 405.225 1.79607 -4.87891 0
M  V30 4314 C 402.91 2.33613 -4.44669 0
M  V30 4315 C 404.904 1.48868 -6.19772 0
M  V30 4316 C 402.591 2.02487 -5.76578 0
M  V30 4317 C 403.589 1.60183 -6.63951 0
M  V30 4318 O 403.277 1.29451 -7.93409 0
M  V30 4319 H 403.009 0.414858 -0.533731 0
M  V30 4320 H 405.563 0.684465 -1.9366 0
M  V30 4321 H 403.793 3.23235 -2.12265 0
M  V30 4322 H 405.482 3.16873 -2.53666 0
M  V30 4323 H 406.248 1.70278 -4.54126 0
M  V30 4324 H 402.127 2.65501 -3.76869 0
M  V30 4325 H 405.671 1.15775 -6.87926 0
M  V30 4326 H 401.568 2.11448 -6.09885 0
M  V30 4327 H 402.336 1.43098 -8.05894 0
M  V30 4328 N 404.999 1.35443 0.805782 0
M  V30 4329 C 405.929 1.31095 1.93226 0
M  V30 4330 C 406.91 0.185244 1.69088 0
M  V30 4331 O 408.095 0.380332 1.90439 0
M  V30 4332 C 405.225 1.08299 3.29983 0
M  V30 4333 C 404.179 2.17519 3.68605 0
M  V30 4334 C 403.505 1.79887 5.03532 0
M  V30 4335 C 404.805 3.5949 3.78898 0
M  V30 4336 H 406.499 2.25352 1.97122 0
M  V30 4337 H 404.045 1.0848 0.946996 0
M  V30 4338 H 405.998 1.03897 4.08391 0
M  V30 4339 H 404.722 0.104885 3.26432 0
M  V30 4340 H 403.381 2.2102 2.92482 0
M  V30 4341 H 403.029 0.80693 4.96485 0
M  V30 4342 H 402.729 2.53001 5.30344 0
M  V30 4343 H 404.253 1.77011 5.84379 0
M  V30 4344 H 405.667 3.58307 4.47536 0
M  V30 4345 H 404.064 4.31371 4.1718 0
M  V30 4346 H 405.134 3.95584 2.80431 0
M  V30 4347 N 406.477 -1.02803 1.19454 0
M  V30 4348 C 407.705 -1.79841 1.02297 0
M  V30 4349 C 408.12 -1.83879 -0.428259 0
M  V30 4350 O 407.477 -1.28345 -1.29745 0
M  V30 4351 C 407.528 -3.24852 1.58598 0
M  V30 4352 O 407.249 -3.21097 2.98041 0
M  V30 4353 C 408.75 -4.18485 1.46236 0
M  V30 4354 H 405.97 -0.565936 0.360496 0
M  V30 4355 H 408.514 -1.2948 1.58288 0
M  V30 4356 H 406.669 -3.72401 1.06753 0
M  V30 4357 H 407.083 -4.12033 3.24545 0
M  V30 4358 H 408.557 -5.18121 1.90407 0
M  V30 4359 H 409.034 -4.37254 0.41301 0
M  V30 4360 H 409.64 -3.76811 1.97215 0
M  V30 4361 N 407.956 -0.998596 -1.21925 0
M  V30 4362 C 409.367 -0.711939 -1.72593 0
M  V30 4363 C 409.718 0.770842 -1.80423 0
M  V30 4364 O 408.843 1.60237 -1.4544 0
M  V30 4365 C 409.438 -1.28567 -3.13458 0
M  V30 4366 C 407.997 -1.04828 -3.61508 0
M  V30 4367 C 407.144 -1.4024 -2.39224 0
M  V30 4368 H 410.095 -1.17027 -1.07193 0
M  V30 4369 H 410.116 -0.667098 -3.74607 0
M  V30 4370 H 409.628 -2.36486 -3.07727 0
M  V30 4371 H 407.729 0.0140383 -3.72597 0
M  V30 4372 H 407.842 -1.71566 -4.47328 0
M  V30 4373 H 406.206 -0.821077 -2.41103 0
M  V30 4374 H 406.989 -2.49176 -2.36149 0
M  V30 4375 N 409.434 1.37368 -0.772513 0
M  V30 4376 C 410.366 2.28899 -0.117502 0
M  V30 4377 C 411.379 1.4867 0.663405 0
M  V30 4378 O 412.568 1.71314 0.501372 0
M  V30 4379 C 409.668 3.2788 0.857192 0
M  V30 4380 C 408.841 4.37207 0.129938 0
M  V30 4381 C 407.9 5.16257 1.01811 0
M  V30 4382 O 406.926 5.67159 0.481601 0
M  V30 4383 N 408.128 5.31058 2.3443 0
M  V30 4384 H 410.893 2.85752 -0.903662 0
M  V30 4385 H 408.454 1.49353 -0.62493 0
M  V30 4386 H 410.446 3.77647 1.45482 0
M  V30 4387 H 409.016 2.7179 1.54432 0
M  V30 4388 H 408.236 3.88827 -0.648605 0
M  V30 4389 H 409.524 5.07434 -0.372559 0
M  V30 4390 H 408.922 4.91287 2.80452 0
M  V30 4391 H 407.479 5.84131 2.89197 0
M  V30 4392 N 410.912 0.523116 1.48665 0
M  V30 4393 C 412.159 -0.0134763 2.02496 0
M  V30 4394 C 412.487 -1.3493 1.40086 0
M  V30 4395 O 411.742 -1.88286 0.533567 0
M  V30 4396 C 412.041 -0.191671 3.56886 0
M  V30 4397 C 411.707 1.06893 4.38046 0
M  V30 4398 C 410.369 1.41443 4.59943 0
M  V30 4399 C 412.721 1.90584 4.85106 0
M  V30 4400 C 410.049 2.59594 5.26144 0
M  V30 4401 C 412.401 3.07907 5.52609 0
M  V30 4402 C 411.065 3.42811 5.72745 0
M  V30 4403 H 410.335 -0.00493133 0.740984 0
M  V30 4404 H 412.982 0.687751 1.78724 0
M  V30 4405 H 411.287 -0.97561 3.79459 0
M  V30 4406 H 412.984 -0.621659 3.96152 0
M  V30 4407 H 409.574 0.789848 4.21259 0
M  V30 4408 H 413.758 1.65203 4.67997 0
M  V30 4409 H 409.014 2.86847 5.39934 0
M  V30 4410 H 413.188 3.73066 5.88043 0
M  V30 4411 H 410.815 4.34462 6.23816 0
M  V30 4412 N 412.39 -1.55475 0.257931 0
M  V30 4413 C 413.34 -2.18506 -0.651094 0
M  V30 4414 C 414.324 -1.14431 -1.13112 0
M  V30 4415 O 415.516 -1.40305 -1.07905 0
M  V30 4416 C 412.645 -2.89653 -1.84272 0
M  V30 4417 C 411.731 -4.00996 -1.38068 0
M  V30 4418 N 412.122 -5.01816 -0.633609 0
M  V30 4419 C 410.42 -4.13753 -1.66506 0
M  V30 4420 C 411.121 -5.80371 -0.392922 0
M  V30 4421 N 410.097 -5.3505 -0.960359 0
M  V30 4422 H 413.899 -2.93811 -0.0722883 0
M  V30 4423 H 411.413 -1.62286 0.0607256 0
M  V30 4424 H 413.41 -3.33245 -2.50506 0
M  V30 4425 H 412.07 -2.15854 -2.42564 0
M  V30 4426 H 413.081 -5.17128 -0.282626 0
M  V30 4427 H 409.758 -3.51133 -2.25858 0
M  V30 4428 H 411.148 -6.7159 0.204235 0
M  V30 4429 N 413.868 0.0150385 -1.57593 0
M  V30 4430 C 414.818 1.01943 -2.0394 0
M  V30 4431 C 415.802 1.31209 -0.931286 0
M  V30 4432 O 416.994 1.30559 -1.19513 0
M  V30 4433 C 414.123 2.31621 -2.53391 0
M  V30 4434 C 413.209 2.05384 -3.7105 0
M  V30 4435 N 413.6 1.49253 -4.83278 0
M  V30 4436 C 411.898 2.35601 -3.78693 0
M  V30 4437 C 412.599 1.39143 -5.64813 0
M  V30 4438 N 411.575 1.87187 -5.10355 0
M  V30 4439 H 415.377 0.57969 -2.88126 0
M  V30 4440 H 412.891 0.221056 -1.60888 0
M  V30 4441 H 414.888 3.044 -2.84862 0
M  V30 4442 H 413.548 2.76261 -1.70616 0
M  V30 4443 H 414.559 1.17334 -5.04433 0
M  V30 4444 H 411.236 2.8322 -3.06746 0
M  V30 4445 H 412.626 0.961153 -6.6499 0
M  V30 4446 N 415.346 1.54954 0.287554 0
M  V30 4447 C 416.276 1.89839 1.35954 0
M  V30 4448 C 417.257 0.758675 1.52244 0
M  V30 4449 O 418.442 1.01557 1.65529 0
M  V30 4450 C 415.572 2.15753 2.72154 0
M  V30 4451 C 414.526 3.3159 2.70614 0
M  V30 4452 C 413.852 3.42952 4.10229 0
M  V30 4453 C 415.152 4.68359 2.31165 0
M  V30 4454 H 416.846 2.79625 1.07007 0
M  V30 4455 H 414.392 1.3454 0.513316 0
M  V30 4456 H 416.345 2.38743 3.47246 0
M  V30 4457 H 415.069 1.22752 3.02654 0
M  V30 4458 H 413.728 3.08545 1.97979 0
M  V30 4459 H 413.376 2.47443 4.37928 0
M  V30 4460 H 413.076 4.20826 4.10097 0
M  V30 4461 H 414.6 3.68218 4.87081 0
M  V30 4462 H 416.014 4.9099 2.95976 0
M  V30 4463 H 414.411 5.49044 2.42221 0
M  V30 4464 H 415.481 4.68165 1.26291 0
M  V30 4465 N 416.824 -0.551391 1.4764 0
M  V30 4466 C 417.754 -1.66757 1.63445 0
M  V30 4467 C 418.735 -1.63077 0.483742 0
M  V30 4468 O 419.92 -1.80607 0.71377 0
M  V30 4469 C 417.05 -3.05387 1.65396 0
M  V30 4470 C 416.004 -3.23918 2.79752 0
M  V30 4471 C 415.33 -4.63393 2.66779 0
M  V30 4472 C 416.63 -3.08735 4.21284 0
M  V30 4473 H 418.324 -1.53786 2.56886 0
M  V30 4474 H 415.87 -0.738415 1.23626 0
M  V30 4475 H 417.823 -3.83325 1.75043 0
M  V30 4476 H 416.547 -3.19332 0.685195 0
M  V30 4477 H 415.206 -2.48391 2.69625 0
M  V30 4478 H 414.854 -4.74144 1.67918 0
M  V30 4479 H 414.554 -4.7674 3.43501 0
M  V30 4480 H 416.078 -5.43458 2.78364 0
M  V30 4481 H 417.492 -3.76484 4.32357 0
M  V30 4482 H 415.889 -3.33588 4.98838 0
M  V30 4483 H 416.959 -2.0541 4.39243 0
M  V30 4484 N 418.302 -1.35869 -0.798587 0
M  V30 4485 C 419.527 -1.32883 -1.59238 0
M  V30 4486 C 419.952 0.0894587 -1.87887 0
M  V30 4487 O 419.31 1.05869 -1.47178 0
M  V30 4488 C 419.358 -2.14892 -2.89575 0
M  V30 4489 O 418.462 -1.53512 -3.82763 0
M  V30 4490 H 417.803 -0.455236 -0.48338 0
M  V30 4491 H 420.333 -1.79024 -0.990539 0
M  V30 4492 H 420.343 -2.27139 -3.38928 0
M  V30 4493 H 419.018 -3.17998 -2.68049 0
M  V30 4494 H 417.595 -1.50153 -3.41334 0
M  V30 4495 N 419.78 1.02168 -1.19998 0
M  V30 4496 C 421.005 1.79833 -1.03319 0
M  V30 4497 C 421.43 1.83504 0.413281 0
M  V30 4498 O 420.788 1.26635 1.29743 0
M  V30 4499 C 420.836 3.22396 -1.61533 0
M  V30 4500 O 419.94 4.03555 -0.849519 0
M  V30 4501 H 419.281 0.554872 -0.364709 0
M  V30 4502 H 421.811 1.28542 -1.59179 0
M  V30 4503 H 421.821 3.73124 -1.65054 0
M  V30 4504 H 420.496 3.19039 -2.66809 0
M  V30 4505 H 419.073 3.62169 -0.888129 0
M  V30 4506 N 421.258 1.00505 1.21394 0
M  V30 4507 C 422.205 0.565496 2.23765 0
M  V30 4508 C 423.175 -0.408466 1.60999 0
M  V30 4509 O 424.36 -0.310503 1.88257 0
M  V30 4510 C 421.5 -0.101667 3.4495 0
M  V30 4511 C 420.613 0.915479 4.22188 0
M  V30 4512 C 419.748 0.220574 5.30742 0
M  V30 4513 C 418.787 1.22527 5.99711 0
M  V30 4514 N 417.924 0.557831 6.9988 0
M  V30 4515 H 422.764 1.44314 2.60725 0
M  V30 4516 H 420.301 0.722643 1.28126 0
M  V30 4517 H 422.259 -0.505504 4.14126 0
M  V30 4518 H 420.889 -0.94303 3.08718 0
M  V30 4519 H 419.941 1.43756 3.52191 0
M  V30 4520 H 421.253 1.68005 4.69655 0
M  V30 4521 H 420.407 -0.239368 6.06228 0
M  V30 4522 H 419.146 -0.576401 4.84282 0
M  V30 4523 H 418.151 1.69571 5.22997 0
M  V30 4524 H 419.376 2.02332 6.48258 0
M  V30 4525 H 417.322 -0.219486 6.55633 0
M  V30 4526 H 417.239 1.26065 7.45415 0
M  V30 4527 H 418.507 0.121095 7.79406 0
M  V30 4528 N 422.737 -1.36956 0.779787 0
M  V30 4529 C 423.983 -1.99787 0.348281 0
M  V30 4530 C 424.316 -1.61756 -1.07465 0
M  V30 4531 O 423.591 -0.867639 -1.74075 0
M  V30 4532 C 423.874 -3.56597 0.50104 0
M  V30 4533 C 423.727 -4.04513 1.96697 0
M  V30 4534 C 425.046 -4.40008 -0.0898097 0
M  V30 4535 H 422.165 -0.725796 0.128022 0
M  V30 4536 H 424.807 -1.62514 0.984331 0
M  V30 4537 H 422.957 -3.88479 -0.0404347 0
M  V30 4538 H 424.629 -3.83161 2.56876 0
M  V30 4539 H 422.872 -3.56408 2.47297 0
M  V30 4540 H 423.543 -5.1352 2.02486 0
M  V30 4541 H 426.019 -4.14431 0.372293 0
M  V30 4542 H 424.895 -5.4888 0.0471605 0
M  V30 4543 H 425.156 -4.26035 -1.18096 0
M  V30 4544 N 424.215 -0.530993 -1.48385 0
M  V30 4545 C 425.461 -0.00538653 -2.03399 0
M  V30 4546 C 425.816 1.31899 -1.40073 0
M  V30 4547 O 425.109 1.83901 -0.537676 0
M  V30 4548 C 425.303 0.172742 -3.56982 0
M  V30 4549 C 425.132 -1.13282 -4.35198 0
M  V30 4550 C 423.902 -1.69296 -4.76096 0
M  V30 4551 C 426.1 -2.04367 -4.71952 0
M  V30 4552 N 424.082 -2.9413 -5.38851 0
M  V30 4553 C 425.453 -3.13777 -5.34737 0
M  V30 4554 C 427.508 -2.04681 -4.53883 0
M  V30 4555 C 426.211 -4.23567 -5.81363 0
M  V30 4556 C 428.237 -3.13466 -5.01491 0
M  V30 4557 C 427.599 -4.21595 -5.64302 0
M  V30 4558 H 423.698 -0.0434945 -0.780789 0
M  V30 4559 H 426.282 -0.712495 -1.81195 0
M  V30 4560 H 424.453 0.848937 -3.79009 0
M  V30 4561 H 426.185 0.698046 -3.98634 0
M  V30 4562 H 422.94 -1.23422 -4.57235 0
M  V30 4563 H 423.364 -3.57689 -5.74794 0
M  V30 4564 H 428.006 -1.22378 -4.04702 0
M  V30 4565 H 425.724 -5.06648 -6.2955 0
M  V30 4566 H 429.31 -3.14765 -4.893 0
M  V30 4567 H 428.19 -5.04384 -6.00472 0
M  V30 4568 N 425.693 1.55336 -0.266172 0
M  V30 4569 C 426.942 1.98574 0.353749 0
M  V30 4570 C 427.255 1.15789 1.57646 0
M  V30 4571 O 428.461 1.49129 2.26876 0
M  V30 4572 C 426.917 3.53403 0.680747 0
M  V30 4573 C 426.525 4.44953 -0.52165 0
M  V30 4574 C 428.269 4.05251 1.26379 0
M  V30 4575 C 426.176 5.91156 -0.169736 0
M  V30 4576 H 425.106 0.741643 0.135949 0
M  V30 4577 H 427.757 1.79743 -0.369421 0
M  V30 4578 H 426.139 3.68001 1.46257 0
M  V30 4579 H 427.313 4.42121 -1.29869 0
M  V30 4580 H 425.628 4.03691 -1.02093 0
M  V30 4581 H 428.225 5.12021 1.54074 0
M  V30 4582 H 428.568 3.53749 2.19471 0
M  V30 4583 H 429.101 3.94057 0.544447 0
M  V30 4584 H 425.84 6.46736 -1.0683 0
M  V30 4585 H 425.36 5.97079 0.570717 0
M  V30 4586 H 427.039 6.4655 0.241245 0
M  V30 4587 N 427.171 -0.0066808 1.57599 0
M  V30 4588 C 428.081 -1.01671 2.11424 0
M  V30 4589 C 429.097 -1.38143 1.05795 0
M  V30 4590 O 430.273 -1.47011 1.37658 0
M  V30 4591 C 427.338 -2.29192 2.60139 0
M  V30 4592 C 426.399 -1.99094 3.80342 0
M  V30 4593 C 425.632 -3.20535 4.26724 0
M  V30 4594 O 425.855 -4.3199 3.72479 0
M  V30 4595 O 424.789 -3.04924 5.18946 0
M  V30 4596 H 428.615 -0.589181 2.9793 0
M  V30 4597 H 426.2 -0.225091 1.47695 0
M  V30 4598 H 428.082 -3.0412 2.917 0
M  V30 4599 H 426.757 -2.71195 1.76733 0
M  V30 4600 H 425.664 -1.21663 3.53764 0
M  V30 4601 H 426.997 -1.61931 4.648 0
M  V30 4602 N 428.649 -1.55105 -0.279332 0
M  V30 4603 C 429.612 -1.86783 -1.32834 0
M  V30 4604 C 430.612 -0.74199 -1.42657 0
M  V30 4605 O 431.802 -1.0102 -1.41918 0
M  V30 4606 C 428.934 -2.06746 -2.71052 0
M  V30 4607 H 430.127 -2.8055 -1.05979 0
M  V30 4608 H 427.68 -1.47499 -0.517087 0
M  V30 4609 H 428.415 -1.15339 -3.03097 0
M  V30 4610 H 428.2 -2.88711 -2.65309 0
M  V30 4611 H 429.69 -2.32549 -3.46858 0
M  V30 4612 N 430.127 0.543554 -1.4793 0
M  V30 4613 C 431.09 1.63156 -1.60975 0
M  V30 4614 C 432.09 1.53346 -0.483899 0
M  V30 4615 O 433.28 1.5726 -0.749339 0
M  V30 4616 C 430.412 3.02743 -1.56716 0
M  V30 4617 H 431.605 1.52934 -2.57975 0
M  V30 4618 H 429.158 0.764557 -1.36324 0
M  V30 4619 H 429.893 3.18484 -0.611418 0
M  V30 4620 H 429.678 3.11272 -2.38438 0
M  V30 4621 H 431.168 3.81871 -1.6901 0
M  V30 4622 N 431.605 1.3629 0.791371 0
M  V30 4623 C 432.535 1.33137 1.91825 0
M  V30 4624 C 433.516 0.203168 1.68882 0
M  V30 4625 O 434.701 0.400509 1.90025 0
M  V30 4626 C 431.831 1.11793 3.28816 0
M  V30 4627 C 430.785 2.21417 3.66277 0
M  V30 4628 C 430.111 1.85218 5.01596 0
M  V30 4629 C 431.411 3.63489 3.75064 0
M  V30 4630 H 433.105 2.2743 1.9472 0
M  V30 4631 H 430.651 1.09479 0.935437 0
M  V30 4632 H 432.604 1.08222 4.07266 0
M  V30 4633 H 431.328 0.139501 3.26302 0
M  V30 4634 H 429.987 2.2411 2.90121 0
M  V30 4635 H 429.635 0.859544 4.95602 0
M  V30 4636 H 429.335 2.58611 5.27631 0
M  V30 4637 H 430.859 1.832 5.82469 0
M  V30 4638 H 432.273 3.63034 4.43711 0
M  V30 4639 H 430.67 4.35771 4.12582 0
M  V30 4640 H 431.74 3.98536 2.76219 0
M  V30 4641 N 433.083 -1.0153 1.20538 0
M  V30 4642 C 434.015 -2.10224 0.913155 0
M  V30 4643 C 435.028 -1.62495 -0.0995998 0
M  V30 4644 O 436.217 -1.78014 0.131582 0
M  V30 4645 C 433.317 -3.37111 0.347717 0
M  V30 4646 C 432.49 -4.13971 1.41233 0
M  V30 4647 C 431.549 -5.19158 0.857976 0
M  V30 4648 O 430.575 -5.48 1.53897 0
M  V30 4649 N 431.777 -5.7955 -0.331966 0
M  V30 4650 H 434.542 -2.35879 1.84881 0
M  V30 4651 H 432.103 -1.17931 1.10923 0
M  V30 4652 H 434.095 -4.04683 -0.0373026 0
M  V30 4653 H 432.665 -3.08696 -0.492527 0
M  V30 4654 H 431.885 -3.41351 1.97163 0
M  V30 4655 H 433.173 -4.62103 2.12928 0
M  V30 4656 H 432.571 -5.58455 -0.902478 0
M  V30 4657 H 431.128 -6.48464 -0.65861 0
M  V30 4658 N 434.561 -1.01147 -1.20859 0
M  V30 4659 C 435.81 -0.693214 -1.89413 0
M  V30 4660 C 436.123 0.779969 -1.79376 0
M  V30 4661 O 437.329 1.21057 -2.43017 0
M  V30 4662 C 435.785 -1.18949 -3.39675 0
M  V30 4663 C 435.393 -2.68921 -3.58309 0
M  V30 4664 C 437.137 -0.94642 -4.13815 0
M  V30 4665 C 435.044 -3.12056 -5.0237 0
M  V30 4666 H 433.974 -0.255595 -0.709357 0
M  V30 4667 H 436.625 -1.22349 -1.36759 0
M  V30 4668 H 435.007 -0.587228 -3.91622 0
M  V30 4669 H 436.181 -3.34652 -3.16772 0
M  V30 4670 H 434.496 -2.91314 -2.97532 0
M  V30 4671 H 437.093 -1.24417 -5.20023 0
M  V30 4672 H 437.436 0.117219 -4.16135 0
M  V30 4673 H 437.969 -1.5118 -3.67953 0
M  V30 4674 H 434.708 -4.17674 -5.05202 0
M  V30 4675 H 434.228 -2.51041 -5.44737 0
M  V30 4676 H 435.907 -3.04403 -5.70918 0
M  V30 4677 N 436.039 1.36541 -0.78704 0
M  V30 4678 C 437.286 1.99304 -0.358341 0
M  V30 4679 C 437.614 1.62467 1.06933 0
M  V30 4680 O 436.869 0.870019 1.75297 0
M  V30 4681 C 437.168 3.54343 -0.466485 0
M  V30 4682 C 436.834 4.10993 -1.85461 0
M  V30 4683 C 435.496 4.26177 -2.23443 0
M  V30 4684 C 437.848 4.41895 -2.76366 0
M  V30 4685 C 435.176 4.69573 -3.51736 0
M  V30 4686 C 437.528 4.86722 -4.04084 0
M  V30 4687 C 436.192 5.00112 -4.42091 0
M  V30 4688 H 435.462 0.729306 -0.131126 0
M  V30 4689 H 438.109 1.63068 -1.00404 0
M  V30 4690 H 436.414 3.90918 0.262719 0
M  V30 4691 H 438.111 4.00833 -0.115854 0
M  V30 4692 H 434.701 3.99612 -1.54946 0
M  V30 4693 H 438.885 4.29735 -2.48277 0
M  V30 4694 H 434.141 4.78127 -3.81057 0
M  V30 4695 H 438.315 5.09598 -4.7464 0
M  V30 4696 H 435.942 5.33498 -5.41557 0
M  V30 4697 N 437.518 0.538854 1.48102 0
M  V30 4698 C 438.748 0.0122958 2.06596 0
M  V30 4699 C 439.156 -1.27861 1.39457 0
M  V30 4700 O 438.499 -1.77348 0.478907 0
M  V30 4701 C 438.561 -0.273131 3.58461 0
M  V30 4702 C 438.225 0.92561 4.47528 0
M  V30 4703 C 439.222 1.82637 4.86765 0
M  V30 4704 C 436.907 1.13511 4.89306 0
M  V30 4705 C 438.901 2.92047 5.66558 0
M  V30 4706 C 436.588 2.23233 5.68868 0
M  V30 4707 C 437.586 3.12333 6.07402 0
M  V30 4708 O 437.274 4.20155 6.85365 0
M  V30 4709 H 437.006 0.0344283 0.675123 0
M  V30 4710 H 439.56 0.746494 1.91355 0
M  V30 4711 H 437.79 -1.06141 3.71848 0
M  V30 4712 H 439.479 -0.742842 3.99045 0
M  V30 4713 H 440.245 1.67649 4.55103 0
M  V30 4714 H 436.124 0.450835 4.5879 0
M  V30 4715 H 439.668 3.6162 5.96554 0
M  V30 4716 H 435.565 2.38201 5.99942 0
M  V30 4717 H 436.333 4.17975 7.03732 0
M  V30 4718 N 438.996 -1.55193 0.274407 0
M  V30 4719 C 440.221 -2.04446 -0.348824 0
M  V30 4720 C 440.646 -1.15149 -1.48735 0
M  V30 4721 O 440.004 -0.149952 -1.80679 0
M  V30 4722 C 440.052 -3.51431 -0.808009 0
M  V30 4723 O 439.156 -3.65225 -1.91531 0
M  V30 4724 H 438.497 -0.66006 -0.0722276 0
M  V30 4725 H 441.027 -2.00481 0.408498 0
M  V30 4726 H 441.037 -3.92781 -1.10395 0
M  V30 4727 H 439.712 -4.15892 0.0249865 0
M  V30 4728 H 438.289 -3.35778 -1.62196 0
M  V30 4729 N 440.474 -0.00167713 -1.576 0
M  V30 4730 C 441.404 0.988091 -2.11563 0
M  V30 4731 C 442.385 1.35736 -1.02517 0
M  V30 4732 O 443.57 1.44082 -1.30208 0
M  V30 4733 C 440.7 2.27941 -2.62031 0
M  V30 4734 C 439.654 2.0517 -3.75619 0
M  V30 4735 C 438.98 3.4033 -4.12407 0
M  V30 4736 C 440.28 1.41294 -5.02825 0
M  V30 4737 H 441.974 0.538771 -2.94513 0
M  V30 4738 H 439.52 0.257712 -1.41675 0
M  V30 4739 H 441.473 2.97539 -2.9841 0
M  V30 4740 H 440.197 2.74989 -1.76205 0
M  V30 4741 H 438.856 1.37998 -3.39635 0
M  V30 4742 H 438.504 3.85085 -3.23603 0
M  V30 4743 H 438.204 3.25909 -4.88935 0
M  V30 4744 H 439.728 4.1124 -4.51347 0
M  V30 4745 H 441.142 2.00851 -5.36965 0
M  V30 4746 H 439.539 1.37356 -5.84169 0
M  V30 4747 H 440.609 0.382362 -4.8339 0
M  V30 4748 N 441.952 1.55251 0.271103 0
M  V30 4749 C 443.2 1.75599 1.00047 0
M  V30 4750 C 443.521 0.561188 1.8675 0
M  V30 4751 O 442.791 -0.423846 1.9126 0
M  V30 4752 H 441.371 0.647562 0.372387 0
M  V30 4753 H 444.033 1.92656 0.294876 0
M  V30 4754 H 443.129 2.65766 1.6363 0
M  V30 4755 N 443.43 -0.535701 1.48216 0
M  V30 4756 C 444.676 -1.29375 1.56173 0
M  V30 4757 C 445.009 -1.92804 0.232429 0
M  V30 4758 O 444.284 -1.78992 -0.761048 0
M  V30 4759 C 444.567 -2.38747 2.69577 0
M  V30 4760 C 444.42 -1.80046 4.12193 0
M  V30 4761 C 445.739 -3.40551 2.78771 0
M  V30 4762 H 442.858 -0.469027 0.568491 0
M  V30 4763 H 445.5 -0.597358 1.80365 0
M  V30 4764 H 443.65 -2.98147 2.4908 0
M  V30 4765 H 445.322 -1.24742 4.44114 0
M  V30 4766 H 443.565 -1.10609 4.19462 0
M  V30 4767 H 444.236 -2.59212 4.87353 0
M  V30 4768 H 446.712 -2.91099 2.97322 0
M  V30 4769 H 445.588 -4.1448 3.59857 0
M  V30 4770 H 445.849 -4.00746 1.86696 0
M  V30 4771 N 444.908 -1.36708 -0.784132 0
M  V30 4772 C 446.156 -1.30972 -1.53918 0
M  V30 4773 C 446.477 0.109086 -1.94695 0
M  V30 4774 O 445.747 1.05048 -1.65353 0
M  V30 4775 H 444.327 -0.481819 -0.570841 0
M  V30 4776 H 446.989 -1.71063 -0.934002 0
M  V30 4777 H 446.085 -1.94061 -2.44431 0
M  V30 4778 N 446.386 1.0089 -1.21074 0
M  V30 4779 C 447.633 1.74607 -1.0256 0
M  V30 4780 C 447.961 1.89426 0.44136 0
M  V30 4781 O 447.216 1.42266 1.34384 0
M  V30 4782 C 447.515 3.16335 -1.66334 0
M  V30 4783 C 447.181 3.21474 -3.16173 0
M  V30 4784 C 445.843 3.22583 -3.57062 0
M  V30 4785 C 448.195 3.19025 -4.12156 0
M  V30 4786 C 445.523 3.18925 -4.92446 0
M  V30 4787 C 447.875 3.16909 -5.47496 0
M  V30 4788 C 446.539 3.16326 -5.87787 0
M  V30 4789 H 445.809 0.638933 -0.375294 0
M  V30 4790 H 448.456 1.18274 -1.50611 0
M  V30 4791 H 446.761 3.75876 -1.10566 0
M  V30 4792 H 448.458 3.72083 -1.49516 0
M  V30 4793 H 445.048 3.2135 -2.83605 0
M  V30 4794 H 449.232 3.17332 -3.81595 0
M  V30 4795 H 444.488 3.16809 -5.22917 0
M  V30 4796 H 448.662 3.13968 -6.21609 0
M  V30 4797 H 446.289 3.13246 -6.92662 0
M  V30 4798 N 447.864 1.01787 1.20321 0
M  V30 4799 C 449.112 0.706538 1.89347 0
M  V30 4800 C 449.433 -0.766289 1.79313 0
M  V30 4801 O 448.703 -1.55126 1.19635 0
M  V30 4802 H 447.283 0.258348 0.700903 0
M  V30 4803 H 449.945 1.28974 1.46122 0
M  V30 4804 H 449.041 0.991066 2.95946 0
M  V30 4805 N 449.342 -1.36122 0.79427 0
M  V30 4806 C 450.59 -1.98718 0.368177 0
M  V30 4807 C 450.911 -1.63345 -1.06506 0
M  V30 4808 O 450.181 -0.909825 -1.73491 0
M  V30 4809 H 448.761 -0.735038 0.133146 0
M  V30 4810 H 451.423 -1.66239 1.01739 0
M  V30 4811 H 450.519 -3.08633 0.463923 0
M  V30 4812 N 450.82 -0.546701 -1.47814 0
M  V30 4813 C 451.75 0.195317 -2.32682 0
M  V30 4814 C 452.731 0.918981 -1.43139 0
M  V30 4815 O 453.916 0.901501 -1.72008 0
M  V30 4816 C 451.046 1.23237 -3.247 0
M  V30 4817 C 450 0.625818 -4.234 0
M  V30 4818 C 449.326 1.76674 -5.04669 0
M  V30 4819 C 450.626 -0.413515 -5.2066 0
M  V30 4820 H 452.32 -0.513184 -2.94969 0
M  V30 4821 H 449.866 -0.248241 -1.41844 0
M  V30 4822 H 451.819 1.75955 -3.82907 0
M  V30 4823 H 450.543 1.97067 -2.60446 0
M  V30 4824 H 449.202 0.120023 -3.66403 0
M  V30 4825 H 448.85 2.49383 -4.36826 0
M  V30 4826 H 448.55 1.36673 -5.71484 0
M  V30 4827 H 450.074 2.29738 -5.65732 0
M  V30 4828 H 451.488 0.0272042 -5.73294 0
M  V30 4829 H 449.885 -0.731825 -5.95621 0
M  V30 4830 H 450.955 -1.31325 -4.66778 0
M  V30 4831 N 452.299 1.55045 -0.282633 0
M  V30 4832 C 453.229 2.2579 0.595066 0
M  V30 4833 C 454.21 1.25074 1.15284 0
M  V30 4834 O 455.395 1.5381 1.18559 0
M  V30 4835 C 452.525 2.98472 1.77572 0
M  V30 4836 C 451.479 4.0618 1.34914 0
M  V30 4837 C 450.805 4.66477 2.6135 0
M  V30 4838 C 452.105 5.1996 0.493821 0
M  V30 4839 H 453.799 2.994 0.00505653 0
M  V30 4840 H 451.345 1.44 0.000992001 0
M  V30 4841 H 453.298 3.46677 2.39568 0
M  V30 4842 H 452.022 2.2241 2.39168 0
M  V30 4843 H 450.681 3.58797 0.752338 0
M  V30 4844 H 450.329 3.87074 3.2122 0
M  V30 4845 H 450.029 5.39207 2.33516 0
M  V30 4846 H 451.553 5.17435 3.24181 0
M  V30 4847 H 452.967 5.64172 1.01898 0
M  V30 4848 H 451.364 5.99299 0.310047 0
M  V30 4849 H 452.434 4.82462 -0.485593 0
M  V30 4850 N 453.777 0.010035 1.57597 0
M  V30 4851 C 455.005 -0.683413 1.95287 0
M  V30 4852 C 455.42 -1.66747 0.885481 0
M  V30 4853 O 454.777 -1.82003 -0.134629 0
M  V30 4854 C 454.828 -1.40652 3.33015 0
M  V30 4855 O 454.549 -0.461916 4.35658 0
M  V30 4856 C 456.05 -2.19356 3.85225 0
M  V30 4857 H 453.27 -0.189708 0.643624 0
M  V30 4858 H 455.814 0.0641359 2.04399 0
M  V30 4859 H 453.969 -2.10562 3.2518 0
M  V30 4860 H 454.383 -0.973215 5.15392 0
M  V30 4861 H 455.857 -2.65433 4.83993 0
M  V30 4862 H 456.334 -3.02457 3.18459 0
M  V30 4863 H 456.94 -1.54442 3.96267 0
M  V30 4864 N 455.255 -1.55392 -0.262866 0
M  V30 4865 C 456.502 -1.76476 -0.993109 0
M  V30 4866 C 456.83 -0.571479 -1.85915 0
M  V30 4867 O 456.085 0.445733 -1.90556 0
M  V30 4868 C 456.384 -3.02889 -1.89718 0
M  V30 4869 C 456.05 -4.34974 -1.18781 0
M  V30 4870 C 454.712 -4.7087 -0.991699 0
M  V30 4871 C 457.064 -5.16695 -0.683798 0
M  V30 4872 C 454.392 -5.86036 -0.279024 0
M  V30 4873 C 456.744 -6.32598 0.0153327 0
M  V30 4874 C 455.408 -6.67127 0.223062 0
M  V30 4875 H 454.678 -0.64577 -0.363404 0
M  V30 4876 H 457.325 -1.89664 -0.264525 0
M  V30 4877 H 455.63 -2.84644 -2.6923 0
M  V30 4878 H 457.327 -3.16399 -2.46359 0
M  V30 4879 H 453.917 -4.06765 -1.35058 0
M  V30 4880 H 458.101 -4.8943 -0.8229 0
M  V30 4881 H 453.357 -6.11306 -0.107456 0
M  V30 4882 H 457.531 -6.95171 0.413584 0
M  V30 4883 H 455.158 -7.56216 0.777265 0
M  V30 4884 N 456.733 0.527833 -1.48498 0
M  V30 4885 C 457.696 1.61439 -1.62696 0
M  V30 4886 C 458.696 1.52824 -0.500136 0
M  V30 4887 O 459.886 1.56456 -0.765976 0
M  V30 4888 C 457.018 3.01063 -1.59918 0
M  V30 4889 H 458.211 1.50189 -2.59583 0
M  V30 4890 H 455.764 0.750055 -1.37127 0
M  V30 4891 H 456.499 3.17818 -0.645163 0
M  V30 4892 H 456.284 3.08725 -2.41726 0
M  V30 4893 H 457.774 3.80057 -1.73051 0
M  V30 4894 N 458.211 1.37122 0.776871 0
M  V30 4895 C 459.436 1.354 1.57104 0
M  V30 4896 C 459.861 -0.0595562 1.88006 0
M  V30 4897 O 459.219 -1.03514 1.48844 0
M  V30 4898 C 459.267 2.19472 2.8612 0
M  V30 4899 O 458.371 1.59582 3.80273 0
M  V30 4900 H 457.712 0.462869 0.476076 0
M  V30 4901 H 460.242 1.80577 0.961932 0
M  V30 4902 H 460.252 2.32502 3.35271 0
M  V30 4903 H 458.927 3.22222 2.62956 0
M  V30 4904 H 457.504 1.55564 3.38902 0
M  V30 4905 N 459.689 -1.00246 1.21608 0
M  V30 4906 C 460.919 -1.77373 1.05935 0
M  V30 4907 C 461.327 -1.85059 -0.393686 0
M  V30 4908 O 460.67 -1.31289 -1.28487 0
M  V30 4909 C 460.732 -3.22705 1.58435 0
M  V30 4910 C 460.396 -3.38591 3.06929 0
M  V30 4911 C 461.393 -3.2667 4.04454 0
M  V30 4912 C 459.078 -3.6395 3.46187 0
M  V30 4913 C 461.072 -3.39877 5.39224 0
M  V30 4914 C 458.759 -3.768 4.81108 0
M  V30 4915 C 459.757 -3.6477 5.77436 0
M  V30 4916 O 459.445 -3.77206 7.09909 0
M  V30 4917 H 459.177 -0.56419 0.372378 0
M  V30 4918 H 461.731 -1.26971 1.61454 0
M  V30 4919 H 459.961 -3.74255 0.973147 0
M  V30 4920 H 461.65 -3.81515 1.38568 0
M  V30 4921 H 462.416 -3.06999 3.75468 0
M  V30 4922 H 458.295 -3.72395 2.71741 0
M  V30 4923 H 461.839 -3.30404 6.14393 0
M  V30 4924 H 457.736 -3.95975 5.09779 0
M  V30 4925 H 458.504 -3.94138 7.17355 0
M  V30 4926 N 461.167 -1.02423 -1.1978 0
M  V30 4927 C 462.115 -0.594474 -2.24875 0
M  V30 4928 C 463.109 0.370598 -1.65296 0
M  V30 4929 O 464.315 0.239684 -1.78397 0
M  V30 4930 H 460.69 -0.173961 -0.731602 0
M  V30 4931 H 462.661 -1.4916 -2.58445 0
M  V30 4932 C 461.41 0.0436512 -3.47673 0
M  V30 4933 H 460.733 -0.689963 -3.93801 0
M  V30 4934 H 462.173 0.307362 -4.22884 0
M  V30 4935 C 460.632 1.28881 -3.11274 0
M  V30 4936 O 461.162 2.38135 -3.23503 0
M  V30 4937 N 459.368 1.1758 -2.6575 0
M  V30 4938 H 458.915 0.286769 -2.55999 0
M  V30 4939 H 458.873 2.00988 -2.41767 0
M  V30 4940 N 462.645 1.35699 -0.801477 0
M  V30 4941 C 463.873 2.03157 -0.391768 0
M  V30 4942 C 464.288 1.60412 0.995668 0
M  V30 4943 O 463.645 0.799228 1.64069 0
M  V30 4944 C 463.696 3.58566 -0.459671 0
M  V30 4945 O 463.417 3.99756 -1.7924 0
M  V30 4946 C 464.918 4.4328 -0.0421205 0
M  V30 4947 H 462.138 0.651688 -0.159825 0
M  V30 4948 H 464.682 1.73426 -1.08368 0
M  V30 4949 H 462.837 3.86963 0.183939 0
M  V30 4950 H 463.251 4.94387 -1.75162 0
M  V30 4951 H 464.725 5.51821 -0.140754 0
M  V30 4952 H 465.202 4.27383 1.01196 0
M  V30 4953 H 465.808 4.20168 -0.658687 0
M  V30 4954 N 464.123 0.554532 1.47522 0
M  V30 4955 C 465.37 0.029479 2.02479 0
M  V30 4956 C 465.698 -1.31929 1.42916 0
M  V30 4957 O 464.953 -1.87112 0.573385 0
M  V30 4958 C 465.252 -0.115927 3.57212 0
M  V30 4959 C 464.918 1.16161 4.3568 0
M  V30 4960 C 463.58 1.51168 4.56839 0
M  V30 4961 C 465.932 2.0083 4.80954 0
M  V30 4962 C 463.26 2.70696 5.2052 0
M  V30 4963 C 465.612 3.19559 5.45953 0
M  V30 4964 C 464.276 3.54882 5.65345 0
M  V30 4965 H 463.546 0.0107871 0.740921 0
M  V30 4966 H 466.193 0.725506 1.77225 0
M  V30 4967 H 464.498 -0.894902 3.81443 0
M  V30 4968 H 466.195 -0.53749 3.97381 0
M  V30 4969 H 462.785 0.879026 4.19489 0
M  V30 4970 H 466.969 1.75093 4.64388 0
M  V30 4971 H 462.225 2.98236 5.33728 0
M  V30 4972 H 466.399 3.85456 5.79997 0
M  V30 4973 H 464.026 4.47596 6.1446 0
M  V30 4974 N 465.601 -1.54893 0.290851 0
M  V30 4975 C 466.551 -2.19838 -0.604599 0
M  V30 4976 C 467.535 -1.16805 -1.10659 0
M  V30 4977 O 468.727 -1.42562 -1.04905 0
M  V30 4978 C 465.856 -2.93497 -1.78086 0
M  V30 4979 C 464.942 -4.03835 -1.29531 0
M  V30 4980 N 465.333 -5.03047 -0.527024 0
M  V30 4981 C 463.631 -4.17192 -1.57693 0
M  V30 4982 C 464.332 -5.81074 -0.269728 0
M  V30 4983 N 463.308 -5.36966 -0.846651 0
M  V30 4984 H 467.11 -2.93898 -0.00995032 0
M  V30 4985 H 464.624 -1.62121 0.0951353 0
M  V30 4986 H 466.621 -3.38484 -2.43381 0
M  V30 4987 H 465.281 -2.2095 -2.37931 0
M  V30 4988 H 466.292 -5.17611 -0.172872 0
M  V30 4989 H 462.969 -3.55845 -2.18359 0
M  V30 4990 H 464.359 -6.71005 0.346643 0
M  V30 4991 N 467.08 -0.0183926 -1.57589 0
M  V30 4992 C 468.012 0.995557 -2.06449 0
M  V30 4993 C 469.025 1.29556 -0.985849 0
M  V30 4994 O 470.214 1.2621 -1.26227 0
M  V30 4995 C 467.314 2.32572 -2.46502 0
M  V30 4996 C 466.487 2.21245 -3.77319 0
M  V30 4997 C 465.546 3.37104 -4.04039 0
M  V30 4998 O 464.572 3.14468 -4.74445 0
M  V30 4999 N 465.774 4.60553 -3.53372 0
M  V30 5000 H 468.539 0.578746 -2.94059 0
M  V30 5001 H 466.1 0.168603 -1.6102 0
M  V30 5002 H 468.092 3.08887 -2.61478 0
M  V30 5003 H 466.662 2.65931 -1.64315 0
M  V30 5004 H 465.882 1.29723 -3.72244 0
M  V30 5005 H 467.17 2.10868 -4.63047 0
M  V30 5006 H 466.568 4.81839 -2.96391 0
M  V30 5007 H 465.125 5.34072 -3.73644 0
M  V30 5008 N 468.558 1.5553 0.254621 0
M  V30 5009 C 469.506 1.9048 1.33492 0
M  V30 5010 C 470.5 0.78304 1.50216 0
M  V30 5011 O 471.706 0.967582 1.51782 0
M  V30 5012 H 468.081 0.604846 0.44684 0
M  V30 5013 H 470.052 2.80688 1.01275 0
M  V30 5014 C 468.801 2.20928 2.68489 0
M  V30 5015 H 468.124 3.06742 2.56417 0
M  V30 5016 H 469.564 2.49291 3.42972 0
M  V30 5017 C 468.023 1.023 3.20993 0
M  V30 5018 O 468.553 0.267027 4.00811 0
M  V30 5019 N 466.759 0.815714 2.78917 0
M  V30 5020 H 466.306 1.43217 2.14119 0
M  V30 5021 H 466.264 0.0236532 3.14391 0
M  V30 5022 N 470.036 -0.519951 1.48776 0
M  V30 5023 C 471.285 -1.27175 1.56555 0
M  V30 5024 C 471.598 -1.9401 0.248869 0
M  V30 5025 O 472.804 -2.70725 0.205004 0
M  V30 5026 C 471.26 -2.30811 2.76142 0
M  V30 5027 C 470.868 -1.7 4.14493 0
M  V30 5028 C 472.612 -3.06937 2.9324 0
M  V30 5029 C 470.519 -2.71635 5.25327 0
M  V30 5030 H 469.449 -0.478329 0.582853 0
M  V30 5031 H 472.1 -0.547916 1.75129 0
M  V30 5032 H 470.482 -3.06274 2.51023 0
M  V30 5033 H 471.656 -1.00658 4.49672 0
M  V30 5034 H 469.971 -1.06331 4.02595 0
M  V30 5035 H 472.568 -3.82905 3.73213 0
M  V30 5036 H 472.911 -3.63409 2.03075 0
M  V30 5037 H 473.444 -2.38589 3.18308 0
M  V30 5038 H 470.183 -2.1997 6.1749 0
M  V30 5039 H 469.703 -3.39275 4.94624 0
M  V30 5040 H 471.382 -3.34429 5.53865 0
M  V30 5041 N 471.514 -1.37532 -0.769588 0
M  V30 5042 C 472.744 -1.35861 -1.55645 0
M  V30 5043 C 473.152 0.0574398 -1.89113 0
M  V30 5044 O 472.495 1.03021 -1.52093 0
M  V30 5045 C 472.557 -2.13431 -2.89288 0
M  V30 5046 C 472.221 -3.62378 -2.78444 0
M  V30 5047 C 473.218 -4.56215 -2.49326 0
M  V30 5048 C 470.903 -4.05529 -2.96398 0
M  V30 5049 C 472.897 -5.91181 -2.38294 0
M  V30 5050 C 470.584 -5.40579 -2.84987 0
M  V30 5051 C 471.582 -6.33218 -2.55975 0
M  V30 5052 O 471.27 -7.65787 -2.44594 0
M  V30 5053 H 471.002 -0.467001 -0.48876 0
M  V30 5054 H 473.556 -1.81505 -0.961515 0
M  V30 5055 H 471.786 -1.62481 -3.50909 0
M  V30 5056 H 473.475 -2.04368 -3.50697 0
M  V30 5057 H 474.241 -4.24187 -2.35139 0
M  V30 5058 H 470.12 -3.33781 -3.1798 0
M  V30 5059 H 473.664 -6.63457 -2.15571 0
M  V30 5060 H 469.561 -5.72209 -2.98743 0
M  V30 5061 H 470.329 -7.76132 -2.59927 0
M  V30 5062 N 472.992 0.995999 -1.22138 0
M  V30 5063 C 474.408 1.25917 -0.980667 0
M  V30 5064 C 474.608 1.98819 0.327604 0
M  V30 5065 O 473.664 2.29587 1.05101 0
M  V30 5066 C 474.977 2.07399 -2.17729 0
M  V30 5067 C 476.525 2.20594 -2.22052 0
M  V30 5068 C 477 3.05462 -3.41258 0
M  V30 5069 N 478.491 3.13049 -3.41401 0
M  V30 5070 C 479.226 3.78997 -4.30289 0
M  V30 5071 N 478.722 4.46899 -5.2939 0
M  V30 5072 N 480.515 3.75728 -4.18073 0
M  V30 5073 H 472.666 0.507158 -2.06256 0
M  V30 5074 H 474.929 0.28658 -0.903646 0
M  V30 5075 H 474.635 1.61191 -3.12586 0
M  V30 5076 H 474.509 3.08154 -2.17534 0
M  V30 5077 H 476.896 2.66017 -1.27745 0
M  V30 5078 H 476.977 1.1928 -2.26287 0
M  V30 5079 H 476.621 2.60739 -4.35864 0
M  V30 5080 H 476.551 4.06911 -3.34262 0
M  V30 5081 H 479.042 2.64721 -2.69688 0
M  V30 5082 H 479.355 4.94952 -5.935 0
M  V30 5083 H 477.7 4.45657 -5.33306 0
M  V30 5084 H 480.891 3.2184 -3.39907 0
M  V30 5085 H 481.064 4.26845 -4.87553 0
M  V30 5086 N 474.47 1.03057 1.19235 0
M  V30 5087 C 475.747 0.642608 1.84743 0
M  V30 5088 C 476.127 -0.878577 1.91948 0
M  V30 5089 O 475.475 -1.77597 1.43776 0
M  V30 5090 C 475.685 1.30665 3.23616 0
M  V30 5091 C 477.033 1.43098 3.9976 0
M  V30 5092 O 478.057 1.26396 3.3302 0
M  V30 5093 O 476.916 1.70223 5.19313 0
M  V30 5094 H 474.01 0.223573 0.796206 0
M  V30 5095 H 476.556 1.12883 1.26711 0
M  V30 5096 H 475.328 2.34544 3.13217 0
M  V30 5097 H 474.951 0.808405 3.89295 0
M  V30 5098 N 475.948 -1.35272 0.808662 0
M  V30 5099 C 477.176 -2.02946 0.402537 0
M  V30 5100 C 477.591 -1.60937 -0.987147 0
M  V30 5101 O 476.948 -0.807917 -1.63643 0
M  V30 5102 C 476.999 -3.58317 0.47868 0
M  V30 5103 O 476.72 -3.98799 1.81358 0
M  V30 5104 C 478.221 -4.43251 0.0656281 0
M  V30 5105 H 475.441 -0.650831 0.163279 0
M  V30 5106 H 477.985 -1.72849 1.09286 0
M  V30 5107 H 476.14 -3.87055 -0.163415 0
M  V30 5108 H 476.554 -4.93451 1.77781 0
M  V30 5109 H 478.028 -5.51738 0.170017 0
M  V30 5110 H 478.505 -4.27913 -0.989278 0
M  V30 5111 H 479.111 -4.19813 0.68096 0
M  V30 5112 N 477.426 -0.562348 -1.47226 0
M  V30 5113 C 478.673 -0.0402165 -2.0246 0
M  V30 5114 C 479.001 1.31169 -1.43614 0
M  V30 5115 O 478.256 1.86805 -0.5833 0
M  V30 5116 C 478.555 0.0969817 -3.57268 0
M  V30 5117 C 478.221 -1.1847 -4.35058 0
M  V30 5118 C 476.883 -1.53588 -4.56031 0
M  V30 5119 C 479.235 -2.03378 -4.79882 0
M  V30 5120 C 476.563 -2.73452 -5.19077 0
M  V30 5121 C 478.915 -3.2245 -5.44251 0
M  V30 5122 C 477.579 -3.57876 -5.63455 0
M  V30 5123 H 476.849 -0.0147163 -0.740854 0
M  V30 5124 H 479.496 -0.734895 -1.76838 0
M  V30 5125 H 477.801 0.87466 -3.81912 0
M  V30 5126 H 479.498 0.516408 -3.97661 0
M  V30 5127 H 476.088 -0.90126 -4.19017 0
M  V30 5128 H 480.272 -1.77553 -4.63453 0
M  V30 5129 H 475.528 -3.01062 -5.32139 0
M  V30 5130 H 479.702 -3.88526 -5.77945 0
M  V30 5131 H 477.329 -4.50849 -6.12078 0
M  V30 5132 N 478.904 1.54736 -0.299062 0
M  V30 5133 C 480.153 1.99279 0.311549 0
M  V30 5134 C 480.466 1.19107 1.55154 0
M  V30 5135 O 481.672 1.53908 2.23662 0
M  V30 5136 C 480.128 3.54768 0.605632 0
M  V30 5137 C 479.736 4.43746 -0.615914 0
M  V30 5138 C 481.48 4.07841 1.17754 0
M  V30 5139 C 479.387 5.90663 -0.29509 0
M  V30 5140 H 478.317 0.744359 0.120187 0
M  V30 5141 H 480.968 1.78919 -0.407464 0
M  V30 5142 H 479.35 3.71021 1.38419 0
M  V30 5143 H 480.524 4.39267 -1.39218 0
M  V30 5144 H 478.839 4.01434 -1.10633 0
M  V30 5145 H 481.436 5.15174 1.43179 0
M  V30 5146 H 481.779 3.58324 2.11918 0
M  V30 5147 H 482.312 3.95123 0.460739 0
M  V30 5148 H 479.051 6.44325 -1.20524 0
M  V30 5149 H 478.571 5.98155 0.44394 0
M  V30 5150 H 480.25 6.46916 0.104048 0
M  V30 5151 N 480.382 0.0267497 1.57577 0
M  V30 5152 C 481.628 -0.653371 1.91987 0
M  V30 5153 C 481.961 -1.71915 0.903263 0
M  V30 5154 O 481.236 -1.94358 -0.0743387 0
M  V30 5155 C 481.519 -1.272 3.36886 0
M  V30 5156 C 481.372 -0.215938 4.49281 0
M  V30 5157 C 482.691 -2.19069 3.81703 0
M  V30 5158 H 479.81 -0.236047 0.698177 0
M  V30 5159 H 482.452 0.0835236 1.89816 0
M  V30 5160 H 480.602 -1.90005 3.38866 0
M  V30 5161 H 482.274 0.41449 4.59434 0
M  V30 5162 H 480.517 0.458855 4.31366 0
M  V30 5163 H 481.188 -0.688347 5.47691 0
M  V30 5164 H 483.664 -1.66253 3.81444 0
M  V30 5165 H 482.54 -2.59307 4.83788 0
M  V30 5166 H 482.801 -3.08087 3.17072 0
M  V30 5167 N 481.861 -1.55662 -0.24637 0
M  V30 5168 C 483.089 -1.81575 -0.991876 0
M  V30 5169 C 483.504 -0.602545 -1.78927 0
M  V30 5170 O 482.861 0.428795 -1.77391 0
M  V30 5171 C 482.912 -3.05711 -1.92933 0
M  V30 5172 O 482.633 -4.22348 -1.1642 0
M  V30 5173 C 484.134 -3.44428 -2.79078 0
M  V30 5174 H 481.354 -0.604209 -0.291844 0
M  V30 5175 H 483.898 -2.02722 -0.269095 0
M  V30 5176 H 482.053 -2.86612 -2.60638 0
M  V30 5177 H 482.467 -4.92706 -1.79835 0
M  V30 5178 H 483.941 -4.34388 -3.40603 0
M  V30 5179 H 484.418 -2.65037 -3.50217 0
M  V30 5180 H 485.024 -3.65879 -2.16824 0
M  V30 5181 N 483.339 0.512053 -1.4905 0
M  V30 5182 C 484.269 1.62365 -1.67809 0
M  V30 5183 C 485.25 1.61737 -0.526809 0
M  V30 5184 O 486.435 1.78651 -0.761404 0
M  V30 5185 C 483.565 3.00895 -1.73435 0
M  V30 5186 C 482.519 3.16387 -2.88242 0
M  V30 5187 C 481.845 4.56157 -2.78971 0
M  V30 5188 C 483.145 2.97457 -4.29321 0
M  V30 5189 H 484.839 1.46921 -2.60873 0
M  V30 5190 H 482.385 0.705379 -1.2554 0
M  V30 5191 H 484.338 3.78549 -1.85145 0
M  V30 5192 H 483.062 3.17403 -0.769619 0
M  V30 5193 H 481.721 2.41155 -2.76116 0
M  V30 5194 H 481.369 4.69525 -1.8043 0
M  V30 5195 H 481.069 4.67465 -3.5602 0
M  V30 5196 H 482.593 5.35886 -2.92675 0
M  V30 5197 H 484.007 3.64888 -4.42187 0
M  V30 5198 H 482.404 3.20245 -5.07507 0
M  V30 5199 H 483.474 1.93692 -4.44535 0
M  V30 5200 N 484.817 1.37938 0.762283 0
M  V30 5201 C 486.065 1.33404 1.51815 0
M  V30 5202 C 486.386 -0.0780975 1.94844 0
M  V30 5203 O 485.656 -1.02405 1.67003 0
M  V30 5204 H 484.236 0.490839 0.563104 0
M  V30 5205 H 486.898 1.72527 0.906669 0
M  V30 5206 H 485.994 1.97926 2.41313 0
M  V30 5207 N 486.295 -0.989507 1.22664 0
M  V30 5208 C 487.243 -2.10148 0.997035 0
M  V30 5209 C 488.237 -1.6929 -0.0609783 0
M  V30 5210 O 489.443 -1.79766 0.0917523 0
M  V30 5211 H 485.818 -0.687256 0.305259 0
M  V30 5212 H 487.789 -2.26685 1.94053 0
M  V30 5213 C 486.538 -3.4257 0.595085 0
M  V30 5214 H 485.861 -3.74453 1.40089 0
M  V30 5215 H 487.301 -4.21344 0.473869 0
M  V30 5216 C 485.76 -3.29638 -0.695725 0
M  V30 5217 O 486.29 -3.61709 -1.74727 0
M  V30 5218 N 484.496 -2.82814 -0.668173 0
M  V30 5219 H 484.043 -2.56914 0.18787 0
M  V30 5220 H 484.001 -2.74544 -1.5321 0
M  V30 5221 N 487.773 -1.03688 -1.18687 0
M  V30 5222 C 488.736 -0.629115 -2.20397 0
M  V30 5223 C 489.736 0.311495 -1.57754 0
M  V30 5224 O 490.926 0.0974107 -1.73927 0
M  V30 5225 C 488.058 0.0782231 -3.4081 0
M  V30 5226 H 489.251 -1.52915 -2.57987 0
M  V30 5227 H 486.804 -0.828988 -1.32505 0
M  V30 5228 H 487.539 0.992233 -3.08748 0
M  V30 5229 H 487.324 -0.597776 -3.87517 0
M  V30 5230 H 488.814 0.350156 -4.16129 0
M  V30 5231 N 489.251 1.34841 -0.815825 0
M  V30 5232 C 490.5 1.97755 -0.396976 0
M  V30 5233 C 490.813 1.65422 1.04379 0
M  V30 5234 O 492.019 2.21771 1.5662 0
M  V30 5235 C 490.475 3.53818 -0.658869 0
M  V30 5236 C 490.083 3.95051 -2.11278 0
M  V30 5237 C 491.827 4.23397 -0.305834 0
M  V30 5238 C 489.734 5.43997 -2.31994 0
M  V30 5239 H 488.664 0.739985 -0.1447 0
M  V30 5240 H 491.315 1.53781 -1.00118 0
M  V30 5241 H 489.697 3.95997 0.0154112 0
M  V30 5242 H 490.871 3.63998 -2.82564 0
M  V30 5243 H 489.186 3.38388 -2.42657 0
M  V30 5244 H 491.783 5.32899 -0.43854 0
M  V30 5245 H 492.126 4.09508 0.748952 0
M  V30 5246 H 492.659 3.8667 -0.934403 0
M  V30 5247 H 489.398 5.62865 -3.35952 0
M  V30 5248 H 488.918 5.76589 -1.65244 0
M  V30 5249 H 490.597 6.10584 -2.14001 0
M  V30 5250 N 490.729 0.570148 1.46925 0
M  V30 5251 C 491.957 0.0561966 2.06824 0
M  V30 5252 C 492.372 -1.24326 1.42086 0
M  V30 5253 O 491.729 -1.74882 0.521794 0
M  V30 5254 C 491.78 -0.129517 3.61268 0
M  V30 5255 O 491.501 1.1185 4.23581 0
M  V30 5256 C 493.002 -0.679266 4.38065 0
M  V30 5257 H 490.222 0.0517261 0.669003 0
M  V30 5258 H 492.766 0.787243 1.8874 0
M  V30 5259 H 490.921 -0.810739 3.78822 0
M  V30 5260 H 491.335 0.924375 5.1629 0
M  V30 5261 H 492.809 -0.758445 5.46765 0
M  V30 5262 H 493.286 -1.69346 4.05239 0
M  V30 5263 H 493.892 -0.0333237 4.25287 0
M  V30 5264 N 492.207 -1.54576 0.307264 0
M  V30 5265 C 493.432 -2.05139 -0.305379 0
M  V30 5266 C 493.857 -1.18278 -1.46259 0
M  V30 5267 O 493.215 -0.188243 -1.8032 0
M  V30 5268 C 493.263 -3.53066 -0.733283 0
M  V30 5269 O 492.367 -3.69206 -1.83741 0
M  V30 5270 H 491.708 -0.661444 -0.0582105 0
M  V30 5271 H 494.238 -1.99569 0.450931 0
M  V30 5272 H 494.248 -3.95034 -1.02039 0
M  V30 5273 H 492.923 -4.15746 0.113198 0
M  V30 5274 H 491.5 -3.39143 -1.55037 0
M  V30 5275 N 493.685 -0.035106 -1.57561 0
M  V30 5276 C 494.934 0.641604 -1.91223 0
M  V30 5277 C 495.247 1.72944 -0.913761 0
M  V30 5278 O 496.453 2.46321 -1.14185 0
M  V30 5279 C 494.909 1.19249 -3.3957 0
M  V30 5280 C 494.517 0.137616 -4.47789 0
M  V30 5281 C 496.261 1.84537 -3.82291 0
M  V30 5282 C 494.168 0.700478 -5.87237 0
M  V30 5283 H 493.098 0.243417 -0.713627 0
M  V30 5284 H 495.749 -0.101382 -1.8322 0
M  V30 5285 H 494.131 1.98728 -3.42525 0
M  V30 5286 H 495.305 -0.635153 -4.56402 0
M  V30 5287 H 493.62 -0.416855 -4.14308 0
M  V30 5288 H 496.217 2.27616 -4.83834 0
M  V30 5289 H 496.56 2.69054 -3.17672 0
M  V30 5290 H 497.093 1.11739 -3.81784 0
M  V30 5291 H 493.832 -0.106693 -6.55413 0
M  V30 5292 H 493.352 1.4416 -5.82218 0
M  V30 5293 H 495.031 1.18837 -6.35993 0
M  V30 5294 N 495.163 1.55791 0.238111 0
M  V30 5295 C 496.093 1.94068 1.29846 0
M  V30 5296 C 497.074 0.806726 1.49753 0
M  V30 5297 O 498.259 1.06772 1.62214 0
M  V30 5298 C 495.389 2.24302 2.65153 0
M  V30 5299 C 494.343 3.40032 2.59927 0
M  V30 5300 C 493.669 3.55829 3.99111 0
M  V30 5301 C 494.969 4.75476 2.16148 0
M  V30 5302 H 496.663 2.82887 0.980563 0
M  V30 5303 H 494.209 1.36105 0.470253 0
M  V30 5304 H 496.162 2.4967 3.39475 0
M  V30 5305 H 494.886 1.32318 2.98596 0
M  V30 5306 H 493.545 3.14687 1.88063 0
M  V30 5307 H 493.193 2.6125 4.29834 0
M  V30 5308 H 492.893 4.3366 3.96501 0
M  V30 5309 H 494.417 3.83528 4.7512 0
M  V30 5310 H 495.831 5.00158 2.80205 0
M  V30 5311 H 494.228 5.56472 2.24631 0
M  V30 5312 H 495.298 4.71946 1.11333 0
M  V30 5313 N 496.642 -0.504142 1.49319 0
M  V30 5314 C 497.605 -1.5883 1.65244 0
M  V30 5315 C 498.605 -1.52009 0.524386 0
M  V30 5316 O 499.795 -1.55218 0.79077 0
M  V30 5317 C 496.927 -2.98481 1.64687 0
M  V30 5318 H 498.12 -1.4604 2.61939 0
M  V30 5319 H 495.673 -0.728144 1.38303 0
M  V30 5320 H 496.408 -3.16751 0.695644 0
M  V30 5321 H 496.193 -3.0484 2.46607 0
M  V30 5322 H 497.683 -3.77256 1.79075 0
M  V30 5323 N 498.12 -1.38341 -0.754957 0
M  V30 5324 C 499.368 -1.34208 -1.51105 0
M  V30 5325 C 499.689 0.0677634 -1.94882 0
M  V30 5326 O 498.959 1.01517 -1.67544 0
M  V30 5327 H 497.539 -0.493819 -0.560493 0
M  V30 5328 H 500.201 -1.73005 -0.897507 0
M  V30 5329 H 499.297 -1.99203 -2.4026 0
M  V30 5330 N 499.598 0.982988 -1.23187 0
M  V30 5331 C 500.845 1.72392 -1.06241 0
M  V30 5332 C 501.173 1.9032 0.40108 0
M  V30 5333 O 500.428 1.45084 1.31336 0
M  V30 5334 C 500.727 3.12736 -1.73006 0
M  V30 5335 C 500.393 3.14695 -3.22921 0
M  V30 5336 C 499.055 3.14937 -3.63824 0
M  V30 5337 C 501.407 3.10211 -4.1883 0
M  V30 5338 C 498.735 3.08408 -4.99101 0
M  V30 5339 C 501.087 3.05224 -5.54095 0
M  V30 5340 C 499.751 3.03787 -5.94365 0
M  V30 5341 H 499.021 0.630829 -0.388762 0
M  V30 5342 H 501.668 1.15053 -1.53085 0
M  V30 5343 H 499.973 3.73446 -1.18514 0
M  V30 5344 H 501.67 3.68828 -1.57374 0
M  V30 5345 H 498.26 3.15262 -2.90358 0
M  V30 5346 H 502.444 3.09166 -3.8824 0
M  V30 5347 H 497.7 3.05646 -5.29519 0
M  V30 5348 H 501.874 3.00712 -6.28128 0
M  V30 5349 H 499.501 2.98483 -6.99151 0
M  V30 5350 N 501.076 1.04316 1.18135 0
M  V30 5351 C 502.039 0.640794 2.2006 0
M  V30 5352 C 503.039 -0.303124 1.57917 0
M  V30 5353 O 504.229 -0.0881855 1.73977 0
M  V30 5354 C 501.361 -0.060148 3.40847 0
M  V30 5355 H 502.554 1.54281 2.57172 0
M  V30 5356 H 500.107 0.836004 1.32063 0
M  V30 5357 H 500.842 -0.975845 3.0927 0
M  V30 5358 H 500.627 0.618319 3.87194 0
M  V30 5359 H 502.117 -0.328082 4.16309 0
M  V30 5360 N 502.554 -1.34406 0.822964 0
M  V30 5361 C 503.803 -1.97542 0.407458 0
M  V30 5362 C 504.116 -1.65973 -1.035 0
M  V30 5363 O 505.322 -2.22598 -1.55442 0
M  V30 5364 C 503.778 -3.53463 0.677623 0
M  V30 5365 C 503.386 -3.93925 2.1337 0
M  V30 5366 C 505.13 -4.23229 0.328284 0
M  V30 5367 C 503.037 -5.42759 2.34876 0
M  V30 5368 H 501.967 -0.739207 0.148623 0
M  V30 5369 H 504.618 -1.53248 1.00932 0
M  V30 5370 H 503 -3.96 0.00558965 0
M  V30 5371 H 504.174 -3.62494 2.8449 0
M  V30 5372 H 502.489 -3.37097 2.44448 0
M  V30 5373 H 505.086 -5.32659 0.466794 0
M  V30 5374 H 505.429 -4.09899 -0.727224 0
M  V30 5375 H 505.962 -3.86169 0.954896 0
M  V30 5376 H 502.701 -5.61075 3.38932 0
M  V30 5377 H 502.221 -5.75704 1.68299 0
M  V30 5378 H 503.9 -6.0944 2.17236 0
M  V30 5379 N 504.032 -0.577932 -1.46621 0
M  V30 5380 C 505.279 -0.0616879 -2.02406 0
M  V30 5381 C 505.607 1.29638 -1.44997 0
M  V30 5382 O 504.862 1.86176 -0.60308 0
M  V30 5383 C 505.161 0.0590832 -3.57351 0
M  V30 5384 C 504.827 -1.23077 -4.33777 0
M  V30 5385 C 503.489 -1.58416 -4.54376 0
M  V30 5386 C 505.841 -2.08457 -4.77698 0
M  V30 5387 C 503.169 -2.78943 -5.16147 0
M  V30 5388 C 505.521 -3.28204 -5.408 0
M  V30 5389 C 504.185 -3.63832 -5.59627 0
M  V30 5390 H 503.455 -0.0225732 -0.740656 0
M  V30 5391 H 506.102 -0.753609 -1.76048 0
M  V30 5392 H 504.407 0.834104 -3.82818 0
M  V30 5393 H 506.104 0.474202 -3.98186 0
M  V30 5394 H 502.694 -0.945652 -4.18038 0
M  V30 5395 H 506.878 -1.82459 -4.61544 0
M  V30 5396 H 502.134 -3.06689 -5.28916 0
M  V30 5397 H 506.308 -3.94634 -5.73792 0
M  V30 5398 H 503.935 -4.57315 -6.07262 0
M  V30 5399 N 505.51 1.54411 -0.315457 0
M  V30 5400 C 506.735 2.05299 0.294496 0
M  V30 5401 C 507.16 1.19052 1.4563 0
M  V30 5402 O 506.518 0.197804 1.80218 0
M  V30 5403 C 506.566 3.5345 0.714549 0
M  V30 5404 O 505.67 3.70175 1.81781 0
M  V30 5405 H 505.011 0.661743 0.0547019 0
M  V30 5406 H 507.541 1.99327 -0.461508 0
M  V30 5407 H 507.551 3.9557 0.999426 0
M  V30 5408 H 506.226 4.1568 -0.135244 0
M  V30 5409 H 504.803 3.3996 1.53236 0
M  V30 5410 N 506.988 0.0434614 1.5754 0
M  V30 5411 C 508.234 -0.632971 1.92669 0
M  V30 5412 C 508.567 -1.70947 0.921446 0
M  V30 5413 O 507.842 -1.94426 -0.0537202 0
M  V30 5414 C 508.125 -1.23619 3.38216 0
M  V30 5415 C 507.978 -0.168274 4.49485 0
M  V30 5416 C 509.297 -2.15008 3.84005 0
M  V30 5417 H 506.416 -0.228629 0.700641 0
M  V30 5418 H 509.058 0.103651 1.89717 0
M  V30 5419 H 507.208 -1.864 3.40863 0
M  V30 5420 H 508.88 0.463196 4.58969 0
M  V30 5421 H 507.123 0.504581 4.30855 0
M  V30 5422 H 507.794 -0.630218 5.48391 0
M  V30 5423 H 510.27 -1.62198 3.83185 0
M  V30 5424 H 509.146 -2.54161 4.86511 0
M  V30 5425 H 509.407 -3.04707 3.20322 0
M  V30 5426 N 508.466 -1.55915 -0.229846 0
M  V30 5427 C 509.396 -1.94754 -1.28815 0
M  V30 5428 C 510.377 -0.814657 -1.49323 0
M  V30 5429 O 511.562 -1.07631 -1.61645 0
M  V30 5430 C 508.692 -2.25705 -2.63959 0
M  V30 5431 C 507.646 -3.41406 -2.5812 0
M  V30 5432 C 506.972 -3.57941 -3.97218 0
M  V30 5433 C 508.272 -4.76616 -2.13623 0
M  V30 5434 H 509.966 -2.83404 -0.965547 0
M  V30 5435 H 507.512 -1.36353 -0.463028 0
M  V30 5436 H 509.465 -2.51467 -3.38146 0
M  V30 5437 H 508.189 -1.339 -2.9789 0
M  V30 5438 H 506.848 -3.1568 -1.86391 0
M  V30 5439 H 506.496 -2.63526 -4.28443 0
M  V30 5440 H 506.196 -4.35757 -3.94195 0
M  V30 5441 H 507.72 -3.86042 -4.73079 0
M  V30 5442 H 509.134 -5.01637 -2.77549 0
M  V30 5443 H 507.531 -5.57655 -2.21677 0
M  V30 5444 H 508.601 -4.7253 -1.08829 0
M  V30 5445 N 509.944 0.496216 -1.49584 0
M  V30 5446 C 511.192 1.24756 -1.58998 0
M  V30 5447 C 511.513 1.92968 -0.280775 0
M  V30 5448 O 510.783 1.82959 0.700198 0
M  V30 5449 H 509.363 0.463471 -0.585836 0
M  V30 5450 H 512.025 0.574678 -1.86235 0
M  V30 5451 H 511.121 2.00895 -2.38847 0
M  V30 5452 N 511.423 1.38739 0.74761 0
M  V30 5453 C 512.653 1.3832 1.53464 0
M  V30 5454 C 513.061 -0.0273464 1.8918 0
M  V30 5455 O 512.404 -1.00588 1.53713 0
M  V30 5456 C 512.466 2.18007 2.85855 0
M  V30 5457 C 512.13 3.66762 2.72644 0
M  V30 5458 C 513.127 4.60124 2.42037 0
M  V30 5459 C 510.812 4.10193 2.89909 0
M  V30 5460 C 512.806 5.94897 2.28859 0
M  V30 5461 C 510.493 5.45045 2.7635 0
M  V30 5462 C 511.491 6.37211 2.45869 0
M  V30 5463 O 511.179 7.69581 2.3238 0
M  V30 5464 H 510.911 0.474718 0.481268 0
M  V30 5465 H 513.465 1.83012 0.932518 0
M  V30 5466 H 511.695 1.68043 3.48279 0
M  V30 5467 H 513.384 2.09921 3.47402 0
M  V30 5468 H 514.15 4.27874 2.28361 0
M  V30 5469 H 510.029 3.38797 3.1263 0
M  V30 5470 H 513.573 6.66802 2.04989 0
M  V30 5471 H 509.47 5.76889 2.89601 0
M  V30 5472 H 510.238 7.80169 2.47546 0
M  V30 5473 N 512.901 -0.976442 1.23707 0
M  V30 5474 C 513.834 -2.06793 0.964973 0
M  V30 5475 C 514.812 -1.62304 -0.0981472 0
M  V30 5476 O 515.996 -1.88464 0.0369477 0
M  V30 5477 C 513.123 -3.35636 0.454522 0
M  V30 5478 C 512.169 -3.99069 1.50485 0
M  V30 5479 S 513.002 -4.37814 3.0835 0
M  V30 5480 C 514.158 -5.69805 2.58985 0
M  V30 5481 H 514.391 -2.29556 1.88922 0
M  V30 5482 H 511.924 -1.11317 1.06995 0
M  V30 5483 H 513.882 -4.10162 0.166626 0
M  V30 5484 H 512.543 -3.10876 -0.448871 0
M  V30 5485 H 511.736 -4.91896 1.09792 0
M  V30 5486 H 511.338 -3.30938 1.7423 0
M  V30 5487 H 513.63 -6.46919 2.01252 0
M  V30 5488 H 514.573 -6.15345 3.50366 0
M  V30 5489 H 514.981 -5.27994 1.99705 0
M  V30 5490 N 514.379 -1.04941 -1.1758 0
M  V30 5491 C 515.604 -0.778253 -1.92245 0
M  V30 5492 C 516.029 0.659707 -1.76152 0
M  V30 5493 O 515.387 1.45803 -1.07755 0
M  V30 5494 C 515.435 -1.16051 -3.41416 0
M  V30 5495 O 514.539 -0.291153 -4.11371 0
M  V30 5496 H 513.88 -0.285619 -0.599431 0
M  V30 5497 H 516.41 -1.40159 -1.49052 0
M  V30 5498 H 516.42 -1.12619 -3.92149 0
M  V30 5499 H 515.095 -2.208 -3.52449 0
M  V30 5500 H 513.672 -0.385851 -3.70898 0
M  V30 5501 N 515.857 1.33968 -0.830081 0
M  V30 5502 C 516.789 2.28194 -0.21448 0
M  V30 5503 C 517.802 1.5135 0.599752 0
M  V30 5504 O 518.991 1.73286 0.42826 0
M  V30 5505 C 516.091 3.31221 0.717356 0
M  V30 5506 C 515.264 4.37365 -0.055613 0
M  V30 5507 C 514.323 5.2011 0.798231 0
M  V30 5508 O 513.349 5.68691 0.240616 0
M  V30 5509 N 514.551 5.40523 2.11695 0
M  V30 5510 H 517.316 2.81662 -1.02405 0
M  V30 5511 H 514.877 1.46568 -0.687713 0
M  V30 5512 H 516.869 3.83477 1.29334 0
M  V30 5513 H 515.439 2.78095 1.42765 0
M  V30 5514 H 514.659 3.85727 -0.812936 0
M  V30 5515 H 515.947 5.05397 -0.587444 0
M  V30 5516 H 515.345 5.0274 2.59363 0
M  V30 5517 H 513.902 5.95871 2.64162 0
M  V30 5518 N 517.335 0.585699 1.46312 0
M  V30 5519 C 518.245 -0.148236 2.34131 0
M  V30 5520 C 519.261 -0.882972 1.49932 0
M  V30 5521 O 520.437 -0.845484 1.82794 0
M  V30 5522 C 517.502 -1.14714 3.27172 0
M  V30 5523 C 516.563 -0.416746 4.27272 0
M  V30 5524 C 515.796 -1.36806 5.15868 0
M  V30 5525 O 516.019 -2.60475 5.07454 0
M  V30 5526 O 514.953 -0.877018 5.95476 0
M  V30 5527 H 518.779 0.572882 2.98248 0
M  V30 5528 H 516.364 0.346082 1.45336 0
M  V30 5529 H 518.246 -1.72303 3.84564 0
M  V30 5530 H 516.921 -1.84967 2.65648 0
M  V30 5531 H 515.828 0.201061 3.73559 0
M  V30 5532 H 517.161 0.244872 4.9159 0
M  V30 5533 N 518.813 -1.54241 0.323641 0
M  V30 5534 C 519.743 -2.27289 -0.534993 0
M  V30 5535 C 520.724 -1.28087 -1.11927 0
M  V30 5536 O 521.909 -1.56899 -1.14439 0
M  V30 5537 C 519.039 -3.03075 -1.69596 0
M  V30 5538 C 517.993 -4.09614 -1.24098 0
M  V30 5539 C 517.319 -4.73242 -2.4889 0
M  V30 5540 C 518.619 -5.21087 -0.355789 0
M  V30 5541 H 520.313 -2.99308 0.0743257 0
M  V30 5542 H 517.859 -1.43952 0.0371874 0
M  V30 5543 H 519.812 -3.52907 -2.30293 0
M  V30 5544 H 518.536 -2.28673 -2.33187 0
M  V30 5545 H 517.195 -3.60666 -0.656945 0
M  V30 5546 H 516.843 -3.95455 -3.10845 0
M  V30 5547 H 516.543 -5.45209 -2.19138 0
M  V30 5548 H 518.067 -5.25848 -3.10348 0
M  V30 5549 H 519.481 -5.66675 -0.869042 0
M  V30 5550 H 517.878 -5.9991 -0.151045 0
M  V30 5551 H 518.948 -4.81005 0.613339 0
M  V30 5552 N 520.291 -0.0518155 -1.57515 0
M  V30 5553 C 521.539 0.620595 -1.92336 0
M  V30 5554 C 521.86 1.71345 -0.930907 0
M  V30 5555 O 521.13 1.95885 0.0241341 0
M  V30 5556 H 519.71 0.232226 -0.709986 0
M  V30 5557 H 522.372 -0.104969 -1.94617 0
M  V30 5558 H 521.468 1.05879 -2.93592 0
M  V30 5559 N 521.769 1.56035 0.221574 0
M  V30 5560 C 523.015 1.79312 0.947372 0
M  V30 5561 C 523.348 0.621453 1.83988 0
M  V30 5562 O 522.623 -0.379287 1.90766 0
M  V30 5563 C 522.906 3.1267 1.78633 0
M  V30 5564 C 522.759 4.40284 0.920312 0
M  V30 5565 C 524.078 3.4247 2.7641 0
M  V30 5566 H 521.197 0.652328 0.342982 0
M  V30 5567 H 523.839 1.88765 0.216244 0
M  V30 5568 H 521.989 3.04741 2.40967 0
M  V30 5569 H 523.661 4.60232 0.313718 0
M  V30 5570 H 521.904 4.33212 0.225734 0
M  V30 5571 H 522.575 5.30033 1.54171 0
M  V30 5572 H 525.051 3.50526 2.24211 0
M  V30 5573 H 523.927 4.3695 3.32213 0
M  V30 5574 H 524.188 2.64635 3.54148 0
M  V30 5575 N 523.247 -0.488276 1.49845 0
M  V30 5576 C 524.658 -1.06955 1.53028 0
M  V30 5577 C 525.009 -1.9351 0.323797 0
M  V30 5578 O 524.134 -2.08891 -0.565116 0
M  V30 5579 C 524.729 -1.94643 2.77307 0
M  V30 5580 C 523.288 -2.4791 2.83227 0
M  V30 5581 C 522.435 -1.25833 2.47106 0
M  V30 5582 H 525.386 -0.271626 1.56358 0
M  V30 5583 H 525.407 -2.79496 2.5819 0
M  V30 5584 H 524.919 -1.31621 3.65099 0
M  V30 5585 H 523.02 -3.14535 1.99745 0
M  V30 5586 H 523.133 -2.84193 3.85709 0
M  V30 5587 H 521.497 -1.58764 1.99163 0
M  V30 5588 H 522.28 -0.644993 3.37186 0
M  V30 5589 N 524.725 -1.39134 -0.740242 0
M  V30 5590 C 525.971 -1.36273 -1.50192 0
M  V30 5591 C 526.304 0.0430136 -1.94152 0
M  V30 5592 O 525.579 1.00691 -1.66408 0
M  V30 5593 C 525.862 -2.33041 -2.74525 0
M  V30 5594 C 525.715 -3.82535 -2.36617 0
M  V30 5595 C 527.034 -2.27723 -3.76604 0
M  V30 5596 H 524.153 -0.496323 -0.544823 0
M  V30 5597 H 526.795 -1.70085 -0.846815 0
M  V30 5598 H 524.945 -2.04337 -3.30422 0
M  V30 5599 H 526.617 -4.21967 -1.86391 0
M  V30 5600 H 524.86 -3.99565 -1.68909 0
M  V30 5601 H 525.531 -4.45723 -3.2563 0
M  V30 5602 H 528.007 -2.53091 -3.30279 0
M  V30 5603 H 526.883 -2.97519 -4.61274 0
M  V30 5604 H 527.144 -1.28049 -4.2315 0
M  V30 5605 N 526.204 0.969867 -1.24223 0
M  V30 5606 C 527.481 1.68774 -0.988664 0
M  V30 5607 C 527.861 2.05342 0.489673 0
M  V30 5608 O 527.209 1.75486 1.46345 0
M  V30 5609 C 527.419 2.92135 -1.90941 0
M  V30 5610 C 528.767 3.64422 -2.17903 0
M  V30 5611 O 529.791 3.02188 -1.88576 0
M  V30 5612 O 528.65 4.76446 -2.67697 0
M  V30 5613 H 525.744 0.737736 -0.37373 0
M  V30 5614 H 528.29 1.02415 -1.35312 0
M  V30 5615 H 527.062 2.61788 -2.90831 0
M  V30 5616 H 526.685 3.66228 -1.54798 0
M  V30 5617 N 527.682 1.05563 1.17022 0
M  V30 5618 C 528.614 0.617888 2.20714 0
M  V30 5619 C 529.627 -0.320303 1.59618 0
M  V30 5620 O 530.816 -0.112449 1.78145 0
M  V30 5621 C 527.916 -0.115333 3.38704 0
M  V30 5622 C 527.089 0.834493 4.29366 0
M  V30 5623 C 526.148 0.141855 5.26009 0
M  V30 5624 O 525.174 0.777151 5.6387 0
M  V30 5625 N 526.376 -1.11934 5.69606 0
M  V30 5626 H 529.141 1.50981 2.58892 0
M  V30 5627 H 526.702 0.938008 1.31958 0
M  V30 5628 H 528.694 -0.588918 4.00392 0
M  V30 5629 H 527.264 -0.908967 2.99093 0
M  V30 5630 H 526.484 1.48762 3.65053 0
M  V30 5631 H 527.772 1.4791 4.86827 0
M  V30 5632 H 527.17 -1.65574 5.40927 0
M  V30 5633 H 525.727 -1.53692 6.33421 0
M  V30 5634 N 529.16 -1.33526 0.837174 0
M  V30 5635 C 530.406 -1.9813 0.432704 0
M  V30 5636 C 530.739 -1.66168 -1.00508 0
M  V30 5637 O 530.014 -0.94069 -1.70239 0
M  V30 5638 C 530.297 -3.54151 0.651834 0
M  V30 5639 C 530.15 -3.95806 2.13676 0
M  V30 5640 C 531.469 -4.39993 0.0968937 0
M  V30 5641 H 528.588 -0.719713 0.15869 0
M  V30 5642 H 531.23 -1.58193 1.05237 0
M  V30 5643 H 529.38 -3.88301 0.124369 0
M  V30 5644 H 531.052 -3.71921 2.72896 0
M  V30 5645 H 529.295 -3.45599 2.62191 0
M  V30 5646 H 529.966 -5.0447 2.24084 0
M  V30 5647 H 532.442 -4.12479 0.547733 0
M  V30 5648 H 531.318 -5.48186 0.279917 0
M  V30 5649 H 531.579 -4.3066 -0.9992 0
M  V30 5650 N 530.638 -0.59345 -1.46 0
M  V30 5651 C 531.601 0.123538 -2.28867 0
M  V30 5652 C 532.601 0.808628 -1.38989 0
M  V30 5653 O 533.791 0.658945 -1.61256 0
M  V30 5654 C 530.923 1.1847 -3.19653 0
M  V30 5655 H 532.116 -0.604843 -2.93737 0
M  V30 5656 H 529.669 -0.351875 -1.52288 0
M  V30 5657 H 530.404 1.94431 -2.59552 0
M  V30 5658 H 530.189 0.69783 -3.8584 0
M  V30 5659 H 531.679 1.68726 -3.81997 0
M  V30 5660 N 532.116 1.54067 -0.331816 0
M  V30 5661 C 533.063 2.24623 0.530372 0
M  V30 5662 C 534.033 1.24009 1.10503 0
M  V30 5663 O 535.218 1.52712 1.14384 0
M  V30 5664 C 532.358 3.01374 1.68129 0
M  V30 5665 C 531.471 4.16821 1.13507 0
M  V30 5666 C 530.606 4.81085 2.25234 0
M  V30 5667 C 529.645 5.88621 1.67903 0
M  V30 5668 N 528.782 6.46713 2.73326 0
M  V30 5669 H 533.622 2.97898 -0.0778607 0
M  V30 5670 H 531.159 1.47014 -0.0501965 0
M  V30 5671 H 533.117 3.44125 2.35868 0
M  V30 5672 H 531.747 2.30419 2.26069 0
M  V30 5673 H 530.799 3.78796 0.348979 0
M  V30 5674 H 532.111 4.94203 0.675633 0
M  V30 5675 H 531.265 5.26846 3.00862 0
M  V30 5676 H 530.004 4.03102 2.74518 0
M  V30 5677 H 529.009 5.42254 0.907773 0
M  V30 5678 H 530.234 6.68506 1.19487 0
M  V30 5679 H 528.18 5.71599 3.21886 0
M  V30 5680 H 528.097 7.19532 2.3197 0
M  V30 5681 H 529.365 6.97129 3.48758 0
M  V30 5682 N 533.594 0.0601682 1.57485 0
M  V30 5683 C 534.557 -0.896373 2.10945 0
M  V30 5684 C 535.557 -1.23402 1.03095 0
M  V30 5685 O 536.747 -1.16921 1.29132 0
M  V30 5686 C 533.879 -2.20346 2.60116 0
M  V30 5687 H 535.072 -0.432778 2.96761 0
M  V30 5688 H 532.625 -0.188372 1.55161 0
M  V30 5689 H 533.36 -2.71268 1.7772 0
M  V30 5690 H 533.145 -1.9714 3.38937 0
M  V30 5691 H 534.635 -2.88846 3.01592 0
M  V30 5692 N 535.072 -1.5615 -0.213296 0
M  V30 5693 C 536.32 -1.79191 -0.934612 0
M  V30 5694 C 536.641 -0.630112 -1.84539 0
M  V30 5695 O 535.911 0.35257 -1.92701 0
M  V30 5696 H 534.491 -0.660937 -0.348097 0
M  V30 5697 H 537.153 -1.93618 -0.22317 0
M  V30 5698 H 536.249 -2.71656 -1.53654 0
M  V30 5699 N 536.55 0.480323 -1.50102 0
M  V30 5700 C 537.961 1.06142 -1.53593 0
M  V30 5701 C 538.312 1.93335 -0.334055 0
M  V30 5702 O 537.437 2.09188 0.55403 0
M  V30 5703 C 538.032 1.9317 -2.78336 0
M  V30 5704 C 536.591 2.46405 -2.84538 0
M  V30 5705 C 535.738 1.24521 -2.4777 0
M  V30 5706 H 538.689 0.26333 -1.565 0
M  V30 5707 H 538.71 2.78123 -2.59669 0
M  V30 5708 H 538.222 1.29683 -3.65792 0
M  V30 5709 H 536.323 3.13472 -2.01411 0
M  V30 5710 H 536.436 2.82143 -3.87211 0
M  V30 5711 H 534.8 1.57706 -2.00003 0
M  V30 5712 H 535.583 0.627102 -3.37524 0
M  V30 5713 N 538.028 1.39524 0.732853 0
M  V30 5714 C 539.276 1.36594 1.48951 0
M  V30 5715 C 539.597 -0.0367507 1.94965 0
M  V30 5716 O 538.867 -0.988391 1.69138 0
M  V30 5717 H 537.447 0.502673 0.552566 0
M  V30 5718 H 540.109 1.74411 0.869869 0
M  V30 5719 H 539.205 2.03 2.3706 0
M  V30 5720 N 539.506 -0.963266 1.24736 0
M  V30 5721 C 540.436 -2.07628 1.06832 0
M  V30 5722 C 541.417 -1.70088 -0.0200566 0
M  V30 5723 O 542.602 -1.93636 0.147854 0
M  V30 5724 C 539.732 -3.40636 0.677069 0
M  V30 5725 C 538.686 -3.9215 1.71471 0
M  V30 5726 C 538.012 -5.21553 1.1784 0
M  V30 5727 C 539.312 -4.19493 3.11164 0
M  V30 5728 H 541.006 -2.22864 1.9993 0
M  V30 5729 H 538.552 -1.07093 0.96266 0
M  V30 5730 H 540.505 -4.17941 0.538792 0
M  V30 5731 H 539.229 -3.25313 -0.289612 0
M  V30 5732 H 537.888 -3.17005 1.84128 0
M  V30 5733 H 537.536 -5.02593 0.202195 0
M  V30 5734 H 537.236 -5.56988 1.87185 0
M  V30 5735 H 538.76 -6.01463 1.05233 0
M  V30 5736 H 540.174 -4.87487 3.01711 0
M  V30 5737 H 538.571 -4.66165 3.77902 0
M  V30 5738 H 539.641 -3.26097 3.58871 0
M  V30 5739 N 540.985 -1.06182 -1.16461 0
M  V30 5740 C 541.948 -0.675723 -2.19013 0
M  V30 5741 C 542.948 0.277963 -1.58379 0
M  V30 5742 O 544.138 0.0604962 -1.74095 0
M  V30 5743 C 541.27 0.00591459 -3.40899 0
M  V30 5744 H 542.463 -1.58353 -2.54685 0
M  V30 5745 H 540.016 -0.856908 -1.30716 0
M  V30 5746 H 540.751 0.92652 -3.10783 0
M  V30 5747 H 540.536 -0.67984 -3.86161 0
M  V30 5748 H 542.026 0.26181 -4.16778 0
M  V30 5749 N 542.463 1.3308 -0.844243 0
M  V30 5750 C 543.71 1.97605 -0.44255 0
M  V30 5751 C 544.038 1.66856 0.999458 0
M  V30 5752 O 543.293 0.943586 1.7145 0
M  V30 5753 C 543.592 3.52045 -0.616354 0
M  V30 5754 C 543.258 4.02757 -2.02726 0
M  V30 5755 C 541.92 4.16316 -2.41317 0
M  V30 5756 C 544.272 4.29776 -2.9486 0
M  V30 5757 C 541.6 4.54232 -3.71335 0
M  V30 5758 C 543.952 4.69146 -4.24364 0
M  V30 5759 C 542.616 4.80911 -4.62904 0
M  V30 5760 H 541.886 0.723088 -0.161941 0
M  V30 5761 H 544.533 1.58663 -1.0723 0
M  V30 5762 H 542.838 3.91681 0.0966812 0
M  V30 5763 H 544.535 3.99981 -0.285756 0
M  V30 5764 H 541.125 3.9268 -1.71756 0
M  V30 5765 H 545.309 4.18818 -2.6628 0
M  V30 5766 H 540.565 4.61535 -4.00993 0
M  V30 5767 H 544.739 4.89008 -4.95827 0
M  V30 5768 H 542.366 5.10048 -5.63698 0
M  V30 5769 N 543.941 0.601185 1.45683 0
M  V30 5770 C 545.187 0.0940202 2.02582 0
M  V30 5771 C 545.52 -1.26972 1.46941 0
M  V30 5772 O 544.795 -1.83613 0.641612 0
M  V30 5773 C 545.078 0.0481715 3.60068 0
M  V30 5774 C 544.931 1.44212 4.26055 0
M  V30 5775 C 546.25 -0.642975 4.35378 0
M  V30 5776 H 543.369 0.0356404 0.736138 0
M  V30 5777 H 546.011 0.771929 1.73612 0
M  V30 5778 H 544.161 -0.529128 3.8488 0
M  V30 5779 H 545.833 2.06601 4.12449 0
M  V30 5780 H 544.076 2.00465 3.84703 0
M  V30 5781 H 544.747 1.36234 5.34925 0
M  V30 5782 H 547.223 -0.152351 4.15821 0
M  V30 5783 H 546.099 -0.644141 5.45107 0
M  V30 5784 H 546.36 -1.70785 4.0778 0
M  V30 5785 N 545.419 -1.53889 0.339982 0
M  V30 5786 C 546.665 -2.01152 -0.258003 0
M  V30 5787 C 546.998 -1.22749 -1.50487 0
M  V30 5788 O 546.273 -0.314156 -1.91946 0
M  V30 5789 C 546.556 -3.55468 -0.575717 0
M  V30 5790 C 546.409 -4.44584 0.682996 0
M  V30 5791 C 547.728 -4.1768 -1.38677 0
M  V30 5792 H 544.847 -0.731198 -0.0922992 0
M  V30 5793 H 547.489 -1.84352 0.459814 0
M  V30 5794 H 545.639 -3.69914 -1.18725 0
M  V30 5795 H 547.311 -4.41981 1.32102 0
M  V30 5796 H 545.554 -4.13592 1.3086 0
M  V30 5797 H 546.225 -5.5043 0.416001 0
M  V30 5798 H 548.701 -4.0691 -0.869705 0
M  V30 5799 H 547.577 -5.25734 -1.57783 0
M  V30 5800 H 547.838 -3.72069 -2.38782 0
M  V30 5801 N 546.897 -0.0685191 -1.57451 0
M  V30 5802 C 548.127 0.609577 -1.97402 0
M  V30 5803 C 548.535 1.63882 -0.945489 0
M  V30 5804 O 547.878 1.8354 0.0766052 0
M  V30 5805 C 547.94 1.3385 -3.33653 0
M  V30 5806 C 547.604 0.463103 -4.54648 0
M  V30 5807 C 548.601 -0.277964 -5.19156 0
M  V30 5808 C 546.286 0.388941 -5.00792 0
M  V30 5809 C 548.28 -1.08145 -6.28159 0
M  V30 5810 C 545.967 -0.418217 -6.09667 0
M  V30 5811 C 546.965 -1.15208 -6.73213 0
M  V30 5812 O 546.653 -1.94594 -7.79993 0
M  V30 5813 H 546.385 0.170197 -0.654224 0
M  V30 5814 H 548.939 -0.13647 -2.04946 0
M  V30 5815 H 547.169 2.13055 -3.22714 0
M  V30 5816 H 548.858 1.90851 -3.58233 0
M  V30 5817 H 549.624 -0.230241 -4.84453 0
M  V30 5818 H 545.503 0.949769 -4.5111 0
M  V30 5819 H 549.047 -1.65476 -6.7769 0
M  V30 5820 H 544.944 -0.467515 -6.43805 0
M  V30 5821 H 545.712 -1.8699 -7.96854 0
M  V30 5822 N 548.375 1.56261 0.205012 0
M  V30 5823 C 549.786 1.70056 0.770574 0
M  V30 5824 C 550.137 0.673398 1.84282 0
M  V30 5825 O 549.262 -0.172196 2.15714 0
M  V30 5826 C 549.857 3.08316 1.40451 0
M  V30 5827 C 548.416 3.2391 1.91727 0
M  V30 5828 C 547.563 2.66001 0.783516 0
M  V30 5829 H 550.514 1.58688 -0.019911 0
M  V30 5830 H 550.535 3.05094 2.27371 0
M  V30 5831 H 550.047 3.83053 0.623882 0
M  V30 5832 H 548.148 2.54072 2.7254 0
M  V30 5833 H 548.261 4.3131 2.08588 0
M  V30 5834 H 546.625 2.24915 1.19521 0
M  V30 5835 H 547.408 3.43297 0.0152883 0
M  V30 5836 N 549.853 -0.472356 1.50355 0
M  V30 5837 C 550.785 -1.58795 1.65278 0
M  V30 5838 C 551.798 -1.53782 0.534313 0
M  V30 5839 O 552.987 -1.59193 0.807446 0
M  V30 5840 C 550.087 -2.97672 1.62001 0
M  V30 5841 C 549.26 -3.27568 2.89859 0
M  V30 5842 C 548.319 -4.45993 2.79242 0
M  V30 5843 O 547.345 -4.46364 3.53197 0
M  V30 5844 N 548.547 -5.47578 1.92713 0
M  V30 5845 H 551.312 -1.46411 2.61503 0
M  V30 5846 H 548.873 -0.660751 1.47803 0
M  V30 5847 H 550.865 -3.74862 1.52513 0
M  V30 5848 H 549.435 -3.03832 0.735159 0
M  V30 5849 H 548.655 -2.39003 3.13483 0
M  V30 5850 H 549.943 -3.44352 3.74565 0
M  V30 5851 H 549.341 -5.50099 1.31939 0
M  V30 5852 H 547.898 -6.23757 1.8913 0
M  V30 5853 N 551.331 -1.39911 -0.725443 0
M  V30 5854 C 552.294 -1.39156 -1.82121 0
M  V30 5855 C 553.294 -0.287018 -1.58218 0
M  V30 5856 O 554.484 -0.545421 -1.65441 0
M  V30 5857 C 551.616 -1.1736 -3.20062 0
M  V30 5858 H 552.809 -2.36672 -1.84191 0
M  V30 5859 H 550.362 -1.25615 -0.930079 0
M  V30 5860 H 551.097 -0.205648 -3.23647 0
M  V30 5861 H 550.882 -1.97358 -3.3881 0
M  V30 5862 H 552.372 -1.19596 -4.00108 0
M  V30 5863 N 552.809 0.956637 -1.25245 0
M  V30 5864 C 553.742 2.05232 -0.99775 0
M  V30 5865 C 554.72 1.62439 0.0723137 0
M  V30 5866 O 555.904 1.88381 -0.066926 0
M  V30 5867 C 553.031 3.34871 -0.507861 0
M  V30 5868 C 552.077 3.96625 -1.56815 0
M  V30 5869 S 552.91 4.32853 -3.15276 0
M  V30 5870 C 554.066 5.65613 -2.68017 0
M  V30 5871 H 554.299 2.26521 -1.9255 0
M  V30 5872 H 551.832 1.09601 -1.08752 0
M  V30 5873 H 553.79 4.09845 -0.231858 0
M  V30 5874 H 552.451 3.11551 0.399356 0
M  V30 5875 H 551.644 4.90087 -1.17604 0
M  V30 5876 H 551.246 3.28124 -1.79473 0
M  V30 5877 H 553.538 6.43635 -2.11518 0
M  V30 5878 H 554.481 6.09693 -3.60112 0
M  V30 5879 H 554.889 5.24751 -2.0808 0
M  V30 5880 N 554.287 1.06798 1.15896 0
M  V30 5881 C 555.515 0.808694 1.90441 0
M  V30 5882 C 555.93 -0.637506 1.77711 0
M  V30 5883 O 555.287 -1.43684 1.12522 0
M  V30 5884 C 555.338 1.20068 3.40978 0
M  V30 5885 O 555.059 2.59013 3.53333 0
M  V30 5886 C 556.56 0.96987 4.3256 0
M  V30 5887 H 553.78 0.292809 0.603742 0
M  V30 5888 H 556.324 1.42296 1.46874 0
M  V30 5889 H 554.479 0.630842 3.82229 0
M  V30 5890 H 554.893 2.7485 4.46719 0
M  V30 5891 H 556.367 1.29371 5.36626 0
M  V30 5892 H 556.844 -0.0941209 4.39099 0
M  V30 5893 H 557.45 1.52433 3.97044 0
M  V30 5894 N 555.766 -1.3263 0.851289 0
M  V30 5895 C 556.699 -2.26952 0.238318 0
M  V30 5896 C 557.677 -1.50243 -0.621757 0
M  V30 5897 O 558.861 -1.79378 -0.579298 0
M  V30 5898 C 555.988 -3.32124 -0.664178 0
M  V30 5899 C 555.034 -4.26325 0.122067 0
M  V30 5900 S 555.867 -5.14404 1.48824 0
M  V30 5901 C 557.023 -6.231 0.591372 0
M  V30 5902 H 557.256 -2.78594 1.03791 0
M  V30 5903 H 554.789 -1.4011 0.648731 0
M  V30 5904 H 556.747 -3.93197 -1.17924 0
M  V30 5905 H 555.408 -2.79273 -1.43755 0
M  V30 5906 H 554.601 -5.00821 -0.565181 0
M  V30 5907 H 554.203 -3.69652 0.568602 0
M  V30 5908 H 556.495 -6.77187 -0.205762 0
M  V30 5909 H 557.438 -6.95936 1.30687 0
M  V30 5910 H 557.846 -5.64252 0.167206 0
M  V30 5911 N 557.244 -0.608902 -1.45362 0
M  V30 5912 C 558.174 0.0964526 -2.33301 0
M  V30 5913 C 559.155 0.857444 -1.46908 0
M  V30 5914 O 560.34 0.827735 -1.75676 0
M  V30 5915 C 557.47 1.09354 -3.29635 0
M  V30 5916 C 556.424 0.445676 -4.25673 0
M  V30 5917 C 555.75 1.5511 -5.11708 0
M  V30 5918 C 557.05 -0.633972 -5.18438 0
M  V30 5919 H 558.744 -0.637829 -2.92527 0
M  V30 5920 H 556.29 -0.308178 -1.40664 0
M  V30 5921 H 558.243 1.59556 -3.90025 0
M  V30 5922 H 556.967 1.85843 -2.6857 0
M  V30 5923 H 555.626 -0.0354897 -3.66583 0
M  V30 5924 H 555.274 2.30631 -4.4701 0
M  V30 5925 H 554.974 1.12311 -5.76767 0
M  V30 5926 H 556.498 2.05537 -5.74967 0
M  V30 5927 H 557.912 -0.215974 -5.72893 0
M  V30 5928 H 556.309 -0.983789 -5.91981 0
M  V30 5929 H 557.379 -1.51005 -4.60788 0
M  V30 5930 N 558.722 1.53707 -0.348139 0
M  V30 5931 C 560.133 1.86213 0.134797 0
M  V30 5932 C 560.484 1.26925 1.49614 0
M  V30 5933 O 559.609 0.584573 2.08355 0
M  V30 5934 C 560.204 3.37866 0.251371 0
M  V30 5935 C 558.763 3.70233 0.678543 0
M  V30 5936 C 557.91 2.76683 -0.184925 0
M  V30 5937 H 560.861 1.48204 -0.567571 0
M  V30 5938 H 560.882 3.64908 1.07806 0
M  V30 5939 H 560.394 3.80988 -0.739581 0
M  V30 5940 H 558.495 3.32659 1.67835 0
M  V30 5941 H 558.608 4.76836 0.465251 0
M  V30 5942 H 556.972 2.52374 0.343465 0
M  V30 5943 H 557.755 3.22635 -1.1731 0
M  V30 5944 N 560.2 0.0768682 1.57412 0
M  V30 5945 C 561.13 -0.886026 2.16037 0
M  V30 5946 C 562.111 -1.30691 1.08876 0
M  V30 5947 O 563.296 -1.37705 1.36934 0
M  V30 5948 C 560.426 -2.1518 2.72608 0
M  V30 5949 C 559.38 -1.87015 3.8498 0
M  V30 5950 C 558.706 -3.20266 4.28175 0
M  V30 5951 C 560.006 -1.17143 5.08994 0
M  V30 5952 H 561.7 -0.397642 2.96748 0
M  V30 5953 H 559.246 -0.189823 1.42743 0
M  V30 5954 H 561.199 -2.82962 3.12266 0
M  V30 5955 H 559.923 -2.66269 1.89125 0
M  V30 5956 H 558.582 -1.21636 3.45833 0
M  V30 5957 H 558.23 -3.69207 3.41607 0
M  V30 5958 H 557.93 -3.0221 5.03927 0
M  V30 5959 H 559.454 -3.89237 4.70454 0
M  V30 5960 H 560.868 -1.75003 5.45937 0
M  V30 5961 H 559.265 -1.09328 5.90057 0
M  V30 5962 H 560.335 -0.151295 4.84664 0
M  V30 5963 N 561.678 -1.56367 -0.196722 0
M  V30 5964 C 562.903 -1.84991 -0.937714 0
M  V30 5965 C 563.328 -0.660244 -1.76132 0
M  V30 5966 O 562.686 0.390967 -1.77034 0
M  V30 5967 C 562.734 -3.11828 -1.81096 0
M  V30 5968 O 561.838 -2.92266 -2.90955 0
M  V30 5969 H 561.179 -0.609193 -0.264159 0
M  V30 5970 H 563.709 -2.03595 -0.202529 0
M  V30 5971 H 563.719 -3.42579 -2.21594 0
M  V30 5972 H 562.394 -3.98037 -1.2058 0
M  V30 5973 H 560.971 -2.72809 -2.54224 0
M  V30 5974 N 563.156 0.464375 -1.50603 0
M  V30 5975 C 564.567 1.04507 -1.5471 0
M  V30 5976 C 564.918 1.9297 -0.354542 0
M  V30 5977 O 564.043 2.09763 0.531812 0
M  V30 5978 C 564.638 1.90207 -2.80369 0
M  V30 5979 C 563.197 2.43373 -2.87135 0
M  V30 5980 C 562.344 1.21886 -2.49076 0
M  V30 5981 H 565.295 0.246716 -1.56771 0
M  V30 5982 H 565.316 2.75353 -2.62604 0
M  V30 5983 H 564.828 1.25796 -3.67147 0
M  V30 5984 H 562.929 3.11318 -2.04724 0
M  V30 5985 H 563.042 2.7802 -3.90181 0
M  V30 5986 H 561.406 1.55575 -2.01664 0
M  V30 5987 H 562.189 0.591268 -3.3817 0
M  V30 5988 N 564.634 1.40294 0.718013 0
M  V30 5989 C 565.881 1.3844 1.47786 0
M  V30 5990 C 566.209 -0.0140838 1.94495 0
M  V30 5991 O 565.464 -0.998165 1.68331 0
M  V30 5992 C 565.763 2.31814 2.72024 0
M  V30 5993 C 565.429 3.79117 2.44093 0
M  V30 5994 C 564.091 4.19249 2.36185 0
M  V30 5995 C 566.443 4.72212 2.20602 0
M  V30 5996 C 563.771 5.50516 2.02851 0
M  V30 5997 C 566.123 6.03775 1.88781 0
M  V30 5998 C 564.787 6.42953 1.79354 0
M  V30 5999 H 564.057 0.506588 0.540786 0
M  V30 6000 H 566.704 1.72929 0.822663 0
M  V30 6001 H 565.009 1.90501 3.42369 0
M  V30 6002 H 566.706 2.27664 3.30106 0
M  V30 6003 H 563.296 3.47318 2.51133 0
M  V30 6004 H 567.48 4.42026 2.25669 0
M  V30 6005 H 562.736 5.79776 1.94088 0
M  V30 6006 H 566.91 6.75428 1.69617 0
M  V30 6007 H 564.537 7.44584 1.53291 0
M  V30 6008 N 566.112 -0.949982 1.2575 0
M  V30 6009 C 567.358 -1.69822 1.11947 0
M  V30 6010 C 567.713 -1.89455 -0.335334 0
M  V30 6011 O 567.006 -1.45778 -1.24336 0
M  V30 6012 C 567.2 -3.08039 1.81237 0
M  V30 6013 C 567.029 -3.0189 3.33305 0
M  V30 6014 C 565.799 -3.05391 4.02573 0
M  V30 6015 C 567.997 -2.827 4.29634 0
M  V30 6016 N 565.979 -2.89449 5.4138 0
M  V30 6017 C 567.35 -2.75237 5.55558 0
M  V30 6018 C 569.405 -2.67416 4.19992 0
M  V30 6019 C 568.108 -2.54051 6.72942 0
M  V30 6020 C 570.134 -2.47602 5.37073 0
M  V30 6021 C 569.496 -2.40863 6.6194 0
M  V30 6022 H 565.595 -0.629188 0.464378 0
M  V30 6023 H 568.179 -1.1249 1.58916 0
M  V30 6024 H 566.35 -3.63528 1.36756 0
M  V30 6025 H 568.082 -3.71671 1.60134 0
M  V30 6026 H 564.837 -3.14763 3.53866 0
M  V30 6027 H 565.261 -2.84669 6.14241 0
M  V30 6028 H 569.903 -2.71398 3.24196 0
M  V30 6029 H 567.621 -2.48811 7.68842 0
M  V30 6030 H 571.207 -2.36694 5.31477 0
M  V30 6031 H 570.087 -2.25732 7.51009 0
M  V30 6032 N 567.59 -1.07411 -1.15328 0
M  V30 6033 C 568.815 -0.818856 -1.90551 0
M  V30 6034 C 569.24 0.622194 -1.77512 0
M  V30 6035 O 568.598 1.43484 -1.10824 0
M  V30 6036 C 568.646 -1.23267 -3.38877 0
M  V30 6037 O 567.75 -0.378345 -4.10661 0
M  V30 6038 H 567.091 -0.29827 -0.593238 0
M  V30 6039 H 569.621 -1.43289 -1.46046 0
M  V30 6040 H 569.631 -1.20912 -3.89672 0
M  V30 6041 H 568.306 -2.28226 -3.47686 0
M  V30 6042 H 566.883 -0.464437 -3.69996 0
M  V30 6043 N 569.068 1.32177 -0.85831 0
M  V30 6044 C 570.315 1.97125 -0.463484 0
M  V30 6045 C 570.643 1.67907 0.981705 0
M  V30 6046 O 569.898 0.961717 1.70439 0
M  V30 6047 C 570.197 3.51372 -0.653658 0
M  V30 6048 C 569.863 4.00584 -2.06987 0
M  V30 6049 C 568.525 4.13733 -2.4572 0
M  V30 6050 C 570.877 4.26624 -2.99402 0
M  V30 6051 C 568.205 4.50268 -3.76132 0
M  V30 6052 C 570.557 4.64618 -4.29316 0
M  V30 6053 C 569.221 4.75975 -4.67979 0
M  V30 6054 H 568.491 0.72133 -0.169601 0
M  V30 6055 H 571.138 1.57517 -1.08907 0
M  V30 6056 H 569.443 3.91761 0.0551328 0
M  V30 6057 H 571.14 3.99655 -0.328163 0
M  V30 6058 H 567.73 3.90837 -1.75911 0
M  V30 6059 H 571.914 4.1597 -2.70708 0
M  V30 6060 H 567.17 4.57256 -4.05865 0
M  V30 6061 H 571.344 4.83722 -5.00985 0
M  V30 6062 H 568.971 5.04041 -5.69076 0
M  V30 6063 N 570.547 0.616602 1.45037 0
M  V30 6064 C 571.477 -0.0840787 2.33349 0
M  V30 6065 C 572.458 -0.849641 1.4736 0
M  V30 6066 O 573.643 -0.818407 1.76113 0
M  V30 6067 C 570.773 -1.07604 3.3021 0
M  V30 6068 C 569.727 -0.423096 4.25904 0
M  V30 6069 C 569.053 -1.52394 5.12523 0
M  V30 6070 C 570.353 0.661457 5.18095 0
M  V30 6071 H 572.047 0.653333 2.92185 0
M  V30 6072 H 569.593 0.315634 1.40498 0
M  V30 6073 H 571.546 -1.57485 3.90866 0
M  V30 6074 H 570.27 -1.84416 2.69552 0
M  V30 6075 H 568.929 0.05493 3.66559 0
M  V30 6076 H 568.577 -2.28257 4.48227 0
M  V30 6077 H 568.277 -1.09251 5.77354 0
M  V30 6078 H 569.801 -2.02485 5.76049 0
M  V30 6079 H 571.215 0.246353 5.7277 0
M  V30 6080 H 569.612 1.01517 5.91451 0
M  V30 6081 H 570.682 1.53446 4.59981 0
M  V30 6082 N 572.025 -1.5352 0.356285 0
M  V30 6083 C 573.272 -2.01117 -0.236303 0
M  V30 6084 C 573.6 -1.24381 -1.49531 0
M  V30 6085 O 572.855 -0.323057 -1.93015 0
M  V30 6086 C 573.154 -3.52607 -0.583369 0
M  V30 6087 C 572.82 -4.47151 0.58023 0
M  V30 6088 C 571.482 -4.72718 0.899528 0
M  V30 6089 C 573.834 -5.03137 1.36024 0
M  V30 6090 C 571.162 -5.51523 2.00098 0
M  V30 6091 C 573.514 -5.83145 2.45204 0
M  V30 6092 C 572.178 -6.07001 2.77679 0
M  V30 6093 H 571.448 -0.735938 -0.0864695 0
M  V30 6094 H 574.095 -1.85209 0.48683 0
M  V30 6095 H 572.4 -3.66413 -1.38739 0
M  V30 6096 H 574.097 -3.86901 -1.05397 0
M  V30 6097 H 570.687 -4.27394 0.321322 0
M  V30 6098 H 574.871 -4.83339 1.12682 0
M  V30 6099 H 570.127 -5.68229 2.25668 0
M  V30 6100 H 574.301 -6.25537 3.06067 0
M  V30 6101 H 571.928 -6.67851 3.63151 0
M  V30 6102 N 573.503 -0.0852151 -1.57369 0
M  V30 6103 C 574.75 0.580806 -1.93992 0
M  V30 6104 C 575.078 1.68801 -0.966252 0
M  V30 6105 O 574.333 1.95694 0.0158649 0
M  V30 6106 C 574.632 1.18482 -3.3719 0
M  V30 6107 C 574.298 0.2024 -4.50446 0
M  V30 6108 C 572.96 -0.0678318 -4.81152 0
M  V30 6109 C 575.312 -0.46895 -5.19086 0
M  V30 6110 C 572.64 -1.01627 -5.77831 0
M  V30 6111 C 574.992 -1.4058 -6.16782 0
M  V30 6112 C 573.656 -1.68436 -6.45899 0
M  V30 6113 H 572.926 0.212532 -0.709867 0
M  V30 6114 H 575.573 -0.158947 -1.90839 0
M  V30 6115 H 573.878 2.0006 -3.36873 0
M  V30 6116 H 575.575 1.70767 -3.62822 0
M  V30 6117 H 572.165 0.423208 -4.26505 0
M  V30 6118 H 576.349 -0.273307 -4.95547 0
M  V30 6119 H 571.605 -1.2392 -5.9871 0
M  V30 6120 H 575.779 -1.93188 -6.69068 0
M  V30 6121 H 573.406 -2.42088 -7.20623 0
M  V30 6122 N 574.981 1.5647 0.188427 0
M  V30 6123 C 576.228 1.81013 0.907779 0
M  V30 6124 C 576.556 0.65953 1.82977 0
M  V30 6125 O 575.811 -0.354308 1.92466 0
M  V30 6126 C 576.11 3.11596 1.7505 0
M  V30 6127 C 575.776 4.40145 0.978922 0
M  V30 6128 C 574.438 4.75066 0.765912 0
M  V30 6129 C 576.79 5.19369 0.436498 0
M  V30 6130 C 574.118 5.867 -0.00089868 0
M  V30 6131 C 576.47 6.31805 -0.317136 0
M  V30 6132 C 575.134 6.65303 -0.541103 0
M  V30 6133 H 574.404 0.662373 0.33218 0
M  V30 6134 H 577.051 1.9071 0.173732 0
M  V30 6135 H 575.356 2.97165 2.55343 0
M  V30 6136 H 577.053 3.27793 2.30983 0
M  V30 6137 H 573.643 4.12745 1.15497 0
M  V30 6138 H 577.827 4.92799 0.588449 0
M  V30 6139 H 573.083 6.11122 -0.184329 0
M  V30 6140 H 577.257 6.92406 -0.744788 0
M  V30 6141 H 574.884 7.51646 -1.13718 0
M  V30 6142 N 576.459 -0.456382 1.50847 0
M  V30 6143 C 577.392 -1.57177 1.65441 0
M  V30 6144 C 578.37 -1.54649 0.502224 0
M  V30 6145 O 579.554 -1.74057 0.723633 0
M  V30 6146 C 576.681 -2.95763 1.65052 0
M  V30 6147 C 575.727 -3.16389 2.86007 0
M  V30 6148 S 576.56 -2.94716 4.47105 0
M  V30 6149 C 577.716 -4.35617 4.49432 0
M  V30 6150 H 577.949 -1.44561 2.59787 0
M  V30 6151 H 575.482 -0.644758 1.40293 0
M  V30 6152 H 577.44 -3.75654 1.65512 0
M  V30 6153 H 576.101 -3.05756 0.719153 0
M  V30 6154 H 575.294 -4.17667 2.82081 0
M  V30 6155 H 574.896 -2.44293 2.8319 0
M  V30 6156 H 577.188 -5.28503 4.239 0
M  V30 6157 H 578.131 -4.44582 5.51137 0
M  V30 6158 H 578.539 -4.18382 3.78967 0
M  V30 6159 N 577.937 -1.40673 -0.710563 0
M  V30 6160 C 578.867 -1.44095 -1.83736 0
M  V30 6161 C 579.848 -0.301286 -1.67411 0
M  V30 6162 O 581.033 -0.510618 -1.87367 0
M  V30 6163 C 578.163 -1.30773 -3.21738 0
M  V30 6164 C 577.117 -2.42395 -3.52745 0
M  V30 6165 C 576.443 -2.14147 -4.89944 0
M  V30 6166 C 577.743 -3.84738 -3.53234 0
M  V30 6167 H 579.437 -2.38396 -1.81129 0
M  V30 6168 H 576.983 -1.14746 -0.870017 0
M  V30 6169 H 578.936 -1.31783 -4.00264 0
M  V30 6170 H 577.66 -0.329507 -3.24934 0
M  V30 6171 H 576.319 -2.40643 -2.76562 0
M  V30 6172 H 575.967 -1.14703 -4.89747 0
M  V30 6173 H 575.667 -2.88934 -5.11655 0
M  V30 6174 H 577.191 -2.16848 -5.70797 0
M  V30 6175 H 578.605 -3.88286 -4.2179 0
M  V30 6176 H 577.002 -4.59085 -3.86473 0
M  V30 6177 H 578.072 -4.13962 -2.52514 0
M  V30 6178 N 579.415 0.9433 -1.26252 0
M  V30 6179 C 580.345 2.05902 -1.10122 0
M  V30 6180 C 581.326 1.70099 -0.00700552 0
M  V30 6181 O 582.511 1.93377 -0.178641 0
M  V30 6182 C 579.641 3.39516 -0.731175 0
M  V30 6183 C 578.595 3.89372 -1.77688 0
M  V30 6184 C 577.921 5.19613 -1.26122 0
M  V30 6185 C 579.221 4.14489 -3.17799 0
M  V30 6186 H 580.915 2.19655 -2.03451 0
M  V30 6187 H 578.461 1.05548 -0.979576 0
M  V30 6188 H 580.414 4.17031 -0.605215 0
M  V30 6189 H 579.138 3.25733 0.23782 0
M  V30 6190 H 577.797 3.14036 -1.89148 0
M  V30 6191 H 577.445 5.02208 -0.282128 0
M  V30 6192 H 577.145 5.53939 -1.96023 0
M  V30 6193 H 578.669 5.99713 -1.14789 0
M  V30 6194 H 580.083 4.82625 -3.09428 0
M  V30 6195 H 578.48 4.60094 -3.85271 0
M  V30 6196 H 579.55 3.20347 -3.64014 0
M  V30 6197 N 580.893 1.08022 1.14757 0
M  V30 6198 C 582.121 0.828847 1.89572 0
M  V30 6199 C 582.536 -0.618621 1.78377 0
M  V30 6200 O 581.893 -1.42482 1.1404 0
M  V30 6201 C 581.944 1.23677 3.39685 0
M  V30 6202 O 581.665 2.62746 3.50566 0
M  V30 6203 C 583.166 1.01569 4.31507 0
M  V30 6204 H 580.386 0.299196 0.600602 0
M  V30 6205 H 582.93 1.43846 1.45357 0
M  V30 6206 H 581.085 0.671347 3.81539 0
M  V30 6207 H 581.499 2.79573 4.43778 0
M  V30 6208 H 582.973 1.35055 5.35223 0
M  V30 6209 H 583.45 -0.0475433 4.39174 0
M  V30 6210 H 584.056 1.56636 3.95405 0
M  V30 6211 N 582.371 -1.3172 0.865308 0
M  V30 6212 C 583.301 -2.31109 0.333302 0
M  V30 6213 C 584.282 -1.60148 -0.573301 0
M  V30 6214 O 585.467 -1.87882 -0.491305 0
M  V30 6215 C 582.597 -3.44104 -0.470078 0
M  V30 6216 C 581.551 -4.26623 0.343021 0
M  V30 6217 C 580.877 -5.31482 -0.585756 0
M  V30 6218 C 582.177 -4.98001 1.57456 0
M  V30 6219 H 583.871 -2.75855 1.1638 0
M  V30 6220 H 581.417 -1.3262 0.561069 0
M  V30 6221 H 583.37 -4.12682 -0.852752 0
M  V30 6222 H 582.094 -2.98112 -1.33404 0
M  V30 6223 H 580.753 -3.59707 0.707583 0
M  V30 6224 H 580.401 -4.81741 -1.44686 0
M  V30 6225 H 580.101 -5.87582 -0.0456494 0
M  V30 6226 H 581.625 -6.0292 -0.965375 0
M  V30 6227 H 583.039 -5.59201 1.26359 0
M  V30 6228 H 581.436 -5.63876 2.05339 0
M  V30 6229 H 582.506 -4.25253 2.32997 0
M  V30 6230 N 583.85 -0.624285 -1.44708 0
M  V30 6231 C 585.098 -0.125802 -2.01708 0
M  V30 6232 C 585.418 1.2543 -1.49306 0
M  V30 6233 O 584.689 1.83198 -0.693924 0
M  V30 6234 H 583.269 -0.0435161 -0.745731 0
M  V30 6235 H 585.931 -0.809446 -1.77296 0
M  V30 6236 H 585.027 -0.0882734 -3.11975 0
M  V30 6237 N 585.328 1.53329 -0.364422 0
M  V30 6238 C 586.258 2.28627 0.474543 0
M  V30 6239 C 587.239 1.31009 1.08492 0
M  V30 6240 O 588.424 1.59878 1.10239 0
M  V30 6241 C 585.554 3.07465 1.61501 0
M  V30 6242 C 584.508 4.1276 1.13194 0
M  V30 6243 C 583.834 4.79674 2.36255 0
M  V30 6244 C 585.134 5.21847 0.217507 0
M  V30 6245 H 586.828 2.99005 -0.153656 0
M  V30 6246 H 584.374 1.43803 -0.0753406 0
M  V30 6247 H 586.327 3.58889 2.20855 0
M  V30 6248 H 585.051 2.34775 2.27042 0
M  V30 6249 H 583.71 3.62281 0.56109 0
M  V30 6250 H 583.358 4.03557 3.00251 0
M  V30 6251 H 583.058 5.50827 2.04606 0
M  V30 6252 H 584.582 5.33892 2.96297 0
M  V30 6253 H 585.996 5.6878 0.718493 0
M  V30 6254 H 584.393 6.00099 -0.00806408 0
M  V30 6255 H 585.463 4.7921 -0.740653 0
M  V30 6256 N 586.806 0.0935595 1.57322 0
M  V30 6257 C 588.083 -0.612692 1.85756 0
M  V30 6258 C 588.463 -1.86439 0.99013 0
M  V30 6259 O 587.811 -2.28416 0.0621362 0
M  V30 6260 C 588.021 -0.929547 3.36393 0
M  V30 6261 C 589.369 -1.29366 4.04413 0
M  V30 6262 O 590.393 -1.02061 3.41265 0
M  V30 6263 O 589.252 -1.80498 5.15832 0
M  V30 6264 H 586.346 -0.306444 0.768128 0
M  V30 6265 H 588.892 0.126141 1.69231 0
M  V30 6266 H 587.664 -0.0414766 3.91278 0
M  V30 6267 H 587.287 -1.72441 3.5826 0
M  V30 6268 N 588.284 -1.56567 -0.180126 0
M  V30 6269 C 589.509 -1.85975 -0.918041 0
M  V30 6270 C 589.934 -0.678888 -1.75422 0
M  V30 6271 O 589.292 0.372168 -1.77439 0
M  V30 6272 C 589.34 -3.13731 -1.77779 0
M  V30 6273 O 588.444 -2.95335 -2.87838 0
M  V30 6274 H 587.785 -0.61196 -0.257683 0
M  V30 6275 H 590.315 -2.03798 -0.180923 0
M  V30 6276 H 590.325 -3.4491 -2.17948 0
M  V30 6277 H 589 -3.99293 -1.16352 0
M  V30 6278 H 587.577 -2.7549 -2.51316 0
M  V30 6279 N 589.762 0.448376 -1.51087 0
M  V30 6280 C 590.694 1.56146 -1.67783 0
M  V30 6281 C 591.707 1.52913 -0.55871 0
M  V30 6282 O 592.896 1.57889 -0.83267 0
M  V30 6283 C 589.996 2.95057 -1.66716 0
M  V30 6284 C 589.169 3.22915 -2.95033 0
M  V30 6285 C 588.228 4.41495 -2.86302 0
M  V30 6286 O 587.254 4.40688 -3.60254 0
M  V30 6287 N 588.456 5.44443 -2.014 0
M  V30 6288 H 591.221 1.42232 -2.638 0
M  V30 6289 H 588.782 0.637153 -1.48835 0
M  V30 6290 H 590.774 3.72388 -1.58458 0
M  V30 6291 H 589.344 3.02624 -0.783403 0
M  V30 6292 H 588.564 2.33985 -3.17245 0
M  V30 6293 H 589.852 3.38349 -3.79996 0
M  V30 6294 H 589.25 5.4793 -1.40674 0
M  V30 6295 H 587.807 6.2067 -1.99029 0
M  V30 6296 N 591.24 1.41047 0.703093 0
M  V30 6297 C 592.487 1.4 1.46309 0
M  V30 6298 C 592.815 0.00654574 1.94499 0
M  V30 6299 O 592.07 -0.980255 1.6938 0
M  V30 6300 C 592.369 2.34686 2.6955 0
M  V30 6301 C 592.035 3.81684 2.40058 0
M  V30 6302 C 590.697 4.21731 2.31725 0
M  V30 6303 C 593.049 4.74525 2.15581 0
M  V30 6304 C 590.377 5.52637 1.97001 0
M  V30 6305 C 592.729 6.05744 1.82366 0
M  V30 6306 C 591.393 6.44819 1.72524 0
M  V30 6307 H 590.663 0.512295 0.535382 0
M  V30 6308 H 593.31 1.73792 0.804275 0
M  V30 6309 H 591.615 1.94122 3.40329 0
M  V30 6310 H 593.312 2.31152 3.27673 0
M  V30 6311 H 589.902 3.49963 2.47435 0
M  V30 6312 H 594.086 4.44395 2.20968 0
M  V30 6313 H 589.342 5.81802 1.87928 0
M  V30 6314 H 593.516 6.77189 1.62444 0
M  V30 6315 H 591.143 7.46168 1.45385 0
M  V30 6316 N 592.718 -0.936591 1.26751 0
M  V30 6317 C 593.681 -2.01752 1.08761 0
M  V30 6318 C 594.681 -1.60763 0.0344435 0
M  V30 6319 O 595.871 -1.71963 0.278258 0
M  V30 6320 C 593.003 -3.34543 0.655271 0
M  V30 6321 H 594.196 -2.19143 2.04735 0
M  V30 6322 H 591.749 -1.11618 1.09413 0
M  V30 6323 H 592.484 -3.22851 -0.30626 0
M  V30 6324 H 592.269 -3.65647 1.41578 0
M  V30 6325 H 593.759 -4.13944 0.551378 0
M  V30 6326 N 594.196 -1.08629 -1.14182 0
M  V30 6327 C 595.443 -0.817345 -1.85272 0
M  V30 6328 C 595.771 0.656917 -1.83071 0
M  V30 6329 O 595.026 1.49897 -1.25815 0
M  V30 6330 C 595.325 -1.28734 -3.3341 0
M  V30 6331 C 594.991 -2.76981 -3.55798 0
M  V30 6332 C 593.653 -3.17469 -3.61617 0
M  V30 6333 C 596.005 -3.72605 -3.64438 0
M  V30 6334 C 593.333 -4.52371 -3.736 0
M  V30 6335 C 595.685 -5.07286 -3.77947 0
M  V30 6336 C 594.349 -5.47376 -3.82016 0
M  V30 6337 H 593.619 -0.299088 -0.677958 0
M  V30 6338 H 596.266 -1.35962 -1.34857 0
M  V30 6339 H 594.571 -0.664702 -3.8612 0
M  V30 6340 H 596.268 -1.05598 -3.86846 0
M  V30 6341 H 592.858 -2.44644 -3.51919 0
M  V30 6342 H 597.042 -3.42443 -3.5923 0
M  V30 6343 H 592.298 -4.82882 -3.75013 0
M  V30 6344 H 596.472 -5.81243 -3.83575 0
M  V30 6345 H 594.099 -6.51906 -3.91054 0
M  V30 6346 N 595.674 1.31259 -0.872281 0
M  V30 6347 C 596.604 2.30929 -0.345554 0
M  V30 6348 C 597.585 1.60449 0.5648 0
M  V30 6349 O 598.77 1.8814 0.481335 0
M  V30 6350 C 595.9 3.44348 0.451823 0
M  V30 6351 C 594.854 4.26435 -0.365641 0
M  V30 6352 C 594.18 5.31785 0.557562 0
M  V30 6353 C 595.48 4.97159 -1.60095 0
M  V30 6354 H 597.174 2.75234 -1.17841 0
M  V30 6355 H 594.72 1.3232 -0.568094 0
M  V30 6356 H 596.673 4.13128 0.830854 0
M  V30 6357 H 595.397 2.98816 1.31821 0
M  V30 6358 H 594.056 3.59326 -0.726649 0
M  V30 6359 H 593.704 4.82502 1.4213 0
M  V30 6360 H 593.404 5.87598 0.0144878 0
M  V30 6361 H 594.928 6.03424 0.933387 0
M  V30 6362 H 596.342 5.58523 -1.29323 0
M  V30 6363 H 594.739 5.62779 -2.08327 0
M  V30 6364 H 595.809 4.24012 -2.35249 0
M  V30 6365 N 597.152 0.631951 1.44375 0
M  V30 6366 C 598.062 -0.073674 2.34484 0
M  V30 6367 C 599.078 -0.834825 1.52665 0
M  V30 6368 O 600.254 -0.786902 1.85391 0
M  V30 6369 C 597.319 -1.04247 3.30656 0
M  V30 6370 C 596.38 -0.280602 4.28382 0
M  V30 6371 C 595.613 -1.20325 5.19959 0
M  V30 6372 O 595.836 -2.44199 5.15484 0
M  V30 6373 O 594.77 -0.687128 5.97965 0
M  V30 6374 H 598.596 0.667477 2.96274 0
M  V30 6375 H 596.181 0.392144 1.44162 0
M  V30 6376 H 598.063 -1.59981 3.89851 0
M  V30 6377 H 596.738 -1.76422 2.71398 0
M  V30 6378 H 595.645 0.319804 3.72731 0
M  V30 6379 H 596.978 0.401144 4.90563 0
M  V30 6380 N 598.631 -1.53133 0.372548 0
M  V30 6381 C 599.859 -2.05774 -0.215515 0
M  V30 6382 C 600.274 -1.24555 -1.41886 0
M  V30 6383 O 599.631 -0.287951 -1.80214 0
M  V30 6384 C 599.682 -3.5645 -0.602161 0
M  V30 6385 O 599.403 -4.34591 0.553359 0
M  V30 6386 C 600.904 -4.25374 -1.24787 0
M  V30 6387 H 598.124 -0.670009 -0.0364529 0
M  V30 6388 H 600.668 -1.97434 0.532934 0
M  V30 6389 H 598.823 -3.64918 -1.30052 0
M  V30 6390 H 599.237 -5.23954 0.239336 0
M  V30 6391 H 600.711 -5.32097 -1.46891 0
M  V30 6392 H 601.188 -3.79531 -2.21026 0
M  V30 6393 H 601.794 -4.21177 -0.590752 0
M  V30 6394 N 600.109 -0.101901 -1.5727 0
M  V30 6395 C 601.358 0.559922 -1.93772 0
M  V30 6396 C 601.671 1.68913 -0.98629 0
M  V30 6397 O 602.877 2.41256 -1.24529 0
M  V30 6398 C 601.333 1.04739 -3.44322 0
M  V30 6399 C 600.941 -0.05243 -4.47969 0
M  V30 6400 C 602.685 1.68157 -3.89774 0
M  V30 6401 C 600.592 0.450781 -5.8968 0
M  V30 6402 H 599.522 0.212931 -0.723309 0
M  V30 6403 H 602.173 -0.179001 -1.82625 0
M  V30 6404 H 600.555 1.84021 -3.50645 0
M  V30 6405 H 601.729 -0.828157 -4.53297 0
M  V30 6406 H 600.044 -0.592202 -4.12167 0
M  V30 6407 H 602.641 2.0689 -4.93052 0
M  V30 6408 H 602.984 2.55338 -3.28798 0
M  V30 6409 H 603.517 0.954453 -3.8618 0
M  V30 6410 H 600.256 -0.38458 -6.54371 0
M  V30 6411 H 599.776 1.19336 -5.87809 0
M  V30 6412 H 601.455 0.917555 -6.40461 0
M  V30 6413 N 601.587 1.56661 0.17182 0
M  V30 6414 C 602.833 1.82235 0.889845 0
M  V30 6415 C 603.166 0.679673 1.81918 0
M  V30 6416 O 602.441 -0.318404 1.91876 0
M  V30 6417 C 602.724 3.18195 1.68595 0
M  V30 6418 C 602.577 4.42989 0.779773 0
M  V30 6419 C 603.896 3.5109 2.65375 0
M  V30 6420 H 601.015 0.66291 0.322056 0
M  V30 6421 H 603.657 1.89358 0.15608 0
M  V30 6422 H 601.807 3.12253 2.3115 0
M  V30 6423 H 603.479 4.60997 0.16714 0
M  V30 6424 H 601.722 4.33711 0.0877964 0
M  V30 6425 H 602.393 5.3467 1.3723 0
M  V30 6426 H 604.869 3.57482 2.12946 0
M  V30 6427 H 603.745 4.47298 3.18144 0
M  V30 6428 H 604.006 2.75768 3.45549 0
M  V30 6429 N 603.065 -0.440357 1.51323 0
M  V30 6430 C 604.293 -1.21255 1.67645 0
M  V30 6431 C 604.708 -1.85088 0.37252 0
M  V30 6432 O 604.065 -1.70582 -0.648683 0
M  V30 6433 C 604.116 -2.29881 2.78993 0
M  V30 6434 O 603.837 -1.68659 4.04334 0
M  V30 6435 C 605.338 -3.20214 3.06558 0
M  V30 6436 H 602.558 -0.36558 0.562666 0
M  V30 6437 H 605.102 -0.52214 1.97722 0
M  V30 6438 H 603.257 -2.94643 2.51524 0
M  V30 6439 H 603.671 -2.40426 4.6615 0
M  V30 6440 H 605.145 -3.92575 3.88058 0
M  V30 6441 H 605.622 -3.80794 2.18844 0
M  V30 6442 H 606.228 -2.61156 3.35675 0
M  V30 6443 N 604.543 -1.41418 -0.695603 0
M  V30 6444 C 605.506 -1.42988 -1.79129 0
M  V30 6445 C 606.506 -0.320514 -1.57573 0
M  V30 6446 O 607.696 -0.58039 -1.64247 0
M  V30 6447 C 604.828 -1.24122 -3.175 0
M  V30 6448 H 606.021 -2.40526 -1.7913 0
M  V30 6449 H 603.574 -1.2756 -0.903225 0
M  V30 6450 H 604.309 -0.274253 -3.23138 0
M  V30 6451 H 604.094 -2.045 -3.34547 0
M  V30 6452 H 605.584 -1.28056 -3.97481 0
M  V30 6453 N 606.021 0.929856 -1.27246 0
M  V30 6454 C 607.267 1.6798 -1.13625 0
M  V30 6455 C 607.6 1.91586 0.317589 0
M  V30 6456 O 606.875 1.50467 1.23247 0
M  V30 6457 C 607.158 3.04766 -1.91806 0
M  V30 6458 C 607.011 2.88415 -3.45162 0
M  V30 6459 C 608.33 4.05063 -1.72082 0
M  V30 6460 H 605.449 0.609632 -0.414147 0
M  V30 6461 H 608.091 1.0792 -1.56376 0
M  V30 6462 H 606.241 3.56034 -1.55474 0
M  V30 6463 H 607.913 2.44282 -3.91311 0
M  V30 6464 H 606.156 2.23802 -3.71611 0
M  V30 6465 H 606.827 3.85482 -3.95105 0
M  V30 6466 H 609.303 3.62798 -2.03757 0
M  V30 6467 H 608.179 4.98765 -2.29182 0
M  V30 6468 H 608.44 4.37021 -0.668206 0
M  V30 6469 N 607.499 1.09233 1.13605 0
M  V30 6470 C 608.727 0.848908 1.88683 0
M  V30 6471 C 609.142 -0.599667 1.79024 0
M  V30 6472 O 608.499 -1.41265 1.15544 0
M  V30 6473 C 608.55 1.27273 3.38355 0
M  V30 6474 O 608.271 2.66449 3.47759 0
M  V30 6475 C 609.772 1.0614 4.30406 0
M  V30 6476 H 606.992 0.305549 0.597395 0
M  V30 6477 H 609.536 1.4538 1.43823 0
M  V30 6478 H 607.691 0.711776 3.80805 0
M  V30 6479 H 608.105 2.84264 4.40788 0
M  V30 6480 H 609.579 1.40725 5.33761 0
M  V30 6481 H 610.056 -0.000960332 4.392 0
M  V30 6482 H 610.662 1.60821 3.93722 0
M  V30 6483 N 608.977 -1.30795 0.87923 0
M  V30 6484 C 610.254 -1.91145 0.415086 0
M  V30 6485 C 610.634 -1.7995 -1.10368 0
M  V30 6486 O 609.982 -1.21305 -1.93642 0
M  V30 6487 C 610.192 -3.37014 0.906778 0
M  V30 6488 C 611.54 -4.14101 0.938358 0
M  V30 6489 O 612.564 -3.45834 0.853053 0
M  V30 6490 O 611.423 -5.36054 1.06342 0
M  V30 6491 H 608.517 -0.81736 0.125905 0
M  V30 6492 H 611.063 -1.39401 0.967753 0
M  V30 6493 H 609.835 -3.3922 1.95053 0
M  V30 6494 H 609.458 -3.96204 0.332948 0
M  V30 6495 N 610.455 -0.639598 -1.44038 0
M  V30 6496 C 611.365 0.0612377 -2.3452 0
M  V30 6497 C 612.381 0.826717 -1.53106 0
M  V30 6498 O 613.557 0.777059 -1.85806 0
M  V30 6499 C 610.622 1.02492 -3.31204 0
M  V30 6500 C 609.683 0.25788 -4.28525 0
M  V30 6501 C 608.916 1.17566 -5.2059 0
M  V30 6502 O 609.139 2.41461 -5.16771 0
M  V30 6503 O 608.073 0.655407 -5.98321 0
M  V30 6504 H 611.899 -0.68318 -2.95916 0
M  V30 6505 H 609.484 -0.399784 -1.43952 0
M  V30 6506 H 611.366 1.57911 -3.90694 0
M  V30 6507 H 610.041 1.7498 -2.7233 0
M  V30 6508 H 608.948 -0.339566 -3.72556 0
M  V30 6509 H 610.281 -0.427154 -4.90343 0
M  V30 6510 N 611.933 1.52934 -0.380664 0
M  V30 6511 C 613.18 2.01467 0.204278 0
M  V30 6512 C 613.508 1.26744 1.47533 0
M  V30 6513 O 612.763 0.353723 1.92477 0
M  V30 6514 C 613.062 3.5349 0.527199 0
M  V30 6515 C 612.728 4.46171 -0.651295 0
M  V30 6516 C 611.39 4.71227 -0.974619 0
M  V30 6517 C 613.742 5.00909 -1.44012 0
M  V30 6518 C 611.07 5.4827 -2.08847 0
M  V30 6519 C 613.422 5.7917 -2.5445 0
M  V30 6520 C 612.086 6.02507 -2.87301 0
M  V30 6521 H 611.356 0.73722 0.0747504 0
M  V30 6522 H 614.003 1.84411 -0.516234 0
M  V30 6523 H 612.308 3.68574 1.32892 0
M  V30 6524 H 614.005 3.88529 0.992283 0
M  V30 6525 H 610.595 4.26829 -0.389276 0
M  V30 6526 H 614.779 4.81485 -1.20357 0
M  V30 6527 H 610.035 5.64567 -2.34679 0
M  V30 6528 H 614.209 6.20588 -3.1598 0
M  V30 6529 H 611.836 6.61989 -3.7373 0
M  V30 6530 N 613.412 0.11024 1.57214 0
M  V30 6531 C 614.823 -0.416527 1.81994 0
M  V30 6532 C 615.174 -1.67183 1.02686 0
M  V30 6533 O 614.299 -2.14823 0.260782 0
M  V30 6534 C 614.894 -0.762466 3.30109 0
M  V30 6535 C 613.453 -1.23391 3.556 0
M  V30 6536 C 612.6 -0.238166 2.76275 0
M  V30 6537 H 615.551 0.335491 1.55113 0
M  V30 6538 H 615.572 -1.62068 3.44259 0
M  V30 6539 H 615.084 0.151346 3.87805 0
M  V30 6540 H 613.185 -2.16492 3.03253 0
M  V30 6541 H 613.298 -1.18528 4.64207 0
M  V30 6542 H 611.662 -0.723421 2.4421 0
M  V30 6543 H 612.445 0.668591 3.36727 0
M  V30 6544 N 614.89 -1.56749 -0.16351 0
M  V30 6545 C 616.12 -1.86307 -0.892936 0
M  V30 6546 C 616.528 -0.6945 -1.75992 0
M  V30 6547 O 615.871 0.345384 -1.80424 0
M  V30 6548 C 615.933 -3.10372 -1.81409 0
M  V30 6549 C 615.597 -4.42913 -1.12593 0
M  V30 6550 C 616.594 -5.17608 -0.487661 0
M  V30 6551 C 614.279 -4.89646 -1.12035 0
M  V30 6552 C 616.273 -6.3723 0.14699 0
M  V30 6553 C 613.96 -6.09197 -0.481883 0
M  V30 6554 C 614.958 -6.82834 0.150678 0
M  V30 6555 O 614.646 -8.00116 0.779065 0
M  V30 6556 H 614.378 -0.622126 -0.264452 0
M  V30 6557 H 616.932 -2.04728 -0.166063 0
M  V30 6558 H 615.162 -2.87917 -2.58148 0
M  V30 6559 H 616.851 -3.26312 -2.41403 0
M  V30 6560 H 617.617 -4.8258 -0.483888 0
M  V30 6561 H 613.496 -4.32265 -1.60212 0
M  V30 6562 H 617.04 -6.94646 0.641325 0
M  V30 6563 H 612.937 -6.43688 -0.483266 0
M  V30 6564 H 613.705 -8.15678 0.679089 0
M  V30 6565 N 616.368 0.432326 -1.51554 0
M  V30 6566 C 617.598 1.2019 -1.68042 0
M  V30 6567 C 618.006 1.85356 -0.379434 0
M  V30 6568 O 617.349 1.71724 0.652427 0
M  V30 6569 C 617.411 2.32387 -2.74292 0
M  V30 6570 C 617.075 1.87548 -4.16743 0
M  V30 6571 C 618.072 1.37611 -5.01357 0
M  V30 6572 C 615.757 1.95087 -4.62868 0
M  V30 6573 C 617.751 0.958069 -6.30159 0
M  V30 6574 C 615.438 1.52894 -5.91664 0
M  V30 6575 C 616.436 1.03336 -6.75137 0
M  V30 6576 O 616.124 0.617435 -8.01525 0
M  V30 6577 H 615.856 0.368132 -0.56697 0
M  V30 6578 H 618.41 0.517875 -1.98764 0
M  V30 6579 H 616.64 3.04082 -2.38895 0
M  V30 6580 H 618.329 2.94235 -2.79608 0
M  V30 6581 H 619.095 1.31178 -4.66923 0
M  V30 6582 H 614.974 2.32606 -3.98015 0
M  V30 6583 H 618.518 0.570562 -6.95263 0
M  V30 6584 H 614.415 1.58999 -6.25611 0
M  V30 6585 H 615.183 0.742835 -8.15122 0
M  V30 6586 N 617.846 1.41785 0.688094 0
M  V30 6587 C 618.776 1.47 1.8142 0
M  V30 6588 C 619.757 0.327881 1.6691 0
M  V30 6589 O 620.942 0.540362 1.86531 0
M  V30 6590 C 618.072 1.35876 3.19617 0
M  V30 6591 C 617.026 2.47976 3.48844 0
M  V30 6592 C 616.352 2.21915 4.86475 0
M  V30 6593 C 617.652 3.90309 3.47068 0
M  V30 6594 H 619.346 2.41247 1.77314 0
M  V30 6595 H 616.892 1.16116 0.851651 0
M  V30 6596 H 618.845 1.38134 3.98117 0
M  V30 6597 H 617.569 0.38116 3.24368 0
M  V30 6598 H 616.228 2.45013 2.72698 0
M  V30 6599 H 615.876 1.2248 4.8786 0
M  V30 6600 H 615.576 2.97037 5.06994 0
M  V30 6601 H 617.1 2.25901 5.67275 0
M  V30 6602 H 618.514 3.94947 4.1556 0
M  V30 6603 H 616.911 4.65175 3.7912 0
M  V30 6604 H 617.981 4.17927 2.45896 0
M  V30 6605 N 619.324 -0.923095 1.27737 0
M  V30 6606 C 620.74 -1.19985 1.05241 0
M  V30 6607 C 620.94 -2.00391 -0.21113 0
M  V30 6608 O 619.996 -2.35324 -0.915366 0
M  V30 6609 C 621.309 -1.94352 2.29451 0
M  V30 6610 C 622.857 -2.07273 2.34536 0
M  V30 6611 C 623.332 -2.85046 3.58487 0
M  V30 6612 N 624.823 -2.92612 3.59072 0
M  V30 6613 C 625.558 -3.53266 4.51654 0
M  V30 6614 N 625.054 -4.15274 5.54545 0
M  V30 6615 N 626.847 -3.50714 4.39268 0
M  V30 6616 H 618.998 -0.386042 2.08862 0
M  V30 6617 H 621.261 -0.233407 0.918817 0
M  V30 6618 H 620.967 -1.42692 3.21453 0
M  V30 6619 H 620.841 -2.94947 2.3513 0
M  V30 6620 H 623.228 -2.58117 1.43037 0
M  V30 6621 H 623.309 -1.05884 2.32857 0
M  V30 6622 H 622.953 -2.34884 4.50324 0
M  V30 6623 H 622.883 -3.8673 3.57418 0
M  V30 6624 H 625.374 -2.48547 2.84663 0
M  V30 6625 H 625.687 -4.59507 6.21348 0
M  V30 6626 H 624.032 -4.13806 5.58382 0
M  V30 6627 H 627.223 -3.01475 3.58093 0
M  V30 6628 H 627.396 -3.97693 5.1161 0
M  V30 6629 N 620.802 -1.09834 -1.13024 0
M  V30 6630 C 622.213 -0.855651 -1.65938 0
M  V30 6631 C 622.564 0.615159 -1.86307 0
M  V30 6632 O 621.689 1.47335 -1.58497 0
M  V30 6633 C 622.284 -1.5467 -3.01434 0
M  V30 6634 C 620.843 -1.35088 -3.51323 0
M  V30 6635 C 619.99 -1.6001 -2.26478 0
M  V30 6636 H 622.941 -1.25691 -0.968889 0
M  V30 6637 H 622.962 -0.982179 -3.67605 0
M  V30 6638 H 622.474 -2.61715 -2.86578 0
M  V30 6639 H 620.575 -0.30179 -3.71376 0
M  V30 6640 H 620.688 -2.0886 -4.31178 0
M  V30 6641 H 619.052 -1.02246 -2.33276 0
M  V30 6642 H 619.835 -2.68293 -2.14182 0
M  V30 6643 N 622.28 1.30327 -0.886154 0
M  V30 6644 C 623.227 2.28099 -0.352069 0
M  V30 6645 C 624.197 1.56433 0.558397 0
M  V30 6646 O 625.382 1.84492 0.486561 0
M  V30 6647 C 622.522 3.42456 0.426346 0
M  V30 6648 C 621.635 4.28938 -0.513472 0
M  V30 6649 C 620.77 5.30458 0.280657 0
M  V30 6650 C 619.809 6.0859 -0.654556 0
M  V30 6651 N 618.946 7.02022 0.104322 0
M  V30 6652 H 623.786 2.73166 -1.19097 0
M  V30 6653 H 621.323 1.34367 -0.598662 0
M  V30 6654 H 623.281 4.07518 0.893587 0
M  V30 6655 H 621.911 2.98455 1.22981 0
M  V30 6656 H 620.963 3.64173 -1.09921 0
M  V30 6657 H 622.275 4.83399 -1.2299 0
M  V30 6658 H 621.429 6.01273 0.8097 0
M  V30 6659 H 620.168 4.76693 1.03029 0
M  V30 6660 H 619.173 5.36651 -1.19522 0
M  V30 6661 H 620.398 6.64443 -1.4033 0
M  V30 6662 H 618.344 6.50645 0.836472 0
M  V30 6663 H 618.261 7.53979 -0.552453 0
M  V30 6664 H 619.529 7.77077 0.614069 0
M  V30 6665 N 623.758 0.647228 1.43697 0
M  V30 6666 C 624.705 -0.0480092 2.3075 0
M  V30 6667 C 625.675 -0.820705 1.44408 0
M  V30 6668 O 626.86 -0.798515 1.73287 0
M  V30 6669 C 624 -1.01259 3.2991 0
M  V30 6670 C 623.113 -0.236629 4.31351 0
M  V30 6671 C 622.248 -1.19447 5.17596 0
M  V30 6672 C 621.287 -0.408595 6.10735 0
M  V30 6673 N 620.424 -1.31772 6.89623 0
M  V30 6674 H 625.264 0.700238 2.89656 0
M  V30 6675 H 622.801 0.357082 1.427 0
M  V30 6676 H 624.759 -1.58538 3.85903 0
M  V30 6677 H 623.389 -1.72778 2.72667 0
M  V30 6678 H 622.441 0.452353 3.77701 0
M  V30 6679 H 623.753 0.374731 4.9739 0
M  V30 6680 H 622.907 -1.83809 5.78186 0
M  V30 6681 H 621.646 -1.83975 4.51669 0
M  V30 6682 H 620.651 0.24841 5.49239 0
M  V30 6683 H 621.876 0.232188 6.78703 0
M  V30 6684 H 619.822 -1.94991 6.2635 0
M  V30 6685 H 619.739 -0.760779 7.52162 0
M  V30 6686 H 621.007 -1.94967 7.54724 0
M  V30 6687 N 625.236 -1.5273 0.388769 0
M  V30 6688 C 626.199 -2.25043 -0.434544 0
M  V30 6689 C 627.199 -1.26661 -0.990644 0
M  V30 6690 O 628.389 -1.50762 -0.872731 0
M  V30 6691 C 625.521 -3.00507 -1.60961 0
M  V30 6692 H 626.714 -2.99242 0.198549 0
M  V30 6693 H 624.267 -1.55664 0.140875 0
M  V30 6694 H 625.002 -2.30607 -2.28015 0
M  V30 6695 H 624.787 -3.72716 -1.21757 0
M  V30 6696 H 626.277 -3.55413 -2.19251 0
M  V30 6697 N 626.714 -0.118576 -1.57153 0
M  V30 6698 C 627.96 0.540326 -1.95469 0
M  V30 6699 C 628.293 1.66356 -1.00196 0
M  V30 6700 O 627.568 1.94461 -0.039104 0
M  V30 6701 C 627.851 1.07342 -3.43729 0
M  V30 6702 C 627.704 -0.0463732 -4.49776 0
M  V30 6703 C 629.023 1.96442 -3.93826 0
M  V30 6704 H 626.142 0.19494 -0.710751 0
M  V30 6705 H 628.784 -0.19405 -1.89006 0
M  V30 6706 H 626.934 1.69925 -3.49368 0
M  V30 6707 H 628.606 -0.681648 -4.56236 0
M  V30 6708 H 626.849 -0.709574 -4.27957 0
M  V30 6709 H 627.52 0.367856 -5.50773 0
M  V30 6710 H 629.996 1.43731 -3.90488 0
M  V30 6711 H 628.872 2.3066 -4.98084 0
M  V30 6712 H 629.133 2.89077 -3.34495 0
M  V30 6713 N 628.193 1.56834 0.155195 0
M  V30 6714 C 629.44 1.82898 0.869179 0
M  V30 6715 C 629.768 0.698194 1.81537 0
M  V30 6716 O 629.023 -0.313404 1.93174 0
M  V30 6717 C 629.322 3.15239 1.68402 0
M  V30 6718 C 628.988 4.42123 0.885341 0
M  V30 6719 C 627.65 4.76583 0.664971 0
M  V30 6720 C 630.002 5.20178 0.326234 0
M  V30 6721 C 627.33 5.86566 -0.125346 0
M  V30 6722 C 629.682 6.3099 -0.45108 0
M  V30 6723 C 628.346 6.64006 -0.682102 0
M  V30 6724 H 627.616 0.66927 0.318055 0
M  V30 6725 H 630.263 1.91036 0.133241 0
M  V30 6726 H 628.568 3.02515 2.48982 0
M  V30 6727 H 630.265 3.32618 2.23978 0
M  V30 6728 H 626.855 4.15102 1.06716 0
M  V30 6729 H 631.039 4.93936 0.483787 0
M  V30 6730 H 626.295 6.10594 -0.313915 0
M  V30 6731 H 630.469 6.9067 -0.89149 0
M  V30 6732 H 628.096 7.49065 -1.29636 0
M  V30 6733 N 629.671 -0.424282 1.51781 0
M  V30 6734 C 630.896 -1.19928 1.6921 0
M  V30 6735 C 631.321 -1.8392 0.394355 0
M  V30 6736 O 630.679 -1.69371 -0.646778 0
M  V30 6737 C 630.727 -2.24937 2.81843 0
M  V30 6738 O 629.831 -3.3073 2.46356 0
M  V30 6739 H 629.172 -0.35078 0.563781 0
M  V30 6740 H 631.702 -0.499401 1.98412 0
M  V30 6741 H 631.712 -2.69512 3.06312 0
M  V30 6742 H 630.387 -1.77742 3.76006 0
M  V30 6743 H 628.964 -2.9154 2.32505 0
M  V30 6744 N 631.149 -1.42148 -0.680565 0
M  V30 6745 C 632.397 -1.42029 -1.43779 0
M  V30 6746 C 632.718 -0.0356347 -1.94967 0
M  V30 6747 O 631.988 0.924936 -1.7269 0
M  V30 6748 H 630.568 -0.522835 -0.533529 0
M  V30 6749 H 633.23 -1.7752 -0.804538 0
M  V30 6750 H 632.326 -2.11658 -2.29363 0
M  V30 6751 N 632.627 0.916307 -1.28225 0
M  V30 6752 C 633.557 2.0352 -1.14464 0
M  V30 6753 C 634.538 1.70045 -0.0430844 0
M  V30 6754 O 635.723 1.92954 -0.219619 0
M  V30 6755 C 632.853 3.37889 -0.803027 0
M  V30 6756 C 631.807 3.85516 -1.85908 0
M  V30 6757 C 631.133 5.1682 -1.37116 0
M  V30 6758 C 632.433 4.07655 -3.26519 0
M  V30 6759 H 634.127 2.1529 -2.08064 0
M  V30 6760 H 631.673 1.03446 -1.00174 0
M  V30 6761 H 633.626 4.15654 -0.693537 0
M  V30 6762 H 632.35 3.26164 0.168674 0
M  V30 6763 H 631.009 3.09953 -1.95767 0
M  V30 6764 H 630.657 5.01497 -0.38859 0
M  V30 6765 H 630.357 5.49657 -2.07728 0
M  V30 6766 H 631.881 5.97143 -1.27484 0
M  V30 6767 H 633.295 4.75953 -3.19596 0
M  V30 6768 H 631.692 4.51818 -3.94943 0
M  V30 6769 H 632.762 3.12553 -3.70727 0
M  V30 6770 N 634.105 1.10431 1.1244 0
M  V30 6771 C 635.354 0.841539 1.83306 0
M  V30 6772 C 635.667 -0.634961 1.85007 0
M  V30 6773 O 636.873 -1.01363 2.51869 0
M  V30 6774 C 635.329 1.45565 3.29149 0
M  V30 6775 C 634.937 2.96544 3.35806 0
M  V30 6776 C 636.681 1.27227 4.04986 0
M  V30 6777 C 634.588 3.5099 4.75983 0
M  V30 6778 H 633.518 0.311156 0.686803 0
M  V30 6779 H 636.169 1.32829 1.26604 0
M  V30 6780 H 634.551 0.896574 3.85717 0
M  V30 6781 H 635.725 3.58766 2.89177 0
M  V30 6782 H 634.04 3.14036 2.73442 0
M  V30 6783 H 636.637 1.65348 5.08492 0
M  V30 6784 H 636.98 0.213834 4.1575 0
M  V30 6785 H 637.513 1.79941 3.54776 0
M  V30 6786 H 634.252 4.56499 4.70413 0
M  V30 6787 H 633.772 2.93535 5.23065 0
M  V30 6788 H 635.451 3.48808 5.44924 0
M  V30 6789 N 635.583 -1.29855 0.893053 0
M  V30 6790 C 636.823 -1.97612 0.522399 0
M  V30 6791 C 637.187 -1.68903 -0.913 0
M  V30 6792 O 638.388 -2.30059 -1.39019 0
M  V30 6793 C 636.659 -3.48356 0.79893 0
M  V30 6794 S 638.218 -4.35568 0.531588 0
M  V30 6795 H 635.036 -0.684005 0.194058 0
M  V30 6796 H 637.638 -1.57803 1.15406 0
M  V30 6797 H 636.342 -3.66743 1.84196 0
M  V30 6798 H 635.873 -3.93094 0.155133 0
M  V30 6799 H 637.888 -4.92232 -0.626295 0
M  V30 6800 N 637.061 -0.65484 -1.43351 0
M  V30 6801 C 638.307 -0.169142 -2.02093 0
M  V30 6802 C 638.64 1.21431 -1.51553 0
M  V30 6803 O 637.915 1.81105 -0.709317 0
M  V30 6804 C 638.198 -0.181775 -3.59641 0
M  V30 6805 C 638.051 -1.59926 -4.20409 0
M  V30 6806 C 639.37 0.480945 -4.37464 0
M  V30 6807 H 636.489 -0.0629371 -0.734308 0
M  V30 6808 H 639.131 -0.835833 -1.70628 0
M  V30 6809 H 637.281 0.385918 -3.86578 0
M  V30 6810 H 638.953 -2.21766 -4.04497 0
M  V30 6811 H 637.196 -2.14605 -3.76998 0
M  V30 6812 H 637.867 -1.55994 -5.295 0
M  V30 6813 H 640.343 -0.00208273 -4.161 0
M  V30 6814 H 639.219 0.441384 -5.47122 0
M  V30 6815 H 639.48 1.55533 -4.13838 0
M  V30 6816 N 638.539 1.52521 -0.396863 0
M  V30 6817 C 639.502 2.2527 0.422604 0
M  V30 6818 C 640.502 1.27184 0.983913 0
M  V30 6819 O 641.692 1.51222 0.864723 0
M  V30 6820 C 638.824 3.01356 1.59365 0
M  V30 6821 H 640.017 2.99133 -0.214416 0
M  V30 6822 H 637.57 1.55587 -0.149128 0
M  V30 6823 H 638.305 2.31813 2.26789 0
M  V30 6824 H 638.09 3.73357 1.19779 0
M  V30 6825 H 639.58 3.56571 2.17363 0
M  V30 6826 N 640.017 0.126909 1.57088 0
M  V30 6827 C 640.95 -0.857844 2.11462 0
M  V30 6828 C 641.928 -1.25569 1.03301 0
M  V30 6829 O 643.112 -1.35535 1.31006 0
M  V30 6830 C 640.239 -2.14912 2.61784 0
M  V30 6831 C 639.285 -1.89874 3.81903 0
M  V30 6832 S 640.118 -1.10785 5.23915 0
M  V30 6833 C 641.274 -2.41075 5.7761 0
M  V30 6834 H 641.507 -0.395384 2.94659 0
M  V30 6835 H 639.04 -0.0870151 1.54155 0
M  V30 6836 H 640.998 -2.89101 2.91429 0
M  V30 6837 H 639.659 -2.58275 1.78754 0
M  V30 6838 H 638.852 -2.85572 4.15289 0
M  V30 6839 H 638.454 -1.23802 3.52915 0
M  V30 6840 H 640.746 -3.36864 5.87817 0
M  V30 6841 H 641.689 -2.12223 6.75549 0
M  V30 6842 H 642.097 -2.50804 5.05725 0
M  V30 6843 N 641.495 -1.56914 -0.146875 0
M  V30 6844 C 642.725 -1.87243 -0.873126 0
M  V30 6845 C 643.133 -0.713127 -1.75246 0
M  V30 6846 O 642.476 0.326228 -1.8078 0
M  V30 6847 C 642.538 -3.12279 -1.78107 0
M  V30 6848 C 642.202 -4.44082 -1.07889 0
M  V30 6849 C 643.199 -5.18096 -0.432734 0
M  V30 6850 C 640.884 -4.90807 -1.06836 0
M  V30 6851 C 642.878 -6.37039 0.214569 0
M  V30 6852 C 640.565 -6.09674 -0.417243 0
M  V30 6853 C 641.563 -6.82636 0.223093 0
M  V30 6854 O 641.251 -7.99245 0.863884 0
M  V30 6855 H 640.983 -0.624896 -0.257839 0
M  V30 6856 H 643.537 -2.04892 -0.14434 0
M  V30 6857 H 641.767 -2.90639 -2.5508 0
M  V30 6858 H 643.456 -3.28854 -2.37929 0
M  V30 6859 H 644.222 -4.83066 -0.432677 0
M  V30 6860 H 640.101 -4.3394 -1.55618 0
M  V30 6861 H 643.645 -6.93927 0.714965 0
M  V30 6862 H 639.542 -6.44165 -0.414967 0
M  V30 6863 H 640.31 -8.14912 0.765564 0
M  V30 6864 N 642.974 0.416227 -1.52004 0
M  V30 6865 C 643.904 1.51365 -1.77795 0
M  V30 6866 C 644.885 1.58059 -0.628601 0
M  V30 6867 O 646.07 1.73447 -0.873478 0
M  V30 6868 C 643.2 2.89256 -1.92219 0
M  V30 6869 C 642.154 2.97415 -3.0778 0
M  V30 6870 C 641.48 4.37492 -3.07417 0
M  V30 6871 C 642.78 2.69551 -4.47369 0
M  V30 6872 H 644.474 1.30033 -2.69688 0
M  V30 6873 H 642.02 0.624112 -1.29772 0
M  V30 6874 H 643.973 3.66008 -2.08845 0
M  V30 6875 H 642.697 3.11866 -0.969917 0
M  V30 6876 H 641.356 2.23107 -2.90893 0
M  V30 6877 H 641.004 4.571 -2.09925 0
M  V30 6878 H 640.704 4.43877 -3.85029 0
M  V30 6879 H 642.228 5.16188 -3.26162 0
M  V30 6880 H 643.642 3.36028 -4.64497 0
M  V30 6881 H 642.039 2.87321 -5.26846 0
M  V30 6882 H 643.109 1.65029 -4.55953 0
M  V30 6883 N 644.452 1.42507 0.673017 0
M  V30 6884 C 645.385 1.40557 1.79774 0
M  V30 6885 C 646.363 0.269606 1.60349 0
M  V30 6886 O 647.547 0.460105 1.82798 0
M  V30 6887 C 644.674 1.19815 3.168 0
M  V30 6888 C 643.72 2.36429 3.5497 0
M  V30 6889 S 644.553 3.98963 3.57196 0
M  V30 6890 C 645.709 3.80567 4.9691 0
M  V30 6891 H 645.942 2.35734 1.81154 0
M  V30 6892 H 643.475 1.293 0.843846 0
M  V30 6893 H 645.433 1.08535 3.95892 0
M  V30 6894 H 644.094 0.262215 3.13004 0
M  V30 6895 H 643.287 2.17669 4.54573 0
M  V30 6896 H 642.889 2.44233 2.83242 0
M  V30 6897 H 645.181 3.41668 5.85038 0
M  V30 6898 H 646.124 4.79852 5.20718 0
M  V30 6899 H 646.532 3.13399 4.69512 0
M  V30 6900 N 645.93 -0.909495 1.28709 0
M  V30 6901 C 647.178 -1.65577 1.15882 0
M  V30 6902 C 647.499 -1.928 -0.292108 0
M  V30 6903 O 646.769 -1.54716 -1.20166 0
M  V30 6904 H 645.349 -0.613714 0.425869 0
M  V30 6905 H 648.011 -1.09108 1.61498 0
M  V30 6906 H 647.107 -2.61634 1.70159 0
M  V30 6907 N 647.408 -1.11026 -1.11852 0
M  V30 6908 C 648.338 -0.786812 -2.19844 0
M  V30 6909 C 649.319 0.242935 -1.68356 0
M  V30 6910 O 650.504 0.107355 -1.93903 0
M  V30 6911 C 647.634 -0.224516 -3.46574 0
M  V30 6912 C 646.588 -1.18564 -4.1125 0
M  V30 6913 C 645.914 -0.484261 -5.32503 0
M  V30 6914 C 647.214 -2.53465 -4.56676 0
M  V30 6915 H 648.908 -1.68978 -2.47158 0
M  V30 6916 H 646.454 -0.813906 -1.18792 0
M  V30 6917 H 648.407 0.0139435 -4.21398 0
M  V30 6918 H 647.131 0.713722 -3.18706 0
M  V30 6919 H 645.79 -1.40966 -3.38414 0
M  V30 6920 H 645.438 0.458646 -5.00905 0
M  V30 6921 H 645.138 -1.12526 -5.76725 0
M  V30 6922 H 646.662 -0.254492 -6.10069 0
M  V30 6923 H 648.076 -2.35177 -5.22843 0
M  V30 6924 H 646.473 -3.13507 -5.11697 0
M  V30 6925 H 647.543 -3.13008 -3.70343 0
M  V30 6926 N 648.886 1.2938 -0.899927 0
M  V30 6927 C 650.135 1.9483 -0.521937 0
M  V30 6928 C 650.448 1.71725 0.936473 0
M  V30 6929 O 651.654 2.31282 1.42199 0
M  V30 6930 C 650.11 3.48911 -0.88255 0
M  V30 6931 C 649.718 3.80815 -2.35974 0
M  V30 6932 C 651.462 4.20595 -0.57448 0
M  V30 6933 C 649.369 5.28142 -2.66121 0
M  V30 6934 H 648.299 0.729285 -0.191468 0
M  V30 6935 H 650.95 1.47103 -1.09695 0
M  V30 6936 H 649.332 3.95293 -0.236459 0
M  V30 6937 H 650.506 3.45291 -3.05141 0
M  V30 6938 H 648.821 3.22271 -2.63686 0
M  V30 6939 H 651.418 5.29031 -0.776556 0
M  V30 6940 H 651.761 4.13442 0.487005 0
M  V30 6941 H 652.294 3.79945 -1.17842 0
M  V30 6942 H 649.033 5.4036 -3.71068 0
M  V30 6943 H 648.553 5.64913 -2.01578 0
M  V30 6944 H 650.232 5.95738 -2.52399 0
M  V30 6945 N 650.364 0.662433 1.43002 0
M  V30 6946 C 651.294 -0.00979809 2.33498 0
M  V30 6947 C 652.275 -0.802329 1.49989 0
M  V30 6948 O 653.46 -0.761964 1.78627 0
M  V30 6949 C 650.59 -0.970446 3.33466 0
M  V30 6950 C 649.544 -0.287383 4.27034 0
M  V30 6951 C 648.87 -1.36012 5.17112 0
M  V30 6952 C 650.17 0.82595 5.15728 0
M  V30 6953 H 651.864 0.745959 2.89958 0
M  V30 6954 H 649.41 0.360172 1.39423 0
M  V30 6955 H 651.363 -1.44971 3.95679 0
M  V30 6956 H 650.087 -1.75748 2.75282 0
M  V30 6957 H 648.746 0.17152 3.66199 0
M  V30 6958 H 648.394 -2.13882 4.55262 0
M  V30 6959 H 648.094 -0.908276 5.80538 0
M  V30 6960 H 649.618 -1.84056 5.82199 0
M  V30 6961 H 651.032 0.42845 5.71697 0
M  V30 6962 H 649.429 1.20282 5.87922 0
M  V30 6963 H 650.499 1.68003 4.54866 0
M  V30 6964 N 651.842 -1.52309 0.404946 0
M  V30 6965 C 653.07 -2.06185 -0.171818 0
M  V30 6966 C 653.485 -1.27536 -1.39212 0
M  V30 6967 O 652.842 -0.326112 -1.79563 0
M  V30 6968 C 652.893 -3.57647 -0.526417 0
M  V30 6969 O 652.614 -4.3332 0.645417 0
M  V30 6970 C 654.115 -4.27925 -1.15736 0
M  V30 6971 H 651.335 -0.670632 -0.0222328 0
M  V30 6972 H 653.879 -1.96259 0.574692 0
M  V30 6973 H 652.034 -3.67595 -1.22282 0
M  V30 6974 H 652.448 -5.23328 0.35042 0
M  V30 6975 H 653.922 -5.35093 -1.35572 0
M  V30 6976 H 654.399 -3.84134 -2.12926 0
M  V30 6977 H 655.005 -4.22335 -0.501281 0
M  V30 6978 N 653.32 -0.135238 -1.57019 0
M  V30 6979 C 654.548 0.526066 -2.001 0
M  V30 6980 C 654.963 1.59184 -1.01519 0
M  V30 6981 O 654.32 1.82497 -0.0104258 0
M  V30 6982 C 654.371 1.13744 -3.43139 0
M  V30 6983 O 654.092 0.114259 -4.37951 0
M  V30 6984 C 655.593 1.8805 -4.01438 0
M  V30 6985 H 652.813 0.137962 -0.656664 0
M  V30 6986 H 655.357 -0.226359 -2.03243 0
M  V30 6987 H 653.512 1.84056 -3.40885 0
M  V30 6988 H 653.926 0.56058 -5.21496 0
M  V30 6989 H 655.4 2.26133 -5.03555 0
M  V30 6990 H 655.877 2.76194 -3.41487 0
M  V30 6991 H 656.483 1.22464 -4.07287 0
M  V30 6992 N 654.798 1.5699 0.138552 0
M  V30 6993 C 656.075 1.74741 0.87891 0
M  V30 6994 C 656.455 0.705522 1.98961 0
M  V30 6995 O 655.803 -0.274066 2.2685 0
M  V30 6996 C 656.013 3.1909 1.4136 0
M  V30 6997 C 657.361 3.81023 1.87368 0
M  V30 6998 O 658.385 3.22571 1.51084 0
M  V30 6999 O 657.244 4.83722 2.54312 0
M  V30 7000 H 654.338 0.714781 0.415953 0
M  V30 7001 H 656.884 1.69248 0.123817 0
M  V30 7002 H 655.656 3.86424 0.61579 0
M  V30 7003 H 655.279 3.29043 2.23196 0
M  V30 7004 N 656.276 -0.40816 1.52223 0
M  V30 7005 C 657.524 -1.15274 1.66001 0
M  V30 7006 C 657.845 -1.91003 0.392803 0
M  V30 7007 O 657.115 -1.8673 -0.592336 0
M  V30 7008 H 655.695 -0.428526 0.611861 0
M  V30 7009 H 658.357 -0.46512 1.89269 0
M  V30 7010 H 657.453 -1.86628 2.50153 0
M  V30 7011 N 657.755 -1.42862 -0.66545 0
M  V30 7012 C 659.003 -1.43546 -1.42264 0
M  V30 7013 C 659.324 -0.0563116 -1.94919 0
M  V30 7014 O 658.594 0.906568 -1.73661 0
M  V30 7015 H 657.174 -0.528464 -0.527953 0
M  V30 7016 H 659.836 -1.78363 -0.785665 0
M  V30 7017 H 658.932 -2.14079 -2.27105 0
M  V30 7018 N 659.233 0.902656 -1.29189 0
M  V30 7019 C 660.166 2.00816 -1.0839 0
M  V30 7020 C 661.144 1.626 0.00335266 0
M  V30 7021 O 662.328 1.87928 -0.146765 0
M  V30 7022 C 659.455 3.32415 -0.649435 0
M  V30 7023 C 658.501 3.89617 -1.73496 0
M  V30 7024 S 659.334 4.19091 -3.33351 0
M  V30 7025 C 660.49 5.53736 -2.91766 0
M  V30 7026 H 660.723 2.18151 -2.01984 0
M  V30 7027 H 658.256 1.0489 -1.13303 0
M  V30 7028 H 660.214 4.08492 -0.405479 0
M  V30 7029 H 658.875 3.12964 0.266857 0
M  V30 7030 H 658.068 4.84658 -1.38284 0
M  V30 7031 H 657.67 3.20217 -1.93229 0
M  V30 7032 H 659.962 6.34085 -2.38627 0
M  V30 7033 H 660.905 5.93871 -3.85647 0
M  V30 7034 H 661.313 5.15453 -2.30149 0
M  V30 7035 N 660.711 1.11618 1.11262 0
M  V30 7036 C 661.941 0.88745 1.86569 0
M  V30 7037 C 662.349 -0.56636 1.80524 0
M  V30 7038 O 661.692 -1.40289 1.18594 0
M  V30 7039 C 661.754 1.27313 3.36202 0
M  V30 7040 C 661.418 2.73649 3.66013 0
M  V30 7041 C 662.415 3.71863 3.63337 0
M  V30 7042 C 660.1 3.10342 3.9496 0
M  V30 7043 C 662.094 5.04788 3.89188 0
M  V30 7044 C 659.781 4.43451 4.20469 0
M  V30 7045 C 660.779 5.40484 4.17572 0
M  V30 7046 O 660.467 6.71195 4.42439 0
M  V30 7047 H 660.199 0.317543 0.596777 0
M  V30 7048 H 662.753 1.48768 1.41624 0
M  V30 7049 H 660.983 0.616062 3.81761 0
M  V30 7050 H 662.672 1.01991 3.92877 0
M  V30 7051 H 663.438 3.44861 3.41022 0
M  V30 7052 H 659.317 2.35431 3.9635 0
M  V30 7053 H 662.861 5.80516 3.86842 0
M  V30 7054 H 658.758 4.70187 4.42261 0
M  V30 7055 H 659.526 6.77012 4.59997 0
M  V30 7056 N 662.189 -1.289 0.906776 0
M  V30 7057 C 663.435 -1.95919 0.546551 0
M  V30 7058 C 663.79 -1.70126 -0.8986 0
M  V30 7059 O 663.083 -1.00775 -1.62957 0
M  V30 7060 C 663.277 -3.48704 0.783617 0
M  V30 7061 C 663.106 -3.8935 2.25026 0
M  V30 7062 C 661.876 -4.13864 2.89905 0
M  V30 7063 C 664.074 -4.00535 3.22608 0
M  V30 7064 N 662.056 -4.41131 4.26939 0
M  V30 7065 C 663.427 -4.31936 4.44783 0
M  V30 7066 C 665.482 -3.83035 3.18102 0
M  V30 7067 C 664.185 -4.47659 5.63022 0
M  V30 7068 C 666.211 -3.99971 4.35634 0
M  V30 7069 C 665.573 -4.31738 5.5658 0
M  V30 7070 H 661.672 -0.74105 0.249737 0
M  V30 7071 H 664.256 -1.55696 1.16906 0
M  V30 7072 H 662.427 -3.87933 0.190437 0
M  V30 7073 H 664.159 -4.02835 0.38812 0
M  V30 7074 H 660.914 -4.07893 2.40666 0
M  V30 7075 H 661.338 -4.5886 4.97771 0
M  V30 7076 H 665.98 -3.57533 2.25677 0
M  V30 7077 H 663.698 -4.71995 6.55932 0
M  V30 7078 H 667.284 -3.87874 4.33641 0
M  V30 7079 H 666.164 -4.44568 6.4601 0
M  V30 7080 N 663.667 -0.670007 -1.42649 0
M  V30 7081 C 664.597 -0.00258501 -2.335 0
M  V30 7082 C 665.578 0.794364 -1.50412 0
M  V30 7083 O 666.763 0.75248 -1.79029 0
M  V30 7084 C 663.893 0.952748 -3.33976 0
M  V30 7085 C 662.847 0.264733 -4.2718 0
M  V30 7086 C 662.173 1.33267 -5.17826 0
M  V30 7087 C 663.473 -0.853289 -5.15283 0
M  V30 7088 H 665.167 -0.761326 -2.89559 0
M  V30 7089 H 662.713 -0.367561 -1.3923 0
M  V30 7090 H 664.666 1.4287 -3.96442 0
M  V30 7091 H 663.39 1.74285 -2.7621 0
M  V30 7092 H 662.049 -0.190938 -3.66102 0
M  V30 7093 H 661.697 2.11464 -4.5639 0
M  V30 7094 H 661.397 0.877476 -5.81011 0
M  V30 7095 H 662.921 1.80965 -5.83167 0
M  V30 7096 H 664.335 -0.458763 -5.71462 0
M  V30 7097 H 662.732 -1.23398 -5.87276 0
M  V30 7098 H 663.802 -1.70412 -4.53969 0
M  V30 7099 N 665.145 1.52092 -0.413018 0
M  V30 7100 C 666.391 2.02154 0.161737 0
M  V30 7101 C 666.724 1.29789 1.44459 0
M  V30 7102 O 665.999 0.405378 1.90229 0
M  V30 7103 C 666.282 3.5781 0.405463 0
M  V30 7104 C 666.135 4.40819 -0.894335 0
M  V30 7105 C 667.454 4.23821 1.18591 0
M  V30 7106 H 664.573 0.734769 0.0573077 0
M  V30 7107 H 667.215 1.81948 -0.547247 0
M  V30 7108 H 665.365 3.75158 1.0094 0
M  V30 7109 H 667.037 4.35175 -1.53039 0
M  V30 7110 H 665.28 4.06877 -1.50444 0
M  V30 7111 H 665.951 5.47819 -0.678144 0
M  V30 7112 H 668.427 4.10596 0.674573 0
M  V30 7113 H 667.303 5.32663 1.3252 0
M  V30 7114 H 667.564 3.83038 2.20758 0
M  V30 7115 N 666.623 0.143563 1.56945 0
M  V30 7116 C 667.553 -0.7936 2.196 0
M  V30 7117 C 668.534 -1.25955 1.14321 0
M  V30 7118 O 669.719 -1.31773 1.42651 0
M  V30 7119 C 666.849 -2.03424 2.81489 0
M  V30 7120 C 665.803 -1.70519 3.92565 0
M  V30 7121 C 665.129 -3.01817 4.41373 0
M  V30 7122 C 666.429 -0.95449 5.13504 0
M  V30 7123 H 668.123 -0.271423 2.98167 0
M  V30 7124 H 665.669 -0.12911 1.4342 0
M  V30 7125 H 667.622 -2.69463 3.23987 0
M  V30 7126 H 666.346 -2.58008 2.00248 0
M  V30 7127 H 665.005 -1.06859 3.5068 0
M  V30 7128 H 664.653 -3.54386 3.56959 0
M  V30 7129 H 664.353 -2.80565 5.16292 0
M  V30 7130 H 665.877 -3.68934 4.86539 0
M  V30 7131 H 667.291 -1.5169 5.52868 0
M  V30 7132 H 665.688 -0.842035 5.94163 0
M  V30 7133 H 666.758 0.0544033 4.84869 0
M  V30 7134 N 668.101 -1.57061 -0.130224 0
M  V30 7135 C 669.031 -2.02552 -1.16168 0
M  V30 7136 C 670.012 -0.907971 -1.4384 0
M  V30 7137 O 671.197 -1.17693 -1.54473 0
M  V30 7138 C 668.327 -2.42035 -2.49071 0
M  V30 7139 C 667.281 -3.5713 -2.35886 0
M  V30 7140 C 666.607 -3.82478 -3.7365 0
M  V30 7141 C 667.907 -4.89236 -1.8288 0
M  V30 7142 H 669.601 -2.8897 -0.783359 0
M  V30 7143 H 667.147 -1.39021 -0.375376 0
M  V30 7144 H 669.1 -2.72462 -3.21469 0
M  V30 7145 H 667.824 -1.52573 -2.88771 0
M  V30 7146 H 666.483 -3.26895 -1.65938 0
M  V30 7147 H 666.131 -2.9024 -4.10816 0
M  V30 7148 H 665.831 -4.59944 -3.65685 0
M  V30 7149 H 667.355 -4.15347 -4.47571 0
M  V30 7150 H 668.769 -5.18272 -2.45085 0
M  V30 7151 H 667.166 -5.70624 -1.85763 0
M  V30 7152 H 668.236 -4.78494 -0.785571 0
M  V30 7153 N 669.579 0.400081 -1.52437 0
M  V30 7154 C 670.856 1.15973 -1.57511 0
M  V30 7155 C 671.236 2.0798 -0.361572 0
M  V30 7156 O 670.584 2.19032 0.650929 0
M  V30 7157 C 670.794 1.92912 -2.90837 0
M  V30 7158 C 672.142 2.48662 -3.44169 0
M  V30 7159 O 673.166 2.03081 -2.92637 0
M  V30 7160 O 672.025 3.31894 -4.34176 0
M  V30 7161 H 669.119 0.530023 -0.634827 0
M  V30 7162 H 671.665 0.40613 -1.64769 0
M  V30 7163 H 670.437 1.25564 -3.70607 0
M  V30 7164 H 670.06 2.75257 -2.86913 0
M  V30 7165 N 671.057 1.43213 0.657864 0
M  V30 7166 C 672.334 1.35063 1.41483 0
M  V30 7167 C 672.714 -0.0038314 2.111 0
M  V30 7168 O 672.062 -1.02018 2.04462 0
M  V30 7169 C 672.272 2.53061 2.40335 0
M  V30 7170 C 673.62 2.9594 3.04474 0
M  V30 7171 O 674.644 2.53074 2.50663 0
M  V30 7172 O 673.503 3.70184 4.02027 0
M  V30 7173 H 670.597 0.533517 0.631893 0
M  V30 7174 H 673.143 1.55253 0.685162 0
M  V30 7175 H 671.915 3.43283 1.87809 0
M  V30 7176 H 671.538 2.34945 3.20759 0
M  V30 7177 N 672.536 -0.895792 1.29666 0
M  V30 7178 C 673.766 -1.67757 1.20586 0
M  V30 7179 C 674.174 -1.87729 -0.235432 0
M  V30 7180 O 673.517 -1.41706 -1.16898 0
M  V30 7181 C 673.579 -3.08117 1.85215 0
M  V30 7182 C 673.243 -3.1136 3.3452 0
M  V30 7183 C 674.24 -2.91217 4.30684 0
M  V30 7184 C 671.925 -3.33302 3.75786 0
M  V30 7185 C 673.919 -2.92955 5.66089 0
M  V30 7186 C 671.606 -3.3467 5.11311 0
M  V30 7187 C 672.604 -3.14519 6.06273 0
M  V30 7188 O 672.292 -3.15684 7.39323 0
M  V30 7189 H 672.024 -0.530601 0.418854 0
M  V30 7190 H 674.578 -1.12831 1.71634 0
M  V30 7191 H 672.808 -3.64661 1.28683 0
M  V30 7192 H 674.497 -3.68399 1.70403 0
M  V30 7193 H 675.263 -2.74074 4.00136 0
M  V30 7194 H 671.142 -3.48025 3.02324 0
M  V30 7195 H 674.686 -2.77145 6.40185 0
M  V30 7196 H 670.583 -3.51346 5.41504 0
M  V30 7197 H 671.351 -3.31924 7.48177 0
M  V30 7198 N 674.014 -1.12206 -1.10668 0
M  V30 7199 C 675.239 -0.898938 -1.86906 0
M  V30 7200 C 675.664 0.546346 -1.79991 0
M  V30 7201 O 675.022 1.38655 -1.1681 0
M  V30 7202 C 675.07 -1.37529 -3.33344 0
M  V30 7203 O 674.174 -0.55218 -4.08687 0
M  V30 7204 H 673.515 -0.323163 -0.580053 0
M  V30 7205 H 676.045 -1.49355 -1.39837 0
M  V30 7206 H 676.055 -1.3733 -3.84193 0
M  V30 7207 H 674.73 -2.42767 -3.37693 0
M  V30 7208 H 673.307 -0.620947 -3.67694 0
M  V30 7209 N 675.492 1.28418 -0.913599 0
M  V30 7210 C 676.455 2.25564 -0.406624 0
M  V30 7211 C 677.455 1.5387 0.466965 0
M  V30 7212 O 678.645 1.72094 0.270042 0
M  V30 7213 C 675.777 3.38339 0.417053 0
M  V30 7214 H 676.97 2.71926 -1.26477 0
M  V30 7215 H 674.523 1.40098 -0.692986 0
M  V30 7216 H 675.258 2.97339 1.29461 0
M  V30 7217 H 675.043 3.91542 -0.209102 0
M  V30 7218 H 676.533 4.10578 0.762602 0
M  V30 7219 N 676.97 0.677563 1.42291 0
M  V30 7220 C 678.195 0.207901 2.06355 0
M  V30 7221 C 678.62 -1.12723 1.50583 0
M  V30 7222 O 677.978 -1.70171 0.62543 0
M  V30 7223 C 678.026 0.156489 3.6026 0
M  V30 7224 O 677.13 -0.874162 4.03029 0
M  V30 7225 H 676.471 0.106056 0.655475 0
M  V30 7226 H 679.001 0.927354 1.82377 0
M  V30 7227 H 679.011 -0.0187258 4.07996 0
M  V30 7228 H 677.686 1.13101 4.00226 0
M  V30 7229 H 676.263 -0.669764 3.66836 0
M  V30 7230 N 678.448 -1.51871 0.421078 0
M  V30 7231 C 679.695 -2.01938 -0.15079 0
M  V30 7232 C 680.023 -1.30611 -1.44121 0
M  V30 7233 O 679.278 -0.404631 -1.91471 0
M  V30 7234 C 679.577 -3.54764 -0.433292 0
M  V30 7235 C 679.243 -4.44288 0.76936 0
M  V30 7236 C 677.905 -4.68477 1.09921 0
M  V30 7237 C 680.257 -4.96915 1.57242 0
M  V30 7238 C 677.585 -5.4254 2.2331 0
M  V30 7239 C 679.937 -5.7222 2.69716 0
M  V30 7240 C 678.601 -5.94678 3.03174 0
M  V30 7241 H 677.871 -0.738943 -0.0551781 0
M  V30 7242 H 680.518 -1.82977 0.564945 0
M  V30 7243 H 678.823 -3.71968 -1.23074 0
M  V30 7244 H 680.52 -3.91023 -0.888922 0
M  V30 7245 H 677.11 -4.25646 0.502305 0
M  V30 7246 H 681.294 -4.78125 1.3308 0
M  V30 7247 H 676.55 -5.58146 2.49565 0
M  V30 7248 H 680.724 -6.11992 3.32323 0
M  V30 7249 H 678.351 -6.51848 3.9115 0
M  V30 7250 N 679.926 -0.151884 -1.56866 0
M  V30 7251 C 681.174 0.497021 -1.95893 0
M  V30 7252 C 681.495 1.65078 -1.03799 0
M  V30 7253 O 680.765 1.95642 -0.10049 0
M  V30 7254 H 679.345 0.186603 -0.723318 0
M  V30 7255 H 682.007 -0.228525 -1.93556 0
M  V30 7256 H 681.103 0.869933 -2.99731 0
M  V30 7257 N 681.404 1.57128 0.121893 0
M  V30 7258 C 682.334 2.03165 1.15092 0
M  V30 7259 C 683.315 0.915587 1.43356 0
M  V30 7260 O 684.5 1.1851 1.53847 0
M  V30 7261 C 681.63 2.43352 2.47784 0
M  V30 7262 C 680.584 3.58376 2.33989 0
M  V30 7263 C 679.91 3.84454 3.71617 0
M  V30 7264 C 681.21 4.90199 1.80283 0
M  V30 7265 H 682.904 2.89382 0.768023 0
M  V30 7266 H 680.45 1.39218 0.367998 0
M  V30 7267 H 682.403 2.74163 3.20019 0
M  V30 7268 H 681.127 1.54103 2.87958 0
M  V30 7269 H 679.786 3.2777 1.64202 0
M  V30 7270 H 679.434 2.92414 4.09271 0
M  V30 7271 H 679.134 4.61877 3.6324 0
M  V30 7272 H 680.658 4.17714 4.45362 0
M  V30 7273 H 682.072 5.19565 2.42333 0
M  V30 7274 H 680.469 5.71601 1.82735 0
M  V30 7275 H 681.539 4.78904 0.760184 0
M  V30 7276 N 682.882 -0.391992 1.52647 0
M  V30 7277 C 683.815 -1.50019 1.71958 0
M  V30 7278 C 684.793 -1.5238 0.567365 0
M  V30 7279 O 685.977 -1.70831 0.796806 0
M  V30 7280 C 683.104 -2.88496 1.77447 0
M  V30 7281 C 682.15 -3.03974 2.99169 0
M  V30 7282 S 682.983 -2.75487 4.59203 0
M  V30 7283 C 684.139 -4.16163 4.67503 0
M  V30 7284 H 684.372 -1.33413 2.65685 0
M  V30 7285 H 681.905 -0.584674 1.42902 0
M  V30 7286 H 683.863 -3.68296 1.81296 0
M  V30 7287 H 682.524 -3.02431 0.848188 0
M  V30 7288 H 681.717 -4.05328 2.99542 0
M  V30 7289 H 681.319 -2.32062 2.93297 0
M  V30 7290 H 683.611 -5.10048 4.45934 0
M  V30 7291 H 684.554 -4.20806 5.69498 0
M  V30 7292 H 684.962 -4.01933 3.96371 0
M  V30 7293 N 684.36 -1.4356 -0.65026 0
M  V30 7294 C 685.606 -1.45549 -1.41221 0
M  V30 7295 C 685.939 -0.0805472 -1.94033 0
M  V30 7296 O 685.214 0.899043 -1.72475 0
M  V30 7297 C 685.497 -2.50028 -2.59148 0
M  V30 7298 C 685.35 -3.96808 -2.1181 0
M  V30 7299 C 686.669 -2.51212 -3.61359 0
M  V30 7300 H 683.788 -0.529967 -0.512156 0
M  V30 7301 H 686.43 -1.75127 -0.736933 0
M  V30 7302 H 684.58 -2.24937 -3.16758 0
M  V30 7303 H 686.252 -4.32966 -1.59178 0
M  V30 7304 H 684.495 -4.09498 -1.43156 0
M  V30 7305 H 685.166 -4.6553 -2.96625 0
M  V30 7306 H 687.642 -2.73583 -3.13515 0
M  V30 7307 H 686.518 -3.26252 -4.41419 0
M  V30 7308 H 686.779 -1.54701 -4.1415 0
M  V30 7309 N 685.838 0.888903 -1.30139 0
M  V30 7310 C 687.084 1.6428 -1.18912 0
M  V30 7311 C 687.417 1.92499 0.256477 0
M  V30 7312 O 686.692 1.54312 1.18397 0
M  V30 7313 C 686.975 2.9851 -2.01405 0
M  V30 7314 C 686.828 2.77288 -3.54163 0
M  V30 7315 C 688.147 3.99383 -1.84882 0
M  V30 7316 H 685.266 0.596148 -0.433333 0
M  V30 7317 H 687.908 1.0289 -1.5973 0
M  V30 7318 H 686.058 3.50907 -1.66722 0
M  V30 7319 H 687.73 2.31709 -3.98884 0
M  V30 7320 H 685.973 2.11867 -3.78543 0
M  V30 7321 H 686.644 3.72717 -4.07168 0
M  V30 7322 H 689.12 3.56132 -2.15196 0
M  V30 7323 H 687.996 4.91222 -2.44934 0
M  V30 7324 H 688.257 4.34674 -0.806902 0
M  V30 7325 N 687.317 1.12792 1.10072 0
M  V30 7326 C 688.563 0.886857 1.82381 0
M  V30 7327 C 688.896 -0.58576 1.85155 0
M  V30 7328 O 688.171 -1.43317 1.31493 0
M  V30 7329 C 688.454 1.46703 3.28862 0
M  V30 7330 C 688.307 3.00829 3.34398 0
M  V30 7331 C 689.626 1.12971 4.25353 0
M  V30 7332 H 686.745 0.32362 0.662148 0
M  V30 7333 H 689.387 1.39513 1.28982 0
M  V30 7334 H 687.537 1.03476 3.74466 0
M  V30 7335 H 689.209 3.52764 2.97247 0
M  V30 7336 H 687.452 3.36164 2.74183 0
M  V30 7337 H 688.123 3.36519 4.3756 0
M  V30 7338 H 690.599 1.50313 3.88001 0
M  V30 7339 H 689.475 1.56223 5.26199 0
M  V30 7340 H 689.736 0.0424452 4.4208 0
M  V30 7341 N 688.795 -1.27931 0.920396 0
M  V30 7342 C 690.044 -1.93975 0.552867 0
M  V30 7343 C 690.357 -1.73193 -0.909035 0
M  V30 7344 O 691.563 -2.33515 -1.38502 0
M  V30 7345 C 690.019 -3.47463 0.937947 0
M  V30 7346 C 689.627 -3.77013 2.42003 0
M  V30 7347 C 691.371 -4.19628 0.64132 0
M  V30 7348 C 689.278 -5.23841 2.74489 0
M  V30 7349 H 688.208 -0.726146 0.203046 0
M  V30 7350 H 690.859 -1.45339 1.12022 0
M  V30 7351 H 689.241 -3.94867 0.299317 0
M  V30 7352 H 690.415 -3.40393 3.10595 0
M  V30 7353 H 688.73 -3.18035 2.6878 0
M  V30 7354 H 691.327 -5.27729 0.860622 0
M  V30 7355 H 691.67 -4.14164 -0.421168 0
M  V30 7356 H 692.203 -3.78022 1.23872 0
M  V30 7357 H 688.942 -5.34388 3.79618 0
M  V30 7358 H 688.462 -5.61634 2.1054 0
M  V30 7359 H 690.141 -5.91647 2.61845 0
M  V30 7360 N 690.273 -0.685099 -1.4193 0
M  V30 7361 C 691.501 -0.220372 -2.05723 0
M  V30 7362 C 691.916 1.12642 -1.51516 0
M  V30 7363 O 691.273 1.70182 -0.659114 0
M  V30 7364 C 691.324 -0.157974 -3.61155 0
M  V30 7365 O 691.045 -1.45156 -4.13354 0
M  V30 7366 C 692.546 0.329009 -4.42077 0
M  V30 7367 H 689.766 -0.104725 -0.662777 0
M  V30 7368 H 692.31 -0.934736 -1.81887 0
M  V30 7369 H 690.465 0.507144 -3.84066 0
M  V30 7370 H 690.879 -1.33172 -5.07312 0
M  V30 7371 H 692.353 0.321559 -5.51063 0
M  V30 7372 H 692.83 1.36608 -4.17414 0
M  V30 7373 H 693.436 -0.304737 -4.24207 0
M  V30 7374 N 691.751 1.51645 -0.429126 0
M  V30 7375 C 692.979 2.06433 0.138994 0
M  V30 7376 C 693.394 1.29735 1.37165 0
M  V30 7377 O 692.751 0.354638 1.79021 0
M  V30 7378 C 692.802 3.58439 0.469452 0
M  V30 7379 O 692.523 4.32238 -0.714273 0
M  V30 7380 C 694.024 4.29712 1.08914 0
M  V30 7381 H 691.244 0.6709 0.0115608 0
M  V30 7382 H 693.788 1.9532 -0.605843 0
M  V30 7383 H 691.943 3.69494 1.16419 0
M  V30 7384 H 692.357 5.22704 -0.433633 0
M  V30 7385 H 693.831 5.37182 1.27042 0
M  V30 7386 H 694.308 3.87473 2.06788 0
M  V30 7387 H 694.914 4.2308 0.434028 0
M  V30 7388 N 693.229 0.160201 1.56784 0
M  V30 7389 C 694.469 -0.490179 1.98435 0
M  V30 7390 C 694.833 -1.61164 1.04355 0
M  V30 7391 O 696.034 -2.3238 1.35103 0
M  V30 7392 C 694.305 -0.971106 3.43954 0
M  V30 7393 S 695.864 -1.62423 4.07632 0
M  V30 7394 H 692.682 -0.158056 0.693209 0
M  V30 7395 H 695.284 0.255036 1.93829 0
M  V30 7396 H 693.988 -0.144323 4.10146 0
M  V30 7397 H 693.519 -1.75063 3.52302 0
M  V30 7398 H 695.534 -2.91199 4.01768 0
M  V30 7399 N 694.707 -1.5719 -0.113559 0
M  V30 7400 C 695.637 -2.03772 -1.14013 0
M  V30 7401 C 696.618 -0.923176 -1.42869 0
M  V30 7402 O 697.803 -1.19325 -1.53216 0
M  V30 7403 C 694.933 -2.44663 -2.4649 0
M  V30 7404 C 693.887 -3.59612 -2.32085 0
M  V30 7405 C 693.213 -3.8642 -3.69573 0
M  V30 7406 C 694.513 -4.91149 -1.7768 0
M  V30 7407 H 696.207 -2.89785 -0.752665 0
M  V30 7408 H 693.753 -1.39412 -0.360609 0
M  V30 7409 H 695.706 -2.75857 -3.18561 0
M  V30 7410 H 694.43 -1.55628 -2.87137 0
M  V30 7411 H 693.089 -3.28636 -1.62461 0
M  V30 7412 H 692.737 -2.94581 -4.07715 0
M  V30 7413 H 692.437 -4.63797 -3.60786 0
M  V30 7414 H 693.961 -4.2007 -4.4314 0
M  V30 7415 H 695.375 -5.20843 -2.39574 0
M  V30 7416 H 693.772 -5.72562 -1.79701 0
M  V30 7417 H 694.842 -4.79301 -0.734776 0
M  V30 7418 N 696.185 0.383891 -1.52853 0
M  V30 7419 C 697.148 1.45197 -1.77343 0
M  V30 7420 C 698.148 1.47362 -0.643522 0
M  V30 7421 O 699.338 1.48443 -0.911613 0
M  V30 7422 C 696.47 2.8445 -1.87885 0
M  V30 7423 H 697.663 1.24764 -2.72716 0
M  V30 7424 H 695.216 0.615939 -1.43652 0
M  V30 7425 H 695.951 3.10222 -0.94515 0
M  V30 7426 H 695.736 2.8428 -2.70051 0
M  V30 7427 H 697.226 3.61832 -2.08488 0
M  V30 7428 N 697.663 1.43903 0.642637 0
M  V30 7429 C 698.909 1.46296 1.40447 0
M  V30 7430 C 699.242 0.0908361 1.93987 0
M  V30 7431 O 698.517 -0.889884 1.72949 0
M  V30 7432 C 698.8 2.51399 2.57819 0
M  V30 7433 C 698.653 3.97926 2.09702 0
M  V30 7434 C 699.972 2.53125 3.60022 0
M  V30 7435 H 697.091 0.532676 0.509338 0
M  V30 7436 H 699.733 1.75515 0.727635 0
M  V30 7437 H 697.883 2.26614 3.1556 0
M  V30 7438 H 699.555 4.33804 1.5688 0
M  V30 7439 H 697.798 4.10252 1.40982 0
M  V30 7440 H 698.469 4.67096 2.94152 0
M  V30 7441 H 700.945 2.75242 3.12059 0
M  V30 7442 H 699.821 3.28589 4.39682 0
M  V30 7443 H 700.082 1.56895 4.13324 0
M  V30 7444 N 699.141 -0.881989 1.30609 0
M  V30 7445 C 700.369 -1.66711 1.22536 0
M  V30 7446 C 700.784 -1.87614 -0.2113 0
M  V30 7447 O 700.141 -1.42576 -1.13923 0
M  V30 7448 C 700.192 -3.04182 1.95335 0
M  V30 7449 O 699.913 -2.8422 3.33393 0
M  V30 7450 C 701.414 -3.98617 1.93956 0
M  V30 7451 H 698.634 -0.520124 0.423925 0
M  V30 7452 H 701.178 -1.10174 1.72285 0
M  V30 7453 H 699.333 -3.57442 1.49378 0
M  V30 7454 H 699.747 -3.71452 3.70302 0
M  V30 7455 H 701.221 -4.92433 2.49426 0
M  V30 7456 H 701.698 -4.29473 0.919198 0
M  V30 7457 H 702.304 -3.51292 2.39738 0
M  V30 7458 N 700.619 -1.13374 -1.09472 0
M  V30 7459 C 702.035 -0.871846 -1.33682 0
M  V30 7460 C 702.235 0.492847 -1.9538 0
M  V30 7461 O 701.291 1.23946 -2.19985 0
M  V30 7462 C 702.604 -1.99608 -2.24893 0
M  V30 7463 C 704.152 -2.02812 -2.38404 0
M  V30 7464 C 704.627 -3.14497 -3.3295 0
M  V30 7465 N 706.118 -3.14004 -3.40523 0
M  V30 7466 C 706.853 -3.97061 -4.13679 0
M  V30 7467 N 706.349 -4.90131 -4.89636 0
M  V30 7468 N 708.142 -3.85162 -4.09398 0
M  V30 7469 H 700.293 -2.01288 -0.677995 0
M  V30 7470 H 702.556 -0.876492 -0.361201 0
M  V30 7471 H 702.262 -2.98 -1.86786 0
M  V30 7472 H 702.136 -1.90981 -3.25278 0
M  V30 7473 H 704.523 -1.05034 -2.75775 0
M  V30 7474 H 704.604 -2.15511 -1.37799 0
M  V30 7475 H 704.248 -4.12514 -2.96302 0
M  V30 7476 H 704.178 -2.99035 -4.33458 0
M  V30 7477 H 706.669 -2.46587 -2.86362 0
M  V30 7478 H 706.982 -5.49996 -5.42885 0
M  V30 7479 H 705.327 -4.94138 -4.88726 0
M  V30 7480 H 708.518 -3.11779 -3.49158 0
M  V30 7481 H 708.691 -4.5012 -4.6615 0
M  V30 7482 N 702.098 1.27442 -0.927168 0
M  V30 7483 C 703.344 1.94679 -0.568164 0
M  V30 7484 C 703.677 1.72697 0.888219 0
M  V30 7485 O 702.952 1.05573 1.63354 0
M  V30 7486 C 703.235 3.4882 -0.894253 0
M  V30 7487 C 703.088 3.80146 -2.40435 0
M  V30 7488 C 704.407 4.38281 -0.399766 0
M  V30 7489 H 701.526 0.707071 -0.207892 0
M  V30 7490 H 704.168 1.50568 -1.15885 0
M  V30 7491 H 702.318 3.86522 -0.391566 0
M  V30 7492 H 703.99 3.52238 -2.97869 0
M  V30 7493 H 702.233 3.26716 -2.85375 0
M  V30 7494 H 702.904 4.87835 -2.58304 0
M  V30 7495 H 705.38 4.07726 -0.83058 0
M  V30 7496 H 704.256 5.44955 -0.656885 0
M  V30 7497 H 704.517 4.36521 0.700153 0
M  V30 7498 N 703.576 0.692616 1.41565 0
M  V30 7499 C 704.806 0.230943 2.05305 0
M  V30 7500 C 705.214 -1.12379 1.52209 0
M  V30 7501 O 704.557 -1.71281 0.663968 0
M  V30 7502 C 704.619 0.107894 3.59338 0
M  V30 7503 C 704.283 1.39419 4.35214 0
M  V30 7504 C 705.28 2.33143 4.64694 0
M  V30 7505 C 702.965 1.64674 4.74539 0
M  V30 7506 C 704.959 3.50385 5.32456 0
M  V30 7507 C 702.646 2.82202 5.42038 0
M  V30 7508 C 703.644 3.74881 5.70923 0
M  V30 7509 O 703.332 4.90351 6.37033 0
M  V30 7510 H 703.064 0.105708 0.667684 0
M  V30 7511 H 705.618 0.94488 1.82376 0
M  V30 7512 H 703.848 -0.661785 3.80995 0
M  V30 7513 H 705.537 -0.316213 4.04666 0
M  V30 7514 H 706.303 2.14887 4.34797 0
M  V30 7515 H 702.182 0.934007 4.51439 0
M  V30 7516 H 705.726 4.22743 5.54918 0
M  V30 7517 H 701.623 3.00376 5.71353 0
M  V30 7518 H 702.391 4.90128 6.55528 0
M  V30 7519 N 705.054 -1.51416 0.437162 0
M  V30 7520 C 706.302 -2.01687 -0.129108 0
M  V30 7521 C 706.623 -1.32329 -1.43227 0
M  V30 7522 O 705.893 -0.457796 -1.90476 0
M  V30 7523 H 704.473 -0.745277 -0.0507023 0
M  V30 7524 H 707.135 -1.86075 0.579828 0
M  V30 7525 H 706.231 -3.10605 -0.305141 0
M  V30 7526 N 706.532 -0.168513 -1.56696 0
M  V30 7527 C 707.781 0.477233 -1.95973 0
M  V30 7528 C 708.094 1.64578 -1.05704 0
M  V30 7529 O 709.3 2.35758 -1.3465 0
M  V30 7530 C 707.756 0.900413 -3.48455 0
M  V30 7531 C 707.364 -0.242382 -4.47344 0
M  V30 7532 C 709.108 1.51474 -3.96555 0
M  V30 7533 C 707.015 0.200272 -5.91061 0
M  V30 7534 H 705.945 0.182061 -0.73169 0
M  V30 7535 H 708.596 -0.256297 -1.81701 0
M  V30 7536 H 706.978 1.68984 -3.58135 0
M  V30 7537 H 708.152 -1.01967 -4.49377 0
M  V30 7538 H 706.467 -0.766484 -4.09285 0
M  V30 7539 H 709.064 1.85792 -5.01384 0
M  V30 7540 H 709.407 2.41163 -3.39332 0
M  V30 7541 H 709.94 0.789802 -3.89881 0
M  V30 7542 H 706.679 -0.661775 -6.52151 0
M  V30 7543 H 706.199 0.942979 -5.92341 0
M  V30 7544 H 707.878 0.645088 -6.43776 0
M  V30 7545 N 708.01 1.57248 0.105221 0
M  V30 7546 C 708.942 1.98008 1.15436 0
M  V30 7547 C 709.955 0.881236 1.36887 0
M  V30 7548 O 711.144 1.15943 1.35718 0
M  V30 7549 C 708.244 2.27509 2.51183 0
M  V30 7550 C 707.417 3.58811 2.50147 0
M  V30 7551 C 706.476 3.76365 3.67745 0
M  V30 7552 O 705.502 4.48329 3.50699 0
M  V30 7553 N 706.704 3.16174 4.86841 0
M  V30 7554 H 709.469 2.88616 0.807519 0
M  V30 7555 H 707.03 1.59202 0.29433 0
M  V30 7556 H 709.022 2.36455 3.28438 0
M  V30 7557 H 707.592 1.42959 2.77995 0
M  V30 7558 H 706.812 3.60927 1.5851 0
M  V30 7559 H 708.1 4.45088 2.46524 0
M  V30 7560 H 707.498 2.57701 5.03594 0
M  V30 7561 H 706.055 3.30621 5.61723 0
M  V30 7562 N 709.488 -0.375779 1.53054 0
M  V30 7563 C 710.904 -0.716764 1.426 0
M  V30 7564 C 711.104 -1.93651 0.556931 0
M  V30 7565 O 710.16 -2.52475 0.0354461 0
M  V30 7566 C 711.473 -0.939499 2.85646 0
M  V30 7567 C 713.021 -1.04015 2.95212 0
M  V30 7568 C 713.496 -1.29543 4.39298 0
M  V30 7569 N 714.987 -1.36335 4.42682 0
M  V30 7570 C 715.722 -1.57778 5.51266 0
M  V30 7571 N 715.218 -1.76604 6.69913 0
M  V30 7572 N 717.011 -1.60065 5.38828 0
M  V30 7573 H 709.162 0.42664 2.08071 0
M  V30 7574 H 711.425 0.128758 0.939215 0
M  V30 7575 H 711.131 -0.115189 3.51511 0
M  V30 7576 H 711.005 -1.85048 3.2869 0
M  V30 7577 H 713.392 -1.85501 2.29507 0
M  V30 7578 H 713.473 -0.106785 2.55577 0
M  V30 7579 H 713.117 -0.485611 5.05573 0
M  V30 7580 H 713.047 -2.24184 4.76497 0
M  V30 7581 H 715.538 -1.23441 3.5717 0
M  V30 7582 H 715.851 -1.9251 7.48438 0
M  V30 7583 H 714.196 -1.73802 6.72917 0
M  V30 7584 H 717.387 -1.44917 4.45103 0
M  V30 7585 H 717.56 -1.76435 6.23518 0
M  V30 7586 N 710.966 -1.44241 -0.634997 0
M  V30 7587 C 712.213 -1.46821 -1.39463 0
M  V30 7588 C 712.541 -0.0993362 -1.94246 0
M  V30 7589 O 711.796 0.898325 -1.73864 0
M  V30 7590 C 712.095 -2.47279 -2.58046 0
M  V30 7591 C 711.761 -3.92703 -2.21574 0
M  V30 7592 C 710.423 -4.32306 -2.1134 0
M  V30 7593 C 712.775 -4.84271 -1.92695 0
M  V30 7594 C 710.103 -5.61407 -1.70409 0
M  V30 7595 C 712.455 -6.13755 -1.53258 0
M  V30 7596 C 711.119 -6.52316 -1.41562 0
M  V30 7597 H 710.389 -0.537256 -0.51033 0
M  V30 7598 H 713.036 -1.77431 -0.720441 0
M  V30 7599 H 711.341 -2.10138 -3.3068 0
M  V30 7600 H 713.038 -2.46523 -3.16271 0
M  V30 7601 H 709.628 -3.61369 -2.30456 0
M  V30 7602 H 713.812 -4.54432 -1.99513 0
M  V30 7603 H 709.068 -5.90105 -1.59955 0
M  V30 7604 H 713.242 -6.84168 -1.29949 0
M  V30 7605 H 710.869 -7.52255 -1.09619 0
M  V30 7606 N 712.444 0.87505 -1.31075 0
M  V30 7607 C 713.684 1.64174 -1.21763 0
M  V30 7608 C 714.048 1.90713 0.221933 0
M  V30 7609 O 715.249 2.652 0.438458 0
M  V30 7610 C 713.52 2.93932 -2.0332 0
M  V30 7611 S 715.079 3.84841 -2.10815 0
M  V30 7612 H 711.897 0.563358 -0.433761 0
M  V30 7613 H 714.499 1.03788 -1.65675 0
M  V30 7614 H 713.203 2.72349 -3.07009 0
M  V30 7615 H 712.734 3.59345 -1.60108 0
M  V30 7616 H 714.749 4.80385 -1.24276 0
M  V30 7617 N 713.922 1.13953 1.08869 0
M  V30 7618 C 715.338 0.878924 1.33218 0
M  V30 7619 C 715.538 -0.482478 1.95638 0
M  V30 7620 O 714.594 -1.22778 2.2064 0
M  V30 7621 C 715.907 2.00798 2.23832 0
M  V30 7622 C 717.455 2.04073 2.37325 0
M  V30 7623 C 717.93 3.16258 3.31278 0
M  V30 7624 N 719.421 3.15805 3.38853 0
M  V30 7625 C 720.156 3.99249 4.11567 0
M  V30 7626 N 719.652 4.92721 4.87029 0
M  V30 7627 N 721.445 3.87327 4.0735 0
M  V30 7628 H 713.596 2.01645 0.66731 0
M  V30 7629 H 715.859 0.878395 0.356547 0
M  V30 7630 H 715.565 2.98986 1.85203 0
M  V30 7631 H 715.439 1.92704 3.24261 0
M  V30 7632 H 717.826 1.06495 2.75214 0
M  V30 7633 H 717.907 2.16239 1.36654 0
M  V30 7634 H 717.551 4.14079 2.9411 0
M  V30 7635 H 717.481 3.0133 4.31866 0
M  V30 7636 H 719.972 2.48102 2.8505 0
M  V30 7637 H 720.285 5.52867 5.39961 0
M  V30 7638 H 718.63 4.96723 4.86098 0
M  V30 7639 H 721.821 3.13627 3.475 0
M  V30 7640 H 721.994 4.52585 4.63757 0
M  V30 7641 N 715.4 -1.26948 0.933913 0
M  V30 7642 C 716.677 -1.89212 0.495784 0
M  V30 7643 C 717.057 -1.84469 -1.02637 0
M  V30 7644 O 716.405 -1.29409 -1.88323 0
M  V30 7645 C 716.615 -3.32865 1.0489 0
M  V30 7646 C 717.963 -4.09749 1.11315 0
M  V30 7647 O 718.987 -3.41905 0.998966 0
M  V30 7648 O 717.846 -5.31061 1.28983 0
M  V30 7649 H 714.94 -0.811284 0.160459 0
M  V30 7650 H 717.486 -1.35171 1.02601 0
M  V30 7651 H 716.258 -3.30642 2.09265 0
M  V30 7652 H 715.881 -3.94435 0.500692 0
M  V30 7653 N 716.879 -0.700114 -1.41195 0
M  V30 7654 C 718.128 -0.230082 -2.00383 0
M  V30 7655 C 718.441 1.17857 -1.56106 0
M  V30 7656 O 719.647 1.74631 -2.07885 0
M  V30 7657 C 718.103 -0.360447 -3.5809 0
M  V30 7658 C 717.711 -1.77475 -4.11347 0
M  V30 7659 C 719.455 0.0495799 -4.24471 0
M  V30 7660 C 717.362 -1.85653 -5.61504 0
M  V30 7661 H 716.292 -0.0822633 -0.749499 0
M  V30 7662 H 718.943 -0.868969 -1.6162 0
M  V30 7663 H 717.325 0.346768 -3.94479 0
M  V30 7664 H 718.499 -2.51109 -3.86369 0
M  V30 7665 H 716.814 -2.13486 -3.57509 0
M  V30 7666 H 719.411 0.00898219 -5.34699 0
M  V30 7667 H 719.754 1.08904 -4.01803 0
M  V30 7668 H 720.287 -0.607521 -3.93134 0
M  V30 7669 H 717.026 -2.87667 -5.89006 0
M  V30 7670 H 716.546 -1.1641 -5.88395 0
M  V30 7671 H 718.225 -1.62151 -6.26351 0
M  V30 7672 N 718.357 1.51182 -0.445186 0
M  V30 7673 C 719.307 2.24804 0.380394 0
M  V30 7674 C 720.291 1.27344 0.983482 0
M  V30 7675 O 721.483 1.52392 0.900322 0
M  V30 7676 C 718.612 3.09922 1.4766 0
M  V30 7677 C 717.698 4.14816 0.882517 0
M  V30 7678 N 718.089 5.05797 0.0183278 0
M  V30 7679 C 716.387 4.30938 1.14927 0
M  V30 7680 C 717.088 5.8084 -0.316152 0
M  V30 7681 N 716.064 5.42759 0.302214 0
M  V30 7682 H 719.866 2.92508 -0.285737 0
M  V30 7683 H 717.38 1.60342 -0.257733 0
M  V30 7684 H 719.377 3.61249 2.08098 0
M  V30 7685 H 718.037 2.43763 2.14498 0
M  V30 7686 H 719.048 5.16725 -0.348679 0
M  V30 7687 H 715.725 3.76005 1.81457 0
M  V30 7688 H 717.115 6.64115 -1.01986 0
M  V30 7689 N 719.835 0.176821 1.56605 0
M  V30 7690 C 720.768 -0.790135 2.14084 0
M  V30 7691 C 721.746 -1.22219 1.07244 0
M  V30 7692 O 722.93 -1.31298 1.35252 0
M  V30 7693 C 720.057 -2.06475 2.68488 0
M  V30 7694 C 719.103 -1.77628 3.87751 0
M  V30 7695 S 719.936 -0.940612 5.27174 0
M  V30 7696 C 721.092 -2.22577 5.84988 0
M  V30 7697 H 721.325 -0.30144 2.95768 0
M  V30 7698 H 718.858 -0.0379279 1.54353 0
M  V30 7699 H 720.816 -2.79683 3.00479 0
M  V30 7700 H 719.477 -2.52457 1.8688 0
M  V30 7701 H 718.67 -2.72215 4.24164 0
M  V30 7702 H 718.272 -1.12512 3.56675 0
M  V30 7703 H 720.564 -3.17992 5.98237 0
M  V30 7704 H 721.507 -1.90624 6.81959 0
M  V30 7705 H 721.915 -2.34588 5.13448 0
M  V30 7706 N 721.313 -1.57302 -0.09688 0
M  V30 7707 C 722.246 -1.97179 -1.14872 0
M  V30 7708 C 723.224 -0.844734 -1.38935 0
M  V30 7709 O 724.408 -1.10487 -1.52725 0
M  V30 7710 C 721.535 -2.28703 -2.49826 0
M  V30 7711 C 720.581 -3.51158 -2.42054 0
M  V30 7712 S 721.414 -5.0294 -1.83879 0
M  V30 7713 C 722.57 -5.37639 -3.2046 0
M  V30 7714 H 722.803 -2.86088 -0.808771 0
M  V30 7715 H 720.336 -1.51368 -0.304492 0
M  V30 7716 H 722.294 -2.47541 -3.27466 0
M  V30 7717 H 720.955 -1.40368 -2.8099 0
M  V30 7718 H 720.148 -3.70651 -3.41517 0
M  V30 7719 H 719.75 -3.31821 -1.72543 0
M  V30 7720 H 722.042 -5.34175 -4.16729 0
M  V30 7721 H 722.985 -6.38677 -3.05773 0
M  V30 7722 H 723.393 -4.651 -3.19909 0
M  V30 7723 N 722.791 0.367657 -1.53252 0
M  V30 7724 C 723.721 1.45632 -1.8252 0
M  V30 7725 C 724.702 1.55979 -0.678568 0
M  V30 7726 O 725.887 1.70581 -0.928217 0
M  V30 7727 C 723.017 2.82994 -2.01325 0
M  V30 7728 C 721.971 2.87473 -3.17086 0
M  V30 7729 C 721.297 4.2749 -3.21179 0
M  V30 7730 C 722.597 2.55182 -4.55719 0
M  V30 7731 H 724.291 1.21387 -2.73689 0
M  V30 7732 H 721.837 0.58251 -1.31692 0
M  V30 7733 H 723.79 3.59179 -2.20383 0
M  V30 7734 H 722.514 3.08622 -1.06864 0
M  V30 7735 H 721.173 2.13739 -2.97844 0
M  V30 7736 H 720.821 4.5019 -2.24361 0
M  V30 7737 H 720.521 4.31403 -3.98955 0
M  V30 7738 H 722.045 5.0555 -3.42419 0
M  V30 7739 H 723.459 3.21081 -4.74953 0
M  V30 7740 H 721.856 2.70414 -5.3572 0
M  V30 7741 H 722.926 1.5044 -4.60973 0
M  V30 7742 N 724.269 1.44576 0.627338 0
M  V30 7743 C 725.517 1.47267 1.38408 0
M  V30 7744 C 725.838 0.107971 1.94701 0
M  V30 7745 O 725.108 -0.860206 1.76004 0
M  V30 7746 H 723.688 0.542276 0.513756 0
M  V30 7747 H 726.35 1.80383 0.738099 0
M  V30 7748 H 725.446 2.20025 2.21349 0
M  V30 7749 N 725.747 -0.868086 1.31537 0
M  V30 7750 C 726.994 -1.62127 1.2133 0
M  V30 7751 C 727.322 -1.93158 -0.2281 0
M  V30 7752 O 726.577 -1.5632 -1.1774 0
M  V30 7753 C 726.876 -2.95889 2.0046 0
M  V30 7754 C 726.542 -2.84343 3.49943 0
M  V30 7755 C 725.204 -2.80901 3.90702 0
M  V30 7756 C 727.556 -2.71243 4.45058 0
M  V30 7757 C 724.884 -2.6222 5.24841 0
M  V30 7758 C 727.236 -2.54098 5.79325 0
M  V30 7759 C 725.9 -2.4904 6.19302 0
M  V30 7760 H 725.17 -0.593265 0.443979 0
M  V30 7761 H 727.817 -1.00803 1.62822 0
M  V30 7762 H 726.122 -3.61259 1.51655 0
M  V30 7763 H 727.819 -3.53161 1.89942 0
M  V30 7764 H 724.409 -2.8784 3.17563 0
M  V30 7765 H 728.593 -2.72956 4.14498 0
M  V30 7766 H 723.849 -2.56731 5.54887 0
M  V30 7767 H 728.023 -2.42938 6.52652 0
M  V30 7768 H 725.65 -2.34324 7.23185 0
M  V30 7769 N 727.225 -1.14528 -1.08264 0
M  V30 7770 C 728.172 -0.833556 -2.15222 0
M  V30 7771 C 729.142 0.209539 -1.64773 0
M  V30 7772 O 730.327 0.0791388 -1.90636 0
M  V30 7773 C 727.467 -0.318799 -3.43624 0
M  V30 7774 C 726.58 -1.42237 -4.07913 0
M  V30 7775 C 725.715 -0.864704 -5.24115 0
M  V30 7776 C 724.754 -1.94585 -5.80347 0
M  V30 7777 N 723.891 -1.40525 -6.87893 0
M  V30 7778 H 728.731 -1.74965 -2.41228 0
M  V30 7779 H 726.268 -0.873169 -1.18381 0
M  V30 7780 H 728.226 -0.00213088 -4.172 0
M  V30 7781 H 726.856 0.560397 -3.17898 0
M  V30 7782 H 725.908 -1.8554 -3.32083 0
M  V30 7783 H 727.22 -2.23901 -4.45724 0
M  V30 7784 H 726.374 -0.500025 -6.04636 0
M  V30 7785 H 725.113 -0.0171219 -4.87697 0
M  V30 7786 H 724.118 -2.31946 -4.98479 0
M  V30 7787 H 725.343 -2.79704 -6.18823 0
M  V30 7788 H 723.289 -0.579873 -6.53432 0
M  V30 7789 H 723.206 -2.15825 -7.24538 0
M  V30 7790 H 724.474 -1.06852 -7.72142 0
M  V30 7791 N 728.703 1.26451 -0.940633 0
M  V30 7792 C 730.114 1.75726 -0.630653 0
M  V30 7793 C 730.465 1.76631 0.854167 0
M  V30 7794 O 729.59 1.37807 1.66848 0
M  V30 7795 C 730.185 3.19114 -1.13805 0
M  V30 7796 C 728.744 3.66005 -0.878497 0
M  V30 7797 C 727.891 2.45505 -1.28928 0
M  V30 7798 H 730.842 1.12535 -1.119 0
M  V30 7799 H 730.863 3.77311 -0.491625 0
M  V30 7800 H 730.375 3.18424 -2.21874 0
M  V30 7801 H 728.476 3.72126 0.187833 0
M  V30 7802 H 728.589 4.54844 -1.50512 0
M  V30 7803 H 726.953 2.4467 -0.707713 0
M  V30 7804 H 727.736 2.47516 -2.37888 0
M  V30 7805 N 730.181 0.707592 1.40822 0
M  V30 7806 C 731.429 0.243189 2.00632 0
M  V30 7807 C 731.75 -1.16512 1.56365 0
M  V30 7808 O 731.02 -1.78841 0.799553 0
M  V30 7809 H 729.6 0.0869203 0.741926 0
M  V30 7810 H 732.262 0.911438 1.72275 0
M  V30 7811 H 731.358 0.270014 3.1093 0
M  V30 7812 N 731.66 -1.50943 0.453197 0
M  V30 7813 C 732.59 -2.31005 -0.34044 0
M  V30 7814 C 733.571 -1.37112 -1.00669 0
M  V30 7815 O 734.756 -1.66033 -1.0073 0
M  V30 7816 C 731.886 -3.16358 -1.433 0
M  V30 7817 C 730.84 -4.18658 -0.889363 0
M  V30 7818 C 730.166 -4.92633 -2.07887 0
M  V30 7819 C 731.466 -5.22227 0.0871142 0
M  V30 7820 H 733.16 -2.97601 0.327723 0
M  V30 7821 H 730.706 -1.43119 0.159054 0
M  V30 7822 H 732.659 -3.71155 -1.99555 0
M  V30 7823 H 731.383 -2.47613 -2.12968 0
M  V30 7824 H 730.042 -3.64936 -0.348915 0
M  V30 7825 H 729.69 -4.20376 -2.76211 0
M  V30 7826 H 729.39 -5.61819 -1.72143 0
M  V30 7827 H 730.914 -5.50258 -2.64666 0
M  V30 7828 H 732.328 -5.72001 -0.385656 0
M  V30 7829 H 730.725 -5.99032 0.357926 0
M  V30 7830 H 731.795 -4.74077 1.01879 0
M  V30 7831 N 733.138 -0.185124 -1.56509 0
M  V30 7832 C 734.368 0.461469 -2.0138 0
M  V30 7833 C 734.776 1.56417 -1.06445 0
M  V30 7834 O 734.119 1.83603 -0.0597515 0
M  V30 7835 C 734.181 1.08731 -3.42663 0
M  V30 7836 C 733.845 0.124581 -4.5683 0
M  V30 7837 C 734.842 -0.662295 -5.15664 0
M  V30 7838 C 732.527 0.0163947 -5.02297 0
M  V30 7839 C 734.521 -1.54442 -6.18406 0
M  V30 7840 C 732.208 -0.869301 -6.04885 0
M  V30 7841 C 733.206 -1.64828 -6.62813 0
M  V30 7842 O 732.894 -2.51915 -7.63409 0
M  V30 7843 H 732.626 0.1212 -0.665046 0
M  V30 7844 H 735.18 -0.288119 -2.03369 0
M  V30 7845 H 733.41 1.8853 -3.37629 0
M  V30 7846 H 735.099 1.63753 -3.71403 0
M  V30 7847 H 735.865 -0.588963 -4.81411 0
M  V30 7848 H 731.744 0.61253 -4.56913 0
M  V30 7849 H 735.288 -2.15289 -6.63548 0
M  V30 7850 H 731.185 -0.943786 -6.38563 0
M  V30 7851 H 731.953 -2.45584 -7.80789 0
M  V30 7852 N 734.616 1.57351 0.0885366 0
M  V30 7853 C 735.863 1.86419 0.790824 0
M  V30 7854 C 736.191 0.774561 1.78412 0
M  V30 7855 O 735.446 -0.23119 1.9433 0
M  V30 7856 C 735.745 3.22098 1.5488 0
M  V30 7857 C 735.411 4.4548 0.697025 0
M  V30 7858 C 734.073 4.78975 0.462237 0
M  V30 7859 C 736.425 5.21094 0.105315 0
M  V30 7860 C 733.753 5.85507 -0.374016 0
M  V30 7861 C 736.105 6.28509 -0.718298 0
M  V30 7862 C 734.769 6.60515 -0.963116 0
M  V30 7863 H 734.039 0.682157 0.289383 0
M  V30 7864 H 736.686 1.91429 0.0520961 0
M  V30 7865 H 734.991 3.12803 2.35927 0
M  V30 7866 H 736.688 3.41819 2.09669 0
M  V30 7867 H 733.278 4.19255 0.890137 0
M  V30 7868 H 737.462 4.95544 0.273856 0
M  V30 7869 H 732.718 6.08713 -0.572606 0
M  V30 7870 H 736.892 6.86268 -1.18362 0
M  V30 7871 H 734.519 7.42893 -1.6129 0
M  V30 7872 N 736.094 -0.359525 1.53444 0
M  V30 7873 C 737.51 -0.701599 1.43352 0
M  V30 7874 C 737.71 -1.93049 0.577439 0
M  V30 7875 O 736.766 -2.52423 0.0622224 0
M  V30 7876 C 738.079 -0.90915 2.86627 0
M  V30 7877 C 739.627 -1.00878 2.96298 0
M  V30 7878 C 740.102 -1.24876 4.40647 0
M  V30 7879 N 741.593 -1.31632 4.44103 0
M  V30 7880 C 742.328 -1.51922 5.52908 0
M  V30 7881 N 741.824 -1.69489 6.71748 0
M  V30 7882 N 743.617 -1.54341 5.40496 0
M  V30 7883 H 735.768 0.448685 2.07607 0
M  V30 7884 H 738.031 0.138713 0.937797 0
M  V30 7885 H 737.737 -0.0778997 3.51614 0
M  V30 7886 H 737.611 -1.81551 3.30634 0
M  V30 7887 H 739.998 -1.83057 2.31461 0
M  V30 7888 H 740.079 -0.0796721 2.55676 0
M  V30 7889 H 739.723 -0.431961 5.0606 0
M  V30 7890 H 739.653 -2.19118 4.78848 0
M  V30 7891 H 742.144 -1.19646 3.5846 0
M  V30 7892 H 742.457 -1.84561 7.50438 0
M  V30 7893 H 740.802 -1.66655 6.74723 0
M  V30 7894 H 743.993 -1.40188 4.46615 0
M  V30 7895 H 744.166 -1.69812 6.25354 0
M  V30 7896 N 737.572 -1.44907 -0.619662 0
M  V30 7897 C 738.535 -1.52282 -1.71297 0
M  V30 7898 C 739.535 -0.40359 -1.55653 0
M  V30 7899 O 740.725 -0.666638 -1.6094 0
M  V30 7900 C 737.857 -1.40778 -3.10474 0
M  V30 7901 H 739.05 -2.49683 -1.66128 0
M  V30 7902 H 736.603 -1.32168 -0.834339 0
M  V30 7903 H 737.338 -0.445156 -3.2123 0
M  V30 7904 H 737.123 -2.21947 -3.23237 0
M  V30 7905 H 738.613 -1.48946 -3.90135 0
M  V30 7906 N 739.05 0.861098 -1.31996 0
M  V30 7907 C 740.29 1.62873 -1.23498 0
M  V30 7908 C 740.654 1.90938 0.201692 0
M  V30 7909 O 741.855 2.6565 0.410305 0
M  V30 7910 C 740.126 2.91759 -2.06426 0
M  V30 7911 S 741.685 3.82583 -2.14885 0
M  V30 7912 H 738.503 0.558726 -0.439712 0
M  V30 7913 H 741.105 1.02025 -1.66767 0
M  V30 7914 H 739.809 2.69077 -3.0988 0
M  V30 7915 H 739.34 3.57627 -1.6391 0
M  V30 7916 H 741.355 4.7904 -1.29364 0
M  V30 7917 N 740.528 1.15101 1.07655 0
M  V30 7918 C 741.774 0.935313 1.8062 0
M  V30 7919 C 742.129 -0.532052 1.84897 0
M  V30 7920 O 741.422 -1.3893 1.31943 0
M  V30 7921 C 741.616 1.47954 3.25337 0
M  V30 7922 C 741.445 2.99829 3.35161 0
M  V30 7923 C 740.215 3.68348 3.45902 0
M  V30 7924 C 742.413 3.97638 3.26173 0
M  V30 7925 N 740.395 5.08062 3.44596 0
M  V30 7926 C 741.766 5.23651 3.31949 0
M  V30 7927 C 743.821 3.89651 3.09962 0
M  V30 7928 C 742.524 6.42609 3.23182 0
M  V30 7929 C 744.55 5.08164 3.02528 0
M  V30 7930 C 743.912 6.3305 3.08913 0
M  V30 7931 H 740.011 0.395876 0.674393 0
M  V30 7932 H 742.595 1.4625 1.28526 0
M  V30 7933 H 740.766 0.979022 3.75859 0
M  V30 7934 H 742.498 1.20298 3.86407 0
M  V30 7935 H 739.253 3.18928 3.50117 0
M  V30 7936 H 739.677 5.81023 3.47479 0
M  V30 7937 H 744.319 2.93966 3.03881 0
M  V30 7938 H 742.037 7.38531 3.28022 0
M  V30 7939 H 745.623 5.03742 2.91093 0
M  V30 7940 H 744.503 7.23214 3.03201 0
M  V30 7941 N 742.006 -1.2595 0.947325 0
M  V30 7942 C 742.936 -2.28521 0.479604 0
M  V30 7943 C 743.917 -1.63469 -0.470293 0
M  V30 7944 O 745.102 -1.90627 -0.370824 0
M  V30 7945 C 742.232 -3.46397 -0.250289 0
M  V30 7946 C 741.186 -4.23578 0.613643 0
M  V30 7947 C 740.512 -5.34131 -0.246568 0
M  V30 7948 C 741.812 -4.86979 1.88809 0
M  V30 7949 H 743.506 -2.67895 1.33688 0
M  V30 7950 H 741.052 -1.28783 0.644274 0
M  V30 7951 H 743.005 -4.17269 -0.588576 0
M  V30 7952 H 741.729 -3.05993 -1.14175 0
M  V30 7953 H 740.388 -3.54478 0.93491 0
M  V30 7954 H 740.036 -4.89968 -1.13756 0
M  V30 7955 H 739.736 -5.86683 0.328123 0
M  V30 7956 H 741.26 -6.07839 -0.579986 0
M  V30 7957 H 742.674 -5.50034 1.61666 0
M  V30 7958 H 741.071 -5.49675 2.40784 0
M  V30 7959 H 742.141 -4.09575 2.5957 0
M  V30 7960 N 743.484 -0.715051 -1.40445 0
M  V30 7961 C 744.731 -0.254328 -2.00897 0
M  V30 7962 C 745.059 1.15228 -1.56693 0
M  V30 7963 O 744.314 1.7958 -0.777786 0
M  V30 7964 C 744.613 -0.281791 -3.56287 0
M  V30 7965 C 744.279 -1.63862 -4.20071 0
M  V30 7966 C 742.941 -2.01003 -4.37208 0
M  V30 7967 C 745.293 -2.53039 -4.55654 0
M  V30 7968 C 742.621 -3.26869 -4.8721 0
M  V30 7969 C 744.973 -3.78256 -5.07055 0
M  V30 7970 C 743.637 -4.15515 -5.22401 0
M  V30 7971 H 742.907 -0.0930652 -0.735133 0
M  V30 7972 H 745.554 -0.917977 -1.68064 0
M  V30 7973 H 743.859 0.465428 -3.89026 0
M  V30 7974 H 745.556 0.0925158 -4.00893 0
M  V30 7975 H 742.146 -1.33979 -4.07121 0
M  V30 7976 H 746.33 -2.2562 -4.42051 0
M  V30 7977 H 741.586 -3.55706 -4.97276 0
M  V30 7978 H 745.76 -4.47528 -5.33565 0
M  V30 7979 H 743.387 -5.13114 -5.60909 0
M  V30 7980 N 744.962 1.50701 -0.461195 0
M  V30 7981 C 745.892 2.31182 0.328184 0
M  V30 7982 C 746.873 1.37644 0.999408 0
M  V30 7983 O 748.058 1.66565 0.99848 0
M  V30 7984 C 745.188 3.17113 1.41621 0
M  V30 7985 C 744.142 4.19124 0.867148 0
M  V30 7986 C 743.468 4.93728 2.05272 0
M  V30 7987 C 744.768 5.22174 -0.114808 0
M  V30 7988 H 746.462 2.97423 -0.343501 0
M  V30 7989 H 744.008 1.43033 -0.166641 0
M  V30 7990 H 745.961 3.72208 1.97584 0
M  V30 7991 H 744.685 2.48739 2.11652 0
M  V30 7992 H 743.344 3.65116 0.329557 0
M  V30 7993 H 742.992 4.21835 2.73978 0
M  V30 7994 H 742.692 5.62724 1.69161 0
M  V30 7995 H 744.216 5.51654 2.61744 0
M  V30 7996 H 745.63 5.72198 0.355316 0
M  V30 7997 H 744.027 5.98833 -0.389689 0
M  V30 7998 H 745.097 4.7353 -1.04391 0
M  V30 7999 N 746.441 0.193421 1.56409 0
M  V30 8000 C 747.666 -0.454552 2.02358 0
M  V30 8001 C 748.091 -1.54516 1.07268 0
M  V30 8002 O 747.449 -1.81214 0.0558962 0
M  V30 8003 C 747.497 -0.989469 3.46759 0
M  V30 8004 O 746.601 -2.10244 3.54783 0
M  V30 8005 H 745.942 -0.106417 0.655417 0
M  V30 8006 H 748.472 0.303807 2.02332 0
M  V30 8007 H 748.482 -1.30649 3.86516 0
M  V30 8008 H 747.157 -0.191083 4.15461 0
M  V30 8009 H 745.734 -1.79419 3.26899 0
M  V30 8010 N 747.919 -1.57396 -0.0801906 0
M  V30 8011 C 749.33 -1.75642 -0.633002 0
M  V30 8012 C 749.681 -0.817708 -1.78348 0
M  V30 8013 O 748.806 0.000233743 -2.164 0
M  V30 8014 C 749.401 -3.18502 -1.15507 0
M  V30 8015 C 747.96 -3.38121 -1.65381 0
M  V30 8016 C 747.107 -2.71386 -0.569661 0
M  V30 8017 H 750.058 -1.58027 0.145949 0
M  V30 8018 H 750.079 -3.22198 -2.02408 0
M  V30 8019 H 749.591 -3.86799 -0.317515 0
M  V30 8020 H 747.692 -2.74926 -2.51488 0
M  V30 8021 H 747.805 -4.46521 -1.73654 0
M  V30 8022 H 746.169 -2.33702 -1.0127 0
M  V30 8023 H 746.952 -3.42332 0.257561 0
M  V30 8024 N 749.397 0.351382 -1.53633 0
M  V30 8025 C 750.36 1.41403 -1.80383 0
M  V30 8026 C 751.36 1.45963 -0.674635 0
M  V30 8027 O 752.55 1.46476 -0.942895 0
M  V30 8028 C 749.682 2.80401 -1.93876 0
M  V30 8029 H 750.875 1.18951 -2.75301 0
M  V30 8030 H 748.428 0.58533 -1.44926 0
M  V30 8031 H 749.163 3.08147 -1.01074 0
M  V30 8032 H 748.948 2.78488 -2.7602 0
M  V30 8033 H 750.438 3.57329 -2.16116 0
M  V30 8034 N 750.875 1.45233 0.611969 0
M  V30 8035 C 752.103 1.52539 1.39784 0
M  V30 8036 C 752.518 0.156533 1.8815 0
M  V30 8037 O 751.875 -0.84112 1.61961 0
M  V30 8038 C 751.926 2.50614 2.60528 0
M  V30 8039 O 751.647 3.8218 2.14173 0
M  V30 8040 C 753.148 2.67574 3.53439 0
M  V30 8041 H 750.368 0.51674 0.428043 0
M  V30 8042 H 752.912 1.90379 0.746727 0
M  V30 8043 H 751.067 2.15858 3.2169 0
M  V30 8044 H 751.481 4.35305 2.92592 0
M  V30 8045 H 752.955 3.40184 4.34717 0
M  V30 8046 H 753.432 1.73458 4.03496 0
M  V30 8047 H 754.038 3.0331 2.98133 0
M  V30 8048 N 752.353 -0.854086 1.3245 0
M  V30 8049 C 753.283 -1.97827 1.24044 0
M  V30 8050 C 754.264 -1.69646 0.124166 0
M  V30 8051 O 755.449 -1.91687 0.31143 0
M  V30 8052 C 752.579 -3.33673 0.963324 0
M  V30 8053 C 751.533 -3.76207 2.04089 0
M  V30 8054 C 750.859 -5.0969 1.61618 0
M  V30 8055 C 752.159 -3.91612 3.45597 0
M  V30 8056 H 753.853 -2.05118 2.18099 0
M  V30 8057 H 751.399 -0.985489 1.04996 0
M  V30 8058 H 753.352 -4.11871 0.891061 0
M  V30 8059 H 752.076 -3.26597 -0.0128649 0
M  V30 8060 H 750.735 -3.0026 2.10332 0
M  V30 8061 H 750.383 -4.99072 0.627418 0
M  V30 8062 H 750.083 -5.3912 2.33717 0
M  V30 8063 H 751.607 -5.90381 1.55829 0
M  V30 8064 H 753.021 -4.60163 3.4194 0
M  V30 8065 H 751.418 -4.3246 4.16051 0
M  V30 8066 H 752.488 -2.9451 3.85217 0
M  V30 8067 N 753.831 -1.1567 -1.07043 0
M  V30 8068 C 754.761 -0.879348 -2.16309 0
M  V30 8069 C 755.742 0.171311 -1.69235 0
M  V30 8070 O 756.927 0.0250175 -1.94184 0
M  V30 8071 C 754.057 -0.371307 -3.45309 0
M  V30 8072 C 753.011 -1.359 -4.05851 0
M  V30 8073 C 752.337 -0.709678 -5.29969 0
M  V30 8074 C 753.637 -2.72606 -4.45514 0
M  V30 8075 H 755.331 -1.79308 -2.39768 0
M  V30 8076 H 752.877 -0.863558 -1.15233 0
M  V30 8077 H 754.83 -0.164798 -4.21078 0
M  V30 8078 H 753.554 0.577906 -3.21446 0
M  V30 8079 H 752.213 -1.55193 -3.32131 0
M  V30 8080 H 751.861 0.245782 -5.02399 0
M  V30 8081 H 751.561 -1.36886 -5.71433 0
M  V30 8082 H 753.085 -0.513015 -6.08441 0
M  V30 8083 H 754.499 -2.57141 -5.12398 0
M  V30 8084 H 752.896 -3.34927 -4.97939 0
M  V30 8085 H 753.966 -3.28434 -3.56734 0
M  V30 8086 N 755.309 1.25446 -0.953992 0
M  V30 8087 C 756.272 2.24156 -0.478179 0
M  V30 8088 C 757.272 1.55278 0.417776 0
M  V30 8089 O 758.462 1.72866 0.215155 0
M  V30 8090 C 755.594 3.39495 0.309202 0
M  V30 8091 H 756.787 2.67764 -1.35064 0
M  V30 8092 H 754.34 1.37822 -0.737206 0
M  V30 8093 H 755.075 3.01307 1.19936 0
M  V30 8094 H 754.86 3.90679 -0.333562 0
M  V30 8095 H 756.35 4.12796 0.631594 0
M  V30 8096 N 756.787 0.722489 1.40064 0
M  V30 8097 C 757.717 0.0892452 2.33329 0
M  V30 8098 C 758.698 -0.737992 1.53257 0
M  V30 8099 O 759.883 -0.685516 1.81698 0
M  V30 8100 C 757.013 -0.828139 3.37282 0
M  V30 8101 C 755.967 -0.106005 4.27869 0
M  V30 8102 C 755.293 -1.13957 5.22415 0
M  V30 8103 C 756.593 1.04395 5.11761 0
M  V30 8104 H 758.287 0.868269 2.86534 0
M  V30 8105 H 755.833 0.418982 1.3777 0
M  V30 8106 H 757.786 -1.28058 4.01471 0
M  V30 8107 H 756.51 -1.63914 2.82489 0
M  V30 8108 H 755.169 0.326683 3.65142 0
M  V30 8109 H 754.817 -1.9438 4.63924 0
M  V30 8110 H 754.517 -0.661233 5.83868 0
M  V30 8111 H 756.041 -1.59197 5.89482 0
M  V30 8112 H 757.455 0.670541 5.69365 0
M  V30 8113 H 755.852 1.4511 5.82291 0
M  V30 8114 H 756.922 1.87144 4.47331 0
M  V30 8115 N 758.265 -1.50454 0.469181 0
M  V30 8116 C 759.198 -2.25149 -0.371928 0
M  V30 8117 C 760.176 -1.28382 -0.997845 0
M  V30 8118 O 761.36 -1.57599 -1.03415 0
M  V30 8119 C 758.487 -3.02629 -1.52097 0
M  V30 8120 C 757.533 -4.14305 -1.01262 0
M  V30 8121 S 758.366 -5.35453 0.0711459 0
M  V30 8122 C 759.522 -6.1648 -1.08181 0
M  V30 8123 H 759.755 -2.96142 0.262134 0
M  V30 8124 H 757.288 -1.52296 0.254042 0
M  V30 8125 H 759.246 -3.47861 -2.17952 0
M  V30 8126 H 757.907 -2.31165 -2.12654 0
M  V30 8127 H 757.1 -4.67913 -1.87278 0
M  V30 8128 H 756.702 -3.71499 -0.431804 0
M  V30 8129 H 758.994 -6.47497 -1.99382 0
M  V30 8130 H 759.937 -7.05679 -0.585028 0
M  V30 8131 H 760.345 -5.48492 -1.33478 0
M  V30 8132 N 759.743 -0.201713 -1.56304 0
M  V30 8133 C 760.989 0.435952 -1.98059 0
M  V30 8134 C 761.322 1.60811 -1.08873 0
M  V30 8135 O 760.597 1.9398 -0.142128 0
M  V30 8136 C 760.88 0.889706 -3.48936 0
M  V30 8137 C 760.733 -0.284725 -4.48898 0
M  V30 8138 C 762.052 1.7529 -4.03685 0
M  V30 8139 H 759.171 0.15699 -0.720085 0
M  V30 8140 H 761.813 -0.293965 -1.87712 0
M  V30 8141 H 759.963 1.51166 -3.57884 0
M  V30 8142 H 761.635 -0.922531 -4.51981 0
M  V30 8143 H 759.878 -0.935427 -4.23594 0
M  V30 8144 H 760.549 0.0753865 -5.51949 0
M  V30 8145 H 763.025 1.2283 -3.97558 0
M  V30 8146 H 761.901 2.03933 -5.0961 0
M  V30 8147 H 762.162 2.70939 -3.49348 0
M  V30 8148 N 761.222 1.57436 0.0718424 0
M  V30 8149 C 762.452 1.91196 0.782795 0
M  V30 8150 C 762.86 0.795927 1.71644 0
M  V30 8151 O 762.203 -0.239604 1.82131 0
M  V30 8152 C 762.265 3.20421 1.63005 0
M  V30 8153 C 761.929 4.48724 0.865782 0
M  V30 8154 C 762.926 5.19571 0.185051 0
M  V30 8155 C 760.611 4.95345 0.832971 0
M  V30 8156 C 762.605 6.3529 -0.518264 0
M  V30 8157 C 760.292 6.1097 0.125884 0
M  V30 8158 C 761.29 6.80794 -0.548533 0
M  V30 8159 O 760.978 7.94213 -1.24423 0
M  V30 8160 H 760.71 0.636486 0.227731 0
M  V30 8161 H 763.264 2.05348 0.0464187 0
M  V30 8162 H 761.494 3.02478 2.40923 0
M  V30 8163 H 763.183 3.39831 2.21968 0
M  V30 8164 H 763.949 4.8458 0.201707 0
M  V30 8165 H 759.828 4.40871 1.34737 0
M  V30 8166 H 763.372 6.89725 -1.04523 0
M  V30 8167 H 759.269 6.45411 0.107155 0
M  V30 8168 H 760.037 8.10331 -1.1535 0
M  V30 8169 N 762.7 -0.34323 1.53817 0
M  V30 8170 C 763.925 -1.1079 1.75329 0
M  V30 8171 C 764.35 -1.81571 0.491293 0
M  V30 8172 O 763.708 -1.72561 -0.556089 0
M  V30 8173 C 763.756 -2.09681 2.9337 0
M  V30 8174 O 762.86 -3.17207 2.63541 0
M  V30 8175 H 762.201 -0.320402 0.581583 0
M  V30 8176 H 764.731 -0.393525 2.0078 0
M  V30 8177 H 764.741 -2.52897 3.20168 0
M  V30 8178 H 763.416 -1.5756 3.84899 0
M  V30 8179 H 761.993 -2.78806 2.47632 0
M  V30 8180 N 764.178 -1.45556 -0.604258 0
M  V30 8181 C 765.427 -1.49019 -1.35928 0
M  V30 8182 C 765.74 -0.137409 -1.95117 0
M  V30 8183 O 766.946 -0.0497032 -2.71455 0
M  V30 8184 C 765.402 -2.62477 -2.46239 0
M  V30 8185 C 765.01 -4.04082 -1.93447 0
M  V30 8186 C 766.754 -2.7519 -3.23219 0
M  V30 8187 C 764.661 -5.08917 -3.0126 0
M  V30 8188 H 763.591 -0.554518 -0.510907 0
M  V30 8189 H 766.242 -1.71705 -0.647262 0
M  V30 8190 H 764.624 -2.3308 -3.2014 0
M  V30 8191 H 765.798 -4.43173 -1.26232 0
M  V30 8192 H 764.113 -3.95849 -1.29201 0
M  V30 8193 H 766.71 -3.50683 -4.0364 0
M  V30 8194 H 767.053 -1.81941 -3.74437 0
M  V30 8195 H 767.586 -3.04129 -2.56418 0
M  V30 8196 H 764.325 -6.03886 -2.54955 0
M  V30 8197 H 763.845 -4.74393 -3.67031 0
M  V30 8198 H 765.524 -5.33814 -3.65584 0
M  V30 8199 N 765.656 0.84705 -1.32902 0
M  V30 8200 C 766.902 1.60414 -1.24078 0
M  V30 8201 C 767.235 1.93217 0.195105 0
M  V30 8202 O 766.51 1.58001 1.13428 0
M  V30 8203 C 766.793 2.91951 -2.108 0
M  V30 8204 C 766.646 2.6588 -3.62805 0
M  V30 8205 C 767.965 3.93299 -1.97494 0
M  V30 8206 H 765.084 0.58206 -0.452079 0
M  V30 8207 H 767.726 0.977562 -1.62922 0
M  V30 8208 H 765.876 3.45425 -1.77802 0
M  V30 8209 H 767.548 2.18902 -4.06054 0
M  V30 8210 H 765.791 1.99716 -3.85092 0
M  V30 8211 H 766.462 3.59574 -4.1882 0
M  V30 8212 H 768.938 3.49105 -2.26417 0
M  V30 8213 H 767.814 4.8318 -2.60438 0
M  V30 8214 H 768.075 4.31887 -0.944782 0
M  V30 8215 N 767.134 1.16236 1.06428 0
M  V30 8216 C 768.081 0.86769 2.13869 0
M  V30 8217 C 769.051 -0.183298 1.65086 0
M  V30 8218 O 770.236 -0.0488002 1.90738 0
M  V30 8219 C 767.376 0.373427 3.43074 0
M  V30 8220 C 766.489 1.48708 4.05598 0
M  V30 8221 C 765.624 0.947977 5.22673 0
M  V30 8222 C 764.663 2.03793 5.77178 0
M  V30 8223 N 763.8 1.51451 6.85571 0
M  V30 8224 H 768.64 1.78781 2.38414 0
M  V30 8225 H 766.177 0.891892 1.16977 0
M  V30 8226 H 768.135 0.0685035 4.17144 0
M  V30 8227 H 766.765 -0.509752 3.1875 0
M  V30 8228 H 765.817 1.908 3.29089 0
M  V30 8229 H 767.129 2.30964 4.42105 0
M  V30 8230 H 766.283 0.596154 6.03764 0
M  V30 8231 H 765.022 0.0947081 4.87608 0
M  V30 8232 H 764.027 2.39847 4.94726 0
M  V30 8233 H 765.252 2.89514 6.14295 0
M  V30 8234 H 763.198 0.683755 6.52427 0
M  V30 8235 H 763.115 2.27325 7.21013 0
M  V30 8236 H 764.383 1.19123 7.70344 0
M  V30 8237 N 768.612 -1.24939 0.960631 0
M  V30 8238 C 769.842 -1.96595 0.635123 0
M  V30 8239 C 770.25 -1.71538 -0.798206 0
M  V30 8240 O 769.593 -0.991727 -1.5463 0
M  V30 8241 C 769.655 -3.49994 0.821248 0
M  V30 8242 C 769.319 -3.98738 2.23287 0
M  V30 8243 C 770.316 -4.08965 3.21004 0
M  V30 8244 C 768.001 -4.32247 2.55867 0
M  V30 8245 C 769.995 -4.52025 4.49391 0
M  V30 8246 C 767.682 -4.74991 3.84482 0
M  V30 8247 C 768.68 -4.84844 4.81056 0
M  V30 8248 O 768.368 -5.26638 6.07378 0
M  V30 8249 H 768.1 -0.633265 0.23654 0
M  V30 8250 H 770.654 -1.5991 1.28911 0
M  V30 8251 H 768.884 -3.86543 0.110105 0
M  V30 8252 H 770.573 -4.02859 0.495892 0
M  V30 8253 H 771.339 -3.83302 2.97161 0
M  V30 8254 H 767.218 -4.23801 1.81421 0
M  V30 8255 H 770.762 -4.5963 5.24773 0
M  V30 8256 H 766.659 -5.00101 4.08129 0
M  V30 8257 H 767.427 -5.44807 6.10842 0
M  V30 8258 N 770.09 -0.729906 -1.39679 0
M  V30 8259 C 771.022 -0.0470588 -2.29152 0
M  V30 8260 C 772.035 0.708808 -1.4656 0
M  V30 8261 O 773.224 0.553815 -1.69691 0
M  V30 8262 C 770.324 0.957612 -3.25089 0
M  V30 8263 C 769.497 0.264321 -4.36601 0
M  V30 8264 C 768.556 1.17638 -5.12882 0
M  V30 8265 O 767.582 0.655777 -5.6541 0
M  V30 8266 N 768.784 2.50649 -5.23598 0
M  V30 8267 H 771.549 -0.815364 -2.88395 0
M  V30 8268 H 769.11 -0.578707 -1.51204 0
M  V30 8269 H 771.102 1.57026 -3.72995 0
M  V30 8270 H 769.672 1.62716 -2.66912 0
M  V30 8271 H 768.892 -0.528732 -3.90638 0
M  V30 8272 H 770.18 -0.216344 -5.0834 0
M  V30 8273 H 769.578 2.95427 -4.82431 0
M  V30 8274 H 768.135 3.07022 -5.74961 0
M  V30 8275 N 771.568 1.50203 -0.477153 0
M  V30 8276 C 772.979 1.86685 -0.0235041 0
M  V30 8277 C 773.33 1.39148 1.38319 0
M  V30 8278 O 772.455 0.759051 2.02651 0
M  V30 8279 C 773.05 3.38781 -0.0358767 0
M  V30 8280 C 771.609 3.74652 0.362327 0
M  V30 8281 C 770.756 2.7412 -0.41875 0
M  V30 8282 H 773.707 1.4286 -0.691133 0
M  V30 8283 H 773.728 3.72732 0.764924 0
M  V30 8284 H 773.24 3.73349 -1.05981 0
M  V30 8285 H 771.341 3.45686 1.39039 0
M  V30 8286 H 771.454 4.79063 0.059457 0
M  V30 8287 H 769.818 2.54376 0.128341 0
M  V30 8288 H 770.601 3.11532 -1.44231 0
M  V30 8289 N 773.046 0.209999 1.56195 0
M  V30 8290 C 774.271 -0.433064 2.02828 0
M  V30 8291 C 774.696 -1.5337 1.08901 0
M  V30 8292 O 774.054 -1.81144 0.0751132 0
M  V30 8293 C 774.102 -0.952635 3.47789 0
M  V30 8294 O 773.206 -2.0647 3.56993 0
M  V30 8295 H 772.547 -0.0994594 0.656509 0
M  V30 8296 H 775.077 0.32525 2.01998 0
M  V30 8297 H 775.087 -1.26542 3.8788 0
M  V30 8298 H 773.762 -0.147007 4.1564 0
M  V30 8299 H 772.339 -1.75942 3.28784 0
M  V30 8300 N 774.524 -1.57472 -0.0634922 0
M  V30 8301 C 775.434 -2.07621 -1.09227 0
M  V30 8302 C 776.45 -1.00746 -1.41867 0
M  V30 8303 O 777.626 -1.32269 -1.51878 0
M  V30 8304 C 774.691 -2.51707 -2.38421 0
M  V30 8305 C 773.752 -3.72917 -2.12676 0
M  V30 8306 C 772.985 -4.14891 -3.3571 0
M  V30 8307 O 773.208 -3.56663 -4.45137 0
M  V30 8308 O 772.142 -5.07616 -3.23434 0
M  V30 8309 H 775.968 -2.95612 -0.696205 0
M  V30 8310 H 773.553 -1.46787 -0.27819 0
M  V30 8311 H 775.435 -2.80547 -3.14438 0
M  V30 8312 H 774.11 -1.66842 -2.77391 0
M  V30 8313 H 773.017 -3.49148 -1.34337 0
M  V30 8314 H 774.35 -4.5866 -1.78583 0
M  V30 8315 N 776.003 0.335068 -1.53997 0
M  V30 8316 C 777.233 1.0926 -1.75345 0
M  V30 8317 C 777.641 1.82568 -0.496545 0
M  V30 8318 O 776.984 1.75525 0.541897 0
M  V30 8319 C 777.046 2.14473 -2.88516 0
M  V30 8320 C 776.71 1.60665 -4.27827 0
M  V30 8321 C 777.707 1.05448 -5.09094 0
M  V30 8322 C 775.392 1.65255 -4.74337 0
M  V30 8323 C 777.386 0.555372 -6.34976 0
M  V30 8324 C 775.073 1.14956 -6.0019 0
M  V30 8325 C 776.071 0.601907 -6.80343 0
M  V30 8326 O 775.759 0.106445 -8.0383 0
M  V30 8327 H 775.491 0.331329 -0.589234 0
M  V30 8328 H 778.045 0.39042 -2.01655 0
M  V30 8329 H 776.275 2.88274 -2.5775 0
M  V30 8330 H 777.964 2.75857 -2.97755 0
M  V30 8331 H 778.73 1.01218 -4.74321 0
M  V30 8332 H 774.609 2.06822 -4.12002 0
M  V30 8333 H 778.153 0.127245 -6.97484 0
M  V30 8334 H 774.05 1.18891 -6.34457 0
M  V30 8335 H 774.818 0.222944 -8.18196 0
M  V30 8336 N 777.481 1.45874 0.596531 0
M  V30 8337 C 778.729 1.5017 1.35253 0
M  V30 8338 C 779.05 0.149246 1.94428 0
M  V30 8339 O 778.32 -0.82268 1.77789 0
M  V30 8340 H 776.9 0.553052 0.502138 0
M  V30 8341 H 779.562 1.81908 0.699671 0
M  V30 8342 H 778.658 2.24671 2.16632 0
M  V30 8343 N 778.959 -0.83999 1.33349 0
M  V30 8344 C 780.184 -1.63249 1.27924 0
M  V30 8345 C 780.609 -1.87523 -0.147193 0
M  V30 8346 O 779.967 -1.43853 -1.10345 0
M  V30 8347 C 780.015 -2.96046 2.05886 0
M  V30 8348 O 779.119 -3.87303 1.4167 0
M  V30 8349 H 778.46 -0.49715 0.440157 0
M  V30 8350 H 780.99 -1.04512 1.75893 0
M  V30 8351 H 781 -3.45752 2.16609 0
M  V30 8352 H 779.675 -2.77701 3.09605 0
M  V30 8353 H 778.252 -3.45789 1.39585 0
M  V30 8354 N 780.437 -1.16799 -1.0581 0
M  V30 8355 C 781.667 -0.975454 -1.82122 0
M  V30 8356 C 782.075 0.479584 -1.83021 0
M  V30 8357 O 781.418 1.34471 -1.25153 0
M  V30 8358 C 781.48 -1.43209 -3.29744 0
M  V30 8359 C 781.144 -2.908 -3.5254 0
M  V30 8360 C 782.141 -3.88775 -3.45181 0
M  V30 8361 C 779.826 -3.28832 -3.79703 0
M  V30 8362 C 781.82 -5.22782 -3.64661 0
M  V30 8363 C 779.507 -4.63007 -3.98832 0
M  V30 8364 C 780.505 -5.59791 -3.91309 0
M  V30 8365 O 780.193 -6.9154 -4.09911 0
M  V30 8366 H 779.925 -0.345655 -0.580947 0
M  V30 8367 H 782.479 -1.55355 -1.34365 0
M  V30 8368 H 780.709 -0.797504 -3.78387 0
M  V30 8369 H 782.398 -1.2062 -3.87564 0
M  V30 8370 H 783.164 -3.60738 -3.2418 0
M  V30 8371 H 779.043 -2.54073 -3.84666 0
M  V30 8372 H 782.587 -5.98312 -3.58705 0
M  V30 8373 H 778.484 -4.90752 -4.19324 0
M  V30 8374 H 779.252 -6.98188 -4.27172 0
M  V30 8375 N 781.915 1.24427 -0.967243 0
M  V30 8376 C 783.331 1.44684 -0.6737 0
M  V30 8377 C 783.531 1.86429 0.764625 0
M  V30 8378 O 782.587 2.00211 1.53857 0
M  V30 8379 C 783.9 2.509 -1.6574 0
M  V30 8380 C 785.448 2.64728 -1.66998 0
M  V30 8381 C 785.923 3.7414 -2.64165 0
M  V30 8382 N 787.414 3.81567 -2.62604 0
M  V30 8383 C 788.149 4.6575 -3.34462 0
M  V30 8384 N 787.645 5.54124 -4.15835 0
M  V30 8385 N 789.438 4.59827 -3.23288 0
M  V30 8386 H 781.589 0.956276 -1.89655 0
M  V30 8387 H 783.852 0.48171 -0.816492 0
M  V30 8388 H 783.558 2.27113 -2.68538 0
M  V30 8389 H 783.432 3.4905 -1.42981 0
M  V30 8390 H 785.819 2.87872 -0.649121 0
M  V30 8391 H 785.9 1.66936 -1.93819 0
M  V30 8392 H 785.544 3.51745 -3.66384 0
M  V30 8393 H 785.474 4.71444 -2.34623 0
M  V30 8394 H 787.965 3.18403 -2.03539 0
M  V30 8395 H 788.278 6.15316 -4.67553 0
M  V30 8396 H 786.623 5.53791 -4.19929 0
M  V30 8397 H 789.814 3.898 -2.59179 0
M  V30 8398 H 789.987 5.25208 -3.79553 0
M  V30 8399 N 783.393 0.737304 1.3929 0
M  V30 8400 C 784.64 0.286257 2.00467 0
M  V30 8401 C 784.968 -1.1272 1.58507 0
M  V30 8402 O 784.223 -1.7832 0.806257 0
M  V30 8403 C 784.522 0.338438 3.55794 0
M  V30 8404 C 784.188 1.70524 4.17411 0
M  V30 8405 C 782.85 2.07934 4.33955 0
M  V30 8406 C 785.202 2.60256 4.51571 0
M  V30 8407 C 782.53 3.34578 4.81948 0
M  V30 8408 C 784.882 3.86275 5.00974 0
M  V30 8409 C 783.546 4.23774 5.15725 0
M  V30 8410 H 782.816 0.104749 0.733559 0
M  V30 8411 H 785.463 0.944598 1.66582 0
M  V30 8412 H 783.768 -0.403478 3.89717 0
M  V30 8413 H 785.465 -0.0287255 4.0099 0
M  V30 8414 H 782.055 1.40439 4.04938 0
M  V30 8415 H 786.239 2.32624 4.38406 0
M  V30 8416 H 781.495 3.63572 4.91554 0
M  V30 8417 H 785.669 4.5596 5.26378 0
M  V30 8418 H 783.296 5.21972 5.52674 0
M  V30 8419 N 784.871 -1.49948 0.485112 0
M  V30 8420 C 786.282 -1.8667 0.0334041 0
M  V30 8421 C 786.633 -1.3988 -1.37579 0
M  V30 8422 O 785.758 -0.769788 -2.02245 0
M  V30 8423 C 786.353 -3.38757 0.0538426 0
M  V30 8424 C 784.912 -3.74839 -0.342453 0
M  V30 8425 C 784.059 -2.73894 0.433281 0
M  V30 8426 H 787.01 -1.42492 0.698699 0
M  V30 8427 H 787.031 -3.73132 -0.745146 0
M  V30 8428 H 786.543 -3.72782 1.07959 0
M  V30 8429 H 784.644 -3.46419 -1.37203 0
M  V30 8430 H 784.757 -4.79088 -0.0340503 0
M  V30 8431 H 783.121 -2.54441 -0.114849 0
M  V30 8432 H 783.904 -3.10763 1.45881 0
M  V30 8433 N 786.349 -0.21828 -1.56081 0
M  V30 8434 C 787.76 0.290166 -1.84431 0
M  V30 8435 C 788.111 1.59712 -1.13958 0
M  V30 8436 O 787.236 2.12516 -0.40815 0
M  V30 8437 C 787.831 0.53325 -3.34577 0
M  V30 8438 C 786.39 0.986011 -3.63256 0
M  V30 8439 C 785.537 0.0472798 -2.7726 0
M  V30 8440 H 788.488 -0.441548 -1.52434 0
M  V30 8441 H 788.509 1.37967 -3.54606 0
M  V30 8442 H 788.021 -0.418137 -3.85841 0
M  V30 8443 H 786.122 1.95087 -3.17446 0
M  V30 8444 H 786.235 0.862684 -4.71269 0
M  V30 8445 H 784.599 0.553471 -2.48614 0
M  V30 8446 H 785.382 -0.898966 -3.31321 0
M  V30 8447 N 787.827 1.57504 0.0551401 0
M  V30 8448 C 789.073 1.89191 0.74688 0
M  V30 8449 C 789.428 0.813936 1.74335 0
M  V30 8450 O 788.721 -0.180217 1.90751 0
M  V30 8451 C 788.915 3.25311 1.48013 0
M  V30 8452 C 788.744 4.46247 0.556176 0
M  V30 8453 C 787.514 5.04954 0.186891 0
M  V30 8454 C 789.712 5.14068 -0.154295 0
M  V30 8455 N 787.694 6.09411 -0.741041 0
M  V30 8456 C 789.065 6.12851 -0.938809 0
M  V30 8457 C 791.12 4.97396 -0.224007 0
M  V30 8458 C 789.823 6.96759 -1.78658 0
M  V30 8459 C 791.849 5.81845 -1.05881 0
M  V30 8460 C 791.211 6.80178 -1.83133 0
M  V30 8461 H 787.31 0.741562 0.248213 0
M  V30 8462 H 789.894 1.94698 0.00777734 0
M  V30 8463 H 788.065 3.20781 2.18985 0
M  V30 8464 H 789.797 3.44594 2.12219 0
M  V30 8465 H 786.552 4.70472 0.543415 0
M  V30 8466 H 786.976 6.66303 -1.19874 0
M  V30 8467 H 791.618 4.21274 0.358924 0
M  V30 8468 H 789.336 7.72245 -2.38042 0
M  V30 8469 H 792.922 5.70997 -1.11595 0
M  V30 8470 H 791.802 7.44389 -2.46687 0
M  V30 8471 N 789.305 -0.326896 1.54172 0
M  V30 8472 C 790.268 -1.38515 1.8261 0
M  V30 8473 C 791.268 -1.44872 0.697771 0
M  V30 8474 O 792.458 -1.44957 0.966078 0
M  V30 8475 C 789.59 -2.77281 1.98313 0
M  V30 8476 H 790.783 -1.14556 2.77159 0
M  V30 8477 H 788.336 -0.562199 1.45839 0
M  V30 8478 H 789.071 -3.065 1.05964 0
M  V30 8479 H 788.856 -2.74061 2.80416 0
M  V30 8480 H 790.346 -3.53845 2.21773 0
M  V30 8481 N 790.784 -1.46188 -0.588786 0
M  V30 8482 C 791.694 -1.58865 -1.72624 0
M  V30 8483 C 792.71 -0.472348 -1.67466 0
M  V30 8484 O 793.886 -0.735638 -1.87484 0
M  V30 8485 C 790.951 -1.56989 -3.0912 0
M  V30 8486 C 790.012 -2.79804 -3.25589 0
M  V30 8487 C 789.245 -2.78009 -4.55573 0
M  V30 8488 O 789.468 -1.86406 -5.39082 0
M  V30 8489 O 788.402 -3.6947 -4.75159 0
M  V30 8490 H 792.228 -2.55047 -1.64878 0
M  V30 8491 H 789.813 -1.28912 -0.755115 0
M  V30 8492 H 791.695 -1.58618 -3.90408 0
M  V30 8493 H 790.37 -0.639648 -3.17317 0
M  V30 8494 H 789.277 -2.83732 -2.43818 0
M  V30 8495 H 790.61 -3.72017 -3.22279 0
M  V30 8496 N 792.262 0.832906 -1.33792 0
M  V30 8497 C 793.192 1.95828 -1.27176 0
M  V30 8498 C 794.173 1.69427 -0.15114 0
M  V30 8499 O 795.358 1.91167 -0.341886 0
M  V30 8500 C 792.488 3.32098 -1.01629 0
M  V30 8501 C 791.442 3.72912 -2.10049 0
M  V30 8502 C 790.768 5.07054 -1.69706 0
M  V30 8503 C 792.068 3.86064 -3.51783 0
M  V30 8504 H 793.762 2.01622 -2.21334 0
M  V30 8505 H 791.308 0.96866 -1.0655 0
M  V30 8506 H 793.261 4.10402 -0.956474 0
M  V30 8507 H 791.985 3.26577 -0.0390956 0
M  V30 8508 H 790.644 2.96876 -2.15082 0
M  V30 8509 H 790.292 4.9801 -0.706737 0
M  V30 8510 H 789.992 5.35333 -2.42264 0
M  V30 8511 H 791.516 5.87827 -1.65202 0
M  V30 8512 H 792.93 4.54665 -3.49218 0
M  V30 8513 H 791.327 4.25787 -4.22878 0
M  V30 8514 H 792.397 2.88344 -3.89854 0
M  V30 8515 N 793.74 1.17359 1.05189 0
M  V30 8516 C 794.67 0.91365 2.14883 0
M  V30 8517 C 795.651 -0.144365 1.69486 0
M  V30 8518 O 796.836 0.00587861 1.94199 0
M  V30 8519 C 793.966 0.426196 3.44675 0
M  V30 8520 C 792.92 1.4234 4.03638 0
M  V30 8521 C 792.246 0.793902 5.28773 0
M  V30 8522 C 793.546 2.7966 4.41121 0
M  V30 8523 H 795.24 1.831 2.36885 0
M  V30 8524 H 792.786 0.881781 1.13845 0
M  V30 8525 H 794.739 0.231767 4.20762 0
M  V30 8526 H 793.463 -0.526693 3.22325 0
M  V30 8527 H 792.122 1.60457 3.2962 0
M  V30 8528 H 791.77 -0.165824 5.02727 0
M  V30 8529 H 791.47 1.45959 5.69183 0
M  V30 8530 H 792.994 0.609747 6.07548 0
M  V30 8531 H 794.408 2.6526 5.08242 0
M  V30 8532 H 792.805 3.42807 4.92548 0
M  V30 8533 H 793.875 3.34068 3.51464 0
M  V30 8534 N 795.218 -1.23913 0.973828 0
M  V30 8535 C 796.466 -1.91771 0.637817 0
M  V30 8536 C 796.787 -1.76434 -0.830435 0
M  V30 8537 O 796.057 -1.13965 -1.59339 0
M  V30 8538 H 794.637 -0.709761 0.232912 0
M  V30 8539 H 797.299 -1.50677 1.23622 0
M  V30 8540 H 796.395 -2.99327 0.883731 0
M  V30 8541 N 796.696 -0.74468 -1.38897 0
M  V30 8542 C 797.945 -0.293716 -1.9955 0
M  V30 8543 C 798.258 1.12831 -1.59777 0
M  V30 8544 O 799.464 1.67929 -2.13336 0
M  V30 8545 C 797.92 -0.474188 -3.56762 0
M  V30 8546 C 797.528 -1.90472 -4.05493 0
M  V30 8547 C 799.272 -0.0854875 -4.24414 0
M  V30 8548 C 797.179 -2.03423 -5.55314 0
M  V30 8549 H 796.109 -0.106066 -0.746502 0
M  V30 8550 H 798.76 -0.919948 -1.58774 0
M  V30 8551 H 797.142 0.221092 -3.95382 0
M  V30 8552 H 798.316 -2.63274 -3.78184 0
M  V30 8553 H 796.631 -2.24752 -3.50536 0
M  V30 8554 H 799.228 -0.161133 -5.34457 0
M  V30 8555 H 799.571 0.96066 -4.05064 0
M  V30 8556 H 800.104 -0.732286 -3.91002 0
M  V30 8557 H 796.843 -3.0626 -5.79556 0
M  V30 8558 H 796.363 -1.3507 -5.84394 0
M  V30 8559 H 798.042 -1.81996 -6.20876 0
M  V30 8560 N 798.174 1.49689 -0.493057 0
M  V30 8561 C 799.104 2.31826 0.279073 0
M  V30 8562 C 800.085 1.39733 0.969987 0
M  V30 8563 O 801.27 1.68646 0.962925 0
M  V30 8564 C 798.4 3.20046 1.34862 0
M  V30 8565 C 797.354 4.20869 0.77805 0
M  V30 8566 C 796.68 4.97971 1.94753 0
M  V30 8567 C 797.98 5.21813 -0.225543 0
M  V30 8568 H 799.674 2.96627 -0.406512 0
M  V30 8569 H 797.22 1.42647 -0.196943 0
M  V30 8570 H 799.173 3.76315 1.89645 0
M  V30 8571 H 797.897 2.53172 2.06328 0
M  V30 8572 H 796.556 3.65733 0.252036 0
M  V30 8573 H 796.204 4.27552 2.64969 0
M  V30 8574 H 795.904 5.66186 1.57187 0
M  V30 8575 H 797.428 5.57082 2.49984 0
M  V30 8576 H 798.842 5.72823 0.233864 0
M  V30 8577 H 797.239 5.97872 -0.516622 0
M  V30 8578 H 798.309 4.71209 -1.14412 0
M  V30 8579 N 799.652 0.226554 1.55963 0
M  V30 8580 C 800.585 -0.721625 2.1649 0
M  V30 8581 C 801.563 -1.18745 1.11078 0
M  V30 8582 O 802.747 -1.26929 1.3936 0
M  V30 8583 C 799.874 -1.97828 2.74921 0
M  V30 8584 C 798.92 -1.65202 3.93206 0
M  V30 8585 S 799.753 -0.772419 5.299 0
M  V30 8586 C 800.909 -2.03853 5.91773 0
M  V30 8587 H 801.142 -0.207192 2.96577 0
M  V30 8588 H 798.675 0.0111976 1.54396 0
M  V30 8589 H 800.633 -2.69982 3.09225 0
M  V30 8590 H 799.294 -2.46384 1.94817 0
M  V30 8591 H 798.487 -2.58583 4.32609 0
M  V30 8592 H 798.089 -1.01108 3.60074 0
M  V30 8593 H 800.381 -2.98799 6.08051 0
M  V30 8594 H 801.324 -1.68831 6.87678 0
M  V30 8595 H 801.732 -2.18134 5.20651 0
M  V30 8596 N 801.13 -1.57531 -0.0467866 0
M  V30 8597 C 802.378 -1.88078 -0.739656 0
M  V30 8598 C 802.699 -0.821936 -1.76831 0
M  V30 8599 O 801.969 0.146582 -1.95351 0
M  V30 8600 H 800.549 -0.694075 -0.276169 0
M  V30 8601 H 803.211 -1.94893 -0.0169391 0
M  V30 8602 H 802.307 -2.86396 -1.24031 0
M  V30 8603 N 802.608 0.318715 -1.54344 0
M  V30 8604 C 803.538 1.39751 -1.87061 0
M  V30 8605 C 804.519 1.53741 -0.727848 0
M  V30 8606 O 805.704 1.67541 -0.982016 0
M  V30 8607 C 802.834 2.76446 -2.10226 0
M  V30 8608 C 801.788 2.77239 -3.26071 0
M  V30 8609 C 801.114 4.17056 -3.34617 0
M  V30 8610 C 802.414 2.40555 -4.63606 0
M  V30 8611 H 804.108 1.12619 -2.77412 0
M  V30 8612 H 801.654 0.540318 -1.33479 0
M  V30 8613 H 803.607 3.51985 -2.31699 0
M  V30 8614 H 802.331 3.05066 -1.16629 0
M  V30 8615 H 800.99 2.04155 -3.04493 0
M  V30 8616 H 800.638 4.42824 -2.3857 0
M  V30 8617 H 800.338 4.18492 -4.12478 0
M  V30 8618 H 801.862 4.94401 -3.5833 0
M  V30 8619 H 803.276 3.05808 -4.84927 0
M  V30 8620 H 801.673 2.53234 -5.44052 0
M  V30 8621 H 802.743 1.35698 -4.65526 0
M  V30 8622 N 804.086 1.46499 0.581025 0
M  V30 8623 C 805.016 1.60052 1.70017 0
M  V30 8624 C 805.997 0.450788 1.64018 0
M  V30 8625 O 807.182 0.677237 1.82009 0
M  V30 8626 C 804.312 1.5921 3.08658 0
M  V30 8627 C 803.266 2.73169 3.29488 0
M  V30 8628 C 802.592 2.57389 4.68674 0
M  V30 8629 C 803.892 4.14978 3.1716 0
M  V30 8630 H 805.586 2.53735 1.5893 0
M  V30 8631 H 803.132 1.22113 0.763173 0
M  V30 8632 H 805.085 1.67285 3.86773 0
M  V30 8633 H 803.809 0.620718 3.20647 0
M  V30 8634 H 802.468 2.64566 2.53773 0
M  V30 8635 H 802.116 1.58331 4.77431 0
M  V30 8636 H 801.816 3.33826 4.83564 0
M  V30 8637 H 803.34 2.67358 5.48956 0
M  V30 8638 H 804.754 4.24684 3.85119 0
M  V30 8639 H 803.151 4.92016 3.4357 0
M  V30 8640 H 804.221 4.35016 2.14218 0
M  V30 8641 N 805.565 -0.825799 1.34232 0
M  V30 8642 C 806.79 -1.61883 1.29648 0
M  V30 8643 C 807.215 -1.87669 -0.127295 0
M  V30 8644 O 806.573 -1.45016 -1.08813 0
M  V30 8645 C 806.621 -2.93846 2.09014 0
M  V30 8646 O 805.725 -3.85778 1.4577 0
M  V30 8647 H 805.066 -0.492454 0.445405 0
M  V30 8648 H 807.596 -1.02641 1.76992 0
M  V30 8649 H 807.606 -3.43435 2.20264 0
M  V30 8650 H 806.281 -2.74401 3.12533 0
M  V30 8651 H 804.858 -3.4429 1.43245 0
M  V30 8652 N 807.043 -1.17915 -1.04565 0
M  V30 8653 C 808.283 -0.982331 -1.79247 0
M  V30 8654 C 808.647 0.47998 -1.85904 0
M  V30 8655 O 809.848 0.796078 -2.56741 0
M  V30 8656 C 808.119 -1.61329 -3.18916 0
M  V30 8657 S 809.678 -1.56355 -4.09998 0
M  V30 8658 H 806.496 -0.352869 -0.617256 0
M  V30 8659 H 809.098 -1.49971 -1.25415 0
M  V30 8660 H 807.802 -2.66993 -3.11678 0
M  V30 8661 H 807.333 -1.09599 -3.77825 0
M  V30 8662 H 809.348 -0.57593 -4.92846 0
M  V30 8663 N 808.521 1.23394 -0.980386 0
M  V30 8664 C 809.451 2.2717 -0.540024 0
M  V30 8665 C 810.432 1.64659 0.426787 0
M  V30 8666 O 811.617 1.91543 0.320153 0
M  V30 8667 C 808.747 3.46939 0.15836 0
M  V30 8668 C 807.701 4.21802 -0.725732 0
M  V30 8669 C 807.027 5.34597 0.104866 0
M  V30 8670 C 808.327 4.81802 -2.01654 0
M  V30 8671 H 810.021 2.64257 -1.40743 0
M  V30 8672 H 807.567 1.2703 -0.678193 0
M  V30 8673 H 809.52 4.18683 0.477737 0
M  V30 8674 H 808.244 3.08912 1.06022 0
M  V30 8675 H 806.903 3.51875 -1.02857 0
M  V30 8676 H 806.551 4.92812 1.00726 0
M  V30 8677 H 806.251 5.85607 -0.483557 0
M  V30 8678 H 807.775 6.09163 0.418624 0
M  V30 8679 H 809.189 5.45554 -1.76193 0
M  V30 8680 H 807.586 5.43098 -2.55273 0
M  V30 8681 H 808.656 4.02549 -2.70338 0
M  V30 8682 N 809.999 0.752036 1.385 0
M  V30 8683 C 810.932 0.0717411 2.28087 0
M  V30 8684 C 811.91 -0.729945 1.45295 0
M  V30 8685 O 813.094 -0.708902 1.74662 0
M  V30 8686 C 810.221 -0.905237 3.26379 0
M  V30 8687 C 809.267 -0.189973 4.26077 0
M  V30 8688 S 810.1 1.10815 5.23909 0
M  V30 8689 C 811.256 0.134202 6.25756 0
M  V30 8690 H 811.489 0.831438 2.85437 0
M  V30 8691 H 809.022 0.544552 1.44478 0
M  V30 8692 H 810.98 -1.46358 3.83523 0
M  V30 8693 H 809.641 -1.63789 2.68015 0
M  V30 8694 H 808.834 -0.92985 4.95348 0
M  V30 8695 H 808.436 0.296804 3.7282 0
M  V30 8696 H 810.728 -0.700345 6.7387 0
M  V30 8697 H 811.671 0.794532 7.03628 0
M  V30 8698 H 812.079 -0.245801 5.63965 0
M  V30 8699 N 811.477 -1.49425 0.500989 0
M  V30 8700 C 812.726 -2.01649 -0.04538 0
M  V30 8701 C 813.039 -1.38572 -1.38047 0
M  V30 8702 O 814.245 -1.82124 -2.01353 0
M  V30 8703 C 812.701 -3.5966 -0.131337 0
M  V30 8704 C 812.309 -4.3171 1.19711 0
M  V30 8705 C 814.053 -4.19828 -0.628071 0
M  V30 8706 C 811.96 -5.81579 1.07332 0
M  V30 8707 H 810.89 -0.753715 -0.0207329 0
M  V30 8708 H 813.541 -1.71962 0.640407 0
M  V30 8709 H 811.923 -3.86063 -0.881574 0
M  V30 8710 H 813.097 -4.17008 1.96064 0
M  V30 8711 H 811.412 -3.83286 1.62729 0
M  V30 8712 H 814.009 -5.2958 -0.738198 0
M  V30 8713 H 814.352 -3.83194 -1.6269 0
M  V30 8714 H 814.885 -3.97746 0.0656314 0
M  V30 8715 H 811.624 -6.22738 2.04642 0
M  V30 8716 H 811.144 -5.98774 0.350679 0
M  V30 8717 H 812.823 -6.42614 0.752047 0
M  V30 8718 N 812.955 -0.234822 -1.55841 0
M  V30 8719 C 814.366 0.270588 -1.84729 0
M  V30 8720 C 814.717 1.58494 -1.15646 0
M  V30 8721 O 813.842 2.12071 -0.430667 0
M  V30 8722 C 814.437 0.497733 -3.35124 0
M  V30 8723 C 812.996 0.947428 -3.64281 0
M  V30 8724 C 812.143 0.01787 -2.77294 0
M  V30 8725 H 815.094 -0.457691 -1.51957 0
M  V30 8726 H 815.115 1.34199 -3.56049 0
M  V30 8727 H 814.627 -0.459037 -3.85376 0
M  V30 8728 H 812.728 1.91709 -3.19497 0
M  V30 8729 H 812.841 0.812651 -4.72158 0
M  V30 8730 H 811.205 0.527071 -2.49187 0
M  V30 8731 H 811.988 -0.934056 -3.30349 0
M  V30 8732 N 814.433 1.57553 0.0384317 0
M  V30 8733 C 815.396 2.04927 1.02653 0
M  V30 8734 C 816.396 0.951768 1.29607 0
M  V30 8735 O 817.586 1.21568 1.24768 0
M  V30 8736 C 814.718 2.45828 2.36181 0
M  V30 8737 H 815.911 2.93474 0.617508 0
M  V30 8738 H 813.464 1.53679 0.285031 0
M  V30 8739 H 814.199 1.60408 2.8185 0
M  V30 8740 H 813.984 3.25945 2.1795 0
M  V30 8741 H 815.474 2.82939 3.0714 0
M  V30 8742 N 815.911 -0.310526 1.54511 0
M  V30 8743 C 817.159 -1.04484 1.72996 0
M  V30 8744 C 817.48 -1.88118 0.513479 0
M  V30 8745 O 816.75 -1.90119 -0.472384 0
M  V30 8746 H 815.33 -0.388747 0.637875 0
M  V30 8747 H 817.992 -0.343811 1.91844 0
M  V30 8748 H 817.088 -1.70341 2.61515 0
M  V30 8749 N 817.389 -1.46805 -0.573248 0
M  V30 8750 C 818.322 -1.52608 -1.69665 0
M  V30 8751 C 819.3 -0.379426 -1.58111 0
M  V30 8752 O 820.484 -0.584938 -1.79195 0
M  V30 8753 C 817.611 -1.41355 -3.07793 0
M  V30 8754 C 816.657 -2.60321 -3.37839 0
M  V30 8755 S 817.49 -4.22622 -3.28863 0
M  V30 8756 C 818.646 -4.13894 -4.69513 0
M  V30 8757 H 818.879 -2.47653 -1.64485 0
M  V30 8758 H 816.412 -1.34806 -0.752769 0
M  V30 8759 H 818.37 -1.35549 -3.87475 0
M  V30 8760 H 817.031 -0.477213 -3.10454 0
M  V30 8761 H 816.224 -2.48466 -4.38498 0
M  V30 8762 H 815.826 -2.63165 -2.65745 0
M  V30 8763 H 818.118 -3.81158 -5.60111 0
M  V30 8764 H 819.061 -5.14584 -4.86425 0
M  V30 8765 H 819.469 -3.44998 -4.46807 0
M  V30 8766 N 818.867 0.818669 -1.34668 0
M  V30 8767 C 819.797 1.94468 -1.29245 0
M  V30 8768 C 820.778 1.69257 -0.169101 0
M  V30 8769 O 821.963 1.90794 -0.362143 0
M  V30 8770 C 819.093 3.31001 -1.05145 0
M  V30 8771 C 818.047 3.70663 -2.13992 0
M  V30 8772 C 817.373 5.05226 -1.75074 0
M  V30 8773 C 818.673 3.82312 -3.55858 0
M  V30 8774 H 820.367 1.99263 -2.2346 0
M  V30 8775 H 817.913 0.957304 -1.07572 0
M  V30 8776 H 819.866 4.09364 -0.999949 0
M  V30 8777 H 818.59 3.26517 -0.0737312 0
M  V30 8778 H 817.249 2.94578 -2.18219 0
M  V30 8779 H 816.897 4.97233 -0.759518 0
M  V30 8780 H 816.597 5.32734 -2.47928 0
M  V30 8781 H 818.121 5.86042 -1.71427 0
M  V30 8782 H 819.535 4.50935 -3.5402 0
M  V30 8783 H 817.932 4.21278 -4.2737 0
M  V30 8784 H 819.002 2.84193 -3.9289 0
M  V30 8785 N 820.346 1.18468 1.03938 0
M  V30 8786 C 821.592 0.982286 1.77423 0
M  V30 8787 C 821.925 -0.48679 1.88 0
M  V30 8788 O 821.2 -1.36146 1.38905 0
M  V30 8789 C 821.483 1.63929 3.20623 0
M  V30 8790 C 821.336 3.18132 3.17982 0
M  V30 8791 C 822.655 1.3536 4.18767 0
M  V30 8792 H 819.774 0.358264 0.644062 0
M  V30 8793 H 822.416 1.46154 1.21405 0
M  V30 8794 H 820.566 1.2318 3.68455 0
M  V30 8795 H 822.238 3.68024 2.78129 0
M  V30 8796 H 820.481 3.50225 2.55978 0
M  V30 8797 H 821.152 3.5924 4.19107 0
M  V30 8798 H 823.628 1.70669 3.79488 0
M  V30 8799 H 822.504 1.83896 5.17178 0
M  V30 8800 H 822.765 0.276722 4.41233 0
M  V30 8801 N 821.824 -1.22873 0.986916 0
M  V30 8802 C 822.787 -2.2281 0.537442 0
M  V30 8803 C 823.787 -1.56331 -0.37646 0
M  V30 8804 O 824.977 -1.73376 -0.169247 0
M  V30 8805 C 822.109 -3.40195 -0.219082 0
M  V30 8806 H 823.302 -2.64089 1.42116 0
M  V30 8807 H 820.855 -1.35819 0.773488 0
M  V30 8808 H 821.59 -3.04381 -1.11905 0
M  V30 8809 H 821.375 -3.89657 0.437026 0
M  V30 8810 H 822.865 -4.14326 -0.521926 0
M  V30 8811 N 823.302 -0.75937 -1.38099 0
M  V30 8812 C 824.548 -0.318584 -2.00282 0
M  V30 8813 C 824.881 1.09854 -1.60143 0
M  V30 8814 O 824.156 1.75344 -0.841702 0
M  V30 8815 C 824.439 -0.448047 -3.57302 0
M  V30 8816 C 824.292 -1.9067 -4.07388 0
M  V30 8817 C 825.611 0.155119 -4.39827 0
M  V30 8818 H 822.73 -0.117233 -0.727616 0
M  V30 8819 H 825.372 -0.960097 -1.63958 0
M  V30 8820 H 823.522 0.0981003 -3.88376 0
M  V30 8821 H 825.194 -2.5116 -3.86932 0
M  V30 8822 H 823.437 -2.41979 -3.6004 0
M  V30 8823 H 824.108 -1.94841 -5.1647 0
M  V30 8824 H 826.584 -0.31073 -4.14938 0
M  V30 8825 H 825.46 0.0343264 -5.48889 0
M  V30 8826 H 825.721 1.24407 -4.24235 0
M  V30 8827 N 824.78 1.49157 -0.508906 0
M  V30 8828 C 825.71 2.32109 0.254469 0
M  V30 8829 C 826.691 1.40754 0.955111 0
M  V30 8830 O 827.876 1.69658 0.944983 0
M  V30 8831 C 825.006 3.21458 1.3146 0
M  V30 8832 C 823.96 4.2167 0.733368 0
M  V30 8833 C 823.286 5.00009 1.8946 0
M  V30 8834 C 824.586 5.21544 -0.280875 0
M  V30 8835 H 826.28 2.9618 -0.43795 0
M  V30 8836 H 823.826 1.4243 -0.212062 0
M  V30 8837 H 825.779 3.78305 1.85643 0
M  V30 8838 H 824.503 2.55346 2.03632 0
M  V30 8839 H 823.162 3.65979 0.213231 0
M  V30 8840 H 822.81 4.30338 2.60419 0
M  V30 8841 H 822.51 5.67821 1.51173 0
M  V30 8842 H 824.034 5.59702 2.44061 0
M  V30 8843 H 825.448 5.73039 0.173095 0
M  V30 8844 H 823.845 5.97291 -0.580006 0
M  V30 8845 H 824.915 4.69969 -1.19404 0
M  V30 8846 N 826.258 0.243083 1.55714 0
M  V30 8847 C 827.674 -0.111853 1.59208 0
M  V30 8848 C 827.874 -1.5723 1.2602 0
M  V30 8849 O 826.93 -2.31608 1.00569 0
M  V30 8850 C 828.243 0.233885 2.99789 0
M  V30 8851 C 829.791 0.177873 3.12494 0
M  V30 8852 C 830.266 0.49759 4.55289 0
M  V30 8853 N 831.757 0.447949 4.61029 0
M  V30 8854 C 832.492 0.668545 5.69489 0
M  V30 8855 N 831.988 0.952064 6.86227 0
M  V30 8856 N 833.781 0.599512 5.58894 0
M  V30 8857 H 825.932 1.19554 1.75558 0
M  V30 8858 H 828.195 0.480765 0.817049 0
M  V30 8859 H 827.901 1.24835 3.28799 0
M  V30 8860 H 827.775 -0.440846 3.74615 0
M  V30 8861 H 830.162 -0.827263 2.83267 0
M  V30 8862 H 830.243 0.886399 2.39951 0
M  V30 8863 H 829.887 1.50026 4.85237 0
M  V30 8864 H 829.817 -0.232371 5.26087 0
M  V30 8865 H 832.308 0.237388 3.77154 0
M  V30 8866 H 832.621 1.10791 7.64817 0
M  V30 8867 H 830.966 0.989496 6.8792 0
M  V30 8868 H 834.157 0.378088 4.66571 0
M  V30 8869 H 834.33 0.774828 6.43351 0
M  V30 8870 N 827.736 -1.57571 -0.0300757 0
M  V30 8871 C 828.646 -2.09892 -1.04798 0
M  V30 8872 C 829.662 -1.03732 -1.39698 0
M  V30 8873 O 830.838 -1.35461 -1.49038 0
M  V30 8874 C 827.903 -2.56707 -2.33028 0
M  V30 8875 C 826.964 -3.77345 -2.04718 0
M  V30 8876 C 826.197 -4.21918 -3.26834 0
M  V30 8877 O 826.42 -3.66025 -4.37472 0
M  V30 8878 O 825.354 -5.14362 -3.12594 0
M  V30 8879 H 829.18 -2.97023 -0.633344 0
M  V30 8880 H 826.765 -1.47344 -0.246991 0
M  V30 8881 H 828.647 -2.87154 -3.08417 0
M  V30 8882 H 827.322 -1.72688 -2.73789 0
M  V30 8883 H 826.229 -3.51919 -1.26901 0
M  V30 8884 H 827.562 -4.62345 -1.68813 0
M  V30 8885 N 829.214 0.302327 -1.54673 0
M  V30 8886 C 830.124 1.39542 -1.88587 0
M  V30 8887 C 831.14 1.55543 -0.779895 0
M  V30 8888 O 832.316 1.70233 -1.07623 0
M  V30 8889 C 829.381 2.7394 -2.12504 0
M  V30 8890 C 828.442 2.66935 -3.3622 0
M  V30 8891 C 827.675 3.94923 -3.58987 0
M  V30 8892 O 827.898 4.94218 -2.84789 0
M  V30 8893 O 826.832 3.96896 -4.52501 0
M  V30 8894 H 830.658 1.13784 -2.81579 0
M  V30 8895 H 828.243 0.49827 -1.40846 0
M  V30 8896 H 830.125 3.5346 -2.29443 0
M  V30 8897 H 828.8 2.99544 -1.22698 0
M  V30 8898 H 827.707 1.85892 -3.24646 0
M  V30 8899 H 829.04 2.46283 -4.26152 0
M  V30 8900 N 830.692 1.47107 0.565454 0
M  V30 8901 C 831.94 1.53005 1.32038 0
M  V30 8902 C 832.261 0.190453 1.94068 0
M  V30 8903 O 831.531 -0.784783 1.79494 0
M  V30 8904 H 830.111 0.563578 0.490294 0
M  V30 8905 H 832.773 1.83351 0.660928 0
M  V30 8906 H 831.869 2.29215 2.11818 0
M  V30 8907 N 832.17 -0.811516 1.35101 0
M  V30 8908 C 833.395 -1.60499 1.31358 0
M  V30 8909 C 833.82 -1.87793 -0.107383 0
M  V30 8910 O 833.178 -1.46161 -1.07268 0
M  V30 8911 C 833.226 -2.91612 2.12119 0
M  V30 8912 O 832.33 -3.84211 1.49853 0
M  V30 8913 H 831.671 -0.487702 0.450603 0
M  V30 8914 H 834.201 -1.00758 1.7807 0
M  V30 8915 H 834.211 -3.4108 2.23894 0
M  V30 8916 H 832.886 -2.71071 3.15426 0
M  V30 8917 H 831.463 -3.42751 1.46889 0
M  V30 8918 N 833.648 -1.19017 -1.03309 0
M  V30 8919 C 834.578 -0.94772 -2.13402 0
M  V30 8920 C 835.559 0.117383 -1.69694 0
M  V30 8921 O 836.744 -0.0367733 -1.94165 0
M  V30 8922 C 833.874 -0.480977 -3.43953 0
M  V30 8923 C 832.828 -1.48743 -4.01322 0
M  V30 8924 C 832.154 -0.877924 -5.27443 0
M  V30 8925 C 833.454 -2.86642 -4.36616 0
M  V30 8926 H 835.148 -1.86846 -2.33942 0
M  V30 8927 H 832.694 -0.899781 -1.12427 0
M  V30 8928 H 834.647 -0.298677 -4.2034 0
M  V30 8929 H 833.371 0.475348 -3.23122 0
M  V30 8930 H 832.03 -1.65681 -3.27025 0
M  V30 8931 H 831.678 0.0858232 -5.02927 0
M  V30 8932 H 831.378 -1.54996 -5.66789 0
M  V30 8933 H 832.902 -0.706326 -6.06501 0
M  V30 8934 H 834.316 -2.73312 -5.03958 0
M  V30 8935 H 832.713 -3.50599 -4.87032 0
M  V30 8936 H 833.783 -3.39617 -3.46105 0
M  V30 8937 N 835.127 1.22348 -0.993418 0
M  V30 8938 C 836.373 1.91689 -0.680217 0
M  V30 8939 C 836.728 1.75912 0.779269 0
M  V30 8940 O 836.021 1.11761 1.55628 0
M  V30 8941 C 836.215 3.42477 -1.02197 0
M  V30 8942 C 836.044 3.72923 -2.51313 0
M  V30 8943 C 834.814 3.9291 -3.17726 0
M  V30 8944 C 837.012 3.7736 -3.49434 0
M  V30 8945 N 834.994 4.10672 -4.56313 0
M  V30 8946 C 836.365 4.00269 -4.73481 0
M  V30 8947 C 838.42 3.60211 -3.43733 0
M  V30 8948 C 837.123 4.0781 -5.92523 0
M  V30 8949 C 839.149 3.69011 -4.62152 0
M  V30 8950 C 838.511 3.92371 -5.85 0
M  V30 8951 H 834.61 0.722086 -0.300193 0
M  V30 8952 H 837.194 1.47273 -1.27353 0
M  V30 8953 H 835.365 3.85699 -0.457223 0
M  V30 8954 H 837.097 3.99204 -0.664702 0
M  V30 8955 H 833.852 3.90345 -2.68193 0
M  V30 8956 H 834.276 4.2348 -5.28199 0
M  V30 8957 H 838.918 3.41137 -2.49771 0
M  V30 8958 H 836.636 4.25688 -6.86888 0
M  V30 8959 H 840.222 3.5708 -4.59331 0
M  V30 8960 H 839.102 3.9901 -6.75101 0
M  V30 8961 N 836.605 0.766683 1.37694 0
M  V30 8962 C 837.515 0.150158 2.34119 0
M  V30 8963 C 838.531 -0.685513 1.59927 0
M  V30 8964 O 839.707 -0.606616 1.92047 0
M  V30 8965 C 836.772 -0.722562 3.39087 0
M  V30 8966 C 835.833 0.128983 4.29106 0
M  V30 8967 C 835.066 -0.702178 5.29061 0
M  V30 8968 O 835.289 -1.93954 5.36412 0
M  V30 8969 O 834.223 -0.114056 6.01792 0
M  V30 8970 H 838.049 0.946829 2.88563 0
M  V30 8971 H 835.634 0.527765 1.39768 0
M  V30 8972 H 837.516 -1.22095 4.03325 0
M  V30 8973 H 836.191 -1.49751 2.86978 0
M  V30 8974 H 835.098 0.673612 3.67985 0
M  V30 8975 H 836.431 0.866892 4.84506 0
M  V30 8976 N 838.083 -1.48885 0.516809 0
M  V30 8977 C 839.499 -1.58651 0.173788 0
M  V30 8978 C 839.699 -1.52033 -1.32243 0
M  V30 8979 O 838.755 -1.40251 -2.09967 0
M  V30 8980 C 840.068 -2.90816 0.764628 0
M  V30 8981 C 841.616 -3.04316 0.732164 0
M  V30 8982 C 842.091 -4.39123 1.30135 0
M  V30 8983 N 843.582 -4.45656 1.26273 0
M  V30 8984 C 844.317 -5.48446 1.67317 0
M  V30 8985 N 843.813 -6.58258 2.16028 0
M  V30 8986 N 845.606 -5.39251 1.58635 0
M  V30 8987 H 837.757 -1.5143 1.48939 0
M  V30 8988 H 840.02 -0.718243 0.618733 0
M  V30 8989 H 839.726 -3.01275 1.81456 0
M  V30 8990 H 839.6 -3.76473 0.234113 0
M  V30 8991 H 841.987 -2.93478 -0.308975 0
M  V30 8992 H 842.068 -2.20303 1.3 0
M  V30 8993 H 841.712 -4.50714 2.34135 0
M  V30 8994 H 841.642 -5.21801 0.709305 0
M  V30 8995 H 844.133 -3.66879 0.906006 0
M  V30 8996 H 844.446 -7.32811 2.45374 0
M  V30 8997 H 842.791 -6.59257 2.20013 0
M  V30 8998 H 845.982 -4.52354 1.20387 0
M  V30 8999 H 846.155 -6.19229 1.90944 0
M  V30 9000 N 839.561 -0.251338 -1.55583 0
M  V30 9001 C 840.491 0.640437 -2.24545 0
M  V30 9002 C 841.472 1.17781 -1.22726 0
M  V30 9003 O 842.657 1.21633 -1.5139 0
M  V30 9004 C 839.787 1.8355 -2.94834 0
M  V30 9005 C 838.741 1.4307 -4.03379 0
M  V30 9006 C 838.067 2.70695 -4.61116 0
M  V30 9007 C 839.367 0.59848 -5.1886 0
M  V30 9008 H 841.061 0.0653772 -2.99329 0
M  V30 9009 H 838.607 0.0300042 -1.43969 0
M  V30 9010 H 840.56 2.46505 -3.4178 0
M  V30 9011 H 839.284 2.43601 -2.17546 0
M  V30 9012 H 837.943 0.824474 -3.57209 0
M  V30 9013 H 837.591 3.28954 -3.80524 0
M  V30 9014 H 837.291 2.44332 -5.34393 0
M  V30 9015 H 838.815 3.34541 -5.10798 0
M  V30 9016 H 840.229 1.13244 -5.62004 0
M  V30 9017 H 838.626 0.430728 -5.98552 0
M  V30 9018 H 839.696 -0.38829 -4.83343 0
M  V30 9019 N 841.039 1.57585 0.0217189 0
M  V30 9020 C 841.971 2.03849 1.04777 0
M  V30 9021 C 842.984 0.952558 1.32023 0
M  V30 9022 O 844.173 1.22974 1.29381 0
M  V30 9023 C 841.273 2.40504 2.3877 0
M  V30 9024 C 840.446 3.71566 2.30775 0
M  V30 9025 C 839.505 3.95329 3.47277 0
M  V30 9026 O 838.531 4.66289 3.26441 0
M  V30 9027 N 839.733 3.41536 4.69397 0
M  V30 9028 H 842.498 2.92491 0.653395 0
M  V30 9029 H 840.059 1.60538 0.209527 0
M  V30 9030 H 842.051 2.53532 3.15442 0
M  V30 9031 H 840.621 1.57494 2.70027 0
M  V30 9032 H 839.841 3.68822 1.39155 0
M  V30 9033 H 841.129 4.5753 2.22584 0
M  V30 9034 H 840.527 2.84033 4.89226 0
M  V30 9035 H 839.084 3.59932 5.43408 0
M  V30 9036 N 842.517 -0.29412 1.54831 0
M  V30 9037 C 843.449 -1.38476 1.82639 0
M  V30 9038 C 844.462 -1.46517 0.709694 0
M  V30 9039 O 845.651 -1.48712 0.987269 0
M  V30 9040 C 842.751 -2.76791 1.95551 0
M  V30 9041 C 841.924 -2.91599 3.26019 0
M  V30 9042 C 840.983 -4.10456 3.29261 0
M  V30 9043 O 840.009 -4.02214 4.02756 0
M  V30 9044 N 841.211 -5.21422 2.55145 0
M  V30 9045 H 843.976 -1.14974 2.76769 0
M  V30 9046 H 841.537 -0.484206 1.5449 0
M  V30 9047 H 843.529 -3.5456 1.95113 0
M  V30 9048 H 842.099 -2.93209 1.08384 0
M  V30 9049 H 841.319 -2.00886 3.39173 0
M  V30 9050 H 842.607 -2.98409 4.12104 0
M  V30 9051 H 842.005 -5.31 1.95078 0
M  V30 9052 H 840.562 -5.97501 2.60454 0
M  V30 9053 N 843.995 -1.47404 -0.557645 0
M  V30 9054 C 844.958 -1.59411 -1.64684 0
M  V30 9055 C 845.958 -0.469244 -1.53801 0
M  V30 9056 O 847.148 -0.734298 -1.57967 0
M  V30 9057 C 844.28 -1.5382 -3.04224 0
M  V30 9058 H 845.473 -2.56504 -1.55389 0
M  V30 9059 H 843.026 -1.35588 -0.777531 0
M  V30 9060 H 843.761 -0.581 -3.19053 0
M  V30 9061 H 843.546 -2.35456 -3.13533 0
M  V30 9062 H 845.036 -1.65358 -3.83466 0
M  V30 9063 N 845.473 0.80434 -1.35529 0
M  V30 9064 C 846.698 1.598 -1.32207 0
M  V30 9065 C 847.123 1.87848 0.0974226 0
M  V30 9066 O 846.481 1.46728 1.06492 0
M  V30 9067 C 846.529 2.90483 -2.13663 0
M  V30 9068 O 845.633 3.83411 -1.51888 0
M  V30 9069 H 844.974 0.485305 -0.453183 0
M  V30 9070 H 847.504 0.998119 -1.78602 0
M  V30 9071 H 847.514 3.39888 -2.257 0
M  V30 9072 H 846.189 2.69395 -3.16859 0
M  V30 9073 H 844.766 3.41967 -1.48704 0
M  V30 9074 N 846.951 1.19563 1.02676 0
M  V30 9075 C 848.367 0.948304 1.28372 0
M  V30 9076 C 848.567 -0.378096 1.97921 0
M  V30 9077 O 847.623 -1.1091 2.26838 0
M  V30 9078 C 848.936 2.12381 2.12873 0
M  V30 9079 C 850.484 2.16366 2.26174 0
M  V30 9080 C 850.959 3.33374 3.14048 0
M  V30 9081 N 852.45 3.33323 3.21636 0
M  V30 9082 C 853.185 4.20504 3.89825 0
M  V30 9083 N 852.681 5.17845 4.60227 0
M  V30 9084 N 854.474 4.08375 3.86246 0
M  V30 9085 H 846.625 2.04899 0.559485 0
M  V30 9086 H 848.888 0.89606 0.309484 0
M  V30 9087 H 848.594 3.08383 1.69094 0
M  V30 9088 H 848.468 2.09621 3.1359 0
M  V30 9089 H 850.855 1.20933 2.69182 0
M  V30 9090 H 850.936 2.23179 1.25 0
M  V30 9091 H 850.58 4.29087 2.71747 0
M  V30 9092 H 850.51 3.23798 4.15286 0
M  V30 9093 H 853.001 2.62863 2.71498 0
M  V30 9094 H 853.314 5.80712 5.09896 0
M  V30 9095 H 851.659 5.21791 4.59085 0
M  V30 9096 H 854.85 3.31606 3.30386 0
M  V30 9097 H 855.023 4.76532 4.39114 0
M  V30 9098 N 848.429 -1.21819 0.999893 0
M  V30 9099 C 849.84 -1.72517 0.713775 0
M  V30 9100 C 850.191 -1.80505 -0.768922 0
M  V30 9101 O 849.316 -1.45611 -1.60083 0
M  V30 9102 C 849.911 -3.13321 1.28901 0
M  V30 9103 C 848.47 -3.61396 1.05212 0
M  V30 9104 C 847.617 -2.39074 1.40494 0
M  V30 9105 H 850.568 -1.07068 1.17141 0
M  V30 9106 H 850.589 -3.74535 0.671084 0
M  V30 9107 H 850.101 -3.07475 2.36814 0
M  V30 9108 H 848.202 -3.72599 -0.0100732 0
M  V30 9109 H 848.315 -4.47145 1.72042 0
M  V30 9110 H 846.679 -2.41015 0.823642 0
M  V30 9111 H 847.462 -2.35884 2.49427 0
M  V30 9112 N 849.908 -0.773975 -1.37286 0
M  V30 9113 C 850.871 -0.167974 -2.28584 0
M  V30 9114 C 851.871 0.625662 -1.48129 0
M  V30 9115 O 853.061 0.448924 -1.68316 0
M  V30 9116 C 850.193 0.769364 -3.32105 0
M  V30 9117 H 851.386 -0.972806 -2.83684 0
M  V30 9118 H 848.939 -0.542335 -1.46589 0
M  V30 9119 H 849.674 1.59912 -2.82132 0
M  V30 9120 H 849.459 0.202419 -3.91577 0
M  V30 9121 H 850.949 1.18872 -4.00324 0
M  V30 9122 N 851.386 1.48609 -0.524698 0
M  V30 9123 C 852.319 2.26374 0.288109 0
M  V30 9124 C 853.297 1.31997 0.949509 0
M  V30 9125 O 854.481 1.61329 0.974946 0
M  V30 9126 C 851.608 3.08065 1.4076 0
M  V30 9127 C 850.654 4.17777 0.858152 0
M  V30 9128 S 851.487 5.3482 -0.269827 0
M  V30 9129 C 852.643 6.2007 0.852266 0
M  V30 9130 H 852.876 2.94965 -0.371865 0
M  V30 9131 H 850.409 1.51248 -0.31039 0
M  V30 9132 H 852.367 3.5571 2.04892 0
M  V30 9133 H 851.028 2.38898 2.03928 0
M  V30 9134 H 850.221 4.74542 1.69783 0
M  V30 9135 H 849.823 3.72846 0.293627 0
M  V30 9136 H 852.115 6.54451 1.75213 0
M  V30 9137 H 853.058 7.07364 0.322717 0
M  V30 9138 H 853.466 5.53068 1.13029 0
M  V30 9139 N 852.864 0.259585 1.55447 0
M  V30 9140 C 854.141 -0.412595 1.91199 0
M  V30 9141 C 854.521 -1.74909 1.18194 0
M  V30 9142 O 853.869 -2.26474 0.303603 0
M  V30 9143 C 854.079 -0.568195 3.44344 0
M  V30 9144 C 855.427 -0.858253 4.15836 0
M  V30 9145 O 856.451 -0.653588 3.50152 0
M  V30 9146 O 855.31 -1.24874 5.32042 0
M  V30 9147 H 852.404 -0.223403 0.796254 0
M  V30 9148 H 854.95 0.30459 1.66944 0
M  V30 9149 H 853.722 0.372989 3.89518 0
M  V30 9150 H 853.345 -1.33544 3.74502 0
M  V30 9151 N 854.342 -1.57594 -0.0133615 0
M  V30 9152 C 855.588 -1.91105 -0.696457 0
M  V30 9153 C 855.943 -0.859872 -1.72116 0
M  V30 9154 O 855.236 0.129579 -1.91161 0
M  V30 9155 C 855.43 -3.29121 -1.39336 0
M  V30 9156 C 855.259 -4.47565 -0.437666 0
M  V30 9157 C 854.029 -5.05272 -0.0529454 0
M  V30 9158 C 856.227 -5.13479 0.290537 0
M  V30 9159 N 854.209 -6.07232 0.902355 0
M  V30 9160 C 855.58 -6.10147 1.10097 0
M  V30 9161 C 857.635 -4.96627 0.355804 0
M  V30 9162 C 856.338 -6.91778 1.97069 0
M  V30 9163 C 858.364 -5.78833 1.21271 0
M  V30 9164 C 857.726 -6.75083 2.01102 0
M  V30 9165 H 853.825 -0.747882 -0.228464 0
M  V30 9166 H 856.409 -1.94651 0.0438462 0
M  V30 9167 H 854.58 -3.26474 -2.10403 0
M  V30 9168 H 856.312 -3.501 -2.03008 0
M  V30 9169 H 853.067 -4.71747 -0.418486 0
M  V30 9170 H 853.491 -6.6289 1.37498 0
M  V30 9171 H 858.133 -4.22077 -0.247105 0
M  V30 9172 H 855.851 -7.65662 2.58433 0
M  V30 9173 H 859.437 -5.67838 1.26694 0
M  V30 9174 H 858.317 -7.37587 2.66337 0
M  V30 9175 N 855.82 0.285905 -1.54985 0
M  V30 9176 C 857.068 1.01718 -1.74636 0
M  V30 9177 C 857.389 1.87277 -0.543342 0
M  V30 9178 O 856.659 1.90847 0.442078 0
M  V30 9179 H 855.239 0.378549 -0.643979 0
M  V30 9180 H 857.901 0.313247 -1.92366 0
M  V30 9181 H 856.997 1.66159 -2.64192 0
M  V30 9182 N 857.298 1.47698 0.54982 0
M  V30 9183 C 858.709 1.48474 1.13191 0
M  V30 9184 C 859.06 0.243504 1.94683 0
M  V30 9185 O 858.185 -0.651009 2.06375 0
M  V30 9186 C 858.78 2.69022 2.05944 0
M  V30 9187 C 857.339 2.72733 2.5941 0
M  V30 9188 C 856.486 2.41691 1.35944 0
M  V30 9189 H 859.437 1.55101 0.336048 0
M  V30 9190 H 859.458 2.46412 2.89934 0
M  V30 9191 H 858.97 3.59345 1.46605 0
M  V30 9192 H 857.071 1.86568 3.22526 0
M  V30 9193 H 857.184 3.73628 2.99899 0
M  V30 9194 H 855.548 1.92428 1.66864 0
M  V30 9195 H 856.331 3.34231 0.783869 0
M  V30 9196 N 858.776 -0.797141 1.35954 0
M  V30 9197 C 860.001 -1.59097 1.33053 0
M  V30 9198 C 860.426 -1.87897 -0.0874592 0
M  V30 9199 O 859.784 -1.47291 -1.05712 0
M  V30 9200 C 859.832 -2.89346 2.152 0
M  V30 9201 O 858.936 -3.826 1.5392 0
M  V30 9202 H 858.277 -0.482895 0.45575 0
M  V30 9203 H 860.807 -0.988633 1.79129 0
M  V30 9204 H 860.817 -3.38686 2.27499 0
M  V30 9205 H 859.492 -2.6771 3.18283 0
M  V30 9206 H 858.069 -3.41174 1.50516 0
M  V30 9207 N 860.254 -1.20106 -1.0204 0
M  V30 9208 C 861.184 -0.970301 -2.12385 0
M  V30 9209 C 862.165 0.099378 -1.69809 0
M  V30 9210 O 863.35 -0.057365 -1.94115 0
M  V30 9211 C 860.48 -0.517431 -3.43424 0
M  V30 9212 C 859.434 -1.52992 -3.99722 0
M  V30 9213 C 858.76 -0.933817 -5.26483 0
M  V30 9214 C 860.06 -2.91257 -4.33551 0
M  V30 9215 H 861.754 -1.89316 -2.31948 0
M  V30 9216 H 859.3 -0.911655 -1.11467 0
M  V30 9217 H 861.253 -0.343243 -4.2 0
M  V30 9218 H 859.977 0.441049 -3.23608 0
M  V30 9219 H 858.636 -1.6914 -3.2525 0
M  V30 9220 H 858.284 0.0324763 -5.0299 0
M  V30 9221 H 857.984 -1.60999 -5.65113 0
M  V30 9222 H 859.508 -0.770614 -6.05718 0
M  V30 9223 H 860.922 -2.78642 -5.0103 0
M  V30 9224 H 859.319 -3.55745 -4.83286 0
M  V30 9225 H 860.389 -3.43269 -3.42483 0
M  V30 9226 N 861.732 1.21287 -1.00634 0
M  V30 9227 C 862.642 2.27388 -0.577226 0
M  V30 9228 C 863.658 1.69791 0.380399 0
M  V30 9229 O 864.834 1.99918 0.2439 0
M  V30 9230 C 861.899 3.46588 0.0880532 0
M  V30 9231 C 860.96 4.19453 -0.914222 0
M  V30 9232 C 860.193 5.32962 -0.280596 0
M  V30 9233 O 860.416 5.62895 0.922265 0
M  V30 9234 O 859.35 5.93666 -0.992196 0
M  V30 9235 H 863.176 2.66289 -1.46028 0
M  V30 9236 H 860.761 1.2771 -0.775283 0
M  V30 9237 H 862.643 4.18881 0.460094 0
M  V30 9238 H 861.318 3.09585 0.945461 0
M  V30 9239 H 860.225 3.49376 -1.33744 0
M  V30 9240 H 861.558 4.6037 -1.74126 0
M  V30 9241 N 863.21 0.781244 1.36873 0
M  V30 9242 C 864.12 0.174981 2.33947 0
M  V30 9243 C 865.136 -0.668512 1.60645 0
M  V30 9244 O 866.312 -0.586213 1.9268 0
M  V30 9245 C 863.377 -0.686557 3.39834 0
M  V30 9246 C 862.438 0.174489 4.28945 0
M  V30 9247 C 861.671 -0.646024 5.29776 0
M  V30 9248 O 861.894 -1.88254 5.38439 0
M  V30 9249 O 860.828 -0.0502214 6.01879 0
M  V30 9250 H 864.654 0.977382 2.87543 0
M  V30 9251 H 862.239 0.542559 1.392 0
M  V30 9252 H 864.121 -1.1781 4.04597 0
M  V30 9253 H 862.796 -1.46699 2.8855 0
M  V30 9254 H 861.703 0.712604 3.6725 0
M  V30 9255 H 863.036 0.918232 4.83559 0
M  V30 9256 N 864.689 -1.48329 0.532571 0
M  V30 9257 C 865.637 -2.31336 -0.242133 0
M  V30 9258 C 866.631 -1.41391 -0.933006 0
M  V30 9259 O 867.837 -1.58284 -0.857096 0
M  V30 9260 H 864.212 -0.745724 -0.0969536 0
M  V30 9261 H 866.183 -2.94555 0.477504 0
M  V30 9262 C 864.932 -3.23501 -1.27446 0
M  V30 9263 H 864.255 -3.92659 -0.752261 0
M  V30 9264 H 865.695 -3.84461 -1.78789 0
M  V30 9265 C 864.154 -2.45288 -2.30944 0
M  V30 9266 O 864.684 -2.17955 -3.37429 0
M  V30 9267 N 862.89 -2.06737 -2.04226 0
M  V30 9268 H 862.437 -2.29166 -1.17647 0
M  V30 9269 H 862.395 -1.54719 -2.73696 0
M  V30 9270 N 866.167 -0.267825 -1.55308 0
M  V30 9271 C 867.583 0.0865107 -1.59365 0
M  V30 9272 C 867.783 1.55205 -1.28505 0
M  V30 9273 O 866.839 2.29978 -1.04241 0
M  V30 9274 C 868.152 -0.28155 -2.99379 0
M  V30 9275 C 869.7 -0.227565 -3.12172 0
M  V30 9276 C 870.175 -0.569959 -4.5444 0
M  V30 9277 N 871.666 -0.521238 -4.60258 0
M  V30 9278 C 872.401 -0.759061 -5.68354 0
M  V30 9279 N 871.897 -1.06112 -6.84626 0
M  V30 9280 N 873.69 -0.688351 -5.57869 0
M  V30 9281 H 865.841 -1.22332 -1.73633 0
M  V30 9282 H 868.104 -0.493703 -0.809297 0
M  V30 9283 H 867.81 -1.3005 -3.26772 0
M  V30 9284 H 867.684 0.381192 -3.75269 0
M  V30 9285 H 870.071 0.782093 -2.84548 0
M  V30 9286 H 870.152 -0.924461 -2.38511 0
M  V30 9287 H 869.796 -1.57727 -4.82788 0
M  V30 9288 H 869.726 0.148646 -5.2639 0
M  V30 9289 H 872.217 -0.297359 -3.76728 0
M  V30 9290 H 872.53 -1.22945 -7.62958 0
M  V30 9291 H 870.875 -1.09881 -6.86259 0
M  V30 9292 H 874.066 -0.452268 -4.6591 0
M  V30 9293 H 874.239 -0.877081 -6.42037 0
M  V30 9294 N 867.645 1.57599 0.00500368 0
M  V30 9295 C 868.873 1.94626 0.702016 0
M  V30 9296 C 869.288 0.86953 1.67585 0
M  V30 9297 O 868.645 -0.15199 1.81866 0
M  V30 9298 C 868.696 3.31658 1.43824 0
M  V30 9299 O 868.417 4.35197 0.503467 0
M  V30 9300 C 869.918 3.83114 2.23021 0
M  V30 9301 H 867.138 0.641785 0.195841 0
M  V30 9302 H 869.682 2.04451 -0.0446287 0
M  V30 9303 H 867.837 3.23156 2.13655 0
M  V30 9304 H 868.251 5.1444 1.02235 0
M  V30 9305 H 869.725 4.81438 2.7004 0
M  V30 9306 H 870.202 3.15559 3.05482 0
M  V30 9307 H 870.808 3.94775 1.58216 0
M  V30 9308 N 869.123 -0.277682 1.55134 0
M  V30 9309 C 870.371 -1.00791 1.75173 0
M  V30 9310 C 870.692 -1.86987 0.553266 0
M  V30 9311 O 869.962 -1.91079 -0.43195 0
M  V30 9312 H 868.542 -0.375129 0.645978 0
M  V30 9313 H 871.204 -0.303041 1.9253 0
M  V30 9314 H 870.3 -1.64756 2.6507 0
M  V30 9315 N 870.601 -1.47988 -0.541979 0
M  V30 9316 C 871.534 -1.56172 -1.66389 0
M  V30 9317 C 872.512 -0.412879 -1.57271 0
M  V30 9318 O 873.696 -0.622816 -1.77914 0
M  V30 9319 C 870.823 -1.47851 -3.04726 0
M  V30 9320 C 869.869 -2.67428 -3.32242 0
M  V30 9321 S 870.702 -4.29502 -3.19825 0
M  V30 9322 C 871.858 -4.2376 -4.60628 0
M  V30 9323 H 872.091 -2.51086 -1.59195 0
M  V30 9324 H 869.624 -1.36373 -0.724005 0
M  V30 9325 H 871.582 -1.43738 -3.84512 0
M  V30 9326 H 870.243 -0.542958 -3.09372 0
M  V30 9327 H 869.436 -2.57711 -4.33129 0
M  V30 9328 H 869.038 -2.68743 -2.60103 0
M  V30 9329 H 871.33 -3.92953 -5.51901 0
M  V30 9330 H 872.273 -5.24786 -4.75401 0
M  V30 9331 H 872.681 -3.54398 -4.39389 0
M  V30 9332 N 872.079 0.78992 -1.36375 0
M  V30 9333 C 873.309 1.57644 -1.33536 0
M  V30 9334 C 873.717 1.89007 0.0855075 0
M  V30 9335 O 873.06 1.50547 1.05267 0
M  V30 9336 C 873.122 2.92424 -2.09113 0
M  V30 9337 C 872.786 2.83793 -3.58205 0
M  V30 9338 C 873.783 2.56072 -4.52464 0
M  V30 9339 C 871.468 3.02386 -4.01084 0
M  V30 9340 C 873.462 2.47044 -5.87578 0
M  V30 9341 C 871.149 2.9298 -5.36289 0
M  V30 9342 C 872.147 2.65347 -6.29349 0
M  V30 9343 O 871.835 2.55935 -7.62071 0
M  V30 9344 H 871.567 0.495639 -0.459694 0
M  V30 9345 H 874.121 0.988354 -1.80058 0
M  V30 9346 H 872.351 3.53282 -1.57254 0
M  V30 9347 H 874.04 3.53693 -1.99139 0
M  V30 9348 H 874.806 2.4141 -4.2065 0
M  V30 9349 H 870.685 3.229 -3.29023 0
M  V30 9350 H 874.229 2.25396 -6.60184 0
M  V30 9351 H 870.126 3.07204 -5.67711 0
M  V30 9352 H 870.894 2.7142 -7.72187 0
M  V30 9353 N 873.557 1.20646 1.01402 0
M  V30 9354 C 874.803 1.0197 1.753 0
M  V30 9355 C 875.136 -0.446803 1.8899 0
M  V30 9356 O 874.411 -1.33169 1.41762 0
M  V30 9357 C 874.694 1.70693 3.17074 0
M  V30 9358 C 874.547 3.24805 3.11162 0
M  V30 9359 C 875.866 1.44212 4.15802 0
M  V30 9360 H 872.985 0.371844 0.636318 0
M  V30 9361 H 875.627 1.48696 1.18277 0
M  V30 9362 H 873.777 1.30968 3.65759 0
M  V30 9363 H 875.449 3.73841 2.70261 0
M  V30 9364 H 873.692 3.55576 2.48492 0
M  V30 9365 H 874.363 3.68049 4.11393 0
M  V30 9366 H 876.839 1.7868 3.75783 0
M  V30 9367 H 875.715 1.94825 5.13161 0
M  V30 9368 H 875.976 0.370252 4.40547 0
M  V30 9369 N 875.035 -1.20752 1.01276 0
M  V30 9370 C 875.998 -2.2162 0.584583 0
M  V30 9371 C 876.998 -1.57094 -0.343215 0
M  V30 9372 O 878.188 -1.73696 -0.132433 0
M  V30 9373 C 875.32 -3.40583 -0.146872 0
M  V30 9374 H 876.513 -2.61015 1.47686 0
M  V30 9375 H 874.066 -1.34148 0.802123 0
M  V30 9376 H 874.801 -3.06686 -1.05424 0
M  V30 9377 H 874.586 -3.88642 0.51958 0
M  V30 9378 H 876.076 -4.15339 -0.433924 0
M  V30 9379 N 876.513 -0.788492 -1.36457 0
M  V30 9380 C 877.741 -0.372365 -2.03522 0
M  V30 9381 C 878.156 1.01093 -1.59454 0
M  V30 9382 O 877.513 1.64824 -0.783535 0
M  V30 9383 C 877.564 -0.425435 -3.58988 0
M  V30 9384 O 877.285 -1.75418 -4.01448 0
M  V30 9385 C 878.786 0.000180167 -4.433 0
M  V30 9386 H 876.006 -0.1536 -0.653183 0
M  V30 9387 H 878.55 -1.06708 -1.74452 0
M  V30 9388 H 876.705 0.220856 -3.8677 0
M  V30 9389 H 877.119 -1.70437 -4.96036 0
M  V30 9390 H 878.593 -0.0880919 -5.5193 0
M  V30 9391 H 879.07 1.05269 -4.26398 0
M  V30 9392 H 879.676 -0.618563 -4.20778 0
M  V30 9393 N 877.991 1.48044 -0.54043 0
M  V30 9394 C 878.921 2.32597 0.205178 0
M  V30 9395 C 879.902 1.42748 0.925041 0
M  V30 9396 O 881.087 1.71624 0.908784 0
M  V30 9397 C 878.217 3.24175 1.24612 0
M  V30 9398 C 877.171 4.23131 0.64376 0
M  V30 9399 C 876.497 5.03915 1.78812 0
M  V30 9400 C 877.797 5.20831 -0.39144 0
M  V30 9401 H 879.491 2.95184 -0.500676 0
M  V30 9402 H 877.037 1.41948 -0.242225 0
M  V30 9403 H 878.99 3.82158 1.77576 0
M  V30 9404 H 877.714 2.59608 1.98169 0
M  V30 9405 H 876.373 3.66349 0.135554 0
M  V30 9406 H 876.021 4.35765 2.51232 0
M  V30 9407 H 875.721 5.709 1.39094 0
M  V30 9408 H 877.245 5.64753 2.32134 0
M  V30 9409 H 878.659 5.73277 0.0515064 0
M  V30 9410 H 877.056 5.95926 -0.706569 0
M  V30 9411 H 878.126 4.6733 -1.29345 0
M  V30 9412 N 879.47 0.276058 1.55163 0
M  V30 9413 C 880.433 -0.597924 2.21263 0
M  V30 9414 C 881.433 -1.0806 1.19078 0
M  V30 9415 O 882.623 -0.980626 1.43977 0
M  V30 9416 C 879.755 -1.82503 2.87933 0
M  V30 9417 H 880.948 -0.0207769 2.99893 0
M  V30 9418 H 878.501 0.0266823 1.56277 0
M  V30 9419 H 879.236 -2.44266 2.13318 0
M  V30 9420 H 879.021 -1.48683 3.62816 0
M  V30 9421 H 880.511 -2.44651 3.38431 0
M  V30 9422 N 880.948 -1.576 0.00335426 0
M  V30 9423 C 882.196 -1.90336 -0.679446 0
M  V30 9424 C 882.517 -0.877777 -1.74127 0
M  V30 9425 O 881.787 0.0843585 -1.95718 0
M  V30 9426 H 880.367 -0.702509 -0.253948 0
M  V30 9427 H 883.029 -1.94848 0.0450731 0
M  V30 9428 H 882.125 -2.90197 -1.14857 0
M  V30 9429 N 882.426 0.269451 -1.5528 0
M  V30 9430 C 883.651 1.02299 -1.80415 0
M  V30 9431 C 884.076 1.7902 -0.577363 0
M  V30 9432 O 883.434 1.75018 0.473125 0
M  V30 9433 C 883.482 1.95445 -3.0304 0
M  V30 9434 O 882.586 3.04271 -2.78375 0
M  V30 9435 H 881.927 0.292289 -0.596207 0
M  V30 9436 H 884.457 0.297282 -2.02429 0
M  V30 9437 H 884.467 2.37333 -3.31869 0
M  V30 9438 H 883.142 1.39017 -3.91978 0
M  V30 9439 H 881.719 2.66673 -2.60653 0
M  V30 9440 N 883.904 1.48273 0.534124 0
M  V30 9441 C 884.836 1.5857 1.65494 0
M  V30 9442 C 885.849 0.470266 1.5586 0
M  V30 9443 O 887.038 0.740928 1.62396 0
M  V30 9444 C 884.138 1.49554 3.04117 0
M  V30 9445 C 883.311 2.76066 3.39273 0
M  V30 9446 C 882.37 2.60562 4.57159 0
M  V30 9447 O 881.396 3.34438 4.60587 0
M  V30 9448 N 882.598 1.69906 5.55079 0
M  V30 9449 H 885.363 2.55226 1.57099 0
M  V30 9450 H 882.924 1.44944 0.721303 0
M  V30 9451 H 884.916 1.36882 3.80848 0
M  V30 9452 H 883.486 0.608895 3.06613 0
M  V30 9453 H 882.706 3.03332 2.51761 0
M  V30 9454 H 883.994 3.60006 3.59546 0
M  V30 9455 H 883.392 1.09079 5.55084 0
M  V30 9456 H 881.949 1.63175 6.31044 0
M  V30 9457 N 885.382 -0.782676 1.36792 0
M  V30 9458 C 886.607 -1.57676 1.34733 0
M  V30 9459 C 887.032 -1.87979 -0.0675253 0
M  V30 9460 O 886.39 -1.48404 -1.04144 0
M  V30 9461 C 886.438 -2.87047 2.18257 0
M  V30 9462 O 885.542 -3.80946 1.57969 0
M  V30 9463 H 884.883 -0.478034 0.460846 0
M  V30 9464 H 887.413 -0.969578 1.80168 0
M  V30 9465 H 887.423 -3.36254 2.31079 0
M  V30 9466 H 886.098 -2.64319 3.21104 0
M  V30 9467 H 884.675 -3.39558 1.54126 0
M  V30 9468 N 886.86 -1.21182 -1.00761 0
M  V30 9469 C 888.271 -1.02652 -1.55947 0
M  V30 9470 C 888.622 0.414466 -1.91772 0
M  V30 9471 O 887.747 1.29727 -1.73204 0
M  V30 9472 C 888.342 -1.85713 -2.83366 0
M  V30 9473 C 886.901 -1.71523 -3.35048 0
M  V30 9474 C 886.048 -1.83087 -2.08265 0
M  V30 9475 H 888.999 -1.35242 -0.830379 0
M  V30 9476 H 889.02 -1.36583 -3.55141 0
M  V30 9477 H 888.532 -2.90584 -2.5726 0
M  V30 9478 H 886.633 -0.693257 -3.66094 0
M  V30 9479 H 886.746 -2.53333 -4.06644 0
M  V30 9480 H 885.11 -1.26367 -2.21141 0
M  V30 9481 H 885.893 -2.8946 -1.84575 0
M  V30 9482 N 888.338 1.20213 -1.01915 0
M  V30 9483 C 889.285 2.2309 -0.591571 0
M  V30 9484 C 890.255 1.61465 0.389649 0
M  V30 9485 O 891.44 1.88606 0.288511 0
M  V30 9486 C 888.58 3.45045 0.0614028 0
M  V30 9487 C 887.693 4.21091 -0.964688 0
M  V30 9488 C 886.828 5.30448 -0.282499 0
M  V30 9489 C 885.867 5.98241 -1.29517 0
M  V30 9490 N 885.004 6.99182 -0.639472 0
M  V30 9491 H 889.844 2.59023 -1.47347 0
M  V30 9492 H 887.381 1.27274 -0.737547 0
M  V30 9493 H 889.339 4.14688 0.45714 0
M  V30 9494 H 887.969 3.09797 0.906937 0
M  V30 9495 H 887.021 3.50489 -1.47857 0
M  V30 9496 H 888.333 4.67662 -1.73475 0
M  V30 9497 H 887.487 6.06466 0.168603 0
M  V30 9498 H 886.226 4.84922 0.519843 0
M  V30 9499 H 885.231 5.20982 -1.75663 0
M  V30 9500 H 886.456 6.45853 -2.09884 0
M  V30 9501 H 884.402 6.55844 0.142955 0
M  V30 9502 H 884.319 7.43893 -1.34756 0
M  V30 9503 H 885.587 7.79212 -0.212047 0
M  V30 9504 N 889.816 0.795718 1.36037 0
M  V30 9505 C 891.227 0.433379 1.816 0
M  V30 9506 C 891.578 -1.04341 1.66155 0
M  V30 9507 O 890.703 -1.81004 1.18603 0
M  V30 9508 C 891.298 0.77985 3.29703 0
M  V30 9509 C 889.857 0.470256 3.73451 0
M  V30 9510 C 889.004 1.01119 2.58206 0
M  V30 9511 H 891.955 0.988317 1.24169 0
M  V30 9512 H 891.976 0.0732898 3.80429 0
M  V30 9513 H 891.488 1.85473 3.40913 0
M  V30 9514 H 889.589 -0.596332 3.67797 0
M  V30 9515 H 889.702 0.995276 4.68648 0
M  V30 9516 H 888.066 0.434077 2.50974 0
M  V30 9517 H 888.849 2.09196 2.72198 0
M  V30 9518 N 891.294 -1.47756 0.548274 0
M  V30 9519 C 892.224 -2.32702 -0.19284 0
M  V30 9520 C 893.205 -1.43237 -0.917457 0
M  V30 9521 O 894.39 -1.72103 -0.89967 0
M  V30 9522 C 891.52 -3.24831 -1.22891 0
M  V30 9523 C 890.474 -4.23466 -0.621312 0
M  V30 9524 C 889.8 -5.04856 -1.76137 0
M  V30 9525 C 891.1 -5.20616 0.419055 0
M  V30 9526 H 892.794 -2.94914 0.516323 0
M  V30 9527 H 890.34 -1.41818 0.24975 0
M  V30 9528 H 892.293 -3.83094 -1.75547 0
M  V30 9529 H 891.017 -2.60656 -1.9679 0
M  V30 9530 H 889.676 -3.66416 -0.116123 0
M  V30 9531 H 889.324 -4.37091 -2.48918 0
M  V30 9532 H 889.024 -5.71629 -1.36065 0
M  V30 9533 H 890.548 -5.65976 -2.29136 0
M  V30 9534 H 891.962 -5.73296 -0.0211034 0
M  V30 9535 H 890.359 -5.95543 0.738163 0
M  V30 9536 H 891.429 -4.66638 1.31822 0
M  V30 9537 N 892.772 -0.284283 -1.55015 0
M  V30 9538 C 893.705 0.640779 -2.19019 0
M  V30 9539 C 894.683 1.14541 -1.15409 0
M  V30 9540 O 895.867 1.21669 -1.43975 0
M  V30 9541 C 892.994 1.87488 -2.82074 0
M  V30 9542 C 892.04 1.50494 -3.99066 0
M  V30 9543 S 892.873 0.575218 -5.32402 0
M  V30 9544 C 894.029 1.81749 -5.98931 0
M  V30 9545 H 894.262 0.0969761 -2.97142 0
M  V30 9546 H 891.795 -0.0684929 -1.54248 0
M  V30 9547 H 893.753 2.58319 -3.19032 0
M  V30 9548 H 892.414 2.38984 -2.03828 0
M  V30 9549 H 891.607 2.42349 -4.41908 0
M  V30 9550 H 891.209 0.876741 -3.63578 0
M  V30 9551 H 893.501 2.76026 -6.18721 0
M  V30 9552 H 894.444 1.43192 -6.93471 0
M  V30 9553 H 894.852 1.98661 -5.28388 0
M  V30 9554 N 894.251 1.57596 -0.0117121 0
M  V30 9555 C 895.497 1.91355 0.671661 0
M  V30 9556 C 895.83 0.886818 1.72769 0
M  V30 9557 O 895.105 -0.0928813 1.94278 0
M  V30 9558 C 895.388 3.35657 1.30409 0
M  V30 9559 C 895.241 4.49055 0.2588 0
M  V30 9560 C 896.56 3.79595 2.22701 0
M  V30 9561 H 893.679 0.695893 0.242698 0
M  V30 9562 H 896.321 1.89887 -0.0654071 0
M  V30 9563 H 894.471 3.37038 1.9323 0
M  V30 9564 H 896.143 4.59809 -0.370631 0
M  V30 9565 H 894.386 4.31785 -0.417672 0
M  V30 9566 H 895.057 5.4701 0.740578 0
M  V30 9567 H 897.533 3.7984 1.69885 0
M  V30 9568 H 896.409 4.81292 2.63912 0
M  V30 9569 H 896.67 3.14118 3.11098 0
M  V30 9570 N 895.729 -0.261212 1.5542 0
M  V30 9571 C 896.679 -1.32571 1.85496 0
M  V30 9572 C 897.663 -1.44155 0.714722 0
M  V30 9573 O 898.855 -1.47637 0.976336 0
M  V30 9574 C 895.984 -2.68384 2.14067 0
M  V30 9575 C 895.07 -2.60864 3.34381 0
M  V30 9576 N 895.461 -2.22967 4.54004 0
M  V30 9577 C 893.759 -2.91904 3.37206 0
M  V30 9578 C 894.46 -2.25727 5.36118 0
M  V30 9579 N 893.436 -2.64667 4.74818 0
M  V30 9580 H 897.238 -1.02298 2.75522 0
M  V30 9581 H 894.752 -0.469849 1.55455 0
M  V30 9582 H 896.749 -3.45189 2.33774 0
M  V30 9583 H 895.409 -2.99536 1.25332 0
M  V30 9584 H 896.42 -1.94748 4.79889 0
M  V30 9585 H 893.097 -3.2769 2.587 0
M  V30 9586 H 894.487 -1.98889 6.41789 0
M  V30 9587 N 897.207 -1.48554 -0.526253 0
M  V30 9588 C 898.14 -1.57928 -1.64724 0
M  V30 9589 C 899.118 -0.429536 -1.56824 0
M  V30 9590 O 900.302 -0.641651 -1.77243 0
M  V30 9591 C 897.429 -1.51075 -3.0314 0
M  V30 9592 C 896.475 -2.70937 -3.29386 0
M  V30 9593 S 897.308 -4.3287 -3.15251 0
M  V30 9594 C 898.464 -4.28622 -4.56108 0
M  V30 9595 H 898.697 -2.52761 -1.56523 0
M  V30 9596 H 896.23 -1.37133 -0.7095 0
M  V30 9597 H 898.188 -1.47808 -3.82966 0
M  V30 9598 H 896.849 -0.57574 -3.08778 0
M  V30 9599 H 896.042 -2.62291 -4.30371 0
M  V30 9600 H 895.644 -2.71486 -2.57238 0
M  V30 9601 H 897.936 -3.98784 -5.47702 0
M  V30 9602 H 898.879 -5.29798 -4.69808 0
M  V30 9603 H 899.287 -3.59038 -4.35605 0
M  V30 9604 N 898.685 0.775411 -1.37205 0
M  V30 9605 C 900.101 1.07546 -1.17924 0
M  V30 9606 C 900.301 2.01496 -0.0128897 0
M  V30 9607 O 899.357 2.44039 0.64816 0
M  V30 9608 C 900.67 1.67647 -2.49629 0
M  V30 9609 C 902.218 1.79923 -2.56119 0
M  V30 9610 C 902.693 2.43438 -3.87946 0
M  V30 9611 N 904.184 2.50893 -3.89368 0
M  V30 9612 C 904.919 3.00881 -4.88117 0
M  V30 9613 N 904.415 3.5107 -5.97262 0
M  V30 9614 N 906.208 2.99722 -4.75524 0
M  V30 9615 H 898.359 0.151524 -2.11859 0
M  V30 9616 H 900.622 0.129845 -0.939066 0
M  V30 9617 H 900.328 1.06082 -3.3532 0
M  V30 9618 H 900.202 2.66988 -2.66453 0
M  V30 9619 H 902.589 2.40621 -1.70838 0
M  V30 9620 H 902.67 0.793482 -2.43182 0
M  V30 9621 H 902.314 1.8338 -4.73639 0
M  V30 9622 H 902.244 3.44611 -3.98184 0
M  V30 9623 H 904.735 2.1537 -3.10522 0
M  V30 9624 H 905.048 3.87604 -6.68568 0
M  V30 9625 H 903.393 3.49184 -6.00912 0
M  V30 9626 H 906.584 2.5981 -3.8938 0
M  V30 9627 H 906.757 3.38369 -5.52639 0
M  V30 9628 N 900.163 1.21714 1.00117 0
M  V30 9629 C 901.11 0.979837 2.08968 0
M  V30 9630 C 902.08 -0.0955324 1.65825 0
M  V30 9631 O 903.265 0.0523742 1.90728 0
M  V30 9632 C 900.405 0.554758 3.40612 0
M  V30 9633 C 899.518 1.69999 3.97145 0
M  V30 9634 C 898.653 1.2237 5.16913 0
M  V30 9635 C 897.692 2.34101 5.65564 0
M  V30 9636 N 896.829 1.87579 6.76579 0
M  V30 9637 H 901.669 1.91167 2.28602 0
M  V30 9638 H 899.206 0.952645 1.12085 0
M  V30 9639 H 901.164 0.289526 4.16194 0
M  V30 9640 H 899.794 -0.340073 3.21004 0
M  V30 9641 H 898.846 2.07976 3.18512 0
M  V30 9642 H 900.158 2.54074 4.29241 0
M  V30 9643 H 899.312 0.915358 5.99755 0
M  V30 9644 H 898.051 0.353045 4.8642 0
M  V30 9645 H 897.056 2.65734 4.81316 0
M  V30 9646 H 898.281 3.21669 5.98085 0
M  V30 9647 H 896.227 1.02863 6.47885 0
M  V30 9648 H 896.144 2.65225 7.07949 0
M  V30 9649 H 897.412 1.5979 7.62947 0
M  V30 9650 N 901.641 -1.19671 1.02551 0
M  V30 9651 C 902.871 -1.92952 0.738441 0
M  V30 9652 C 903.279 -1.75528 -0.706155 0
M  V30 9653 O 902.622 -1.0723 -1.49156 0
M  V30 9654 C 902.684 -3.45149 1.00562 0
M  V30 9655 C 902.348 -3.86341 2.44109 0
M  V30 9656 C 903.345 -3.91374 3.42231 0
M  V30 9657 C 901.03 -4.18076 2.7842 0
M  V30 9658 C 903.024 -4.27568 4.7272 0
M  V30 9659 C 900.711 -4.53943 4.0912 0
M  V30 9660 C 901.709 -4.58663 5.06081 0
M  V30 9661 O 901.397 -4.93701 6.3444 0
M  V30 9662 H 901.129 -0.619836 0.269776 0
M  V30 9663 H 903.683 -1.52852 1.37206 0
M  V30 9664 H 901.913 -3.85416 0.314849 0
M  V30 9665 H 903.602 -3.99664 0.708742 0
M  V30 9666 H 904.368 -3.67011 3.17061 0
M  V30 9667 H 900.247 -4.13589 2.03631 0
M  V30 9668 H 903.791 -4.31166 5.48399 0
M  V30 9669 H 899.688 -4.77764 4.34064 0
M  V30 9670 H 900.456 -5.11662 6.38862 0
M  V30 9671 N 903.119 -0.802921 -1.35613 0
M  V30 9672 C 904.367 -0.380822 -1.9848 0
M  V30 9673 C 904.688 1.05464 -1.6402 0
M  V30 9674 O 903.958 1.72908 -0.920854 0
M  V30 9675 H 902.538 -0.137824 -0.734176 0
M  V30 9676 H 905.2 -1.02795 -1.65587 0
M  V30 9677 H 904.296 -0.483565 -3.08331 0
M  V30 9678 N 904.597 1.47463 -0.556102 0
M  V30 9679 C 905.845 2.02075 -0.0315712 0
M  V30 9680 C 906.166 1.43292 1.32259 0
M  V30 9681 O 905.436 0.60771 1.86236 0
M  V30 9682 H 904.016 0.74695 -0.0086816 0
M  V30 9683 H 906.678 1.80879 -0.725859 0
M  V30 9684 H 905.774 3.12047 0.0573538 0
M  V30 9685 N 906.075 0.2925 1.54862 0
M  V30 9686 C 907.324 -0.319994 1.99146 0
M  V30 9687 C 907.637 -1.55658 1.18448 0
M  V30 9688 O 908.843 -2.24312 1.52959 0
M  V30 9689 C 907.299 -0.620665 3.54508 0
M  V30 9690 C 906.907 0.597098 4.44003 0
M  V30 9691 C 908.651 -1.19482 4.07338 0
M  V30 9692 C 906.558 0.270049 5.90783 0
M  V30 9693 H 905.488 -0.123342 0.743843 0
M  V30 9694 H 908.139 0.399876 1.7909 0
M  V30 9695 H 906.521 -1.3999 3.7043 0
M  V30 9696 H 907.695 1.37354 4.39853 0
M  V30 9697 H 906.01 1.0893 4.019 0
M  V30 9698 H 908.607 -1.45362 5.14562 0
M  V30 9699 H 908.95 -2.13435 3.57423 0
M  V30 9700 H 909.483 -0.477485 3.94924 0
M  V30 9701 H 906.222 1.17791 6.4483 0
M  V30 9702 H 905.742 -0.469292 5.97961 0
M  V30 9703 H 907.421 -0.131471 6.46866 0
M  V30 9704 N 907.553 -1.57587 0.0200696 0
M  V30 9705 C 908.781 -1.95718 -0.670964 0
M  V30 9706 C 909.196 -0.896081 -1.6618 0
M  V30 9707 O 908.553 0.123037 -1.82085 0
M  V30 9708 C 908.604 -3.33904 -1.38529 0
M  V30 9709 O 908.325 -4.35943 -0.434167 0
M  V30 9710 C 909.826 -3.86614 -2.16898 0
M  V30 9711 H 907.046 -0.644819 -0.185606 0
M  V30 9712 H 909.59 -2.04354 0.0771495 0
M  V30 9713 H 907.745 -3.26515 -2.08487 0
M  V30 9714 H 908.159 -5.16001 -0.940378 0
M  V30 9715 H 909.633 -4.85673 -2.62346 0
M  V30 9716 H 910.11 -3.20379 -3.00423 0
M  V30 9717 H 910.716 -3.97243 -1.51916 0
M  V30 9718 N 909.032 0.252966 -1.55557 0
M  V30 9719 C 910.257 1.0038 -1.8149 0
M  V30 9720 C 910.682 1.78397 -0.596318 0
M  V30 9721 O 910.04 1.7551 0.454535 0
M  V30 9722 C 910.088 1.9222 -3.05096 0
M  V30 9723 O 909.192 3.01302 -2.81587 0
M  V30 9724 H 908.533 0.285949 -0.599274 0
M  V30 9725 H 911.063 0.275795 -2.02733 0
M  V30 9726 H 911.073 2.338 -3.34368 0
M  V30 9727 H 909.748 1.34852 -3.93431 0
M  V30 9728 H 908.325 2.63894 -2.63466 0
M  V30 9729 N 910.51 1.48831 0.518367 0
M  V30 9730 C 911.757 1.57439 1.27355 0
M  V30 9731 C 912.085 0.25338 1.92843 0
M  V30 9732 O 911.34 -0.757323 1.80452 0
M  V30 9733 C 911.639 2.67003 2.3758 0
M  V30 9734 C 911.305 4.09069 1.89667 0
M  V30 9735 C 909.967 4.47733 1.76319 0
M  V30 9736 C 912.319 4.98052 1.53603 0
M  V30 9737 C 909.647 5.73173 1.25258 0
M  V30 9738 C 911.999 6.23992 1.04001 0
M  V30 9739 C 910.663 6.61503 0.892784 0
M  V30 9740 H 909.933 0.57611 0.466023 0
M  V30 9741 H 912.58 1.82595 0.577166 0
M  V30 9742 H 910.885 2.35751 3.12936 0
M  V30 9743 H 912.582 2.70876 2.95681 0
M  V30 9744 H 909.172 3.7854 2.01011 0
M  V30 9745 H 913.356 4.68849 1.62771 0
M  V30 9746 H 908.612 6.0095 1.12557 0
M  V30 9747 H 912.786 6.92331 0.751706 0
M  V30 9748 H 910.413 7.58587 0.494939 0
M  V30 9749 N 911.988 -0.768124 1.37614 0
M  V30 9750 C 912.898 -1.91249 1.35871 0
M  V30 9751 C 913.914 -1.7208 0.257786 0
M  V30 9752 O 915.09 -1.95253 0.493782 0
M  V30 9753 C 912.155 -3.26423 1.16829 0
M  V30 9754 C 911.216 -3.5822 2.36594 0
M  V30 9755 C 910.449 -4.86945 2.1845 0
M  V30 9756 O 910.672 -5.58258 1.17064 0
M  V30 9757 O 909.606 -5.17888 3.06718 0
M  V30 9758 H 913.432 -1.95671 2.32264 0
M  V30 9759 H 911.017 -0.911382 1.18382 0
M  V30 9760 H 912.899 -4.07269 1.08212 0
M  V30 9761 H 911.574 -3.22845 0.235123 0
M  V30 9762 H 910.481 -2.77594 2.50783 0
M  V30 9763 H 911.814 -3.66545 3.2849 0
M  V30 9764 N 913.466 -1.22244 -0.994698 0
M  V30 9765 C 914.414 -0.988118 -2.10568 0
M  V30 9766 C 915.408 0.0681541 -1.69263 0
M  V30 9767 O 916.614 -0.0841311 -1.79803 0
M  V30 9768 H 912.989 -0.302343 -0.688544 0
M  V30 9769 H 914.96 -1.93091 -2.27505 0
M  V30 9770 C 913.709 -0.580557 -3.42819 0
M  V30 9771 H 913.032 -1.385 -3.75044 0
M  V30 9772 H 914.472 -0.456004 -4.21541 0
M  V30 9773 C 912.931 0.709692 -3.2934 0
M  V30 9774 O 913.461 1.76259 -3.60965 0
M  V30 9775 N 911.667 0.680155 -2.82528 0
M  V30 9776 H 911.214 -0.176977 -2.56991 0
M  V30 9777 H 911.172 1.54372 -2.73892 0
M  V30 9778 N 914.944 1.19125 -1.03184 0
M  V30 9779 C 916.172 1.92838 -0.74975 0
M  V30 9780 C 916.587 1.75667 0.691851 0
M  V30 9781 O 915.944 1.0805 1.47076 0
M  V30 9782 C 915.995 3.44509 -1.09525 0
M  V30 9783 O 915.716 3.6113 -2.48025 0
M  V30 9784 C 917.217 4.35338 -0.836397 0
M  V30 9785 H 914.437 0.61246 -0.274105 0
M  V30 9786 H 916.981 1.5118 -1.37712 0
M  V30 9787 H 915.136 3.83988 -0.513006 0
M  V30 9788 H 915.55 4.54959 -2.60984 0
M  V30 9789 H 917.024 5.4035 -1.12808 0
M  V30 9790 H 917.501 4.38602 0.229102 0
M  V30 9791 H 918.107 4.01544 -1.40152 0
M  V30 9792 N 916.422 0.810101 1.35185 0
M  V30 9793 C 917.385 0.22852 2.28058 0
M  V30 9794 C 918.385 -0.586168 1.49735 0
M  V30 9795 O 919.575 -0.40414 1.69447 0
M  V30 9796 C 916.707 -0.681041 3.34028 0
M  V30 9797 H 917.9 1.04768 2.81005 0
M  V30 9798 H 915.453 0.58101 1.451 0
M  V30 9799 H 916.188 -1.52375 2.86273 0
M  V30 9800 H 915.973 -0.0985276 3.91976 0
M  V30 9801 H 917.463 -1.08217 4.03335 0
M  V30 9802 N 917.9 -1.47166 0.563914 0
M  V30 9803 C 919.149 -2.0166 0.0401871 0
M  V30 9804 C 919.462 -1.44303 -1.32046 0
M  V30 9805 O 920.668 -1.905 -1.93448 0
M  V30 9806 C 919.124 -3.59894 0.0213257 0
M  V30 9807 C 918.732 -4.26244 1.37914 0
M  V30 9808 C 920.476 -4.22114 -0.449442 0
M  V30 9809 C 918.383 -5.76503 1.31902 0
M  V30 9810 H 917.313 -0.753916 0.0112534 0
M  V30 9811 H 919.964 -1.69091 0.712766 0
M  V30 9812 H 918.346 -3.89454 -0.717038 0
M  V30 9813 H 919.52 -4.08317 2.13574 0
M  V30 9814 H 917.835 -3.76039 1.78839 0
M  V30 9815 H 920.432 -5.32234 -0.51292 0
M  V30 9816 H 920.775 -3.89749 -1.46291 0
M  V30 9817 H 921.308 -3.9711 0.23427 0
M  V30 9818 H 918.047 -6.13498 2.3087 0
M  V30 9819 H 917.567 -5.96748 0.604324 0
M  V30 9820 H 919.246 -6.38846 1.02392 0
M  V30 9821 N 919.378 -0.300708 -1.54705 0
M  V30 9822 C 920.288 0.584996 -2.27189 0
M  V30 9823 C 921.304 1.14866 -1.30697 0
M  V30 9824 O 922.48 1.17351 -1.63679 0
M  V30 9825 C 919.545 1.74076 -2.99831 0
M  V30 9826 C 918.606 1.2112 -4.1186 0
M  V30 9827 C 917.839 2.31188 -4.81028 0
M  V30 9828 O 918.062 3.5108 -4.49554 0
M  V30 9829 O 916.996 1.97897 -5.68437 0
M  V30 9830 H 920.822 -0.00298177 -3.037 0
M  V30 9831 H 918.407 -0.0671802 -1.49249 0
M  V30 9832 H 920.289 2.41413 -3.45395 0
M  V30 9833 H 918.964 2.31535 -2.26215 0
M  V30 9834 H 917.871 0.50357 -3.70695 0
M  V30 9835 H 919.204 0.682046 -4.87452 0
M  V30 9836 N 920.856 1.57574 -0.0284266 0
M  V30 9837 C 922.102 1.92056 0.651327 0
M  V30 9838 C 922.435 0.905092 1.71819 0
M  V30 9839 O 921.71 -0.0722703 1.94366 0
M  V30 9840 C 921.993 3.37021 1.26841 0
M  V30 9841 C 921.846 4.49304 0.211157 0
M  V30 9842 C 923.165 3.81936 2.18662 0
M  V30 9843 H 920.284 0.698428 0.235304 0
M  V30 9844 H 922.926 1.89807 -0.0855435 0
M  V30 9845 H 921.076 3.39068 1.89644 0
M  V30 9846 H 922.748 4.5939 -0.419379 0
M  V30 9847 H 920.991 4.31317 -0.463445 0
M  V30 9848 H 921.662 5.47764 0.682518 0
M  V30 9849 H 924.138 3.8162 1.65847 0
M  V30 9850 H 923.014 4.84064 2.58792 0
M  V30 9851 H 923.275 3.174 3.07749 0
M  V30 9852 N 922.334 -0.244713 1.55689 0
M  V30 9853 C 923.611 -0.995407 1.68378 0
M  V30 9854 C 923.991 -2.03288 0.568949 0
M  V30 9855 O 923.339 -2.24469 -0.427299 0
M  V30 9856 C 923.549 -1.62678 3.08767 0
M  V30 9857 C 924.897 -2.1278 3.67437 0
M  V30 9858 O 925.921 -1.72614 3.11581 0
M  V30 9859 O 924.78 -2.86536 4.65359 0
M  V30 9860 H 921.874 -0.463476 0.684923 0
M  V30 9861 H 924.42 -0.238326 1.68018 0
M  V30 9862 H 923.192 -0.876469 3.81358 0
M  V30 9863 H 922.815 -2.45 3.13146 0
M  V30 9864 N 923.813 -1.49104 -0.510467 0
M  V30 9865 C 925.229 -1.35657 -0.840797 0
M  V30 9866 C 925.429 -0.382425 -1.97838 0
M  V30 9867 O 924.485 0.189331 -2.51789 0
M  V30 9868 C 925.798 -2.76155 -1.18992 0
M  V30 9869 C 927.346 -2.84786 -1.29868 0
M  V30 9870 C 927.821 -4.2603 -1.68115 0
M  V30 9871 N 929.312 -4.28796 -1.75181 0
M  V30 9872 C 930.047 -5.35041 -2.062 0
M  V30 9873 N 929.543 -6.51543 -2.35508 0
M  V30 9874 N 931.336 -5.2245 -2.07371 0
M  V30 9875 H 923.487 -2.11042 0.23982 0
M  V30 9876 H 925.75 -0.946946 0.0446824 0
M  V30 9877 H 925.456 -3.49092 -0.427484 0
M  V30 9878 H 925.33 -3.10922 -2.13558 0
M  V30 9879 H 927.717 -2.12092 -2.05186 0
M  V30 9880 H 927.798 -2.53613 -0.333758 0
M  V30 9881 H 927.442 -4.99247 -0.933512 0
M  V30 9882 H 927.372 -4.5466 -2.65691 0
M  V30 9883 H 929.863 -3.44771 -1.5473 0
M  V30 9884 H 930.176 -7.28342 -2.58337 0
M  V30 9885 H 928.521 -6.54785 -2.32985 0
M  V30 9886 H 931.712 -4.30444 -1.83945 0
M  V30 9887 H 931.885 -6.05347 -2.31212 0
M  V30 9888 N 925.291 0.760815 -1.38019 0
M  V30 9889 C 926.201 1.90526 -1.36884 0
M  V30 9890 C 927.217 1.71941 -0.266908 0
M  V30 9891 O 928.393 1.94988 -0.50413 0
M  V30 9892 C 925.458 3.25799 -1.18558 0
M  V30 9893 C 924.519 3.56961 -2.3849 0
M  V30 9894 C 923.752 4.8578 -2.21029 0
M  V30 9895 O 923.975 5.57629 -1.20023 0
M  V30 9896 O 922.909 5.16254 -3.0946 0
M  V30 9897 H 926.735 1.94437 -2.33298 0
M  V30 9898 H 924.32 0.905091 -1.18863 0
M  V30 9899 H 926.202 4.0669 -1.1037 0
M  V30 9900 H 924.877 3.22716 -0.252241 0
M  V30 9901 H 923.784 2.7626 -2.52252 0
M  V30 9902 H 925.117 3.64798 -3.30429 0
M  V30 9903 N 926.769 1.22769 0.988202 0
M  V30 9904 C 928.018 1.0492 1.72263 0
M  V30 9905 C 928.331 -0.415282 1.91141 0
M  V30 9906 O 929.537 -0.713547 2.61956 0
M  V30 9907 C 927.993 1.82891 3.09966 0
M  V30 9908 C 927.601 3.33618 2.99003 0
M  V30 9909 C 929.345 1.73505 3.87423 0
M  V30 9910 C 927.252 4.04012 4.3189 0
M  V30 9911 H 926.182 0.38899 0.645912 0
M  V30 9912 H 928.833 1.46664 1.10281 0
M  V30 9913 H 927.215 1.33948 3.72658 0
M  V30 9914 H 928.389 3.8999 2.45448 0
M  V30 9915 H 926.704 3.43732 2.35027 0
M  V30 9916 H 929.301 2.23416 4.85787 0
M  V30 9917 H 929.644 0.696344 4.10435 0
M  V30 9918 H 930.177 2.20016 3.31418 0
M  V30 9919 H 926.916 5.08155 4.14075 0
M  V30 9920 H 926.436 3.52428 4.8534 0
M  V30 9921 H 928.115 4.0987 5.00615 0
M  V30 9922 N 928.247 -1.18576 1.03814 0
M  V30 9923 C 929.21 -2.2033 0.63146 0
M  V30 9924 C 930.21 -1.57787 -0.309816 0
M  V30 9925 O 931.4 -1.73938 -0.0955598 0
M  V30 9926 C 928.532 -3.40818 -0.0745963 0
M  V30 9927 H 929.725 -2.57824 1.53189 0
M  V30 9928 H 927.278 -1.32416 0.830398 0
M  V30 9929 H 928.013 -3.08853 -0.988947 0
M  V30 9930 H 927.798 -3.87453 0.6019 0
M  V30 9931 H 929.288 -4.16166 -0.345727 0
M  V30 9932 N 929.725 -0.817259 -1.34754 0
M  V30 9933 C 930.635 -0.236946 -2.334 0
M  V30 9934 C 931.651 0.625685 -1.62361 0
M  V30 9935 O 932.827 0.534921 -1.94166 0
M  V30 9936 C 929.892 0.596215 -3.41535 0
M  V30 9937 C 928.953 -0.288154 -4.28332 0
M  V30 9938 C 928.186 0.505337 -5.31302 0
M  V30 9939 O 928.409 1.73912 -5.43241 0
M  V30 9940 O 927.343 -0.109374 -6.01801 0
M  V30 9941 H 931.169 -1.05327 -2.84851 0
M  V30 9942 H 928.754 -0.579275 -1.37713 0
M  V30 9943 H 930.636 1.07041 -4.07578 0
M  V30 9944 H 929.311 1.38997 -2.92338 0
M  V30 9945 H 928.218 -0.809724 -3.65232 0
M  V30 9946 H 929.551 -1.04612 -4.80955 0
M  V30 9947 N 931.203 1.46865 -0.571711 0
M  V30 9948 C 932.113 2.33979 0.170571 0
M  V30 9949 C 933.129 1.49083 0.897239 0
M  V30 9950 O 934.305 1.81979 0.862888 0
M  V30 9951 C 931.37 3.26063 1.17831 0
M  V30 9952 C 930.431 4.26855 0.457499 0
M  V30 9953 C 929.664 5.14539 1.41722 0
M  V30 9954 O 929.887 5.04945 2.65305 0
M  V30 9955 O 928.821 5.94612 0.9338 0
M  V30 9956 H 932.647 2.98781 -0.544396 0
M  V30 9957 H 930.232 1.4566 -0.332198 0
M  V30 9958 H 932.114 3.82903 1.75965 0
M  V30 9959 H 930.789 2.63871 1.87493 0
M  V30 9960 H 929.696 3.73734 -0.165406 0
M  V30 9961 H 931.029 4.91802 -0.197953 0
M  V30 9962 N 932.681 0.308908 1.54543 0
M  V30 9963 C 933.591 -0.572939 2.27496 0
M  V30 9964 C 934.607 -1.14171 1.31305 0
M  V30 9965 O 935.783 -1.16481 1.64299 0
M  V30 9966 C 932.848 -1.72483 3.0075 0
M  V30 9967 C 931.909 -1.18934 4.12496 0
M  V30 9968 C 931.142 -2.28634 4.82247 0
M  V30 9969 O 931.365 -3.48691 4.5141 0
M  V30 9970 O 930.299 -1.94879 5.69478 0
M  V30 9971 H 934.125 0.0190877 3.03694 0
M  V30 9972 H 931.71 0.0750943 1.49211 0
M  V30 9973 H 933.592 -2.39578 3.46671 0
M  V30 9974 H 932.267 -2.30332 2.2744 0
M  V30 9975 H 931.174 -0.483904 3.70957 0
M  V30 9976 H 932.507 -0.656185 4.87806 0
M  V30 9977 N 934.159 -1.57557 0.0367827 0
M  V30 9978 C 935.069 -2.14148 -0.958017 0
M  V30 9979 C 936.085 -1.09564 -1.35173 0
M  V30 9980 O 937.261 -1.4166 -1.43158 0
M  V30 9981 C 934.326 -2.6636 -2.21931 0
M  V30 9982 C 933.387 -3.85688 -1.8853 0
M  V30 9983 C 932.62 -4.35401 -3.08645 0
M  V30 9984 O 932.843 -3.8425 -4.21554 0
M  V30 9985 O 931.777 -5.27158 -2.90497 0
M  V30 9986 H 935.603 -2.99442 -0.506797 0
M  V30 9987 H 933.188 -1.48259 -0.184275 0
M  V30 9988 H 935.07 -2.99976 -2.9596 0
M  V30 9989 H 933.745 -1.84145 -2.66219 0
M  V30 9990 H 932.652 -3.56985 -1.11861 0
M  V30 9991 H 933.985 -4.69089 -1.49052 0
M  V30 9992 N 935.637 0.236453 -1.55816 0
M  V30 9993 C 936.862 0.98449 -1.82545 0
M  V30 9994 C 937.287 1.77755 -0.615206 0
M  V30 9995 O 936.645 1.75982 0.435895 0
M  V30 9996 C 936.693 1.88973 -3.07118 0
M  V30 9997 O 935.797 2.98298 -2.84766 0
M  V30 9998 H 935.138 0.279577 -0.602273 0
M  V30 9999 H 937.668 0.254277 -2.03014 0
M  V30 10000 H 937.678 2.3024 -3.36829 0
M  V30 10001 H 936.353 1.30671 -3.94839 0
M  V30 10002 H 934.93 2.61085 -2.6625 0
M  V30 10003 N 937.115 1.49373 0.502552 0
M  V30 10004 C 938.048 1.60529 1.6219 0
M  V30 10005 C 939.026 0.454431 1.56121 0
M  V30 10006 O 940.21 0.669768 1.762 0
M  V30 10007 C 937.337 1.55879 3.00698 0
M  V30 10008 C 936.383 2.76143 3.25034 0
M  V30 10009 S 937.216 4.37831 3.08325 0
M  V30 10010 C 938.372 4.35824 4.49231 0
M  V30 10011 H 938.605 2.55219 1.52482 0
M  V30 10012 H 936.138 1.38244 0.687594 0
M  V30 10013 H 938.096 1.53882 3.80566 0
M  V30 10014 H 936.757 0.624791 3.07823 0
M  V30 10015 H 935.95 2.69104 4.26144 0
M  V30 10016 H 935.552 2.75544 2.52886 0
M  V30 10017 H 937.844 4.07447 5.41288 0
M  V30 10018 H 938.787 5.37206 4.6132 0
M  V30 10019 H 939.195 3.65923 4.29838 0
M  V30 10020 N 938.594 -0.753485 1.38421 0
M  V30 10021 C 939.527 -1.87525 1.30037 0
M  V30 10022 C 940.505 -1.6163 0.177379 0
M  V30 10023 O 941.689 -1.85132 0.354716 0
M  V30 10024 C 938.816 -3.23138 1.01485 0
M  V30 10025 C 937.862 -3.67921 2.15723 0
M  V30 10026 S 938.695 -3.79447 3.77863 0
M  V30 10027 C 939.851 -5.17879 3.51499 0
M  V30 10028 H 940.084 -1.94351 2.24978 0
M  V30 10029 H 937.617 -0.916475 1.24258 0
M  V30 10030 H 939.575 -4.01455 0.856959 0
M  V30 10031 H 938.236 -3.13991 0.0826199 0
M  V30 10032 H 937.429 -4.66287 1.91292 0
M  V30 10033 H 937.031 -2.96758 2.2762 0
M  V30 10034 H 939.323 -6.03636 3.0762 0
M  V30 10035 H 940.266 -5.47331 4.49259 0
M  V30 10036 H 940.674 -4.86681 2.8601 0
M  V30 10037 O 940.111 -1.34493 -0.894081 0
M  V30 10038 H 940.802 -1.18777 -1.53009 0
M  V30 END ATOM
M  V30 BEGIN BOND
M  V30 END BOND
M  V30 END CTAB
M  END
$$$$
