drugbank_target|P28335 5-hydroxytryptamine receptor 2C (DB00193; DB00246; DB00247; DB00248; DB00321; DB00334; DB00363; DB00370; DB00408; DB00420; DB00434; DB00458; DB00472; DB00477; DB00502; DB00540; DB00543; DB00574; DB00589; DB00623; DB00656; DB00696; DB00714; DB00726; DB00734; DB00777; DB00805; DB00924; DB00934; DB01079; DB01142; DB01149; DB01151; DB01175; DB01186; DB01191; DB01200; DB01224; DB01238; DB01242; DB01267; DB01392; DB01403; DB01454; DB01537; DB04871; DB04884; DB04948; DB05492; DB06144; DB06148; DB06153; DB06216; DB06229; DB06446; DB06512; DB06594; DB09014; DB09194; DB09195; DB12110; DB12163; DB12177; DB13940; DB14185)
 OpenBabel12092119343D

  0  0  0     0  0            999 V3000
M  V30 BEGIN CTAB
M  V30 COUNTS 7416 7496 0 0 0
M  V30 BEGIN ATOM
M  V30 1 H -0.908 1.98254 -0.117106 0
M  V30 2 N 0 1.576 0 0
M  V30 3 C 0.933 2.03868 1.02534 0
M  V30 4 C 1.911 0.928543 1.3348 0
M  V30 5 O 3.095 1.19667 1.45644 0
M  V30 6 C 0.222 2.43627 2.35294 0
M  V30 7 C -0.732 3.65373 2.2001 0
M  V30 8 S 0.101 5.13292 1.52614 0
M  V30 9 C 1.257 5.56322 2.86805 0
M  V30 10 H 1.49 2.90518 0.631377 0
M  V30 11 H -0.977 1.52953 0.210867 0
M  V30 12 H 0.981 2.67203 3.11629 0
M  V30 13 H -0.358 1.57376 2.7183 0
M  V30 14 H -1.165 3.90944 3.18086 0
M  V30 15 H -1.563 3.418 1.51819 0
M  V30 16 H 0.729 5.58782 3.83104 0
M  V30 17 H 1.672 6.56266 2.65933 0
M  V30 18 H 2.08 4.83886 2.90714 0
M  V30 19 N 1.4781 -0.272755 1.55222 0
M  V30 20 C 2.7241 -1.00581 1.761 0
M  V30 21 C 3.0571 -1.85932 0.560625 0
M  V30 22 O 2.3321 -1.89416 -0.441801 0
M  V30 23 C 2.6151 -1.88816 3.06628 0
M  V30 24 C 2.4681 -1.06457 4.37021 0
M  V30 25 C 3.7871 -2.8752 3.33197 0
M  V30 26 H 0.9061 -0.364244 0.640699 0
M  V30 27 H 3.5481 -0.278189 1.87952 0
M  V30 28 H 1.6981 -2.50856 2.96654 0
M  V30 29 H 3.3701 -0.464863 4.58952 0
M  V30 30 H 1.6131 -0.368043 4.32236 0
M  V30 31 H 2.2841 -1.71514 5.24678 0
M  V30 32 H 4.7601 -2.35615 3.42965 0
M  V30 33 H 3.6361 -3.46399 4.25792 0
M  V30 34 H 3.8971 -3.62657 2.52849 0
M  V30 35 N 2.9562 -1.48159 -0.537278 0
M  V30 36 C 3.9042 -1.62573 -1.66352 0
M  V30 37 C 4.8982 -0.492366 -1.62087 0
M  V30 38 O 6.1042 -0.670847 -1.67032 0
M  V30 39 H 2.4792 -0.511992 -0.550789 0
M  V30 40 H 4.4502 -2.57176 -1.51337 0
M  V30 41 C 3.1992 -1.67583 -3.04649 0
M  V30 42 H 2.5222 -2.54151 -3.08622 0
M  V30 43 H 3.9622 -1.81713 -3.83088 0
M  V30 44 C 2.4212 -0.413039 -3.34358 0
M  V30 45 O 2.9512 0.477259 -3.98855 0
M  V30 46 N 1.1572 -0.286961 -2.8918 0
M  V30 47 H 0.7042 -1.01241 -2.36871 0
M  V30 48 H 0.6622 0.556963 -3.09427 0
M  V30 49 N 4.4343 0.785586 -1.36625 0
M  V30 50 C 5.3643 1.91259 -1.33949 0
M  V30 51 C 6.3453 1.68795 -0.210325 0
M  V30 52 O 7.5303 1.89854 -0.408561 0
M  V30 53 C 4.6603 3.28339 -1.13186 0
M  V30 54 C 3.6143 3.65335 -2.22967 0
M  V30 55 C 2.9403 5.00806 -1.87342 0
M  V30 56 C 4.2403 3.7352 -3.65075 0
M  V30 57 H 5.9343 1.93755 -2.28253 0
M  V30 58 H 3.4803 0.930788 -1.09874 0
M  V30 59 H 5.4333 4.06804 -1.09948 0
M  V30 60 H 4.1573 3.2624 -0.153332 0
M  V30 61 H 2.8163 2.89169 -2.25337 0
M  V30 62 H 2.4643 4.95233 -0.880545 0
M  V30 63 H 2.1643 5.26529 -2.60846 0
M  V30 64 H 3.6883 5.81687 -1.85667 0
M  V30 65 H 5.1023 4.42168 -3.64911 0
M  V30 66 H 3.4993 4.10731 -4.37516 0
M  V30 67 H 4.5693 2.74527 -3.99703 0
M  V30 68 N 5.9124 1.20967 1.01018 0
M  V30 69 C 7.3284 0.965905 1.27053 0
M  V30 70 C 7.5284 -0.350785 1.98423 0
M  V30 71 O 6.5844 -1.07773 2.28344 0
M  V30 72 C 7.8974 2.15294 2.09926 0
M  V30 73 C 9.4454 2.19463 2.23171 0
M  V30 74 C 9.9204 3.3767 3.09424 0
M  V30 75 N 11.4114 3.37724 3.17012 0
M  V30 76 C 12.1464 4.25837 3.83993 0
M  V30 77 N 11.6424 5.24138 4.53047 0
M  V30 78 N 13.4354 4.1366 3.80581 0
M  V30 79 H 5.5864 2.0565 0.531194 0
M  V30 80 H 7.8494 0.90024 0.297106 0
M  V30 81 H 7.5554 3.10684 1.64828 0
M  V30 82 H 7.4294 2.13923 3.10672 0
M  V30 83 H 9.8164 1.24632 2.6749 0
M  V30 84 H 9.8974 2.2488 1.21912 0
M  V30 85 H 9.5414 4.32791 2.65808 0
M  V30 86 H 9.4714 3.29491 4.10784 0
M  V30 87 H 11.9624 2.6658 2.6785 0
M  V30 88 H 12.2754 5.87684 5.01844 0
M  V30 89 H 10.6204 5.28068 4.5185 0
M  V30 90 H 13.8114 3.36127 3.25785 0
M  V30 91 H 13.9844 4.82538 4.32505 0
M  V30 92 N 7.3905 -1.2043 1.01659 0
M  V30 93 C 8.3385 -2.25249 0.580143 0
M  V30 94 C 9.3325 -1.65057 -0.381115 0
M  V30 95 O 10.5385 -1.78241 -0.251039 0
M  V30 96 H 6.9135 -0.732695 0.169299 0
M  V30 97 H 8.8845 -2.59389 1.47512 0
M  V30 98 C 7.6335 -3.47638 -0.065788 0
M  V30 99 H 6.9565 -3.94233 0.664874 0
M  V30 100 H 8.3965 -4.2268 -0.334282 0
M  V30 101 C 6.8555 -3.10447 -1.3086 0
M  V30 102 O 7.3855 -3.21981 -2.4019 0
M  V30 103 N 5.5915 -2.64996 -1.1927 0
M  V30 104 H 5.1385 -2.55811 -0.303064 0
M  V30 105 H 5.0965 -2.40482 -2.02523 0
M  V30 106 N 8.8686 -0.792821 -1.36206 0
M  V30 107 C 9.8316 -0.199459 -2.2833 0
M  V30 108 C 10.8316 0.605189 -1.48977 0
M  V30 109 O 12.0216 0.425685 -1.68919 0
M  V30 110 C 9.1536 0.723523 -3.33134 0
M  V30 111 H 10.3466 -1.01181 -2.82316 0
M  V30 112 H 7.8996 -0.562485 -1.45828 0
M  V30 113 H 8.6346 1.56008 -2.84309 0
M  V30 114 H 8.4196 0.148436 -3.91819 0
M  V30 115 H 9.9096 1.13344 -4.01924 0
M  V30 116 N 10.3467 1.47872 -0.545128 0
M  V30 117 C 11.5927 2.02793 -0.0166104 0
M  V30 118 C 11.9257 1.41987 1.32489 0
M  V30 119 O 11.2007 0.571045 1.85928 0
M  V30 120 C 11.4837 3.59989 0.0893294 0
M  V30 121 C 11.3367 4.3125 -1.27841 0
M  V30 122 C 12.6557 4.32606 0.808724 0
M  V30 123 H 9.7747 0.736962 -0.00751035 0
M  V30 124 H 12.4167 1.76433 -0.705085 0
M  V30 125 H 10.5667 3.82579 0.675681 0
M  V30 126 H 12.2387 4.20035 -1.90704 0
M  V30 127 H 10.4817 3.92076 -1.85632 0
M  V30 128 H 11.1527 5.39736 -1.15713 0
M  V30 129 H 13.6287 4.14936 0.310992 0
M  V30 130 H 12.5047 5.42251 0.851782 0
M  V30 131 H 12.7657 4.00963 1.86229 0
M  V30 132 N 11.8248 0.280983 1.55075 0
M  V30 133 C 12.7748 -0.618585 2.19448 0
M  V30 134 C 13.7588 -1.11401 1.16098 0
M  V30 135 O 14.9508 -1.0581 1.41891 0
M  V30 136 C 12.0798 -1.79951 2.92357 0
M  V30 137 C 11.1658 -1.321 4.03002 0
M  V30 138 N 11.5568 -0.559044 5.02701 0
M  V30 139 C 9.8548 -1.60346 4.16179 0
M  V30 140 C 10.5558 -0.306722 5.80891 0
M  V30 141 N 9.5318 -0.880825 5.36416 0
M  V30 142 H 13.3338 -0.0286638 2.93886 0
M  V30 143 H 10.8478 0.0848104 1.62178 0
M  V30 144 H 12.8448 -2.45531 3.36927 0
M  V30 145 H 11.5048 -2.39333 2.19431 0
M  V30 146 H 12.5158 -0.205827 5.17491 0
M  V30 147 H 9.1928 -2.20621 3.54447 0
M  V30 148 H 10.5828 0.30391 6.71212 0
M  V30 149 N 13.3029 -1.57598 0.00835791 0
M  V30 150 C 14.5279 -1.95617 -0.689103 0
M  V30 151 C 14.9529 -0.883753 -1.66046 0
M  V30 152 O 14.3109 0.157352 -1.80616 0
M  V30 153 C 14.3589 -3.32736 -1.38994 0
M  V30 154 O 13.4629 -3.27631 -2.50463 0
M  V30 155 H 12.8039 -0.638379 -0.182668 0
M  V30 156 H 15.3339 -2.045 0.064036 0
M  V30 157 H 15.3439 -3.68494 -1.75147 0
M  V30 158 H 14.0189 -4.1034 -0.677778 0
M  V30 159 H 12.5959 -3.03561 -2.16576 0
M  V30 160 N 14.781 0.264519 -1.55364 0
M  V30 161 C 16.028 0.994986 -1.7637 0
M  V30 162 C 16.356 1.85976 -0.5695 0
M  V30 163 O 15.611 1.90509 0.44776 0
M  V30 164 C 15.91 1.9004 -3.02687 0
M  V30 165 C 15.576 1.19243 -4.34847 0
M  V30 166 C 14.238 0.996709 -4.70764 0
M  V30 167 C 16.59 0.689296 -5.16622 0
M  V30 168 C 13.918 0.285261 -5.86006 0
M  V30 169 C 16.27 -0.00860079 -6.32599 0
M  V30 170 C 14.934 -0.215963 -6.67151 0
M  V30 171 H 14.204 0.364091 -0.645383 0
M  V30 172 H 16.851 0.266543 -1.89636 0
M  V30 173 H 15.156 2.69533 -2.84357 0
M  V30 174 H 16.853 2.46695 -3.16137 0
M  V30 175 H 13.443 1.3549 -4.06621 0
M  V30 176 H 17.627 0.828108 -4.89342 0
M  V30 177 H 12.883 0.113961 -6.11294 0
M  V30 178 H 17.057 -0.406186 -6.95214 0
M  V30 179 H 14.684 -0.769217 -7.56298 0
M  V30 180 N 16.2591 1.48442 0.529413 0
M  V30 181 C 17.1891 1.65902 1.64313 0
M  V30 182 C 18.1701 0.507897 1.6234 0
M  V30 183 O 19.3551 0.740503 1.79528 0
M  V30 184 C 16.4851 1.69911 3.02898 0
M  V30 185 C 15.4391 2.8453 3.19729 0
M  V30 186 C 14.7651 2.73629 4.59381 0
M  V30 187 C 16.0651 4.25821 3.02447 0
M  V30 188 H 17.7591 2.5914 1.49955 0
M  V30 189 H 15.3051 1.24709 0.719982 0
M  V30 190 H 17.2581 1.80715 3.80684 0
M  V30 191 H 15.9821 0.732524 3.18279 0
M  V30 192 H 14.6411 2.73283 2.44361 0
M  V30 193 H 14.2891 1.74938 4.71599 0
M  V30 194 H 13.9891 3.50541 4.71588 0
M  V30 195 H 15.5131 2.86401 5.39265 0
M  V30 196 H 16.9271 4.37898 3.70024 0
M  V30 197 H 15.3241 5.03735 3.26146 0
M  V30 198 H 16.3941 4.42244 1.98867 0
M  V30 199 N 17.7372 -0.778329 1.37039 0
M  V30 200 C 18.9832 -1.53892 1.32079 0
M  V30 201 C 19.3162 -1.9396 -0.0965386 0
M  V30 202 O 18.5912 -1.63568 -1.05242 0
M  V30 203 C 18.8742 -2.80847 2.25382 0
M  V30 204 C 18.7272 -2.47076 3.75864 0
M  V30 205 C 20.0462 -3.82741 2.1725 0
M  V30 206 H 17.1652 -0.558303 0.48111 0
M  V30 207 H 19.8072 -0.893397 1.67685 0
M  V30 208 H 17.9572 -3.35931 1.95148 0
M  V30 209 H 19.6292 -1.97957 4.16666 0
M  V30 210 H 17.8722 -1.79863 3.94755 0
M  V30 211 H 18.5432 -3.37798 4.36574 0
M  V30 212 H 21.0192 -3.37133 2.43887 0
M  V30 213 H 19.8952 -4.69303 2.84686 0
M  V30 214 H 20.1562 -4.2652 1.16331 0
M  V30 215 N 19.2153 -1.21501 -1.00376 0
M  V30 216 C 20.1653 -0.942843 -2.07592 0
M  V30 217 C 21.1493 0.102384 -1.60574 0
M  V30 218 O 22.3413 -0.10671 -1.76678 0
M  V30 219 C 19.4703 -0.510729 -3.3948 0
M  V30 220 C 18.5563 -1.59009 -3.93163 0
M  V30 221 N 18.9473 -2.81544 -4.20198 0
M  V30 222 C 17.2453 -1.45925 -4.21452 0
M  V30 223 C 17.9463 -3.51261 -4.63671 0
M  V30 224 N 16.9223 -2.78703 -4.66718 0
M  V30 225 H 20.7243 -1.87378 -2.26421 0
M  V30 226 H 18.2383 -1.11093 -1.18458 0
M  V30 227 H 20.2353 -0.297101 -4.1584 0
M  V30 228 H 18.8953 0.413436 -3.22057 0
M  V30 229 H 19.9063 -3.18075 -4.08716 0
M  V30 230 H 16.5833 -0.600467 -4.13159 0
M  V30 231 H 17.9733 -4.56183 -4.93302 0
M  V30 232 N 20.6934 1.19889 -1.02296 0
M  V30 233 C 21.6234 2.25141 -0.619174 0
M  V30 234 C 22.6044 1.66051 0.368915 0
M  V30 235 O 23.7894 1.92546 0.252941 0
M  V30 236 C 20.9194 3.4728 0.0368783 0
M  V30 237 C 19.8734 4.19005 -0.872865 0
M  V30 238 C 19.1994 5.34637 -0.0822402 0
M  V30 239 C 20.4994 4.74452 -2.18387 0
M  V30 240 H 22.1934 2.59171 -1.49903 0
M  V30 241 H 19.7394 1.24579 -0.722222 0
M  V30 242 H 21.6924 4.20098 0.330958 0
M  V30 243 H 20.4164 3.12433 0.95149 0
M  V30 244 H 19.0754 3.48061 -1.15105 0
M  V30 245 H 18.7234 4.96034 0.83422 0
M  V30 246 H 18.4234 5.83557 -0.688149 0
M  V30 247 H 19.9474 6.10255 0.205238 0
M  V30 248 H 21.3614 5.39055 -1.95172 0
M  V30 249 H 19.7584 5.33834 -2.74119 0
M  V30 250 H 20.8284 3.92844 -2.84257 0
M  V30 251 N 22.1715 0.800033 1.35784 0
M  V30 252 C 23.4205 0.37387 1.98205 0
M  V30 253 C 23.7335 -1.06302 1.64193 0
M  V30 254 O 24.9395 -1.59198 2.19928 0
M  V30 255 C 23.3955 0.617532 3.54562 0
M  V30 256 C 23.0035 2.06654 3.9749 0
M  V30 257 C 24.7475 0.256401 4.23725 0
M  V30 258 C 22.6545 2.2563 5.46667 0
M  V30 259 H 21.5845 0.136055 0.741623 0
M  V30 260 H 24.2355 0.983166 1.54939 0
M  V30 261 H 22.6175 -0.0616248 3.95952 0
M  V30 262 H 23.7915 2.78296 3.67271 0
M  V30 263 H 22.1065 2.38691 3.41197 0
M  V30 264 H 24.7035 0.376318 5.33374 0
M  V30 265 H 25.0465 -0.796692 4.08606 0
M  V30 266 H 25.5795 0.889214 3.87734 0
M  V30 267 H 22.3185 3.2936 5.66747 0
M  V30 268 H 21.8385 1.58504 5.78478 0
M  V30 269 H 23.5175 2.06861 6.1304 0
M  V30 270 N 23.6496 -1.47581 0.552962 0
M  V30 271 C 24.8976 -2.02082 0.0272703 0
M  V30 272 C 25.2186 -1.4301 -1.32563 0
M  V30 273 O 24.4886 -0.603745 -1.86365 0
M  V30 274 H 23.0686 -0.746966 0.00709182 0
M  V30 275 H 25.7306 -1.81033 0.722008 0
M  V30 276 H 24.8266 -3.12034 -0.0639951 0
M  V30 277 N 25.1277 -0.289203 -1.54924 0
M  V30 278 C 26.0577 0.58549 -2.2604 0
M  V30 279 C 27.0387 1.14753 -1.25562 0
M  V30 280 O 28.2237 1.17906 -1.54311 0
M  V30 281 C 25.3537 1.76305 -2.99222 0
M  V30 282 C 24.3077 1.33191 -4.06748 0
M  V30 283 C 23.6337 2.5937 -4.6758 0
M  V30 284 C 24.9337 0.471775 -5.20165 0
M  V30 285 H 26.6277 -0.00763532 -2.99399 0
M  V30 286 H 24.1737 -0.00511229 -1.43999 0
M  V30 287 H 26.1267 2.38097 -3.47689 0
M  V30 288 H 24.8507 2.38223 -2.23422 0
M  V30 289 H 23.5097 0.737121 -3.59113 0
M  V30 290 H 23.1577 3.19576 -3.88433 0
M  V30 291 H 22.8577 2.31228 -5.40192 0
M  V30 292 H 24.3817 3.21985 -5.18804 0
M  V30 293 H 25.7957 0.995056 -5.64599 0
M  V30 294 H 24.1927 0.284639 -5.99425 0
M  V30 295 H 25.2627 -0.506041 -4.82252 0
M  V30 296 N 26.6058 1.57591 -0.0167156 0
M  V30 297 C 27.5358 2.12496 0.967858 0
M  V30 298 C 28.5168 1.03807 1.34752 0
M  V30 299 O 29.7018 1.31577 1.42833 0
M  V30 300 C 26.8318 2.64194 2.25431 0
M  V30 301 C 25.7858 3.77559 2.01576 0
M  V30 302 C 25.1118 4.15636 3.36379 0
M  V30 303 C 26.4118 5.04151 1.36489 0
M  V30 304 H 28.1058 2.95013 0.510643 0
M  V30 305 H 25.6518 1.41915 0.244181 0
M  V30 306 H 27.6048 3.01236 2.94678 0
M  V30 307 H 26.3288 1.78821 2.73296 0
M  V30 308 H 24.9878 3.40937 1.34751 0
M  V30 309 H 24.6358 3.27263 3.81979 0
M  V30 310 H 24.3358 4.92022 3.21229 0
M  V30 311 H 25.8598 4.5525 4.06915 0
M  V30 312 H 27.2738 5.38857 1.95718 0
M  V30 313 H 25.6708 5.85453 1.31776 0
M  V30 314 H 26.7408 4.83733 0.336219 0
M  V30 315 N 28.0839 -0.256276 1.55502 0
M  V30 316 C 29.3299 -0.987079 1.77157 0
M  V30 317 C 29.6629 -1.85327 0.580315 0
M  V30 318 O 28.9379 -1.89874 -0.421686 0
M  V30 319 C 29.2209 -1.85553 3.08613 0
M  V30 320 C 29.0739 -1.01816 4.38125 0
M  V30 321 C 30.3929 -2.8397 3.36228 0
M  V30 322 H 27.5119 -0.357428 0.644526 0
M  V30 323 H 30.1539 -0.258239 1.88237 0
M  V30 324 H 28.3039 -2.47695 2.99298 0
M  V30 325 H 29.9759 -0.416159 4.59419 0
M  V30 326 H 28.2189 -0.322178 4.32602 0
M  V30 327 H 28.8899 -1.65939 5.26468 0
M  V30 328 H 31.3659 -2.31964 3.45445 0
M  V30 329 H 30.2419 -3.41864 4.29442 0
M  V30 330 H 30.5029 -3.59955 2.56681 0
M  V30 331 N 29.562 -1.4872 -0.521534 0
M  V30 332 C 30.808 -1.58378 -1.27624 0
M  V30 333 C 31.163 -0.258028 -1.90662 0
M  V30 334 O 30.456 0.739917 -1.76736 0
M  V30 335 C 30.65 -2.66497 -2.38148 0
M  V30 336 C 30.479 -4.09456 -1.85945 0
M  V30 337 C 29.249 -4.76495 -1.68168 0
M  V30 338 C 31.447 -4.95353 -1.3831 0
M  V30 339 N 29.429 -6.0384 -1.1068 0
M  V30 340 C 30.8 -6.13012 -0.928238 0
M  V30 341 C 32.855 -4.81512 -1.26692 0
M  V30 342 C 31.558 -7.18354 -0.368701 0
M  V30 343 C 33.584 -5.86984 -0.721368 0
M  V30 344 C 32.946 -7.03857 -0.276623 0
M  V30 345 H 29.045 -0.634045 -0.457724 0
M  V30 346 H 31.629 -1.85639 -0.587049 0
M  V30 347 H 29.8 -2.41043 -3.04553 0
M  V30 348 H 31.532 -2.65791 -3.05184 0
M  V30 349 H 28.287 -4.32962 -1.91939 0
M  V30 350 H 28.711 -6.71778 -0.839217 0
M  V30 351 H 33.353 -3.91487 -1.5968 0
M  V30 352 H 31.071 -8.08096 -0.0265122 0
M  V30 353 H 34.657 -5.78329 -0.634531 0
M  V30 354 H 33.537 -7.84077 0.138947 0
M  V30 355 N 31.0401 0.771051 -1.3745 0
M  V30 356 C 31.9721 1.89352 -1.29146 0
M  V30 357 C 32.9851 1.61477 -0.207124 0
M  V30 358 O 34.1741 1.72382 -0.463324 0
M  V30 359 C 31.2741 3.24596 -0.974195 0
M  V30 360 C 30.4471 3.80111 -2.16413 0
M  V30 361 C 29.5061 4.93832 -1.81703 0
M  V30 362 O 28.5321 5.09382 -2.54006 0
M  V30 363 N 29.7341 5.75483 -0.761573 0
M  V30 364 H 32.4991 1.96991 -2.25864 0
M  V30 365 H 30.0601 0.950191 -1.31084 0
M  V30 366 H 32.0521 3.98193 -0.722828 0
M  V30 367 H 30.6221 3.12454 -0.0955527 0
M  V30 368 H 29.8421 2.98284 -2.57721 0
M  V30 369 H 31.1301 4.13932 -2.95867 0
M  V30 370 H 30.5281 5.65469 -0.161609 0
M  V30 371 H 29.0851 6.49302 -0.570064 0
M  V30 372 N 32.5182 1.22032 0.997298 0
M  V30 373 C 33.7582 1.05375 1.75144 0
M  V30 374 C 34.1222 -0.404696 1.87686 0
M  V30 375 O 35.3232 -0.691998 2.5974 0
M  V30 376 C 33.5942 1.74046 3.12158 0
M  V30 377 S 35.1532 1.72745 4.03366 0
M  V30 378 H 31.9712 0.377449 0.602539 0
M  V30 379 H 34.5732 1.54902 1.19272 0
M  V30 380 H 33.2772 2.79332 3.00669 0
M  V30 381 H 32.8082 1.24731 3.73103 0
M  V30 382 H 34.8232 0.774015 4.90126 0
M  V30 383 N 33.9963 -1.19345 1.0293 0
M  V30 384 C 35.2733 -1.84811 0.640642 0
M  V30 385 C 35.6533 -1.91855 -0.88062 0
M  V30 386 O 35.0013 -1.43587 -1.7775 0
M  V30 387 C 35.2113 -3.23755 1.30321 0
M  V30 388 C 36.5593 -3.99912 1.42673 0
M  V30 389 O 37.5833 -3.33155 1.26041 0
M  V30 390 O 36.4423 -5.19494 1.6967 0
M  V30 391 H 33.5363 -0.796443 0.222726 0
M  V30 392 H 36.0823 -1.26831 1.12748 0
M  V30 393 H 34.8543 -3.13466 2.34211 0
M  V30 394 H 34.4773 -3.89381 0.804261 0
M  V30 395 N 35.4744 -0.807222 -1.35358 0
M  V30 396 C 36.7234 -0.384376 -1.98004 0
M  V30 397 C 37.0364 1.0543 -1.64754 0
M  V30 398 O 38.2424 1.58029 -2.20769 0
M  V30 399 C 36.6984 -0.636326 -3.5423 0
M  V30 400 C 36.3064 -2.08759 -3.96388 0
M  V30 401 C 38.0504 -0.278869 -4.23583 0
M  V30 402 C 35.9574 -2.28525 -5.45463 0
M  V30 403 H 34.8874 -0.139986 -0.740891 0
M  V30 404 H 37.5384 -0.991369 -1.54415 0
M  V30 405 H 35.9204 0.0406256 -3.95979 0
M  V30 406 H 37.0944 -2.8024 -3.6579 0
M  V30 407 H 35.4094 -2.40497 -3.39926 0
M  V30 408 H 38.0064 -0.404599 -5.33167 0
M  V30 409 H 38.3494 0.775012 -4.09022 0
M  V30 410 H 38.8824 -0.909764 -3.87257 0
M  V30 411 H 35.6214 -3.32361 -5.64992 0
M  V30 412 H 35.1414 -1.61569 -5.77629 0
M  V30 413 H 36.8204 -2.10109 -6.11934 0
M  V30 414 N 36.9525 1.47285 -0.560781 0
M  V30 415 C 38.1775 2.07359 -0.0410566 0
M  V30 416 C 38.6025 1.41017 1.24483 0
M  V30 417 O 37.9605 0.486368 1.74654 0
M  V30 418 C 38.0085 3.6035 0.134123 0
M  V30 419 O 37.1125 3.94681 1.19587 0
M  V30 420 H 36.4535 0.661887 -0.0529291 0
M  V30 421 H 38.9835 1.89252 -0.777482 0
M  V30 422 H 38.9935 4.0652 0.347207 0
M  V30 423 H 37.6685 4.08034 -0.805047 0
M  V30 424 H 36.2455 3.60251 0.962987 0
M  V30 425 N 38.4306 0.297415 1.54768 0
M  V30 426 C 39.6766 -0.313376 2.00364 0
M  V30 427 C 40.0096 -1.53815 1.18553 0
M  V30 428 O 39.2846 -1.92739 0.261103 0
M  V30 429 C 39.5676 -0.673525 3.53745 0
M  V30 430 C 39.4206 0.560133 4.46299 0
M  V30 431 C 40.7396 -1.50143 4.13697 0
M  V30 432 H 37.8586 -0.112428 0.728374 0
M  V30 433 H 40.5006 0.4088 1.8555 0
M  V30 434 H 38.6506 -1.28881 3.665 0
M  V30 435 H 40.3226 1.19863 4.45455 0
M  V30 436 H 38.5656 1.19405 4.17043 0
M  V30 437 H 39.2366 0.26405 5.51368 0
M  V30 438 H 41.7126 -0.981588 4.04356 0
M  V30 439 H 40.5886 -1.72221 5.21182 0
M  V30 440 H 40.8496 -2.48952 3.65343 0
M  V30 441 N 39.9087 -1.5758 0.0250728 0
M  V30 442 C 41.1337 -1.96337 -0.668317 0
M  V30 443 C 41.5587 -0.901314 -1.651 0
M  V30 444 O 40.9167 0.138187 -1.80773 0
M  V30 445 C 40.9647 -3.34191 -1.35457 0
M  V30 446 O 40.0687 -3.30269 -2.46974 0
M  V30 447 H 39.4097 -0.640281 -0.175887 0
M  V30 448 H 41.9397 -2.0442 0.0857224 0
M  V30 449 H 41.9497 -3.70331 -1.71228 0
M  V30 450 H 40.6247 -4.11036 -0.634218 0
M  V30 451 H 39.2017 -3.05841 -2.13344 0
M  V30 452 N 41.3868 0.248026 -1.55636 0
M  V30 453 C 42.7978 0.817177 -1.67866 0
M  V30 454 C 43.1488 1.86069 -0.622322 0
M  V30 455 O 42.2738 2.15157 0.231618 0
M  V30 456 C 42.8688 1.489 -3.04326 0
M  V30 457 C 41.4278 2.00587 -3.185 0
M  V30 458 C 40.5748 0.856573 -2.63739 0
M  V30 459 H 43.5258 0.0238579 -1.58682 0
M  V30 460 H 43.5468 2.35698 -2.98708 0
M  V30 461 H 43.0588 0.729279 -3.81186 0
M  V30 462 H 41.1598 2.79443 -2.4646 0
M  V30 463 H 41.2728 2.20402 -4.25393 0
M  V30 464 H 39.6368 1.25678 -2.21534 0
M  V30 465 H 40.4198 0.109953 -3.43124 0
M  V30 466 N 42.8649 1.48995 0.513639 0
M  V30 467 C 44.1109 1.58076 1.27042 0
M  V30 468 C 44.4439 0.261026 1.92438 0
M  V30 469 O 43.7189 -0.734393 1.80103 0
M  V30 470 C 44.0019 2.73091 2.34719 0
M  V30 471 C 43.8549 4.14821 1.73907 0
M  V30 472 C 45.1739 2.83796 3.36375 0
M  V30 473 H 42.2929 0.575391 0.460536 0
M  V30 474 H 44.9349 1.81232 0.570516 0
M  V30 475 H 43.0849 2.53479 2.94416 0
M  V30 476 H 44.7569 4.45917 1.18135 0
M  V30 477 H 42.9999 4.21058 1.0437 0
M  V30 478 H 43.6709 4.91147 2.51949 0
M  V30 479 H 46.1469 3.01611 2.86653 0
M  V30 480 H 45.0229 3.65971 4.09093 0
M  V30 481 H 45.2839 1.92624 3.9793 0
M  V30 482 N 44.343 -0.763751 1.37857 0
M  V30 483 C 45.306 -1.85889 1.34081 0
M  V30 484 C 46.306 -1.58949 0.243277 0
M  V30 485 O 47.496 -1.66882 0.499589 0
M  V30 486 C 44.628 -3.23176 1.08489 0
M  V30 487 H 45.821 -1.90648 2.31502 0
M  V30 488 H 43.374 -0.964367 1.23003 0
M  V30 489 H 44.109 -3.24091 0.116318 0
M  V30 490 H 43.894 -3.44124 1.8794 0
M  V30 491 H 45.384 -4.03254 1.08517 0
M  V30 492 N 45.8211 -1.22559 -0.990812 0
M  V30 493 C 46.7841 -0.998863 -2.0629 0
M  V30 494 C 47.7841 0.0354834 -1.60761 0
M  V30 495 O 48.9741 -0.203231 -1.7301 0
M  V30 496 C 46.1061 -0.509203 -3.37076 0
M  V30 497 H 47.2991 -1.95014 -2.27837 0
M  V30 498 H 44.8521 -1.04456 -1.16269 0
M  V30 499 H 45.5871 0.446335 -3.21214 0
M  V30 500 H 45.3721 -1.25547 -3.71457 0
M  V30 501 H 46.8621 -0.370888 -4.1595 0
M  V30 502 N 47.2992 1.18797 -1.03562 0
M  V30 503 C 48.5482 1.87978 -0.731235 0
M  V30 504 C 48.8612 1.80911 0.743671 0
M  V30 505 O 50.0672 2.45407 1.16137 0
M  V30 506 C 48.5232 3.3721 -1.25768 0
M  V30 507 C 48.1312 3.52818 -2.76085 0
M  V30 508 C 49.8752 4.11825 -1.0296 0
M  V30 509 C 47.7822 4.9598 -3.22114 0
M  V30 510 H 46.7122 0.704063 -0.269835 0
M  V30 511 H 49.3632 1.34266 -1.25079 0
M  V30 512 H 47.7452 3.90359 -0.666011 0
M  V30 513 H 48.9192 3.09965 -3.40966 0
M  V30 514 H 47.2342 2.91602 -2.97249 0
M  V30 515 H 49.8312 5.17411 -1.34869 0
M  V30 516 H 50.1742 4.16287 0.0333546 0
M  V30 517 H 50.7072 3.64833 -1.58562 0
M  V30 518 H 47.4462 4.96684 -4.27768 0
M  V30 519 H 46.9662 5.39569 -2.61965 0
M  V30 520 H 48.6452 5.6467 -3.15844 0
M  V30 521 N 48.7773 0.814389 1.34928 0
M  V30 522 C 50.0233 0.399013 1.98836 0
M  V30 523 C 50.3563 -1.03314 1.64438 0
M  V30 524 O 49.6313 -1.71811 0.911659 0
M  V30 525 C 49.9143 0.591629 3.55207 0
M  V30 526 C 49.7673 2.06928 3.99376 0
M  V30 527 C 51.0863 0.022199 4.40094 0
M  V30 528 H 48.2053 0.146451 0.722303 0
M  V30 529 H 50.8473 1.02537 1.59957 0
M  V30 530 H 48.9973 0.0584441 3.88456 0
M  V30 531 H 50.6693 2.66544 3.76499 0
M  V30 532 H 48.9123 2.56287 3.49999 0
M  V30 533 H 49.5833 2.1549 5.08201 0
M  V30 534 H 52.0593 0.477643 4.13349 0
M  V30 535 H 50.9353 0.186832 5.48582 0
M  V30 536 H 51.1963 -1.07215 4.28902 0
M  V30 537 N 50.2554 -1.46986 0.568584 0
M  V30 538 C 51.4834 -2.0683 0.0539956 0
M  V30 539 C 51.8984 -1.41953 -1.24478 0
M  V30 540 O 51.2554 -0.519933 -1.74937 0
M  V30 541 C 51.3064 -3.61254 -0.133362 0
M  V30 542 O 51.0274 -4.237 1.11399 0
M  V30 543 C 52.5284 -4.37992 -0.683927 0
M  V30 544 H 49.7484 -0.669058 0.0510141 0
M  V30 545 H 52.2924 -1.88824 0.785234 0
M  V30 546 H 50.4474 -3.78735 -0.81477 0
M  V30 547 H 50.8614 -5.16388 0.91888 0
M  V30 548 H 52.3354 -5.46684 -0.764263 0
M  V30 549 H 52.8124 -4.05058 -1.69778 0
M  V30 550 H 53.4184 -4.25283 -0.0378494 0
M  V30 551 N 51.7335 -0.305618 -1.54608 0
M  V30 552 C 53.0105 0.355652 -1.92339 0
M  V30 553 C 53.3905 1.71324 -1.23335 0
M  V30 554 O 52.7385 2.25473 -0.370702 0
M  V30 555 C 52.9485 0.46572 -3.45879 0
M  V30 556 C 54.2965 0.734426 -4.182 0
M  V30 557 O 55.3205 0.54935 -3.51938 0
M  V30 558 O 54.1795 1.09024 -5.35515 0
M  V30 559 H 51.2735 0.199666 -0.802535 0
M  V30 560 H 53.8195 -0.354017 -1.65966 0
M  V30 561 H 52.5915 -0.488461 -3.88239 0
M  V30 562 H 52.2145 1.22367 -3.78301 0
M  V30 563 N 53.2116 1.57565 -0.0334293 0
M  V30 564 C 54.4606 1.91155 0.643639 0
M  V30 565 C 54.7736 0.91192 1.73042 0
M  V30 566 O 55.9796 1.13923 2.46442 0
M  V30 567 C 54.4356 3.39443 1.1961 0
M  V30 568 C 54.0436 4.47774 0.142381 0
M  V30 569 C 55.7876 3.82094 1.84944 0
M  V30 570 C 53.6946 5.87162 0.706727 0
M  V30 571 H 52.6246 0.713368 0.244176 0
M  V30 572 H 55.2756 1.8323 -0.0994323 0
M  V30 573 H 53.6576 3.42313 1.99092 0
M  V30 574 H 54.8316 4.56469 -0.630296 0
M  V30 575 H 53.1466 4.14352 -0.412446 0
M  V30 576 H 55.7436 4.83591 2.2813 0
M  V30 577 H 56.0866 3.17386 2.69392 0
M  V30 578 H 56.6196 3.81665 1.12145 0
M  V30 579 H 53.3586 6.55424 -0.0997178 0
M  V30 580 H 52.8786 5.82064 1.44779 0
M  V30 581 H 54.5576 6.35866 1.19514 0
M  V30 582 N 54.6897 -0.239769 1.55765 0
M  V30 583 C 55.9367 -0.966801 1.7793 0
M  V30 584 C 56.2647 -1.85046 0.599015 0
M  V30 585 O 55.5197 -1.91197 -0.417395 0
M  V30 586 C 55.8187 -1.852 3.05672 0
M  V30 587 C 55.4847 -1.1231 4.36689 0
M  V30 588 C 54.1467 -0.921689 4.72291 0
M  V30 589 C 56.4987 -0.607019 5.17653 0
M  V30 590 C 53.8267 -0.191996 5.86386 0
M  V30 591 C 56.1787 0.109241 6.32506 0
M  V30 592 C 54.8427 0.322073 6.66723 0
M  V30 593 H 54.1127 -0.353778 0.651093 0
M  V30 594 H 56.7597 -0.23634 1.90036 0
M  V30 595 H 55.0647 -2.64975 2.8861 0
M  V30 596 H 56.7617 -2.41635 3.20021 0
M  V30 597 H 53.3517 -1.29004 4.08725 0
M  V30 598 H 57.5357 -0.750153 4.90598 0
M  V30 599 H 52.7917 -0.0166949 6.11398 0
M  V30 600 H 56.9657 0.516737 6.9448 0
M  V30 601 H 54.5927 0.88944 7.54979 0
M  V30 602 N 56.1678 -1.49265 -0.50573 0
M  V30 603 C 57.1158 -1.66065 -1.62866 0
M  V30 604 C 58.1098 -0.526636 -1.61006 0
M  V30 605 O 59.3158 -0.706126 -1.65571 0
M  V30 606 H 55.6908 -0.52356 -0.539805 0
M  V30 607 H 57.6618 -2.60329 -1.45848 0
M  V30 608 C 56.4108 -1.74008 -3.01026 0
M  V30 609 H 55.7338 -2.6064 -3.03161 0
M  V30 610 H 57.1738 -1.89798 -3.79147 0
M  V30 611 C 55.6328 -0.483868 -3.33407 0
M  V30 612 O 56.1628 0.392548 -3.99777 0
M  V30 613 N 54.3688 -0.348236 -2.88506 0
M  V30 614 H 53.9158 -1.06242 -2.34671 0
M  V30 615 H 53.8738 0.491204 -3.10539 0
M  V30 616 N 57.6459 0.756429 -1.3826 0
M  V30 617 C 58.8739 1.54565 -1.3754 0
M  V30 618 C 59.2889 1.88767 0.0355331 0
M  V30 619 O 58.6459 1.52572 1.0014 0
M  V30 620 C 58.6969 2.84654 -2.22833 0
M  V30 621 O 58.4179 2.51912 -3.5843 0
M  V30 622 C 59.9189 3.78807 -2.30261 0
M  V30 623 H 57.1389 0.478353 -0.470553 0
M  V30 624 H 59.6829 0.936381 -1.81803 0
M  V30 625 H 57.8379 3.41965 -1.8204 0
M  V30 626 H 58.2519 3.35325 -4.03308 0
M  V30 627 H 59.7259 4.67045 -2.94233 0
M  V30 628 H 60.2029 4.19038 -1.31545 0
M  V30 629 H 60.8089 3.2742 -2.71433 0
M  V30 630 N 59.124 1.23083 0.984299 0
M  V30 631 C 60.349 1.088 1.76571 0
M  V30 632 C 60.774 -0.356657 1.84688 0
M  V30 633 O 60.132 -1.25788 1.30565 0
M  V30 634 C 60.18 1.71371 3.17277 0
M  V30 635 O 59.284 0.973213 4.00752 0
M  V30 636 H 58.625 0.381599 0.543395 0
M  V30 637 H 61.155 1.63057 1.23587 0
M  V30 638 H 61.165 1.76449 3.67872 0
M  V30 639 H 59.84 2.76493 3.10684 0
M  V30 640 H 58.417 0.999078 3.59267 0
M  V30 641 N 60.6021 -1.18246 1.0419 0
M  V30 642 C 61.8791 -1.84121 0.660208 0
M  V30 643 C 62.2591 -1.92778 -0.860221 0
M  V30 644 O 61.6071 -1.45464 -1.76217 0
M  V30 645 C 61.8171 -3.22355 1.33747 0
M  V30 646 C 63.1651 -3.98376 1.46906 0
M  V30 647 O 64.1891 -3.31799 1.29568 0
M  V30 648 O 63.0481 -5.17665 1.75171 0
M  V30 649 H 60.1421 -0.794036 0.231161 0
M  V30 650 H 62.6881 -1.25628 1.14087 0
M  V30 651 H 61.4601 -3.10964 2.37522 0
M  V30 652 H 61.0831 -3.88506 0.845515 0
M  V30 653 N 62.0802 -0.821533 -1.34494 0
M  V30 654 C 63.3282 -0.408139 -1.97936 0
M  V30 655 C 63.6492 1.03193 -1.65457 0
M  V30 656 O 62.9192 1.71622 -0.944595 0
M  V30 657 H 61.4992 -0.147928 -0.732206 0
M  V30 658 H 64.1612 -1.05067 -1.64155 0
M  V30 659 H 63.2572 -0.52601 -3.07635 0
M  V30 660 N 63.5583 1.46682 -0.576371 0
M  V30 661 C 64.8063 2.02013 -0.0594163 0
M  V30 662 C 65.1273 1.45101 1.30271 0
M  V30 663 O 64.3973 0.633317 1.8538 0
M  V30 664 H 62.9773 0.746759 -0.0189745 0
M  V30 665 H 65.6393 1.79862 -0.750717 0
M  V30 666 H 64.7353 3.12097 0.014345 0
M  V30 667 N 65.0364 0.313813 1.54444 0
M  V30 668 C 66.4524 -0.0391619 1.59552 0
M  V30 669 C 66.6524 -1.51322 1.33056 0
M  V30 670 O 65.7084 -2.26782 1.11022 0
M  V30 671 C 67.0214 0.370302 2.98411 0
M  V30 672 C 68.5694 0.320139 3.11358 0
M  V30 673 C 69.0444 0.704617 4.52547 0
M  V30 674 N 70.5354 0.657645 4.58508 0
M  V30 675 C 71.2704 0.927453 5.6585 0
M  V30 676 N 70.7664 1.26389 6.81174 0
M  V30 677 N 72.5594 0.853662 5.5558 0
M  V30 678 H 64.7104 1.27433 1.69925 0
M  V30 679 H 66.9734 0.517511 0.794284 0
M  V30 680 H 66.6794 1.39694 3.22767 0
M  V30 681 H 66.5534 -0.269619 3.76235 0
M  V30 682 H 68.9404 -0.697275 2.86744 0
M  V30 683 H 69.0214 0.99486 2.35661 0
M  V30 684 H 68.6654 1.7199 4.77893 0
M  V30 685 H 68.5954 0.00768843 5.26599 0
M  V30 686 H 71.0864 0.409067 3.75679 0
M  V30 687 H 71.3994 1.4554 7.58972 0
M  V30 688 H 69.7444 1.30206 6.82694 0
M  V30 689 H 72.9354 0.590383 4.64362 0
M  V30 690 H 73.1084 1.0673 6.3915 0
M  V30 691 N 66.5145 -1.57545 0.0417849 0
M  V30 692 C 67.7615 -1.92317 -0.634082 0
M  V30 693 C 68.0895 -0.919334 -1.71402 0
M  V30 694 O 67.3445 0.0698253 -1.95575 0
M  V30 695 C 67.6435 -3.33794 -1.27735 0
M  V30 696 C 67.3095 -4.49716 -0.326543 0
M  V30 697 C 65.9715 -4.81156 -0.0648814 0
M  V30 698 C 68.3235 -5.20182 0.325623 0
M  V30 699 C 65.6515 -5.80414 0.856539 0
M  V30 700 C 68.0035 -6.20424 1.23518 0
M  V30 701 C 66.6675 -6.50298 1.5056 0
M  V30 702 H 65.9375 -0.703736 -0.232027 0
M  V30 703 H 68.5845 -1.91205 0.106259 0
M  V30 704 H 66.8895 -3.31228 -2.09274 0
M  V30 705 H 68.5865 -3.57975 -1.80707 0
M  V30 706 H 65.1765 -4.25176 -0.540665 0
M  V30 707 H 69.3605 -4.96112 0.136546 0
M  V30 708 H 64.6165 -6.019 1.07363 0
M  V30 709 H 68.7905 -6.74141 1.74664 0
M  V30 710 H 66.4175 -7.27025 2.22123 0
M  V30 711 N 67.9926 0.231505 -1.5589 0
M  V30 712 C 68.9396 1.28682 -1.91598 0
M  V30 713 C 69.9096 1.47071 -0.771974 0
M  V30 714 O 71.0946 1.60802 -1.027 0
M  V30 715 C 68.2346 2.6342 -2.22944 0
M  V30 716 C 67.3476 2.52912 -3.50228 0
M  V30 717 C 66.4826 3.80106 -3.7107 0
M  V30 718 C 65.5216 3.64279 -4.91902 0
M  V30 719 N 64.6586 4.834 -5.09184 0
M  V30 720 H 69.4986 0.975305 -2.81588 0
M  V30 721 H 67.0356 0.470299 -1.39379 0
M  V30 722 H 68.9936 3.41869 -2.39126 0
M  V30 723 H 67.6236 2.92687 -1.36139 0
M  V30 724 H 66.6756 1.6595 -3.42294 0
M  V30 725 H 67.9876 2.37133 -4.38827 0
M  V30 726 H 67.1416 4.66999 -3.87295 0
M  V30 727 H 65.8806 3.98799 -2.80733 0
M  V30 728 H 64.8856 2.7577 -4.75637 0
M  V30 729 H 66.1106 3.47067 -5.83714 0
M  V30 730 H 64.0566 5.02425 -4.21788 0
M  V30 731 H 63.9736 4.70311 -5.91898 0
M  V30 732 H 65.2416 5.71747 -5.29835 0
M  V30 733 N 69.4707 1.49531 0.497807 0
M  V30 734 C 70.7177 1.59179 1.25173 0
M  V30 735 C 71.0457 0.279932 1.92475 0
M  V30 736 O 70.3007 -0.732383 1.81479 0
M  V30 737 C 70.5997 2.70252 2.33878 0
M  V30 738 C 70.2657 4.11644 1.84012 0
M  V30 739 C 68.9277 4.50121 1.70132 0
M  V30 740 C 71.2797 5.00121 1.46725 0
M  V30 741 C 68.6077 5.74845 1.17348 0
M  V30 742 C 70.9597 6.25366 0.95392 0
M  V30 743 C 69.6237 6.6267 0.801538 0
M  V30 744 H 68.8937 0.582478 0.45804 0
M  V30 745 H 71.5407 1.83373 0.551948 0
M  V30 746 H 69.8457 2.40041 3.09657 0
M  V30 747 H 71.5427 2.74925 2.9192 0
M  V30 748 H 68.1327 3.81274 1.95775 0
M  V30 749 H 72.3167 4.71048 1.56294 0
M  V30 750 H 67.5727 6.02444 1.04264 0
M  V30 751 H 71.7467 6.93301 0.656225 0
M  V30 752 H 69.3737 7.59197 0.390351 0
M  V30 753 N 70.9488 -0.749086 1.3866 0
M  V30 754 C 72.3598 -1.32664 1.31366 0
M  V30 755 C 72.7108 -1.96179 -0.028484 0
M  V30 756 O 71.8358 -1.9537 -0.93057 0
M  V30 757 C 72.4308 -2.41219 2.37905 0
M  V30 758 C 70.9898 -2.94684 2.34176 0
M  V30 759 C 70.1368 -1.68108 2.20533 0
M  V30 760 H 73.0878 -0.547628 1.48952 0
M  V30 761 H 73.1088 -3.21268 2.0388 0
M  V30 762 H 72.6208 -1.94962 3.35576 0
M  V30 763 H 70.7218 -3.45258 1.401 0
M  V30 764 H 70.8348 -3.48757 3.2849 0
M  V30 765 H 69.1988 -1.91907 1.67463 0
M  V30 766 H 69.9818 -1.23923 3.20153 0
M  V30 767 N 72.4269 -1.23603 -0.977757 0
M  V30 768 C 73.7039 -0.977897 -1.69401 0
M  V30 769 C 74.0839 0.502738 -2.05026 0
M  V30 770 O 73.4319 1.47459 -1.74551 0
M  V30 771 C 73.6419 -1.89077 -2.93345 0
M  V30 772 C 74.9899 -2.15579 -3.65802 0
M  V30 773 O 76.0139 -1.86648 -3.03383 0
M  V30 774 O 74.8729 -2.64658 -4.78141 0
M  V30 775 H 71.9669 -0.369025 -0.740101 0
M  V30 776 H 74.5129 -1.34657 -1.03274 0
M  V30 777 H 73.2849 -2.89158 -2.63634 0
M  V30 778 H 72.9079 -1.52463 -3.67207 0
M  V30 779 N 73.905 1.17692 -1.04816 0
M  V30 780 C 75.153 1.87488 -0.754497 0
M  V30 781 C 75.474 1.81205 0.720407 0
M  V30 782 O 74.744 1.23544 1.52032 0
M  V30 783 H 73.324 0.694101 -0.276102 0
M  V30 784 H 75.986 1.42793 -1.32651 0
M  V30 785 H 75.082 2.93328 -1.06606 0
M  V30 786 N 75.3831 0.828654 1.34056 0
M  V30 787 C 76.6291 0.42008 1.98402 0
M  V30 788 C 76.9621 -1.01564 1.65525 0
M  V30 789 O 76.2371 -1.70834 0.929831 0
M  V30 790 C 76.5201 0.62927 3.54559 0
M  V30 791 C 76.3731 2.11152 3.97159 0
M  V30 792 C 77.6921 0.0688756 4.40046 0
M  V30 793 H 74.8111 0.154104 0.720709 0
M  V30 794 H 77.4531 1.04228 1.5886 0
M  V30 795 H 75.6031 0.0996418 3.88372 0
M  V30 796 H 77.2751 2.70522 3.73651 0
M  V30 797 H 75.5181 2.59985 3.47261 0
M  V30 798 H 76.1891 2.20868 5.05887 0
M  V30 799 H 78.6651 0.521458 4.1282 0
M  V30 800 H 77.5411 0.245006 5.48353 0
M  V30 801 H 77.8021 -1.0266 4.30015 0
M  V30 802 N 76.8612 -1.46375 0.584142 0
M  V30 803 C 77.7932 -2.28443 -0.186119 0
M  V30 804 C 78.8062 -1.38596 -0.854115 0
M  V30 805 O 79.9952 -1.63183 -0.723438 0
M  V30 806 C 77.0952 -3.13671 -1.28311 0
M  V30 807 C 76.2682 -4.31652 -0.706758 0
M  V30 808 C 75.3272 -4.98267 -1.69163 0
M  V30 809 O 74.3532 -5.55815 -1.22712 0
M  V30 810 N 75.5552 -4.95408 -3.02575 0
M  V30 811 H 78.3202 -2.9519 0.517986 0
M  V30 812 H 75.8812 -1.56303 0.42201 0
M  V30 813 H 77.8732 -3.55101 -1.94128 0
M  V30 814 H 76.4432 -2.48989 -1.89005 0
M  V30 815 H 75.6632 -3.93989 0.128908 0
M  V30 816 H 76.9512 -5.07906 -0.301506 0
M  V30 817 H 76.3492 -4.49902 -3.42936 0
M  V30 818 H 74.9062 -5.40774 -3.63877 0
M  V30 819 N 78.3393 -0.321999 -1.54275 0
M  V30 820 C 79.2873 0.560206 -2.25753 0
M  V30 821 C 80.2813 1.11984 -1.27106 0
M  V30 822 O 81.4873 1.06806 -1.44888 0
M  V30 823 H 77.8623 0.199304 -0.725108 0
M  V30 824 H 79.8333 -0.0649365 -2.98329 0
M  V30 825 C 78.5823 1.71023 -3.02731 0
M  V30 826 H 77.9053 1.28885 -3.78456 0
M  V30 827 H 79.3453 2.30314 -3.55993 0
M  V30 828 C 77.8043 2.62692 -2.10938 0
M  V30 829 O 78.3343 3.64364 -1.6912 0
M  V30 830 N 76.5403 2.30891 -1.76459 0
M  V30 831 H 76.0873 1.48253 -2.10663 0
M  V30 832 H 76.0453 2.92487 -1.1532 0
M  V30 833 N 79.8174 1.5752 -0.0501392 0
M  V30 834 C 81.0634 1.93755 0.618901 0
M  V30 835 C 81.4184 0.928514 1.68512 0
M  V30 836 O 80.7114 -0.0524613 1.91528 0
M  V30 837 C 80.9054 3.34467 1.25963 0
M  V30 838 C 80.7344 4.48965 0.257 0
M  V30 839 C 79.5044 5.05075 -0.150656 0
M  V30 840 C 81.7024 5.11891 -0.497166 0
M  V30 841 N 79.6844 6.03104 -1.14626 0
M  V30 842 C 81.0554 6.05216 -1.34588 0
M  V30 843 C 83.1104 4.9479 -0.55559 0
M  V30 844 C 81.8134 6.83277 -2.24778 0
M  V30 845 C 83.8394 5.73477 -1.44492 0
M  V30 846 C 83.2014 6.66433 -2.28136 0
M  V30 847 H 79.3004 0.756479 0.198149 0
M  V30 848 H 81.8844 1.94316 -0.122229 0
M  V30 849 H 80.0554 3.34685 1.97079 0
M  V30 850 H 81.7874 3.57994 1.88739 0
M  V30 851 H 78.5424 4.7305 0.228094 0
M  V30 852 H 78.9664 6.56813 -1.64092 0
M  V30 853 H 83.6084 4.2273 0.0768625 0
M  V30 854 H 81.3264 7.54629 -2.89069 0
M  V30 855 H 84.9124 5.62273 -1.49468 0
M  V30 856 H 83.7924 7.26258 -2.95835 0
M  V30 857 N 81.2955 -0.223234 1.56011 0
M  V30 858 C 82.7065 -0.790368 1.69145 0
M  V30 859 C 83.0575 -1.85055 0.651845 0
M  V30 860 O 82.1825 -2.15498 -0.197359 0
M  V30 861 C 82.7775 -1.4404 3.06656 0
M  V30 862 C 81.3365 -1.95494 3.2165 0
M  V30 863 C 80.4835 -0.814506 2.65068 0
M  V30 864 H 83.4345 0.00139011 1.587 0
M  V30 865 H 83.4555 -2.30916 3.0242 0
M  V30 866 H 82.9675 -0.668543 3.82298 0
M  V30 867 H 81.0685 -2.75487 2.50874 0
M  V30 868 H 81.1815 -2.13607 4.28846 0
M  V30 869 H 79.5455 -1.22137 2.23505 0
M  V30 870 H 80.3285 -0.0553515 3.43255 0
M  V30 871 N 82.7736 -1.49793 -0.48987 0
M  V30 872 C 83.7366 -1.66752 -1.57246 0
M  V30 873 C 84.7366 -0.538867 -1.51502 0
M  V30 874 O 85.9266 -0.805545 -1.54456 0
M  V30 875 C 83.0586 -1.67528 -2.96896 0
M  V30 876 H 84.2516 -2.63321 -1.43534 0
M  V30 877 H 81.8046 -1.38992 -0.714914 0
M  V30 878 H 82.5396 -0.725837 -3.16073 0
M  V30 879 H 82.3246 -2.49504 -3.02473 0
M  V30 880 H 83.8146 -1.82667 -3.7553 0
M  V30 881 N 84.2517 0.741722 -1.39055 0
M  V30 882 C 85.1817 1.869 -1.39966 0
M  V30 883 C 86.1627 1.6804 -0.26392 0
M  V30 884 O 87.3477 1.88458 -0.468755 0
M  V30 885 C 84.4777 3.24572 -1.23574 0
M  V30 886 C 83.4317 3.58056 -2.34477 0
M  V30 887 C 82.7577 4.94593 -2.0318 0
M  V30 888 C 84.0577 3.61716 -3.76774 0
M  V30 889 H 85.7517 1.86395 -2.34302 0
M  V30 890 H 83.2977 0.895361 -1.1278 0
M  V30 891 H 85.2507 4.031 -1.22834 0
M  V30 892 H 83.9747 3.25587 -0.257045 0
M  V30 893 H 82.6337 2.81854 -2.34423 0
M  V30 894 H 82.2817 4.92181 -1.03765 0
M  V30 895 H 81.9817 5.17964 -2.77465 0
M  V30 896 H 83.5057 5.75486 -2.04079 0
M  V30 897 H 84.9197 4.30335 -3.78794 0
M  V30 898 H 83.3167 3.96603 -4.50362 0
M  V30 899 H 84.3867 2.61672 -4.08235 0
M  V30 900 N 85.7298 1.2412 0.971189 0
M  V30 901 C 86.9548 1.10667 1.75407 0
M  V30 902 C 87.3798 -0.337048 1.85056 0
M  V30 903 O 86.7378 -1.24396 1.31892 0
M  V30 904 C 86.7858 1.74726 3.15441 0
M  V30 905 O 85.8898 1.01566 3.99697 0
M  V30 906 H 85.2308 0.387341 0.539317 0
M  V30 907 H 87.7608 1.64358 1.2185 0
M  V30 908 H 87.7708 1.80341 3.6598 0
M  V30 909 H 86.4458 2.79773 3.07734 0
M  V30 910 H 85.0228 1.03713 3.58187 0
M  V30 911 N 87.2079 -1.17134 1.05439 0
M  V30 912 C 88.4569 -1.86791 0.761049 0
M  V30 913 C 88.7699 -1.82072 -0.714795 0
M  V30 914 O 89.9759 -2.47223 -1.12218 0
M  V30 915 C 88.4319 -3.35166 1.31117 0
M  V30 916 C 88.0399 -3.48381 2.81664 0
M  V30 917 C 89.7839 -4.10134 1.09499 0
M  V30 918 C 87.6909 -4.90793 3.29964 0
M  V30 919 H 86.6209 -0.699681 0.281002 0
M  V30 920 H 89.2719 -1.3226 1.27199 0
M  V30 921 H 87.6539 -3.8925 0.72803 0
M  V30 922 H 88.8279 -3.04502 3.45855 0
M  V30 923 H 87.1429 -2.86836 3.01851 0
M  V30 924 H 89.7399 -5.152 1.43084 0
M  V30 925 H 90.0829 -4.16287 0.0328772 0
M  V30 926 H 90.6159 -3.62264 1.64346 0
M  V30 927 H 87.3549 -4.89816 4.35616 0
M  V30 928 H 86.8749 -5.35333 2.70516 0
M  V30 929 H 88.5539 -5.59573 3.24787 0
M  V30 930 N 88.686 -0.835752 -1.33615 0
M  V30 931 C 89.932 -0.430596 -1.98176 0
M  V30 932 C 90.265 1.00684 -1.66061 0
M  V30 933 O 89.54 1.70339 -0.938877 0
M  V30 934 C 89.823 -0.648065 -3.5422 0
M  V30 935 C 89.676 -2.13255 -3.96033 0
M  V30 936 C 90.995 -0.0922113 -4.40003 0
M  V30 937 H 88.114 -0.157924 -0.719881 0
M  V30 938 H 90.756 -1.05069 -1.58305 0
M  V30 939 H 88.906 -0.120237 -3.88314 0
M  V30 940 H 90.578 -2.725 -3.72211 0
M  V30 941 H 88.821 -2.61823 -3.45878 0
M  V30 942 H 89.492 -2.23547 -5.04708 0
M  V30 943 H 91.968 -0.543343 -4.12537 0
M  V30 944 H 90.844 -0.274083 -5.48215 0
M  V30 945 H 91.105 1.00378 -4.30554 0
M  V30 946 N 90.1641 1.46063 -0.591896 0
M  V30 947 C 91.4131 2.01547 -0.0786637 0
M  V30 948 C 91.7261 1.46796 1.29268 0
M  V30 949 O 92.9321 1.94157 1.89777 0
M  V30 950 C 91.3881 3.59787 -0.0900024 0
M  V30 951 C 90.9961 4.23534 -1.46023 0
M  V30 952 C 92.7401 4.22895 0.368806 0
M  V30 953 C 90.6471 5.73881 -1.4288 0
M  V30 954 H 89.5771 0.753564 -0.0256388 0
M  V30 955 H 92.2281 1.677 -0.744905 0
M  V30 956 H 90.6101 3.90752 0.642586 0
M  V30 957 H 91.7841 4.04167 -2.21328 0
M  V30 958 H 90.0991 3.72558 -1.85982 0
M  V30 959 H 92.6961 5.33116 0.411258 0
M  V30 960 H 93.0391 3.9247 1.38827 0
M  V30 961 H 93.5721 3.9659 -0.31001 0
M  V30 962 H 90.3111 6.0898 -2.42536 0
M  V30 963 H 89.8311 5.95486 -0.718095 0
M  V30 964 H 91.5101 6.36776 -1.14565 0
M  V30 965 N 91.6422 0.330177 1.54103 0
M  V30 966 C 92.8912 -0.271336 1.99867 0
M  V30 967 C 93.2042 -1.52723 1.22209 0
M  V30 968 O 94.4102 -2.20515 1.58383 0
M  V30 969 C 92.8662 -0.534032 3.55916 0
M  V30 970 C 92.4742 0.705193 4.42415 0
M  V30 971 C 94.2182 -1.09514 4.1013 0
M  V30 972 C 92.1252 0.414035 5.89949 0
M  V30 973 H 91.0552 -0.105166 0.74663 0
M  V30 974 H 93.7062 0.443429 1.78062 0
M  V30 975 H 92.0882 -1.30915 3.73734 0
M  V30 976 H 93.2622 1.4804 4.36372 0
M  V30 977 H 91.5772 1.18698 3.99124 0
M  V30 978 H 94.1742 -1.3277 5.17954 0
M  V30 979 H 94.5172 -2.04656 3.62521 0
M  V30 980 H 95.0502 -0.381038 3.95971 0
M  V30 981 H 91.7892 1.33481 6.41766 0
M  V30 982 H 91.3092 -0.323336 5.98928 0
M  V30 983 H 92.9882 0.0263105 6.46995 0
M  V30 984 N 93.1203 -1.57491 0.0584922 0
M  V30 985 C 94.3693 -1.92155 -0.613146 0
M  V30 986 C 94.6823 -0.939334 -1.71569 0
M  V30 987 O 95.8883 -1.17829 -2.44599 0
M  V30 988 C 94.3443 -3.41303 -1.14195 0
M  V30 989 C 93.9523 -4.47944 -0.0711265 0
M  V30 990 C 95.6963 -3.84988 -1.78841 0
M  V30 991 C 93.6033 -5.88212 -0.613225 0
M  V30 992 H 92.5333 -0.717162 -0.232796 0
M  V30 993 H 95.1843 -1.83049 0.12857 0
M  V30 994 H 93.5663 -3.45437 -1.93621 0
M  V30 995 H 94.7403 -4.55408 0.702836 0
M  V30 996 H 93.0553 -4.13644 0.478313 0
M  V30 997 H 95.6523 -4.87159 -2.20408 0
M  V30 998 H 95.9953 -3.21632 -2.64308 0
M  V30 999 H 96.5283 -3.83401 -1.06059 0
M  V30 1000 H 93.2673 -6.55183 0.203978 0
M  V30 1001 H 92.7873 -5.84294 -1.35501 0
M  V30 1002 H 94.4663 -6.37687 -1.09383 0
M  V30 1003 N 94.5984 0.214957 -1.56127 0
M  V30 1004 C 95.8474 0.936451 -1.78643 0
M  V30 1005 C 96.1604 1.85237 -0.628229 0
M  V30 1006 O 97.3664 2.613 -0.737186 0
M  V30 1007 C 95.8224 1.7154 -3.16389 0
M  V30 1008 C 95.4304 0.845299 -4.39953 0
M  V30 1009 C 97.1744 2.42772 -3.48227 0
M  V30 1010 C 95.0814 1.62198 -5.68723 0
M  V30 1011 H 94.0114 0.353401 -0.666051 0
M  V30 1012 H 96.6624 0.190169 -1.82512 0
M  V30 1013 H 95.0444 2.50484 -3.06715 0
M  V30 1014 H 96.2184 0.0959353 -4.607 0
M  V30 1015 H 94.5334 0.244789 -4.1568 0
M  V30 1016 H 97.1304 3.01394 -4.41663 0
M  V30 1017 H 97.4734 3.15984 -2.71035 0
M  V30 1018 H 98.0064 1.70813 -3.5926 0
M  V30 1019 H 94.7454 0.933011 -6.48826 0
M  V30 1020 H 94.2654 2.34579 -5.52026 0
M  V30 1021 H 95.9444 2.18095 -6.09133 0
M  V30 1022 N 96.0765 1.50051 0.48192 0
M  V30 1023 C 97.0095 1.62749 1.59963 0
M  V30 1024 C 97.9875 0.475903 1.5548 0
M  V30 1025 O 99.1715 0.693986 1.7526 0
M  V30 1026 C 96.2985 1.60008 2.98522 0
M  V30 1027 C 95.3445 2.80596 3.21198 0
M  V30 1028 S 96.1775 4.42038 3.02262 0
M  V30 1029 C 97.3335 4.41973 4.43182 0
M  V30 1030 H 97.5665 2.57296 1.4895 0
M  V30 1031 H 95.0995 1.39179 0.668477 0
M  V30 1032 H 97.0575 1.59112 3.78409 0
M  V30 1033 H 95.7185 0.667153 3.06933 0
M  V30 1034 H 94.9115 2.74952 4.22395 0
M  V30 1035 H 94.5135 2.79003 2.49065 0
M  V30 1036 H 96.8055 4.14868 5.35622 0
M  V30 1037 H 97.7485 5.43512 4.53873 0
M  V30 1038 H 98.1565 3.71812 4.24755 0
M  V30 1039 N 97.5546 -0.734337 1.39446 0
M  V30 1040 C 98.7826 -1.52358 1.39981 0
M  V30 1041 C 99.1976 -1.88799 -0.0054975 0
M  V30 1042 O 98.5546 -1.54146 -0.976998 0
M  V30 1043 C 98.6056 -2.81072 2.27333 0
M  V30 1044 O 98.3266 -2.46178 3.62392 0
M  V30 1045 C 99.8276 -3.75096 2.36259 0
M  V30 1046 H 97.0476 -0.470806 0.478103 0
M  V30 1047 H 99.5916 -0.907339 1.83269 0
M  V30 1048 H 97.7466 -3.39026 1.87457 0
M  V30 1049 H 98.1606 -3.28866 4.08592 0
M  V30 1050 H 99.6346 -4.62305 3.01626 0
M  V30 1051 H 100.112 -4.16892 1.38194 0
M  V30 1052 H 100.718 -3.23061 2.76608 0
M  V30 1053 N 99.0327 -1.24633 -0.964593 0
M  V30 1054 C 100.282 -1.08188 -1.7023 0
M  V30 1055 C 100.595 0.37873 -1.91898 0
M  V30 1056 O 101.801 0.663427 -2.6327 0
M  V30 1057 C 100.257 -1.88773 -3.06419 0
M  V30 1058 C 99.8647 -3.39263 -2.92582 0
M  V30 1059 C 101.609 -1.80867 -3.84041 0
M  V30 1060 C 99.5157 -4.1218 -4.24101 0
M  V30 1061 H 98.4457 -0.401245 -0.638372 0
M  V30 1062 H 101.097 -1.48742 -1.07462 0
M  V30 1063 H 99.4787 -1.41035 -3.70034 0
M  V30 1064 H 100.653 -3.94603 -2.37961 0
M  V30 1065 H 98.9677 -3.48154 -2.28424 0
M  V30 1066 H 101.565 -2.32646 -4.81435 0
M  V30 1067 H 101.908 -0.774543 -4.09031 0
M  V30 1068 H 102.441 -2.26301 -3.27159 0
M  V30 1069 H 99.1797 -5.15965 -4.04303 0
M  V30 1070 H 98.6997 -3.61626 -4.78526 0
M  V30 1071 H 100.379 -4.19349 -4.92702 0
M  V30 1072 N 100.511 1.16574 -1.06058 0
M  V30 1073 C 101.759 1.86677 -0.77434 0
M  V30 1074 C 102.08 1.81959 0.701147 0
M  V30 1075 O 101.35 1.2515 1.50713 0
M  V30 1076 H 99.9298 0.691134 -0.283449 0
M  V30 1077 H 102.592 1.41378 -1.34158 0
M  V30 1078 H 101.688 2.92181 -1.09711 0
M  V30 1079 N 101.989 0.842826 1.3317 0
M  V30 1080 C 103.237 0.439577 1.97262 0
M  V30 1081 C 103.558 -1.00548 1.67078 0
M  V30 1082 O 102.828 -1.70098 0.971779 0
M  V30 1083 H 101.408 0.159558 0.72976 0
M  V30 1084 H 104.07 1.07665 1.62463 0
M  V30 1085 H 103.166 0.574886 3.0676 0
M  V30 1086 N 103.467 -1.45747 0.599634 0
M  V30 1087 C 104.415 -2.322 -0.136426 0
M  V30 1088 C 105.409 -1.45497 -0.867583 0
M  V30 1089 O 106.615 -1.62027 -0.78405 0
M  V30 1090 H 102.99 -0.749368 -0.0628588 0
M  V30 1091 H 104.961 -2.92072 0.611281 0
M  V30 1092 C 103.71 -3.28974 -1.12567 0
M  V30 1093 H 103.033 -3.9568 -0.572484 0
M  V30 1094 H 104.473 -3.92212 -1.61077 0
M  V30 1095 C 102.932 -2.55561 -2.19523 0
M  V30 1096 O 103.462 -2.33111 -3.27143 0
M  V30 1097 N 101.668 -2.15832 -1.94589 0
M  V30 1098 H 101.215 -2.3429 -1.07078 0
M  V30 1099 H 101.173 -1.67034 -2.66359 0
M  V30 1100 N 104.945 -0.338344 -1.53925 0
M  V30 1101 C 106.194 0.260732 -2.00008 0
M  V30 1102 C 106.507 1.52073 -1.23017 0
M  V30 1103 O 107.713 2.19672 -1.5955 0
M  V30 1104 C 106.169 0.51515 -3.56194 0
M  V30 1105 C 105.777 -0.728645 -4.42035 0
M  V30 1106 C 107.521 1.07337 -4.10706 0
M  V30 1107 C 105.428 -0.445315 -5.89721 0
M  V30 1108 H 104.358 0.101205 -0.747177 0
M  V30 1109 H 107.009 -0.452866 -1.77824 0
M  V30 1110 H 105.391 1.28932 -3.74423 0
M  V30 1111 H 106.565 -1.50352 -4.35581 0
M  V30 1112 H 104.88 -1.20813 -3.98489 0
M  V30 1113 H 107.477 1.30022 -5.18651 0
M  V30 1114 H 107.82 2.0273 -3.63602 0
M  V30 1115 H 108.353 0.360034 -3.96167 0
M  V30 1116 H 105.092 -1.36883 -6.41049 0
M  V30 1117 H 104.612 0.291569 -5.99091 0
M  V30 1118 H 106.291 -0.0606218 -6.46972 0
M  V30 1119 N 106.423 1.57458 -0.0668435 0
M  V30 1120 C 107.353 2.15468 0.899764 0
M  V30 1121 C 108.334 1.08042 1.31381 0
M  V30 1122 O 109.519 1.36054 1.38574 0
M  V30 1123 C 106.649 2.71232 2.16911 0
M  V30 1124 C 105.603 3.83781 1.89463 0
M  V30 1125 C 104.929 4.26127 3.22986 0
M  V30 1126 C 106.229 5.08238 1.20381 0
M  V30 1127 H 107.923 2.96488 0.416529 0
M  V30 1128 H 105.469 1.4262 0.198908 0
M  V30 1129 H 107.422 3.10458 2.84945 0
M  V30 1130 H 106.146 1.87426 2.67468 0
M  V30 1131 H 104.805 3.45051 1.23836 0
M  V30 1132 H 104.453 3.39249 3.71374 0
M  V30 1133 H 104.153 5.01993 3.05413 0
M  V30 1134 H 105.677 4.67966 3.92225 0
M  V30 1135 H 107.091 5.44811 1.78475 0
M  V30 1136 H 105.488 5.89349 1.13083 0
M  V30 1137 H 106.558 4.84558 0.182153 0
M  V30 1138 N 107.901 -0.206675 1.56239 0
M  V30 1139 C 109.147 -0.930218 1.80208 0
M  V30 1140 C 109.48 -1.83387 0.638981 0
M  V30 1141 O 108.755 -1.91119 -0.361066 0
M  V30 1142 C 109.038 -1.75641 3.1436 0
M  V30 1143 C 108.891 -0.878257 4.41142 0
M  V30 1144 C 110.21 -2.73129 3.45092 0
M  V30 1145 H 107.329 -0.336742 0.655571 0
M  V30 1146 H 109.971 -0.198222 1.88963 0
M  V30 1147 H 108.121 -2.38048 3.07027 0
M  V30 1148 H 109.793 -0.269787 4.6051 0
M  V30 1149 H 108.036 -0.184385 4.33408 0
M  V30 1150 H 108.707 -1.49106 5.3148 0
M  V30 1151 H 111.183 -2.20856 3.52649 0
M  V30 1152 H 110.059 -3.28028 4.40101 0
M  V30 1153 H 110.32 -3.51606 2.68003 0
M  V30 1154 N 109.379 -1.50304 -0.473955 0
M  V30 1155 C 110.628 -1.60392 -1.22301 0
M  V30 1156 C 110.941 -0.308411 -1.93153 0
M  V30 1157 O 112.147 -0.288156 -2.69966 0
M  V30 1158 C 110.603 -2.83109 -2.2221 0
M  V30 1159 C 110.211 -4.19524 -1.57173 0
M  V30 1160 C 111.955 -3.0254 -2.97775 0
M  V30 1161 C 109.862 -5.33431 -2.55353 0
M  V30 1162 H 108.792 -0.597286 -0.460179 0
M  V30 1163 H 111.443 -1.76731 -0.493803 0
M  V30 1164 H 109.825 -2.60322 -2.9841 0
M  V30 1165 H 110.999 -4.52554 -0.867824 0
M  V30 1166 H 109.314 -4.05674 -0.939002 0
M  V30 1167 H 111.911 -3.84811 -3.71248 0
M  V30 1168 H 112.254 -2.14154 -3.56992 0
M  V30 1169 H 112.787 -3.25494 -2.28688 0
M  V30 1170 H 109.526 -6.23962 -2.00878 0
M  V30 1171 H 109.046 -5.04823 -3.23904 0
M  V30 1172 H 110.725 -5.63887 -3.17239 0
M  V30 1173 N 110.857 0.726932 -1.39834 0
M  V30 1174 C 111.79 1.8501 -1.33592 0
M  V30 1175 C 112.768 1.61262 -0.208191 0
M  V30 1176 O 113.952 1.84422 -0.389981 0
M  V30 1177 C 111.079 3.21143 -1.07633 0
M  V30 1178 C 110.125 3.63737 -2.22705 0
M  V30 1179 S 110.958 3.72167 -3.85035 0
M  V30 1180 C 112.114 5.11077 -3.61318 0
M  V30 1181 H 112.347 1.90022 -2.28646 0
M  V30 1182 H 109.88 0.892595 -1.25985 0
M  V30 1183 H 111.838 3.99747 -0.933415 0
M  V30 1184 H 110.499 3.13776 -0.142526 0
M  V30 1185 H 109.692 4.62551 -2.00155 0
M  V30 1186 H 109.294 2.9236 -2.33242 0
M  V30 1187 H 111.586 5.97656 -3.19083 0
M  V30 1188 H 112.529 5.38658 -4.59623 0
M  V30 1189 H 112.937 4.81135 -2.95245 0
M  V30 1190 N 112.336 1.25143 0.95797 0
M  V30 1191 C 113.299 1.05321 2.03569 0
M  V30 1192 C 114.299 0.007152 1.60798 0
M  V30 1193 O 115.489 0.24903 1.72411 0
M  V30 1194 C 112.621 0.598394 3.35607 0
M  V30 1195 H 113.814 2.00986 2.22586 0
M  V30 1196 H 111.367 1.07502 1.13459 0
M  V30 1197 H 112.102 -0.361014 3.22284 0
M  V30 1198 H 111.887 1.35351 3.67998 0
M  V30 1199 H 113.377 0.48104 4.1482 0
M  V30 1200 N 113.814 -1.1601 1.06675 0
M  V30 1201 C 115.06 -1.86909 0.786945 0
M  V30 1202 C 115.393 -1.81717 -0.685018 0
M  V30 1203 O 114.668 -1.23551 -1.50218 0
M  V30 1204 C 114.951 -3.36313 1.28707 0
M  V30 1205 C 114.804 -3.50175 2.82308 0
M  V30 1206 C 116.123 -4.3084 0.898071 0
M  V30 1207 H 113.242 -0.678677 0.287343 0
M  V30 1208 H 115.884 -1.36336 1.32334 0
M  V30 1209 H 114.034 -3.79513 0.830768 0
M  V30 1210 H 115.706 -3.15886 3.36175 0
M  V30 1211 H 113.949 -2.91959 3.20847 0
M  V30 1212 H 114.62 -4.55116 3.12368 0
M  V30 1213 H 117.096 -3.95561 1.29114 0
M  V30 1214 H 115.972 -5.33876 1.27543 0
M  V30 1215 H 116.233 -4.41662 -0.196651 0
M  V30 1216 N 115.292 -0.849877 -1.32721 0
M  V30 1217 C 116.517 -0.463856 -2.02146 0
M  V30 1218 C 116.942 0.930449 -1.63476 0
M  V30 1219 O 116.3 1.61033 -0.832952 0
M  V30 1220 C 116.348 -0.604955 -3.55489 0
M  V30 1221 O 115.452 0.36425 -4.10788 0
M  V30 1222 H 114.793 -0.187046 -0.637111 0
M  V30 1223 H 117.323 -1.14775 -1.69375 0
M  V30 1224 H 117.333 -0.490696 -4.05038 0
M  V30 1225 H 116.008 -1.62174 -3.82978 0
M  V30 1226 H 114.585 0.206628 -3.72327 0
M  V30 1227 N 116.77 1.45427 -0.607355 0
M  V30 1228 C 117.703 2.27635 0.160482 0
M  V30 1229 C 118.681 1.37122 0.873857 0
M  V30 1230 O 119.865 1.66551 0.882775 0
M  V30 1231 C 116.992 3.15486 1.23231 0
M  V30 1232 C 116.038 4.21939 0.622097 0
M  V30 1233 S 116.871 5.32459 -0.569852 0
M  V30 1234 C 118.027 6.23879 0.502577 0
M  V30 1235 H 118.26 2.9241 -0.536983 0
M  V30 1236 H 115.793 1.49265 -0.394868 0
M  V30 1237 H 117.751 3.66659 1.84585 0
M  V30 1238 H 116.412 2.49977 1.90185 0
M  V30 1239 H 115.605 4.8333 1.42856 0
M  V30 1240 H 115.207 3.73906 0.0837063 0
M  V30 1241 H 117.499 6.63261 1.38171 0
M  V30 1242 H 118.442 7.0806 -0.0751759 0
M  V30 1243 H 118.85 5.58545 0.8178 0
M  V30 1244 N 118.248 0.346503 1.53744 0
M  V30 1245 C 119.158 -0.517293 2.28826 0
M  V30 1246 C 120.174 -1.10935 1.3405 0
M  V30 1247 O 121.35 -1.1244 1.6709 0
M  V30 1248 C 118.415 -1.65098 3.04866 0
M  V30 1249 C 117.476 -1.0884 4.15274 0
M  V30 1250 C 116.709 -2.16806 4.87679 0
M  V30 1251 O 116.932 -3.3758 4.59778 0
M  V30 1252 O 115.866 -1.80934 5.74061 0
M  V30 1253 H 119.692 0.0931396 3.03557 0
M  V30 1254 H 117.277 0.111458 1.48984 0
M  V30 1255 H 119.159 -2.31053 3.5241 0
M  V30 1256 H 117.834 -2.24717 2.32989 0
M  V30 1257 H 116.741 -0.3933 3.72027 0
M  V30 1258 H 118.074 -0.537036 4.89261 0
M  V30 1259 N 119.726 -1.57421 0.075193 0
M  V30 1260 C 120.673 -2.12915 -0.890843 0
M  V30 1261 C 121.643 -1.04252 -1.29309 0
M  V30 1262 O 122.828 -1.31933 -1.37834 0
M  V30 1263 C 119.968 -2.69795 -2.15186 0
M  V30 1264 C 119.081 -3.92624 -1.80194 0
M  V30 1265 C 118.216 -4.37736 -3.00933 0
M  V30 1266 C 117.255 -5.53205 -2.61974 0
M  V30 1267 N 116.392 -5.9326 -3.75483 0
M  V30 1268 H 121.232 -2.95156 -0.410735 0
M  V30 1269 H 118.769 -1.45854 -0.191086 0
M  V30 1270 H 120.727 -3.00883 -2.89008 0
M  V30 1271 H 119.357 -1.90313 -2.60731 0
M  V30 1272 H 118.409 -3.67977 -0.964218 0
M  V30 1273 H 119.721 -4.76482 -1.47534 0
M  V30 1274 H 118.875 -4.70503 -3.8303 0
M  V30 1275 H 117.614 -3.52739 -3.36789 0
M  V30 1276 H 116.619 -5.20086 -1.783 0
M  V30 1277 H 117.844 -6.39936 -2.27284 0
M  V30 1278 H 115.79 -5.11212 -4.11094 0
M  V30 1279 H 115.707 -6.71865 -3.46602 0
M  V30 1280 H 116.975 -6.30651 -4.58148 0
M  V30 1281 N 121.204 0.198386 -1.56346 0
M  V30 1282 C 122.151 1.24589 -1.94284 0
M  V30 1283 C 123.121 1.454 -0.802997 0
M  V30 1284 O 124.306 1.58588 -1.06087 0
M  V30 1285 C 121.446 2.58631 -2.28482 0
M  V30 1286 C 120.559 2.45426 -3.55514 0
M  V30 1287 C 119.694 3.7215 -3.79049 0
M  V30 1288 C 118.733 3.53763 -4.99518 0
M  V30 1289 N 117.87 4.72491 -5.19323 0
M  V30 1290 H 122.71 0.915356 -2.83593 0
M  V30 1291 H 120.247 0.440629 -1.40346 0
M  V30 1292 H 122.205 3.3672 -2.46324 0
M  V30 1293 H 120.835 2.89734 -1.42317 0
M  V30 1294 H 119.887 1.58652 -3.45737 0
M  V30 1295 H 121.199 2.27772 -4.43758 0
M  V30 1296 H 120.353 4.58679 -3.97113 0
M  V30 1297 H 119.092 3.92754 -2.89129 0
M  V30 1298 H 118.097 2.65619 -4.8138 0
M  V30 1299 H 119.322 3.34607 -5.90944 0
M  V30 1300 H 117.268 4.93365 -4.3235 0
M  V30 1301 H 117.185 4.5765 -6.01741 0
M  V30 1302 H 118.453 5.6038 -5.41843 0
M  V30 1303 N 122.682 1.50554 0.465978 0
M  V30 1304 C 123.612 1.72722 1.57128 0
M  V30 1305 C 124.593 0.576294 1.6004 0
M  V30 1306 O 125.778 0.81598 1.76225 0
M  V30 1307 C 122.908 1.82605 2.95419 0
M  V30 1308 C 121.862 2.97835 3.07373 0
M  V30 1309 C 121.188 2.92867 4.47363 0
M  V30 1310 C 122.488 4.38265 2.84114 0
M  V30 1311 H 124.182 2.65267 1.38829 0
M  V30 1312 H 121.728 1.2765 0.666441 0
M  V30 1313 H 123.681 1.96698 3.72677 0
M  V30 1314 H 122.405 0.866858 3.14886 0
M  V30 1315 H 121.064 2.83401 2.3255 0
M  V30 1316 H 120.712 1.94783 4.63755 0
M  V30 1317 H 120.412 3.70227 4.56296 0
M  V30 1318 H 121.936 3.09015 5.26633 0
M  V30 1319 H 123.35 4.53198 3.51118 0
M  V30 1320 H 121.747 5.17115 3.04487 0
M  V30 1321 H 122.817 4.50281 1.7993 0
M  V30 1322 N 124.16 -0.719506 1.40217 0
M  V30 1323 C 125.11 -1.8251 1.36653 0
M  V30 1324 C 126.094 -1.59028 0.244732 0
M  V30 1325 O 127.286 -1.70268 0.483524 0
M  V30 1326 C 124.415 -3.20599 1.22763 0
M  V30 1327 C 123.501 -3.49858 2.39708 0
M  V30 1328 N 123.892 -3.49957 3.6519 0
M  V30 1329 C 122.19 -3.80297 2.33002 0
M  V30 1330 C 122.891 -3.77449 4.42614 0
M  V30 1331 N 121.867 -3.96002 3.72402 0
M  V30 1332 H 125.669 -1.80914 2.31619 0
M  V30 1333 H 123.183 -0.918455 1.33933 0
M  V30 1334 H 125.18 -3.99766 1.18292 0
M  V30 1335 H 123.84 -3.23424 0.287614 0
M  V30 1336 H 124.851 -3.309 3.98404 0
M  V30 1337 H 121.528 -3.90635 1.47346 0
M  V30 1338 H 122.918 -3.83863 5.51451 0
M  V30 1339 N 125.638 -1.25649 -0.95132 0
M  V30 1340 C 126.586 -1.06118 -2.06982 0
M  V30 1341 C 127.58 0.00889169 -1.69398 0
M  V30 1342 O 128.786 -0.146988 -1.79399 0
M  V30 1343 H 125.161 -0.326248 -0.677544 0
M  V30 1344 H 127.132 -2.00932 -2.2061 0
M  V30 1345 C 125.881 -0.700145 -3.40578 0
M  V30 1346 H 125.204 -1.51537 -3.69968 0
M  V30 1347 H 126.644 -0.603211 -4.19687 0
M  V30 1348 C 125.103 0.59403 -3.31622 0
M  V30 1349 O 125.633 1.63522 -3.66911 0
M  V30 1350 N 123.839 0.58089 -2.84735 0
M  V30 1351 H 123.386 -0.266783 -2.56215 0
M  V30 1352 H 123.344 1.44695 -2.79125 0
M  V30 1353 N 127.117 1.15442 -1.07289 0
M  V30 1354 C 128.08 2.18358 -0.696591 0
M  V30 1355 C 129.08 1.58637 0.262837 0
M  V30 1356 O 130.27 1.74145 0.0438809 0
M  V30 1357 C 127.402 3.4089 -0.0266151 0
M  V30 1358 H 128.595 2.53162 -1.60776 0
M  V30 1359 H 126.148 1.29893 -0.869342 0
M  V30 1360 H 126.883 3.11653 0.896822 0
M  V30 1361 H 126.668 3.85495 -0.716657 0
M  V30 1362 H 128.158 4.17009 0.222028 0
M  V30 1363 N 128.595 0.856903 1.32268 0
M  V30 1364 C 129.823 0.475439 2.01363 0
M  V30 1365 C 130.238 -0.928486 1.64392 0
M  V30 1366 O 129.595 -1.60624 0.866387 0
M  V30 1367 C 129.646 0.607545 3.56358 0
M  V30 1368 O 129.367 1.95617 3.92002 0
M  V30 1369 C 130.868 0.225382 4.42727 0
M  V30 1370 H 128.088 0.186636 0.644521 0
M  V30 1371 H 130.632 1.15446 1.68797 0
M  V30 1372 H 128.787 -0.0237719 3.87393 0
M  V30 1373 H 129.201 1.95455 4.86721 0
M  V30 1374 H 130.675 0.368813 5.50767 0
M  V30 1375 H 131.152 -0.834369 4.31202 0
M  V30 1376 H 131.758 0.831864 4.17085 0
M  V30 1377 N 130.073 -1.45103 0.615059 0
M  V30 1378 C 131.021 -2.32331 -0.111791 0
M  V30 1379 C 132.015 -1.46409 -0.852102 0
M  V30 1380 O 133.221 -1.62849 -0.766821 0
M  V30 1381 H 129.596 -0.749993 -0.0549072 0
M  V30 1382 H 131.567 -2.91407 0.642225 0
M  V30 1383 C 130.316 -3.3015 -1.09071 0
M  V30 1384 H 129.639 -3.96265 -0.530485 0
M  V30 1385 H 131.079 -3.93898 -1.56908 0
M  V30 1386 C 129.538 -2.57875 -2.168 0
M  V30 1387 O 130.068 -2.36567 -3.24652 0
M  V30 1388 N 128.274 -2.17884 -1.92289 0
M  V30 1389 H 127.821 -2.35413 -1.04587 0
M  V30 1390 H 127.779 -1.6985 -2.64572 0
M  V30 1391 N 131.551 -0.354651 -1.53558 0
M  V30 1392 C 132.781 0.239167 -2.05211 0
M  V30 1393 C 133.189 1.43879 -1.22863 0
M  V30 1394 O 132.532 1.81857 -0.259565 0
M  V30 1395 C 132.594 0.707251 -3.52474 0
M  V30 1396 C 132.258 -0.374212 -4.55465 0
M  V30 1397 C 133.255 -1.22054 -5.0537 0
M  V30 1398 C 130.94 -0.531323 -4.99482 0
M  V30 1399 C 132.934 -2.20942 -5.97882 0
M  V30 1400 C 130.621 -1.52358 -5.91802 0
M  V30 1401 C 131.619 -2.36108 -6.40892 0
M  V30 1402 O 131.307 -3.33643 -7.31394 0
M  V30 1403 H 131.039 0.0479716 -0.674296 0
M  V30 1404 H 133.593 -0.508121 -1.99016 0
M  V30 1405 H 131.823 1.50596 -3.56171 0
M  V30 1406 H 133.512 1.22285 -3.87042 0
M  V30 1407 H 134.278 -1.1103 -4.7212 0
M  V30 1408 H 130.157 0.110738 -4.60867 0
M  V30 1409 H 133.701 -2.86348 -6.36121 0
M  V30 1410 H 129.598 -1.63434 -6.24467 0
M  V30 1411 H 130.366 -3.29244 -7.4936 0
M  V30 1412 N 133.029 1.57378 -0.0835403 0
M  V30 1413 C 134.276 1.9393 0.58287 0
M  V30 1414 C 134.604 0.964455 1.68904 0
M  V30 1415 O 133.859 -0.0179474 1.95692 0
M  V30 1416 C 134.158 3.37063 1.1884 0
M  V30 1417 C 133.824 4.50424 0.207194 0
M  V30 1418 C 132.486 4.81159 -0.0627115 0
M  V30 1419 C 134.838 5.19136 -0.463426 0
M  V30 1420 C 132.166 5.77939 -1.01012 0
M  V30 1421 C 134.518 6.16931 -1.39924 0
M  V30 1422 C 133.182 6.46078 -1.67749 0
M  V30 1423 H 132.452 0.70964 0.213287 0
M  V30 1424 H 135.099 1.90856 -0.156916 0
M  V30 1425 H 133.404 3.3666 2.00418 0
M  V30 1426 H 135.101 3.6264 1.71153 0
M  V30 1427 H 131.691 4.2646 0.427747 0
M  V30 1428 H 135.875 4.95576 -0.268034 0
M  V30 1429 H 131.131 5.98842 -1.23283 0
M  V30 1430 H 135.305 6.69273 -1.92476 0
M  V30 1431 H 132.932 7.2088 -2.41321 0
M  V30 1432 N 134.507 -0.190092 1.56449 0
M  V30 1433 C 135.437 -1.23816 1.97969 0
M  V30 1434 C 136.418 -1.47201 0.852395 0
M  V30 1435 O 137.603 -1.58854 1.1171 0
M  V30 1436 C 134.733 -2.5813 2.3235 0
M  V30 1437 C 133.687 -2.49348 3.47864 0
M  V30 1438 C 133.013 -3.8798 3.67934 0
M  V30 1439 C 134.313 -2.01424 4.81898 0
M  V30 1440 H 136.007 -0.89311 2.85769 0
M  V30 1441 H 133.553 -0.428177 1.37487 0
M  V30 1442 H 135.506 -3.31637 2.59991 0
M  V30 1443 H 134.23 -2.94386 1.41438 0
M  V30 1444 H 132.889 -1.78297 3.20321 0
M  V30 1445 H 132.537 -4.21597 2.74344 0
M  V30 1446 H 132.237 -3.82978 4.45648 0
M  V30 1447 H 133.761 -4.63101 3.97957 0
M  V30 1448 H 135.175 -2.64693 5.08538 0
M  V30 1449 H 133.572 -2.07413 5.63116 0
M  V30 1450 H 134.642 -0.967677 4.75146 0
M  V30 1451 N 135.985 -1.50799 -0.457987 0
M  V30 1452 C 136.918 -1.65273 -1.57353 0
M  V30 1453 C 137.896 -0.500578 -1.54703 0
M  V30 1454 O 139.08 -0.721781 -1.74134 0
M  V30 1455 C 136.207 -1.64737 -2.95938 0
M  V30 1456 C 135.253 -2.8567 -3.16693 0
M  V30 1457 S 136.086 -4.46791 -2.95191 0
M  V30 1458 C 137.242 -4.48968 -4.36095 0
M  V30 1459 H 137.475 -2.59633 -1.44838 0
M  V30 1460 H 135.008 -1.40225 -0.64625 0
M  V30 1461 H 136.966 -1.65112 -3.7583 0
M  V30 1462 H 135.627 -0.715899 -3.05833 0
M  V30 1463 H 134.82 -2.81637 -4.17967 0
M  V30 1464 H 134.422 -2.8293 -2.44594 0
M  V30 1465 H 136.714 -4.23337 -5.28954 0
M  V30 1466 H 137.657 -5.50664 -4.45168 0
M  V30 1467 H 138.065 -3.78522 -4.18786 0
M  V30 1468 N 137.463 0.71206 -1.40597 0
M  V30 1469 C 138.688 1.50617 -1.42581 0
M  V30 1470 C 139.113 1.88079 -0.0282102 0
M  V30 1471 O 138.471 1.53511 0.964579 0
M  V30 1472 C 138.519 2.7557 -2.3258 0
M  V30 1473 O 137.623 3.72414 -1.77148 0
M  V30 1474 H 136.964 0.453966 -0.484573 0
M  V30 1475 H 139.494 0.876649 -1.84868 0
M  V30 1476 H 139.504 3.2406 -2.47889 0
M  V30 1477 H 138.179 2.47639 -3.34138 0
M  V30 1478 H 136.756 3.31276 -1.71204 0
M  V30 1479 N 138.941 1.26152 0.944643 0
M  V30 1480 C 139.871 1.09902 2.06019 0
M  V30 1481 C 140.852 0.00519538 1.70099 0
M  V30 1482 O 142.037 0.176583 1.93396 0
M  V30 1483 C 139.167 0.727562 3.39594 0
M  V30 1484 C 138.121 1.77274 3.89561 0
M  V30 1485 C 137.447 1.25569 5.19747 0
M  V30 1486 C 138.747 3.17357 4.14827 0
M  V30 1487 H 140.441 2.03217 2.19871 0
M  V30 1488 H 137.987 0.978452 1.05652 0
M  V30 1489 H 139.94 0.600777 4.17095 0
M  V30 1490 H 138.664 -0.241287 3.25707 0
M  V30 1491 H 137.323 1.88814 3.14237 0
M  V30 1492 H 136.971 0.276783 5.02238 0
M  V30 1493 H 136.671 1.95433 5.54148 0
M  V30 1494 H 138.195 1.1415 5.99835 0
M  V30 1495 H 139.609 3.08914 4.82954 0
M  V30 1496 H 138.006 3.84781 4.60504 0
M  V30 1497 H 139.076 3.63673 3.20734 0
M  V30 1498 N 140.419 -1.14872 1.07899 0
M  V30 1499 C 141.382 -2.17986 0.708161 0
M  V30 1500 C 142.382 -1.58775 -0.25442 0
M  V30 1501 O 143.572 -1.74166 -0.034645 0
M  V30 1502 C 140.704 -3.40871 0.0446929 0
M  V30 1503 H 141.897 -2.52306 1.62116 0
M  V30 1504 H 139.45 -1.2943 0.876218 0
M  V30 1505 H 140.185 -3.12124 -0.880281 0
M  V30 1506 H 139.97 -3.8511 0.737091 0
M  V30 1507 H 141.46 -4.17121 -0.19991 0
M  V30 1508 N 141.898 -0.863906 -1.31812 0
M  V30 1509 C 143.147 -0.46801 -1.96195 0
M  V30 1510 C 143.46 0.983474 -1.69077 0
M  V30 1511 O 144.666 1.48523 -2.27273 0
M  V30 1512 C 143.122 -0.785995 -3.51212 0
M  V30 1513 C 142.73 -2.25383 -3.87178 0
M  V30 1514 C 144.474 -0.458274 -4.22019 0
M  V30 1515 C 142.381 -2.51455 -5.3528 0
M  V30 1516 H 141.311 -0.171283 -0.734287 0
M  V30 1517 H 143.962 -1.05597 -1.50072 0
M  V30 1518 H 142.344 -0.127359 -3.95795 0
M  V30 1519 H 143.518 -2.95502 -3.53575 0
M  V30 1520 H 141.833 -2.54698 -3.2942 0
M  V30 1521 H 144.43 -0.630369 -5.30971 0
M  V30 1522 H 144.773 0.600834 -4.11941 0
M  V30 1523 H 145.306 -1.07319 -3.8305 0
M  V30 1524 H 142.045 -3.56025 -5.50387 0
M  V30 1525 H 141.565 -1.85923 -5.70257 0
M  V30 1526 H 143.244 -2.35874 -6.02472 0
M  V30 1527 N 143.376 1.44774 -0.622745 0
M  V30 1528 C 144.339 2.29069 0.0774015 0
M  V30 1529 C 145.339 1.4059 0.780461 0
M  V30 1530 O 146.529 1.62551 0.626322 0
M  V30 1531 C 143.661 3.21974 1.12006 0
M  V30 1532 H 144.854 2.92459 -0.663901 0
M  V30 1533 H 142.407 1.51548 -0.382486 0
M  V30 1534 H 143.142 2.63417 1.89162 0
M  V30 1535 H 142.927 3.87168 0.619951 0
M  V30 1536 H 144.417 3.85318 1.60995 0
M  V30 1537 N 144.854 0.36279 1.53368 0
M  V30 1538 C 146.131 -0.284021 1.93527 0
M  V30 1539 C 146.511 -1.66628 1.29608 0
M  V30 1540 O 145.859 -2.23942 0.45413 0
M  V30 1541 C 146.069 -0.337028 3.47369 0
M  V30 1542 C 147.417 -0.578708 4.20638 0
M  V30 1543 O 148.441 -0.418352 3.53735 0
M  V30 1544 O 147.3 -0.89074 5.39192 0
M  V30 1545 H 144.394 -0.169743 0.809393 0
M  V30 1546 H 146.94 0.41537 1.64538 0
M  V30 1547 H 145.712 0.632217 3.86159 0
M  V30 1548 H 145.335 -1.08243 3.82582 0
M  V30 1549 N 146.332 -1.57332 0.0918853 0
M  V30 1550 C 147.265 -2.09499 -0.904735 0
M  V30 1551 C 148.243 -1.00479 -1.27839 0
M  V30 1552 O 149.427 -1.27954 -1.38419 0
M  V30 1553 C 146.554 -2.56931 -2.2069 0
M  V30 1554 C 145.6 -3.77579 -1.98334 0
M  V30 1555 S 146.433 -5.21317 -1.22428 0
M  V30 1556 C 147.589 -5.72097 -2.53882 0
M  V30 1557 H 147.822 -2.93705 -0.460922 0
M  V30 1558 H 145.355 -1.53923 -0.121332 0
M  V30 1559 H 147.313 -2.84917 -2.95521 0
M  V30 1560 H 145.974 -1.72956 -2.62192 0
M  V30 1561 H 145.167 -4.08824 -2.94752 0
M  V30 1562 H 144.769 -3.5007 -1.31633 0
M  V30 1563 H 147.061 -5.80168 -3.49874 0
M  V30 1564 H 148.004 -6.70654 -2.27219 0
M  V30 1565 H 148.412 -5.00012 -2.62007 0
M  V30 1566 N 147.81 0.181792 -1.56548 0
M  V30 1567 C 148.74 1.22765 -1.98623 0
M  V30 1568 C 149.721 1.46747 -0.860189 0
M  V30 1569 O 150.906 1.58259 -1.12551 0
M  V30 1570 C 148.036 2.56894 -2.33715 0
M  V30 1571 C 146.99 2.475 -3.49182 0
M  V30 1572 C 146.316 3.86023 -3.69986 0
M  V30 1573 C 147.616 1.98866 -4.82959 0
M  V30 1574 H 149.31 0.877942 -2.86239 0
M  V30 1575 H 146.856 0.42088 -1.37712 0
M  V30 1576 H 148.809 3.30253 -2.61746 0
M  V30 1577 H 147.533 2.93632 -1.42997 0
M  V30 1578 H 146.192 1.76596 -3.21262 0
M  V30 1579 H 145.84 4.20136 -2.76576 0
M  V30 1580 H 145.54 3.80609 -4.47672 0
M  V30 1581 H 147.064 4.60984 -4.00407 0
M  V30 1582 H 148.478 2.61992 -5.09934 0
M  V30 1583 H 146.875 2.04424 -5.64208 0
M  V30 1584 H 147.945 0.942465 -4.75653 0
M  V30 1585 N 149.288 1.51039 0.449983 0
M  V30 1586 C 150.534 1.63322 1.20223 0
M  V30 1587 C 150.867 0.34241 1.91158 0
M  V30 1588 O 150.142 -0.657344 1.83055 0
M  V30 1589 C 150.425 2.82801 2.22925 0
M  V30 1590 C 150.278 4.21823 1.56157 0
M  V30 1591 C 151.597 2.97807 3.24035 0
M  V30 1592 H 148.716 0.594407 0.435718 0
M  V30 1593 H 151.358 1.83489 0.493136 0
M  V30 1594 H 149.508 2.65738 2.834 0
M  V30 1595 H 151.18 4.50526 0.991162 0
M  V30 1596 H 149.423 4.25105 0.864172 0
M  V30 1597 H 150.094 5.01391 2.30891 0
M  V30 1598 H 152.57 3.13497 2.73603 0
M  V30 1599 H 151.446 3.82992 3.93202 0
M  V30 1600 H 151.707 2.09328 3.89402 0
M  V30 1601 N 150.766 -0.704594 1.40972 0
M  V30 1602 C 152.014 -1.46169 1.39568 0
M  V30 1603 C 152.335 -1.95 0.00253745 0
M  V30 1604 O 151.605 -1.71095 -0.954114 0
M  V30 1605 H 150.185 -0.542326 0.513704 0
M  V30 1606 H 152.847 -0.834553 1.76128 0
M  V30 1607 H 151.943 -2.32922 2.07735 0
M  V30 1608 N 152.244 -1.26651 -0.937939 0
M  V30 1609 C 153.174 -1.10993 -2.05433 0
M  V30 1610 C 154.155 -0.0142161 -1.70094 0
M  V30 1611 O 155.34 -0.186837 -1.93299 0
M  V30 1612 C 152.47 -0.745561 -3.39203 0
M  V30 1613 C 151.424 -1.79337 -3.88616 0
M  V30 1614 C 150.75 -1.28324 -5.19073 0
M  V30 1615 C 152.05 -3.19553 -4.13138 0
M  V30 1616 H 153.744 -2.0438 -2.1879 0
M  V30 1617 H 151.29 -0.984041 -1.05131 0
M  V30 1618 H 153.243 -0.622888 -4.16771 0
M  V30 1619 H 151.967 0.22401 -3.25831 0
M  V30 1620 H 150.626 -1.90477 -3.13231 0
M  V30 1621 H 150.274 -0.303414 -5.02084 0
M  V30 1622 H 149.974 -1.98369 -5.53103 0
M  V30 1623 H 151.498 -1.1733 -5.99221 0
M  V30 1624 H 152.912 -3.11471 -4.81309 0
M  V30 1625 H 151.309 -3.87218 -4.58457 0
M  V30 1626 H 152.379 -3.65368 -3.18801 0
M  V30 1627 N 153.722 1.14298 -1.08507 0
M  V30 1628 C 154.652 2.21542 -0.737646 0
M  V30 1629 C 155.633 1.67773 0.280377 0
M  V30 1630 O 156.818 1.93616 0.150521 0
M  V30 1631 C 153.948 3.46988 -0.147259 0
M  V30 1632 C 152.902 4.13789 -1.09374 0
M  V30 1633 C 152.228 5.33449 -0.365524 0
M  V30 1634 C 153.528 4.62208 -2.4323 0
M  V30 1635 H 155.222 2.5086 -1.6343 0
M  V30 1636 H 152.768 1.20576 -0.787243 0
M  V30 1637 H 154.721 4.21262 0.107808 0
M  V30 1638 H 153.445 3.17037 0.784538 0
M  V30 1639 H 152.104 3.4147 -1.33393 0
M  V30 1640 H 151.752 4.99759 0.57011 0
M  V30 1641 H 151.452 5.79088 -0.996512 0
M  V30 1642 H 152.976 6.10485 -0.118534 0
M  V30 1643 H 154.39 5.27952 -2.23472 0
M  V30 1644 H 152.787 5.18553 -3.02031 0
M  V30 1645 H 153.857 3.77224 -3.04681 0
M  V30 1646 N 155.201 0.870884 1.31352 0
M  V30 1647 C 156.447 0.482987 1.96965 0
M  V30 1648 C 156.78 -0.962462 1.68672 0
M  V30 1649 O 156.055 -1.6779 0.98371 0
M  V30 1650 C 156.338 0.741752 3.52378 0
M  V30 1651 C 156.191 2.2368 3.9024 0
M  V30 1652 C 157.51 0.208838 4.39604 0
M  V30 1653 H 154.629 0.176955 0.715441 0
M  V30 1654 H 157.271 1.09229 1.55464 0
M  V30 1655 H 155.421 0.223149 3.87859 0
M  V30 1656 H 157.093 2.82273 3.64856 0
M  V30 1657 H 155.336 2.70901 3.38814 0
M  V30 1658 H 156.007 2.3685 4.98604 0
M  V30 1659 H 158.483 0.652529 4.10952 0
M  V30 1660 H 157.359 0.419336 5.47296 0
M  V30 1661 H 157.62 -0.889275 4.33064 0
M  V30 1662 N 156.679 -1.44442 0.630414 0
M  V30 1663 C 157.612 -2.27862 -0.124247 0
M  V30 1664 C 158.59 -1.38495 -0.851931 0
M  V30 1665 O 159.774 -1.67935 -0.856166 0
M  V30 1666 C 156.901 -3.17407 -1.18197 0
M  V30 1667 C 155.947 -4.22875 -0.554892 0
M  V30 1668 S 156.78 -5.31485 0.654489 0
M  V30 1669 C 157.936 -6.246 -0.40326 0
M  V30 1670 H 158.169 -2.91519 0.583435 0
M  V30 1671 H 155.702 -1.48618 0.418565 0
M  V30 1672 H 157.66 -3.69549 -1.78728 0
M  V30 1673 H 156.321 -2.52971 -1.86184 0
M  V30 1674 H 155.514 -4.85542 -1.35148 0
M  V30 1675 H 155.116 -3.73992 -0.0242105 0
M  V30 1676 H 157.408 -6.65375 -1.27602 0
M  V30 1677 H 158.351 -7.07851 0.187813 0
M  V30 1678 H 158.759 -5.59775 -0.728837 0
M  V30 1679 N 158.157 -0.370918 -1.53173 0
M  V30 1680 C 159.568 0.107139 -1.86392 0
M  V30 1681 C 159.919 1.47714 -1.29132 0
M  V30 1682 O 159.044 2.07464 -0.615439 0
M  V30 1683 C 159.639 0.201187 -3.38202 0
M  V30 1684 C 158.198 0.623507 -3.712 0
M  V30 1685 C 157.345 -0.225978 -2.76378 0
M  V30 1686 H 160.296 -0.58951 -1.47345 0
M  V30 1687 H 160.317 1.02377 -3.66468 0
M  V30 1688 H 159.829 -0.796058 -3.79848 0
M  V30 1689 H 157.93 1.62879 -3.35114 0
M  V30 1690 H 158.043 0.394414 -4.77474 0
M  V30 1691 H 156.407 0.305962 -2.52856 0
M  V30 1692 H 157.19 -1.22086 -3.20858 0
M  V30 1693 N 159.635 1.57281 -0.100228 0
M  V30 1694 C 160.565 2.17328 0.853857 0
M  V30 1695 C 161.546 1.10804 1.2906 0
M  V30 1696 O 162.731 1.38963 1.35657 0
M  V30 1697 C 159.861 2.75772 2.11109 0
M  V30 1698 C 158.815 3.87713 1.81279 0
M  V30 1699 C 158.141 4.32882 3.13874 0
M  V30 1700 C 159.441 5.10677 1.09574 0
M  V30 1701 H 161.135 2.97305 0.353545 0
M  V30 1702 H 158.681 1.43009 0.168612 0
M  V30 1703 H 160.634 3.16433 2.78296 0
M  V30 1704 H 159.358 1.93057 2.63432 0
M  V30 1705 H 158.017 3.476 1.16489 0
M  V30 1706 H 157.665 3.47051 3.64095 0
M  V30 1707 H 157.365 5.08358 2.94696 0
M  V30 1708 H 158.889 4.7618 3.82211 0
M  V30 1709 H 160.303 5.48474 1.66879 0
M  V30 1710 H 158.7 5.91615 1.00557 0
M  V30 1711 H 159.77 4.84835 0.0793299 0
M  V30 1712 N 161.113 -0.173488 1.56642 0
M  V30 1713 C 162.338 -0.910149 1.86363 0
M  V30 1714 C 162.763 -1.75132 0.686318 0
M  V30 1715 O 162.121 -1.77595 -0.364643 0
M  V30 1716 C 162.169 -1.76447 3.14482 0
M  V30 1717 O 161.273 -2.86584 2.96553 0
M  V30 1718 H 160.614 -0.255086 0.613047 0
M  V30 1719 H 163.144 -0.172283 2.03873 0
M  V30 1720 H 163.154 -2.16483 3.45831 0
M  V30 1721 H 161.829 -1.14658 3.99783 0
M  V30 1722 H 160.406 -2.50146 2.76553 0
M  V30 1723 N 162.591 -1.51276 -0.441967 0
M  V30 1724 C 163.521 -1.752 -1.54361 0
M  V30 1725 C 164.502 -0.601682 -1.59103 0
M  V30 1726 O 165.687 -0.843913 -1.74905 0
M  V30 1727 C 162.817 -1.87282 -2.92477 0
M  V30 1728 C 161.771 -3.02687 -3.02596 0
M  V30 1729 C 161.097 -2.99947 -4.42647 0
M  V30 1730 C 162.397 -4.4273 -2.77106 0
M  V30 1731 H 164.091 -2.67442 -1.34592 0
M  V30 1732 H 161.637 -1.28694 -0.646048 0
M  V30 1733 H 163.59 -2.02602 -3.695 0
M  V30 1734 H 162.314 -0.916844 -3.13467 0
M  V30 1735 H 160.973 -2.87065 -2.28012 0
M  V30 1736 H 160.621 -2.02136 -4.60597 0
M  V30 1737 H 160.321 -3.77439 -4.50348 0
M  V30 1738 H 161.845 -3.17354 -5.2165 0
M  V30 1739 H 163.259 -4.58727 -3.43864 0
M  V30 1740 H 161.656 -5.21893 -2.96222 0
M  V30 1741 H 162.726 -4.53087 -1.72744 0
M  V30 1742 N 164.069 0.697108 -1.41344 0
M  V30 1743 C 164.999 1.82353 -1.45841 0
M  V30 1744 C 165.98 1.67115 -0.317247 0
M  V30 1745 O 167.165 1.86871 -0.528474 0
M  V30 1746 C 164.295 3.20476 -1.33838 0
M  V30 1747 C 163.249 3.50415 -2.4575 0
M  V30 1748 C 162.575 4.87878 -2.18813 0
M  V30 1749 C 163.875 3.49546 -3.88091 0
M  V30 1750 H 165.569 1.78846 -2.40113 0
M  V30 1751 H 163.115 0.859028 -1.15571 0
M  V30 1752 H 165.068 3.98988 -1.35596 0
M  V30 1753 H 163.792 3.24604 -0.360498 0
M  V30 1754 H 162.451 2.74253 -2.43271 0
M  V30 1755 H 162.099 4.8863 -1.19371 0
M  V30 1756 H 161.799 5.08875 -2.93803 0
M  V30 1757 H 163.323 5.68702 -2.22284 0
M  V30 1758 H 164.737 4.18066 -3.92293 0
M  V30 1759 H 163.134 3.82075 -4.62751 0
M  V30 1760 H 164.204 2.48552 -4.16353 0
M  V30 1761 N 165.547 1.27147 0.931209 0
M  V30 1762 C 166.51 1.09615 2.01289 0
M  V30 1763 C 167.51 0.0412581 1.60747 0
M  V30 1764 O 168.7 0.285545 1.71844 0
M  V30 1765 C 165.832 0.669447 3.34262 0
M  V30 1766 H 167.025 2.05662 2.18273 0
M  V30 1767 H 164.578 1.09885 1.11153 0
M  V30 1768 H 165.313 -0.292572 3.22978 0
M  V30 1769 H 165.098 1.43127 3.65044 0
M  V30 1770 H 166.588 0.568921 4.13706 0
M  V30 1771 N 167.025 -1.13721 1.09112 0
M  V30 1772 C 168.274 -1.84275 0.82009 0
M  V30 1773 C 168.587 -1.84253 -0.656509 0
M  V30 1774 O 169.793 -2.50668 -1.04296 0
M  V30 1775 C 168.249 -3.30825 1.41714 0
M  V30 1776 C 167.857 -3.39244 2.92605 0
M  V30 1777 C 169.601 -4.06443 1.22492 0
M  V30 1778 C 167.508 -4.80047 3.45411 0
M  V30 1779 H 166.438 -0.690387 0.30312 0
M  V30 1780 H 169.089 -1.28146 1.31343 0
M  V30 1781 H 167.471 -3.86737 0.851498 0
M  V30 1782 H 168.645 -2.93344 3.55367 0
M  V30 1783 H 166.96 -2.77088 3.10823 0
M  V30 1784 H 169.557 -5.10387 1.59402 0
M  V30 1785 H 169.9 -4.15972 0.165299 0
M  V30 1786 H 170.433 -3.56852 1.75788 0
M  V30 1787 H 167.172 -4.75709 4.50978 0
M  V30 1788 H 166.692 -5.26455 2.87411 0
M  V30 1789 H 168.371 -5.48957 3.42425 0
M  V30 1790 N 168.503 -0.877838 -1.30888 0
M  V30 1791 C 169.433 -0.35534 -2.3078 0
M  V30 1792 C 170.414 0.557994 -1.60687 0
M  V30 1793 O 171.599 0.473355 -1.88343 0
M  V30 1794 C 168.729 0.437221 -3.44537 0
M  V30 1795 C 167.683 -0.383715 -4.26276 0
M  V30 1796 C 167.009 0.535014 -5.32017 0
M  V30 1797 C 168.309 -1.62201 -4.96476 0
M  V30 1798 H 170.003 -1.19007 -2.74732 0
M  V30 1799 H 167.549 -0.573698 -1.32078 0
M  V30 1800 H 169.502 0.813334 -4.13477 0
M  V30 1801 H 168.226 1.30553 -2.99372 0
M  V30 1802 H 166.885 -0.741874 -3.59015 0
M  V30 1803 H 166.533 1.40083 -4.831 0
M  V30 1804 H 166.233 -0.0104211 -5.87599 0
M  V30 1805 H 167.757 0.907799 -6.03814 0
M  V30 1806 H 169.171 -1.31689 -5.5797 0
M  V30 1807 H 167.568 -2.10711 -5.61891 0
M  V30 1808 H 168.638 -2.37044 -4.23011 0
M  V30 1809 N 169.982 1.44106 -0.638065 0
M  V30 1810 C 171.212 2.06037 -0.152394 0
M  V30 1811 C 171.62 1.47808 1.18108 0
M  V30 1812 O 170.963 0.598092 1.73691 0
M  V30 1813 C 171.025 3.59488 0.0293714 0
M  V30 1814 C 170.689 4.4022 -1.22702 0
M  V30 1815 C 171.686 4.73256 -2.15232 0
M  V30 1816 C 169.371 4.8048 -1.46437 0
M  V30 1817 C 171.365 5.45444 -3.29802 0
M  V30 1818 C 169.052 5.52417 -2.61303 0
M  V30 1819 C 170.05 5.84819 -3.52811 0
M  V30 1820 O 169.738 6.55289 -4.65673 0
M  V30 1821 H 169.47 0.671233 -0.0801401 0
M  V30 1822 H 172.024 1.85851 -0.874563 0
M  V30 1823 H 170.254 3.78191 0.806758 0
M  V30 1824 H 171.943 4.03164 0.470475 0
M  V30 1825 H 172.709 4.42684 -1.98131 0
M  V30 1826 H 168.588 4.54676 -0.760977 0
M  V30 1827 H 172.132 5.70653 -4.01249 0
M  V30 1828 H 168.029 5.82404 -2.78344 0
M  V30 1829 H 168.797 6.73762 -4.64744 0
M  V30 1830 N 171.46 0.379036 1.52974 0
M  V30 1831 C 172.737 -0.263479 1.93817 0
M  V30 1832 C 173.117 -1.65244 1.31368 0
M  V30 1833 O 172.465 -2.23448 0.477856 0
M  V30 1834 C 172.675 -0.300166 3.47707 0
M  V30 1835 C 174.023 -0.534061 4.21228 0
M  V30 1836 O 175.047 -0.38081 3.54159 0
M  V30 1837 O 173.906 -0.833501 5.40106 0
M  V30 1838 H 171 -0.161149 0.811147 0
M  V30 1839 H 173.546 0.432798 1.64088 0
M  V30 1840 H 172.318 0.673138 3.85467 0
M  V30 1841 H 171.941 -1.04179 3.83709 0
M  V30 1842 N 172.938 -1.57226 0.108567 0
M  V30 1843 C 174.168 -1.9889 -0.559142 0
M  V30 1844 C 174.576 -0.986889 -1.61422 0
M  V30 1845 O 173.919 0.0298705 -1.83676 0
M  V30 1846 C 173.981 -3.36952 -1.25315 0
M  V30 1847 C 173.645 -4.55679 -0.347248 0
M  V30 1848 C 174.642 -5.18281 0.409996 0
M  V30 1849 C 172.327 -5.0162 -0.261367 0
M  V30 1850 C 174.321 -6.25203 1.24096 0
M  V30 1851 C 172.008 -6.08405 0.573238 0
M  V30 1852 C 173.006 -6.70063 1.32304 0
M  V30 1853 O 172.694 -7.74788 2.14381 0
M  V30 1854 H 172.426 -0.658343 -0.153492 0
M  V30 1855 H 174.98 -2.04532 0.188584 0
M  V30 1856 H 173.21 -3.28032 -2.04773 0
M  V30 1857 H 174.899 -3.62974 -1.81673 0
M  V30 1858 H 175.665 -4.8371 0.353457 0
M  V30 1859 H 171.544 -4.53381 -0.834656 0
M  V30 1860 H 175.088 -6.73259 1.82669 0
M  V30 1861 H 170.985 -6.42406 0.631208 0
M  V30 1862 H 171.753 -7.91837 2.07209 0
M  V30 1863 N 174.416 0.165178 -1.56732 0
M  V30 1864 C 175.662 0.882112 -1.82611 0
M  V30 1865 C 175.995 1.81628 -0.687378 0
M  V30 1866 O 175.27 1.92009 0.310267 0
M  V30 1867 C 175.553 1.67245 -3.18906 0
M  V30 1868 C 175.406 0.760987 -4.43316 0
M  V30 1869 C 176.725 2.63884 -3.52212 0
M  V30 1870 H 173.844 0.319242 -0.664269 0
M  V30 1871 H 176.486 0.148052 -1.89422 0
M  V30 1872 H 174.636 2.29824 -3.1323 0
M  V30 1873 H 176.308 0.147596 -4.61064 0
M  V30 1874 H 174.551 0.0694102 -4.33744 0
M  V30 1875 H 175.222 1.34962 -5.35247 0
M  V30 1876 H 177.698 2.11429 -3.58381 0
M  V30 1877 H 176.574 3.16245 -4.48643 0
M  V30 1878 H 176.835 3.44377 -2.77231 0
M  V30 1879 N 175.894 1.51508 0.433938 0
M  V30 1880 C 177.14 1.65549 1.18173 0
M  V30 1881 C 177.495 0.368751 1.88833 0
M  V30 1882 O 176.788 -0.635616 1.8075 0
M  V30 1883 C 176.982 2.79928 2.22205 0
M  V30 1884 C 176.811 4.19601 1.61756 0
M  V30 1885 C 175.581 4.85489 1.40101 0
M  V30 1886 C 177.779 5.02574 1.09194 0
M  V30 1887 N 175.761 6.09266 0.752859 0
M  V30 1888 C 177.132 6.17381 0.569255 0
M  V30 1889 C 179.187 4.88079 0.984025 0
M  V30 1890 C 177.89 7.19282 -0.0507472 0
M  V30 1891 C 179.916 5.90191 0.377912 0
M  V30 1892 C 179.278 7.04272 -0.134216 0
M  V30 1893 H 175.377 0.659653 0.419979 0
M  V30 1894 H 177.961 1.88746 0.477818 0
M  V30 1895 H 176.132 2.5839 2.89982 0
M  V30 1896 H 177.864 2.83132 2.89168 0
M  V30 1897 H 174.619 4.43417 1.66369 0
M  V30 1898 H 175.043 6.75528 0.446123 0
M  V30 1899 H 179.685 4.00131 1.36583 0
M  V30 1900 H 177.403 8.06876 -0.444676 0
M  V30 1901 H 180.989 5.81045 0.296269 0
M  V30 1902 H 179.869 7.81933 -0.59585 0
M  V30 1903 N 177.372 -0.689602 1.41712 0
M  V30 1904 C 178.783 -1.26973 1.36875 0
M  V30 1905 C 179.134 -1.96124 0.054748 0
M  V30 1906 O 178.259 -1.99141 -0.84687 0
M  V30 1907 C 178.854 -2.30912 2.47922 0
M  V30 1908 C 177.413 -2.84486 2.46464 0
M  V30 1909 C 176.56 -1.58603 2.27465 0
M  V30 1910 H 179.511 -0.48396 1.51141 0
M  V30 1911 H 179.532 -3.12331 2.17323 0
M  V30 1912 H 179.044 -1.80554 3.43543 0
M  V30 1913 H 177.145 -3.39005 1.54617 0
M  V30 1914 H 177.258 -3.34511 3.42986 0
M  V30 1915 H 175.622 -1.84632 1.75451 0
M  V30 1916 H 176.405 -1.10233 3.25121 0
M  V30 1917 N 178.85 -1.27639 -0.924453 0
M  V30 1918 C 179.78 -1.13166 -2.04244 0
M  V30 1919 C 180.761 -0.032256 -1.70069 0
M  V30 1920 O 181.946 -0.207328 -1.9309 0
M  V30 1921 C 179.076 -0.781496 -3.38393 0
M  V30 1922 C 178.03 -1.83449 -3.86692 0
M  V30 1923 C 177.356 -1.33822 -5.17683 0
M  V30 1924 C 178.656 -3.23917 -4.09726 0
M  V30 1925 H 180.35 -2.06689 -2.1661 0
M  V30 1926 H 177.896 -0.995136 -1.04082 0
M  V30 1927 H 179.849 -0.667057 -4.16087 0
M  V30 1928 H 178.573 0.189439 -3.2605 0
M  V30 1929 H 177.232 -1.93789 -3.11193 0
M  V30 1930 H 176.88 -0.35665 -5.01734 0
M  V30 1931 H 176.58 -2.04224 -5.50968 0
M  V30 1932 H 178.104 -1.23679 -5.97943 0
M  V30 1933 H 179.518 -3.16559 -4.77978 0
M  V30 1934 H 177.915 -3.92059 -4.54324 0
M  V30 1935 H 178.985 -3.68729 -3.14908 0
M  V30 1936 N 180.328 1.1314 -1.09713 0
M  V30 1937 C 181.739 1.66029 -0.853885 0
M  V30 1938 C 182.09 1.86241 0.617142 0
M  V30 1939 O 181.215 1.5834 1.47503 0
M  V30 1940 C 181.81 3.01599 -1.5435 0
M  V30 1941 C 180.369 3.51467 -1.34714 0
M  V30 1942 C 179.516 2.26648 -1.59769 0
M  V30 1943 H 182.467 0.970226 -1.25588 0
M  V30 1944 H 182.488 3.67709 -0.978267 0
M  V30 1945 H 182 2.86856 -2.6141 0
M  V30 1946 H 180.101 3.71408 -0.297838 0
M  V30 1947 H 180.214 4.314 -2.08401 0
M  V30 1948 H 178.578 2.33385 -1.01998 0
M  V30 1949 H 179.361 2.14467 -2.68065 0
M  V30 1950 N 181.806 0.884767 1.30421 0
M  V30 1951 C 183.222 0.57874 1.48737 0
M  V30 1952 C 183.422 -0.883567 1.81095 0
M  V30 1953 O 182.478 -1.6648 1.89844 0
M  V30 1954 C 183.791 1.49171 2.61091 0
M  V30 1955 C 185.339 1.49532 2.74971 0
M  V30 1956 C 185.814 2.39421 3.90438 0
M  V30 1957 N 187.305 2.37383 3.97748 0
M  V30 1958 C 188.04 3.03647 4.86401 0
M  V30 1959 N 187.536 3.79136 5.79852 0
M  V30 1960 N 189.329 2.9288 4.79768 0
M  V30 1961 H 181.48 1.83075 1.0769 0
M  V30 1962 H 183.743 0.783637 0.533495 0
M  V30 1963 H 183.449 2.53291 2.44001 0
M  V30 1964 H 183.323 1.20113 3.57565 0
M  V30 1965 H 185.71 0.46163 2.91467 0
M  V30 1966 H 185.791 1.8262 1.79119 0
M  V30 1967 H 185.435 3.42874 3.74699 0
M  V30 1968 H 185.365 2.03649 4.85628 0
M  V30 1969 H 187.856 1.82525 3.30897 0
M  V30 1970 H 188.169 4.26789 6.4426 0
M  V30 1971 H 186.514 3.83243 5.79784 0
M  V30 1972 H 189.705 2.33433 4.05742 0
M  V30 1973 H 189.878 3.448 5.4865 0
M  V30 1974 N 183.284 -1.43765 0.645699 0
M  V30 1975 C 184.514 -2.05953 0.163318 0
M  V30 1976 C 184.922 -1.48432 -1.17322 0
M  V30 1977 O 184.265 -0.607295 -1.73371 0
M  V30 1978 C 184.327 -3.59499 -0.0103065 0
M  V30 1979 C 183.991 -4.39563 1.25035 0
M  V30 1980 C 184.988 -4.72108 2.17739 0
M  V30 1981 C 182.673 -4.79697 1.48983 0
M  V30 1982 C 184.667 -5.43688 3.3269 0
M  V30 1983 C 182.354 -5.51023 2.64229 0
M  V30 1984 C 183.352 -5.8294 3.55908 0
M  V30 1985 O 183.04 -6.5281 4.69142 0
M  V30 1986 H 182.772 -0.670798 0.0836986 0
M  V30 1987 H 185.326 -1.85384 0.884407 0
M  V30 1988 H 183.556 -3.78613 -0.78669 0
M  V30 1989 H 185.245 -4.03408 -0.449087 0
M  V30 1990 H 186.011 -4.41627 2.00476 0
M  V30 1991 H 181.89 -4.54266 0.785078 0
M  V30 1992 H 185.434 -5.68517 4.04269 0
M  V30 1993 H 181.331 -5.8092 2.81429 0
M  V30 1994 H 182.099 -6.71288 4.6831 0
M  V30 1995 N 184.763 -0.387143 -1.52771 0
M  V30 1996 C 185.693 0.440551 -2.29306 0
M  V30 1997 C 186.674 1.06535 -1.32606 0
M  V30 1998 O 187.859 1.07853 -1.61497 0
M  V30 1999 C 184.989 1.56919 -3.09829 0
M  V30 2000 C 183.943 1.07054 -4.14395 0
M  V30 2001 C 183.269 2.29109 -4.83129 0
M  V30 2002 C 184.569 0.140015 -5.22112 0
M  V30 2003 H 186.263 -0.198026 -2.98744 0
M  V30 2004 H 183.809 -0.09668 -1.43675 0
M  V30 2005 H 185.762 2.15503 -3.62128 0
M  V30 2006 H 184.486 2.23532 -2.3812 0
M  V30 2007 H 183.145 0.507247 -3.63074 0
M  V30 2008 H 182.793 2.94227 -4.0797 0
M  V30 2009 H 182.493 1.96406 -5.53804 0
M  V30 2010 H 184.017 2.88339 -5.38231 0
M  V30 2011 H 185.431 0.633978 -5.69784 0
M  V30 2012 H 183.828 -0.0971485 -6.00021 0
M  V30 2013 H 184.898 -0.811711 -4.78058 0
M  V30 2014 N 186.241 1.57166 -0.116904 0
M  V30 2015 C 187.481 1.97008 0.544715 0
M  V30 2016 C 187.845 0.998713 1.63981 0
M  V30 2017 O 189.046 1.28644 2.36018 0
M  V30 2018 C 187.317 3.41145 1.06559 0
M  V30 2019 S 188.876 4.02998 1.73603 0
M  V30 2020 H 185.694 0.688587 0.177112 0
M  V30 2021 H 188.296 1.94459 -0.201487 0
M  V30 2022 H 187 4.09592 0.257374 0
M  V30 2023 H 186.531 3.4734 1.84712 0
M  V30 2024 H 188.546 3.93585 3.02168 0
M  V30 2025 N 187.719 -0.156864 1.56817 0
M  V30 2026 C 189.13 -0.717916 1.72345 0
M  V30 2027 C 189.481 -1.82124 0.729747 0
M  V30 2028 O 188.606 -2.16141 -0.105781 0
M  V30 2029 C 189.201 -1.30904 3.12489 0
M  V30 2030 C 187.76 -1.81676 3.29653 0
M  V30 2031 C 186.907 -0.701349 2.68284 0
M  V30 2032 H 189.858 0.0686989 1.58551 0
M  V30 2033 H 189.879 -2.17882 3.11942 0
M  V30 2034 H 189.391 -0.505796 3.8479 0
M  V30 2035 H 187.492 -2.64598 2.62333 0
M  V30 2036 H 187.605 -1.95226 4.3752 0
M  V30 2037 H 185.969 -1.12548 2.28484 0
M  V30 2038 H 186.752 0.0902846 3.43181 0
M  V30 2039 N 189.197 -1.51736 -0.425897 0
M  V30 2040 C 190.443 -1.65214 -1.1761 0
M  V30 2041 C 190.776 -0.372778 -1.90589 0
M  V30 2042 O 190.051 0.628139 -1.84078 0
M  V30 2043 C 190.334 -2.86312 -2.18398 0
M  V30 2044 C 190.187 -4.24254 -1.49426 0
M  V30 2045 C 191.506 -3.02925 -3.19256 0
M  V30 2046 H 188.625 -0.601263 -0.426206 0
M  V30 2047 H 191.267 -1.8425 -0.463882 0
M  V30 2048 H 189.417 -2.70213 -2.79137 0
M  V30 2049 H 191.089 -4.52046 -0.919362 0
M  V30 2050 H 189.332 -4.26426 -0.796432 0
M  V30 2051 H 190.003 -5.05001 -2.22885 0
M  V30 2052 H 192.479 -3.1781 -2.68581 0
M  V30 2053 H 191.355 -3.89199 -3.8706 0
M  V30 2054 H 191.616 -2.15497 -3.86023 0
M  V30 2055 N 190.675 0.682077 -1.42076 0
M  V30 2056 C 191.921 1.44283 -1.43366 0
M  V30 2057 C 192.276 1.92344 -0.0465775 0
M  V30 2058 O 191.569 1.67517 0.929973 0
M  V30 2059 C 191.763 2.66036 -2.38662 0
M  V30 2060 C 191.592 2.29889 -3.86499 0
M  V30 2061 C 190.362 2.19599 -4.55087 0
M  V30 2062 C 192.56 1.91999 -4.77117 0
M  V30 2063 N 190.542 1.76478 -5.87987 0
M  V30 2064 C 191.913 1.59741 -5.99068 0
M  V30 2065 C 193.968 1.78927 -4.64639 0
M  V30 2066 C 192.671 1.15723 -7.0993 0
M  V30 2067 C 194.697 1.36314 -5.75476 0
M  V30 2068 C 194.059 1.04975 -6.96534 0
M  V30 2069 H 190.158 0.524739 -0.579805 0
M  V30 2070 H 192.742 0.787834 -1.78048 0
M  V30 2071 H 190.913 3.29237 -2.06053 0
M  V30 2072 H 192.645 3.32588 -2.30581 0
M  V30 2073 H 189.4 2.38433 -4.09202 0
M  V30 2074 H 189.824 1.57362 -6.58458 0
M  V30 2075 H 194.466 2.01805 -3.7153 0
M  V30 2076 H 192.184 0.91591 -8.02893 0
M  V30 2077 H 195.77 1.26731 -5.6783 0
M  V30 2078 H 194.65 0.725017 -7.80841 0
M  V30 2079 N 192.153 1.28127 0.917671 0
M  V30 2080 C 193.402 1.14432 1.66097 0
M  V30 2081 C 193.715 -0.307247 1.93172 0
M  V30 2082 O 194.921 -0.565259 2.65551 0
M  V30 2083 C 193.377 2.00015 2.99202 0
M  V30 2084 C 192.985 3.49889 2.79789 0
M  V30 2085 C 194.729 1.94996 3.77064 0
M  V30 2086 C 192.636 4.27636 4.08511 0
M  V30 2087 H 191.566 0.424662 0.62304 0
M  V30 2088 H 194.217 1.52628 1.01868 0
M  V30 2089 H 192.599 1.54672 3.64544 0
M  V30 2090 H 193.773 4.03162 2.23152 0
M  V30 2091 H 192.088 3.56392 2.15345 0
M  V30 2092 H 194.685 2.50354 4.72469 0
M  V30 2093 H 195.028 0.925819 4.05875 0
M  V30 2094 H 195.561 2.38287 3.18534 0
M  V30 2095 H 192.3 5.30615 3.84874 0
M  V30 2096 H 191.82 3.79137 4.64774 0
M  V30 2097 H 193.499 4.37346 4.76799 0
M  V30 2098 N 193.631 -1.12557 1.10312 0
M  V30 2099 C 194.856 -1.88405 0.867085 0
M  V30 2100 C 195.281 -1.79038 -0.576817 0
M  V30 2101 O 194.639 -1.14439 -1.40618 0
M  V30 2102 C 194.687 -3.3563 1.31851 0
M  V30 2103 O 193.791 -4.09565 0.482734 0
M  V30 2104 H 193.132 -0.585455 0.313271 0
M  V30 2105 H 195.662 -1.42352 1.4696 0
M  V30 2106 H 195.672 -3.86469 1.3079 0
M  V30 2107 H 194.347 -3.41765 2.37001 0
M  V30 2108 H 192.924 -3.68695 0.558448 0
M  V30 2109 N 195.109 -0.891671 -1.2995 0
M  V30 2110 C 196.039 -0.379797 -2.30391 0
M  V30 2111 C 197.02 0.540919 -1.6127 0
M  V30 2112 O 198.205 0.453352 -1.88834 0
M  V30 2113 C 195.335 0.400654 -3.44981 0
M  V30 2114 C 194.289 -0.428905 -4.25846 0
M  V30 2115 C 193.615 0.478557 -5.32554 0
M  V30 2116 C 194.915 -1.67458 -4.94727 0
M  V30 2117 H 196.609 -1.21914 -2.73454 0
M  V30 2118 H 194.155 -0.587675 -1.31462 0
M  V30 2119 H 196.108 0.769434 -4.14316 0
M  V30 2120 H 194.832 1.27371 -3.0074 0
M  V30 2121 H 193.491 -0.779911 -3.58208 0
M  V30 2122 H 193.139 1.34951 -4.84559 0
M  V30 2123 H 192.839 -0.0727433 -5.87555 0
M  V30 2124 H 194.363 0.843705 -6.04743 0
M  V30 2125 H 195.777 -1.376 -5.56542 0
M  V30 2126 H 194.174 -2.16659 -5.59624 0
M  V30 2127 H 195.244 -2.41518 -4.20473 0
M  V30 2128 N 196.587 1.43421 -0.653314 0
M  V30 2129 C 197.864 1.95361 -0.0966581 0
M  V30 2130 C 198.244 1.59461 1.38331 0
M  V30 2131 O 197.592 0.879777 2.10884 0
M  V30 2132 C 197.802 3.47311 -0.342988 0
M  V30 2133 C 199.15 4.23875 -0.24798 0
M  V30 2134 O 200.174 3.55133 -0.275553 0
M  V30 2135 O 199.033 5.4623 -0.171771 0
M  V30 2136 H 196.127 0.826945 0.00956291 0
M  V30 2137 H 198.673 1.5336 -0.726558 0
M  V30 2138 H 197.445 3.66569 -1.36906 0
M  V30 2139 H 197.068 3.9631 0.319975 0
M  V30 2140 N 198.065 0.39524 1.52563 0
M  V30 2141 C 199.311 -0.185318 2.01952 0
M  V30 2142 C 199.644 -1.45964 1.28095 0
M  V30 2143 O 198.919 -1.90689 0.38315 0
M  V30 2144 C 199.202 -0.447193 3.57312 0
M  V30 2145 C 199.055 0.842828 4.41833 0
M  V30 2146 C 200.374 -1.23529 4.22408 0
M  V30 2147 H 197.493 -0.0658788 0.73405 0
M  V30 2148 H 200.135 0.525975 1.82575 0
M  V30 2149 H 198.285 -1.05312 3.73954 0
M  V30 2150 H 199.957 1.4795 4.36931 0
M  V30 2151 H 198.2 1.45686 4.08605 0
M  V30 2152 H 198.871 0.614165 5.48573 0
M  V30 2153 H 201.347 -0.722445 4.0978 0
M  V30 2154 H 200.223 -1.38727 5.3108 0
M  V30 2155 H 200.484 -2.25213 3.80436 0
M  V30 2156 N 199.544 -1.57102 0.125237 0
M  V30 2157 C 200.474 -2.18659 -0.819174 0
M  V30 2158 C 201.455 -1.12843 -1.27281 0
M  V30 2159 O 202.64 -1.41104 -1.33429 0
M  V30 2160 C 199.77 -2.79096 -2.06695 0
M  V30 2161 C 198.724 -3.90548 -1.75088 0
M  V30 2162 C 198.05 -4.37821 -3.06948 0
M  V30 2163 C 199.35 -5.12356 -1.01435 0
M  V30 2164 H 201.044 -2.9783 -0.306202 0
M  V30 2165 H 198.59 -1.4326 -0.145839 0
M  V30 2166 H 200.543 -3.2082 -2.73226 0
M  V30 2167 H 199.267 -1.97223 -2.60328 0
M  V30 2168 H 197.926 -3.49409 -1.10944 0
M  V30 2169 H 197.574 -3.52799 -3.58527 0
M  V30 2170 H 197.274 -5.12982 -2.86571 0
M  V30 2171 H 198.798 -4.822 -3.74587 0
M  V30 2172 H 200.212 -5.5106 -1.58132 0
M  V30 2173 H 198.609 -5.9314 -0.911319 0
M  V30 2174 H 199.679 -4.849 -0.00218681 0
M  V30 2175 N 201.022 0.148545 -1.56898 0
M  V30 2176 C 202.269 0.861418 -1.83264 0
M  V30 2177 C 202.597 1.81239 -0.705883 0
M  V30 2178 O 201.852 1.93305 0.305212 0
M  V30 2179 C 202.151 1.67064 -3.1595 0
M  V30 2180 C 201.817 0.866591 -4.42494 0
M  V30 2181 C 200.479 0.644762 -4.76861 0
M  V30 2182 C 202.831 0.30418 -5.20312 0
M  V30 2183 C 200.159 -0.15021 -5.86508 0
M  V30 2184 C 202.511 -0.477824 -6.30793 0
M  V30 2185 C 201.175 -0.710244 -6.63711 0
M  V30 2186 H 200.445 0.315215 -0.670612 0
M  V30 2187 H 203.092 0.125142 -1.91091 0
M  V30 2188 H 201.397 2.47698 -3.03567 0
M  V30 2189 H 203.094 2.22566 -3.33565 0
M  V30 2190 H 199.684 1.04955 -4.15551 0
M  V30 2191 H 203.868 0.462844 -4.94137 0
M  V30 2192 H 199.124 -0.339796 -6.10455 0
M  V30 2193 H 203.298 -0.92076 -6.90286 0
M  V30 2194 H 200.925 -1.3281 -7.48509 0
M  V30 2195 N 202.5 1.5196 0.417844 0
M  V30 2196 C 203.725 1.69717 1.1921 0
M  V30 2197 C 204.15 0.402148 1.83751 0
M  V30 2198 O 203.508 -0.639593 1.69643 0
M  V30 2199 C 203.556 2.82794 2.2374 0
M  V30 2200 O 202.66 2.47756 3.29683 0
M  V30 2201 H 202.001 0.565263 0.348387 0
M  V30 2202 H 204.531 1.98621 0.490985 0
M  V30 2203 H 204.541 3.07452 2.68212 0
M  V30 2204 H 203.216 3.76756 1.76146 0
M  V30 2205 H 201.793 2.33739 2.90552 0
M  V30 2206 N 203.978 -0.674533 1.42435 0
M  V30 2207 C 205.206 -1.46283 1.46317 0
M  V30 2208 C 205.621 -1.88653 0.0745836 0
M  V30 2209 O 204.978 -1.58151 -0.91074 0
M  V30 2210 C 205.029 -2.71178 2.3905 0
M  V30 2211 O 204.75 -2.30586 3.72507 0
M  V30 2212 C 206.251 -3.64738 2.51955 0
M  V30 2213 H 203.471 -0.450104 0.497642 0
M  V30 2214 H 206.015 -0.828792 1.86953 0
M  V30 2215 H 204.17 -3.3077 2.01667 0
M  V30 2216 H 204.584 -3.11241 4.22172 0
M  V30 2217 H 206.058 -4.49096 3.20962 0
M  V30 2218 H 206.535 -4.10656 1.55752 0
M  V30 2219 H 207.141 -3.11038 2.90061 0
M  V30 2220 N 205.456 -1.28612 -0.910864 0
M  V30 2221 C 206.419 -1.12803 -1.9952 0
M  V30 2222 C 207.419 -0.0668264 -1.60661 0
M  V30 2223 O 208.609 -0.312847 -1.71368 0
M  V30 2224 C 205.741 -0.72254 -3.33155 0
M  V30 2225 H 206.934 -2.09109 -2.14973 0
M  V30 2226 H 204.487 -1.11639 -1.09391 0
M  V30 2227 H 205.222 0.241152 -3.23402 0
M  V30 2228 H 205.007 -1.48916 -3.62721 0
M  V30 2229 H 206.497 -0.634666 -4.12749 0
M  V30 2230 N 206.934 1.1197 -1.10907 0
M  V30 2231 C 208.159 1.87942 -0.877064 0
M  V30 2232 C 208.584 1.79341 0.567314 0
M  V30 2233 O 207.942 1.15184 1.40009 0
M  V30 2234 C 207.99 3.34926 -1.33629 0
M  V30 2235 O 207.094 4.09303 -0.504447 0
M  V30 2236 H 206.435 0.583785 -0.316371 0
M  V30 2237 H 208.965 1.4157 -1.47712 0
M  V30 2238 H 208.975 3.8577 -1.32837 0
M  V30 2239 H 207.65 3.40504 -2.3881 0
M  V30 2240 H 206.227 3.68393 -0.577993 0
M  V30 2241 N 208.412 0.89855 1.29475 0
M  V30 2242 C 209.661 0.519863 1.94885 0
M  V30 2243 C 209.974 -0.9383 1.71625 0
M  V30 2244 O 211.18 -1.42445 2.31131 0
M  V30 2245 C 209.636 0.878836 3.49005 0
M  V30 2246 C 209.244 2.35569 3.81066 0
M  V30 2247 C 210.988 0.570004 4.20656 0
M  V30 2248 C 208.895 2.65558 5.28425 0
M  V30 2249 H 207.825 0.190692 0.729488 0
M  V30 2250 H 210.476 1.09539 1.47219 0
M  V30 2251 H 208.858 0.232253 3.95318 0
M  V30 2252 H 210.032 3.04773 3.45616 0
M  V30 2253 H 208.347 2.63343 3.22552 0
M  V30 2254 H 210.944 0.770925 5.29113 0
M  V30 2255 H 211.287 -0.491404 4.1339 0
M  V30 2256 H 211.82 1.17438 3.8007 0
M  V30 2257 H 208.559 3.70493 5.40754 0
M  V30 2258 H 208.079 2.00977 5.65127 0
M  V30 2259 H 209.758 2.51765 5.96006 0
M  V30 2260 N 209.89 -1.43072 0.660911 0
M  V30 2261 C 210.823 -2.28074 -0.0758862 0
M  V30 2262 C 211.801 -1.40271 -0.822362 0
M  V30 2263 O 212.985 -1.69713 -0.820352 0
M  V30 2264 C 210.112 -3.19843 -1.11437 0
M  V30 2265 C 209.158 -4.23957 -0.465069 0
M  V30 2266 S 209.991 -5.29978 0.767078 0
M  V30 2267 C 211.147 -6.25314 -0.270682 0
M  V30 2268 H 211.38 -2.90216 0.645139 0
M  V30 2269 H 208.913 -1.47697 0.449995 0
M  V30 2270 H 210.871 -3.73257 -1.70849 0
M  V30 2271 H 209.532 -2.56863 -1.80776 0
M  V30 2272 H 208.725 -4.88299 -1.24819 0
M  V30 2273 H 208.327 -3.73959 0.0551242 0
M  V30 2274 H 210.619 -6.67932 -1.13459 0
M  V30 2275 H 211.562 -7.07293 0.337916 0
M  V30 2276 H 211.97 -5.61195 -0.609937 0
M  V30 2277 N 211.368 -0.403325 -1.52352 0
M  V30 2278 C 212.318 0.442244 -2.2367 0
M  V30 2279 C 213.302 1.01823 -1.24583 0
M  V30 2280 O 214.494 0.942005 -1.49851 0
M  V30 2281 C 211.623 1.5615 -3.05732 0
M  V30 2282 C 210.709 0.996575 -4.12225 0
M  V30 2283 N 211.1 0.157804 -5.05554 0
M  V30 2284 C 209.398 1.26767 -4.27605 0
M  V30 2285 C 210.099 -0.155853 -5.81491 0
M  V30 2286 N 209.075 0.451775 -5.41719 0
M  V30 2287 H 212.877 -0.204964 -2.93184 0
M  V30 2288 H 210.391 -0.213418 -1.60992 0
M  V30 2289 H 212.388 2.17981 -3.55373 0
M  V30 2290 H 211.048 2.21139 -2.37755 0
M  V30 2291 H 212.059 -0.206049 -5.1749 0
M  V30 2292 H 208.736 1.91757 -3.70858 0
M  V30 2293 H 210.126 -0.836329 -6.66675 0
M  V30 2294 N 212.846 1.57033 -0.133567 0
M  V30 2295 C 213.776 2.1909 0.807567 0
M  V30 2296 C 214.757 1.13517 1.26681 0
M  V30 2297 O 215.942 1.41809 1.32679 0
M  V30 2298 C 213.072 2.80188 2.05212 0
M  V30 2299 C 212.026 3.91471 1.73015 0
M  V30 2300 C 211.352 4.39443 3.04622 0
M  V30 2301 C 212.652 5.12886 0.987168 0
M  V30 2302 H 214.346 2.97988 0.290403 0
M  V30 2303 H 211.892 1.43335 0.138239 0
M  V30 2304 H 213.845 3.22264 2.71521 0
M  V30 2305 H 212.569 1.98601 2.59278 0
M  V30 2306 H 211.228 3.49993 1.0909 0
M  V30 2307 H 210.876 3.54695 3.56651 0
M  V30 2308 H 210.576 5.14495 2.83847 0
M  V30 2309 H 212.1 4.8418 3.72024 0
M  V30 2310 H 213.514 5.51891 1.55208 0
M  V30 2311 H 211.911 5.93615 0.87985 0
M  V30 2312 H 212.981 4.84894 -0.0235286 0
M  V30 2313 N 214.325 -0.140222 1.56975 0
M  V30 2314 C 215.565 -0.857823 1.85528 0
M  V30 2315 C 215.929 -1.78039 0.718768 0
M  V30 2316 O 217.13 -2.53795 0.885521 0
M  V30 2317 C 215.401 -1.60615 3.19277 0
M  V30 2318 S 216.96 -2.36824 3.69405 0
M  V30 2319 H 213.778 -0.286727 0.650622 0
M  V30 2320 H 216.38 -0.117408 1.95147 0
M  V30 2321 H 215.084 -0.919994 3.99955 0
M  V30 2322 H 214.615 -2.38735 3.12681 0
M  V30 2323 H 216.63 -3.62148 3.3921 0
M  V30 2324 N 215.803 -1.52179 -0.40978 0
M  V30 2325 C 216.766 -1.74853 -1.48186 0
M  V30 2326 C 217.766 -0.618417 -1.48433 0
M  V30 2327 O 218.956 -0.886286 -1.49969 0
M  V30 2328 C 216.088 -1.8303 -2.87598 0
M  V30 2329 H 217.281 -2.70559 -1.29374 0
M  V30 2330 H 214.834 -1.42586 -0.640233 0
M  V30 2331 H 215.569 -0.89236 -3.11781 0
M  V30 2332 H 215.354 -2.65187 -2.88822 0
M  V30 2333 H 216.844 -2.02316 -3.65319 0
M  V30 2334 N 217.281 0.66697 -1.42791 0
M  V30 2335 C 218.53 1.42278 -1.42968 0
M  V30 2336 C 218.843 1.9553 -0.0524489 0
M  V30 2337 O 220.049 2.71414 0.068363 0
M  V30 2338 C 218.505 2.57418 -2.51524 0
M  V30 2339 C 218.113 2.10832 -3.9529 0
M  V30 2340 C 219.857 3.34878 -2.60877 0
M  V30 2341 C 217.764 3.23101 -4.95338 0
M  V30 2342 H 216.694 0.534533 -0.531781 0
M  V30 2343 H 219.345 0.721302 -1.68729 0
M  V30 2344 H 217.727 3.29971 -2.18941 0
M  V30 2345 H 218.901 1.4538 -4.37266 0
M  V30 2346 H 217.216 1.46289 -3.89857 0
M  V30 2347 H 219.813 4.18505 -3.32802 0
M  V30 2348 H 220.156 3.81993 -1.6549 0
M  V30 2349 H 220.689 2.69398 -2.92693 0
M  V30 2350 H 217.428 2.80969 -5.9223 0
M  V30 2351 H 216.948 3.87309 -4.57987 0
M  V30 2352 H 218.627 3.88447 -5.17415 0
M  V30 2353 N 218.759 1.29093 0.90403 0
M  V30 2354 C 219.984 1.19809 1.69294 0
M  V30 2355 C 220.409 -0.238481 1.86582 0
M  V30 2356 O 219.767 -1.1723 1.383 0
M  V30 2357 C 219.815 1.91202 3.05736 0
M  V30 2358 O 218.919 1.22611 3.93752 0
M  V30 2359 H 218.26 0.415385 0.518027 0
M  V30 2360 H 220.79 1.70586 1.12967 0
M  V30 2361 H 220.8 1.99487 3.55906 0
M  V30 2362 H 219.475 2.95692 2.92471 0
M  V30 2363 H 218.052 1.22554 3.52186 0
M  V30 2364 N 220.237 -1.11381 1.11499 0
M  V30 2365 C 221.167 -2.19509 0.796125 0
M  V30 2366 C 222.148 -1.68458 -0.235796 0
M  V30 2367 O 223.333 -1.93947 -0.0991344 0
M  V30 2368 C 220.463 -3.46475 0.239205 0
M  V30 2369 C 219.417 -4.10744 1.20307 0
M  V30 2370 C 218.743 -5.32293 0.50683 0
M  V30 2371 C 220.043 -4.55597 2.55399 0
M  V30 2372 H 221.737 -2.46439 1.70024 0
M  V30 2373 H 219.283 -1.18446 0.818935 0
M  V30 2374 H 221.236 -4.214 0.00392006 0
M  V30 2375 H 219.96 -3.19006 -0.700206 0
M  V30 2376 H 218.619 -3.37813 1.42399 0
M  V30 2377 H 218.267 -5.01095 -0.437408 0
M  V30 2378 H 217.967 -5.76243 1.1497 0
M  V30 2379 H 219.491 -6.09956 0.280351 0
M  V30 2380 H 220.905 -5.21841 2.37391 0
M  V30 2381 H 219.302 -5.10363 3.15673 0
M  V30 2382 H 220.372 -3.69013 3.14575 0
M  V30 2383 N 221.715 -0.905404 -1.28997 0
M  V30 2384 C 222.992 -0.453513 -1.9027 0
M  V30 2385 C 223.372 1.06721 -1.82137 0
M  V30 2386 O 222.72 1.91159 -1.25182 0
M  V30 2387 C 222.93 -0.974494 -3.35119 0
M  V30 2388 C 224.278 -1.0216 -4.12127 0
M  V30 2389 O 225.302 -0.922557 -3.44046 0
M  V30 2390 O 224.161 -1.17121 -5.33802 0
M  V30 2391 H 221.255 -0.142347 -0.814657 0
M  V30 2392 H 223.801 -0.995642 -1.37423 0
M  V30 2393 H 222.573 -2.01848 -3.35221 0
M  V30 2394 H 222.196 -0.412706 -3.95452 0
M  V30 2395 N 223.193 1.4272 -0.668489 0
M  V30 2396 C 224.609 1.55992 -0.33745 0
M  V30 2397 C 224.809 1.64933 1.15756 0
M  V30 2398 O 223.865 1.61278 1.94282 0
M  V30 2399 C 225.178 2.81314 -1.06222 0
M  V30 2400 C 226.726 2.95078 -1.04394 0
M  V30 2401 C 227.201 4.23252 -1.74991 0
M  V30 2402 N 228.692 4.3015 -1.71829 0
M  V30 2403 C 229.427 5.28127 -2.23315 0
M  V30 2404 N 228.923 6.32293 -2.83156 0
M  V30 2405 N 230.716 5.19882 -2.13726 0
M  V30 2406 H 222.867 1.3516 -1.63846 0
M  V30 2407 H 225.13 0.650174 -0.689912 0
M  V30 2408 H 224.836 2.80823 -2.11734 0
M  V30 2409 H 224.71 3.72012 -0.62344 0
M  V30 2410 H 227.097 2.951 0.0028244 0
M  V30 2411 H 227.178 2.05627 -1.52155 0
M  V30 2412 H 226.822 4.2399 -2.79633 0
M  V30 2413 H 226.752 5.11626 -1.24685 0
M  V30 2414 H 229.243 3.55499 -1.28175 0
M  V30 2415 H 229.556 7.03398 -3.20079 0
M  V30 2416 H 227.901 6.32873 -2.87223 0
M  V30 2417 H 231.092 4.37423 -1.66669 0
M  V30 2418 H 231.265 5.96077 -2.54158 0
M  V30 2419 N 224.671 0.411399 1.52136 0
M  V30 2420 C 225.901 -0.16284 2.05957 0
M  V30 2421 C 226.309 -1.3922 1.28119 0
M  V30 2422 O 225.652 -1.80768 0.326881 0
M  V30 2423 C 225.714 -0.575946 3.54856 0
M  V30 2424 C 225.378 0.542998 4.53763 0
M  V30 2425 C 226.375 1.40726 5.00492 0
M  V30 2426 C 224.06 0.716337 4.97166 0
M  V30 2427 C 226.054 2.4298 5.8927 0
M  V30 2428 C 223.741 1.74218 5.8574 0
M  V30 2429 C 224.739 2.59731 6.31687 0
M  V30 2430 O 224.427 3.60558 7.18507 0
M  V30 2431 H 224.159 -0.0229125 0.675612 0
M  V30 2432 H 226.713 0.581634 1.96993 0
M  V30 2433 H 224.943 -1.37274 3.61515 0
M  V30 2434 H 226.632 -1.07836 3.91313 0
M  V30 2435 H 227.398 1.28476 4.67674 0
M  V30 2436 H 223.277 0.0603857 4.6096 0
M  V30 2437 H 226.821 3.0976 6.25055 0
M  V30 2438 H 222.718 1.86498 6.17971 0
M  V30 2439 H 223.486 3.56829 7.36624 0
M  V30 2440 N 226.149 -1.5696 0.141893 0
M  V30 2441 C 227.395 -1.9625 -0.511248 0
M  V30 2442 C 227.728 -1.02654 -1.64851 0
M  V30 2443 O 227.003 -0.0679676 -1.94381 0
M  V30 2444 C 227.286 -3.45285 -1.02227 0
M  V30 2445 C 227.139 -4.49658 0.113138 0
M  V30 2446 C 228.458 -3.96698 -1.90574 0
M  V30 2447 H 225.577 -0.713567 -0.184367 0
M  V30 2448 H 228.219 -1.88698 0.222087 0
M  V30 2449 H 226.369 -3.51852 -1.64719 0
M  V30 2450 H 228.041 -4.55174 0.749302 0
M  V30 2451 H 226.284 -4.26857 0.773026 0
M  V30 2452 H 226.955 -5.51258 -0.286053 0
M  V30 2453 H 229.431 -3.92578 -1.37918 0
M  V30 2454 H 228.307 -5.01453 -2.2324 0
M  V30 2455 H 228.568 -3.3875 -2.84079 0
M  V30 2456 N 227.627 0.131896 -1.57047 0
M  V30 2457 C 228.59 1.14638 -1.98471 0
M  V30 2458 C 229.59 1.35029 -0.873148 0
M  V30 2459 O 230.78 1.31764 -1.13946 0
M  V30 2460 C 227.912 2.50358 -2.31373 0
M  V30 2461 H 229.105 0.79064 -2.8929 0
M  V30 2462 H 226.658 0.375761 -1.51716 0
M  V30 2463 H 227.393 2.90876 -1.43393 0
M  V30 2464 H 227.178 2.36915 -3.12432 0
M  V30 2465 H 228.668 3.23395 -2.64207 0
M  V30 2466 N 229.106 1.52395 0.401703 0
M  V30 2467 C 230.355 1.66044 1.14509 0
M  V30 2468 C 230.668 0.400216 1.91462 0
M  V30 2469 O 231.874 0.416632 2.68284 0
M  V30 2470 C 230.33 2.93388 2.0845 0
M  V30 2471 C 229.938 4.26545 1.36978 0
M  V30 2472 C 231.682 3.16402 2.83001 0
M  V30 2473 C 229.589 5.45007 2.29611 0
M  V30 2474 H 228.519 0.618562 0.431158 0
M  V30 2475 H 231.17 1.78886 0.40892 0
M  V30 2476 H 229.552 2.74263 2.8565 0
M  V30 2477 H 230.726 4.56179 0.650916 0
M  V30 2478 H 229.041 4.09692 0.74438 0
M  V30 2479 H 231.638 4.02085 3.52465 0
M  V30 2480 H 231.981 2.30943 3.46368 0
M  V30 2481 H 232.514 3.36034 2.12898 0
M  V30 2482 H 229.253 6.32835 1.70879 0
M  V30 2483 H 228.773 5.19702 2.9945 0
M  V30 2484 H 230.452 5.7838 2.89974 0
M  V30 2485 N 230.584 -0.659388 1.43143 0
M  V30 2486 C 232 -0.974337 1.26407 0
M  V30 2487 C 232.2 -2.007 0.179341 0
M  V30 2488 O 231.256 -2.4856 -0.444295 0
M  V30 2489 C 232.569 -1.46447 2.62628 0
M  V30 2490 C 234.117 -1.58144 2.7011 0
M  V30 2491 C 234.592 -2.1055 4.06734 0
M  V30 2492 N 236.083 -2.17861 4.08767 0
M  V30 2493 C 236.818 -2.59519 5.1131 0
M  V30 2494 N 236.314 -3.00518 6.24228 0
M  V30 2495 N 238.107 -2.59404 4.98664 0
M  V30 2496 H 230.258 0.0240528 2.12386 0
M  V30 2497 H 232.521 -0.0518065 0.946583 0
M  V30 2498 H 232.227 -0.780123 3.42939 0
M  V30 2499 H 232.101 -2.44058 2.87603 0
M  V30 2500 H 234.488 -2.25682 1.90136 0
M  V30 2501 H 234.569 -0.589828 2.48907 0
M  V30 2502 H 234.213 -1.43616 4.87172 0
M  V30 2503 H 234.143 -3.10531 4.25298 0
M  V30 2504 H 236.634 -1.88975 3.27257 0
M  V30 2505 H 236.947 -3.31036 6.98309 0
M  V30 2506 H 235.292 -2.98337 6.2771 0
M  V30 2507 H 238.483 -2.26747 4.09516 0
M  V30 2508 H 238.656 -2.91548 5.78709 0
M  V30 2509 N 232.062 -1.29571 -0.897171 0
M  V30 2510 C 233.01 -1.14802 -2.02295 0
M  V30 2511 C 234.004 -0.0629637 -1.69283 0
M  V30 2512 O 235.21 -0.222945 -1.78614 0
M  V30 2513 H 231.585 -0.354692 -0.663097 0
M  V30 2514 H 233.556 -2.10108 -2.11889 0
M  V30 2515 C 232.305 -0.843966 -3.37302 0
M  V30 2516 H 231.628 -1.67093 -3.63208 0
M  V30 2517 H 233.068 -0.780672 -4.16751 0
M  V30 2518 C 231.527 0.452843 -3.33843 0
M  V30 2519 O 232.057 1.47813 -3.73516 0
M  V30 2520 N 230.263 0.459601 -2.86943 0
M  V30 2521 H 229.81 -0.375213 -2.54853 0
M  V30 2522 H 229.768 1.32726 -2.85011 0
M  V30 2523 N 233.54 1.10788 -1.12088 0
M  V30 2524 C 234.951 1.64181 -0.88891 0
M  V30 2525 C 235.302 1.87508 0.577498 0
M  V30 2526 O 234.427 1.61434 1.44112 0
M  V30 2527 C 235.022 2.98257 -1.60712 0
M  V30 2528 C 233.581 3.4853 -1.42139 0
M  V30 2529 C 232.728 2.23208 -1.6454 0
M  V30 2530 H 235.679 0.943368 -1.27618 0
M  V30 2531 H 235.7 3.65552 -1.05604 0
M  V30 2532 H 235.212 2.81246 -2.67436 0
M  V30 2533 H 233.313 3.70692 -0.376552 0
M  V30 2534 H 233.426 4.26882 -2.17505 0
M  V30 2535 H 231.79 2.31169 -1.06925 0
M  V30 2536 H 232.573 2.08733 -2.72554 0
M  V30 2537 N 235.018 0.912232 1.28515 0
M  V30 2538 C 236.267 0.540504 1.94323 0
M  V30 2539 C 236.58 -0.920044 1.72611 0
M  V30 2540 O 237.786 -1.39986 2.32629 0
M  V30 2541 C 236.242 0.915803 3.48053 0
M  V30 2542 C 235.85 2.39598 3.78546 0
M  V30 2543 C 237.594 0.614588 4.20027 0
M  V30 2544 C 235.501 2.71148 5.25578 0
M  V30 2545 H 234.431 0.198418 0.727424 0
M  V30 2546 H 237.082 1.11094 1.46049 0
M  V30 2547 H 235.464 0.274168 3.9505 0
M  V30 2548 H 236.638 3.08422 3.42364 0
M  V30 2549 H 234.953 2.66749 3.1974 0
M  V30 2550 H 237.55 0.827002 5.28266 0
M  V30 2551 H 237.893 -0.447531 4.13887 0
M  V30 2552 H 238.426 1.21462 3.78803 0
M  V30 2553 H 235.165 3.76207 5.36794 0
M  V30 2554 H 234.685 2.0696 5.62963 0
M  V30 2555 H 236.364 2.58072 5.93302 0
M  V30 2556 N 236.496 -1.42363 0.676048 0
M  V30 2557 C 237.406 -2.346 -0.00153389 0
M  V30 2558 C 238.422 -1.5516 -0.787485 0
M  V30 2559 O 239.598 -1.87723 -0.729521 0
M  V30 2560 C 236.663 -3.33705 -0.940298 0
M  V30 2561 C 235.724 -4.29042 -0.148739 0
M  V30 2562 C 234.957 -5.23413 -1.04279 0
M  V30 2563 O 235.18 -5.22749 -2.28232 0
M  V30 2564 O 234.114 -5.99795 -0.502925 0
M  V30 2565 H 237.94 -2.94082 0.758268 0
M  V30 2566 H 235.525 -1.42888 0.436289 0
M  V30 2567 H 237.407 -3.94586 -1.47917 0
M  V30 2568 H 236.082 -2.76695 -1.67993 0
M  V30 2569 H 234.989 -3.71571 0.43427 0
M  V30 2570 H 236.322 -4.89097 0.551805 0
M  V30 2571 N 237.974 -0.419461 -1.51915 0
M  V30 2572 C 238.924 0.418496 -2.24126 0
M  V30 2573 C 239.908 1.00495 -1.25656 0
M  V30 2574 O 241.1 0.926058 -1.50842 0
M  V30 2575 C 238.229 1.52899 -3.07371 0
M  V30 2576 C 237.315 0.952797 -4.13258 0
M  V30 2577 N 237.706 0.104175 -5.05693 0
M  V30 2578 C 236.004 1.22224 -4.28926 0
M  V30 2579 C 236.705 -0.21752 -5.81293 0
M  V30 2580 N 235.681 0.394293 -5.42168 0
M  V30 2581 H 239.483 -0.236048 -2.92951 0
M  V30 2582 H 236.997 -0.230481 -1.60756 0
M  V30 2583 H 238.994 2.14199 -3.57665 0
M  V30 2584 H 237.654 2.18605 -2.40088 0
M  V30 2585 H 238.665 -0.260924 -5.17242 0
M  V30 2586 H 235.342 1.87812 -3.72871 0
M  V30 2587 H 236.732 -0.906992 -6.6575 0
M  V30 2588 N 239.452 1.56882 -0.150215 0
M  V30 2589 C 240.677 2.01027 0.510184 0
M  V30 2590 C 241.102 1.02966 1.57415 0
M  V30 2591 O 240.46 0.00590158 1.81299 0
M  V30 2592 C 240.508 3.43899 1.08472 0
M  V30 2593 O 239.612 3.4885 2.19948 0
M  V30 2594 H 238.953 0.652233 0.124451 0
M  V30 2595 H 241.483 2.03093 -0.247894 0
M  V30 2596 H 241.493 3.82766 1.41259 0
M  V30 2597 H 240.168 4.14776 0.305582 0
M  V30 2598 H 238.745 3.21827 1.88366 0
M  V30 2599 N 240.93 -0.123565 1.57115 0
M  V30 2600 C 242.346 -0.476961 1.52306 0
M  V30 2601 C 242.546 -1.82109 0.86248 0
M  V30 2602 O 241.602 -2.48586 0.442884 0
M  V30 2603 C 242.915 -0.465661 2.97073 0
M  V30 2604 C 244.463 -0.549534 3.08138 0
M  V30 2605 C 244.938 -0.568669 4.54456 0
M  V30 2606 N 246.429 -0.630237 4.58892 0
M  V30 2607 C 247.164 -0.666415 5.69514 0
M  V30 2608 N 246.66 -0.660514 6.89644 0
M  V30 2609 N 248.453 -0.709077 5.5761 0
M  V30 2610 H 240.604 0.757198 1.98445 0
M  V30 2611 H 242.867 0.278808 0.906074 0
M  V30 2612 H 242.573 0.454232 3.48754 0
M  V30 2613 H 242.447 -1.29513 3.54269 0
M  V30 2614 H 244.834 -1.45985 2.56461 0
M  V30 2615 H 244.915 0.307532 2.53945 0
M  V30 2616 H 244.559 0.337581 5.06777 0
M  V30 2617 H 244.489 -1.44256 5.06456 0
M  V30 2618 H 246.98 -0.641146 3.72421 0
M  V30 2619 H 247.293 -0.690616 7.69708 0
M  V30 2620 H 245.638 -0.628012 6.92157 0
M  V30 2621 H 248.829 -0.711019 4.62668 0
M  V30 2622 H 249.002 -0.733804 6.43832 0
M  V30 2623 N 242.408 -1.52605 -0.393616 0
M  V30 2624 C 243.655 -1.67424 -1.1391 0
M  V30 2625 C 243.983 -0.411859 -1.90089 0
M  V30 2626 O 243.238 0.605626 -1.86093 0
M  V30 2627 C 243.537 -2.85721 -2.14705 0
M  V30 2628 C 243.203 -4.23342 -1.55218 0
M  V30 2629 C 241.865 -4.60771 -1.3872 0
M  V30 2630 C 244.217 -5.09041 -1.11924 0
M  V30 2631 C 241.545 -5.81563 -0.774689 0
M  V30 2632 C 243.897 -6.30452 -0.520853 0
M  V30 2633 C 242.561 -6.66617 -0.343134 0
M  V30 2634 H 241.831 -0.612648 -0.416826 0
M  V30 2635 H 244.478 -1.8674 -0.424315 0
M  V30 2636 H 242.783 -2.60803 -2.92385 0
M  V30 2637 H 244.48 -2.94382 -2.72288 0
M  V30 2638 H 241.07 -3.93855 -1.69045 0
M  V30 2639 H 245.254 -4.80695 -1.23473 0
M  V30 2640 H 240.51 -6.08196 -0.625154 0
M  V30 2641 H 244.684 -6.96175 -0.177065 0
M  V30 2642 H 242.311 -7.60083 0.133571 0
M  V30 2643 N 243.887 0.651787 -1.4349 0
M  V30 2644 C 244.835 1.78586 -1.49029 0
M  V30 2645 C 245.829 1.65448 -0.363767 0
M  V30 2646 O 247.035 1.71777 -0.537821 0
M  V30 2647 H 243.41 0.589236 -0.467231 0
M  V30 2648 H 245.381 1.71035 -2.44519 0
M  V30 2649 C 244.13 3.16851 -1.43181 0
M  V30 2650 H 243.453 3.27598 -2.29171 0
M  V30 2651 H 244.893 3.96156 -1.51118 0
M  V30 2652 C 243.352 3.36568 -0.149616 0
M  V30 2653 O 243.882 3.93885 0.788509 0
M  V30 2654 N 242.088 2.90539 -0.0593484 0
M  V30 2655 H 241.635 2.4408 -0.823575 0
M  V30 2656 H 241.593 3.04108 0.797853 0
M  V30 2657 N 245.365 1.30045 0.890287 0
M  V30 2658 C 246.59 1.21598 1.68014 0
M  V30 2659 C 247.015 -0.218678 1.86825 0
M  V30 2660 O 246.373 -1.15756 1.39536 0
M  V30 2661 C 246.421 1.94434 3.03691 0
M  V30 2662 O 245.525 1.2678 3.92429 0
M  V30 2663 H 244.866 0.420856 0.513592 0
M  V30 2664 H 247.396 1.71775 1.11151 0
M  V30 2665 H 247.406 2.03251 3.5377 0
M  V30 2666 H 246.081 2.98777 2.89318 0
M  V30 2667 H 244.658 1.26282 3.50866 0
M  V30 2668 N 246.843 -1.10192 1.12674 0
M  V30 2669 C 248.259 -1.34235 0.863317 0
M  V30 2670 C 248.459 -1.95062 -0.505277 0
M  V30 2671 O 247.515 -2.19192 -1.25345 0
M  V30 2672 C 248.828 -2.2616 1.98172 0
M  V30 2673 C 250.376 -2.3969 2.0129 0
M  V30 2674 C 250.851 -3.34946 3.1237 0
M  V30 2675 N 252.342 -3.42515 3.11829 0
M  V30 2676 C 253.077 -4.16199 3.94419 0
M  V30 2677 N 252.573 -4.92747 4.87004 0
M  V30 2678 N 254.366 -4.11843 3.82547 0
M  V30 2679 H 246.517 -0.690798 2.00853 0
M  V30 2680 H 248.78 -0.366774 0.874174 0
M  V30 2681 H 248.486 -1.8868 2.96804 0
M  V30 2682 H 248.36 -3.26488 1.88906 0
M  V30 2683 H 250.747 -2.76438 1.03276 0
M  V30 2684 H 250.828 -1.39169 2.14629 0
M  V30 2685 H 250.472 -2.98923 4.10619 0
M  V30 2686 H 250.402 -4.35353 2.96269 0
M  V30 2687 H 252.893 -2.87926 2.44759 0
M  V30 2688 H 253.206 -5.46376 5.46528 0
M  V30 2689 H 251.551 -4.91862 4.91016 0
M  V30 2690 H 254.742 -3.51136 3.0955 0
M  V30 2691 H 254.915 -4.69007 4.47142 0
M  V30 2692 N 248.321 -0.919034 -1.28029 0
M  V30 2693 C 249.549 -0.570971 -1.98866 0
M  V30 2694 C 249.964 0.848996 -1.68634 0
M  V30 2695 O 249.321 1.56307 -0.942036 0
M  V30 2696 C 249.372 -0.776876 -3.53054 0
M  V30 2697 O 249.093 -2.14097 -3.82222 0
M  V30 2698 C 250.594 -0.436356 -4.41147 0
M  V30 2699 H 247.814 -0.217175 -0.634883 0
M  V30 2700 H 250.358 -1.23368 -1.63097 0
M  V30 2701 H 248.513 -0.161085 -3.87065 0
M  V30 2702 H 248.927 -2.18455 -4.76841 0
M  V30 2703 H 250.401 -0.63117 -5.4838 0
M  V30 2704 H 250.878 0.627686 -4.34692 0
M  V30 2705 H 251.484 -1.02991 -4.12641 0
M  V30 2706 N 249.799 1.42003 -0.683588 0
M  V30 2707 C 250.746 2.30798 -0.0107309 0
M  V30 2708 C 251.716 1.4645 0.783688 0
M  V30 2709 O 252.901 1.75263 0.754156 0
M  V30 2710 C 250.041 3.3238 0.928306 0
M  V30 2711 C 249.154 4.31814 0.126776 0
M  V30 2712 C 248.289 5.20468 1.06236 0
M  V30 2713 C 247.328 6.11577 0.253035 0
M  V30 2714 N 246.465 6.92754 1.14179 0
M  V30 2715 H 251.305 2.8778 -0.773727 0
M  V30 2716 H 248.842 1.41745 -0.393283 0
M  V30 2717 H 250.8 3.89813 1.48666 0
M  V30 2718 H 249.43 2.76976 1.65783 0
M  V30 2719 H 248.482 3.76427 -0.54833 0
M  V30 2720 H 249.794 4.96276 -0.501192 0
M  V30 2721 H 248.948 5.82677 1.69035 0
M  V30 2722 H 247.687 4.56204 1.7242 0
M  V30 2723 H 246.692 5.48428 -0.388108 0
M  V30 2724 H 247.917 6.77892 -0.404839 0
M  V30 2725 H 245.863 6.3111 1.78987 0
M  V30 2726 H 245.78 7.53855 0.569111 0
M  V30 2727 H 247.048 7.59441 1.75697 0
M  V30 2728 N 251.277 0.427512 1.51691 0
M  V30 2729 C 252.24 -0.377132 2.26076 0
M  V30 2730 C 253.24 -0.958089 1.29141 0
M  V30 2731 O 254.43 -0.83408 1.52934 0
M  V30 2732 C 251.562 -1.53262 3.04506 0
M  V30 2733 H 252.755 0.27464 2.9864 0
M  V30 2734 H 250.308 0.180445 1.55255 0
M  V30 2735 H 251.043 -2.22072 2.36335 0
M  V30 2736 H 250.828 -1.12232 3.75694 0
M  V30 2737 H 252.318 -2.10135 3.60878 0
M  V30 2738 N 252.755 -1.56801 0.158532 0
M  V30 2739 C 254.004 -1.95665 -0.489702 0
M  V30 2740 C 254.317 -1.04654 -1.65248 0
M  V30 2741 O 255.523 -1.33146 -2.3661 0
M  V30 2742 C 253.979 -3.47874 -0.922582 0
M  V30 2743 C 253.587 -4.47489 0.213893 0
M  V30 2744 C 255.331 -3.95583 -1.53996 0
M  V30 2745 C 253.238 -5.90921 -0.237903 0
M  V30 2746 H 252.168 -0.730516 -0.186716 0
M  V30 2747 H 254.819 -1.81861 0.244722 0
M  V30 2748 H 253.201 -3.57051 -1.71261 0
M  V30 2749 H 254.375 -4.50017 0.991036 0
M  V30 2750 H 252.69 -4.09764 0.740407 0
M  V30 2751 H 255.287 -5.0019 -1.8898 0
M  V30 2752 H 255.63 -3.37789 -2.43319 0
M  V30 2753 H 256.163 -3.8937 -0.814611 0
M  V30 2754 H 252.902 -6.52559 0.620236 0
M  V30 2755 H 252.422 -5.91729 -0.980676 0
M  V30 2756 H 254.101 -6.43352 -0.686067 0
M  V30 2757 N 254.233 0.115231 -1.57178 0
M  V30 2758 C 255.166 1.17166 -1.95825 0
M  V30 2759 C 256.144 1.39912 -0.828463 0
M  V30 2760 O 257.328 1.54004 -1.08697 0
M  V30 2761 C 254.455 2.52478 -2.25771 0
M  V30 2762 C 253.501 2.46136 -3.48309 0
M  V30 2763 S 254.334 1.89736 -5.0076 0
M  V30 2764 C 255.49 3.26713 -5.33863 0
M  V30 2765 H 255.723 0.842103 -2.85124 0
M  V30 2766 H 253.256 0.322136 -1.51002 0
M  V30 2767 H 255.214 3.30332 -2.43702 0
M  V30 2768 H 253.875 2.82609 -1.37079 0
M  V30 2769 H 253.068 3.45819 -3.66641 0
M  V30 2770 H 252.67 1.76404 -3.29784 0
M  V30 2771 H 254.962 4.22935 -5.29275 0
M  V30 2772 H 255.905 3.13205 -6.35065 0
M  V30 2773 H 256.313 3.25316 -4.61335 0
M  V30 2774 N 255.711 1.52812 0.385517 0
M  V30 2775 C 256.658 1.77838 1.47113 0
M  V30 2776 C 257.628 0.621757 1.54024 0
M  V30 2777 O 258.813 0.861846 1.70226 0
M  V30 2778 C 255.953 1.95618 2.84302 0
M  V30 2779 C 255.066 3.23316 2.86515 0
M  V30 2780 C 254.201 3.31394 4.15152 0
M  V30 2781 C 253.24 4.53201 4.1143 0
M  V30 2782 N 252.377 4.58542 5.3168 0
M  V30 2783 H 257.217 2.70482 1.25073 0
M  V30 2784 H 254.754 1.34006 0.606692 0
M  V30 2785 H 256.712 2.03912 3.63972 0
M  V30 2786 H 255.342 1.06331 3.04784 0
M  V30 2787 H 254.394 3.24076 1.99195 0
M  V30 2788 H 255.706 4.13045 2.79634 0
M  V30 2789 H 254.86 3.3889 5.03228 0
M  V30 2790 H 253.599 2.39645 4.24761 0
M  V30 2791 H 252.604 4.45827 3.21742 0
M  V30 2792 H 253.829 5.46271 4.03442 0
M  V30 2793 H 251.775 3.69686 5.41912 0
M  V30 2794 H 251.692 5.42148 5.26889 0
M  V30 2795 H 252.96 4.70296 6.21644 0
M  V30 2796 N 257.189 -0.644168 1.43834 0
M  V30 2797 C 258.438 -1.39985 1.45214 0
M  V30 2798 C 258.751 -1.95421 0.0835494 0
M  V30 2799 O 259.957 -2.71488 -0.0251748 0
M  V30 2800 C 258.413 -2.53384 2.55587 0
M  V30 2801 C 258.021 -2.04517 3.98594 0
M  V30 2802 C 259.765 -3.30685 2.66172 0
M  V30 2803 C 257.672 -3.1518 5.00416 0
M  V30 2804 H 256.602 -0.526005 0.540218 0
M  V30 2805 H 259.253 -0.694367 1.69855 0
M  V30 2806 H 257.635 -3.26446 2.24163 0
M  V30 2807 H 258.809 -1.38405 4.39523 0
M  V30 2808 H 257.124 -1.40068 3.92135 0
M  V30 2809 H 259.721 -4.13158 3.39418 0
M  V30 2810 H 260.064 -3.79312 1.71546 0
M  V30 2811 H 260.597 -2.64708 2.96942 0
M  V30 2812 H 257.336 -2.71511 5.96625 0
M  V30 2813 H 256.856 -3.79974 4.64091 0
M  V30 2814 H 258.535 -3.80166 5.23529 0
M  V30 2815 N 258.668 -1.30515 -0.883378 0
M  V30 2816 C 259.631 -1.1701 -1.97082 0
M  V30 2817 C 260.631 -0.10089 -1.60483 0
M  V30 2818 O 261.821 -0.349127 -1.70666 0
M  V30 2819 C 258.953 -0.793045 -3.31547 0
M  V30 2820 H 260.146 -2.13622 -2.10489 0
M  V30 2821 H 257.699 -1.13935 -1.06998 0
M  V30 2822 H 258.434 0.172499 -3.23841 0
M  V30 2823 H 258.219 -1.56576 -3.5948 0
M  V30 2824 H 259.709 -0.722073 -4.1131 0
M  V30 2825 N 260.146 1.09593 -1.13257 0
M  V30 2826 C 261.395 1.81105 -0.887917 0
M  V30 2827 C 261.708 1.86563 0.587672 0
M  V30 2828 O 262.914 2.54367 0.949204 0
M  V30 2829 C 261.37 3.25338 -1.53895 0
M  V30 2830 C 260.978 3.28151 -3.04994 0
M  V30 2831 C 262.722 4.01617 -1.37492 0
M  V30 2832 C 260.629 4.66897 -3.6299 0
M  V30 2833 H 259.559 0.678661 -0.328534 0
M  V30 2834 H 262.21 1.23183 -1.36008 0
M  V30 2835 H 260.592 3.8331 -0.994446 0
M  V30 2836 H 261.766 2.79953 -3.66009 0
M  V30 2837 H 260.081 2.65361 -3.20893 0
M  V30 2838 H 262.678 5.04119 -1.78235 0
M  V30 2839 H 263.021 4.15072 -0.31957 0
M  V30 2840 H 263.554 3.50082 -1.88912 0
M  V30 2841 H 260.293 4.58643 -4.68323 0
M  V30 2842 H 259.813 5.15426 -3.06752 0
M  V30 2843 H 261.492 5.3587 -3.62563 0
M  V30 2844 N 261.624 0.925811 1.2754 0
M  V30 2845 C 262.87 0.566092 1.94739 0
M  V30 2846 C 263.203 -0.890057 1.72603 0
M  V30 2847 O 262.478 -1.63467 1.05399 0
M  V30 2848 C 262.761 0.89054 3.48915 0
M  V30 2849 C 262.614 2.4003 3.80402 0
M  V30 2850 C 263.933 0.395101 4.38323 0
M  V30 2851 H 261.052 0.20714 0.707292 0
M  V30 2852 H 263.694 1.15725 1.50691 0
M  V30 2853 H 261.844 0.387452 3.86563 0
M  V30 2854 H 263.516 2.97494 3.52555 0
M  V30 2855 H 261.759 2.85028 3.2702 0
M  V30 2856 H 262.43 2.57785 4.8811 0
M  V30 2857 H 264.906 0.826241 4.07814 0
M  V30 2858 H 263.782 0.651086 5.45025 0
M  V30 2859 H 264.043 -0.704798 4.36446 0
M  V30 2860 N 263.102 -1.41638 0.69111 0
M  V30 2861 C 264.348 -2.02104 0.229258 0
M  V30 2862 C 264.703 -1.53741 -1.15678 0
M  V30 2863 O 263.996 -0.736849 -1.76865 0
M  V30 2864 C 264.19 -3.56714 0.221277 0
M  V30 2865 C 264.019 -4.20083 1.605 0
M  V30 2866 C 262.789 -4.54566 2.20676 0
M  V30 2867 C 264.987 -4.46587 2.55078 0
M  V30 2868 N 262.969 -5.03199 3.5166 0
M  V30 2869 C 264.34 -4.96946 3.70735 0
M  V30 2870 C 266.395 -4.28593 2.53401 0
M  V30 2871 C 265.098 -5.31203 4.8499 0
M  V30 2872 C 267.124 -4.63936 3.66765 0
M  V30 2873 C 266.486 -5.14463 4.81152 0
M  V30 2874 H 262.585 -0.771256 0.12918 0
M  V30 2875 H 265.169 -1.72251 0.907626 0
M  V30 2876 H 263.34 -3.86051 -0.426562 0
M  V30 2877 H 265.072 -4.03896 -0.254983 0
M  V30 2878 H 261.827 -4.4087 1.73005 0
M  V30 2879 H 262.251 -5.31926 4.18789 0
M  V30 2880 H 266.893 -3.88771 1.66184 0
M  V30 2881 H 264.611 -5.69951 5.72871 0
M  V30 2882 H 268.197 -4.51677 3.66714 0
M  V30 2883 H 267.077 -5.41299 5.67419 0
M  V30 2884 N 264.58 -0.43555 -1.51462 0
M  V30 2885 C 265.543 0.365137 -2.26273 0
M  V30 2886 C 266.543 0.951227 -1.29647 0
M  V30 2887 O 267.733 0.825958 -1.53374 0
M  V30 2888 C 264.865 1.51645 -3.05314 0
M  V30 2889 H 266.058 -0.290474 -2.9849 0
M  V30 2890 H 263.611 -0.188676 -1.55157 0
M  V30 2891 H 264.346 2.20816 -2.3751 0
M  V30 2892 H 264.131 1.10238 -3.76284 0
M  V30 2893 H 265.621 2.08218 -3.61987 0
M  V30 2894 N 266.058 1.56714 -0.166846 0
M  V30 2895 C 267.307 1.95922 0.479318 0
M  V30 2896 C 267.62 1.05529 1.6469 0
M  V30 2897 O 268.826 1.34399 2.35901 0
M  V30 2898 C 267.282 3.48359 0.90412 0
M  V30 2899 C 266.89 4.47369 -0.237621 0
M  V30 2900 C 268.634 3.96394 1.51896 0
M  V30 2901 C 266.541 5.91039 0.206561 0
M  V30 2902 H 265.471 0.731495 0.18284 0
M  V30 2903 H 268.122 1.81728 -0.254363 0
M  V30 2904 H 266.504 3.57955 1.69365 0
M  V30 2905 H 267.678 4.49485 -1.01489 0
M  V30 2906 H 265.993 4.09366 -0.762128 0
M  V30 2907 H 268.59 5.01186 1.86325 0
M  V30 2908 H 268.933 3.39075 2.41524 0
M  V30 2909 H 269.466 3.89796 0.79395 0
M  V30 2910 H 266.205 6.52221 -0.654834 0
M  V30 2911 H 265.725 5.9224 0.949282 0
M  V30 2912 H 267.404 6.43707 0.651939 0
M  V30 2913 N 267.536 -0.106894 1.57237 0
M  V30 2914 C 268.761 -0.830287 1.90055 0
M  V30 2915 C 269.186 -1.72064 0.75998 0
M  V30 2916 O 268.544 -1.78982 -0.288991 0
M  V30 2917 C 268.592 -1.6295 3.21683 0
M  V30 2918 O 267.696 -2.73748 3.08441 0
M  V30 2919 H 267.037 -0.228855 0.623315 0
M  V30 2920 H 269.567 -0.085658 2.04421 0
M  V30 2921 H 269.577 -2.01621 3.54701 0
M  V30 2922 H 268.252 -0.975989 4.04286 0
M  V30 2923 H 266.829 -2.38192 2.86913 0
M  V30 2924 N 269.014 -1.53014 -0.377408 0
M  V30 2925 C 270.263 -1.67845 -1.11853 0
M  V30 2926 C 270.576 -0.430625 -1.90801 0
M  V30 2927 O 271.782 -0.459261 -2.67587 0
M  V30 2928 C 270.238 -2.96668 -2.03756 0
M  V30 2929 C 269.846 -4.28671 -1.30175 0
M  V30 2930 C 271.59 -3.20865 -2.77932 0
M  V30 2931 C 269.497 -5.48591 -2.20911 0
M  V30 2932 H 268.427 -0.625343 -0.421263 0
M  V30 2933 H 271.078 -1.79514 -0.380409 0
M  V30 2934 H 269.46 -2.78773 -2.8125 0
M  V30 2935 H 270.634 -4.57157 -0.578259 0
M  V30 2936 H 268.949 -4.10825 -0.679108 0
M  V30 2937 H 271.546 -4.07642 -3.46024 0
M  V30 2938 H 271.889 -2.36424 -3.4265 0
M  V30 2939 H 272.422 -3.39379 -2.07525 0
M  V30 2940 H 269.161 -6.35474 -1.6079 0
M  V30 2941 H 268.681 -5.244 -2.91144 0
M  V30 2942 H 270.36 -5.8292 -2.80736 0
M  V30 2943 N 270.492 0.636531 -1.44174 0
M  V30 2944 C 271.74 1.39343 -1.46383 0
M  V30 2945 C 272.061 1.94766 -0.0955715 0
M  V30 2946 O 271.331 1.75452 0.871395 0
M  V30 2947 H 269.911 0.517199 -0.538994 0
M  V30 2948 H 272.573 0.74957 -1.7991 0
M  V30 2949 H 271.669 2.22746 -2.18611 0
M  V30 2950 N 271.97 1.30982 0.876444 0
M  V30 2951 C 273.216 1.20474 1.63138 0
M  V30 2952 C 273.549 -0.238096 1.92735 0
M  V30 2953 O 272.824 -1.1692 1.55435 0
M  V30 2954 C 273.107 2.04244 2.96574 0
M  V30 2955 C 272.96 3.56793 2.73896 0
M  V30 2956 C 274.279 1.88684 3.97601 0
M  V30 2957 H 271.398 0.439001 0.591985 0
M  V30 2958 H 274.04 1.60704 1.01361 0
M  V30 2959 H 272.19 1.70063 3.493 0
M  V30 2960 H 273.862 4.01077 2.27892 0
M  V30 2961 H 272.105 3.80548 2.08245 0
M  V30 2962 H 272.776 4.10706 3.68815 0
M  V30 2963 H 275.252 2.18584 3.54062 0
M  V30 2964 H 274.128 2.4961 4.88862 0
M  V30 2965 H 274.389 0.848343 4.33884 0
M  V30 2966 N 273.449 -1.08991 1.13837 0
M  V30 2967 C 274.674 -1.85551 0.926585 0
M  V30 2968 C 275.099 -1.80782 -0.519566 0
M  V30 2969 O 274.457 -1.18855 -1.36906 0
M  V30 2970 C 274.505 -3.31266 1.42462 0
M  V30 2971 O 273.609 -4.07822 0.612789 0
M  V30 2972 H 272.95 -0.575192 0.331738 0
M  V30 2973 H 275.48 -1.37604 1.51414 0
M  V30 2974 H 275.49 -3.82112 1.43019 0
M  V30 2975 H 274.165 -3.34052 2.47754 0
M  V30 2976 H 272.742 -3.66731 0.675463 0
M  V30 2977 N 274.927 -0.932562 -1.27047 0
M  V30 2978 C 276.173 -0.576412 -1.94436 0
M  V30 2979 C 276.506 0.880891 -1.73072 0
M  V30 2980 O 275.781 1.62905 -1.06264 0
M  V30 2981 C 276.064 -0.909031 -3.48437 0
M  V30 2982 C 275.917 -2.42044 -3.79123 0
M  V30 2983 C 277.236 -0.418341 -4.38107 0
M  V30 2984 H 274.355 -0.210888 -0.706184 0
M  V30 2985 H 276.997 -1.16522 -1.50075 0
M  V30 2986 H 275.147 -0.407947 -3.86352 0
M  V30 2987 H 276.819 -2.99359 -3.50973 0
M  V30 2988 H 275.062 -2.86758 -3.25503 0
M  V30 2989 H 275.733 -2.6037 -4.86736 0
M  V30 2990 H 278.209 -0.847856 -4.0737 0
M  V30 2991 H 277.085 -0.679981 -5.44672 0
M  V30 2992 H 277.346 0.681642 -4.36814 0
M  V30 2993 N 276.405 1.4127 -0.698611 0
M  V30 2994 C 277.816 1.84187 -0.305289 0
M  V30 2995 C 278.167 1.58449 1.15708 0
M  V30 2996 O 277.292 1.05651 1.88856 0
M  V30 2997 C 277.887 3.3435 -0.547314 0
M  V30 2998 C 276.446 3.75826 -0.207878 0
M  V30 2999 C 275.593 2.64647 -0.828099 0
M  V30 3000 H 278.544 1.30778 -0.89904 0
M  V30 3001 H 278.565 3.8001 0.192998 0
M  V30 3002 H 278.077 3.53051 -1.61172 0
M  V30 3003 H 276.178 3.62725 0.852143 0
M  V30 3004 H 276.291 4.74462 -0.665021 0
M  V30 3005 H 274.655 2.53395 -0.257458 0
M  V30 3006 H 275.438 2.86165 -1.89643 0
M  V30 3007 N 277.883 0.443576 1.51229 0
M  V30 3008 C 279.132 -0.122332 2.01329 0
M  V30 3009 C 279.445 -1.43237 1.33201 0
M  V30 3010 O 280.651 -2.0816 1.74304 0
M  V30 3011 C 279.107 -0.268551 3.58897 0
M  V30 3012 C 278.715 1.03142 4.35965 0
M  V30 3013 C 280.459 -0.787894 4.17124 0
M  V30 3014 C 278.366 0.850504 5.85252 0
M  V30 3015 H 277.296 -0.0494929 0.752374 0
M  V30 3016 H 279.947 0.574289 1.74282 0
M  V30 3017 H 278.329 -1.02832 3.82415 0
M  V30 3018 H 279.503 1.80001 4.24189 0
M  V30 3019 H 277.818 1.47977 3.89219 0
M  V30 3020 H 280.415 -0.939841 5.26375 0
M  V30 3021 H 280.758 -1.77201 3.76703 0
M  V30 3022 H 281.291 -0.0862669 3.97706 0
M  V30 3023 H 278.03 1.80718 6.30096 0
M  V30 3024 H 277.55 0.121825 5.99676 0
M  V30 3025 H 279.229 0.506163 6.45017 0
M  V30 3026 N 279.361 -1.56624 0.175154 0
M  V30 3027 C 280.772 -1.83561 -0.340916 0
M  V30 3028 C 281.123 -1.09511 -1.62794 0
M  V30 3029 O 280.248 -0.349389 -2.13561 0
M  V30 3030 C 280.843 -3.32979 -0.625313 0
M  V30 3031 C 279.402 -3.60399 -1.08581 0
M  V30 3032 C 278.549 -2.77024 -0.123722 0
M  V30 3033 H 281.5 -1.53593 0.399344 0
M  V30 3034 H 281.521 -3.50666 -1.47694 0
M  V30 3035 H 281.033 -3.86847 0.311575 0
M  V30 3036 H 279.134 -3.11945 -2.03767 0
M  V30 3037 H 279.247 -4.68711 -0.992317 0
M  V30 3038 H 277.611 -2.46993 -0.621821 0
M  V30 3039 H 278.394 -3.33674 0.807256 0
M  V30 3040 N 280.839 0.0985539 -1.57292 0
M  V30 3041 C 282.085 0.803867 -1.86188 0
M  V30 3042 C 282.418 1.78549 -0.763794 0
M  V30 3043 O 281.693 1.93153 0.22855 0
M  V30 3044 C 281.976 1.53568 -3.25713 0
M  V30 3045 C 281.829 0.572277 -4.46145 0
M  V30 3046 C 283.148 2.48708 -3.63087 0
M  V30 3047 H 280.267 0.290781 -0.677211 0
M  V30 3048 H 282.909 0.0675783 -1.8988 0
M  V30 3049 H 281.059 2.16332 -3.22696 0
M  V30 3050 H 282.731 -0.0480894 -4.61275 0
M  V30 3051 H 280.974 -0.114618 -4.33649 0
M  V30 3052 H 281.645 1.12139 -5.40489 0
M  V30 3053 H 284.121 1.96039 -3.67026 0
M  V30 3054 H 282.997 2.96932 -4.61652 0
M  V30 3055 H 283.258 3.32309 -2.91588 0
M  V30 3056 N 282.317 1.53212 0.369288 0
M  V30 3057 C 283.566 1.68436 1.10961 0
M  V30 3058 C 283.879 0.440738 1.9057 0
M  V30 3059 O 285.085 0.473446 2.6734 0
M  V30 3060 C 283.541 2.97744 2.0218 0
M  V30 3061 C 283.149 4.29355 1.279 0
M  V30 3062 C 284.893 3.22334 2.76226 0
M  V30 3063 C 282.8 5.49755 2.17999 0
M  V30 3064 H 281.73 0.627568 0.41794 0
M  V30 3065 H 284.381 1.79713 0.370884 0
M  V30 3066 H 282.763 2.8026 2.79768 0
M  V30 3067 H 283.937 4.57458 0.554007 0
M  V30 3068 H 282.252 4.11179 0.657311 0
M  V30 3069 H 284.849 4.09471 3.43857 0
M  V30 3070 H 285.192 2.38238 3.41392 0
M  V30 3071 H 285.725 3.40475 2.05723 0
M  V30 3072 H 282.464 6.36318 1.57417 0
M  V30 3073 H 281.984 5.25937 2.88359 0
M  V30 3074 H 283.663 5.84401 2.77641 0
M  V30 3075 N 283.795 -0.628877 1.44509 0
M  V30 3076 C 285.043 -1.38565 1.4712 0
M  V30 3077 C 285.364 -1.94712 0.105899 0
M  V30 3078 O 284.634 -1.75912 -0.862079 0
M  V30 3079 H 283.214 -0.514333 0.541729 0
M  V30 3080 H 285.876 -0.740018 1.80305 0
M  V30 3081 H 284.972 -2.21583 2.19789 0
M  V30 3082 N 285.273 -1.31445 -0.869486 0
M  V30 3083 C 286.203 -1.21727 -1.99261 0
M  V30 3084 C 287.184 -0.104359 -1.6978 0
M  V30 3085 O 288.369 -0.289038 -1.92037 0
M  V30 3086 C 285.499 -0.924317 -3.34774 0
M  V30 3087 C 284.453 -1.99685 -3.78563 0
M  V30 3088 C 283.779 -1.55658 -5.11541 0
M  V30 3089 C 285.079 -3.41003 -3.95619 0
M  V30 3090 H 286.773 -2.1569 -2.07649 0
M  V30 3091 H 284.319 -1.03839 -0.997675 0
M  V30 3092 H 286.272 -0.842934 -4.12883 0
M  V30 3093 H 284.996 0.0509793 -3.2656 0
M  V30 3094 H 283.655 -2.06813 -3.02694 0
M  V30 3095 H 283.303 -0.569132 -4.9977 0
M  V30 3096 H 283.003 -2.27409 -5.41811 0
M  V30 3097 H 284.527 -1.48928 -5.92159 0
M  V30 3098 H 285.941 -3.36547 -4.64122 0
M  V30 3099 H 284.338 -4.10975 -4.37286 0
M  V30 3100 H 285.408 -3.81754 -2.98985 0
M  V30 3101 N 286.751 1.08385 -1.14413 0
M  V30 3102 C 288.167 1.32844 -0.884563 0
M  V30 3103 C 288.367 1.95841 0.474181 0
M  V30 3104 O 287.423 2.21158 1.21842 0
M  V30 3105 C 288.736 2.22978 -2.01745 0
M  V30 3106 C 290.284 2.36458 -2.05077 0
M  V30 3107 C 290.759 3.29934 -3.1766 0
M  V30 3108 N 292.25 3.37511 -3.17239 0
M  V30 3109 C 292.985 4.09871 -4.0099 0
M  V30 3110 N 292.481 4.84936 -4.94781 0
M  V30 3111 N 294.274 4.05704 -3.89051 0
M  V30 3112 H 286.425 0.658756 -2.01926 0
M  V30 3113 H 288.688 0.352821 -0.879899 0
M  V30 3114 H 288.394 1.83934 -2.99769 0
M  V30 3115 H 288.268 3.23441 -1.94077 0
M  V30 3116 H 290.655 2.7476 -1.0766 0
M  V30 3117 H 290.736 1.35736 -2.16816 0
M  V30 3118 H 290.38 2.92352 -4.15322 0
M  V30 3119 H 290.31 4.30584 -3.03158 0
M  V30 3120 H 292.801 2.83996 -2.49308 0
M  V30 3121 H 293.114 5.37612 -5.55151 0
M  V30 3122 H 291.459 4.83988 -4.98779 0
M  V30 3123 H 294.65 3.46167 -3.15097 0
M  V30 3124 H 294.823 4.61834 -4.54547 0
M  V30 3125 N 288.23 0.939286 1.26551 0
M  V30 3126 C 289.507 0.5038 1.89001 0
M  V30 3127 C 289.887 -1.01854 1.84903 0
M  V30 3128 O 289.235 -1.87773 1.30206 0
M  V30 3129 C 289.445 1.063 3.32417 0
M  V30 3130 C 290.793 1.13051 4.09273 0
M  V30 3131 O 291.817 1.01345 3.41479 0
M  V30 3132 O 290.676 1.31233 5.30509 0
M  V30 3133 H 287.77 0.163897 0.810597 0
M  V30 3134 H 290.316 1.03173 1.34735 0
M  V30 3135 H 289.088 2.10665 3.29752 0
M  V30 3136 H 288.711 0.517408 3.94219 0
M  V30 3137 N 289.708 -1.40897 0.706093 0
M  V30 3138 C 290.618 -2.3455 0.0482286 0
M  V30 3139 C 291.634 -1.56796 -0.754396 0
M  V30 3140 O 292.81 -1.89228 -0.689538 0
M  V30 3141 C 289.875 -3.35625 -0.869303 0
M  V30 3142 C 288.936 -4.29261 -0.0576994 0
M  V30 3143 C 288.169 -5.25508 -0.931531 0
M  V30 3144 O 288.392 -5.27472 -2.17092 0
M  V30 3145 O 287.326 -6.00727 -0.375587 0
M  V30 3146 H 291.152 -2.92407 0.820476 0
M  V30 3147 H 288.737 -1.4193 0.4665 0
M  V30 3148 H 290.619 -3.97635 -1.39514 0
M  V30 3149 H 289.294 -2.80196 -1.62086 0
M  V30 3150 H 288.201 -3.70566 0.512988 0
M  V30 3151 H 289.534 -4.87817 0.655426 0
M  V30 3152 N 291.186 -0.45159 -1.50991 0
M  V30 3153 C 292.096 0.358431 -2.31846 0
M  V30 3154 C 293.112 1.01438 -1.41373 0
M  V30 3155 O 294.288 1.00663 -1.74439 0
M  V30 3156 C 291.353 1.43704 -3.15515 0
M  V30 3157 C 290.414 0.799742 -4.21785 0
M  V30 3158 C 289.647 1.82696 -5.01456 0
M  V30 3159 O 289.87 3.05105 -4.81941 0
M  V30 3160 O 288.804 1.40958 -5.85162 0
M  V30 3161 H 292.63 -0.302032 -3.02194 0
M  V30 3162 H 290.215 -0.213825 -1.47862 0
M  V30 3163 H 292.097 2.06227 -3.67489 0
M  V30 3164 H 290.772 2.08133 -2.47916 0
M  V30 3165 H 289.679 0.136084 -3.73852 0
M  V30 3166 H 291.012 0.198718 -4.91799 0
M  V30 3167 N 292.664 1.56529 -0.183458 0
M  V30 3168 C 293.611 2.18546 0.742055 0
M  V30 3169 C 294.581 1.12912 1.2182 0
M  V30 3170 O 295.766 1.41115 1.28418 0
M  V30 3171 C 292.906 2.83977 1.96089 0
M  V30 3172 C 292.019 4.04105 1.52719 0
M  V30 3173 C 291.154 4.57427 2.70063 0
M  V30 3174 C 290.193 5.69938 2.23243 0
M  V30 3175 N 289.33 6.17717 3.33722 0
M  V30 3176 H 294.17 2.97284 0.206432 0
M  V30 3177 H 291.707 1.46823 0.0901571 0
M  V30 3178 H 293.665 3.20077 2.67594 0
M  V30 3179 H 292.295 2.07822 2.47002 0
M  V30 3180 H 291.347 3.73745 0.708436 0
M  V30 3181 H 292.659 4.85513 1.1436 0
M  V30 3182 H 291.813 4.95772 3.49708 0
M  V30 3183 H 290.552 3.75101 3.11689 0
M  V30 3184 H 289.557 5.31133 1.42048 0
M  V30 3185 H 290.782 6.54073 1.82661 0
M  V30 3186 H 288.728 5.38317 3.74902 0
M  V30 3187 H 288.645 6.94146 2.99495 0
M  V30 3188 H 289.913 6.60713 4.13616 0
M  V30 3189 N 294.142 -0.090211 1.57342 0
M  V30 3190 C 295.388 -0.793982 1.86611 0
M  V30 3191 C 295.721 -1.78142 0.773252 0
M  V30 3192 O 294.996 -1.93271 -0.218304 0
M  V30 3193 C 295.279 -1.51839 3.26523 0
M  V30 3194 C 295.132 -0.548609 4.46442 0
M  V30 3195 C 296.451 -2.46779 3.64401 0
M  V30 3196 H 293.57 -0.287186 0.678744 0
M  V30 3197 H 296.212 -0.0575076 1.89913 0
M  V30 3198 H 294.362 -2.14617 3.23839 0
M  V30 3199 H 296.034 0.0725513 4.61243 0
M  V30 3200 H 294.277 0.137614 4.33582 0
M  V30 3201 H 294.948 -1.09271 5.41076 0
M  V30 3202 H 297.424 -1.94089 3.68061 0
M  V30 3203 H 296.3 -2.94479 4.63221 0
M  V30 3204 H 296.561 -3.30758 2.93346 0
M  V30 3205 N 295.62 -1.53406 -0.361157 0
M  V30 3206 C 296.867 -1.69802 -1.10333 0
M  V30 3207 C 297.195 -0.452087 -1.89173 0
M  V30 3208 O 296.45 0.566017 -1.87336 0
M  V30 3209 C 296.749 -2.90211 -2.08596 0
M  V30 3210 C 296.415 -4.26539 -1.46203 0
M  V30 3211 C 295.077 -4.6361 -1.28915 0
M  V30 3212 C 297.429 -5.113 -1.01101 0
M  V30 3213 C 294.757 -5.83075 -0.651157 0
M  V30 3214 C 297.109 -6.31415 -0.387007 0
M  V30 3215 C 295.773 -6.67195 -0.201657 0
M  V30 3216 H 295.043 -0.621351 -0.403737 0
M  V30 3217 H 297.69 -1.87598 -0.384609 0
M  V30 3218 H 295.995 -2.66946 -2.86788 0
M  V30 3219 H 297.692 -3.00091 -2.65982 0
M  V30 3220 H 294.282 -3.97352 -1.60653 0
M  V30 3221 H 298.466 -4.83206 -1.13249 0
M  V30 3222 H 293.722 -6.09385 -0.496006 0
M  V30 3223 H 297.896 -6.96394 -0.0293563 0
M  V30 3224 H 295.523 -7.59628 0.294766 0
M  V30 3225 N 297.098 0.621204 -1.44841 0
M  V30 3226 C 298.344 1.3826 -1.48365 0
M  V30 3227 C 298.677 1.93831 -0.119624 0
M  V30 3228 O 297.952 1.74251 0.864111 0
M  V30 3229 C 298.235 2.54058 -2.55199 0
M  V30 3230 C 298.088 2.03772 -4.00995 0
M  V30 3231 C 299.407 3.56225 -2.58442 0
M  V30 3232 H 296.526 0.501374 -0.540179 0
M  V30 3233 H 299.168 0.7015 -1.76576 0
M  V30 3234 H 297.318 3.12162 -2.31274 0
M  V30 3235 H 298.99 1.50423 -4.36086 0
M  V30 3236 H 297.233 1.34876 -4.12299 0
M  V30 3237 H 297.904 2.87185 -4.71411 0
M  V30 3238 H 300.38 3.07939 -2.79844 0
M  V30 3239 H 299.256 4.34756 -3.3508 0
M  V30 3240 H 299.517 4.10949 -1.63013 0
M  V30 3241 N 298.576 1.31904 0.862503 0
M  V30 3242 C 299.524 1.20125 1.9918 0
M  V30 3243 C 300.518 0.107824 1.69056 0
M  V30 3244 O 301.724 0.270223 1.7796 0
M  V30 3245 H 298.099 0.372148 0.65346 0
M  V30 3246 H 300.07 2.15652 2.06244 0
M  V30 3247 C 298.819 0.933099 3.34946 0
M  V30 3248 H 298.142 1.76664 3.5865 0
M  V30 3249 H 299.582 0.890892 4.14535 0
M  V30 3250 C 298.041 -0.364172 3.34926 0
M  V30 3251 O 298.571 -1.37858 3.77304 0
M  V30 3252 N 296.777 -0.383362 2.8806 0
M  V30 3253 H 296.324 0.442651 2.53768 0
M  V30 3254 H 296.282 -1.25123 2.8843 0
M  V30 3255 N 300.054 -1.07777 1.14986 0
M  V30 3256 C 301.002 -2.16964 0.838406 0
M  V30 3257 C 301.996 -1.68372 -0.186386 0
M  V30 3258 O 303.202 -1.79951 -0.0418465 0
M  V30 3259 H 299.577 -0.708006 0.253439 0
M  V30 3260 H 301.548 -2.40454 1.76704 0
M  V30 3261 C 300.297 -3.4604 0.339335 0
M  V30 3262 H 299.62 -3.83813 1.11927 0
M  V30 3263 H 301.06 -4.23698 0.160021 0
M  V30 3264 C 299.519 -3.23569 -0.938325 0
M  V30 3265 O 300.049 -3.47752 -2.01077 0
M  V30 3266 N 298.255 -2.77079 -0.876117 0
M  V30 3267 H 297.802 -2.576 -0.00322037 0
M  V30 3268 H 297.76 -2.62422 -1.73153 0
M  V30 3269 N 301.532 -0.945985 -1.26051 0
M  V30 3270 C 302.76 -0.613025 -1.9761 0
M  V30 3271 C 303.175 0.813035 -1.70397 0
M  V30 3272 O 302.532 1.54274 -0.974979 0
M  V30 3273 C 302.583 -0.85159 -3.51326 0
M  V30 3274 O 302.304 -2.22157 -3.77595 0
M  V30 3275 C 303.805 -0.529831 -4.40122 0
M  V30 3276 H 301.025 -0.230593 -0.630133 0
M  V30 3277 H 303.569 -1.268 -1.60443 0
M  V30 3278 H 301.724 -0.243151 -3.86636 0
M  V30 3279 H 302.138 -2.2852 -4.721 0
M  V30 3280 H 303.612 -0.747348 -5.46917 0
M  V30 3281 H 304.089 0.535341 -4.35925 0
M  V30 3282 H 304.695 -1.11721 -4.10364 0
M  V30 3283 N 303.011 1.40521 -0.713556 0
M  V30 3284 C 304.239 2.05237 -0.261775 0
M  V30 3285 C 304.654 1.53755 1.09567 0
M  V30 3286 O 304.011 0.693268 1.6882 0
M  V30 3287 C 304.062 3.60763 -0.230706 0
M  V30 3288 O 303.783 4.10345 -1.53455 0
M  V30 3289 C 305.284 4.42651 0.239874 0
M  V30 3290 H 302.504 0.660533 -0.118057 0
M  V30 3291 H 305.048 1.79967 -0.971192 0
M  V30 3292 H 303.203 3.8501 0.429661 0
M  V30 3293 H 303.617 5.04526 -1.43366 0
M  V30 3294 H 305.091 5.51599 0.210468 0
M  V30 3295 H 305.568 4.20082 1.28171 0
M  V30 3296 H 306.174 4.23507 -0.390142 0
M  V30 3297 N 304.489 0.459591 1.5075 0
M  V30 3298 C 305.729 -0.09824 2.04164 0
M  V30 3299 C 306.093 -1.3801 1.33481 0
M  V30 3300 O 307.294 -2.01959 1.77387 0
M  V30 3301 C 305.565 -0.289467 3.56226 0
M  V30 3302 S 307.124 -0.807507 4.31306 0
M  V30 3303 H 303.942 -0.0213845 0.710678 0
M  V30 3304 H 306.544 0.624098 1.85271 0
M  V30 3305 H 305.248 0.649461 4.05229 0
M  V30 3306 H 304.779 -1.03825 3.79452 0
M  V30 3307 H 306.794 -2.0824 4.50389 0
M  V30 3308 N 305.967 -1.56429 0.191757 0
M  V30 3309 C 307.213 -1.97777 -0.448554 0
M  V30 3310 C 307.546 -1.07847 -1.61501 0
M  V30 3311 O 306.821 -0.129774 -1.94067 0
M  V30 3312 C 307.104 -3.48362 -0.911906 0
M  V30 3313 C 306.957 -4.4907 0.256136 0
M  V30 3314 C 308.276 -4.02561 -1.77857 0
M  V30 3315 H 305.395 -0.719071 -0.161572 0
M  V30 3316 H 308.037 -1.87896 0.282007 0
M  V30 3317 H 306.187 -3.56914 -1.53442 0
M  V30 3318 H 307.859 -4.5256 0.893733 0
M  V30 3319 H 306.102 -4.24181 0.908436 0
M  V30 3320 H 306.773 -5.51889 -0.11053 0
M  V30 3321 H 309.249 -3.96767 -1.25359 0
M  V30 3322 H 308.125 -5.08301 -2.07174 0
M  V30 3323 H 308.386 -3.47616 -2.73158 0
M  V30 3324 N 307.445 0.0818655 -1.57387 0
M  V30 3325 C 308.375 1.09885 -2.06028 0
M  V30 3326 C 309.356 1.4098 -0.951774 0
M  V30 3327 O 310.541 1.50781 -1.22387 0
M  V30 3328 C 307.671 2.4151 -2.4958 0
M  V30 3329 C 306.625 2.24792 -3.64215 0
M  V30 3330 C 305.951 3.61712 -3.93787 0
M  V30 3331 C 307.251 1.67749 -4.94629 0
M  V30 3332 H 308.945 0.694128 -2.91243 0
M  V30 3333 H 306.491 0.332448 -1.4011 0
M  V30 3334 H 308.444 3.12939 -2.82219 0
M  V30 3335 H 307.168 2.83943 -1.61381 0
M  V30 3336 H 305.827 1.55807 -3.31843 0
M  V30 3337 H 305.475 4.01697 -3.02735 0
M  V30 3338 H 305.175 3.51368 -4.70971 0
M  V30 3339 H 306.699 4.34587 -4.28913 0
M  V30 3340 H 308.113 2.29032 -5.25564 0
M  V30 3341 H 306.51 1.68128 -5.76067 0
M  V30 3342 H 307.58 0.638059 -4.80684 0
M  V30 3343 N 308.923 1.53595 0.353017 0
M  V30 3344 C 309.871 1.81605 1.45335 0
M  V30 3345 C 310.865 0.685923 1.54892 0
M  V30 3346 O 312.071 0.869095 1.57628 0
M  V30 3347 H 308.446 0.575204 0.484401 0
M  V30 3348 H 310.417 2.73679 1.18921 0
M  V30 3349 C 309.166 2.03406 2.81995 0
M  V30 3350 H 308.489 2.89814 2.75405 0
M  V30 3351 H 309.929 2.26975 3.58132 0
M  V30 3352 C 308.388 0.816794 3.26849 0
M  V30 3353 O 308.918 0.0115856 4.01698 0
M  V30 3354 N 307.124 0.636682 2.8354 0
M  V30 3355 H 306.671 1.2931 2.22793 0
M  V30 3356 H 306.629 -0.176336 3.13905 0
M  V30 3357 N 310.401 -0.613514 1.45168 0
M  V30 3358 C 311.678 -1.37263 1.39349 0
M  V30 3359 C 312.058 -2.11012 0.0610848 0
M  V30 3360 O 311.406 -2.07502 -0.956825 0
M  V30 3361 C 311.616 -2.3244 2.60332 0
M  V30 3362 C 312.964 -2.9523 3.05163 0
M  V30 3363 O 313.988 -2.42762 2.60663 0
M  V30 3364 O 312.847 -3.90454 3.82372 0
M  V30 3365 H 309.941 -0.615188 0.552696 0
M  V30 3366 H 312.487 -0.637097 1.57287 0
M  V30 3367 H 311.259 -1.77164 3.48896 0
M  V30 3368 H 310.882 -3.13383 2.44698 0
M  V30 3369 N 311.879 -1.3236 -0.855495 0
M  V30 3370 C 313.29 -1.2056 -1.42556 0
M  V30 3371 C 313.641 0.182209 -1.95352 0
M  V30 3372 O 312.766 1.08088 -1.87472 0
M  V30 3373 C 313.361 -2.1826 -2.59129 0
M  V30 3374 C 311.92 -2.10351 -3.12137 0
M  V30 3375 C 311.067 -2.06674 -1.84882 0
M  V30 3376 H 314.018 -1.442 -0.662727 0
M  V30 3377 H 314.039 -1.78064 -3.36264 0
M  V30 3378 H 313.551 -3.19257 -2.20673 0
M  V30 3379 H 311.652 -1.12599 -3.55179 0
M  V30 3380 H 311.765 -3.00135 -3.73438 0
M  V30 3381 H 310.129 -1.51901 -2.04446 0
M  V30 3382 H 310.912 -3.09451 -1.48643 0
M  V30 3383 N 313.357 1.07166 -1.15556 0
M  V30 3384 C 314.305 2.16517 -0.8499 0
M  V30 3385 C 315.299 1.68468 0.177454 0
M  V30 3386 O 316.505 1.79971 0.0323026 0
M  V30 3387 H 312.88 0.706652 -0.25719 0
M  V30 3388 H 314.851 2.39514 -1.77976 0
M  V30 3389 C 313.6 3.45855 -0.357682 0
M  V30 3390 H 312.923 3.83214 -1.13961 0
M  V30 3391 H 314.363 4.23607 -0.182489 0
M  V30 3392 C 312.822 3.24062 0.921152 0
M  V30 3393 O 313.352 3.48813 1.9923 0
M  V30 3394 N 311.558 2.77539 0.86141 0
M  V30 3395 H 311.105 2.57598 -0.0104408 0
M  V30 3396 H 311.063 2.63337 1.71758 0
M  V30 3397 N 314.835 0.952656 1.25548 0
M  V30 3398 C 316.082 0.606373 1.93208 0
M  V30 3399 C 316.41 -0.85631 1.74636 0
M  V30 3400 O 315.665 -1.62951 1.08376 0
M  V30 3401 C 315.964 0.908818 3.45652 0
M  V30 3402 C 315.63 2.35722 3.84378 0
M  V30 3403 C 314.292 2.75312 3.9466 0
M  V30 3404 C 316.644 3.29793 4.03591 0
M  V30 3405 C 313.972 4.08047 4.21562 0
M  V30 3406 C 316.324 4.62138 4.31985 0
M  V30 3407 C 314.988 5.01528 4.40484 0
M  V30 3408 H 314.258 0.221888 0.706998 0
M  V30 3409 H 316.905 1.20132 1.49133 0
M  V30 3410 H 315.21 0.231456 3.91116 0
M  V30 3411 H 316.907 0.619498 3.96186 0
M  V30 3412 H 313.497 2.04017 3.76928 0
M  V30 3413 H 317.681 3.00397 3.95064 0
M  V30 3414 H 312.937 4.38212 4.26357 0
M  V30 3415 H 317.111 5.35012 4.45797 0
M  V30 3416 H 314.738 6.04406 4.61083 0
M  V30 3417 N 316.313 -1.40141 0.720998 0
M  V30 3418 C 317.559 -2.01084 0.263231 0
M  V30 3419 C 317.892 -1.57052 -1.14229 0
M  V30 3420 O 317.167 -0.793027 -1.77599 0
M  V30 3421 C 317.45 -3.58401 0.349344 0
M  V30 3422 C 317.303 -4.12491 1.79363 0
M  V30 3423 C 318.622 -4.39231 -0.276351 0
M  V30 3424 H 315.741 -0.730572 0.0971228 0
M  V30 3425 H 318.383 -1.66543 0.914518 0
M  V30 3426 H 316.533 -3.87958 -0.205165 0
M  V30 3427 H 318.205 -3.93711 2.40394 0
M  V30 3428 H 316.448 -3.66576 2.31958 0
M  V30 3429 H 317.119 -5.21646 1.80524 0
M  V30 3430 H 319.595 -4.15637 0.196184 0
M  V30 3431 H 318.471 -5.48586 -0.185681 0
M  V30 3432 H 318.732 -4.20643 -1.36059 0
M  V30 3433 N 317.792 -0.46758 -1.50504 0
M  V30 3434 C 318.722 0.318381 -2.31319 0
M  V30 3435 C 319.703 0.993564 -1.38066 0
M  V30 3436 O 320.888 0.991411 -1.66987 0
M  V30 3437 C 318.018 1.40275 -3.17711 0
M  V30 3438 C 316.972 0.849373 -4.19487 0
M  V30 3439 C 316.298 2.03177 -4.94594 0
M  V30 3440 C 317.598 -0.136942 -5.2212 0
M  V30 3441 H 319.292 -0.356106 -2.97275 0
M  V30 3442 H 316.838 -0.172703 -1.42961 0
M  V30 3443 H 318.791 1.96004 -3.73042 0
M  V30 3444 H 317.515 2.10596 -2.49634 0
M  V30 3445 H 316.174 0.314076 -3.65252 0
M  V30 3446 H 315.822 2.72187 -4.22993 0
M  V30 3447 H 315.522 1.66774 -5.63436 0
M  V30 3448 H 317.046 2.59403 -5.52759 0
M  V30 3449 H 318.46 0.331056 -5.72343 0
M  V30 3450 H 316.857 -0.41507 -5.98663 0
M  V30 3451 H 317.927 -1.06398 -4.73083 0
M  V30 3452 N 319.27 1.56325 -0.20005 0
M  V30 3453 C 320.519 1.96895 0.437652 0
M  V30 3454 C 320.832 1.08999 1.62415 0
M  V30 3455 O 322.038 1.39372 2.32997 0
M  V30 3456 C 320.494 3.50198 0.830025 0
M  V30 3457 C 320.102 4.46765 -0.332461 0
M  V30 3458 C 321.846 3.99526 1.43453 0
M  V30 3459 C 319.753 5.91344 0.0811468 0
M  V30 3460 H 318.683 0.735209 0.167282 0
M  V30 3461 H 321.334 1.81148 -0.292853 0
M  V30 3462 H 319.716 3.61467 1.61734 0
M  V30 3463 H 320.89 4.47231 -1.11 0
M  V30 3464 H 319.205 4.07657 -0.848789 0
M  V30 3465 H 321.802 5.05025 1.75652 0
M  V30 3466 H 322.145 3.44122 2.34277 0
M  V30 3467 H 322.678 3.91393 0.71109 0
M  V30 3468 H 319.417 6.50685 -0.793033 0
M  V30 3469 H 318.937 5.94121 0.823445 0
M  V30 3470 H 320.616 6.44945 0.515252 0
M  V30 3471 N 320.748 -0.0735177 1.57428 0
M  V30 3472 C 321.996 -0.771472 1.86796 0
M  V30 3473 C 322.317 -1.78201 0.791804 0
M  V30 3474 O 321.587 -1.95074 -0.179718 0
M  V30 3475 H 320.167 -0.28791 0.689287 0
M  V30 3476 H 322.829 -0.0500161 1.94836 0
M  V30 3477 H 321.925 -1.28874 2.8425 0
M  V30 3478 N 322.226 -1.5378 -0.344866 0
M  V30 3479 C 323.451 -1.75211 -1.10977 0
M  V30 3480 C 323.876 -0.48936 -1.81623 0
M  V30 3481 O 323.234 0.557925 -1.72502 0
M  V30 3482 C 323.282 -2.93147 -2.09993 0
M  V30 3483 O 322.386 -2.63203 -3.17487 0
M  V30 3484 H 321.727 -0.581241 -0.321021 0
M  V30 3485 H 324.257 -2.00738 -0.395661 0
M  V30 3486 H 324.267 -3.19898 -2.53237 0
M  V30 3487 H 322.942 -3.84731 -1.5797 0
M  V30 3488 H 321.519 -2.47336 -2.79069 0
M  V30 3489 N 323.704 0.605807 -1.45491 0
M  V30 3490 C 324.951 1.36476 -1.49601 0
M  V30 3491 C 325.279 1.94007 -0.138452 0
M  V30 3492 O 324.534 1.75638 0.863114 0
M  V30 3493 C 324.833 2.53012 -2.52428 0
M  V30 3494 C 324.499 2.13617 -3.97087 0
M  V30 3495 C 323.161 2.02587 -4.36477 0
M  V30 3496 C 325.513 1.82899 -4.88055 0
M  V30 3497 C 322.841 1.59064 -5.64726 0
M  V30 3498 C 325.193 1.40861 -6.16718 0
M  V30 3499 C 323.857 1.28391 -6.55036 0
M  V30 3500 H 323.127 0.499402 -0.547429 0
M  V30 3501 H 325.774 0.684546 -1.78847 0
M  V30 3502 H 324.079 3.26379 -2.16758 0
M  V30 3503 H 325.776 3.1124 -2.52845 0
M  V30 3504 H 322.366 2.23129 -3.65939 0
M  V30 3505 H 326.55 1.90317 -4.58359 0
M  V30 3506 H 321.806 1.48034 -5.93208 0
M  V30 3507 H 325.98 1.16138 -6.86648 0
M  V30 3508 H 323.607 0.944403 -7.54311 0
M  V30 3509 N 325.182 1.32811 0.848464 0
M  V30 3510 C 326.428 1.23907 1.60546 0
M  V30 3511 C 326.761 -0.197161 1.93197 0
M  V30 3512 O 326.036 -1.13596 1.5788 0
M  V30 3513 C 326.319 2.10489 2.92175 0
M  V30 3514 C 326.172 3.62522 2.66266 0
M  V30 3515 C 327.491 1.97075 3.93509 0
M  V30 3516 H 324.61 0.451459 0.58254 0
M  V30 3517 H 327.252 1.62818 0.979296 0
M  V30 3518 H 325.402 1.77434 3.45614 0
M  V30 3519 H 327.074 4.05821 2.19334 0
M  V30 3520 H 325.317 3.84879 2.00126 0
M  V30 3521 H 325.988 4.18437 3.6002 0
M  V30 3522 H 328.464 2.26045 3.49346 0
M  V30 3523 H 327.34 2.59923 4.83457 0
M  V30 3524 H 327.601 0.940186 4.31987 0
M  V30 3525 N 326.66 -1.06551 1.16123 0
M  V30 3526 C 327.623 -2.12132 0.867906 0
M  V30 3527 C 328.623 -1.60224 -0.135944 0
M  V30 3528 O 329.813 -1.73943 0.0946422 0
M  V30 3529 C 326.945 -3.396 0.297419 0
M  V30 3530 H 328.138 -2.39586 1.80385 0
M  V30 3531 H 325.691 -1.22574 0.969812 0
M  V30 3532 H 326.426 -3.17794 -0.64633 0
M  V30 3533 H 326.211 -3.78581 1.02073 0
M  V30 3534 H 327.701 -4.17455 0.110052 0
M  V30 3535 N 328.138 -0.959301 -1.25041 0
M  V30 3536 C 329.385 -0.616611 -1.92884 0
M  V30 3537 C 329.713 0.847036 -1.75087 0
M  V30 3538 O 328.968 1.62374 -1.09239 0
M  V30 3539 C 329.267 -0.927136 -3.45165 0
M  V30 3540 C 328.933 -2.37757 -3.83122 0
M  V30 3541 C 327.595 -2.77402 -3.93194 0
M  V30 3542 C 329.947 -3.31929 -4.01836 0
M  V30 3543 C 327.275 -4.10277 -4.19392 0
M  V30 3544 C 329.627 -4.64423 -4.29528 0
M  V30 3545 C 328.291 -5.03857 -4.37818 0
M  V30 3546 H 327.561 -0.225634 -0.705812 0
M  V30 3547 H 330.208 -1.20921 -1.48493 0
M  V30 3548 H 328.513 -0.252195 -3.90987 0
M  V30 3549 H 330.21 -0.6405 -3.95852 0
M  V30 3550 H 326.8 -2.06013 -3.75841 0
M  V30 3551 H 330.984 -3.02488 -3.93465 0
M  V30 3552 H 326.24 -4.40467 -4.24027 0
M  V30 3553 H 330.414 -5.37369 -4.42953 0
M  V30 3554 H 328.041 -6.06843 -4.57871 0
M  V30 3555 N 329.616 1.39756 -0.72842 0
M  V30 3556 C 330.863 2.00645 -0.273487 0
M  V30 3557 C 331.191 1.57786 1.13727 0
M  V30 3558 O 330.446 0.794886 1.7883 0
M  V30 3559 C 330.745 3.56002 -0.315776 0
M  V30 3560 C 330.411 4.18489 -1.67863 0
M  V30 3561 C 329.073 4.3527 -2.05166 0
M  V30 3562 C 331.425 4.53219 -2.57375 0
M  V30 3563 C 328.753 4.84069 -3.31503 0
M  V30 3564 C 331.105 5.03423 -3.83077 0
M  V30 3565 C 329.769 5.18413 -4.20481 0
M  V30 3566 H 329.039 0.734211 -0.100076 0
M  V30 3567 H 331.686 1.6718 -0.933972 0
M  V30 3568 H 329.991 3.89452 0.428285 0
M  V30 3569 H 331.688 4.00963 0.0542575 0
M  V30 3570 H 328.278 4.05824 -1.37858 0
M  V30 3571 H 332.462 4.39878 -2.29827 0
M  V30 3572 H 327.718 4.93859 -3.60435 0
M  V30 3573 H 331.892 5.2927 -4.52599 0
M  V30 3574 H 329.519 5.55987 -5.18443 0
M  V30 3575 N 331.094 0.475555 1.50254 0
M  V30 3576 C 332.343 -0.0795996 2.01543 0
M  V30 3577 C 332.656 -1.4038 1.36209 0
M  V30 3578 O 333.862 -2.04415 1.7868 0
M  V30 3579 C 332.318 -0.192363 3.59386 0
M  V30 3580 C 331.926 1.12367 4.33679 0
M  V30 3581 C 333.67 -0.699238 4.18701 0
M  V30 3582 C 331.577 0.974453 5.83317 0
M  V30 3583 H 330.507 -0.0335228 0.753254 0
M  V30 3584 H 333.158 0.611128 1.73025 0
M  V30 3585 H 331.54 -0.946974 3.84511 0
M  V30 3586 H 332.714 1.88958 4.20276 0
M  V30 3587 H 331.029 1.562 3.85993 0
M  V30 3588 H 333.626 -0.827978 5.28251 0
M  V30 3589 H 333.969 -1.69171 3.80377 0
M  V30 3590 H 334.502 -0.00188807 3.978 0
M  V30 3591 H 331.241 1.94042 6.26121 0
M  V30 3592 H 330.761 0.248998 5.99283 0
M  V30 3593 H 332.44 0.642867 6.43798 0
M  V30 3594 N 332.573 -1.56217 0.208337 0
M  V30 3595 C 333.984 -1.84243 -0.301904 0
M  V30 3596 C 334.335 -1.12939 -1.60434 0
M  V30 3597 O 333.46 -0.39461 -2.12772 0
M  V30 3598 C 334.055 -3.34231 -0.554543 0
M  V30 3599 C 332.614 -3.62621 -1.00912 0
M  V30 3600 C 331.761 -2.77224 -0.064933 0
M  V30 3601 H 334.712 -1.52712 0.431833 0
M  V30 3602 H 334.733 -3.5372 -1.40223 0
M  V30 3603 H 334.245 -3.86099 0.393561 0
M  V30 3604 H 332.346 -3.16197 -1.97104 0
M  V30 3605 H 332.459 -4.7071 -0.892674 0
M  V30 3606 H 330.823 -2.48256 -0.56929 0
M  V30 3607 H 331.606 -3.31887 0.877851 0
M  V30 3608 N 334.051 0.0651679 -1.57465 0
M  V30 3609 C 334.981 1.07693 -2.07182 0
M  V30 3610 C 335.962 1.39962 -0.966673 0
M  V30 3611 O 337.147 1.49475 -1.2398 0
M  V30 3612 C 334.277 2.3885 -2.52127 0
M  V30 3613 C 333.231 2.20917 -3.66579 0
M  V30 3614 C 332.557 3.57515 -3.97601 0
M  V30 3615 C 333.857 1.62493 -4.9638 0
M  V30 3616 H 335.551 0.663199 -2.91962 0
M  V30 3617 H 333.097 0.317569 -1.40455 0
M  V30 3618 H 335.05 3.09928 -2.85522 0
M  V30 3619 H 333.774 2.82215 -1.64384 0
M  V30 3620 H 332.433 1.52279 -3.33477 0
M  V30 3621 H 332.081 3.98463 -3.06979 0
M  V30 3622 H 331.781 3.46353 -4.74672 0
M  V30 3623 H 333.305 4.30013 -4.33499 0
M  V30 3624 H 334.719 2.23445 -5.27963 0
M  V30 3625 H 333.116 1.62009 -5.77818 0
M  V30 3626 H 334.186 0.587041 -4.81333 0
M  V30 3627 N 335.529 1.53961 0.336706 0
M  V30 3628 C 336.757 1.75483 1.09605 0
M  V30 3629 C 337.172 0.4972 1.82136 0
M  V30 3630 O 336.529 -0.53149 1.74589 0
M  V30 3631 C 336.58 2.93943 2.10428 0
M  V30 3632 O 336.301 4.14842 1.40846 0
M  V30 3633 C 337.802 3.27571 2.98684 0
M  V30 3634 H 335.022 0.586166 0.326574 0
M  V30 3635 H 337.566 2.00808 0.38683 0
M  V30 3636 H 335.721 2.70929 2.76905 0
M  V30 3637 H 336.135 4.81383 2.08255 0
M  V30 3638 H 337.609 4.13791 3.6535 0
M  V30 3639 H 338.086 2.44168 3.65074 0
M  V30 3640 H 338.692 3.52615 2.37787 0
M  V30 3641 N 337.007 -0.598083 1.45811 0
M  V30 3642 C 338.256 -1.35295 1.49594 0
M  V30 3643 C 338.569 -1.95057 0.145679 0
M  V30 3644 O 339.775 -2.71431 0.0612099 0
M  V30 3645 C 338.231 -2.45124 2.63519 0
M  V30 3646 C 337.839 -1.91732 4.04899 0
M  V30 3647 C 339.583 -3.2205 2.76558 0
M  V30 3648 C 337.49 -2.991 5.1019 0
M  V30 3649 H 336.42 -0.508552 0.556679 0
M  V30 3650 H 339.071 -0.639977 1.71978 0
M  V30 3651 H 337.453 -3.19149 2.34435 0
M  V30 3652 H 338.627 -1.24352 4.43704 0
M  V30 3653 H 336.942 -1.27522 3.96393 0
M  V30 3654 H 339.539 -4.0215 3.52391 0
M  V30 3655 H 339.882 -3.73663 1.83526 0
M  V30 3656 H 340.415 -2.55127 3.05213 0
M  V30 3657 H 337.154 -2.52393 6.04961 0
M  V30 3658 H 336.674 -3.65017 4.75944 0
M  V30 3659 H 338.353 -3.63318 5.35359 0
M  V30 3660 N 338.485 -1.33259 -0.841409 0
M  V30 3661 C 339.418 -1.1764 -1.95541 0
M  V30 3662 C 340.396 -0.072501 -1.62438 0
M  V30 3663 O 341.58 -0.23427 -1.87039 0
M  V30 3664 C 338.707 -0.803794 -3.29024 0
M  V30 3665 C 337.753 -1.91482 -3.81099 0
M  V30 3666 S 338.586 -3.52538 -4.03085 0
M  V30 3667 C 339.742 -3.17279 -5.39523 0
M  V30 3668 H 339.975 -2.11941 -2.08491 0
M  V30 3669 H 337.508 -1.18072 -0.9949 0
M  V30 3670 H 339.466 -0.595592 -4.06156 0
M  V30 3671 H 338.127 0.120574 -3.13868 0
M  V30 3672 H 337.32 -1.60742 -4.7768 0
M  V30 3673 H 336.922 -2.07956 -3.10854 0
M  V30 3674 H 339.214 -2.67946 -6.22263 0
M  V30 3675 H 340.157 -4.1293 -5.75234 0
M  V30 3676 H 340.565 -2.53943 -5.04156 0
M  V30 3677 N 339.963 1.05934 -1.16686 0
M  V30 3678 C 341.209 1.79065 -0.95203 0
M  V30 3679 C 341.542 1.87147 0.518629 0
M  V30 3680 O 340.817 1.36574 1.38484 0
M  V30 3681 C 341.1 3.23359 -1.58464 0
M  V30 3682 C 340.953 3.23336 -3.12689 0
M  V30 3683 C 342.272 4.21004 -1.28232 0
M  V30 3684 H 339.391 0.65005 -0.34728 0
M  V30 3685 H 342.033 1.23868 -1.44072 0
M  V30 3686 H 340.183 3.70493 -1.16908 0
M  V30 3687 H 341.855 2.84336 -3.6325 0
M  V30 3688 H 340.098 2.61886 -3.4583 0
M  V30 3689 H 340.769 4.25144 -3.52075 0
M  V30 3690 H 343.245 3.8233 -1.64203 0
M  V30 3691 H 342.121 5.20225 -1.75092 0
M  V30 3692 H 342.382 4.41639 -0.201791 0
M  V30 3693 N 341.441 0.965919 1.2453 0
M  V30 3694 C 342.69 0.622437 1.91856 0
M  V30 3695 C 343.003 -0.846006 1.76358 0
M  V30 3696 O 344.209 -1.29993 2.38357 0
M  V30 3697 C 342.665 1.0626 3.43856 0
M  V30 3698 C 342.273 2.55437 3.68043 0
M  V30 3699 C 344.017 0.792183 4.17043 0
M  V30 3700 C 341.924 2.93196 5.13605 0
M  V30 3701 H 340.854 0.229092 0.718354 0
M  V30 3702 H 343.505 1.17189 1.41206 0
M  V30 3703 H 341.887 0.441476 3.93531 0
M  V30 3704 H 343.061 3.22665 3.28974 0
M  V30 3705 H 341.376 2.8007 3.08139 0
M  V30 3706 H 343.973 1.05031 5.24283 0
M  V30 3707 H 344.316 -0.271584 4.15413 0
M  V30 3708 H 344.849 1.37419 3.73311 0
M  V30 3709 H 341.588 3.98636 5.20355 0
M  V30 3710 H 341.108 2.30651 5.53679 0
M  V30 3711 H 342.787 2.83004 5.81823 0
M  V30 3712 N 342.919 -1.39368 0.735821 0
M  V30 3713 C 344.147 -2.04795 0.294393 0
M  V30 3714 C 344.562 -1.55478 -1.07107 0
M  V30 3715 O 343.919 -0.720038 -1.67695 0
M  V30 3716 C 343.97 -3.6035 0.288071 0
M  V30 3717 O 343.691 -4.07852 1.59963 0
M  V30 3718 C 345.192 -4.42976 -0.169422 0
M  V30 3719 H 342.412 -0.658571 0.128551 0
M  V30 3720 H 344.956 -1.78399 0.999701 0
M  V30 3721 H 343.111 -3.85645 -0.368355 0
M  V30 3722 H 343.525 -5.02181 1.51375 0
M  V30 3723 H 344.999 -5.51864 -0.122687 0
M  V30 3724 H 345.476 -4.22068 -1.21472 0
M  V30 3725 H 346.082 -4.22832 0.457469 0
M  V30 3726 N 344.397 -0.483516 -1.5 0
M  V30 3727 C 345.627 0.0643896 -2.065 0
M  V30 3728 C 346.035 1.32949 -1.34615 0
M  V30 3729 O 345.378 1.79003 -0.412756 0
M  V30 3730 C 345.44 0.405983 -3.572 0
M  V30 3731 C 345.104 -0.758875 -4.50655 0
M  V30 3732 C 346.101 -1.64445 -4.93208 0
M  V30 3733 C 343.786 -0.952725 -4.93182 0
M  V30 3734 C 345.78 -2.70818 -5.77006 0
M  V30 3735 C 343.467 -2.01966 -5.76761 0
M  V30 3736 C 344.465 -2.89574 -6.18576 0
M  V30 3737 O 344.153 -3.94429 -7.00486 0
M  V30 3738 H 343.885 -0.00934786 -0.675935 0
M  V30 3739 H 346.439 -0.674959 -1.93993 0
M  V30 3740 H 344.669 1.19869 -3.67652 0
M  V30 3741 H 346.358 0.890433 -3.96013 0
M  V30 3742 H 347.124 -1.50643 -4.61012 0
M  V30 3743 H 343.003 -0.280247 -4.60147 0
M  V30 3744 H 346.547 -3.3923 -6.09565 0
M  V30 3745 H 342.444 -2.1577 -6.0837 0
M  V30 3746 H 343.212 -3.91568 -7.1876 0
M  V30 3747 N 345.875 1.56104 -0.216619 0
M  V30 3748 C 347.115 2.00074 0.418322 0
M  V30 3749 C 347.479 1.10098 1.57297 0
M  V30 3750 O 348.68 1.43393 2.27359 0
M  V30 3751 C 346.951 3.47231 0.846477 0
M  V30 3752 S 348.51 4.13223 1.47622 0
M  V30 3753 H 345.328 0.698457 0.132962 0
M  V30 3754 H 347.93 1.92784 -0.324748 0
M  V30 3755 H 346.634 4.104 -0.0036319 0
M  V30 3756 H 346.165 3.58384 1.62248 0
M  V30 3757 H 348.18 4.12005 2.76526 0
M  V30 3758 N 347.353 -0.0568162 1.57498 0
M  V30 3759 C 348.283 -1.06593 2.0775 0
M  V30 3760 C 349.264 -1.39448 0.974082 0
M  V30 3761 O 350.449 -1.48815 1.24771 0
M  V30 3762 C 347.579 -2.37509 2.5339 0
M  V30 3763 C 346.533 -2.1897 3.67745 0
M  V30 3764 C 345.859 -3.55402 3.99492 0
M  V30 3765 C 347.159 -1.59859 4.97235 0
M  V30 3766 H 348.853 -0.647706 2.9231 0
M  V30 3767 H 346.399 -0.310116 1.40621 0
M  V30 3768 H 348.352 -3.08409 2.87162 0
M  V30 3769 H 347.076 -2.8134 1.65878 0
M  V30 3770 H 345.735 -1.50508 3.3428 0
M  V30 3771 H 345.383 -3.9683 3.09088 0
M  V30 3772 H 345.083 -3.43831 4.76502 0
M  V30 3773 H 346.607 -4.27708 4.35773 0
M  V30 3774 H 348.021 -2.20642 5.29141 0
M  V30 3775 H 346.418 -1.58942 5.78669 0
M  V30 3776 H 347.488 -0.561506 4.81638 0
M  V30 3777 N 348.832 -1.54138 -0.328536 0
M  V30 3778 C 350.06 -1.76062 -1.08673 0
M  V30 3779 C 350.475 -0.506852 -1.81869 0
M  V30 3780 O 349.832 0.522223 -1.74869 0
M  V30 3781 C 349.883 -2.95054 -2.08866 0
M  V30 3782 O 349.604 -4.15583 -1.38644 0
M  V30 3783 C 351.105 -3.2915 -2.96943 0
M  V30 3784 H 348.325 -0.587889 -0.323461 0
M  V30 3785 H 350.869 -2.0101 -0.376175 0
M  V30 3786 H 349.024 -2.72394 -2.75464 0
M  V30 3787 H 349.438 -4.82481 -2.05699 0
M  V30 3788 H 350.912 -4.15723 -3.63151 0
M  V30 3789 H 351.389 -2.461 -3.63774 0
M  V30 3790 H 351.995 -3.53871 -2.35914 0
M  V30 3791 N 350.31 0.590341 -1.46126 0
M  V30 3792 C 351.559 1.34499 -1.50309 0
M  V30 3793 C 351.872 1.94977 -0.156021 0
M  V30 3794 O 353.078 2.71395 -0.0756037 0
M  V30 3795 C 351.534 2.43723 -2.64815 0
M  V30 3796 C 351.142 1.89582 -4.0591 0
M  V30 3797 C 352.886 3.20579 -2.78262 0
M  V30 3798 C 350.793 2.9639 -5.11769 0
M  V30 3799 H 349.723 0.505593 -0.559368 0
M  V30 3800 H 352.374 0.630848 -1.72315 0
M  V30 3801 H 350.756 3.17902 -2.36124 0
M  V30 3802 H 351.93 1.21997 -4.44357 0
M  V30 3803 H 350.245 1.25418 -3.97063 0
M  V30 3804 H 352.842 4.00276 -3.54519 0
M  V30 3805 H 353.185 3.72684 -1.85505 0
M  V30 3806 H 353.718 2.53505 -3.06562 0
M  V30 3807 H 350.457 2.49181 -6.06291 0
M  V30 3808 H 349.977 3.62487 -4.77873 0
M  V30 3809 H 351.656 3.60474 -5.37278 0
M  V30 3810 N 351.788 1.33704 0.83433 0
M  V30 3811 C 353.018 1.28281 1.6195 0
M  V30 3812 C 353.426 -0.147603 1.88623 0
M  V30 3813 O 352.769 -1.1016 1.47005 0
M  V30 3814 C 352.831 1.99386 2.99141 0
M  V30 3815 C 352.495 3.48681 2.95416 0
M  V30 3816 C 353.492 4.438 2.70809 0
M  V30 3817 C 351.177 3.90925 3.15409 0
M  V30 3818 C 353.171 5.79138 2.66229 0
M  V30 3819 C 350.858 5.26366 3.10454 0
M  V30 3820 C 351.856 6.20284 2.85895 0
M  V30 3821 O 351.544 7.53245 2.80852 0
M  V30 3822 H 351.276 0.44315 0.510484 0
M  V30 3823 H 353.83 1.76711 1.04702 0
M  V30 3824 H 352.06 1.45554 3.58261 0
M  V30 3825 H 353.749 1.87403 3.60049 0
M  V30 3826 H 354.515 4.12485 2.5511 0
M  V30 3827 H 350.394 3.18229 3.33543 0
M  V30 3828 H 353.938 6.52416 2.4698 0
M  V30 3829 H 349.835 5.57304 3.25703 0
M  V30 3830 H 350.603 7.62846 2.96661 0
M  V30 3831 N 353.266 -1.05314 1.17247 0
M  V30 3832 C 354.512 -1.78557 0.961513 0
M  V30 3833 C 354.845 -1.87419 -0.508697 0
M  V30 3834 O 354.12 -1.37307 -1.37757 0
M  V30 3835 C 354.403 -3.22514 1.60176 0
M  V30 3836 C 354.256 -3.21673 3.14399 0
M  V30 3837 C 355.575 -4.20318 1.30463 0
M  V30 3838 H 352.694 -0.6482 0.350723 0
M  V30 3839 H 355.336 -1.23102 1.44727 0
M  V30 3840 H 353.486 -3.69867 1.18871 0
M  V30 3841 H 355.158 -2.82405 3.64753 0
M  V30 3842 H 353.401 -2.60048 3.47214 0
M  V30 3843 H 354.072 -4.23271 3.54324 0
M  V30 3844 H 356.548 -3.81454 1.66229 0
M  V30 3845 H 355.424 -5.19289 1.77848 0
M  V30 3846 H 355.685 -4.41526 0.22521 0
M  V30 3847 N 354.744 -0.972509 -1.24016 0
M  V30 3848 C 355.674 -0.525548 -2.27509 0
M  V30 3849 C 356.655 0.437262 -1.64384 0
M  V30 3850 O 357.84 0.332343 -1.91335 0
M  V30 3851 C 354.97 0.180448 -3.46831 0
M  V30 3852 C 353.924 -0.698859 -4.22256 0
M  V30 3853 C 353.25 0.138903 -5.3452 0
M  V30 3854 C 354.55 -1.98582 -4.83076 0
M  V30 3855 H 356.244 -1.39058 -2.65148 0
M  V30 3856 H 353.79 -0.67009 -1.27459 0
M  V30 3857 H 355.743 0.504387 -4.18371 0
M  V30 3858 H 354.467 1.07987 -3.08231 0
M  V30 3859 H 353.126 -1.00614 -3.52523 0
M  V30 3860 H 352.774 1.03862 -4.9216 0
M  V30 3861 H 352.474 -0.446259 -5.85903 0
M  V30 3862 H 353.998 0.457404 -6.08884 0
M  V30 3863 H 355.412 -1.72715 -5.46665 0
M  V30 3864 H 353.809 -2.5181 -5.44713 0
M  V30 3865 H 354.879 -2.67769 -4.04262 0
M  V30 3866 N 356.222 1.38976 -0.743202 0
M  V30 3867 C 357.638 1.53984 -0.419664 0
M  V30 3868 C 357.838 1.70837 1.0685 0
M  V30 3869 O 356.894 1.7135 1.8546 0
M  V30 3870 C 358.207 2.75287 -1.20985 0
M  V30 3871 C 359.755 2.89129 -1.19889 0
M  V30 3872 C 360.23 4.13381 -1.97181 0
M  V30 3873 N 361.721 4.20437 -1.94389 0
M  V30 3874 C 362.456 5.15547 -2.50996 0
M  V30 3875 N 361.952 6.16395 -3.16274 0
M  V30 3876 N 363.745 5.07822 -2.40984 0
M  V30 3877 H 355.896 1.26285 -1.7078 0
M  V30 3878 H 358.159 0.612689 -0.723406 0
M  V30 3879 H 357.865 2.69204 -2.26323 0
M  V30 3880 H 357.739 3.68184 -0.819759 0
M  V30 3881 H 360.126 2.947 -0.153606 0
M  V30 3882 H 360.207 1.97272 -1.62841 0
M  V30 3883 H 359.851 4.08572 -3.01714 0
M  V30 3884 H 359.781 5.04298 -1.51629 0
M  V30 3885 H 362.272 3.48205 -1.46839 0
M  V30 3886 H 362.585 6.85443 -3.56915 0
M  V30 3887 H 360.93 6.16758 -3.20367 0
M  V30 3888 H 364.121 4.27973 -1.89622 0
M  V30 3889 H 364.294 5.81767 -2.85397 0
M  V30 3890 N 357.7 0.491464 1.49741 0
M  V30 3891 C 359.116 0.146835 1.58923 0
M  V30 3892 C 359.316 -1.34804 1.49767 0
M  V30 3893 O 358.372 -2.12317 1.36667 0
M  V30 3894 C 359.685 0.715157 2.92072 0
M  V30 3895 C 361.233 0.680407 3.05515 0
M  V30 3896 C 361.708 1.22663 4.41269 0
M  V30 3897 N 363.199 1.18691 4.47735 0
M  V30 3898 C 363.934 1.57984 5.51207 0
M  V30 3899 N 363.43 2.04824 6.6183 0
M  V30 3900 N 365.223 1.49459 5.41866 0
M  V30 3901 H 357.374 1.46347 1.53936 0
M  V30 3902 H 359.637 0.606453 0.728642 0
M  V30 3903 H 359.343 1.76317 3.04311 0
M  V30 3904 H 359.217 0.17018 3.76816 0
M  V30 3905 H 361.604 -0.358743 2.92911 0
M  V30 3906 H 361.685 1.26242 2.22478 0
M  V30 3907 H 361.329 2.26451 4.54623 0
M  V30 3908 H 361.259 0.620637 5.2293 0
M  V30 3909 H 363.75 0.843605 3.68364 0
M  V30 3910 H 364.063 2.32901 7.3687 0
M  V30 3911 H 362.408 2.08791 6.62896 0
M  V30 3912 H 365.599 1.12692 4.54333 0
M  V30 3913 H 365.772 1.80406 6.22381 0
M  V30 3914 N 359.178 -1.55987 0.224894 0
M  V30 3915 C 360.11 -2.17722 -0.716224 0
M  V30 3916 C 361.123 -1.14723 -1.15509 0
M  V30 3917 O 362.312 -1.41688 -1.08567 0
M  V30 3918 C 359.412 -2.74873 -1.98238 0
M  V30 3919 C 358.585 -4.03074 -1.69853 0
M  V30 3920 C 357.644 -4.44757 -2.81208 0
M  V30 3921 O 356.67 -5.11587 -2.49534 0
M  V30 3922 N 357.872 -4.10716 -4.10235 0
M  V30 3923 H 360.637 -2.99109 -0.188123 0
M  V30 3924 H 358.198 -1.6184 0.0440123 0
M  V30 3925 H 360.19 -2.99727 -2.7193 0
M  V30 3926 H 358.76 -1.9777 -2.42086 0
M  V30 3927 H 357.98 -3.86041 -0.797875 0
M  V30 3928 H 359.268 -4.86701 -1.48324 0
M  V30 3929 H 358.666 -3.57019 -4.38809 0
M  V30 3930 H 357.223 -4.40455 -4.80461 0
M  V30 3931 N 360.656 0.0484629 -1.57525 0
M  V30 3932 C 361.619 1.03956 -2.04269 0
M  V30 3933 C 362.619 1.30211 -0.943496 0
M  V30 3934 O 363.809 1.25539 -1.20771 0
M  V30 3935 C 360.941 2.37742 -2.44319 0
M  V30 3936 H 362.134 0.636182 -2.93075 0
M  V30 3937 H 359.687 0.294811 -1.53494 0
M  V30 3938 H 360.422 2.82866 -1.5861 0
M  V30 3939 H 360.207 2.20021 -3.24551 0
M  V30 3940 H 361.697 3.08936 -2.80978 0
M  V30 3941 N 362.134 1.5431 0.320358 0
M  V30 3942 C 363.064 1.86912 1.3995 0
M  V30 3943 C 364.045 0.726211 1.53819 0
M  V30 3944 O 365.23 0.980233 1.67646 0
M  V30 3945 C 362.36 2.09932 2.7667 0
M  V30 3946 C 361.314 3.25776 2.77586 0
M  V30 3947 C 360.64 3.34173 4.17412 0
M  V30 3948 C 361.94 4.6335 2.41048 0
M  V30 3949 H 363.634 2.77292 1.12914 0
M  V30 3950 H 361.18 1.33421 0.541738 0
M  V30 3951 H 363.133 2.31324 3.52232 0
M  V30 3952 H 361.857 1.16304 3.0519 0
M  V30 3953 H 360.516 3.04276 2.04479 0
M  V30 3954 H 360.164 2.38098 4.43078 0
M  V30 3955 H 359.864 4.12033 4.18931 0
M  V30 3956 H 361.388 3.57803 4.94782 0
M  V30 3957 H 362.802 4.84602 3.06324 0
M  V30 3958 H 361.199 5.43782 2.53813 0
M  V30 3959 H 362.269 4.65381 1.36193 0
M  V30 3960 N 363.613 -0.582584 1.46437 0
M  V30 3961 C 364.546 -1.70633 1.51524 0
M  V30 3962 C 365.524 -1.58349 0.369351 0
M  V30 3963 O 366.708 -1.79563 0.573516 0
M  V30 3964 C 363.835 -3.08687 1.39392 0
M  V30 3965 C 362.881 -3.3949 2.58164 0
M  V30 3966 S 363.714 -3.31548 4.20519 0
M  V30 3967 C 364.87 -4.72139 4.10896 0
M  V30 3968 H 365.103 -1.66058 2.46601 0
M  V30 3969 H 362.636 -0.761337 1.34324 0
M  V30 3970 H 364.594 -3.8833 1.33079 0
M  V30 3971 H 363.255 -3.10751 0.457436 0
M  V30 3972 H 362.448 -4.40071 2.45669 0
M  V30 3973 H 362.05 -2.67415 2.61468 0
M  V30 3974 H 364.342 -5.62527 3.77584 0
M  V30 3975 H 365.285 -4.89692 5.11476 0
M  V30 3976 H 365.693 -4.48995 3.42146 0
M  V30 3977 N 365.091 -1.34144 -0.827227 0
M  V30 3978 C 366.021 -1.28005 -1.95287 0
M  V30 3979 C 367.002 -0.158321 -1.69362 0
M  V30 3980 O 368.187 -0.349987 -1.9102 0
M  V30 3981 C 365.317 -1.03036 -3.31664 0
M  V30 3982 C 364.271 -2.11628 -3.72019 0
M  V30 3983 C 363.597 -1.71854 -5.0633 0
M  V30 3984 C 364.897 -3.53417 -3.8457 0
M  V30 3985 H 366.591 -2.22187 -2.00682 0
M  V30 3986 H 364.137 -1.0696 -0.964135 0
M  V30 3987 H 366.09 -0.973863 -4.09993 0
M  V30 3988 H 364.814 -0.0529391 -3.26557 0
M  V30 3989 H 363.473 -2.16339 -2.95961 0
M  V30 3990 H 363.121 -0.727841 -4.97706 0
M  V30 3991 H 362.821 -2.44531 -5.34302 0
M  V30 3992 H 364.345 -1.67692 -5.87122 0
M  V30 3993 H 365.759 -3.51142 -4.5318 0
M  V30 3994 H 364.156 -4.24679 -4.2399 0
M  V30 3995 H 365.226 -3.91072 -2.86689 0
M  V30 3996 N 366.569 1.04691 -1.17803 0
M  V30 3997 C 367.499 2.14494 -0.92275 0
M  V30 3998 C 368.48 1.69546 0.137179 0
M  V30 3999 O 369.665 1.94195 -0.0141108 0
M  V30 4000 C 366.795 3.44491 -0.440803 0
M  V30 4001 C 365.749 4.03031 -1.4405 0
M  V30 4002 C 365.075 5.28432 -0.81631 0
M  V30 4003 C 366.375 4.39932 -2.81527 0
M  V30 4004 H 368.069 2.36107 -1.84103 0
M  V30 4005 H 365.615 1.1347 -0.886599 0
M  V30 4006 H 367.568 4.2066 -0.249602 0
M  V30 4007 H 366.292 3.22546 0.513025 0
M  V30 4008 H 364.951 3.28937 -1.61853 0
M  V30 4009 H 364.599 5.02792 0.144511 0
M  V30 4010 H 364.299 5.68559 -1.48371 0
M  V30 4011 H 365.823 6.07284 -0.635496 0
M  V30 4012 H 367.237 5.07113 -2.67412 0
M  V30 4013 H 365.634 4.9109 -3.44892 0
M  V30 4014 H 366.704 3.50045 -3.35554 0
M  V30 4015 N 368.047 0.979072 1.23499 0
M  V30 4016 C 368.997 0.489378 2.22686 0
M  V30 4017 C 369.981 -0.434871 1.54912 0
M  V30 4018 O 371.173 -0.263941 1.75021 0
M  V30 4019 C 368.302 -0.208178 3.42668 0
M  V30 4020 C 367.388 0.735563 4.17672 0
M  V30 4021 N 367.779 1.87763 4.69658 0
M  V30 4022 C 366.077 0.548625 4.42613 0
M  V30 4023 C 366.778 2.46886 5.26709 0
M  V30 4024 N 365.754 1.75287 5.14563 0
M  V30 4025 H 369.556 1.36062 2.60508 0
M  V30 4026 H 367.07 0.83958 1.39014 0
M  V30 4027 H 369.067 -0.576295 4.12898 0
M  V30 4028 H 367.727 -1.07572 3.06363 0
M  V30 4029 H 368.738 2.25885 4.66043 0
M  V30 4030 H 365.415 -0.274006 4.166 0
M  V30 4031 H 366.805 3.43326 5.77561 0
M  V30 4032 N 369.525 -1.3858 0.750561 0
M  V30 4033 C 370.773 -1.99789 0.30477 0
M  V30 4034 C 371.094 -1.59874 -1.11649 0
M  V30 4035 O 370.364 -0.85417 -1.76297 0
M  V30 4036 H 368.944 -0.738902 0.109694 0
M  V30 4037 H 371.606 -1.69391 0.963983 0
M  V30 4038 H 370.702 -3.09952 0.365499 0
M  V30 4039 N 371.003 -0.499398 -1.49478 0
M  V30 4040 C 371.953 0.299103 -2.2603 0
M  V30 4041 C 372.937 0.936934 -1.30807 0
M  V30 4042 O 374.129 0.844798 -1.55538 0
M  V30 4043 C 371.258 1.36391 -3.15044 0
M  V30 4044 C 370.344 0.732398 -4.17728 0
M  V30 4045 N 370.735 -0.164028 -5.05534 0
M  V30 4046 C 369.033 0.993162 -4.34801 0
M  V30 4047 C 369.734 -0.525345 -5.79323 0
M  V30 4048 N 368.71 0.106348 -5.43496 0
M  V30 4049 H 372.512 -0.391003 -2.91287 0
M  V30 4050 H 370.026 -0.31537 -1.59308 0
M  V30 4051 H 372.023 1.94939 -3.68516 0
M  V30 4052 H 370.683 2.05571 -2.51338 0
M  V30 4053 H 371.694 -0.534736 -5.15132 0
M  V30 4054 H 368.371 1.67783 -3.82302 0
M  V30 4055 H 369.761 -1.25862 -6.60006 0
M  V30 4056 N 372.481 1.55866 -0.233164 0
M  V30 4057 C 373.709 2.02998 0.399905 0
M  V30 4058 C 374.124 1.11274 1.52524 0
M  V30 4059 O 373.481 0.124528 1.82075 0
M  V30 4060 C 373.532 3.4958 0.920639 0
M  V30 4061 O 373.253 4.37808 -0.159834 0
M  V30 4062 C 374.754 4.12411 1.62578 0
M  V30 4063 H 371.974 0.664006 0.0966281 0
M  V30 4064 H 374.518 2.0143 -0.353013 0
M  V30 4065 H 372.673 3.51727 1.62379 0
M  V30 4066 H 373.087 5.23981 0.23337 0
M  V30 4067 H 374.561 5.16711 1.94201 0
M  V30 4068 H 375.038 3.5809 2.54299 0
M  V30 4069 H 375.644 4.14148 0.967553 0
M  V30 4070 N 373.959 -0.0401083 1.57549 0
M  V30 4071 C 374.869 -1.06133 2.0922 0
M  V30 4072 C 375.885 -1.40356 1.0284 0
M  V30 4073 O 377.061 -1.49897 1.34509 0
M  V30 4074 C 374.126 -2.34658 2.55218 0
M  V30 4075 C 373.187 -2.07117 3.76033 0
M  V30 4076 C 372.42 -3.29514 4.19829 0
M  V30 4077 O 372.643 -4.39794 3.63232 0
M  V30 4078 O 371.577 -3.15863 5.12362 0
M  V30 4079 H 375.403 -0.652244 2.96613 0
M  V30 4080 H 372.988 -0.256368 1.47184 0
M  V30 4081 H 374.87 -3.10239 2.85184 0
M  V30 4082 H 373.545 -2.74883 1.70941 0
M  V30 4083 H 372.452 -1.29139 3.51104 0
M  V30 4084 H 373.785 -1.71754 4.61261 0
M  V30 4085 N 375.437 -1.54477 -0.31217 0
M  V30 4086 C 376.347 -1.87695 -1.4074 0
M  V30 4087 C 377.363 -0.769975 -1.56036 0
M  V30 4088 O 378.539 -1.06537 -1.70915 0
M  V30 4089 C 375.604 -2.10755 -2.75287 0
M  V30 4090 C 374.665 -3.34514 -2.69071 0
M  V30 4091 C 373.898 -3.56465 -3.97201 0
M  V30 4092 O 374.121 -2.81637 -4.96021 0
M  V30 4093 O 373.055 -4.49964 -3.9977 0
M  V30 4094 H 376.881 -2.80849 -1.15574 0
M  V30 4095 H 374.466 -1.40526 -0.507228 0
M  V30 4096 H 376.348 -2.27188 -3.54913 0
M  V30 4097 H 375.023 -1.20788 -3.0032 0
M  V30 4098 H 373.93 -3.23456 -1.87955 0
M  V30 4099 H 375.263 -4.24575 -2.48992 0
M  V30 4100 N 376.915 0.57481 -1.46744 0
M  V30 4101 C 378.326 1.15695 -1.46532 0
M  V30 4102 C 378.677 1.95068 -0.210425 0
M  V30 4103 O 377.802 2.05241 0.685944 0
M  V30 4104 C 378.397 2.1048 -2.65487 0
M  V30 4105 C 376.956 2.64002 -2.68291 0
M  V30 4106 C 376.103 1.40026 -2.39349 0
M  V30 4107 H 379.054 0.362325 -1.54509 0
M  V30 4108 H 379.075 2.94074 -2.41455 0
M  V30 4109 H 378.587 1.52683 -3.56805 0
M  V30 4110 H 376.688 3.25646 -1.81067 0
M  V30 4111 H 376.801 3.06197 -3.68483 0
M  V30 4112 H 375.165 1.70106 -1.89568 0
M  V30 4113 H 375.948 0.840485 -3.32852 0
M  V30 4114 N 378.394 1.34581 0.820102 0
M  V30 4115 C 379.805 1.24298 1.39309 0
M  V30 4116 C 380.156 -0.130351 1.95767 0
M  V30 4117 O 379.281 -1.0308 1.90272 0
M  V30 4118 C 379.876 2.25054 2.53251 0
M  V30 4119 C 378.435 2.18552 3.0645 0
M  V30 4120 C 377.582 2.11503 1.79337 0
M  V30 4121 H 380.533 1.45906 0.624262 0
M  V30 4122 H 380.554 1.86917 3.31425 0
M  V30 4123 H 380.066 3.24996 2.1213 0
M  V30 4124 H 378.167 1.21976 3.52069 0
M  V30 4125 H 378.28 3.0993 3.65349 0
M  V30 4126 H 376.644 1.57268 2.00347 0
M  V30 4127 H 377.427 3.13284 1.40386 0
M  V30 4128 N 379.872 -1.04064 1.18357 0
M  V30 4129 C 381.12 -1.76915 0.977013 0
M  V30 4130 C 381.441 -1.88624 -0.494577 0
M  V30 4131 O 380.711 -1.41125 -1.3587 0
M  V30 4132 H 379.291 -0.65535 0.358504 0
M  V30 4133 H 381.953 -1.25592 1.49039 0
M  V30 4134 H 381.049 -2.78178 1.41504 0
M  V30 4135 N 381.35 -0.985608 -1.22978 0
M  V30 4136 C 382.28 -0.549649 -2.26939 0
M  V30 4137 C 383.261 0.419803 -1.64838 0
M  V30 4138 O 384.446 0.31203 -1.91677 0
M  V30 4139 C 381.576 0.143652 -3.47003 0
M  V30 4140 C 380.53 -0.743606 -4.21491 0
M  V30 4141 C 379.856 0.0822027 -5.34637 0
M  V30 4142 C 381.156 -2.03694 -4.80943 0
M  V30 4143 H 382.85 -1.41862 -2.63658 0
M  V30 4144 H 380.396 -0.683571 -1.26741 0
M  V30 4145 H 382.349 0.459985 -4.18882 0
M  V30 4146 H 381.073 1.04711 -3.09359 0
M  V30 4147 H 379.732 -1.04347 -3.51436 0
M  V30 4148 H 379.38 0.986359 -4.93234 0
M  V30 4149 H 379.08 -0.508377 -5.85397 0
M  V30 4150 H 380.604 0.392797 -6.09335 0
M  V30 4151 H 382.018 -1.78504 -5.44802 0
M  V30 4152 H 380.415 -2.57573 -5.42011 0
M  V30 4153 H 381.485 -2.72042 -4.01399 0
M  V30 4154 N 382.828 1.3818 -0.7579 0
M  V30 4155 C 384.053 2.04827 -0.325679 0
M  V30 4156 C 384.478 1.56788 1.03919 0
M  V30 4157 O 383.836 0.721811 1.66312 0
M  V30 4158 C 383.884 3.58774 -0.362447 0
M  V30 4159 O 382.988 4.07372 0.642033 0
M  V30 4160 H 382.329 0.64833 -0.143402 0
M  V30 4161 H 384.859 1.7677 -1.03023 0
M  V30 4162 H 384.869 4.07434 -0.214844 0
M  V30 4163 H 383.544 3.93096 -1.35824 0
M  V30 4164 H 382.121 3.70068 0.458688 0
M  V30 4165 N 384.306 0.507319 1.49211 0
M  V30 4166 C 385.236 -0.256939 2.32082 0
M  V30 4167 C 386.217 -0.956609 1.40652 0
M  V30 4168 O 387.402 -0.946788 1.69557 0
M  V30 4169 C 384.532 -1.31802 3.21318 0
M  V30 4170 C 383.486 -0.737855 4.21592 0
M  V30 4171 C 382.812 -1.89992 4.99807 0
M  V30 4172 C 384.112 0.275325 5.21574 0
M  V30 4173 H 385.806 0.434798 2.96226 0
M  V30 4174 H 383.352 0.210546 1.42452 0
M  V30 4175 H 385.305 -1.86045 3.78107 0
M  V30 4176 H 384.029 -2.03903 2.5513 0
M  V30 4177 H 382.688 -0.217126 3.65956 0
M  V30 4178 H 382.336 -2.60877 4.30061 0
M  V30 4179 H 382.036 -1.51777 5.6766 0
M  V30 4180 H 383.56 -2.44657 5.59442 0
M  V30 4181 H 384.974 -0.179193 5.7302 0
M  V30 4182 H 383.371 0.573649 5.97352 0
M  V30 4183 H 384.441 1.18903 4.70096 0
M  V30 4184 N 385.784 -1.5574 0.241426 0
M  V30 4185 C 387.061 -1.90704 -0.434881 0
M  V30 4186 C 387.441 -1.16145 -1.76277 0
M  V30 4187 O 386.789 -0.277152 -2.26813 0
M  V30 4188 C 386.999 -3.43657 -0.608343 0
M  V30 4189 C 388.347 -4.14806 -0.906725 0
M  V30 4190 O 389.371 -3.49366 -0.694408 0
M  V30 4191 O 388.23 -5.30548 -1.31075 0
M  V30 4192 H 385.324 -0.793592 -0.23268 0
M  V30 4193 H 387.87 -1.67288 0.285086 0
M  V30 4194 H 386.642 -3.89927 0.327505 0
M  V30 4195 H 386.265 -3.72918 -1.37906 0
M  V30 4196 N 387.262 0.0317525 -1.57568 0
M  V30 4197 C 388.509 0.723104 -1.89149 0
M  V30 4198 C 388.837 1.75504 -0.838377 0
M  V30 4199 O 388.092 1.95037 0.160982 0
M  V30 4200 C 388.391 1.43167 -3.27472 0
M  V30 4201 C 388.057 0.535972 -4.47703 0
M  V30 4202 C 386.719 0.289262 -4.8033 0
M  V30 4203 C 389.071 -0.0826125 -5.21135 0
M  V30 4204 C 386.399 -0.584853 -5.83778 0
M  V30 4205 C 388.751 -0.944414 -6.25511 0
M  V30 4206 C 387.415 -1.20061 -6.56614 0
M  V30 4207 H 386.685 0.264602 -0.692146 0
M  V30 4208 H 389.332 -0.0169496 -1.91492 0
M  V30 4209 H 387.637 2.24497 -3.21105 0
M  V30 4210 H 389.334 1.97209 -3.49155 0
M  V30 4211 H 385.924 0.738414 -4.22191 0
M  V30 4212 H 390.108 0.0950302 -4.96209 0
M  V30 4213 H 385.364 -0.79168 -6.06253 0
M  V30 4214 H 389.538 -1.43026 -6.81554 0
M  V30 4215 H 387.165 -1.87967 -7.36595 0
M  V30 4216 N 388.74 1.54641 0.303973 0
M  V30 4217 C 389.67 1.88386 1.3796 0
M  V30 4218 C 390.651 0.742485 1.5304 0
M  V30 4219 O 391.836 0.997959 1.66597 0
M  V30 4220 C 388.966 2.12854 2.74427 0
M  V30 4221 C 387.92 3.28702 2.74115 0
M  V30 4222 C 387.246 3.38582 4.13844 0
M  V30 4223 C 388.546 4.65881 2.3612 0
M  V30 4224 H 390.24 2.78474 1.09966 0
M  V30 4225 H 387.786 1.33988 0.527556 0
M  V30 4226 H 389.739 2.35047 3.49758 0
M  V30 4227 H 388.463 1.19535 3.03939 0
M  V30 4228 H 387.122 3.06428 2.0124 0
M  V30 4229 H 386.77 2.42784 4.40528 0
M  V30 4230 H 386.47 4.16453 4.14537 0
M  V30 4231 H 387.994 3.63031 4.90959 0
M  V30 4232 H 389.408 4.87823 3.01167 0
M  V30 4233 H 387.805 5.46444 2.48031 0
M  V30 4234 H 388.875 4.66799 1.3125 0
M  V30 4235 N 390.218 -0.567019 1.47046 0
M  V30 4236 C 391.165 -1.67489 1.58796 0
M  V30 4237 C 392.135 -1.60399 0.43144 0
M  V30 4238 O 393.32 -1.79378 0.650233 0
M  V30 4239 C 390.46 -3.05821 1.59899 0
M  V30 4240 C 389.573 -3.2342 2.86397 0
M  V30 4241 C 388.708 -4.52093 2.789 0
M  V30 4242 C 387.747 -4.6309 4.00267 0
M  V30 4243 N 386.884 -5.83106 3.91064 0
M  V30 4244 H 391.724 -1.56785 2.53422 0
M  V30 4245 H 389.261 -0.763896 1.2571 0
M  V30 4246 H 391.219 -3.8591 1.58522 0
M  V30 4247 H 389.849 -3.15384 0.687929 0
M  V30 4248 H 388.901 -2.3683 2.97684 0
M  V30 4249 H 390.213 -3.27412 3.76301 0
M  V30 4250 H 389.367 -5.4043 2.75718 0
M  V30 4251 H 388.106 -4.50565 1.86662 0
M  V30 4252 H 387.111 -3.73168 4.03765 0
M  V30 4253 H 388.336 -4.66386 4.93621 0
M  V30 4254 H 386.282 -5.82546 3.01623 0
M  V30 4255 H 386.199 -5.88434 4.74638 0
M  V30 4256 H 387.467 -6.73831 3.91882 0
M  V30 4257 N 391.696 -1.35014 -0.812953 0
M  V30 4258 C 392.936 -1.29289 -1.58315 0
M  V30 4259 C 393.3 0.132727 -1.91541 0
M  V30 4260 O 394.501 0.314269 -2.66957 0
M  V30 4261 C 392.772 -2.1681 -2.84127 0
M  V30 4262 S 394.331 -2.28538 -3.74588 0
M  V30 4263 H 391.149 -0.459569 -0.542511 0
M  V30 4264 H 393.751 -1.70336 -0.959467 0
M  V30 4265 H 392.455 -3.19379 -2.57731 0
M  V30 4266 H 391.986 -1.76697 -3.51485 0
M  V30 4267 H 394.001 -1.4655 -4.74065 0
M  V30 4268 N 393.175 1.03435 -1.18907 0
M  V30 4269 C 394.415 1.78302 -0.999391 0
M  V30 4270 C 394.779 1.86353 0.462219 0
M  V30 4271 O 395.98 2.57489 0.771543 0
M  V30 4272 C 394.251 3.17362 -1.64365 0
M  V30 4273 S 395.81 4.08488 -1.6026 0
M  V30 4274 H 392.628 0.613861 -0.358742 0
M  V30 4275 H 395.23 1.23979 -1.51161 0
M  V30 4276 H 393.934 3.09116 -2.69955 0
M  V30 4277 H 393.465 3.76762 -1.13199 0
M  V30 4278 H 395.48 4.92274 -0.622932 0
M  V30 4279 N 394.653 0.992116 1.22453 0
M  V30 4280 C 395.6 0.541731 2.24352 0
M  V30 4281 C 396.57 -0.425519 1.60557 0
M  V30 4282 O 397.755 -0.330453 1.87917 0
M  V30 4283 C 394.895 -0.138248 3.44823 0
M  V30 4284 C 394.008 0.870649 4.23136 0
M  V30 4285 C 393.143 0.164269 5.30946 0
M  V30 4286 C 392.182 1.16159 6.00977 0
M  V30 4287 N 391.319 0.483568 7.00433 0
M  V30 4288 H 396.159 1.41541 2.62241 0
M  V30 4289 H 393.696 0.709013 1.28885 0
M  V30 4290 H 395.654 -0.5494 4.13567 0
M  V30 4291 H 394.284 -0.975721 3.077 0
M  V30 4292 H 393.336 1.40013 3.53696 0
M  V30 4293 H 394.648 1.63014 4.7141 0
M  V30 4294 H 393.802 -0.303653 6.0594 0
M  V30 4295 H 392.541 -0.627733 4.83643 0
M  V30 4296 H 391.546 1.64015 5.24766 0
M  V30 4297 H 392.771 1.95445 6.50368 0
M  V30 4298 H 390.717 -0.289012 6.55363 0
M  V30 4299 H 390.634 1.18152 7.4671 0
M  V30 4300 H 391.902 0.0384219 7.79491 0
M  V30 4301 N 396.131 -1.37776 0.765217 0
M  V30 4302 C 397.547 -1.53297 0.444108 0
M  V30 4303 C 397.747 -1.72515 -1.04119 0
M  V30 4304 O 396.803 -1.74278 -1.82711 0
M  V30 4305 C 398.116 -2.73328 1.25349 0
M  V30 4306 C 399.664 -2.87185 1.24473 0
M  V30 4307 C 400.139 -4.10191 2.03733 0
M  V30 4308 N 401.63 -4.17291 2.01053 0
M  V30 4309 C 402.365 -5.11488 2.59166 0
M  V30 4310 N 401.861 -6.11285 3.26041 0
M  V30 4311 N 403.654 -5.03924 2.49032 0
M  V30 4312 H 395.805 -1.23552 1.72768 0
M  V30 4313 H 398.068 -0.601103 0.733062 0
M  V30 4314 H 397.774 -2.6557 2.30577 0
M  V30 4315 H 397.648 -3.66834 0.87823 0
M  V30 4316 H 400.035 -2.94418 0.20047 0
M  V30 4317 H 400.116 -1.94657 1.65959 0
M  V30 4318 H 399.76 -4.0372 3.08176 0
M  V30 4319 H 399.69 -5.01821 1.59633 0
M  V30 4320 H 402.181 -3.45825 1.5236 0
M  V30 4321 H 402.494 -6.79678 3.67774 0
M  V30 4322 H 400.839 -6.11583 3.30138 0
M  V30 4323 H 404.03 -4.24902 1.96407 0
M  V30 4324 H 404.203 -5.77152 2.94617 0
M  V30 4325 N 397.609 -0.515225 -1.4894 0
M  V30 4326 C 398.557 0.269115 -2.31038 0
M  V30 4327 C 399.551 0.949443 -1.40292 0
M  V30 4328 O 400.757 0.87551 -1.57273 0
M  V30 4329 H 397.132 0.10565 -0.744542 0
M  V30 4330 H 399.103 -0.443096 -2.95092 0
M  V30 4331 C 397.852 1.31213 -3.21991 0
M  V30 4332 H 397.175 0.798034 -3.91754 0
M  V30 4333 H 398.615 1.83263 -3.82349 0
M  V30 4334 C 397.074 2.33791 -2.42576 0
M  V30 4335 O 397.604 3.3995 -2.14003 0
M  V30 4336 N 395.81 2.06625 -2.0434 0
M  V30 4337 H 395.357 1.20314 -2.27777 0
M  V30 4338 H 395.315 2.75483 -1.51514 0
M  V30 4339 N 399.087 1.5561 -0.249682 0
M  V30 4340 C 400.315 2.03411 0.378352 0
M  V30 4341 C 400.73 1.12886 1.51335 0
M  V30 4342 O 400.087 0.143833 1.81932 0
M  V30 4343 C 400.138 3.50537 0.88351 0
M  V30 4344 O 399.859 4.37614 -0.20626 0
M  V30 4345 C 401.36 4.14113 1.58195 0
M  V30 4346 H 398.58 0.664994 0.08958 0
M  V30 4347 H 401.124 2.01044 -0.374357 0
M  V30 4348 H 399.279 3.5343 1.58639 0
M  V30 4349 H 399.693 5.24199 0.177782 0
M  V30 4350 H 401.167 5.18741 1.8871 0
M  V30 4351 H 401.644 3.60767 2.50487 0
M  V30 4352 H 402.25 4.15151 0.923573 0
M  V30 4353 N 400.565 -0.0233959 1.57583 0
M  V30 4354 C 401.528 -1.00693 2.05897 0
M  V30 4355 C 402.528 -1.28693 0.964092 0
M  V30 4356 O 403.718 -1.23602 1.22753 0
M  V30 4357 C 400.85 -2.33825 2.4807 0
M  V30 4358 H 402.043 -0.589476 2.9405 0
M  V30 4359 H 399.596 -0.270354 1.53944 0
M  V30 4360 H 400.331 -2.80307 1.6309 0
M  V30 4361 H 400.116 -2.1483 3.2801 0
M  V30 4362 H 401.606 -3.04426 2.85857 0
M  V30 4363 N 402.043 -1.548 -0.295768 0
M  V30 4364 C 402.953 -1.89177 -1.38742 0
M  V30 4365 C 403.969 -0.786481 -1.55211 0
M  V30 4366 O 405.145 -1.08344 -1.69775 0
M  V30 4367 C 402.21 -2.13663 -2.73036 0
M  V30 4368 C 401.271 -3.37349 -2.65508 0
M  V30 4369 C 400.504 -3.60658 -3.93398 0
M  V30 4370 O 400.727 -2.86882 -4.93006 0
M  V30 4371 O 399.661 -4.54179 -3.94975 0
M  V30 4372 H 403.487 -2.82059 -1.12589 0
M  V30 4373 H 401.072 -1.41056 -0.492295 0
M  V30 4374 H 402.954 -2.3094 -3.52484 0
M  V30 4375 H 401.629 -1.23967 -2.99022 0
M  V30 4376 H 400.536 -3.25431 -1.84514 0
M  V30 4377 H 401.869 -4.27192 -2.44474 0
M  V30 4378 N 403.521 0.559213 -1.47345 0
M  V30 4379 C 404.431 1.69388 -1.62311 0
M  V30 4380 C 405.447 1.6648 -0.505993 0
M  V30 4381 O 406.623 1.85964 -0.773262 0
M  V30 4382 C 403.688 3.05894 -1.63185 0
M  V30 4383 C 402.749 3.19885 -2.86307 0
M  V30 4384 C 401.982 4.49879 -2.87131 0
M  V30 4385 O 402.205 5.35217 -1.97229 0
M  V30 4386 O 401.139 4.67618 -3.78968 0
M  V30 4387 H 404.965 1.59706 -2.58317 0
M  V30 4388 H 402.55 0.728989 -1.30407 0
M  V30 4389 H 404.432 3.87133 -1.66451 0
M  V30 4390 H 403.107 3.15964 -0.70345 0
M  V30 4391 H 402.014 2.38052 -2.88587 0
M  V30 4392 H 403.347 3.14718 -3.78435 0
M  V30 4393 N 404.999 1.35443 0.805782 0
M  V30 4394 C 405.909 1.30546 1.94923 0
M  V30 4395 C 406.925 0.210233 1.72725 0
M  V30 4396 O 408.101 0.43975 1.9654 0
M  V30 4397 C 405.166 1.07782 3.29521 0
M  V30 4398 C 404.227 2.26625 3.64609 0
M  V30 4399 C 403.46 2.04938 4.92784 0
M  V30 4400 O 403.683 1.01624 5.61274 0
M  V30 4401 O 402.617 2.9232 5.26149 0
M  V30 4402 H 406.443 2.26779 2.02002 0
M  V30 4403 H 404.028 1.15823 0.943682 0
M  V30 4404 H 405.91 0.969392 4.10098 0
M  V30 4405 H 404.585 0.146003 3.23371 0
M  V30 4406 H 403.492 2.43033 2.84404 0
M  V30 4407 H 404.825 3.18257 3.75464 0
M  V30 4408 N 406.477 -1.02803 1.19454 0
M  V30 4409 C 407.425 -2.13213 0.929673 0
M  V30 4410 C 408.419 -1.69011 -0.114806 0
M  V30 4411 O 409.625 -1.79967 0.0345147 0
M  V30 4412 H 406 -0.69662 0.28324 0
M  V30 4413 H 407.971 -2.32744 1.86743 0
M  V30 4414 C 406.72 -3.4429 0.485797 0
M  V30 4415 H 406.043 -3.7872 1.28105 0
M  V30 4416 H 407.483 -4.22638 0.339582 0
M  V30 4417 C 405.942 -3.27258 -0.800244 0
M  V30 4418 O 406.472 -3.55967 -1.86146 0
M  V30 4419 N 404.678 -2.80545 -0.75781 0
M  V30 4420 H 404.225 -2.57382 0.106039 0
M  V30 4421 H 404.183 -2.6953 -1.61867 0
M  V30 4422 N 407.956 -0.998596 -1.21925 0
M  V30 4423 C 409.181 -0.696015 -1.95372 0
M  V30 4424 C 409.606 0.733826 -1.73195 0
M  V30 4425 O 408.964 1.50242 -1.01474 0
M  V30 4426 C 409.012 -1.01466 -3.4603 0
M  V30 4427 O 408.116 -0.116415 -4.12236 0
M  V30 4428 H 407.457 -0.259938 -0.611006 0
M  V30 4429 H 409.987 -1.33711 -1.54863 0
M  V30 4430 H 409.997 -0.958855 -3.96573 0
M  V30 4431 H 408.672 -2.05653 -3.61497 0
M  V30 4432 H 407.249 -0.228193 -3.72201 0
M  V30 4433 N 409.434 1.37368 -0.772513 0
M  V30 4434 C 410.397 2.28601 -0.165541 0
M  V30 4435 C 411.397 1.48062 0.627238 0
M  V30 4436 O 412.587 1.68268 0.450715 0
M  V30 4437 C 409.719 3.32023 0.772897 0
M  V30 4438 H 410.912 2.83787 -0.969787 0
M  V30 4439 H 408.465 1.46647 -0.540775 0
M  V30 4440 H 409.2 2.81962 1.60212 0
M  V30 4441 H 408.985 3.91555 0.206585 0
M  V30 4442 H 410.475 4.00197 1.19298 0
M  V30 4443 N 410.912 0.523116 1.48665 0
M  V30 4444 C 411.86 -0.256859 2.31177 0
M  V30 4445 C 412.854 -0.94199 1.40794 0
M  V30 4446 O 414.06 -0.867157 1.57735 0
M  V30 4447 H 410.435 -0.1017 0.745091 0
M  V30 4448 H 412.406 0.458739 2.94853 0
M  V30 4449 C 411.155 -1.29503 3.22683 0
M  V30 4450 H 410.478 -0.777248 3.92172 0
M  V30 4451 H 411.918 -1.81233 3.83315 0
M  V30 4452 C 410.377 -2.32501 2.43813 0
M  V30 4453 O 410.907 -3.3881 2.15803 0
M  V30 4454 N 409.113 -2.05538 2.05432 0
M  V30 4455 H 408.66 -1.19104 2.28412 0
M  V30 4456 H 408.618 -2.74676 1.52973 0
M  V30 4457 N 412.39 -1.55475 0.257931 0
M  V30 4458 C 413.801 -1.8511 -0.243135 0
M  V30 4459 C 414.152 -1.17986 -1.5676 0
M  V30 4460 O 413.277 -0.462102 -2.11409 0
M  V30 4461 C 413.872 -3.35826 -0.447929 0
M  V30 4462 C 412.431 -3.65647 -0.893245 0
M  V30 4463 C 411.578 -2.7729 0.0232965 0
M  V30 4464 H 414.529 -1.51261 0.480199 0
M  V30 4465 H 414.55 -3.58002 -1.28898 0
M  V30 4466 H 414.062 -3.84652 0.516196 0
M  V30 4467 H 412.163 -3.22308 -1.86945 0
M  V30 4468 H 412.276 -4.73312 -0.742469 0
M  V30 4469 H 410.64 -2.49942 -0.490021 0
M  V30 4470 H 411.423 -3.28926 0.982994 0
M  V30 4471 N 413.868 0.0150385 -1.57593 0
M  V30 4472 C 414.816 1.02958 -2.08572 0
M  V30 4473 C 415.81 1.36554 -1.00246 0
M  V30 4474 O 417.016 1.35295 -1.18724 0
M  V30 4475 H 413.391 0.349619 -0.665786 0
M  V30 4476 H 415.362 0.573932 -2.92829 0
M  V30 4477 C 414.111 2.31752 -2.59203 0
M  V30 4478 H 413.434 2.06765 -3.42182 0
M  V30 4479 H 414.874 3.01053 -2.98568 0
M  V30 4480 C 413.333 3.01692 -1.49945 0
M  V30 4481 O 413.863 3.92083 -0.873704 0
M  V30 4482 N 412.069 2.6326 -1.23056 0
M  V30 4483 H 411.616 1.89838 -1.74125 0
M  V30 4484 H 411.574 3.10372 -0.501685 0
M  V30 4485 N 415.346 1.54954 0.287554 0
M  V30 4486 C 416.278 1.83224 1.37701 0
M  V30 4487 C 417.291 0.715898 1.46215 0
M  V30 4488 O 418.48 0.993565 1.48292 0
M  V30 4489 C 415.58 1.96723 2.75959 0
M  V30 4490 C 414.753 3.27253 2.90215 0
M  V30 4491 C 413.812 3.30998 4.09056 0
M  V30 4492 O 412.838 4.04457 4.00503 0
M  V30 4493 N 414.04 2.57353 5.20336 0
M  V30 4494 H 416.805 2.77254 1.138 0
M  V30 4495 H 414.366 1.54694 0.477652 0
M  V30 4496 H 416.358 1.96615 3.5373 0
M  V30 4497 H 414.928 1.09626 2.92747 0
M  V30 4498 H 414.148 3.40022 1.99447 0
M  V30 4499 H 415.436 4.13365 2.96659 0
M  V30 4500 H 414.834 1.97327 5.30169 0
M  V30 4501 H 413.391 2.62984 5.96391 0
M  V30 4502 N 416.824 -0.551391 1.4764 0
M  V30 4503 C 418.101 -1.31229 1.45046 0
M  V30 4504 C 418.481 -2.10563 0.150527 0
M  V30 4505 O 417.829 -2.11374 -0.867956 0
M  V30 4506 C 418.039 -2.21189 2.69956 0
M  V30 4507 C 419.387 -2.82021 3.1741 0
M  V30 4508 O 420.411 -2.31488 2.70724 0
M  V30 4509 O 419.27 -3.73885 3.98588 0
M  V30 4510 H 416.364 -0.591193 0.578291 0
M  V30 4511 H 418.91 -0.569813 1.59847 0
M  V30 4512 H 417.682 -1.62207 3.56096 0
M  V30 4513 H 417.305 -3.02722 2.57769 0
M  V30 4514 N 418.302 -1.35869 -0.798587 0
M  V30 4515 C 419.234 -1.25305 -1.91915 0
M  V30 4516 C 420.247 -0.174548 -1.61862 0
M  V30 4517 O 421.436 -0.428499 -1.73281 0
M  V30 4518 C 418.536 -0.9086 -3.26493 0
M  V30 4519 C 417.709 -2.08711 -3.84394 0
M  V30 4520 C 416.768 -1.71717 -4.97393 0
M  V30 4521 O 415.794 -2.43692 -5.14396 0
M  V30 4522 N 416.996 -0.645473 -5.769 0
M  V30 4523 H 419.761 -2.21849 -2.01502 0
M  V30 4524 H 417.322 -1.29143 -0.976408 0
M  V30 4525 H 419.314 -0.642455 -3.99568 0
M  V30 4526 H 417.884 -0.0325815 -3.12583 0
M  V30 4527 H 417.104 -2.51659 -3.03416 0
M  V30 4528 H 418.392 -2.87468 -4.19809 0
M  V30 4529 H 417.79 -0.047648 -5.6568 0
M  V30 4530 H 416.347 -0.43913 -6.50319 0
M  V30 4531 N 419.78 1.02168 -1.19998 0
M  V30 4532 C 420.728 2.12717 -0.940967 0
M  V30 4533 C 421.722 1.69069 0.105841 0
M  V30 4534 O 422.928 1.79946 -0.0440583 0
M  V30 4535 H 419.303 0.695108 -0.28693 0
M  V30 4536 H 421.274 2.3175 -1.87975 0
M  V30 4537 C 420.023 3.44027 -0.504049 0
M  V30 4538 H 419.346 3.78036 -1.30112 0
M  V30 4539 H 420.786 4.22452 -0.361991 0
M  V30 4540 C 419.245 3.27678 0.782878 0
M  V30 4541 O 419.775 3.56949 1.84256 0
M  V30 4542 N 417.981 2.80943 0.742921 0
M  V30 4543 H 417.528 2.57322 -0.119687 0
M  V30 4544 H 417.486 2.70385 1.60435 0
M  V30 4545 N 421.258 1.00505 1.21394 0
M  V30 4546 C 422.221 0.570459 2.21987 0
M  V30 4547 C 423.221 -0.353211 1.56873 0
M  V30 4548 O 424.411 -0.14349 1.73608 0
M  V30 4549 C 421.543 -0.168555 3.40483 0
M  V30 4550 H 422.736 1.46021 2.6195 0
M  V30 4551 H 420.289 0.793565 1.34656 0
M  V30 4552 H 421.024 -1.07374 3.06009 0
M  V30 4553 H 420.809 0.494823 3.88965 0
M  V30 4554 H 422.299 -0.460362 4.15055 0
M  V30 4555 N 422.737 -1.36956 0.779787 0
M  V30 4556 C 424.153 -1.52817 0.460342 0
M  V30 4557 C 424.353 -1.7361 -1.02283 0
M  V30 4558 O 423.409 -1.76207 -1.80852 0
M  V30 4559 C 424.722 -2.71983 1.28241 0
M  V30 4560 C 426.27 -2.85849 1.27512 0
M  V30 4561 C 426.745 -4.08008 2.08072 0
M  V30 4562 N 428.236 -4.15135 2.05467 0
M  V30 4563 C 428.971 -5.08711 2.64577 0
M  V30 4564 N 428.467 -6.07792 3.32506 0
M  V30 4565 N 430.26 -5.01254 2.54363 0
M  V30 4566 H 422.411 -1.21713 1.74068 0
M  V30 4567 H 424.674 -0.593294 0.739396 0
M  V30 4568 H 424.38 -2.63109 2.33381 0
M  V30 4569 H 424.254 -3.65882 0.917088 0
M  V30 4570 H 426.641 -2.94189 0.231686 0
M  V30 4571 H 426.722 -1.92886 1.68014 0
M  V30 4572 H 426.366 -4.00429 3.12441 0
M  V30 4573 H 426.296 -5.001 1.64947 0
M  V30 4574 H 428.787 -3.44189 1.5602 0
M  V30 4575 H 429.1 -6.75739 3.74963 0
M  V30 4576 H 427.445 -6.08047 3.36606 0
M  V30 4577 H 430.636 -4.22795 2.00902 0
M  V30 4578 H 430.809 -5.73995 3.00722 0
M  V30 4579 N 424.215 -0.530993 -1.48385 0
M  V30 4580 C 425.631 -0.188919 -1.58478 0
M  V30 4581 C 425.831 1.30786 -1.53288 0
M  V30 4582 O 424.887 2.08619 -1.42248 0
M  V30 4583 C 426.2 -0.792343 -2.90073 0
M  V30 4584 C 427.748 -0.76117 -3.03604 0
M  V30 4585 C 428.223 -1.34319 -4.37861 0
M  V30 4586 N 429.714 -1.3052 -4.44431 0
M  V30 4587 C 430.449 -1.72543 -5.46824 0
M  V30 4588 N 429.945 -2.22299 -6.56167 0
M  V30 4589 N 431.738 -1.63773 -5.37712 0
M  V30 4590 H 423.889 -1.50377 -1.50002 0
M  V30 4591 H 426.152 -0.625559 -0.712306 0
M  V30 4592 H 425.858 -1.84323 -2.99529 0
M  V30 4593 H 425.732 -0.270026 -3.76232 0
M  V30 4594 H 428.119 0.280957 -2.93759 0
M  V30 4595 H 428.2 -1.32097 -2.19053 0
M  V30 4596 H 427.844 -2.38425 -4.4846 0
M  V30 4597 H 427.774 -0.759064 -5.21101 0
M  V30 4598 H 430.265 -0.940973 -3.65997 0
M  V30 4599 H 430.578 -2.52356 -7.30436 0
M  V30 4600 H 428.923 -2.26293 -6.57127 0
M  V30 4601 H 432.114 -1.24698 -4.51185 0
M  V30 4602 H 432.287 -1.96844 -6.17379 0
M  V30 4603 N 425.693 1.55336 -0.266172 0
M  V30 4604 C 427.109 1.59356 0.0882065 0
M  V30 4605 C 427.309 1.2834 1.55342 0
M  V30 4606 O 426.365 1.03996 2.30089 0
M  V30 4607 C 427.678 2.99409 -0.278364 0
M  V30 4608 C 429.226 3.12196 -0.224243 0
M  V30 4609 C 429.701 4.545 -0.565123 0
M  V30 4610 N 431.192 4.60313 -0.51634 0
M  V30 4611 C 431.927 5.68434 -0.753013 0
M  V30 4612 N 431.423 6.84738 -1.05383 0
M  V30 4613 N 433.216 5.57942 -0.682414 0
M  V30 4614 H 425.367 1.73764 -1.22147 0
M  V30 4615 H 427.63 0.809822 -0.492841 0
M  V30 4616 H 427.336 3.2691 -1.29703 0
M  V30 4617 H 427.21 3.75228 0.385186 0
M  V30 4618 H 429.597 2.84464 0.78512 0
M  V30 4619 H 429.678 2.38609 -0.921922 0
M  V30 4620 H 429.322 4.82956 -1.57213 0
M  V30 4621 H 429.252 5.26374 0.154248 0
M  V30 4622 H 431.743 3.7676 -0.29335 0
M  V30 4623 H 432.056 7.63088 -1.22133 0
M  V30 4624 H 430.401 6.86375 -1.09151 0
M  V30 4625 H 433.592 4.65958 -0.44731 0
M  V30 4626 H 433.765 6.4213 -0.870248 0
M  V30 4627 N 427.171 -0.0066808 1.57599 0
M  V30 4628 C 428.118 -1.00024 2.08 0
M  V30 4629 C 429.088 -1.34549 0.973943 0
M  V30 4630 O 430.273 -1.44502 1.24595 0
M  V30 4631 C 427.413 -2.2891 2.58252 0
M  V30 4632 C 426.526 -2.00346 3.82734 0
M  V30 4633 C 425.661 -3.23265 4.21513 0
M  V30 4634 C 424.7 -2.90357 5.3885 0
M  V30 4635 N 423.837 -4.05793 5.72954 0
M  V30 4636 H 428.677 -0.563499 2.92624 0
M  V30 4637 H 426.214 -0.266592 1.44664 0
M  V30 4638 H 428.172 -3.04247 2.85464 0
M  V30 4639 H 426.802 -2.70265 1.76512 0
M  V30 4640 H 425.854 -1.15406 3.62471 0
M  V30 4641 H 427.166 -1.72086 4.68175 0
M  V30 4642 H 426.32 -4.06953 4.49971 0
M  V30 4643 H 425.059 -3.54657 3.34768 0
M  V30 4644 H 424.064 -2.05075 5.10122 0
M  V30 4645 H 425.289 -2.60219 6.27266 0
M  V30 4646 H 423.235 -4.37094 4.89167 0
M  V30 4647 H 423.152 -3.81034 6.52954 0
M  V30 4648 H 424.42 -4.90289 6.06001 0
M  V30 4649 N 428.649 -1.55105 -0.279332 0
M  V30 4650 C 429.596 -1.8755 -1.34513 0
M  V30 4651 C 430.566 -0.726384 -1.49375 0
M  V30 4652 O 431.751 -0.977063 -1.63884 0
M  V30 4653 C 428.891 -2.14738 -2.70151 0
M  V30 4654 C 428.004 -3.42285 -2.63562 0
M  V30 4655 C 427.139 -3.59206 -3.91337 0
M  V30 4656 C 426.178 -4.80467 -3.79233 0
M  V30 4657 N 425.315 -4.94079 -4.98829 0
M  V30 4658 H 430.155 -2.78456 -1.06143 0
M  V30 4659 H 427.692 -1.37867 -0.512936 0
M  V30 4660 H 429.65 -2.28501 -3.49061 0
M  V30 4661 H 428.28 -1.27075 -2.96735 0
M  V30 4662 H 427.332 -3.37029 -1.76397 0
M  V30 4663 H 428.644 -4.31328 -2.50515 0
M  V30 4664 H 427.798 -3.72751 -4.78687 0
M  V30 4665 H 426.537 -2.68337 -4.07243 0
M  V30 4666 H 425.542 -4.66932 -2.90266 0
M  V30 4667 H 426.767 -5.72765 -3.64852 0
M  V30 4668 H 424.713 -4.06139 -5.15158 0
M  V30 4669 H 424.63 -5.77156 -4.8829 0
M  V30 4670 H 425.898 -5.12003 -5.8777 0
M  V30 4671 N 430.127 0.543554 -1.4793 0
M  V30 4672 C 431.074 1.64942 -1.6144 0
M  V30 4673 C 432.044 1.59692 -0.456903 0
M  V30 4674 O 433.229 1.78321 -0.678688 0
M  V30 4675 C 430.369 3.03238 -1.64744 0
M  V30 4676 C 429.482 3.18823 -2.91506 0
M  V30 4677 C 428.617 4.47599 -2.86057 0
M  V30 4678 C 427.656 4.56664 -4.07584 0
M  V30 4679 N 426.793 5.76811 -4.00292 0
M  V30 4680 H 431.633 1.52733 -2.55884 0
M  V30 4681 H 429.17 0.7438 -1.2691 0
M  V30 4682 H 431.128 3.83339 -1.64641 0
M  V30 4683 H 429.758 3.1425 -0.738017 0
M  V30 4684 H 428.81 2.32064 -3.01414 0
M  V30 4685 H 430.122 3.21384 -3.81463 0
M  V30 4686 H 429.276 5.35975 -2.84281 0
M  V30 4687 H 428.015 4.47538 -1.93807 0
M  V30 4688 H 427.02 3.66697 -4.09651 0
M  V30 4689 H 428.245 4.58474 -5.00978 0
M  V30 4690 H 426.191 5.77673 -3.10853 0
M  V30 4691 H 426.108 5.80808 -4.8394 0
M  V30 4692 H 427.376 6.67512 -4.02553 0
M  V30 4693 N 431.605 1.3629 0.791371 0
M  V30 4694 C 432.515 1.32606 1.93527 0
M  V30 4695 C 433.531 0.228541 1.72493 0
M  V30 4696 O 434.707 0.460571 1.96063 0
M  V30 4697 C 431.772 1.11271 3.28359 0
M  V30 4698 C 430.833 2.3048 3.62185 0
M  V30 4699 C 430.066 2.10154 4.90583 0
M  V30 4700 O 430.289 1.07572 5.60165 0
M  V30 4701 O 429.223 2.97884 5.23019 0
M  V30 4702 H 433.049 2.28909 1.99585 0
M  V30 4703 H 430.634 1.16818 0.931344 0
M  V30 4704 H 432.516 1.01283 4.09047 0
M  V30 4705 H 431.191 0.180292 3.23198 0
M  V30 4706 H 430.098 2.46036 2.81811 0
M  V30 4707 H 431.431 3.22221 3.72068 0
M  V30 4708 N 433.083 -1.0153 1.20538 0
M  V30 4709 C 434.499 -1.27461 0.96051 0
M  V30 4710 C 434.699 -1.98273 -0.359193 0
M  V30 4711 O 433.755 -2.27886 -1.0874 0
M  V30 4712 C 435.068 -2.10837 2.14402 0
M  V30 4713 C 436.616 -2.24099 2.18515 0
M  V30 4714 C 437.091 -3.10852 3.36355 0
M  V30 4715 N 438.582 -3.18441 3.36377 0
M  V30 4716 C 439.317 -3.85795 4.24205 0
M  V30 4717 N 438.813 -4.55264 5.22213 0
M  V30 4718 N 440.606 -3.82331 4.12043 0
M  V30 4719 H 432.757 -0.539907 2.05423 0
M  V30 4720 H 435.02 -0.30092 0.898972 0
M  V30 4721 H 434.726 -1.66144 3.09983 0
M  V30 4722 H 434.6 -3.11576 2.12604 0
M  V30 4723 H 436.987 -2.68016 1.23497 0
M  V30 4724 H 437.068 -1.22865 2.24361 0
M  V30 4725 H 436.712 -2.6764 4.31661 0
M  V30 4726 H 436.642 -4.12177 3.27746 0
M  V30 4727 H 439.133 -2.68978 2.65442 0
M  V30 4728 H 439.446 -5.04331 5.85551 0
M  V30 4729 H 437.791 -4.54085 5.26148 0
M  V30 4730 H 440.982 -3.27207 3.34743 0
M  V30 4731 H 441.155 -4.34547 4.807 0
M  V30 4732 N 434.561 -1.01147 -1.20859 0
M  V30 4733 C 435.977 -0.725422 -1.42161 0
M  V30 4734 C 436.177 0.696919 -1.89064 0
M  V30 4735 O 435.233 1.46539 -2.05627 0
M  V30 4736 C 436.546 -1.74678 -2.44761 0
M  V30 4737 C 438.094 -1.76433 -2.58535 0
M  V30 4738 C 438.569 -2.77481 -3.64374 0
M  V30 4739 N 440.06 -2.76189 -3.71852 0
M  V30 4740 C 440.795 -3.51035 -4.53389 0
M  V30 4741 N 440.291 -4.35541 -5.38773 0
M  V30 4742 N 442.084 -3.39655 -4.47873 0
M  V30 4743 H 434.235 -1.92979 -0.887282 0
M  V30 4744 H 436.498 -0.833327 -0.451962 0
M  V30 4745 H 436.204 -2.76551 -2.17285 0
M  V30 4746 H 436.078 -1.55472 -3.43669 0
M  V30 4747 H 438.465 -0.75248 -2.85345 0
M  V30 4748 H 438.546 -1.99712 -1.5984 0
M  V30 4749 H 438.19 -3.78827 -3.38308 0
M  V30 4750 H 438.12 -2.51466 -4.6268 0
M  V30 4751 H 440.611 -2.14885 -3.10858 0
M  V30 4752 H 440.924 -4.89432 -5.98061 0
M  V30 4753 H 439.269 -4.39621 -5.38292 0
M  V30 4754 H 442.46 -2.73063 -3.80203 0
M  V30 4755 H 442.633 -3.9824 -5.11184 0
M  V30 4756 N 436.039 1.36541 -0.78704 0
M  V30 4757 C 437.45 1.81873 -0.421807 0
M  V30 4758 C 437.801 1.65487 1.05397 0
M  V30 4759 O 436.926 1.17448 1.81755 0
M  V30 4760 C 437.521 3.30192 -0.758841 0
M  V30 4761 C 436.08 3.73743 -0.446468 0
M  V30 4762 C 435.227 2.58844 -0.994728 0
M  V30 4763 H 438.178 1.24796 -0.98039 0
M  V30 4764 H 438.199 3.80468 -0.0490648 0
M  V30 4765 H 437.711 3.42087 -1.83299 0
M  V30 4766 H 435.812 3.6741 0.619739 0
M  V30 4767 H 435.925 4.69272 -0.965415 0
M  V30 4768 H 434.289 2.51245 -0.418087 0
M  V30 4769 H 435.072 2.73525 -2.07458 0
M  V30 4770 N 437.518 0.538854 1.48102 0
M  V30 4771 C 438.934 0.19732 1.58376 0
M  V30 4772 C 439.134 -1.29971 1.5398 0
M  V30 4773 O 438.19 -2.07861 1.43352 0
M  V30 4774 C 439.503 0.807716 2.89649 0
M  V30 4775 C 441.051 0.77726 3.03196 0
M  V30 4776 C 441.526 1.36639 4.37143 0
M  V30 4777 N 443.017 1.32875 4.43732 0
M  V30 4778 C 443.752 1.7544 5.45901 0
M  V30 4779 N 443.248 2.25776 6.54979 0
M  V30 4780 N 445.041 1.66623 5.36836 0
M  V30 4781 H 437.192 1.5117 1.49202 0
M  V30 4782 H 439.455 0.629327 0.708979 0
M  V30 4783 H 439.161 1.85909 2.98548 0
M  V30 4784 H 439.035 0.289975 3.76084 0
M  V30 4785 H 441.422 -0.265374 2.93904 0
M  V30 4786 H 441.503 1.33256 2.18349 0
M  V30 4787 H 441.147 2.408 4.47189 0
M  V30 4788 H 441.077 0.786689 5.20691 0
M  V30 4789 H 443.568 0.96037 3.65493 0
M  V30 4790 H 443.881 2.56226 7.29087 0
M  V30 4791 H 442.226 2.29775 6.55918 0
M  V30 4792 H 445.417 1.27089 4.50517 0
M  V30 4793 H 445.59 2.00115 6.16326 0
M  V30 4794 N 438.996 -1.55193 0.274407 0
M  V30 4795 C 440.244 -1.99187 -0.341902 0
M  V30 4796 C 440.565 -1.16422 -1.56431 0
M  V30 4797 O 439.835 -0.253573 -1.94252 0
M  V30 4798 H 438.415 -0.735721 -0.129317 0
M  V30 4799 H 441.077 -1.91168 0.379578 0
M  V30 4800 H 440.173 -3.05629 -0.632253 0
M  V30 4801 N 440.474 -0.00167713 -1.576 0
M  V30 4802 C 441.702 0.693759 -1.94922 0
M  V30 4803 C 442.117 1.67215 -0.876626 0
M  V30 4804 O 441.474 1.81929 0.144279 0
M  V30 4805 C 441.525 1.42416 -3.32265 0
M  V30 4806 O 441.246 0.485014 -4.35407 0
M  V30 4807 C 442.747 2.21395 -3.84056 0
M  V30 4808 H 439.967 0.193118 -0.642609 0
M  V30 4809 H 442.511 -0.0532952 -2.04431 0
M  V30 4810 H 440.666 2.12284 -3.24059 0
M  V30 4811 H 441.08 1.00053 -5.14868 0
M  V30 4812 H 442.554 2.67996 -4.82578 0
M  V30 4813 H 443.031 3.04142 -3.16851 0
M  V30 4814 H 443.637 1.56542 -3.95443 0
M  V30 4815 N 441.952 1.55251 0.271103 0
M  V30 4816 C 442.885 1.83191 1.36075 0
M  V30 4817 C 443.863 0.685091 1.47463 0
M  V30 4818 O 445.047 0.928292 1.64058 0
M  V30 4819 C 442.174 1.99521 2.73696 0
M  V30 4820 C 441.22 3.22081 2.79582 0
M  V30 4821 S 442.053 4.79388 2.38636 0
M  V30 4822 C 443.209 4.98693 3.78228 0
M  V30 4823 H 443.442 2.75327 1.12171 0
M  V30 4824 H 440.975 1.47046 0.470833 0
M  V30 4825 H 442.933 2.09613 3.52948 0
M  V30 4826 H 441.594 1.0827 2.9485 0
M  V30 4827 H 440.787 3.304 3.80594 0
M  V30 4828 H 440.389 3.10589 2.08352 0
M  V30 4829 H 442.681 4.84551 4.73515 0
M  V30 4830 H 443.624 6.00738 3.7486 0
M  V30 4831 H 444.032 4.26665 3.69618 0
M  V30 4832 N 443.43 -0.535701 1.48216 0
M  V30 4833 C 444.362 -1.65662 1.58394 0
M  V30 4834 C 445.375 -1.5591 0.468607 0
M  V30 4835 O 446.564 -1.62475 0.7392 0
M  V30 4836 C 443.664 -3.04276 1.4923 0
M  V30 4837 C 442.837 -3.39567 2.75705 0
M  V30 4838 C 441.896 -4.57436 2.60075 0
M  V30 4839 O 440.922 -4.60942 3.33948 0
M  V30 4840 N 442.124 -5.55259 1.69315 0
M  V30 4841 H 444.889 -1.5737 2.55058 0
M  V30 4842 H 442.45 -0.722845 1.44867 0
M  V30 4843 H 444.442 -3.80994 1.36477 0
M  V30 4844 H 443.012 -3.06677 0.605632 0
M  V30 4845 H 442.232 -2.52083 3.03064 0
M  V30 4846 H 443.52 -3.59929 3.59623 0
M  V30 4847 H 442.918 -5.552 1.08489 0
M  V30 4848 H 441.475 -6.31218 1.62504 0
M  V30 4849 N 444.908 -1.36708 -0.784132 0
M  V30 4850 C 445.871 -1.31307 -1.87859 0
M  V30 4851 C 446.871 -0.219654 -1.59293 0
M  V30 4852 O 448.061 -0.47476 -1.67606 0
M  V30 4853 C 445.193 -1.03679 -3.24751 0
M  V30 4854 H 446.386 -2.28647 -1.94064 0
M  V30 4855 H 443.939 -1.21558 -0.98252 0
M  V30 4856 H 444.674 -0.0681936 -3.24228 0
M  V30 4857 H 444.459 -1.82811 -3.46876 0
M  V30 4858 H 445.949 -1.02518 -4.04821 0
M  V30 4859 N 446.386 1.0089 -1.21074 0
M  V30 4860 C 447.635 1.74019 -1.01981 0
M  V30 4861 C 447.948 1.90408 0.447665 0
M  V30 4862 O 449.154 2.60707 0.757906 0
M  V30 4863 C 447.61 3.13026 -1.77603 0
M  V30 4864 C 447.218 3.04623 -3.28495 0
M  V30 4865 C 448.962 3.90312 -1.66904 0
M  V30 4866 C 446.869 4.38685 -3.96623 0
M  V30 4867 H 445.799 0.652422 -0.377971 0
M  V30 4868 H 448.45 1.12755 -1.44771 0
M  V30 4869 H 446.832 3.74878 -1.27604 0
M  V30 4870 H 448.006 2.52032 -3.85767 0
M  V30 4871 H 446.321 2.40827 -3.39693 0
M  V30 4872 H 448.918 4.8951 -2.15138 0
M  V30 4873 H 449.261 4.11558 -0.62658 0
M  V30 4874 H 449.794 3.35104 -2.14359 0
M  V30 4875 H 446.533 4.22641 -5.01054 0
M  V30 4876 H 446.053 4.91252 -3.4414 0
M  V30 4877 H 447.732 5.075 -4.01314 0
M  V30 4878 N 447.864 1.01787 1.20321 0
M  V30 4879 C 448.812 0.58254 2.25187 0
M  V30 4880 C 449.806 -0.379359 1.65098 0
M  V30 4881 O 451.012 -0.249142 1.78267 0
M  V30 4882 H 447.387 0.170078 0.732514 0
M  V30 4883 H 449.358 1.47788 2.59232 0
M  V30 4884 C 448.107 -0.0620885 3.47645 0
M  V30 4885 H 447.43 0.669069 3.94162 0
M  V30 4886 H 448.87 -0.329784 4.22716 0
M  V30 4887 C 447.329 -1.3053 3.10586 0
M  V30 4888 O 447.859 -2.39848 3.22236 0
M  V30 4889 N 446.065 -1.18988 2.65123 0
M  V30 4890 H 445.612 -0.300341 2.55843 0
M  V30 4891 H 445.57 -2.02267 2.40698 0
M  V30 4892 N 449.342 -1.36122 0.79427 0
M  V30 4893 C 450.29 -2.31871 0.184023 0
M  V30 4894 C 451.284 -1.56041 -0.659365 0
M  V30 4895 O 452.49 -1.71266 -0.553906 0
M  V30 4896 H 448.865 -0.750896 0.0407373 0
M  V30 4897 H 450.836 -2.80898 1.00693 0
M  V30 4898 C 449.585 -3.41324 -0.662813 0
M  V30 4899 H 448.908 -3.99793 -0.0231944 0
M  V30 4900 H 450.348 -4.10629 -1.05639 0
M  V30 4901 C 448.807 -2.83308 -1.82313 0
M  V30 4902 O 449.337 -2.75863 -2.91997 0
M  V30 4903 N 447.543 -2.40529 -1.63077 0
M  V30 4904 H 447.09 -2.46785 -0.738591 0
M  V30 4905 H 447.048 -2.02059 -2.40872 0
M  V30 4906 N 450.82 -0.546701 -1.47814 0
M  V30 4907 C 451.73 0.21026 -2.33656 0
M  V30 4908 C 452.746 0.922413 -1.47538 0
M  V30 4909 O 453.922 0.893652 -1.80488 0
M  V30 4910 C 450.987 1.23348 -3.24016 0
M  V30 4911 C 450.048 0.529883 -4.26017 0
M  V30 4912 C 449.281 1.50435 -5.12059 0
M  V30 4913 O 449.504 2.73837 -5.00369 0
M  V30 4914 O 448.438 1.03459 -5.92942 0
M  V30 4915 H 452.264 -0.493605 -2.99662 0
M  V30 4916 H 449.849 -0.307427 -1.46203 0
M  V30 4917 H 451.731 1.82438 -3.79861 0
M  V30 4918 H 450.406 1.91945 -2.60651 0
M  V30 4919 H 449.313 -0.101948 -3.73961 0
M  V30 4920 H 450.646 -0.11445 -4.92067 0
M  V30 4921 N 452.299 1.55045 -0.282633 0
M  V30 4922 C 453.715 1.59441 0.0712997 0
M  V30 4923 C 453.915 1.2998 1.53972 0
M  V30 4924 O 452.971 1.06431 2.28973 0
M  V30 4925 C 454.284 2.99097 -0.310104 0
M  V30 4926 C 455.832 3.1194 -0.257343 0
M  V30 4927 C 456.307 4.53875 -0.613297 0
M  V30 4928 N 457.798 4.5974 -0.565134 0
M  V30 4929 C 458.533 5.67603 -0.81326 0
M  V30 4930 N 458.029 6.83582 -1.1264 0
M  V30 4931 N 459.822 5.57187 -0.741553 0
M  V30 4932 H 451.973 1.72458 -1.23984 0
M  V30 4933 H 454.236 0.804549 -0.501403 0
M  V30 4934 H 453.942 3.25516 -1.33163 0
M  V30 4935 H 453.816 3.75616 0.345366 0
M  V30 4936 H 456.203 2.85281 0.754905 0
M  V30 4937 H 456.284 2.37618 -0.947178 0
M  V30 4938 H 455.928 4.81261 -1.62327 0
M  V30 4939 H 455.858 5.26508 0.09841 0
M  V30 4940 H 458.349 3.76427 -0.333294 0
M  V30 4941 H 458.662 7.6175 -1.30219 0
M  V30 4942 H 457.007 6.85179 -1.16425 0
M  V30 4943 H 460.198 4.65457 -0.496705 0
M  V30 4944 H 460.371 6.41171 -0.938306 0
M  V30 4945 N 453.777 0.010035 1.57597 0
M  V30 4946 C 454.724 -0.978122 2.09049 0
M  V30 4947 C 455.694 -1.33509 0.988159 0
M  V30 4948 O 456.879 -1.43172 1.26121 0
M  V30 4949 C 454.019 -2.26158 2.60666 0
M  V30 4950 C 453.132 -1.96275 3.84838 0
M  V30 4951 C 452.267 -3.18776 4.24918 0
M  V30 4952 C 451.306 -2.84625 5.41899 0
M  V30 4953 N 450.443 -3.99693 5.77226 0
M  V30 4954 H 455.283 -0.532431 2.93205 0
M  V30 4955 H 452.82 -0.251234 1.44939 0
M  V30 4956 H 454.778 -3.01202 2.88675 0
M  V30 4957 H 453.408 -2.68378 1.79369 0
M  V30 4958 H 452.46 -1.11555 3.63675 0
M  V30 4959 H 453.772 -1.67111 4.69974 0
M  V30 4960 H 452.926 -4.02157 4.54262 0
M  V30 4961 H 451.665 -3.51087 3.38511 0
M  V30 4962 H 450.67 -1.99653 5.12268 0
M  V30 4963 H 451.895 -2.53551 6.29991 0
M  V30 4964 H 449.841 -4.31882 4.93776 0
M  V30 4965 H 449.758 -3.74087 6.56959 0
M  V30 4966 H 451.026 -4.83834 6.11167 0
M  V30 4967 N 455.255 -1.55392 -0.262866 0
M  V30 4968 C 456.218 -1.88181 -1.30846 0
M  V30 4969 C 457.218 -0.757079 -1.41862 0
M  V30 4970 O 458.408 -1.02519 -1.40838 0
M  V30 4971 C 455.54 -2.09609 -2.68844 0
M  V30 4972 H 456.733 -2.81659 -1.02997 0
M  V30 4973 H 454.286 -1.48039 -0.501414 0
M  V30 4974 H 455.021 -1.18547 -3.01856 0
M  V30 4975 H 454.806 -2.91508 -2.62231 0
M  V30 4976 H 456.296 -2.36215 -3.44372 0
M  V30 4977 N 456.733 0.527833 -1.48498 0
M  V30 4978 C 457.958 1.313 -1.60546 0
M  V30 4979 C 458.383 1.86199 -0.26672 0
M  V30 4980 O 457.741 1.64513 0.761918 0
M  V30 4981 C 457.789 2.43818 -2.65678 0
M  V30 4982 O 456.893 3.46916 -2.22987 0
M  V30 4983 H 456.234 0.388784 -0.538277 0
M  V30 4984 H 458.764 0.634896 -1.945 0
M  V30 4985 H 458.774 2.89973 -2.87018 0
M  V30 4986 H 457.449 2.03222 -3.62869 0
M  V30 4987 H 456.026 3.06864 -2.11869 0
M  V30 4988 N 458.211 1.37122 0.776871 0
M  V30 4989 C 459.158 1.3247 1.88998 0
M  V30 4990 C 460.128 0.191143 1.64997 0
M  V30 4991 O 461.313 0.379683 1.86984 0
M  V30 4992 C 458.453 1.13241 3.25992 0
M  V30 4993 C 457.566 2.35782 3.61982 0
M  V30 4994 C 456.701 2.09465 4.88158 0
M  V30 4995 C 455.74 3.279 5.16864 0
M  V30 4996 N 454.877 3.01167 6.34226 0
M  V30 4997 H 459.717 2.27642 1.9231 0
M  V30 4998 H 457.254 1.13125 0.94027 0
M  V30 4999 H 459.212 1.00115 4.0501 0
M  V30 5000 H 457.842 0.217186 3.22069 0
M  V30 5001 H 456.894 2.59666 2.77989 0
M  V30 5002 H 458.206 3.24125 3.79137 0
M  V30 5003 H 457.36 1.93341 5.75069 0
M  V30 5004 H 456.099 1.18452 4.73097 0
M  V30 5005 H 455.104 3.44569 4.2843 0
M  V30 5006 H 456.329 4.19757 5.33836 0
M  V30 5007 H 454.275 2.12779 6.20533 0
M  V30 5008 H 454.192 3.83052 6.51772 0
M  V30 5009 H 455.46 2.88649 7.24087 0
M  V30 5010 N 459.689 -1.00246 1.21608 0
M  V30 5011 C 460.935 -1.74319 1.03638 0
M  V30 5012 C 461.268 -1.89408 -0.428749 0
M  V30 5013 O 460.543 -1.43026 -1.3181 0
M  V30 5014 C 460.826 -3.15431 1.73711 0
M  V30 5015 C 460.679 -3.08049 3.27759 0
M  V30 5016 C 461.998 -4.14407 1.48173 0
M  V30 5017 H 459.117 -0.632741 0.377899 0
M  V30 5018 H 461.759 -1.16853 1.49818 0
M  V30 5019 H 459.909 -3.64493 1.34452 0
M  V30 5020 H 461.581 -2.66681 3.76403 0
M  V30 5021 H 459.824 -2.45088 3.57931 0
M  V30 5022 H 460.495 -4.07862 3.71958 0
M  V30 5023 H 462.971 -3.74061 1.82258 0
M  V30 5024 H 461.847 -5.11279 1.99713 0
M  V30 5025 H 462.108 -4.40174 0.412273 0
M  V30 5026 N 461.167 -1.02423 -1.1978 0
M  V30 5027 C 462.097 -0.62157 -2.25075 0
M  V30 5028 C 463.078 0.367148 -1.6609 0
M  V30 5029 O 464.263 0.250892 -1.92573 0
M  V30 5030 C 461.393 0.0331826 -3.47284 0
M  V30 5031 C 460.347 -0.877323 -4.18912 0
M  V30 5032 C 459.673 -0.0879296 -5.34628 0
M  V30 5033 C 460.973 -2.18892 -4.74219 0
M  V30 5034 H 462.667 -1.50179 -2.59011 0
M  V30 5035 H 460.213 -0.723547 -1.24502 0
M  V30 5036 H 462.166 0.326488 -4.20133 0
M  V30 5037 H 460.89 0.948164 -3.12534 0
M  V30 5038 H 459.549 -1.15475 -3.47938 0
M  V30 5039 H 459.197 0.828941 -4.96123 0
M  V30 5040 H 458.897 -0.694359 -5.83483 0
M  V30 5041 H 460.421 0.198743 -6.10276 0
M  V30 5042 H 461.835 -1.95746 -5.38847 0
M  V30 5043 H 460.232 -2.74686 -5.33542 0
M  V30 5044 H 461.302 -2.84674 -3.92541 0
M  V30 5045 N 462.645 1.35699 -0.801477 0
M  V30 5046 C 463.893 1.9852 -0.37871 0
M  V30 5047 C 464.214 1.63907 1.05638 0
M  V30 5048 O 463.484 0.919013 1.73006 0
M  V30 5049 H 462.064 0.734322 -0.137042 0
M  V30 5050 H 464.726 1.65697 -1.02619 0
M  V30 5051 H 463.822 3.08382 -0.480284 0
M  V30 5052 N 464.123 0.554532 1.47522 0
M  V30 5053 C 465.372 0.0273458 2.01681 0
M  V30 5054 C 465.685 -1.32962 1.43459 0
M  V30 5055 O 466.891 -1.94657 1.89265 0
M  V30 5056 C 465.347 -0.00159057 3.599 0
M  V30 5057 C 464.955 1.35197 4.27113 0
M  V30 5058 C 466.699 -0.476311 4.21819 0
M  V30 5059 C 464.606 1.28229 5.77331 0
M  V30 5060 H 463.536 0.00645269 0.753972 0
M  V30 5061 H 466.187 0.701985 1.69542 0
M  V30 5062 H 464.569 -0.741821 3.8899 0
M  V30 5063 H 465.743 2.1097 4.09668 0
M  V30 5064 H 464.058 1.76441 3.77171 0
M  V30 5065 H 466.655 -0.5468 5.31897 0
M  V30 5066 H 466.998 -1.4877 3.8881 0
M  V30 5067 H 467.531 0.20898 3.97251 0
M  V30 5068 H 464.27 2.26959 6.14955 0
M  V30 5069 H 463.79 0.566314 5.97121 0
M  V30 5070 H 465.469 0.983226 6.39485 0
M  V30 5071 N 465.601 -1.54893 0.290851 0
M  V30 5072 C 466.847 -2.0023 -0.321867 0
M  V30 5073 C 467.18 -1.179 -1.54316 0
M  V30 5074 O 466.455 -0.25293 -1.92848 0
M  V30 5075 C 466.738 -3.53456 -0.688515 0
M  V30 5076 C 466.591 -4.46532 0.541209 0
M  V30 5077 C 467.91 -4.13057 -1.51895 0
M  V30 5078 H 465.029 -0.727891 -0.115515 0
M  V30 5079 H 467.671 -1.85722 0.400931 0
M  V30 5080 H 465.821 -3.6595 -1.30433 0
M  V30 5081 H 467.493 -4.4596 1.17973 0
M  V30 5082 H 465.736 -4.17545 1.17636 0
M  V30 5083 H 466.407 -5.51475 0.240675 0
M  V30 5084 H 468.883 -4.03937 -0.99872 0
M  V30 5085 H 467.759 -5.20448 -1.74429 0
M  V30 5086 H 468.02 -3.64284 -2.50498 0
M  V30 5087 N 467.08 -0.0183926 -1.57589 0
M  V30 5088 C 468.327 0.662562 -1.91354 0
M  V30 5089 C 468.655 1.72747 -0.893788 0
M  V30 5090 O 467.91 1.9545 0.0988509 0
M  V30 5091 C 468.209 1.32676 -3.31861 0
M  V30 5092 C 467.875 0.393267 -4.49182 0
M  V30 5093 C 466.537 0.136302 -4.81007 0
M  V30 5094 C 468.889 -0.248366 -5.20608 0
M  V30 5095 C 466.217 -0.770282 -5.81621 0
M  V30 5096 C 468.569 -1.14294 -6.22189 0
M  V30 5097 C 467.233 -1.4089 -6.52462 0
M  V30 5098 H 466.503 0.242448 -0.700214 0
M  V30 5099 H 469.15 -0.0778629 -1.91342 0
M  V30 5100 H 467.455 2.14168 -3.28084 0
M  V30 5101 H 469.152 1.86001 -3.55253 0
M  V30 5102 H 465.742 0.603723 -4.24327 0
M  V30 5103 H 469.926 -0.062883 -4.9626 0
M  V30 5104 H 465.182 -0.984154 -6.03427 0
M  V30 5105 H 469.356 -1.64637 -6.76659 0
M  V30 5106 H 466.983 -2.11306 -7.30242 0
M  V30 5107 N 468.558 1.5553 0.254621 0
M  V30 5108 C 469.805 1.77 0.983736 0
M  V30 5109 C 470.133 0.58133 1.85609 0
M  V30 5110 O 469.388 -0.435621 1.9079 0
M  V30 5111 C 469.687 3.03891 1.88109 0
M  V30 5112 C 469.353 4.35597 1.16472 0
M  V30 5113 C 468.015 4.7139 0.966714 0
M  V30 5114 C 470.367 5.1705 0.656387 0
M  V30 5115 C 467.695 5.86176 0.247942 0
M  V30 5116 C 470.047 6.32581 -0.0488807 0
M  V30 5117 C 468.711 6.67 -0.258438 0
M  V30 5118 H 467.981 0.647688 0.359974 0
M  V30 5119 H 470.628 1.89802 0.254463 0
M  V30 5120 H 468.933 2.86068 2.67717 0
M  V30 5121 H 470.63 3.17701 2.44677 0
M  V30 5122 H 467.22 4.07475 1.32899 0
M  V30 5123 H 471.404 4.8986 0.796933 0
M  V30 5124 H 466.66 6.11354 0.075035 0
M  V30 5125 H 470.834 6.94942 -0.450444 0
M  V30 5126 H 468.461 7.55793 -0.817358 0
M  V30 5127 N 470.036 -0.519951 1.48776 0
M  V30 5128 C 471.282 -1.27711 1.57536 0
M  V30 5129 C 471.615 -1.92547 0.252866 0
M  V30 5130 O 470.89 -1.7979 -0.742021 0
M  V30 5131 C 471.173 -2.35875 2.72094 0
M  V30 5132 C 471.026 -1.75664 4.1408 0
M  V30 5133 C 472.345 -3.37575 2.82367 0
M  V30 5134 H 469.464 -0.462971 0.573434 0
M  V30 5135 H 472.106 -0.578194 1.80989 0
M  V30 5136 H 470.256 -2.95488 2.52228 0
M  V30 5137 H 471.928 -1.20025 4.45412 0
M  V30 5138 H 470.171 -1.06154 4.20611 0
M  V30 5139 H 470.842 -2.54029 4.90075 0
M  V30 5140 H 473.318 -2.87929 3.00393 0
M  V30 5141 H 472.194 -4.1064 3.64233 0
M  V30 5142 H 472.455 -3.98743 1.90936 0
M  V30 5143 N 471.514 -1.37532 -0.769588 0
M  V30 5144 C 472.761 -1.3286 -1.52822 0
M  V30 5145 C 473.089 0.0862597 -1.94309 0
M  V30 5146 O 472.344 1.05995 -1.6451 0
M  V30 5147 C 472.643 -2.21558 -2.8044 0
M  V30 5148 C 472.309 -3.69796 -2.57996 0
M  V30 5149 C 470.971 -4.10194 -2.51583 0
M  V30 5150 C 473.323 -4.63699 -2.37976 0
M  V30 5151 C 470.651 -5.42608 -2.23144 0
M  V30 5152 C 473.003 -5.96353 -2.1106 0
M  V30 5153 C 471.667 -6.35853 -2.03093 0
M  V30 5154 H 470.937 -0.486168 -0.559215 0
M  V30 5155 H 473.584 -1.69757 -0.886277 0
M  V30 5156 H 471.889 -1.77663 -3.49204 0
M  V30 5157 H 473.586 -2.15256 -3.38328 0
M  V30 5158 H 470.176 -3.37759 -2.63851 0
M  V30 5159 H 474.36 -4.33346 -2.41919 0
M  V30 5160 H 469.616 -5.72173 -2.15472 0
M  V30 5161 H 473.79 -6.68667 -1.94568 0
M  V30 5162 H 471.417 -7.38382 -1.8082 0
M  V30 5163 N 472.992 0.995999 -1.22138 0
M  V30 5164 C 473.922 2.10387 -1.01289 0
M  V30 5165 C 474.903 1.69975 0.0651454 0
M  V30 5166 O 476.088 1.9396 -0.0964628 0
M  V30 5167 C 473.218 3.42312 -0.586517 0
M  V30 5168 C 472.172 3.96558 -1.61014 0
M  V30 5169 C 471.498 5.24494 -1.0397 0
M  V30 5170 C 472.798 4.27595 -2.99933 0
M  V30 5171 H 474.492 2.28086 -1.93951 0
M  V30 5172 H 472.038 1.09607 -0.933928 0
M  V30 5173 H 473.991 4.19223 -0.427793 0
M  V30 5174 H 472.715 3.24431 0.375761 0
M  V30 5175 H 471.374 3.21776 -1.75658 0
M  V30 5176 H 471.022 5.02953 -0.0688703 0
M  V30 5177 H 470.722 5.61755 -1.72352 0
M  V30 5178 H 472.246 6.04042 -0.892494 0
M  V30 5179 H 473.66 4.95315 -2.8868 0
M  V30 5180 H 472.057 4.76021 -3.6541 0
M  V30 5181 H 473.127 3.35498 -3.50099 0
M  V30 5182 N 474.47 1.03057 1.19235 0
M  V30 5183 C 475.719 0.72326 1.88287 0
M  V30 5184 C 476.032 -0.751333 1.80594 0
M  V30 5185 O 477.238 -1.17176 2.44912 0
M  V30 5186 C 475.694 1.24338 3.3774 0
M  V30 5187 C 475.302 2.74587 3.53986 0
M  V30 5188 C 477.046 1.01213 4.12257 0
M  V30 5189 C 474.953 3.20009 4.97341 0
M  V30 5190 H 473.883 0.266848 0.705201 0
M  V30 5191 H 476.534 1.24509 1.34795 0
M  V30 5192 H 474.916 0.649457 3.90638 0
M  V30 5193 H 476.09 3.39649 3.11408 0
M  V30 5194 H 474.405 2.9601 2.9286 0
M  V30 5195 H 477.002 1.32675 5.17978 0
M  V30 5196 H 477.345 -0.051001 4.16269 0
M  V30 5197 H 477.878 1.57014 3.65501 0
M  V30 5198 H 474.617 4.25659 4.98493 0
M  V30 5199 H 474.137 2.59676 5.40674 0
M  V30 5200 H 475.816 3.13447 5.66003 0
M  V30 5201 N 475.948 -1.35272 0.808662 0
M  V30 5202 C 476.881 -2.27595 0.165994 0
M  V30 5203 C 477.859 -1.48189 -0.669241 0
M  V30 5204 O 479.043 -1.77444 -0.636073 0
M  V30 5205 C 476.17 -3.29843 -0.769505 0
M  V30 5206 C 475.216 -4.26498 -0.0136267 0
M  V30 5207 S 476.049 -5.18878 1.32384 0
M  V30 5208 C 477.205 -6.24666 0.392838 0
M  V30 5209 H 477.438 -2.81755 0.948756 0
M  V30 5210 H 474.971 -1.42103 0.603828 0
M  V30 5211 H 476.929 -3.89247 -1.30374 0
M  V30 5212 H 475.59 -2.74558 -1.52567 0
M  V30 5213 H 474.783 -4.98769 -0.724227 0
M  V30 5214 H 474.385 -3.71274 0.450713 0
M  V30 5215 H 476.677 -6.7619 -0.4211 0
M  V30 5216 H 477.62 -6.99741 1.0848 0
M  V30 5217 H 478.028 -5.64499 -0.0123908 0
M  V30 5218 N 477.426 -0.562348 -1.47226 0
M  V30 5219 C 478.672 -0.0485293 -2.03342 0
M  V30 5220 C 479.027 1.28898 -1.42839 0
M  V30 5221 O 478.32 1.82719 -0.576563 0
M  V30 5222 C 478.514 0.0969817 -3.57268 0
M  V30 5223 C 478.343 -1.22487 -4.32697 0
M  V30 5224 C 477.113 -1.79357 -4.72397 0
M  V30 5225 C 479.311 -2.14332 -4.67511 0
M  V30 5226 N 477.293 -3.05493 -5.32491 0
M  V30 5227 C 478.664 -3.25049 -5.27961 0
M  V30 5228 C 480.719 -2.14263 -4.4944 0
M  V30 5229 C 479.422 -4.35804 -5.72248 0
M  V30 5230 C 481.448 -3.24033 -4.94729 0
M  V30 5231 C 480.81 -4.3347 -5.55233 0
M  V30 5232 H 476.909 -0.0600464 -0.779691 0
M  V30 5233 H 479.493 -0.750769 -1.79643 0
M  V30 5234 H 477.664 0.768353 -3.80724 0
M  V30 5235 H 479.396 0.613333 -4.00025 0
M  V30 5236 H 476.151 -1.33093 -4.54514 0
M  V30 5237 H 476.575 -3.698 -5.67077 0
M  V30 5238 H 481.217 -1.30935 -4.02015 0
M  V30 5239 H 478.935 -5.19888 -6.18661 0
M  V30 5240 H 482.521 -3.25073 -4.82513 0
M  V30 5241 H 481.401 -5.17008 -5.89638 0
M  V30 5242 N 478.904 1.54736 -0.299062 0
M  V30 5243 C 480.144 2.0201 0.31168 0
M  V30 5244 C 480.508 1.18281 1.5124 0
M  V30 5245 O 481.709 1.55243 2.19438 0
M  V30 5246 C 479.98 3.5123 0.661227 0
M  V30 5247 S 481.539 4.20467 1.2551 0
M  V30 5248 H 478.357 0.704523 0.0957517 0
M  V30 5249 H 480.959 1.90791 -0.426482 0
M  V30 5250 H 479.663 4.09804 -0.221171 0
M  V30 5251 H 479.194 3.66481 1.43023 0
M  V30 5252 H 481.209 4.26083 2.54298 0
M  V30 5253 N 480.382 0.0267497 1.57577 0
M  V30 5254 C 481.793 -0.512413 1.79531 0
M  V30 5255 C 482.144 -1.72391 0.936791 0
M  V30 5256 O 481.269 -2.15903 0.146543 0
M  V30 5257 C 481.864 -0.936378 3.25603 0
M  V30 5258 C 480.423 -1.42067 3.4856 0
M  V30 5259 C 479.57 -0.384278 2.74624 0
M  V30 5260 H 482.521 0.252797 1.56674 0
M  V30 5261 H 482.542 -1.80088 3.35184 0
M  V30 5262 H 482.054 -0.0544332 3.88062 0
M  V30 5263 H 480.155 -2.32262 2.9135 0
M  V30 5264 H 480.268 -1.42968 4.57271 0
M  V30 5265 H 478.632 -0.851855 2.40032 0
M  V30 5266 H 479.415 0.489159 3.39797 0
M  V30 5267 N 481.861 -1.55662 -0.24637 0
M  V30 5268 C 483.108 -1.77519 -0.974335 0
M  V30 5269 C 483.436 -0.591165 -1.85298 0
M  V30 5270 O 482.691 0.425497 -1.91018 0
M  V30 5271 C 482.99 -3.04885 -1.86494 0
M  V30 5272 C 482.656 -4.36209 -1.14161 0
M  V30 5273 C 481.318 -4.71896 -0.941701 0
M  V30 5274 C 483.67 -5.17391 -0.628957 0
M  V30 5275 C 480.998 -5.86299 -0.216852 0
M  V30 5276 C 483.35 -6.32546 0.0824273 0
M  V30 5277 C 482.014 -6.66853 0.293807 0
M  V30 5278 H 481.284 -0.649588 -0.356535 0
M  V30 5279 H 483.931 -1.89934 -0.244394 0
M  V30 5280 H 482.236 -2.87484 -2.66196 0
M  V30 5281 H 483.933 -3.18994 -2.42989 0
M  V30 5282 H 480.523 -4.08174 -1.30736 0
M  V30 5283 H 484.707 -4.90276 -0.770943 0
M  V30 5284 H 479.963 -6.11385 -0.0426124 0
M  V30 5285 H 484.137 -6.94693 0.487292 0
M  V30 5286 H 481.764 -7.55349 0.857428 0
M  V30 5287 N 483.339 0.512053 -1.4905 0
M  V30 5288 C 484.586 1.26686 -1.57978 0
M  V30 5289 C 484.914 1.92733 -0.261553 0
M  V30 5290 O 484.169 1.80772 0.749667 0
M  V30 5291 C 484.468 2.36446 -2.68008 0
M  V30 5292 C 484.134 1.87932 -4.09869 0
M  V30 5293 C 482.796 1.74419 -4.48477 0
M  V30 5294 C 485.148 1.5149 -4.98698 0
M  V30 5295 C 482.476 1.22827 -5.73699 0
M  V30 5296 C 484.828 1.01355 -6.24428 0
M  V30 5297 C 483.492 0.864735 -6.61875 0
M  V30 5298 H 482.762 0.463577 -0.578081 0
M  V30 5299 H 485.409 0.569421 -1.82838 0
M  V30 5300 H 483.714 3.11933 -2.37076 0
M  V30 5301 H 485.411 2.9453 -2.72127 0
M  V30 5302 H 482.001 1.99405 -3.79389 0
M  V30 5303 H 486.185 1.60782 -4.69535 0
M  V30 5304 H 481.441 1.10008 -6.01422 0
M  V30 5305 H 485.615 0.722351 -6.92644 0
M  V30 5306 H 483.242 0.462777 -7.5879 0
M  V30 5307 N 484.817 1.37938 0.762283 0
M  V30 5308 C 486.066 1.32989 1.51647 0
M  V30 5309 C 486.379 -0.0802922 1.95435 0
M  V30 5310 O 487.585 -0.252295 2.70325 0
M  V30 5311 C 486.041 2.33485 2.73885 0
M  V30 5312 C 485.649 3.80079 2.37157 0
M  V30 5313 C 487.393 2.37563 3.51801 0
M  V30 5314 C 485.3 4.72283 3.55954 0
M  V30 5315 H 484.23 0.494301 0.56937 0
M  V30 5316 H 486.881 1.63448 0.834083 0
M  V30 5317 H 485.263 1.96056 3.44061 0
M  V30 5318 H 486.437 4.26398 1.74704 0
M  V30 5319 H 484.752 3.79037 1.72395 0
M  V30 5320 H 487.349 3.0365 4.40114 0
M  V30 5321 H 487.692 1.39199 3.92338 0
M  V30 5322 H 488.225 2.73747 2.8863 0
M  V30 5323 H 484.964 5.7181 3.2049 0
M  V30 5324 H 484.484 4.30663 4.1748 0
M  V30 5325 H 486.163 4.89876 4.22647 0
M  V30 5326 N 486.295 -0.989507 1.22664 0
M  V30 5327 C 487.523 -1.76496 1.07967 0
M  V30 5328 C 487.938 -1.85148 -0.369543 0
M  V30 5329 O 487.295 -1.32408 -1.25596 0
M  V30 5330 C 487.346 -3.19642 1.68853 0
M  V30 5331 O 487.067 -3.11453 3.08105 0
M  V30 5332 C 488.568 -4.13621 1.59475 0
M  V30 5333 H 485.788 -0.55418 0.378319 0
M  V30 5334 H 488.332 -1.24378 1.62328 0
M  V30 5335 H 486.487 -3.68816 1.18547 0
M  V30 5336 H 486.901 -4.01499 3.37489 0
M  V30 5337 H 488.375 -5.11801 2.06795 0
M  V30 5338 H 488.852 -4.35718 0.55191 0
M  V30 5339 H 489.458 -3.70346 2.09103 0
M  V30 5340 N 487.773 -1.03688 -1.18687 0
M  V30 5341 C 488.721 -0.618292 -2.24232 0
M  V30 5342 C 489.715 0.353045 -1.6568 0
M  V30 5343 O 490.921 0.220749 -1.78641 0
M  V30 5344 H 487.296 -0.181711 -0.729716 0
M  V30 5345 H 489.267 -1.51893 -2.56848 0
M  V30 5346 C 488.016 0.00677342 -3.47699 0
M  V30 5347 H 487.339 -0.731692 -3.93047 0
M  V30 5348 H 488.779 0.262492 -4.23187 0
M  V30 5349 C 487.238 1.25572 -3.12623 0
M  V30 5350 O 487.768 2.34691 -3.26011 0
M  V30 5351 N 485.974 1.14755 -2.66982 0
M  V30 5352 H 485.521 0.259601 -2.56289 0
M  V30 5353 H 485.479 1.98412 -2.43885 0
M  V30 5354 N 489.251 1.34841 -0.815825 0
M  V30 5355 C 490.5 1.97755 -0.396976 0
M  V30 5356 C 490.813 1.65422 1.04379 0
M  V30 5357 O 492.019 2.21771 1.5662 0
M  V30 5358 C 490.475 3.53818 -0.658869 0
M  V30 5359 C 490.083 3.95051 -2.11278 0
M  V30 5360 C 491.827 4.23397 -0.305834 0
M  V30 5361 C 489.734 5.43997 -2.31994 0
M  V30 5362 H 488.664 0.739985 -0.1447 0
M  V30 5363 H 491.315 1.53781 -1.00118 0
M  V30 5364 H 489.697 3.95997 0.0154112 0
M  V30 5365 H 490.871 3.63998 -2.82564 0
M  V30 5366 H 489.186 3.38388 -2.42657 0
M  V30 5367 H 491.783 5.32899 -0.43854 0
M  V30 5368 H 492.126 4.09508 0.748952 0
M  V30 5369 H 492.659 3.8667 -0.934403 0
M  V30 5370 H 489.398 5.62865 -3.35952 0
M  V30 5371 H 488.918 5.76589 -1.65244 0
M  V30 5372 H 490.597 6.10584 -2.14001 0
M  V30 5373 N 490.729 0.570148 1.46925 0
M  V30 5374 C 491.659 -0.158274 2.32963 0
M  V30 5375 C 492.64 -0.896093 1.44583 0
M  V30 5376 O 493.825 -0.874022 1.7342 0
M  V30 5377 C 490.955 -1.18055 3.26619 0
M  V30 5378 C 489.909 -0.558379 4.24342 0
M  V30 5379 C 489.235 -1.68623 5.07415 0
M  V30 5380 C 490.535 0.496295 5.19937 0
M  V30 5381 H 492.229 0.560046 2.94115 0
M  V30 5382 H 489.775 0.270775 1.41431 0
M  V30 5383 H 491.728 -1.69841 3.85658 0
M  V30 5384 H 490.452 -1.92899 2.63548 0
M  V30 5385 H 489.111 -0.0617157 3.66548 0
M  V30 5386 H 488.759 -2.42402 4.40738 0
M  V30 5387 H 488.459 -1.27564 5.73586 0
M  V30 5388 H 489.983 -2.20709 5.69315 0
M  V30 5389 H 491.397 0.0640052 5.73264 0
M  V30 5390 H 489.794 0.82649 5.94381 0
M  V30 5391 H 490.864 1.38735 4.6463 0
M  V30 5392 N 492.207 -1.54576 0.307264 0
M  V30 5393 C 493.432 -2.05139 -0.305379 0
M  V30 5394 C 493.857 -1.18278 -1.46259 0
M  V30 5395 O 493.215 -0.188243 -1.8032 0
M  V30 5396 C 493.263 -3.53066 -0.733283 0
M  V30 5397 O 492.367 -3.69206 -1.83741 0
M  V30 5398 H 491.708 -0.661444 -0.0582105 0
M  V30 5399 H 494.238 -1.99569 0.450931 0
M  V30 5400 H 494.248 -3.95034 -1.02039 0
M  V30 5401 H 492.923 -4.15746 0.113198 0
M  V30 5402 H 491.5 -3.39143 -1.55037 0
M  V30 5403 N 493.685 -0.035106 -1.57561 0
M  V30 5404 C 494.931 0.64318 -1.92331 0
M  V30 5405 C 495.264 1.71434 -0.912368 0
M  V30 5406 O 494.539 1.94395 0.0640303 0
M  V30 5407 C 494.822 1.25411 -3.37556 0
M  V30 5408 C 494.675 0.192109 -4.4939 0
M  V30 5409 C 495.994 2.17041 -3.82859 0
M  V30 5410 H 493.113 0.232341 -0.699419 0
M  V30 5411 H 495.755 -0.0935889 -1.89769 0
M  V30 5412 H 493.905 1.88205 -3.39869 0
M  V30 5413 H 495.577 -0.438849 -4.59208 0
M  V30 5414 H 493.82 -0.481725 -4.31117 0
M  V30 5415 H 494.491 0.659292 -5.48049 0
M  V30 5416 H 496.967 1.64228 -3.8232 0
M  V30 5417 H 495.843 2.56738 -4.85157 0
M  V30 5418 H 496.104 3.06401 -3.18702 0
M  V30 5419 N 495.163 1.55791 0.238111 0
M  V30 5420 C 496.093 1.94068 1.29846 0
M  V30 5421 C 497.074 0.806726 1.49753 0
M  V30 5422 O 498.259 1.06772 1.62214 0
M  V30 5423 C 495.389 2.24302 2.65153 0
M  V30 5424 C 494.343 3.40032 2.59927 0
M  V30 5425 C 493.669 3.55829 3.99111 0
M  V30 5426 C 494.969 4.75476 2.16148 0
M  V30 5427 H 496.663 2.82887 0.980563 0
M  V30 5428 H 494.209 1.36105 0.470253 0
M  V30 5429 H 496.162 2.4967 3.39475 0
M  V30 5430 H 494.886 1.32318 2.98596 0
M  V30 5431 H 493.545 3.14687 1.88063 0
M  V30 5432 H 493.193 2.6125 4.29834 0
M  V30 5433 H 492.893 4.3366 3.96501 0
M  V30 5434 H 494.417 3.83528 4.7512 0
M  V30 5435 H 495.831 5.00158 2.80205 0
M  V30 5436 H 494.228 5.56472 2.24631 0
M  V30 5437 H 495.298 4.71946 1.11333 0
M  V30 5438 N 496.642 -0.504142 1.49319 0
M  V30 5439 C 497.882 -1.26867 1.60263 0
M  V30 5440 C 498.246 -1.89924 0.281578 0
M  V30 5441 O 499.447 -2.67479 0.266176 0
M  V30 5442 C 497.718 -2.30956 2.72753 0
M  V30 5443 S 499.277 -3.1679 3.03628 0
M  V30 5444 H 496.095 -0.431198 0.565322 0
M  V30 5445 H 498.697 -0.571407 1.86963 0
M  V30 5446 H 497.401 -1.83156 3.67263 0
M  V30 5447 H 496.932 -3.05356 2.48035 0
M  V30 5448 H 498.947 -4.31549 2.44908 0
M  V30 5449 N 498.12 -1.38341 -0.754957 0
M  V30 5450 C 499.03 -1.3769 -1.89944 0
M  V30 5451 C 500.046 -0.274194 -1.71826 0
M  V30 5452 O 501.222 -0.512391 -1.94773 0
M  V30 5453 C 498.287 -1.19938 -3.25293 0
M  V30 5454 C 497.348 -2.40001 -3.55946 0
M  V30 5455 C 496.581 -2.23087 -4.84838 0
M  V30 5456 O 496.804 -1.22386 -5.57116 0
M  V30 5457 O 495.738 -3.11646 -5.14937 0
M  V30 5458 H 499.564 -2.3412 -1.93446 0
M  V30 5459 H 497.149 -1.19246 -0.900044 0
M  V30 5460 H 499.031 -1.12093 -4.06218 0
M  V30 5461 H 497.706 -0.265919 -3.22606 0
M  V30 5462 H 496.613 -2.53421 -2.75188 0
M  V30 5463 H 497.946 -3.31973 -3.63394 0
M  V30 5464 N 499.598 0.982988 -1.23187 0
M  V30 5465 C 500.545 2.07491 -1.01075 0
M  V30 5466 C 501.515 1.65949 0.070905 0
M  V30 5467 O 502.7 1.90629 -0.0806822 0
M  V30 5468 C 499.84 3.39751 -0.605261 0
M  V30 5469 C 498.953 3.94578 -1.75876 0
M  V30 5470 C 498.088 5.15039 -1.3003 0
M  V30 5471 C 497.127 5.62027 -2.42472 0
M  V30 5472 N 496.264 6.73719 -1.97602 0
M  V30 5473 H 501.104 2.25739 -1.9454 0
M  V30 5474 H 498.641 1.10659 -0.969179 0
M  V30 5475 H 500.599 4.15719 -0.351279 0
M  V30 5476 H 499.229 3.21473 0.292382 0
M  V30 5477 H 498.281 3.1539 -2.12681 0
M  V30 5478 H 499.593 4.25422 -2.60418 0
M  V30 5479 H 498.747 5.9833 -1.00429 0
M  V30 5480 H 497.486 4.85843 -0.425216 0
M  V30 5481 H 496.491 4.77318 -2.7285 0
M  V30 5482 H 497.716 5.93244 -3.30512 0
M  V30 5483 H 495.662 6.46287 -1.1247 0
M  V30 5484 H 495.579 7.03934 -2.75705 0
M  V30 5485 H 496.847 7.6049 -1.71098 0
M  V30 5486 N 501.076 1.04316 1.18135 0
M  V30 5487 C 502.301 0.768047 1.92655 0
M  V30 5488 C 502.726 -0.66904 1.758 0
M  V30 5489 O 502.084 -1.46372 1.06981 0
M  V30 5490 C 502.132 1.14239 3.42026 0
M  V30 5491 O 501.236 0.269333 4.1152 0
M  V30 5492 H 500.577 0.282436 0.600937 0
M  V30 5493 H 503.107 1.39367 1.49793 0
M  V30 5494 H 503.117 1.10538 3.92741 0
M  V30 5495 H 501.792 2.18928 3.53615 0
M  V30 5496 H 500.369 0.366175 3.71098 0
M  V30 5497 N 502.554 -1.34406 0.822964 0
M  V30 5498 C 503.794 -2.00103 0.416915 0
M  V30 5499 C 504.158 -1.63826 -1.00125 0
M  V30 5500 O 505.359 -2.22367 -1.51018 0
M  V30 5501 C 503.63 -3.52101 0.613151 0
M  V30 5502 S 505.189 -4.37774 0.299956 0
M  V30 5503 H 502.007 -0.69333 0.157527 0
M  V30 5504 H 504.609 -1.63698 1.06879 0
M  V30 5505 H 503.313 -3.75991 1.64496 0
M  V30 5506 H 502.844 -3.93364 -0.0534554 0
M  V30 5507 H 504.859 -4.8822 -0.886336 0
M  V30 5508 N 504.032 -0.577932 -1.46621 0
M  V30 5509 C 504.98 0.170882 -2.31971 0
M  V30 5510 C 505.974 0.889086 -1.44193 0
M  V30 5511 O 507.18 0.808017 -1.60845 0
M  V30 5512 H 503.555 0.0739763 -0.748353 0
M  V30 5513 H 505.526 -0.567856 -2.92947 0
M  V30 5514 C 504.275 1.17438 -3.27267 0
M  V30 5515 H 503.598 0.63116 -3.94787 0
M  V30 5516 H 505.038 1.66882 -3.89778 0
M  V30 5517 C 503.497 2.23292 -2.52274 0
M  V30 5518 O 504.027 3.30567 -2.28229 0
M  V30 5519 N 502.233 1.97772 -2.12919 0
M  V30 5520 H 501.78 1.10545 -2.32675 0
M  V30 5521 H 501.738 2.68809 -1.63062 0
M  V30 5522 N 505.51 1.54411 -0.315457 0
M  V30 5523 C 506.442 2.21527 0.588067 0
M  V30 5524 C 507.455 1.21263 1.08624 0
M  V30 5525 O 508.644 1.47777 1.00121 0
M  V30 5526 C 505.744 2.85963 1.81875 0
M  V30 5527 C 504.917 4.12291 1.46063 0
M  V30 5528 C 503.976 4.60396 2.54799 0
M  V30 5529 O 503.002 5.25265 2.19283 0
M  V30 5530 N 504.204 4.33935 3.85591 0
M  V30 5531 H 506.969 2.99697 0.013414 0
M  V30 5532 H 504.53 1.61308 -0.138295 0
M  V30 5533 H 506.522 3.15071 2.53993 0
M  V30 5534 H 505.092 2.11548 2.30144 0
M  V30 5535 H 504.312 3.90036 0.571445 0
M  V30 5536 H 505.6 4.9452 1.19695 0
M  V30 5537 H 504.998 3.81996 4.17248 0
M  V30 5538 H 503.555 4.67718 4.53964 0
M  V30 5539 N 506.988 0.0434614 1.5754 0
M  V30 5540 C 507.935 -0.93356 2.11077 0
M  V30 5541 C 508.905 -1.31383 1.01626 0
M  V30 5542 O 510.09 -1.40465 1.29129 0
M  V30 5543 C 507.23 -2.20578 2.65404 0
M  V30 5544 C 506.343 -1.88068 3.88914 0
M  V30 5545 C 505.478 -3.09691 4.31584 0
M  V30 5546 C 504.517 -2.73067 5.47815 0
M  V30 5547 N 503.654 -3.87359 5.85574 0
M  V30 5548 H 508.494 -0.470118 2.94268 0
M  V30 5549 H 506.031 -0.220434 1.45439 0
M  V30 5550 H 507.989 -2.95011 2.94999 0
M  V30 5551 H 506.619 -2.64513 1.85021 0
M  V30 5552 H 505.671 -1.03816 3.6596 0
M  V30 5553 H 506.983 -1.57104 4.73413 0
M  V30 5554 H 506.137 -3.92431 4.62691 0
M  V30 5555 H 504.876 -3.43827 3.45882 0
M  V30 5556 H 503.881 -1.88742 5.16388 0
M  V30 5557 H 505.106 -2.40131 6.35227 0
M  V30 5558 H 503.052 -4.21311 5.02825 0
M  V30 5559 H 502.969 -3.60068 6.64746 0
M  V30 5560 H 504.237 -4.70761 6.21292 0
M  V30 5561 N 508.466 -1.55915 -0.229846 0
M  V30 5562 C 509.396 -1.94754 -1.28815 0
M  V30 5563 C 510.377 -0.814657 -1.49323 0
M  V30 5564 O 511.562 -1.07631 -1.61645 0
M  V30 5565 C 508.692 -2.25705 -2.63959 0
M  V30 5566 C 507.646 -3.41406 -2.5812 0
M  V30 5567 C 506.972 -3.57941 -3.97218 0
M  V30 5568 C 508.272 -4.76616 -2.13623 0
M  V30 5569 H 509.966 -2.83404 -0.965547 0
M  V30 5570 H 507.512 -1.36353 -0.463028 0
M  V30 5571 H 509.465 -2.51467 -3.38146 0
M  V30 5572 H 508.189 -1.339 -2.9789 0
M  V30 5573 H 506.848 -3.1568 -1.86391 0
M  V30 5574 H 506.496 -2.63526 -4.28443 0
M  V30 5575 H 506.196 -4.35757 -3.94195 0
M  V30 5576 H 507.72 -3.86042 -4.73079 0
M  V30 5577 H 509.134 -5.01637 -2.77549 0
M  V30 5578 H 507.531 -5.57655 -2.21677 0
M  V30 5579 H 508.601 -4.7253 -1.08829 0
M  V30 5580 N 509.944 0.496216 -1.49584 0
M  V30 5581 C 510.877 1.61508 -1.61215 0
M  V30 5582 C 511.855 1.55927 -0.461045 0
M  V30 5583 O 513.039 1.75914 -0.677231 0
M  V30 5584 C 510.166 3.00035 -1.57152 0
M  V30 5585 C 509.212 3.23861 -2.77518 0
M  V30 5586 S 510.045 3.06466 -4.39134 0
M  V30 5587 C 511.201 4.4738 -4.37724 0
M  V30 5588 H 511.434 1.51398 -2.55863 0
M  V30 5589 H 508.967 0.681727 -1.38535 0
M  V30 5590 H 510.925 3.7991 -1.55494 0
M  V30 5591 H 509.586 3.07556 -0.637834 0
M  V30 5592 H 508.779 4.25 -2.70908 0
M  V30 5593 H 508.381 2.51716 -2.76614 0
M  V30 5594 H 510.673 5.39556 -4.09738 0
M  V30 5595 H 511.616 4.59038 -5.39156 0
M  V30 5596 H 512.024 4.28283 -3.67742 0
M  V30 5597 N 511.423 1.38739 0.74761 0
M  V30 5598 C 512.333 1.38696 1.89211 0
M  V30 5599 C 513.349 0.283303 1.71678 0
M  V30 5600 O 514.525 0.522713 1.94498 0
M  V30 5601 C 511.59 1.21662 3.24653 0
M  V30 5602 C 510.651 2.41886 3.54669 0
M  V30 5603 C 509.884 2.25655 4.83648 0
M  V30 5604 O 510.107 1.25339 5.56459 0
M  V30 5605 O 509.041 3.14372 5.13277 0
M  V30 5606 H 512.867 2.35143 1.92202 0
M  V30 5607 H 510.452 1.19721 0.893708 0
M  V30 5608 H 512.334 1.14246 4.05618 0
M  V30 5609 H 511.009 0.283024 3.2246 0
M  V30 5610 H 509.916 2.54877 2.73841 0
M  V30 5611 H 511.249 3.33895 3.61628 0
M  V30 5612 N 512.901 -0.976442 1.23707 0
M  V30 5613 C 513.848 -2.06952 1.02174 0
M  V30 5614 C 514.818 -1.65984 -0.0621034 0
M  V30 5615 O 516.003 -1.90584 0.0907906 0
M  V30 5616 C 513.143 -3.39425 0.62327 0
M  V30 5617 C 512.256 -3.9364 1.77966 0
M  V30 5618 C 511.391 -5.14343 1.3276 0
M  V30 5619 C 510.43 -5.60733 2.45449 0
M  V30 5620 N 509.567 -6.72662 2.01172 0
M  V30 5621 H 514.407 -2.24704 1.95734 0
M  V30 5622 H 511.944 -1.10143 0.975034 0
M  V30 5623 H 513.902 -4.15526 0.37332 0
M  V30 5624 H 512.532 -3.21624 -0.275329 0
M  V30 5625 H 511.584 -3.14258 2.14351 0
M  V30 5626 H 512.896 -4.24035 2.62671 0
M  V30 5627 H 512.05 -5.97789 1.03601 0
M  V30 5628 H 510.789 -4.8561 0.450975 0
M  V30 5629 H 509.794 -4.75865 2.75378 0
M  V30 5630 H 511.019 -5.91483 3.33654 0
M  V30 5631 H 508.965 -6.45681 1.15895 0
M  V30 5632 H 508.882 -7.02462 2.79434 0
M  V30 5633 H 510.15 -7.59572 1.75129 0
M  V30 5634 N 514.379 -1.04941 -1.1758 0
M  V30 5635 C 515.309 -0.669172 -2.23706 0
M  V30 5636 C 516.29 0.331835 -1.66832 0
M  V30 5637 O 517.475 0.209988 -1.93061 0
M  V30 5638 C 514.605 -0.0404889 -3.47276 0
M  V30 5639 C 513.559 -0.965983 -4.16957 0
M  V30 5640 C 512.885 -0.201312 -5.34321 0
M  V30 5641 C 514.185 -2.28902 -4.69469 0
M  V30 5642 H 515.879 -1.55639 -2.55767 0
M  V30 5643 H 513.425 -0.749793 -1.22939 0
M  V30 5644 H 515.378 0.237298 -4.20731 0
M  V30 5645 H 514.102 0.881658 -3.14475 0
M  V30 5646 H 512.761 -1.22829 -3.45411 0
M  V30 5647 H 512.409 0.723519 -4.97769 0
M  V30 5648 H 512.109 -0.817968 -5.81879 0
M  V30 5649 H 513.633 0.0692499 -6.10561 0
M  V30 5650 H 515.047 -2.07132 -5.34574 0
M  V30 5651 H 513.444 -2.85942 -5.27596 0
M  V30 5652 H 514.514 -2.92937 -3.86414 0
M  V30 5653 N 515.857 1.33968 -0.830081 0
M  V30 5654 C 516.787 2.31911 -0.271911 0
M  V30 5655 C 517.768 1.58571 0.61556 0
M  V30 5656 O 518.953 1.86514 0.540946 0
M  V30 5657 C 516.083 3.42737 0.561146 0
M  V30 5658 C 515.037 4.27383 -0.229789 0
M  V30 5659 C 514.363 5.29742 0.726463 0
M  V30 5660 C 515.663 5.02 -1.44197 0
M  V30 5661 H 517.357 2.78844 -1.09025 0
M  V30 5662 H 514.903 1.34061 -0.52571 0
M  V30 5663 H 516.856 4.10276 0.961867 0
M  V30 5664 H 515.58 2.94471 1.41261 0
M  V30 5665 H 514.239 3.61456 -0.611964 0
M  V30 5666 H 513.887 4.77736 1.57408 0
M  V30 5667 H 513.587 5.87255 0.20142 0
M  V30 5668 H 515.111 6.00149 1.12489 0
M  V30 5669 H 516.525 5.62355 -1.11488 0
M  V30 5670 H 514.922 5.69122 -1.90317 0
M  V30 5671 H 515.992 4.31281 -2.2164 0
M  V30 5672 N 517.335 0.585699 1.46312 0
M  V30 5673 C 518.283 -0.158577 2.32059 0
M  V30 5674 C 519.277 -0.881427 1.44662 0
M  V30 5675 O 520.483 -0.799476 1.61271 0
M  V30 5676 H 516.858 -0.0700066 0.748734 0
M  V30 5677 H 518.829 0.583383 2.92642 0
M  V30 5678 C 517.578 -1.15701 3.27885 0
M  V30 5679 H 516.901 -0.610215 3.95116 0
M  V30 5680 H 518.341 -1.64812 3.90657 0
M  V30 5681 C 516.8 -2.21951 2.53455 0
M  V30 5682 O 517.33 -3.29352 2.29978 0
M  V30 5683 N 515.536 -1.9664 2.13965 0
M  V30 5684 H 515.083 -1.09309 2.33258 0
M  V30 5685 H 515.041 -2.6794 1.64485 0
M  V30 5686 N 518.813 -1.54241 0.323641 0
M  V30 5687 C 520.059 -2.00867 -0.279323 0
M  V30 5688 C 520.392 -1.21146 -1.5178 0
M  V30 5689 O 519.667 -0.29378 -1.92269 0
M  V30 5690 C 519.95 -3.54837 -0.613387 0
M  V30 5691 C 519.803 -4.45284 0.635803 0
M  V30 5692 C 521.122 -4.16186 -1.43099 0
M  V30 5693 H 518.241 -0.730177 -0.100049 0
M  V30 5694 H 520.883 -1.84829 0.440235 0
M  V30 5695 H 519.033 -3.68634 -1.22641 0
M  V30 5696 H 520.705 -4.43357 1.27406 0
M  V30 5697 H 518.948 -4.14956 1.26466 0
M  V30 5698 H 519.619 -5.5084 0.357597 0
M  V30 5699 H 522.095 -4.05964 -0.912814 0
M  V30 5700 H 520.971 -5.24031 -1.6335 0
M  V30 5701 H 521.232 -3.69516 -2.42715 0
M  V30 5702 N 520.291 -0.0518155 -1.57515 0
M  V30 5703 C 521.538 0.621823 -1.92716 0
M  V30 5704 C 521.866 1.70813 -0.930229 0
M  V30 5705 O 521.121 1.95616 0.0573708 0
M  V30 5706 C 521.42 1.25607 -3.34601 0
M  V30 5707 C 521.086 0.297901 -4.49915 0
M  V30 5708 C 519.748 0.034243 -4.81188 0
M  V30 5709 C 522.1 -0.358738 -5.19964 0
M  V30 5710 C 519.428 -0.893479 -5.79857 0
M  V30 5711 C 521.78 -1.27466 -6.19625 0
M  V30 5712 C 520.444 -1.54698 -6.49326 0
M  V30 5713 H 519.714 0.227541 -0.705199 0
M  V30 5714 H 522.361 -0.118432 -1.91133 0
M  V30 5715 H 520.666 2.07161 -3.32553 0
M  V30 5716 H 522.363 1.78424 -3.59118 0
M  V30 5717 H 518.953 0.513581 -4.25512 0
M  V30 5718 H 523.137 -0.168133 -4.96015 0
M  V30 5719 H 518.393 -1.11193 -6.01204 0
M  V30 5720 H 522.567 -1.78953 -6.73015 0
M  V30 5721 H 520.194 -2.26748 -7.25596 0
M  V30 5722 N 521.769 1.56035 0.221574 0
M  V30 5723 C 523.015 1.79312 0.947372 0
M  V30 5724 C 523.348 0.621453 1.83988 0
M  V30 5725 O 522.623 -0.379287 1.90766 0
M  V30 5726 C 522.906 3.1267 1.78633 0
M  V30 5727 C 522.759 4.40284 0.920312 0
M  V30 5728 C 524.078 3.4247 2.7641 0
M  V30 5729 H 521.197 0.652328 0.342982 0
M  V30 5730 H 523.839 1.88765 0.216244 0
M  V30 5731 H 521.989 3.04741 2.40967 0
M  V30 5732 H 523.661 4.60232 0.313718 0
M  V30 5733 H 521.904 4.33212 0.225734 0
M  V30 5734 H 522.575 5.30033 1.54171 0
M  V30 5735 H 525.051 3.50526 2.24211 0
M  V30 5736 H 523.927 4.3695 3.32213 0
M  V30 5737 H 524.188 2.64635 3.54148 0
M  V30 5738 N 523.247 -0.488276 1.49845 0
M  V30 5739 C 524.493 -1.24065 1.61182 0
M  V30 5740 C 524.848 -1.9004 0.300435 0
M  V30 5741 O 524.141 -1.78341 -0.700365 0
M  V30 5742 C 524.335 -2.32152 2.71735 0
M  V30 5743 C 524.164 -1.76778 4.13497 0
M  V30 5744 C 522.934 -1.57513 4.80123 0
M  V30 5745 C 525.132 -1.27242 4.98311 0
M  V30 5746 N 523.114 -0.972015 6.06156 0
M  V30 5747 C 524.485 -0.791457 6.14928 0
M  V30 5748 C 526.54 -1.15934 4.84214 0
M  V30 5749 C 525.243 -0.208593 7.18997 0
M  V30 5750 C 527.269 -0.590436 5.88445 0
M  V30 5751 C 526.631 -0.119767 7.04298 0
M  V30 5752 H 522.73 -0.443487 0.644083 0
M  V30 5753 H 525.314 -0.545551 1.86901 0
M  V30 5754 H 523.485 -2.99108 2.47768 0
M  V30 5755 H 525.217 -2.99187 2.72523 0
M  V30 5756 H 521.972 -1.82247 4.37131 0
M  V30 5757 H 522.396 -0.689367 6.73481 0
M  V30 5758 H 527.038 -1.5092 3.94947 0
M  V30 5759 H 524.756 0.153501 8.07954 0
M  V30 5760 H 528.342 -0.505548 5.79599 0
M  V30 5761 H 527.222 0.313568 7.83573 0
M  V30 5762 N 524.725 -1.39134 -0.740242 0
M  V30 5763 C 525.974 -1.35384 -1.49512 0
M  V30 5764 C 526.287 0.04919 -1.95538 0
M  V30 5765 O 527.493 0.209257 -2.70692 0
M  V30 5766 C 525.949 -2.37812 -2.70136 0
M  V30 5767 C 525.557 -3.83804 -2.31081 0
M  V30 5768 C 527.301 -2.4313 -3.47977 0
M  V30 5769 C 525.208 -4.77886 -3.48395 0
M  V30 5770 H 524.138 -0.503297 -0.561434 0
M  V30 5771 H 526.789 -1.64754 -0.807974 0
M  V30 5772 H 525.171 -2.01505 -3.40899 0
M  V30 5773 H 526.345 -4.29123 -1.67898 0
M  V30 5774 H 524.66 -3.81732 -1.66343 0
M  V30 5775 H 527.257 -3.10614 -4.35228 0
M  V30 5776 H 527.6 -1.45423 -3.90074 0
M  V30 5777 H 528.133 -2.78304 -2.84239 0
M  V30 5778 H 524.872 -5.76836 -3.11353 0
M  V30 5779 H 524.392 -4.3725 -4.10576 0
M  V30 5780 H 526.071 -4.96538 -4.148 0
M  V30 5781 N 526.204 0.969867 -1.24223 0
M  V30 5782 C 527.452 1.70918 -1.0785 0
M  V30 5783 C 527.773 1.91186 0.383763 0
M  V30 5784 O 527.043 1.48806 1.27411 0
M  V30 5785 H 525.623 0.633334 -0.396103 0
M  V30 5786 H 528.285 1.16689 -1.56108 0
M  V30 5787 H 527.381 2.69455 -1.57482 0
M  V30 5788 N 527.682 1.05563 1.17022 0
M  V30 5789 C 528.912 0.787307 1.91011 0
M  V30 5790 C 529.32 -0.661256 1.77268 0
M  V30 5791 O 528.663 -1.46379 1.10991 0
M  V30 5792 C 528.725 1.09313 3.42478 0
M  V30 5793 C 528.389 2.53863 3.80004 0
M  V30 5794 C 529.386 3.52081 3.82538 0
M  V30 5795 C 527.071 2.88969 4.10855 0
M  V30 5796 C 529.065 4.83449 4.15399 0
M  V30 5797 C 526.752 4.2054 4.43384 0
M  V30 5798 C 527.75 5.17589 4.45635 0
M  V30 5799 O 527.438 6.46799 4.77395 0
M  V30 5800 H 527.17 0.285463 0.61277 0
M  V30 5801 H 529.724 1.41051 1.49311 0
M  V30 5802 H 527.954 0.412833 3.8449 0
M  V30 5803 H 529.643 0.810224 3.97731 0
M  V30 5804 H 530.409 3.26299 3.58823 0
M  V30 5805 H 526.288 2.1409 4.08272 0
M  V30 5806 H 529.832 5.59194 4.1707 0
M  V30 5807 H 525.729 4.46083 4.66563 0
M  V30 5808 H 526.497 6.51677 4.95237 0
M  V30 5809 N 529.16 -1.33526 0.837174 0
M  V30 5810 C 530.406 -1.9813 0.432704 0
M  V30 5811 C 530.739 -1.66168 -1.00508 0
M  V30 5812 O 530.014 -0.94069 -1.70239 0
M  V30 5813 C 530.297 -3.54151 0.651834 0
M  V30 5814 C 530.15 -3.95806 2.13676 0
M  V30 5815 C 531.469 -4.39993 0.0968937 0
M  V30 5816 H 528.588 -0.719713 0.15869 0
M  V30 5817 H 531.23 -1.58193 1.05237 0
M  V30 5818 H 529.38 -3.88301 0.124369 0
M  V30 5819 H 531.052 -3.71921 2.72896 0
M  V30 5820 H 529.295 -3.45599 2.62191 0
M  V30 5821 H 529.966 -5.0447 2.24084 0
M  V30 5822 H 532.442 -4.12479 0.547733 0
M  V30 5823 H 531.318 -5.48186 0.279917 0
M  V30 5824 H 531.579 -4.3066 -0.9992 0
M  V30 5825 N 530.638 -0.59345 -1.46 0
M  V30 5826 C 531.878 -0.0859747 -2.04219 0
M  V30 5827 C 532.242 1.25432 -1.45364 0
M  V30 5828 O 533.443 1.85168 -1.9485 0
M  V30 5829 C 531.714 -0.0324314 -3.57385 0
M  V30 5830 S 533.273 0.415908 -4.36824 0
M  V30 5831 H 530.091 -0.0426872 -0.709717 0
M  V30 5832 H 532.693 -0.788369 -1.78899 0
M  V30 5833 H 531.397 -1.01166 -3.97735 0
M  V30 5834 H 530.928 0.6924 -3.87259 0
M  V30 5835 H 532.943 1.66844 -4.67309 0
M  V30 5836 N 532.116 1.54067 -0.331816 0
M  V30 5837 C 533.341 2.05599 0.272705 0
M  V30 5838 C 533.766 1.2059 1.44359 0
M  V30 5839 O 533.124 0.216907 1.79998 0
M  V30 5840 C 533.172 3.54188 0.677021 0
M  V30 5841 O 532.276 3.72082 1.77844 0
M  V30 5842 H 531.617 0.662286 0.0476801 0
M  V30 5843 H 534.147 1.98826 -0.482624 0
M  V30 5844 H 534.157 3.96608 0.957415 0
M  V30 5845 H 532.832 4.15513 -0.179325 0
M  V30 5846 H 531.409 3.41566 1.49622 0
M  V30 5847 N 533.594 0.0601682 1.57485 0
M  V30 5848 C 534.842 -0.610386 1.92662 0
M  V30 5849 C 535.163 -1.70849 0.939981 0
M  V30 5850 O 534.433 -1.95895 -0.0137455 0
M  V30 5851 H 533.013 -0.228457 0.711208 0
M  V30 5852 H 535.675 0.115288 1.94559 0
M  V30 5853 H 534.771 -1.0432 2.94149 0
M  V30 5854 N 535.072 -1.5615 -0.213296 0
M  V30 5855 C 536.321 -1.78743 -0.93455 0
M  V30 5856 C 536.634 -0.630199 -1.8517 0
M  V30 5857 O 537.84 -0.739966 -2.61222 0
M  V30 5858 C 536.296 -3.16571 -1.71203 0
M  V30 5859 C 535.904 -4.40043 -0.840617 0
M  V30 5860 C 537.648 -3.48485 -2.42401 0
M  V30 5861 C 535.555 -5.68895 -1.61592 0
M  V30 5862 H 534.485 -0.666426 -0.352692 0
M  V30 5863 H 537.136 -1.82532 -0.188227 0
M  V30 5864 H 535.518 -3.06981 -2.50157 0
M  V30 5865 H 536.692 -4.6071 -0.0910326 0
M  V30 5866 H 535.007 -4.15706 -0.240365 0
M  V30 5867 H 537.604 -4.41983 -3.00924 0
M  V30 5868 H 537.947 -2.71371 -3.15695 0
M  V30 5869 H 538.48 -3.59442 -1.7043 0
M  V30 5870 H 535.219 -6.48925 -0.926106 0
M  V30 5871 H 534.739 -5.52275 -2.33991 0
M  V30 5872 H 536.418 -6.09365 -2.17447 0
M  V30 5873 N 536.55 0.480323 -1.50102 0
M  V30 5874 C 537.498 1.60024 -1.68805 0
M  V30 5875 C 538.492 1.60089 -0.553888 0
M  V30 5876 O 539.698 1.64349 -0.734127 0
M  V30 5877 H 536.073 0.530841 -0.532646 0
M  V30 5878 H 538.044 1.41408 -2.62767 0
M  V30 5879 C 536.793 2.98029 -1.79092 0
M  V30 5880 H 536.116 2.98694 -2.65748 0
M  V30 5881 H 537.556 3.75871 -1.96206 0
M  V30 5882 C 536.015 3.32538 -0.540388 0
M  V30 5883 O 536.545 4.00386 0.324637 0
M  V30 5884 N 534.751 2.87873 -0.397154 0
M  V30 5885 H 534.298 2.32834 -1.1021 0
M  V30 5886 H 534.256 3.11328 0.438425 0
M  V30 5887 N 538.028 1.39524 0.732853 0
M  V30 5888 C 539.439 1.32905 1.31122 0
M  V30 5889 C 539.79 -0.00558708 1.96199 0
M  V30 5890 O 538.915 -0.907706 1.96443 0
M  V30 5891 C 539.51 2.40704 2.38426 0
M  V30 5892 C 538.069 2.37599 2.91931 0
M  V30 5893 C 537.216 2.2248 1.65523 0
M  V30 5894 H 540.167 1.49581 0.530207 0
M  V30 5895 H 540.188 2.07616 3.18867 0
M  V30 5896 H 539.7 3.37829 1.91033 0
M  V30 5897 H 537.801 1.44119 3.43599 0
M  V30 5898 H 537.914 3.32538 3.44899 0
M  V30 5899 H 536.278 1.69691 1.8994 0
M  V30 5900 H 537.061 3.21577 1.20178 0
M  V30 5901 N 539.506 -0.963266 1.24736 0
M  V30 5902 C 540.436 -2.07628 1.06832 0
M  V30 5903 C 541.417 -1.70088 -0.0200566 0
M  V30 5904 O 542.602 -1.93636 0.147854 0
M  V30 5905 C 539.732 -3.40636 0.677069 0
M  V30 5906 C 538.686 -3.9215 1.71471 0
M  V30 5907 C 538.012 -5.21553 1.1784 0
M  V30 5908 C 539.312 -4.19493 3.11164 0
M  V30 5909 H 541.006 -2.22864 1.9993 0
M  V30 5910 H 538.552 -1.07093 0.96266 0
M  V30 5911 H 540.505 -4.17941 0.538792 0
M  V30 5912 H 539.229 -3.25313 -0.289612 0
M  V30 5913 H 537.888 -3.17005 1.84128 0
M  V30 5914 H 537.536 -5.02593 0.202195 0
M  V30 5915 H 537.236 -5.56988 1.87185 0
M  V30 5916 H 538.76 -6.01463 1.05233 0
M  V30 5917 H 540.174 -4.87487 3.01711 0
M  V30 5918 H 538.571 -4.66165 3.77902 0
M  V30 5919 H 539.641 -3.26097 3.58871 0
M  V30 5920 N 540.985 -1.06182 -1.16461 0
M  V30 5921 C 542.231 -0.779015 -1.87241 0
M  V30 5922 C 542.564 0.692715 -1.81425 0
M  V30 5923 O 541.839 1.5074 -1.22913 0
M  V30 5924 C 542.122 -1.2728 -3.36856 0
M  V30 5925 C 541.975 -2.80821 -3.51368 0
M  V30 5926 C 543.294 -0.879799 -4.31216 0
M  V30 5927 H 540.413 -0.284464 -0.679889 0
M  V30 5928 H 543.055 -1.31755 -1.36896 0
M  V30 5929 H 541.205 -0.814673 -3.79862 0
M  V30 5930 H 542.877 -3.34833 -3.17308 0
M  V30 5931 H 541.12 -3.19606 -2.93316 0
M  V30 5932 H 541.791 -3.10435 -4.56436 0
M  V30 5933 H 544.267 -1.27436 -3.96105 0
M  V30 5934 H 543.143 -1.25278 -5.34412 0
M  V30 5935 H 543.404 0.215372 -4.41575 0
M  V30 5936 N 542.463 1.3308 -0.844243 0
M  V30 5937 C 543.693 2.01515 -0.455541 0
M  V30 5938 C 544.101 1.63655 0.949406 0
M  V30 5939 O 543.444 0.84848 1.62931 0
M  V30 5940 C 543.506 3.55967 -0.502801 0
M  V30 5941 C 543.17 4.17222 -1.86481 0
M  V30 5942 C 544.167 4.36205 -2.8288 0
M  V30 5943 C 541.852 4.53528 -2.15911 0
M  V30 5944 C 543.846 4.90649 -4.06869 0
M  V30 5945 C 541.533 5.07679 -3.40155 0
M  V30 5946 C 542.531 5.26186 -4.35451 0
M  V30 5947 O 542.219 5.79183 -5.57496 0
M  V30 5948 H 541.951 0.65199 -0.178565 0
M  V30 5949 H 544.505 1.70867 -1.1399 0
M  V30 5950 H 542.735 3.85965 0.23836 0
M  V30 5951 H 544.424 4.05688 -0.131169 0
M  V30 5952 H 545.19 4.085 -2.61444 0
M  V30 5953 H 541.069 4.38414 -1.42528 0
M  V30 5954 H 544.613 5.0501 -4.81259 0
M  V30 5955 H 540.51 5.34815 -3.61446 0
M  V30 5956 H 541.278 5.97591 -5.5931 0
M  V30 5957 N 543.941 0.601185 1.45683 0
M  V30 5958 C 545.169 0.100054 2.06658 0
M  V30 5959 C 545.584 -1.21285 1.44691 0
M  V30 5960 O 544.941 -1.73735 0.558772 0
M  V30 5961 C 544.992 -0.0528579 3.61461 0
M  V30 5962 O 544.713 1.20809 4.21114 0
M  V30 5963 C 546.214 -0.586193 4.39407 0
M  V30 5964 H 543.434 0.065905 0.667756 0
M  V30 5965 H 545.978 0.827101 1.87028 0
M  V30 5966 H 544.133 -0.730203 3.80456 0
M  V30 5967 H 544.547 1.03368 5.14213 0
M  V30 5968 H 546.021 -0.642297 5.4825 0
M  V30 5969 H 546.498 -1.60713 4.0874 0
M  V30 5970 H 547.104 0.0568935 4.25262 0
M  V30 5971 N 545.419 -1.53889 0.339982 0
M  V30 5972 C 546.349 -2.27843 -0.510856 0
M  V30 5973 C 547.33 -1.29267 -1.10563 0
M  V30 5974 O 548.515 -1.58104 -1.12768 0
M  V30 5975 C 545.645 -3.04857 -1.66372 0
M  V30 5976 C 544.599 -4.10907 -1.19746 0
M  V30 5977 C 543.925 -4.75855 -2.43857 0
M  V30 5978 C 545.225 -5.21435 -0.300501 0
M  V30 5979 H 546.919 -2.99212 0.106067 0
M  V30 5980 H 544.465 -1.43904 0.0524533 0
M  V30 5981 H 546.418 -3.5533 -2.26537 0
M  V30 5982 H 545.142 -2.31133 -2.30749 0
M  V30 5983 H 543.801 -3.61342 -0.618654 0
M  V30 5984 H 543.449 -3.9873 -3.06633 0
M  V30 5985 H 543.149 -5.47502 -2.13343 0
M  V30 5986 H 544.673 -5.2911 -3.04754 0
M  V30 5987 H 546.087 -5.67565 -0.80889 0
M  V30 5988 H 544.484 -6.00036 -0.0874076 0
M  V30 5989 H 545.554 -4.80328 0.664321 0
M  V30 5990 N 546.897 -0.0685191 -1.57451 0
M  V30 5991 C 548.144 0.601348 -1.93365 0
M  V30 5992 C 548.472 1.69816 -0.948294 0
M  V30 5993 O 547.727 1.95666 0.0366199 0
M  V30 5994 C 548.026 1.22051 -3.35914 0
M  V30 5995 C 547.692 0.250165 -4.50205 0
M  V30 5996 C 546.354 -0.0167954 -4.81197 0
M  V30 5997 C 548.706 -0.413867 -5.19554 0
M  V30 5998 C 546.034 -0.95493 -5.78876 0
M  V30 5999 C 548.386 -1.3403 -6.18238 0
M  V30 6000 C 547.05 -1.61576 -6.47649 0
M  V30 6001 H 546.32 0.220049 -0.707573 0
M  V30 6002 H 548.967 -0.138697 -1.90997 0
M  V30 6003 H 547.272 2.03622 -3.34732 0
M  V30 6004 H 548.969 1.74605 -3.6099 0
M  V30 6005 H 545.559 0.468421 -4.26033 0
M  V30 6006 H 549.743 -0.220733 -4.95809 0
M  V30 6007 H 544.999 -1.17563 -5.99991 0
M  V30 6008 H 549.173 -1.86081 -6.71079 0
M  V30 6009 H 546.8 -2.34431 -7.2315 0
M  V30 6010 N 548.375 1.56261 0.205012 0
M  V30 6011 C 549.323 1.94631 1.27364 0
M  V30 6012 C 550.317 0.830434 1.47649 0
M  V30 6013 O 551.523 1.01538 1.48627 0
M  V30 6014 H 547.898 0.618755 0.427371 0
M  V30 6015 H 549.869 2.83768 0.922941 0
M  V30 6016 C 548.618 2.29358 2.61324 0
M  V30 6017 H 547.941 3.14744 2.46528 0
M  V30 6018 H 549.381 2.60076 3.34868 0
M  V30 6019 C 547.84 1.12461 3.17575 0
M  V30 6020 O 548.37 0.394407 3.99759 0
M  V30 6021 N 546.576 0.904036 2.7618 0
M  V30 6022 H 546.123 1.49956 2.09454 0
M  V30 6023 H 546.081 0.123662 3.14157 0
M  V30 6024 N 549.853 -0.472356 1.50355 0
M  V30 6025 C 550.8 -1.57051 1.69126 0
M  V30 6026 C 551.77 -1.5733 0.532574 0
M  V30 6027 O 552.955 -1.7488 0.762994 0
M  V30 6028 C 550.095 -2.95033 1.79024 0
M  V30 6029 C 549.208 -3.04552 3.06386 0
M  V30 6030 C 548.343 -4.33441 3.07087 0
M  V30 6031 C 547.382 -4.36697 4.28908 0
M  V30 6032 N 546.519 -5.57056 4.27356 0
M  V30 6033 H 551.359 -1.40351 2.62879 0
M  V30 6034 H 548.896 -0.682403 1.30314 0
M  V30 6035 H 550.854 -3.75048 1.82744 0
M  V30 6036 H 549.484 -3.10371 0.887109 0
M  V30 6037 H 548.536 -2.17419 3.12143 0
M  V30 6038 H 549.848 -3.02818 3.96362 0
M  V30 6039 H 549.002 -5.21801 3.09529 0
M  V30 6040 H 547.741 -4.37782 2.14939 0
M  V30 6041 H 546.746 -3.46734 4.2668 0
M  V30 6042 H 547.971 -4.34049 5.22282 0
M  V30 6043 H 545.917 -5.62184 3.3806 0
M  V30 6044 H 545.834 -5.57058 5.111 0
M  V30 6045 H 547.102 -6.47545 4.33942 0
M  V30 6046 N 551.331 -1.39911 -0.725443 0
M  V30 6047 C 552.58 -1.36963 -1.48068 0
M  V30 6048 C 552.893 0.0284478 -1.95579 0
M  V30 6049 O 554.099 0.180535 -2.70899 0
M  V30 6050 C 552.555 -2.40664 -2.67598 0
M  V30 6051 C 552.163 -3.86234 -2.26997 0
M  V30 6052 C 553.907 -2.46807 -3.45379 0
M  V30 6053 C 551.814 -4.81554 -3.43307 0
M  V30 6054 H 550.744 -0.509223 -0.556065 0
M  V30 6055 H 553.395 -1.65602 -0.790454 0
M  V30 6056 H 551.777 -2.05109 -3.38742 0
M  V30 6057 H 552.951 -4.3088 -1.63337 0
M  V30 6058 H 551.266 -3.83475 -1.62284 0
M  V30 6059 H 553.863 -3.15213 -4.31909 0
M  V30 6060 H 554.206 -1.49552 -3.8851 0
M  V30 6061 H 554.739 -2.81303 -2.81271 0
M  V30 6062 H 551.478 -5.80106 -3.05217 0
M  V30 6063 H 550.998 -4.4158 -4.05915 0
M  V30 6064 H 552.677 -5.0091 -4.0951 0
M  V30 6065 N 552.809 0.956637 -1.25245 0
M  V30 6066 C 554.039 1.7332 -1.12445 0
M  V30 6067 C 554.447 1.86392 0.324732 0
M  V30 6068 O 553.79 1.35967 1.23526 0
M  V30 6069 C 553.852 3.16603 -1.70303 0
M  V30 6070 C 553.516 3.26966 -3.19284 0
M  V30 6071 C 554.513 3.11434 -4.16299 0
M  V30 6072 C 552.198 3.50851 -3.59456 0
M  V30 6073 C 554.192 3.1963 -5.51467 0
M  V30 6074 C 551.879 3.58684 -4.94761 0
M  V30 6075 C 552.877 3.43087 -5.90576 0
M  V30 6076 O 552.565 3.50598 -7.2342 0
M  V30 6077 H 552.297 0.549981 -0.393061 0
M  V30 6078 H 554.851 1.20892 -1.66055 0
M  V30 6079 H 553.081 3.70385 -1.11138 0
M  V30 6080 H 554.77 3.76109 -1.52632 0
M  V30 6081 H 555.536 2.92853 -3.86604 0
M  V30 6082 H 551.415 3.62053 -2.85375 0
M  V30 6083 H 554.959 3.07373 -6.26233 0
M  V30 6084 H 550.856 3.76782 -5.24124 0
M  V30 6085 H 551.624 3.67242 -7.31489 0
M  V30 6086 N 554.287 1.06798 1.15896 0
M  V30 6087 C 555.703 0.792423 1.38538 0
M  V30 6088 C 555.903 -0.60592 1.92174 0
M  V30 6089 O 554.959 -1.36561 2.12385 0
M  V30 6090 C 556.272 1.86157 2.36149 0
M  V30 6091 C 557.82 1.88567 2.49823 0
M  V30 6092 C 558.295 2.9455 3.5072 0
M  V30 6093 N 559.786 2.93616 3.58251 0
M  V30 6094 C 560.521 3.72267 4.36125 0
M  V30 6095 N 560.017 4.60751 5.17379 0
M  V30 6096 N 561.81 3.60637 4.31158 0
M  V30 6097 H 553.961 1.96993 0.794198 0
M  V30 6098 H 556.224 0.853942 0.411688 0
M  V30 6099 H 555.93 2.86603 2.03843 0
M  V30 6100 H 555.804 1.71692 3.3586 0
M  V30 6101 H 558.191 0.887765 2.8143 0
M  V30 6102 H 558.272 2.0711 1.5013 0
M  V30 6103 H 557.916 3.94537 3.19849 0
M  V30 6104 H 557.846 2.73255 4.50155 0
M  V30 6105 H 560.337 2.29472 3.00252 0
M  V30 6106 H 560.65 5.17408 5.74028 0
M  V30 6107 H 558.995 4.64803 5.16704 0
M  V30 6108 H 562.186 2.90892 3.66742 0
M  V30 6109 H 562.359 4.22176 4.91601 0
M  V30 6110 N 555.766 -1.3263 0.851289 0
M  V30 6111 C 557.182 -1.50162 0.5407 0
M  V30 6112 C 557.382 -1.78788 -0.929369 0
M  V30 6113 O 556.438 -1.85545 -1.71258 0
M  V30 6114 C 557.751 -2.64803 1.42478 0
M  V30 6115 C 559.299 -2.78688 1.42485 0
M  V30 6116 C 559.774 -3.96405 2.29407 0
M  V30 6117 N 561.265 -4.0366 2.27184 0
M  V30 6118 C 562 -4.93971 2.9117 0
M  V30 6119 N 561.496 -5.89313 3.64256 0
M  V30 6120 N 563.289 -4.87066 2.80576 0
M  V30 6121 H 555.44 -1.12315 1.80275 0
M  V30 6122 H 557.703 -0.553266 0.769806 0
M  V30 6123 H 557.409 -2.50368 2.46999 0
M  V30 6124 H 557.283 -3.60506 1.10974 0
M  V30 6125 H 559.67 -2.92547 0.387304 0
M  V30 6126 H 559.751 -1.83708 1.78002 0
M  V30 6127 H 559.395 -3.83304 3.33228 0
M  V30 6128 H 559.325 -4.90654 1.91224 0
M  V30 6129 H 561.816 -3.35435 1.74045 0
M  V30 6130 H 562.129 -6.54913 4.10255 0
M  V30 6131 H 560.474 -5.8935 3.68364 0
M  V30 6132 H 563.665 -4.11552 2.23031 0
M  V30 6133 H 563.838 -5.57248 3.30725 0
M  V30 6134 N 557.244 -0.608902 -1.45362 0
M  V30 6135 C 558.207 0.0992563 -2.28985 0
M  V30 6136 C 559.207 0.793841 -1.39838 0
M  V30 6137 O 560.397 0.641804 -1.61946 0
M  V30 6138 C 557.529 1.15073 -3.20891 0
M  V30 6139 H 558.722 -0.635964 -2.93079 0
M  V30 6140 H 556.275 -0.368007 -1.51906 0
M  V30 6141 H 557.01 1.91667 -2.616 0
M  V30 6142 H 556.795 0.656867 -3.86559 0
M  V30 6143 H 558.285 1.64665 -3.83765 0
M  V30 6144 N 558.722 1.53707 -0.348139 0
M  V30 6145 C 559.969 2.00988 0.246966 0
M  V30 6146 C 560.297 1.23586 1.50189 0
M  V30 6147 O 559.552 0.312817 1.93184 0
M  V30 6148 C 559.851 3.52292 0.602061 0
M  V30 6149 C 559.517 4.47453 -0.556509 0
M  V30 6150 C 558.179 4.73188 -0.874446 0
M  V30 6151 C 560.531 5.03851 -1.33354 0
M  V30 6152 C 557.859 5.52577 -1.9717 0
M  V30 6153 C 560.211 5.84437 -2.42108 0
M  V30 6154 C 558.875 6.08465 -2.74456 0
M  V30 6155 H 558.145 0.735469 0.0903712 0
M  V30 6156 H 560.792 1.85464 -0.477001 0
M  V30 6157 H 559.097 3.65672 1.40681 0
M  V30 6158 H 560.794 3.86337 1.07447 0
M  V30 6159 H 557.384 4.27558 -0.298652 0
M  V30 6160 H 561.568 4.8393 -1.10117 0
M  V30 6161 H 556.824 5.69418 -2.22651 0
M  V30 6162 H 560.998 6.27151 -3.02745 0
M  V30 6163 H 558.625 6.69768 -3.59604 0
M  V30 6164 N 560.2 0.0768682 1.57412 0
M  V30 6165 C 561.425 -0.603404 1.98428 0
M  V30 6166 C 561.85 -1.62047 0.955108 0
M  V30 6167 O 561.208 -1.81129 -0.0786778 0
M  V30 6168 C 561.256 -1.24396 3.38464 0
M  V30 6169 O 560.36 -2.35982 3.3821 0
M  V30 6170 H 559.701 -0.154741 0.645718 0
M  V30 6171 H 562.231 0.152885 2.04028 0
M  V30 6172 H 562.241 -1.5896 3.7576 0
M  V30 6173 H 560.916 -0.498735 4.12899 0
M  V30 6174 H 559.493 -2.03173 3.1269 0
M  V30 6175 N 561.678 -1.56367 -0.196722 0
M  V30 6176 C 562.626 -1.95304 -1.2633 0
M  V30 6177 C 563.62 -0.838252 -1.47206 0
M  V30 6178 O 564.826 -1.02325 -1.48087 0
M  V30 6179 H 561.201 -0.621013 -0.424083 0
M  V30 6180 H 563.172 -2.84254 -0.907879 0
M  V30 6181 C 561.921 -2.3074 -2.60104 0
M  V30 6182 H 561.244 -3.16047 -2.44856 0
M  V30 6183 H 562.684 -2.61849 -3.33484 0
M  V30 6184 C 561.143 -1.14143 -3.16975 0
M  V30 6185 O 561.673 -0.415602 -3.99544 0
M  V30 6186 N 559.879 -0.91867 -2.75697 0
M  V30 6187 H 559.426 -1.51065 -2.08656 0
M  V30 6188 H 559.384 -0.140321 -3.14087 0
M  V30 6189 N 563.156 0.464375 -1.50603 0
M  V30 6190 C 564.386 1.23727 -1.65454 0
M  V30 6191 C 564.794 1.86119 -0.340032 0
M  V30 6192 O 564.137 1.70301 0.688706 0
M  V30 6193 C 564.199 2.38153 -2.69301 0
M  V30 6194 C 563.863 1.96345 -4.12671 0
M  V30 6195 C 564.86 1.48215 -4.98326 0
M  V30 6196 C 562.545 2.04861 -4.58625 0
M  V30 6197 C 564.539 1.09152 -6.27985 0
M  V30 6198 C 562.226 1.65409 -5.88288 0
M  V30 6199 C 563.224 1.17634 -6.72794 0
M  V30 6200 O 562.912 0.787312 -8.00035 0
M  V30 6201 H 562.644 0.380075 -0.559034 0
M  V30 6202 H 565.198 0.559919 -1.97621 0
M  V30 6203 H 563.428 3.09081 -2.32392 0
M  V30 6204 H 565.117 3.00099 -2.73304 0
M  V30 6205 H 565.883 1.41052 -4.64036 0
M  V30 6206 H 561.762 2.40996 -3.92991 0
M  V30 6207 H 565.306 0.717909 -6.93896 0
M  V30 6208 H 561.203 1.72233 -6.22098 0
M  V30 6209 H 561.971 0.915567 -8.13363 0
M  V30 6210 N 564.634 1.40294 0.718013 0
M  V30 6211 C 565.564 1.43118 1.84498 0
M  V30 6212 C 566.545 0.292403 1.67568 0
M  V30 6213 O 567.73 0.500675 1.87635 0
M  V30 6214 C 564.86 1.29065 3.22427 0
M  V30 6215 C 563.814 2.40521 3.54025 0
M  V30 6216 C 563.14 2.11546 4.91073 0
M  V30 6217 C 564.44 3.82859 3.55269 0
M  V30 6218 H 566.134 2.37432 1.82391 0
M  V30 6219 H 563.68 1.14283 0.87609 0
M  V30 6220 H 565.633 1.29658 4.00957 0
M  V30 6221 H 564.357 0.312271 3.25104 0
M  V30 6222 H 563.016 2.39173 2.77834 0
M  V30 6223 H 562.664 1.12104 4.90348 0
M  V30 6224 H 562.364 2.86216 5.1318 0
M  V30 6225 H 563.888 2.13817 5.71939 0
M  V30 6226 H 565.302 3.86044 4.23843 0
M  V30 6227 H 563.699 4.57029 3.88902 0
M  V30 6228 H 564.769 4.12617 2.54706 0
M  V30 6229 N 566.112 -0.949982 1.2575 0
M  V30 6230 C 567.528 -1.22191 1.02672 0
M  V30 6231 C 567.728 -1.99898 -0.253588 0
M  V30 6232 O 566.784 -2.33329 -0.965076 0
M  V30 6233 C 568.097 -1.99175 2.25277 0
M  V30 6234 C 569.645 -2.12201 2.30087 0
M  V30 6235 C 570.12 -2.92586 3.5236 0
M  V30 6236 N 571.611 -3.00163 3.52784 0
M  V30 6237 C 572.346 -3.62766 4.44059 0
M  V30 6238 N 571.842 -4.26943 5.45611 0
M  V30 6239 N 573.635 -3.59953 4.3173 0
M  V30 6240 H 565.786 -0.430258 2.07996 0
M  V30 6241 H 568.049 -0.252844 0.91366 0
M  V30 6242 H 567.755 -1.49479 3.18354 0
M  V30 6243 H 567.629 -2.99868 2.28821 0
M  V30 6244 H 570.016 -2.61093 1.3753 0
M  V30 6245 H 570.097 -1.10799 2.30559 0
M  V30 6246 H 569.741 -2.44383 4.45241 0
M  V30 6247 H 569.671 -3.94224 3.49134 0
M  V30 6248 H 572.162 -2.54529 2.79327 0
M  V30 6249 H 572.475 -4.72583 6.11461 0
M  V30 6250 H 570.82 -4.25557 5.49478 0
M  V30 6251 H 574.011 -3.09003 3.51617 0
M  V30 6252 H 574.184 -4.08455 5.03059 0
M  V30 6253 N 567.59 -1.07411 -1.15328 0
M  V30 6254 C 568.83 -0.807011 -1.87794 0
M  V30 6255 C 569.194 0.654987 -1.80482 0
M  V30 6256 O 570.395 1.03716 -2.47985 0
M  V30 6257 C 568.666 -1.30198 -3.32841 0
M  V30 6258 S 570.225 -1.16564 -4.23034 0
M  V30 6259 H 567.043 -0.292429 -0.648079 0
M  V30 6260 H 569.645 -1.37334 -1.39139 0
M  V30 6261 H 568.349 -2.3607 -3.35707 0
M  V30 6262 H 567.88 -0.730881 -3.86551 0
M  V30 6263 H 569.895 -0.103557 -4.96092 0
M  V30 6264 N 569.068 1.32177 -0.85831 0
M  V30 6265 C 570.016 2.30729 -0.294442 0
M  V30 6266 C 571.01 1.59009 0.584165 0
M  V30 6267 O 572.216 1.73713 0.471562 0
M  V30 6268 H 568.591 0.748097 -0.0765171 0
M  V30 6269 H 570.562 2.75774 -1.1398 0
M  V30 6270 C 569.311 3.44098 0.499208 0
M  V30 6271 H 568.634 3.99449 -0.167579 0
M  V30 6272 H 570.074 4.15202 0.859273 0
M  V30 6273 C 568.533 2.91684 1.68588 0
M  V30 6274 O 569.063 2.89481 2.78503 0
M  V30 6275 N 567.269 2.48036 1.51415 0
M  V30 6276 H 566.816 2.50027 0.620006 0
M  V30 6277 H 566.774 2.13322 2.30957 0
M  V30 6278 N 570.547 0.616602 1.45037 0
M  V30 6279 C 571.777 0.121791 2.06241 0
M  V30 6280 C 572.185 -1.20289 1.46038 0
M  V30 6281 O 571.528 -1.7456 0.572242 0
M  V30 6282 C 571.59 -0.0827345 3.59405 0
M  V30 6283 C 571.254 1.16153 4.41993 0
M  V30 6284 C 572.251 2.08183 4.76399 0
M  V30 6285 C 569.936 1.39288 4.82601 0
M  V30 6286 C 571.93 3.21668 5.5028 0
M  V30 6287 C 569.617 2.53073 5.56235 0
M  V30 6288 C 570.615 3.44091 5.89992 0
M  V30 6289 O 570.303 4.55894 6.6213 0
M  V30 6290 H 570.035 0.0701667 0.672349 0
M  V30 6291 H 572.589 0.846877 1.87129 0
M  V30 6292 H 570.819 -0.862812 3.76952 0
M  V30 6293 H 572.508 -0.530273 4.02421 0
M  V30 6294 H 573.274 1.91538 4.45576 0
M  V30 6295 H 569.153 0.693396 4.55755 0
M  V30 6296 H 572.697 3.92733 5.76547 0
M  V30 6297 H 568.594 2.69667 5.86472 0
M  V30 6298 H 569.362 4.5469 6.80587 0
M  V30 6299 N 572.025 -1.5352 0.356285 0
M  V30 6300 C 572.972 -2.25439 -0.494569 0
M  V30 6301 C 573.942 -1.25752 -1.08516 0
M  V30 6302 O 575.127 -1.54513 -1.1194 0
M  V30 6303 C 572.267 -3.04011 -1.63313 0
M  V30 6304 C 571.38 -4.18574 -1.06862 0
M  V30 6305 C 570.515 -4.84607 -2.17552 0
M  V30 6306 C 569.554 -5.91218 -1.58518 0
M  V30 6307 N 568.691 -6.50979 -2.63003 0
M  V30 6308 H 573.531 -2.97737 0.125244 0
M  V30 6309 H 571.068 -1.46916 0.0735789 0
M  V30 6310 H 573.026 -3.47834 -2.30363 0
M  V30 6311 H 571.656 -2.33986 -2.22374 0
M  V30 6312 H 570.708 -3.79303 -0.288672 0
M  V30 6313 H 572.02 -4.95215 -0.596924 0
M  V30 6314 H 571.174 -5.31566 -2.92442 0
M  V30 6315 H 569.913 -4.07418 -2.6807 0
M  V30 6316 H 568.918 -5.4363 -0.821391 0
M  V30 6317 H 570.143 -6.70322 -1.08836 0
M  V30 6318 H 568.089 -5.76648 -3.12751 0
M  V30 6319 H 568.006 -7.23131 -2.20493 0
M  V30 6320 H 569.274 -7.02589 -3.37623 0
M  V30 6321 N 573.503 -0.0852151 -1.57369 0
M  V30 6322 C 574.749 0.581666 -1.94279 0
M  V30 6323 C 575.082 1.68444 -0.966446 0
M  V30 6324 O 574.357 1.945 0.00215277 0
M  V30 6325 C 574.64 1.14609 -3.41375 0
M  V30 6326 C 574.493 0.0490414 -4.49773 0
M  V30 6327 C 575.812 2.04751 -3.8957 0
M  V30 6328 H 572.931 0.209972 -0.706456 0
M  V30 6329 H 575.573 -0.153915 -1.89376 0
M  V30 6330 H 573.723 1.77297 -3.45685 0
M  V30 6331 H 575.395 -0.584721 -4.57579 0
M  V30 6332 H 573.638 -0.618638 -4.29366 0
M  V30 6333 H 574.309 0.484601 -5.49869 0
M  V30 6334 H 576.785 1.51981 -3.87351 0
M  V30 6335 H 575.661 2.41173 -4.93079 0
M  V30 6336 H 575.922 2.96107 -3.28288 0
M  V30 6337 N 574.981 1.5647 0.188427 0
M  V30 6338 C 575.891 1.98285 1.2538 0
M  V30 6339 C 576.907 0.891535 1.49424 0
M  V30 6340 O 578.083 1.19782 1.61908 0
M  V30 6341 C 575.148 2.31965 2.57669 0
M  V30 6342 C 574.209 3.54838 2.41638 0
M  V30 6343 C 573.442 3.86901 3.67618 0
M  V30 6344 O 573.665 3.20163 4.72072 0
M  V30 6345 O 572.599 4.80309 3.62749 0
M  V30 6346 H 576.425 2.89145 0.928912 0
M  V30 6347 H 574.01 1.44112 0.393955 0
M  V30 6348 H 575.892 2.54673 3.35737 0
M  V30 6349 H 574.567 1.44271 2.89771 0
M  V30 6350 H 573.474 3.37369 1.61658 0
M  V30 6351 H 574.807 4.43019 2.14465 0
M  V30 6352 N 576.459 -0.456382 1.50847 0
M  V30 6353 C 577.406 -1.55249 1.70782 0
M  V30 6354 C 578.376 -1.56757 0.549231 0
M  V30 6355 O 579.561 -1.74061 0.7815 0
M  V30 6356 C 576.701 -2.93118 1.82143 0
M  V30 6357 C 575.814 -3.01285 3.09598 0
M  V30 6358 C 574.949 -4.30159 3.11667 0
M  V30 6359 C 573.988 -4.32124 4.33515 0
M  V30 6360 N 573.125 -5.52492 4.3324 0
M  V30 6361 H 577.965 -1.37555 2.64353 0
M  V30 6362 H 575.502 -0.668543 1.3103 0
M  V30 6363 H 577.46 -3.73088 1.86711 0
M  V30 6364 H 576.09 -3.09413 0.919978 0
M  V30 6365 H 575.142 -2.14096 3.14431 0
M  V30 6366 H 576.454 -2.98597 3.99551 0
M  V30 6367 H 575.608 -5.18489 3.15046 0
M  V30 6368 H 574.347 -4.35477 2.1957 0
M  V30 6369 H 573.352 -3.42189 4.30333 0
M  V30 6370 H 574.577 -4.28485 5.26856 0
M  V30 6371 H 572.523 -5.58567 3.44004 0
M  V30 6372 H 572.44 -5.51605 5.16979 0
M  V30 6373 H 573.708 -6.42906 4.40786 0
M  V30 6374 N 577.937 -1.40673 -0.710563 0
M  V30 6375 C 578.884 -1.41336 -1.82463 0
M  V30 6376 C 579.854 -0.269648 -1.63897 0
M  V30 6377 O 581.039 -0.468463 -1.8496 0
M  V30 6378 C 578.179 -1.28665 -3.20218 0
M  V30 6379 C 577.292 -2.52784 -3.5032 0
M  V30 6380 C 576.427 -2.32517 -4.77608 0
M  V30 6381 C 575.466 -3.52187 -5.0063 0
M  V30 6382 N 574.603 -3.31084 -6.19135 0
M  V30 6383 H 579.443 -2.36558 -1.8123 0
M  V30 6384 H 576.98 -1.17483 -0.885226 0
M  V30 6385 H 578.938 -1.19324 -3.99772 0
M  V30 6386 H 577.568 -0.370602 -3.20666 0
M  V30 6387 H 576.62 -2.72634 -2.65283 0
M  V30 6388 H 577.932 -3.41845 -3.63241 0
M  V30 6389 H 577.086 -2.20558 -5.65189 0
M  V30 6390 H 575.825 -1.40889 -4.66906 0
M  V30 6391 H 574.83 -3.64617 -4.11502 0
M  V30 6392 H 576.055 -4.44749 -5.13201 0
M  V30 6393 H 574.001 -2.42143 -6.09674 0
M  V30 6394 H 573.918 -4.13713 -6.32754 0
M  V30 6395 H 575.186 -3.22868 -7.0949 0
M  V30 6396 N 579.415 0.9433 -1.26252 0
M  V30 6397 C 580.826 1.50404 -1.10614 0
M  V30 6398 C 581.177 1.93666 0.31429 0
M  V30 6399 O 580.302 1.79709 1.20555 0
M  V30 6400 C 580.897 2.73336 -2.00182 0
M  V30 6401 C 579.456 3.25686 -1.88695 0
M  V30 6402 C 578.603 1.98474 -1.93658 0
M  V30 6403 H 581.554 0.759006 -1.39373 0
M  V30 6404 H 581.575 3.47567 -1.54847 0
M  V30 6405 H 581.087 2.41818 -3.03555 0
M  V30 6406 H 579.188 3.61998 -0.882489 0
M  V30 6407 H 579.301 3.92935 -2.74115 0
M  V30 6408 H 577.665 2.14278 -1.37684 0
M  V30 6409 H 578.448 1.6929 -2.98657 0
M  V30 6410 N 580.893 1.08022 1.14757 0
M  V30 6411 C 582.304 0.829144 1.67279 0
M  V30 6412 C 582.655 -0.644721 1.85305 0
M  V30 6413 O 581.78 -1.49838 1.56133 0
M  V30 6414 C 582.375 1.49855 3.03857 0
M  V30 6415 C 580.934 1.29482 3.53428 0
M  V30 6416 C 580.081 1.56386 2.28995 0
M  V30 6417 H 583.032 1.24134 0.988762 0
M  V30 6418 H 583.053 0.923572 3.69121 0
M  V30 6419 H 582.565 2.57123 2.90705 0
M  V30 6420 H 580.666 0.242669 3.71809 0
M  V30 6421 H 580.779 2.01974 4.34446 0
M  V30 6422 H 579.143 0.985217 2.34874 0
M  V30 6423 H 579.926 2.64851 2.18423 0
M  V30 6424 N 582.371 -1.3172 0.865308 0
M  V30 6425 C 583.617 -1.97168 0.474633 0
M  V30 6426 C 583.95 -1.68263 -0.969604 0
M  V30 6427 O 583.225 -0.976588 -1.68205 0
M  V30 6428 C 583.508 -3.52689 0.726808 0
M  V30 6429 C 583.361 -3.91185 2.22024 0
M  V30 6430 C 584.68 -4.39689 0.190201 0
M  V30 6431 H 581.799 -0.716185 0.17392 0
M  V30 6432 H 584.441 -1.55925 1.08569 0
M  V30 6433 H 582.591 -3.8795 0.206705 0
M  V30 6434 H 584.263 -3.66049 2.80724 0
M  V30 6435 H 582.506 -3.3996 2.69462 0
M  V30 6436 H 583.177 -4.99604 2.34735 0
M  V30 6437 H 585.653 -4.11225 0.635103 0
M  V30 6438 H 584.529 -5.47469 0.396132 0
M  V30 6439 H 584.79 -4.32683 -0.907625 0
M  V30 6440 N 583.85 -0.624285 -1.44708 0
M  V30 6441 C 585.266 -0.289322 -1.56956 0
M  V30 6442 C 585.466 1.20773 -1.61295 0
M  V30 6443 O 584.522 1.9915 -1.55227 0
M  V30 6444 C 585.835 -0.975215 -2.84447 0
M  V30 6445 C 587.383 -0.952709 -2.98148 0
M  V30 6446 C 587.858 -1.61893 -4.28433 0
M  V30 6447 N 589.349 -1.5852 -4.35231 0
M  V30 6448 C 590.084 -2.06969 -5.34744 0
M  V30 6449 N 589.58 -2.63579 -6.40701 0
M  V30 6450 N 591.373 -1.97638 -5.26209 0
M  V30 6451 H 583.524 -1.59612 -1.40135 0
M  V30 6452 H 585.787 -0.669592 -0.671081 0
M  V30 6453 H 585.493 -2.02999 -2.87201 0
M  V30 6454 H 585.367 -0.508749 -3.73753 0
M  V30 6455 H 587.754 0.093568 -2.94952 0
M  V30 6456 H 587.835 -1.4576 -2.10209 0
M  V30 6457 H 587.479 -2.66463 -4.32389 0
M  V30 6458 H 587.409 -1.08893 -5.15218 0
M  V30 6459 H 589.899 -1.17183 -3.59272 0
M  V30 6460 H 590.213 -2.98298 -7.12908 0
M  V30 6461 H 588.558 -2.67626 -6.41406 0
M  V30 6462 H 591.749 -1.5314 -4.42341 0
M  V30 6463 H 591.922 -2.35708 -6.03611 0
M  V30 6464 N 585.328 1.53329 -0.364422 0
M  V30 6465 C 586.26 2.23286 0.517293 0
M  V30 6466 C 587.273 1.24657 1.04711 0
M  V30 6467 O 588.462 1.50887 0.95369 0
M  V30 6468 C 585.562 2.91604 1.72685 0
M  V30 6469 C 584.735 4.1673 1.32873 0
M  V30 6470 C 583.794 4.68269 2.40022 0
M  V30 6471 O 582.82 5.31976 2.02461 0
M  V30 6472 N 584.022 4.45983 3.7159 0
M  V30 6473 H 586.787 2.99588 -0.0819391 0
M  V30 6474 H 584.348 1.60787 -0.189544 0
M  V30 6475 H 586.34 3.22992 2.4384 0
M  V30 6476 H 584.91 2.18763 2.23297 0
M  V30 6477 H 584.13 3.91657 0.447069 0
M  V30 6478 H 585.418 4.98078 1.03902 0
M  V30 6479 H 584.816 3.95077 4.04883 0
M  V30 6480 H 583.373 4.81924 4.38854 0
M  V30 6481 N 586.806 0.0935595 1.57322 0
M  V30 6482 C 588.055 -0.570191 1.93473 0
M  V30 6483 C 588.368 -1.69434 0.977318 0
M  V30 6484 O 589.574 -2.41914 1.23248 0
M  V30 6485 C 588.03 -1.06564 3.43762 0
M  V30 6486 C 587.638 0.0286723 4.47991 0
M  V30 6487 C 589.382 -1.70221 3.88877 0
M  V30 6488 C 587.289 -0.482046 5.89432 0
M  V30 6489 H 586.219 -0.216764 0.72217 0
M  V30 6490 H 588.87 0.169313 1.82717 0
M  V30 6491 H 587.252 -1.85878 3.49664 0
M  V30 6492 H 588.426 0.804106 4.5373 0
M  V30 6493 H 586.741 0.570336 4.12476 0
M  V30 6494 H 589.338 -2.09502 4.91948 0
M  V30 6495 H 589.681 -2.57078 3.27439 0
M  V30 6496 H 590.214 -0.974919 3.85668 0
M  V30 6497 H 586.953 0.349871 6.54566 0
M  V30 6498 H 586.473 -1.22452 5.87167 0
M  V30 6499 H 588.152 -0.951508 6.39965 0
M  V30 6500 N 588.284 -1.56567 -0.180126 0
M  V30 6501 C 589.695 -1.7126 -0.743422 0
M  V30 6502 C 590.046 -0.70263 -1.83187 0
M  V30 6503 O 589.171 0.137856 -2.1596 0
M  V30 6504 C 589.766 -3.10512 -1.35528 0
M  V30 6505 C 588.325 -3.26919 -1.8655 0
M  V30 6506 C 587.472 -2.67213 -0.741099 0
M  V30 6507 H 590.423 -1.58636 0.0451543 0
M  V30 6508 H 590.444 -3.08673 -2.22489 0
M  V30 6509 H 589.956 -3.83997 -0.562862 0
M  V30 6510 H 588.057 -2.58376 -2.68464 0
M  V30 6511 H 588.17 -4.34574 -2.01699 0
M  V30 6512 H 586.534 -2.26788 -1.15927 0
M  V30 6513 H 587.317 -3.43277 0.0393291 0
M  V30 6514 N 589.762 0.448376 -1.51087 0
M  V30 6515 C 591.178 0.783984 -1.39017 0
M  V30 6516 C 591.378 1.96087 -0.463904 0
M  V30 6517 O 590.434 2.52357 0.0850534 0
M  V30 6518 C 591.747 1.07471 -2.80839 0
M  V30 6519 C 593.295 1.17981 -2.89913 0
M  V30 6520 C 593.77 1.50354 -4.32617 0
M  V30 6521 N 595.261 1.57301 -4.35673 0
M  V30 6522 C 595.996 1.839 -5.4311 0
M  V30 6523 N 595.492 2.08365 -6.60724 0
M  V30 6524 N 597.285 1.8559 -5.30578 0
M  V30 6525 H 589.436 -0.326881 -2.0987 0
M  V30 6526 H 591.699 -0.0838006 -0.944289 0
M  V30 6527 H 591.405 0.282768 -3.50561 0
M  V30 6528 H 591.279 2.00519 -3.19487 0
M  V30 6529 H 593.666 1.9624 -2.20395 0
M  V30 6530 H 593.747 0.228603 -2.54776 0
M  V30 6531 H 593.391 0.726273 -5.0268 0
M  V30 6532 H 593.321 2.46663 -4.65258 0
M  V30 6533 H 595.812 1.40342 -3.50874 0
M  V30 6534 H 596.125 2.27999 -7.38401 0
M  V30 6535 H 594.47 2.0571 -6.63859 0
M  V30 6536 H 597.661 1.65989 -4.37682 0
M  V30 6537 H 597.834 2.05983 -6.1439 0
M  V30 6538 N 591.24 1.41047 0.703093 0
M  V30 6539 C 592.486 1.40207 1.46526 0
M  V30 6540 C 592.819 0.00847763 1.94198 0
M  V30 6541 O 592.094 -0.962437 1.69019 0
M  V30 6542 C 592.377 2.40238 2.6825 0
M  V30 6543 C 592.23 3.88674 2.26391 0
M  V30 6544 C 593.549 2.37627 3.70434 0
M  V30 6545 H 590.668 0.510594 0.531472 0
M  V30 6546 H 593.31 1.72271 0.801422 0
M  V30 6547 H 591.46 2.13026 3.24888 0
M  V30 6548 H 593.132 4.2676 1.75138 0
M  V30 6549 H 591.375 4.03903 1.58255 0
M  V30 6550 H 592.046 4.542 3.13698 0
M  V30 6551 H 594.522 2.61759 3.23452 0
M  V30 6552 H 593.398 3.09645 4.53223 0
M  V30 6553 H 593.659 1.39223 4.19606 0
M  V30 6554 N 592.718 -0.936591 1.26751 0
M  V30 6555 C 593.681 -2.01752 1.08761 0
M  V30 6556 C 594.681 -1.60763 0.0344435 0
M  V30 6557 O 595.871 -1.71963 0.278258 0
M  V30 6558 C 593.003 -3.34543 0.655271 0
M  V30 6559 H 594.196 -2.19143 2.04735 0
M  V30 6560 H 591.749 -1.11618 1.09413 0
M  V30 6561 H 592.484 -3.22851 -0.30626 0
M  V30 6562 H 592.269 -3.65647 1.41578 0
M  V30 6563 H 593.759 -4.13944 0.551378 0
M  V30 6564 N 594.196 -1.08629 -1.14182 0
M  V30 6565 C 595.159 -0.722027 -2.1753 0
M  V30 6566 C 596.159 0.244305 -1.58933 0
M  V30 6567 O 597.349 0.0235545 -1.74184 0
M  V30 6568 C 594.481 -0.0663966 -3.40835 0
M  V30 6569 H 595.674 -1.63719 -2.51269 0
M  V30 6570 H 593.227 -0.884442 -1.28869 0
M  V30 6571 H 593.962 0.860389 -3.12678 0
M  V30 6572 H 593.747 -0.761598 -3.84632 0
M  V30 6573 H 595.237 0.173346 -4.1724 0
M  V30 6574 N 595.674 1.31259 -0.872281 0
M  V30 6575 C 596.902 2.00795 -0.498907 0
M  V30 6576 C 597.317 1.65464 0.909238 0
M  V30 6577 O 596.674 0.885073 1.59602 0
M  V30 6578 C 596.725 3.55625 -0.649092 0
M  V30 6579 O 596.446 3.89692 -2.00179 0
M  V30 6580 C 597.947 4.42434 -0.277034 0
M  V30 6581 H 595.167 0.642299 -0.194145 0
M  V30 6582 H 597.711 1.67438 -1.17408 0
M  V30 6583 H 595.866 3.87394 -0.0214402 0
M  V30 6584 H 596.28 4.84407 -2.01122 0
M  V30 6585 H 597.754 5.50299 -0.433064 0
M  V30 6586 H 598.231 4.32146 0.783989 0
M  V30 6587 H 598.837 4.16086 -0.880483 0
M  V30 6588 N 597.152 0.631951 1.44375 0
M  V30 6589 C 598.115 -0.0628142 2.29114 0
M  V30 6590 C 599.115 -0.771494 1.41084 0
M  V30 6591 O 600.305 -0.615959 1.62947 0
M  V30 6592 C 597.437 -1.09953 3.22681 0
M  V30 6593 H 598.63 0.682509 2.92031 0
M  V30 6594 H 596.183 0.392128 1.51301 0
M  V30 6595 H 596.918 -1.87481 2.64616 0
M  V30 6596 H 596.703 -0.595286 3.87555 0
M  V30 6597 H 598.193 -1.58538 3.86336 0
M  V30 6598 N 598.631 -1.53133 0.372548 0
M  V30 6599 C 599.561 -2.28876 -0.462412 0
M  V30 6600 C 600.542 -1.31583 -1.07796 0
M  V30 6601 O 601.727 -1.60461 -1.09389 0
M  V30 6602 C 598.857 -3.08317 -1.59868 0
M  V30 6603 C 597.811 -4.13355 -1.11003 0
M  V30 6604 C 597.137 -4.8092 -2.33708 0
M  V30 6605 C 598.437 -5.21955 -0.18983 0
M  V30 6606 H 600.131 -2.9892 0.169511 0
M  V30 6607 H 597.677 -1.43761 0.0829658 0
M  V30 6608 H 599.63 -3.60055 -2.18949 0
M  V30 6609 H 598.354 -2.35976 -2.25794 0
M  V30 6610 H 597.013 -3.62573 -0.541869 0
M  V30 6611 H 596.661 -4.05144 -2.98106 0
M  V30 6612 H 596.361 -5.51904 -2.01682 0
M  V30 6613 H 597.885 -5.35455 -2.93462 0
M  V30 6614 H 599.299 -5.69153 -0.688319 0
M  V30 6615 H 597.696 -6.00087 0.0398887 0
M  V30 6616 H 598.766 -4.78811 0.766057 0
M  V30 6617 N 600.109 -0.101901 -1.5727 0
M  V30 6618 C 601.334 0.571759 -1.99363 0
M  V30 6619 C 601.759 1.60507 -0.980768 0
M  V30 6620 O 601.117 1.81231 0.0498517 0
M  V30 6621 C 601.165 1.18996 -3.404 0
M  V30 6622 O 600.269 2.30572 -3.41922 0
M  V30 6623 H 599.61 0.144449 -0.648098 0
M  V30 6624 H 602.14 -0.185325 -2.03759 0
M  V30 6625 H 602.15 1.52962 -3.78241 0
M  V30 6626 H 600.825 0.432984 -4.1364 0
M  V30 6627 H 599.402 1.98173 -3.15883 0
M  V30 6628 N 601.587 1.56661 0.17182 0
M  V30 6629 C 602.835 1.81606 0.886774 0
M  V30 6630 C 603.156 0.678818 1.82803 0
M  V30 6631 O 602.426 -0.301354 1.93568 0
M  V30 6632 H 601.006 0.669934 0.330451 0
M  V30 6633 H 603.668 1.94142 0.171757 0
M  V30 6634 H 602.764 2.75634 1.46398 0
M  V30 6635 N 603.065 -0.440357 1.51323 0
M  V30 6636 C 604.481 -0.7766 1.39431 0
M  V30 6637 C 604.681 -1.95838 0.474296 0
M  V30 6638 O 603.737 -2.52398 -0.0716692 0
M  V30 6639 C 605.05 -1.05981 2.81405 0
M  V30 6640 C 606.598 -1.16442 2.90534 0
M  V30 6641 C 607.073 -1.48058 4.33408 0
M  V30 6642 N 608.564 -1.54988 4.36501 0
M  V30 6643 C 609.299 -1.81017 5.44078 0
M  V30 6644 N 608.795 -2.04858 6.61819 0
M  V30 6645 N 610.588 -1.82774 5.31554 0
M  V30 6646 H 602.739 0.338006 2.09693 0
M  V30 6647 H 605.002 0.0888072 0.943831 0
M  V30 6648 H 604.708 -0.264173 3.50706 0
M  V30 6649 H 604.582 -1.98822 3.20546 0
M  V30 6650 H 606.969 -1.95068 2.21432 0
M  V30 6651 H 607.05 -0.215088 2.54894 0
M  V30 6652 H 606.694 -0.699605 5.03059 0
M  V30 6653 H 606.624 -2.44192 4.66559 0
M  V30 6654 H 609.115 -1.38479 3.51613 0
M  V30 6655 H 609.428 -2.2408 7.396 0
M  V30 6656 H 607.773 -2.02187 6.6494 0
M  V30 6657 H 610.964 -1.63665 4.38556 0
M  V30 6658 H 611.137 -2.02722 6.15474 0
M  V30 6659 N 604.543 -1.41418 -0.695603 0
M  V30 6660 C 605.453 -1.45622 -1.83933 0
M  V30 6661 C 606.469 -0.346825 -1.70508 0
M  V30 6662 O 607.645 -0.59454 -1.92424 0
M  V30 6663 C 604.71 -1.33627 -3.19914 0
M  V30 6664 C 603.771 -2.54882 -3.45447 0
M  V30 6665 C 603.004 -2.43449 -4.7494 0
M  V30 6666 O 603.227 -1.45905 -5.51424 0
M  V30 6667 O 602.161 -3.33206 -5.01256 0
M  V30 6668 H 605.987 -2.42114 -1.83342 0
M  V30 6669 H 603.572 -1.22956 -0.848658 0
M  V30 6670 H 605.454 -1.29221 -4.01098 0
M  V30 6671 H 604.129 -0.402508 -3.21188 0
M  V30 6672 H 603.036 -2.64865 -2.64192 0
M  V30 6673 H 604.369 -3.47087 -3.48987 0
M  V30 6674 N 606.021 0.929856 -1.27246 0
M  V30 6675 C 606.951 2.04722 -1.12299 0
M  V30 6676 C 607.932 1.70082 -0.0250464 0
M  V30 6677 O 609.117 1.93176 -0.199141 0
M  V30 6678 C 606.247 3.38721 -0.767145 0
M  V30 6679 C 605.201 3.87466 -1.81808 0
M  V30 6680 C 604.527 5.18246 -1.31626 0
M  V30 6681 C 605.827 4.11095 -3.22177 0
M  V30 6682 H 607.521 2.17485 -2.05769 0
M  V30 6683 H 605.067 1.04503 -0.990715 0
M  V30 6684 H 607.02 4.16366 -0.649413 0
M  V30 6685 H 605.744 3.25967 0.203259 0
M  V30 6686 H 604.403 3.12012 -1.92468 0
M  V30 6687 H 604.051 5.01881 -0.335378 0
M  V30 6688 H 603.751 5.51829 -2.01887 0
M  V30 6689 H 605.275 5.98462 -1.21143 0
M  V30 6690 H 606.689 4.79316 -3.1453 0
M  V30 6691 H 605.086 4.55982 -3.90129 0
M  V30 6692 H 606.156 3.16468 -3.67391 0
M  V30 6693 N 607.499 1.09233 1.13605 0
M  V30 6694 C 608.447 0.724572 2.21027 0
M  V30 6695 C 609.441 -0.273595 1.67176 0
M  V30 6696 O 610.647 -0.135266 1.79491 0
M  V30 6697 H 607.022 0.216319 0.720215 0
M  V30 6698 H 608.993 1.63975 2.49309 0
M  V30 6699 C 607.742 0.159126 3.47336 0
M  V30 6700 H 607.065 0.918387 3.89109 0
M  V30 6701 H 608.505 -0.0602851 4.23957 0
M  V30 6702 C 606.964 -1.10514 3.18258 0
M  V30 6703 O 607.494 -2.18869 3.36837 0
M  V30 6704 N 605.7 -1.01886 2.72154 0
M  V30 6705 H 605.247 -0.137027 2.57235 0
M  V30 6706 H 605.205 -1.8655 2.53074 0
M  V30 6707 N 608.977 -1.30795 0.87923 0
M  V30 6708 C 610.223 -1.96653 0.495519 0
M  V30 6709 C 610.556 -1.69282 -0.951703 0
M  V30 6710 O 609.831 -0.994374 -1.6716 0
M  V30 6711 C 610.114 -3.51898 0.764174 0
M  V30 6712 C 609.967 -3.88808 2.2616 0
M  V30 6713 C 611.286 -4.39462 0.236825 0
M  V30 6714 H 608.405 -0.7143 0.181507 0
M  V30 6715 H 611.047 -1.54765 1.10217 0
M  V30 6716 H 609.197 -3.87709 0.247841 0
M  V30 6717 H 610.869 -3.63051 2.8459 0
M  V30 6718 H 609.112 -3.37082 2.73053 0
M  V30 6719 H 609.783 -4.97086 2.4002 0
M  V30 6720 H 612.259 -4.10528 0.678683 0
M  V30 6721 H 611.135 -5.47018 0.454176 0
M  V30 6722 H 611.396 -4.33621 -0.861683 0
M  V30 6723 N 610.455 -0.639598 -1.44038 0
M  V30 6724 C 611.403 0.0723409 -2.32487 0
M  V30 6725 C 612.397 0.827129 -1.47834 0
M  V30 6726 O 613.603 0.73907 -1.64127 0
M  V30 6727 H 609.978 0.0421696 -0.750817 0
M  V30 6728 H 611.949 -0.691593 -2.90275 0
M  V30 6729 C 610.698 1.03452 -3.31953 0
M  V30 6730 H 610.021 0.46315 -3.97108 0
M  V30 6731 H 611.461 1.502 -3.96505 0
M  V30 6732 C 609.92 2.12392 -2.61518 0
M  V30 6733 O 610.45 3.2059 -2.42044 0
M  V30 6734 N 608.656 1.88563 -2.21116 0
M  V30 6735 H 608.203 1.00577 -2.37154 0
M  V30 6736 H 608.161 2.61651 -1.74316 0
M  V30 6737 N 611.933 1.52934 -0.380664 0
M  V30 6738 C 613.182 2.00651 0.205477 0
M  V30 6739 C 613.495 1.27164 1.48623 0
M  V30 6740 O 614.701 1.65547 2.15189 0
M  V30 6741 C 613.157 3.57479 0.416726 0
M  V30 6742 C 612.765 4.39857 -0.850268 0
M  V30 6743 C 614.509 4.13509 0.959702 0
M  V30 6744 C 612.416 5.88269 -0.607773 0
M  V30 6745 H 611.346 0.749684 0.0805614 0
M  V30 6746 H 613.997 1.76508 -0.501732 0
M  V30 6747 H 612.379 3.77836 1.18557 0
M  V30 6748 H 613.553 4.31269 -1.62307 0
M  V30 6749 H 611.868 3.95005 -1.31756 0
M  V30 6750 H 614.465 5.22039 1.15669 0
M  V30 6751 H 614.808 3.69054 1.92626 0
M  V30 6752 H 615.341 3.9701 0.250645 0
M  V30 6753 H 612.08 6.3703 -1.54509 0
M  V30 6754 H 611.6 5.99667 0.126247 0
M  V30 6755 H 613.279 6.46558 -0.239014 0
M  V30 6756 N 613.412 0.11024 1.57214 0
M  V30 6757 C 614.642 -0.557025 1.98949 0
M  V30 6758 C 615.05 -1.61317 0.988606 0
M  V30 6759 O 614.393 -1.83679 -0.0279159 0
M  V30 6760 C 614.455 -1.24956 3.37085 0
M  V30 6761 C 614.119 -0.342398 4.55716 0
M  V30 6762 C 615.116 0.415511 5.18237 0
M  V30 6763 C 612.801 -0.256029 5.01647 0
M  V30 6764 C 614.795 1.24761 6.25071 0
M  V30 6765 C 612.482 0.579713 6.08344 0
M  V30 6766 C 613.48 1.33017 6.69922 0
M  V30 6767 O 613.168 2.15205 7.74559 0
M  V30 6768 H 612.9 -0.152792 0.658506 0
M  V30 6769 H 615.454 0.19076 2.04512 0
M  V30 6770 H 613.684 -2.04424 3.2825 0
M  V30 6771 H 615.373 -1.81286 3.63167 0
M  V30 6772 H 616.139 0.358605 4.83672 0
M  V30 6773 H 612.018 -0.829831 4.5347 0
M  V30 6774 H 615.562 1.83386 6.73064 0
M  V30 6775 H 611.459 0.638044 6.42339 0
M  V30 6776 H 612.227 2.08052 7.91617 0
M  V30 6777 N 614.89 -1.56749 -0.16351 0
M  V30 6778 C 616.306 -1.51043 -0.515567 0
M  V30 6779 C 616.506 -0.815855 -1.84245 0
M  V30 6780 O 615.562 -0.379477 -2.49632 0
M  V30 6781 C 616.875 -2.95791 -0.541114 0
M  V30 6782 C 618.423 -3.0664 -0.627776 0
M  V30 6783 C 618.898 -4.52861 -0.684141 0
M  V30 6784 N 620.389 -4.5714 -0.746818 0
M  V30 6785 C 621.124 -5.67634 -0.811137 0
M  V30 6786 N 620.62 -6.8774 -0.835811 0
M  V30 6787 N 622.413 -5.55624 -0.850756 0
M  V30 6788 H 614.564 -2.00307 0.70645 0
M  V30 6789 H 616.827 -0.912876 0.255659 0
M  V30 6790 H 616.533 -3.49797 0.365329 0
M  V30 6791 H 616.407 -3.50858 -1.38487 0
M  V30 6792 H 618.794 -2.52663 -1.52464 0
M  V30 6793 H 618.875 -2.54645 0.242805 0
M  V30 6794 H 618.519 -5.07472 0.2085 0
M  V30 6795 H 618.449 -5.02621 -1.57098 0
M  V30 6796 H 620.94 -3.70669 -0.735717 0
M  V30 6797 H 621.253 -7.67701 -0.886279 0
M  V30 6798 H 619.598 -6.90334 -0.803958 0
M  V30 6799 H 622.789 -4.60709 -0.828535 0
M  V30 6800 H 622.962 -6.41756 -0.897418 0
M  V30 6801 N 616.368 0.432326 -1.51554 0
M  V30 6802 C 617.318 1.52366 -1.69614 0
M  V30 6803 C 618.302 1.51205 -0.550083 0
M  V30 6804 O 619.494 1.57573 -0.806206 0
M  V30 6805 C 616.623 2.90513 -1.82913 0
M  V30 6806 C 615.709 2.9641 -3.03318 0
M  V30 6807 N 616.1 2.72043 -4.26411 0
M  V30 6808 C 614.398 3.27572 -3.02675 0
M  V30 6809 C 615.099 2.83912 -5.07709 0
M  V30 6810 N 614.075 3.15798 -4.42462 0
M  V30 6811 H 617.877 1.32285 -2.62446 0
M  V30 6812 H 615.391 0.639708 -1.4927 0
M  V30 6813 H 617.388 3.69032 -1.93962 0
M  V30 6814 H 616.048 3.1161 -0.912655 0
M  V30 6815 H 617.059 2.46876 -4.55272 0
M  V30 6816 H 613.736 3.54411 -2.20678 0
M  V30 6817 H 615.126 2.68984 -6.15709 0
M  V30 6818 N 617.846 1.41785 0.688094 0
M  V30 6819 C 619.074 1.44915 1.47673 0
M  V30 6820 C 619.489 0.0565786 1.88715 0
M  V30 6821 O 618.846 -0.92579 1.57275 0
M  V30 6822 C 618.897 2.36452 2.73446 0
M  V30 6823 O 618.618 3.7029 2.34131 0
M  V30 6824 C 620.119 2.48463 3.67125 0
M  V30 6825 H 617.339 0.493324 0.454832 0
M  V30 6826 H 619.883 1.86153 0.846594 0
M  V30 6827 H 618.038 1.98502 3.3268 0
M  V30 6828 H 618.452 4.19183 3.15255 0
M  V30 6829 H 619.926 3.16662 4.52138 0
M  V30 6830 H 620.403 1.51826 4.12123 0
M  V30 6831 H 621.009 2.8708 3.13792 0
M  V30 6832 N 619.324 -0.923095 1.27737 0
M  V30 6833 C 620.272 -2.04567 1.10703 0
M  V30 6834 C 621.266 -1.69375 0.0288445 0
M  V30 6835 O 622.472 -1.79027 0.186913 0
M  V30 6836 H 618.847 -0.670109 0.34126 0
M  V30 6837 H 620.818 -2.1608 2.05796 0
M  V30 6838 C 619.567 -3.38934 0.775837 0
M  V30 6839 H 618.89 -3.66501 1.59741 0
M  V30 6840 H 620.33 -4.18239 0.696548 0
M  V30 6841 C 618.789 -3.32863 -0.520012 0
M  V30 6842 O 619.319 -3.70462 -1.55308 0
M  V30 6843 N 617.525 -2.85958 -0.51732 0
M  V30 6844 H 617.072 -2.55557 0.32379 0
M  V30 6845 H 617.03 -2.82279 -1.38441 0
M  V30 6846 N 620.802 -1.09834 -1.13024 0
M  V30 6847 C 621.712 -0.753731 -2.22162 0
M  V30 6848 C 622.728 0.246105 -1.72251 0
M  V30 6849 O 623.904 0.0864051 -2.01215 0
M  V30 6850 C 620.969 -0.183958 -3.46212 0
M  V30 6851 C 620.03 -1.24028 -4.10993 0
M  V30 6852 C 619.263 -0.697597 -5.29121 0
M  V30 6853 O 619.486 0.478092 -5.68393 0
M  V30 6854 O 618.42 -1.4546 -5.84059 0
M  V30 6855 H 622.246 -1.66456 -2.5402 0
M  V30 6856 H 619.831 -0.873026 -1.21238 0
M  V30 6857 H 621.713 0.130257 -4.21199 0
M  V30 6858 H 620.388 0.699823 -3.16045 0
M  V30 6859 H 619.295 -1.60725 -3.37814 0
M  V30 6860 H 620.628 -2.09685 -4.45301 0
M  V30 6861 N 622.28 1.30327 -0.886154 0
M  V30 6862 C 623.691 1.78243 -0.555554 0
M  V30 6863 C 624.042 1.72849 0.928314 0
M  V30 6864 O 623.167 1.30607 1.72542 0
M  V30 6865 C 623.762 3.23654 -1.00168 0
M  V30 6866 C 622.321 3.69401 -0.722471 0
M  V30 6867 C 621.468 2.50753 -1.18399 0
M  V30 6868 H 624.419 1.1718 -1.07026 0
M  V30 6869 H 624.44 3.79056 -0.331152 0
M  V30 6870 H 623.952 3.27548 -2.08169 0
M  V30 6871 H 622.053 3.70995 0.345496 0
M  V30 6872 H 622.166 4.60818 -1.31085 0
M  V30 6873 H 620.53 2.47452 -0.603303 0
M  V30 6874 H 621.313 2.57383 -2.27176 0
M  V30 6875 N 623.758 0.647228 1.43697 0
M  V30 6876 C 625.004 0.158422 2.0218 0
M  V30 6877 C 625.337 -1.22233 1.50907 0
M  V30 6878 O 624.612 -1.81478 0.699702 0
M  V30 6879 C 624.895 0.1627 3.59732 0
M  V30 6880 C 624.748 1.57694 4.21251 0
M  V30 6881 C 626.067 -0.504138 4.37203 0
M  V30 6882 H 623.186 0.059042 0.734631 0
M  V30 6883 H 625.828 0.826772 1.71069 0
M  V30 6884 H 623.978 -0.406414 3.86368 0
M  V30 6885 H 625.65 2.19618 4.05667 0
M  V30 6886 H 623.893 2.12603 3.7813 0
M  V30 6887 H 624.564 1.53183 5.3032 0
M  V30 6888 H 627.04 -0.0199841 4.16095 0
M  V30 6889 H 625.916 -0.470394 5.46881 0
M  V30 6890 H 626.177 -1.57726 4.13007 0
M  V30 6891 N 625.236 -1.5273 0.388769 0
M  V30 6892 C 626.485 -2.00757 -0.194833 0
M  V30 6893 C 626.798 -1.27951 -1.47946 0
M  V30 6894 O 628.004 -1.66686 -2.14308 0
M  V30 6895 C 626.46 -3.57695 -0.397762 0
M  V30 6896 C 626.068 -4.394 0.873583 0
M  V30 6897 C 627.812 -4.14012 -0.937759 0
M  V30 6898 C 625.719 -5.87938 0.638962 0
M  V30 6899 H 624.649 -0.750101 -0.0765845 0
M  V30 6900 H 627.3 -1.76239 0.511086 0
M  V30 6901 H 625.682 -3.7846 -1.16552 0
M  V30 6902 H 626.856 -4.30403 1.64591 0
M  V30 6903 H 625.171 -3.94301 1.33849 0
M  V30 6904 H 627.768 -5.22645 -1.12899 0
M  V30 6905 H 628.111 -3.7007 -1.90666 0
M  V30 6906 H 628.644 -3.97137 -0.229588 0
M  V30 6907 H 625.383 -6.36202 1.57885 0
M  V30 6908 H 624.903 -5.99726 -0.094443 0
M  V30 6909 H 626.582 -6.46423 0.273299 0
M  V30 6910 N 626.714 -0.118576 -1.57153 0
M  V30 6911 C 627.624 0.845484 -2.18835 0
M  V30 6912 C 628.64 1.29299 -1.16438 0
M  V30 6913 O 629.816 1.35607 -1.48905 0
M  V30 6914 C 626.881 2.07795 -2.77529 0
M  V30 6915 C 625.942 1.6824 -3.9496 0
M  V30 6916 C 625.175 2.85612 -4.50845 0
M  V30 6917 O 625.398 4.01025 -4.05629 0
M  V30 6918 O 624.332 2.62721 -5.41536 0
M  V30 6919 H 628.158 0.350568 -3.0167 0
M  V30 6920 H 625.743 0.107013 -1.49016 0
M  V30 6921 H 627.625 2.79978 -3.14945 0
M  V30 6922 H 626.3 2.56294 -1.97725 0
M  V30 6923 H 625.207 0.931663 -3.62313 0
M  V30 6924 H 626.54 1.24484 -4.76198 0
M  V30 6925 N 628.193 1.56834 0.155195 0
M  V30 6926 C 629.14 1.97646 1.19184 0
M  V30 6927 C 630.11 0.842788 1.4313 0
M  V30 6928 O 631.295 1.1042 1.55602 0
M  V30 6929 C 628.435 2.35527 2.52232 0
M  V30 6930 C 627.548 3.62147 2.35529 0
M  V30 6931 C 626.683 3.89167 3.61555 0
M  V30 6932 C 625.722 5.09084 3.39853 0
M  V30 6933 N 624.859 5.32156 4.5799 0
M  V30 6934 H 629.699 2.8601 0.836802 0
M  V30 6935 H 627.236 1.41507 0.401758 0
M  V30 6936 H 629.194 2.55516 3.29799 0
M  V30 6937 H 627.824 1.50253 2.85699 0
M  V30 6938 H 626.876 3.4998 1.49057 0
M  V30 6939 H 628.188 4.49871 2.15448 0
M  V30 6940 H 627.342 4.09611 4.47553 0
M  V30 6941 H 626.081 2.9985 3.84632 0
M  V30 6942 H 625.086 4.88522 2.52243 0
M  V30 6943 H 626.311 5.99947 3.18183 0
M  V30 6944 H 624.257 4.45791 4.81255 0
M  V30 6945 H 624.174 6.14133 4.40882 0
M  V30 6946 H 625.442 5.57091 5.45225 0
M  V30 6947 N 629.671 -0.424282 1.51781 0
M  V30 6948 C 630.634 -1.49848 1.73431 0
M  V30 6949 C 631.634 -1.49016 0.604225 0
M  V30 6950 O 632.824 -1.50808 0.871935 0
M  V30 6951 C 629.956 -2.89332 1.80277 0
M  V30 6952 H 631.149 -1.3195 2.69312 0
M  V30 6953 H 628.702 -0.653809 1.41968 0
M  V30 6954 H 629.437 -3.12618 0.862568 0
M  V30 6955 H 629.222 -2.9134 2.62419 0
M  V30 6956 H 630.712 -3.67233 1.98821 0
M  V30 6957 N 631.149 -1.42148 -0.680565 0
M  V30 6958 C 632.374 -1.45901 -1.47403 0
M  V30 6959 C 632.799 -0.0700985 -1.87969 0
M  V30 6960 O 632.157 0.930145 -1.55621 0
M  V30 6961 C 632.205 -2.38661 -2.70321 0
M  V30 6962 O 631.309 -1.85399 -3.68376 0
M  V30 6963 H 630.65 -0.494565 -0.443059 0
M  V30 6964 H 633.18 -1.86774 -0.835251 0
M  V30 6965 H 633.19 -2.55046 -3.18458 0
M  V30 6966 H 631.865 -3.39571 -2.40134 0
M  V30 6967 H 630.442 -1.78541 -3.2738 0
M  V30 6968 N 632.627 0.916307 -1.28225 0
M  V30 6969 C 633.904 1.64429 -1.05936 0
M  V30 6970 C 634.284 2.07234 0.402139 0
M  V30 6971 O 633.632 1.81535 1.3877 0
M  V30 6972 C 633.842 2.83773 -2.03159 0
M  V30 6973 C 635.19 3.54852 -2.33164 0
M  V30 6974 O 636.214 2.93918 -2.01223 0
M  V30 6975 O 635.073 4.64663 -2.87664 0
M  V30 6976 H 632.167 0.721221 -0.404683 0
M  V30 6977 H 634.713 0.965838 -1.39534 0
M  V30 6978 H 633.485 2.49217 -3.01673 0
M  V30 6979 H 633.108 3.59333 -1.70192 0
M  V30 6980 N 634.105 1.10431 1.1244 0
M  V30 6981 C 635.053 0.747974 2.20246 0
M  V30 6982 C 636.047 -0.255848 1.67457 0
M  V30 6983 O 637.253 -0.116221 1.79624 0
M  V30 6984 H 633.628 0.223946 0.71788 0
M  V30 6985 H 635.599 1.6661 2.47556 0
M  V30 6986 C 634.348 0.195957 3.47147 0
M  V30 6987 H 633.671 0.959606 3.88113 0
M  V30 6988 H 635.111 -0.0153154 4.23997 0
M  V30 6989 C 633.57 -1.07132 3.19413 0
M  V30 6990 O 634.1 -2.15284 3.3914 0
M  V30 6991 N 632.306 -0.98994 2.73219 0
M  V30 6992 H 631.853 -0.109736 2.57366 0
M  V30 6993 H 631.811 -1.83856 2.55038 0
M  V30 6994 N 635.583 -1.29855 0.893053 0
M  V30 6995 C 636.493 -2.31661 0.370157 0
M  V30 6996 C 637.509 -1.65677 -0.531723 0
M  V30 6997 O 638.685 -1.9691 -0.422902 0
M  V30 6998 C 635.75 -3.44388 -0.399741 0
M  V30 6999 C 634.811 -4.2598 0.532861 0
M  V30 7000 C 634.044 -5.33324 -0.200388 0
M  V30 7001 O 634.267 -5.52305 -1.42531 0
M  V30 7002 O 633.201 -6.00188 0.453668 0
M  V30 7003 H 637.027 -2.78354 1.2146 0
M  V30 7004 H 634.612 -1.34171 0.657153 0
M  V30 7005 H 636.494 -4.13037 -0.835358 0
M  V30 7006 H 635.169 -2.99815 -1.22035 0
M  V30 7007 H 634.076 -3.59998 1.01746 0
M  V30 7008 H 635.409 -4.74178 1.3197 0
M  V30 7009 N 637.061 -0.65484 -1.43351 0
M  V30 7010 C 638.472 -0.248506 -1.85039 0
M  V30 7011 C 638.823 1.20526 -1.54816 0
M  V30 7012 O 637.948 1.92016 -0.99794 0
M  V30 7013 C 638.543 -0.444241 -3.35875 0
M  V30 7014 C 637.102 -0.0922108 -3.76287 0
M  V30 7015 C 636.249 -0.746327 -2.67068 0
M  V30 7016 H 639.2 -0.8584 -1.33481 0
M  V30 7017 H 639.221 0.309762 -3.79237 0
M  V30 7018 H 638.733 -1.50239 -3.5784 0
M  V30 7019 H 636.834 0.96328 -3.59933 0
M  V30 7020 H 636.947 -0.518807 -4.76283 0
M  V30 7021 H 635.311 -0.179416 -2.54067 0
M  V30 7022 H 636.094 -1.80754 -2.91861 0
M  V30 7023 N 638.539 1.52521 -0.396863 0
M  V30 7024 C 639.787 2.01274 0.182536 0
M  V30 7025 C 640.108 1.28485 1.46685 0
M  V30 7026 O 639.378 0.407134 1.91623 0
M  V30 7027 H 637.958 0.743671 0.0704442 0
M  V30 7028 H 640.62 1.87547 -0.530289 0
M  V30 7029 H 639.716 3.09687 0.387385 0
M  V30 7030 N 640.017 0.126909 1.57088 0
M  V30 7031 C 641.266 -0.529024 1.94639 0
M  V30 7032 C 641.579 -1.67323 1.01304 0
M  V30 7033 O 642.785 -2.39245 1.28352 0
M  V30 7034 C 641.241 -0.992483 3.45945 0
M  V30 7035 C 640.849 0.123691 4.47829 0
M  V30 7036 C 642.593 -1.61934 3.924 0
M  V30 7037 C 640.5 -0.356911 5.90322 0
M  V30 7038 H 639.43 -0.201397 0.726605 0
M  V30 7039 H 642.081 0.208032 1.82317 0
M  V30 7040 H 640.463 -1.7842 3.53528 0
M  V30 7041 H 641.637 0.900168 4.51922 0
M  V30 7042 H 639.952 0.657699 4.11173 0
M  V30 7043 H 642.549 -1.9902 4.96281 0
M  V30 7044 H 642.892 -2.50075 3.32819 0
M  V30 7045 H 643.425 -0.892894 3.8765 0
M  V30 7046 H 640.164 0.488636 6.53676 0
M  V30 7047 H 639.684 -1.0997 5.89633 0
M  V30 7048 H 641.363 -0.815547 6.41839 0
M  V30 7049 N 641.495 -1.56914 -0.146875 0
M  V30 7050 C 642.405 -2.0154 -1.20079 0
M  V30 7051 C 643.421 -0.930838 -1.47008 0
M  V30 7052 O 644.597 -1.24032 -1.58676 0
M  V30 7053 C 641.662 -2.38715 -2.51428 0
M  V30 7054 C 640.723 -3.6112 -2.32145 0
M  V30 7055 C 639.956 -3.96512 -3.57231 0
M  V30 7056 O 640.179 -3.32566 -4.63418 0
M  V30 7057 O 639.113 -4.89758 -3.49887 0
M  V30 7058 H 642.939 -2.91506 -0.851924 0
M  V30 7059 H 640.524 -1.45106 -0.355607 0
M  V30 7060 H 642.406 -2.63485 -3.28867 0
M  V30 7061 H 641.081 -1.51903 -2.85845 0
M  V30 7062 H 639.988 -3.41536 -1.52656 0
M  V30 7063 H 641.321 -4.48549 -2.02644 0
M  V30 7064 N 642.974 0.416227 -1.52004 0
M  V30 7065 C 643.907 1.52736 -1.6955 0
M  V30 7066 C 644.885 1.53264 -0.54305 0
M  V30 7067 O 646.069 1.72077 -0.769527 0
M  V30 7068 C 643.196 2.91283 -1.72835 0
M  V30 7069 C 642.242 3.08695 -2.94295 0
M  V30 7070 S 643.075 2.82758 -4.54762 0
M  V30 7071 C 644.231 4.23548 -4.60823 0
M  V30 7072 H 644.464 1.37623 -2.63528 0
M  V30 7073 H 641.997 0.607335 -1.41954 0
M  V30 7074 H 643.955 3.71134 -1.75413 0
M  V30 7075 H 642.616 3.03742 -0.799966 0
M  V30 7076 H 641.809 4.10042 -2.93056 0
M  V30 7077 H 641.411 2.36699 -2.89568 0
M  V30 7078 H 643.703 5.17078 -4.37763 0
M  V30 7079 H 644.646 4.29813 -5.62731 0
M  V30 7080 H 645.054 4.08188 -3.89927 0
M  V30 7081 N 644.452 1.42507 0.673017 0
M  V30 7082 C 645.384 1.42074 1.79854 0
M  V30 7083 C 646.397 0.319569 1.59633 0
M  V30 7084 O 647.586 0.582769 1.68719 0
M  V30 7085 C 644.686 1.19886 3.16987 0
M  V30 7086 C 643.859 2.42471 3.64042 0
M  V30 7087 C 642.918 2.15802 4.79913 0
M  V30 7088 O 641.944 2.89015 4.90366 0
M  V30 7089 N 643.146 1.16225 5.68746 0
M  V30 7090 H 645.911 2.3909 1.8071 0
M  V30 7091 H 643.472 1.37409 0.856171 0
M  V30 7092 H 645.464 0.999591 3.92161 0
M  V30 7093 H 644.034 0.313879 3.1102 0
M  V30 7094 H 643.254 2.77954 2.79526 0
M  V30 7095 H 644.542 3.24097 3.92223 0
M  V30 7096 H 643.94 0.556756 5.62954 0
M  V30 7097 H 642.497 1.02285 6.43724 0
M  V30 7098 N 645.93 -0.909495 1.28709 0
M  V30 7099 C 647.176 -1.66151 1.16283 0
M  V30 7100 C 647.509 -1.92067 -0.287069 0
M  V30 7101 O 646.784 -1.52409 -1.20837 0
M  V30 7102 C 647.067 -3.01676 1.9663 0
M  V30 7103 C 646.92 -2.82888 3.49707 0
M  V30 7104 C 648.239 -4.02274 1.78504 0
M  V30 7105 H 645.358 -0.602966 0.423793 0
M  V30 7106 H 648 -1.05418 1.58073 0
M  V30 7107 H 646.15 -3.53515 1.61119 0
M  V30 7108 H 647.822 -2.38026 3.95147 0
M  V30 7109 H 646.065 -2.17862 3.75125 0
M  V30 7110 H 646.736 -3.79147 4.01187 0
M  V30 7111 H 649.212 -3.59511 2.09503 0
M  V30 7112 H 648.088 -4.95056 2.37088 0
M  V30 7113 H 648.349 -4.35903 0.737647 0
M  V30 7114 N 647.408 -1.11026 -1.11852 0
M  V30 7115 C 648.318 -0.777252 -2.2135 0
M  V30 7116 C 649.334 0.227821 -1.72502 0
M  V30 7117 O 650.51 0.0650587 -2.01295 0
M  V30 7118 C 647.575 -0.220668 -3.45997 0
M  V30 7119 C 646.636 -1.2838 -4.09655 0
M  V30 7120 C 645.869 -0.753678 -5.28352 0
M  V30 7121 O 646.092 0.417779 -5.68868 0
M  V30 7122 O 645.026 -1.51647 -5.82483 0
M  V30 7123 H 648.852 -1.69141 -2.5224 0
M  V30 7124 H 646.437 -0.885836 -1.20305 0
M  V30 7125 H 648.319 0.0855756 -4.21313 0
M  V30 7126 H 646.994 0.666262 -3.16769 0
M  V30 7127 H 645.901 -1.64299 -3.3609 0
M  V30 7128 H 647.234 -2.14396 -4.43052 0
M  V30 7129 N 648.886 1.2938 -0.899927 0
M  V30 7130 C 649.834 2.29675 -0.367698 0
M  V30 7131 C 650.828 1.60787 0.533282 0
M  V30 7132 O 652.034 1.75126 0.416058 0
M  V30 7133 H 648.409 0.745284 -0.100279 0
M  V30 7134 H 650.38 2.72008 -1.22696 0
M  V30 7135 C 649.129 3.45512 0.389483 0
M  V30 7136 H 648.452 3.98713 -0.294575 0
M  V30 7137 H 649.892 4.17725 0.726744 0
M  V30 7138 C 648.351 2.969 1.59223 0
M  V30 7139 O 648.881 2.98195 2.69152 0
M  V30 7140 N 647.087 2.52728 1.43447 0
M  V30 7141 H 646.634 2.51873 0.540148 0
M  V30 7142 H 646.592 2.20561 2.24054 0
M  V30 7143 N 650.364 0.662433 1.43002 0
M  V30 7144 C 651.294 -0.00979809 2.33498 0
M  V30 7145 C 652.275 -0.802329 1.49989 0
M  V30 7146 O 653.46 -0.761964 1.78627 0
M  V30 7147 C 650.59 -0.970446 3.33466 0
M  V30 7148 C 649.544 -0.287383 4.27034 0
M  V30 7149 C 648.87 -1.36012 5.17112 0
M  V30 7150 C 650.17 0.82595 5.15728 0
M  V30 7151 H 651.864 0.745959 2.89958 0
M  V30 7152 H 649.41 0.360172 1.39423 0
M  V30 7153 H 651.363 -1.44971 3.95679 0
M  V30 7154 H 650.087 -1.75748 2.75282 0
M  V30 7155 H 648.746 0.17152 3.66199 0
M  V30 7156 H 648.394 -2.13882 4.55262 0
M  V30 7157 H 648.094 -0.908276 5.80538 0
M  V30 7158 H 649.618 -1.84056 5.82199 0
M  V30 7159 H 651.032 0.42845 5.71697 0
M  V30 7160 H 649.429 1.20282 5.87922 0
M  V30 7161 H 650.499 1.68003 4.54866 0
M  V30 7162 N 651.842 -1.52309 0.404946 0
M  V30 7163 C 652.752 -2.30634 -0.429555 0
M  V30 7164 C 653.768 -1.38187 -1.05737 0
M  V30 7165 O 654.944 -1.71261 -1.05979 0
M  V30 7166 C 652.009 -3.10947 -1.53339 0
M  V30 7167 C 651.07 -4.19126 -0.929065 0
M  V30 7168 C 650.303 -4.95601 -1.9803 0
M  V30 7169 O 650.526 -4.72331 -3.1978 0
M  V30 7170 O 649.46 -5.80551 -1.58886 0
M  V30 7171 H 653.286 -3.0298 0.208963 0
M  V30 7172 H 650.871 -1.4845 0.168255 0
M  V30 7173 H 652.753 -3.60974 -2.1743 0
M  V30 7174 H 651.428 -2.41399 -2.15658 0
M  V30 7175 H 650.335 -3.73257 -0.250982 0
M  V30 7176 H 651.668 -4.90955 -0.349855 0
M  V30 7177 N 653.32 -0.135238 -1.57019 0
M  V30 7178 C 654.25 0.805235 -2.19176 0
M  V30 7179 C 655.231 1.2656 -1.13651 0
M  V30 7180 O 656.416 1.32528 -1.4195 0
M  V30 7181 C 653.546 2.04914 -2.80406 0
M  V30 7182 C 652.5 1.72598 -3.91655 0
M  V30 7183 C 651.826 3.04154 -4.39766 0
M  V30 7184 C 653.126 0.981709 -5.12991 0
M  V30 7185 H 654.82 0.287232 -2.98019 0
M  V30 7186 H 652.366 0.136714 -1.4335 0
M  V30 7187 H 654.319 2.71178 -3.22553 0
M  V30 7188 H 653.043 2.59067 -1.98877 0
M  V30 7189 H 651.702 1.08717 -3.50109 0
M  V30 7190 H 651.35 3.56274 -3.55075 0
M  V30 7191 H 651.05 2.83299 -5.14796 0
M  V30 7192 H 652.574 3.71509 -4.84576 0
M  V30 7193 H 653.988 1.5462 -5.52056 0
M  V30 7194 H 652.385 0.873533 -5.93708 0
M  V30 7195 H 653.455 -0.0286887 -4.84892 0
M  V30 7196 N 654.798 1.5699 0.138552 0
M  V30 7197 C 656.209 1.73171 0.697754 0
M  V30 7198 C 656.56 0.750952 1.8126 0
M  V30 7199 O 655.685 -0.080549 2.1625 0
M  V30 7200 C 656.28 3.13996 1.27248 0
M  V30 7201 C 654.839 3.3175 1.77816 0
M  V30 7202 C 653.986 2.69084 0.669991 0
M  V30 7203 H 656.937 1.5846 -0.0871979 0
M  V30 7204 H 656.958 3.14463 2.14227 0
M  V30 7205 H 656.47 3.85354 0.460855 0
M  V30 7206 H 654.571 2.65403 2.61519 0
M  V30 7207 H 654.684 4.39768 1.90107 0
M  V30 7208 H 653.048 2.29782 1.09874 0
M  V30 7209 H 653.831 3.43053 -0.130329 0
M  V30 7210 N 656.276 -0.40816 1.52223 0
M  V30 7211 C 657.522 -1.15673 1.66576 0
M  V30 7212 C 657.855 -1.90141 0.394996 0
M  V30 7213 O 657.13 -1.84798 -0.606613 0
M  V30 7214 C 657.413 -2.15042 2.88841 0
M  V30 7215 C 657.266 -1.44465 4.25969 0
M  V30 7216 C 658.585 -3.15699 3.0663 0
M  V30 7217 H 655.704 -0.41916 0.606196 0
M  V30 7218 H 658.346 -0.442348 1.84779 0
M  V30 7219 H 656.496 -2.75964 2.73452 0
M  V30 7220 H 658.168 -0.866544 4.53088 0
M  V30 7221 H 656.411 -0.746612 4.27327 0
M  V30 7222 H 657.082 -2.16976 5.07568 0
M  V30 7223 H 659.558 -2.64854 3.20923 0
M  V30 7224 H 658.434 -3.82491 3.9369 0
M  V30 7225 H 658.695 -3.83481 2.19987 0
M  V30 7226 N 657.755 -1.42862 -0.66545 0
M  V30 7227 C 658.703 -1.47319 -1.8 0
M  V30 7228 C 659.697 -0.347963 -1.65788 0
M  V30 7229 O 660.903 -0.521406 -1.72283 0
M  V30 7230 H 657.278 -0.461588 -0.593667 0
M  V30 7231 H 659.249 -2.42876 -1.7336 0
M  V30 7232 C 657.998 -1.40152 -3.18203 0
M  V30 7233 H 657.321 -2.26035 -3.2977 0
M  V30 7234 H 658.761 -1.47331 -3.9758 0
M  V30 7235 C 657.22 -0.117493 -3.36695 0
M  V30 7236 O 657.75 0.826058 -3.93115 0
M  V30 7237 N 655.956 -0.0316218 -2.90583 0
M  V30 7238 H 655.503 -0.800247 -2.44855 0
M  V30 7239 H 655.461 0.826835 -3.03333 0
M  V30 7240 N 659.233 0.902656 -1.29189 0
M  V30 7241 C 660.644 1.46809 -1.15343 0
M  V30 7242 C 660.995 1.94568 0.252517 0
M  V30 7243 O 660.12 1.83454 1.14777 0
M  V30 7244 C 660.715 2.66829 -2.08776 0
M  V30 7245 C 659.274 3.19518 -1.98961 0
M  V30 7246 C 658.421 1.92212 -1.99874 0
M  V30 7247 H 661.372 0.714282 -1.41717 0
M  V30 7248 H 661.393 3.42465 -1.65826 0
M  V30 7249 H 660.905 2.32039 -3.11094 0
M  V30 7250 H 659.006 3.59008 -0.99721 0
M  V30 7251 H 659.119 3.84016 -2.86477 0
M  V30 7252 H 657.483 2.0979 -1.44431 0
M  V30 7253 H 658.266 1.59702 -3.03891 0
M  V30 7254 N 660.711 1.11618 1.11262 0
M  V30 7255 C 661.936 0.889013 1.8738 0
M  V30 7256 C 662.361 -0.555884 1.79698 0
M  V30 7257 O 661.719 -1.39272 1.16073 0
M  V30 7258 C 661.767 1.35759 3.34069 0
M  V30 7259 O 660.871 0.530499 4.08974 0
M  V30 7260 H 660.212 0.320082 0.581759 0
M  V30 7261 H 662.742 1.48611 1.40627 0
M  V30 7262 H 662.752 1.35291 3.84916 0
M  V30 7263 H 661.427 2.40973 3.38976 0
M  V30 7264 H 660.004 0.601439 3.68018 0
M  V30 7265 N 662.189 -1.289 0.906776 0
M  V30 7266 C 663.414 -1.99939 0.551303 0
M  V30 7267 C 663.839 -1.67366 -0.858496 0
M  V30 7268 O 663.197 -0.902176 -1.57259 0
M  V30 7269 C 663.245 -3.52523 0.758937 0
M  V30 7270 O 662.349 -4.11983 -0.185308 0
M  V30 7271 H 661.69 -0.628376 0.214568 0
M  V30 7272 H 664.22 -1.64225 1.2203 0
M  V30 7273 H 664.23 -4.02522 0.666329 0
M  V30 7274 H 662.905 -3.75566 1.78671 0
M  V30 7275 H 661.482 -3.72873 -0.0445577 0
M  V30 7276 N 663.667 -0.670007 -1.42649 0
M  V30 7277 C 664.913 -0.190568 -2.01903 0
M  V30 7278 C 665.246 1.19817 -1.52832 0
M  V30 7279 O 664.521 1.80342 -0.728485 0
M  V30 7280 C 664.804 -0.21991 -3.59428 0
M  V30 7281 C 664.657 -1.64376 -4.18689 0
M  V30 7282 C 665.976 0.434519 -4.3795 0
M  V30 7283 H 663.095 -0.0707219 -0.733599 0
M  V30 7284 H 665.737 -0.853883 -1.69732 0
M  V30 7285 H 663.887 0.344894 -3.86966 0
M  V30 7286 H 665.559 -2.26044 -4.02122 0
M  V30 7287 H 663.802 -2.18591 -3.747 0
M  V30 7288 H 664.473 -1.61601 -5.27815 0
M  V30 7289 H 666.949 -0.0462156 -4.16074 0
M  V30 7290 H 665.825 0.38333 -5.4756 0
M  V30 7291 H 666.086 1.51135 -4.15464 0
M  V30 7292 N 665.145 1.52092 -0.413018 0
M  V30 7293 C 666.391 2.02154 0.161737 0
M  V30 7294 C 666.724 1.29789 1.44459 0
M  V30 7295 O 665.999 0.405378 1.90229 0
M  V30 7296 C 666.282 3.5781 0.405463 0
M  V30 7297 C 666.135 4.40819 -0.894335 0
M  V30 7298 C 667.454 4.23821 1.18591 0
M  V30 7299 H 664.573 0.734769 0.0573077 0
M  V30 7300 H 667.215 1.81948 -0.547247 0
M  V30 7301 H 665.365 3.75158 1.0094 0
M  V30 7302 H 667.037 4.35175 -1.53039 0
M  V30 7303 H 665.28 4.06877 -1.50444 0
M  V30 7304 H 665.951 5.47819 -0.678144 0
M  V30 7305 H 668.427 4.10596 0.674573 0
M  V30 7306 H 667.303 5.32663 1.3252 0
M  V30 7307 H 667.564 3.83038 2.20758 0
M  V30 7308 N 666.623 0.143563 1.56945 0
M  V30 7309 C 667.848 -0.518701 2.00809 0
M  V30 7310 C 668.273 -1.5785 1.02298 0
M  V30 7311 O 667.631 -1.813 -0.0017839 0
M  V30 7312 C 667.679 -1.09929 3.43436 0
M  V30 7313 O 666.783 -2.21425 3.47915 0
M  V30 7314 H 666.124 -0.127215 0.6517 0
M  V30 7315 H 668.654 0.239283 2.03196 0
M  V30 7316 H 668.664 -1.4288 3.82164 0
M  V30 7317 H 667.339 -0.323162 4.14643 0
M  V30 7318 H 665.916 -1.89728 3.21026 0
M  V30 7319 N 668.101 -1.57061 -0.130224 0
M  V30 7320 C 669.011 -2.02802 -1.17934 0
M  V30 7321 C 670.027 -0.946378 -1.46013 0
M  V30 7322 O 671.203 -1.25708 -1.57351 0
M  V30 7323 C 668.268 -2.41368 -2.48882 0
M  V30 7324 C 667.329 -3.63561 -2.28301 0
M  V30 7325 C 666.562 -4.00279 -3.53005 0
M  V30 7326 O 666.785 -3.37463 -4.59864 0
M  V30 7327 O 665.719 -4.93441 -3.44673 0
M  V30 7328 H 669.545 -2.92394 -0.820958 0
M  V30 7329 H 667.13 -1.45475 -0.340197 0
M  V30 7330 H 669.012 -2.66958 -3.26054 0
M  V30 7331 H 667.687 -1.54926 -2.84217 0
M  V30 7332 H 666.594 -3.43136 -1.49025 0
M  V30 7333 H 667.927 -4.50673 -1.97875 0
M  V30 7334 N 669.579 0.400081 -1.52437 0
M  V30 7335 C 670.995 0.739359 -1.41441 0
M  V30 7336 C 671.195 1.94512 -0.526053 0
M  V30 7337 O 670.251 2.525 0.00472502 0
M  V30 7338 C 671.564 0.984824 -2.84116 0
M  V30 7339 C 673.112 1.08698 -2.93519 0
M  V30 7340 C 673.587 1.36515 -4.37181 0
M  V30 7341 N 675.078 1.43361 -4.40457 0
M  V30 7342 C 675.813 1.66528 -5.48686 0
M  V30 7343 N 675.309 1.87239 -6.67018 0
M  V30 7344 N 677.102 1.68617 -5.36213 0
M  V30 7345 H 669.253 -0.393484 -2.08723 0
M  V30 7346 H 671.516 -0.1138 -0.941145 0
M  V30 7347 H 671.222 0.171096 -3.51284 0
M  V30 7348 H 671.096 1.90253 -3.25705 0
M  V30 7349 H 673.483 1.89129 -2.26526 0
M  V30 7350 H 673.564 0.147432 -2.55375 0
M  V30 7351 H 673.208 0.565982 -5.04737 0
M  V30 7352 H 673.138 2.31737 -4.7287 0
M  V30 7353 H 675.629 1.29108 -3.55161 0
M  V30 7354 H 675.942 2.04392 -7.45281 0
M  V30 7355 H 674.287 1.84486 -6.70067 0
M  V30 7356 H 677.478 1.5198 -4.42741 0
M  V30 7357 H 677.651 1.86332 -6.20632 0
M  V30 7358 N 671.057 1.43213 0.657864 0
M  V30 7359 C 672.306 1.43871 1.41365 0
M  V30 7360 C 672.619 0.064898 1.95492 0
M  V30 7361 O 673.825 -0.0510796 2.71452 0
M  V30 7362 C 672.281 2.53158 2.55811 0
M  V30 7363 C 671.889 3.96624 2.08311 0
M  V30 7364 C 673.633 2.63004 3.3321 0
M  V30 7365 C 671.54 4.97385 3.1994 0
M  V30 7366 H 670.47 0.535174 0.531136 0
M  V30 7367 H 673.121 1.69185 0.710543 0
M  V30 7368 H 671.503 2.21037 3.2857 0
M  V30 7369 H 672.677 4.38182 1.42593 0
M  V30 7370 H 670.992 3.90781 1.43804 0
M  V30 7371 H 673.589 3.3546 4.16378 0
M  V30 7372 H 673.932 1.67918 3.80932 0
M  V30 7373 H 674.465 2.94403 2.67529 0
M  V30 7374 H 671.204 5.94007 2.77192 0
M  V30 7375 H 670.724 4.60444 3.84385 0
M  V30 7376 H 672.403 5.19877 3.85145 0
M  V30 7377 N 672.536 -0.895792 1.29666 0
M  V30 7378 C 673.761 -1.68528 1.20885 0
M  V30 7379 C 674.186 -1.8673 -0.226595 0
M  V30 7380 O 673.544 -1.39044 -1.16347 0
M  V30 7381 C 673.592 -3.04512 1.93144 0
M  V30 7382 O 672.696 -3.92963 1.25115 0
M  V30 7383 H 672.037 -0.515371 0.418675 0
M  V30 7384 H 674.567 -1.11878 1.71302 0
M  V30 7385 H 674.577 -3.54628 2.0175 0
M  V30 7386 H 673.252 -2.90582 2.97548 0
M  V30 7387 H 671.829 -3.51399 1.24794 0
M  V30 7388 N 674.014 -1.12206 -1.10668 0
M  V30 7389 C 675.239 -0.898938 -1.86906 0
M  V30 7390 C 675.664 0.546346 -1.79991 0
M  V30 7391 O 675.022 1.38655 -1.1681 0
M  V30 7392 C 675.07 -1.37529 -3.33344 0
M  V30 7393 O 674.174 -0.55218 -4.08687 0
M  V30 7394 H 673.515 -0.323163 -0.580053 0
M  V30 7395 H 676.045 -1.49355 -1.39837 0
M  V30 7396 H 676.055 -1.3733 -3.84193 0
M  V30 7397 H 674.73 -2.42767 -3.37693 0
M  V30 7398 H 673.307 -0.620947 -3.67694 0
M  V30 7399 N 675.492 1.28418 -0.913599 0
M  V30 7400 C 676.738 1.9527 -0.547484 0
M  V30 7401 C 677.071 1.71745 0.906486 0
M  V30 7402 O 676.346 1.03834 1.64465 0
M  V30 7403 C 676.629 3.49748 -0.857205 0
M  V30 7404 C 676.482 3.82675 -2.3639 0
M  V30 7405 C 677.801 4.3868 -0.353258 0
M  V30 7406 H 674.92 0.709236 -0.200381 0
M  V30 7407 H 677.562 1.51789 -1.14281 0
M  V30 7408 H 675.712 3.86915 -0.350548 0
M  V30 7409 H 677.384 3.55378 -2.94116 0
M  V30 7410 H 675.627 3.29724 -2.81894 0
M  V30 7411 H 676.298 4.90547 -2.53115 0
M  V30 7412 H 678.774 4.08584 -0.787288 0
M  V30 7413 H 677.65 5.45621 -0.599049 0
M  V30 7414 H 677.911 4.35753 0.746413 0
M  V30 7415 O 677.009 0.816646 1.39331 0
M  V30 7416 H 677.7 0.396491 1.89599 0
M  V30 END ATOM
M  V30 BEGIN BOND
M  V30 END BOND
M  V30 END CTAB
M  END
$$$$
