drugbank_target|O15530 3-phosphoinositide-dependent protein kinase 1 (DB00482; DB01863; DB01933; DB01946; DB02010; DB03777; DB04522; DB06932; DB07033; DB07132; DB07300; DB07456; DB07457; DB12010)
 OpenBabel12092119493D

  0  0  0     0  0            999 V3000
M  V30 BEGIN CTAB
M  V30 COUNTS 8848 8962 0 0 0
M  V30 BEGIN ATOM
M  V30 1 H -0.908 1.98254 -0.117106 0
M  V30 2 N 0 1.576 0 0
M  V30 3 C 0.933 2.03868 1.02534 0
M  V30 4 C 1.911 0.928543 1.3348 0
M  V30 5 O 3.095 1.19667 1.45644 0
M  V30 6 C 0.222 2.43627 2.35294 0
M  V30 7 C -0.732 3.65373 2.2001 0
M  V30 8 S 0.101 5.13292 1.52614 0
M  V30 9 C 1.257 5.56322 2.86805 0
M  V30 10 H 1.49 2.90518 0.631377 0
M  V30 11 H -0.977 1.52953 0.210867 0
M  V30 12 H 0.981 2.67203 3.11629 0
M  V30 13 H -0.358 1.57376 2.7183 0
M  V30 14 H -1.165 3.90944 3.18086 0
M  V30 15 H -1.563 3.418 1.51819 0
M  V30 16 H 0.729 5.58782 3.83104 0
M  V30 17 H 1.672 6.56266 2.65933 0
M  V30 18 H 2.08 4.83886 2.90714 0
M  V30 19 N 1.4781 -0.272755 1.55222 0
M  V30 20 C 2.4411 -1.32041 1.87344 0
M  V30 21 C 3.4411 -1.42342 0.74803 0
M  V30 22 O 4.6311 -1.41488 1.0162 0
M  V30 23 C 1.7631 -2.70173 2.07893 0
M  V30 24 H 2.9561 -1.04789 2.80997 0
M  V30 25 H 0.5091 -0.51083 1.47717 0
M  V30 26 H 1.2441 -3.02605 1.16622 0
M  V30 27 H 1.0291 -2.64082 2.89833 0
M  V30 28 H 2.5191 -3.45869 2.34017 0
M  V30 29 N 2.9562 -1.48159 -0.537278 0
M  V30 30 C 4.3722 -1.34118 -0.865129 0
M  V30 31 C 4.5722 -0.346678 -1.98495 0
M  V30 32 O 3.6282 0.234715 -2.51407 0
M  V30 33 C 4.9412 -2.73963 -1.23954 0
M  V30 34 C 6.4892 -2.82397 -1.34984 0
M  V30 35 C 6.9642 -4.22928 -1.75772 0
M  V30 36 N 8.4552 -4.25566 -1.82887 0
M  V30 37 C 9.1902 -5.31235 -2.15817 0
M  V30 38 N 8.6862 -6.47189 -2.47222 0
M  V30 39 N 10.4792 -5.18624 -2.16761 0
M  V30 40 H 2.6302 -2.1144 0.201715 0
M  V30 41 H 4.8932 -0.947598 0.0275949 0
M  V30 42 H 4.5992 -3.48264 -0.490381 0
M  V30 43 H 4.4732 -3.0702 -2.19132 0
M  V30 44 H 6.8602 -2.08356 -2.08978 0
M  V30 45 H 6.9412 -2.5297 -0.379448 0
M  V30 46 H 6.5852 -4.97482 -1.02341 0
M  V30 47 H 6.5152 -4.49794 -2.73848 0
M  V30 48 H 9.0062 -3.41924 -1.60924 0
M  V30 49 H 9.3192 -7.23564 -2.71433 0
M  V30 50 H 7.6642 -6.50476 -2.44757 0
M  V30 51 H 10.8552 -4.27056 -1.91679 0
M  V30 52 H 11.0282 -6.01078 -2.42093 0
M  V30 53 N 4.4343 0.785586 -1.36625 0
M  V30 54 C 5.6623 1.57448 -1.3423 0
M  V30 55 C 6.0773 1.88649 0.0755653 0
M  V30 56 O 5.4343 1.50414 1.03354 0
M  V30 57 C 5.4853 2.89316 -2.16745 0
M  V30 58 O 5.2063 2.59459 -3.53005 0
M  V30 59 C 6.7073 3.83606 -2.22174 0
M  V30 60 H 3.9273 0.488226 -0.4603 0
M  V30 61 H 6.4713 0.974733 -1.79775 0
M  V30 62 H 4.6263 3.4575 -1.74745 0
M  V30 63 H 5.0403 3.43804 -3.96105 0
M  V30 64 H 6.5143 4.73181 -2.8426 0
M  V30 65 H 6.9913 4.21734 -1.22627 0
M  V30 66 H 7.5973 3.33104 -2.64427 0
M  V30 67 N 5.9124 1.20967 1.01018 0
M  V30 68 C 7.1404 1.04956 1.78303 0
M  V30 69 C 7.5554 -0.400915 1.84494 0
M  V30 70 O 6.9124 -1.27826 1.30257 0
M  V30 71 C 6.9634 1.63403 3.22462 0
M  V30 72 O 6.6844 3.02775 3.16637 0
M  V30 73 C 8.1854 1.52432 4.16268 0
M  V30 74 H 5.4054 0.368858 0.560522 0
M  V30 75 H 7.9494 1.60193 1.27116 0
M  V30 76 H 6.1044 1.1227 3.70775 0
M  V30 77 H 6.5184 3.30626 4.07169 0
M  V30 78 H 7.9924 1.98078 5.15237 0
M  V30 79 H 8.4694 0.477875 4.36592 0
M  V30 80 H 9.0754 2.02787 3.73841 0
M  V30 81 N 7.3905 -1.2043 1.01659 0
M  V30 82 C 8.6155 -1.94318 0.724942 0
M  V30 83 C 9.0405 -1.74266 -0.708034 0
M  V30 84 O 8.3985 -1.03694 -1.48719 0
M  V30 85 C 8.4465 -3.44486 1.06591 0
M  V30 86 O 7.5505 -4.12017 0.177599 0
M  V30 87 H 6.8915 -0.60708 0.26898 0
M  V30 88 H 9.4215 -1.52861 1.35995 0
M  V30 89 H 9.4315 -3.95106 1.01762 0
M  V30 90 H 8.1065 -3.58404 2.10997 0
M  V30 91 H 6.6835 -3.71821 0.283421 0
M  V30 92 N 8.8686 -0.792821 -1.36206 0
M  V30 93 C 9.8006 -0.151469 -2.28699 0
M  V30 94 C 10.8136 0.641262 -1.49638 0
M  V30 95 O 12.0026 0.475885 -1.72039 0
M  V30 96 C 9.1026 0.808424 -3.29117 0
M  V30 97 C 8.2756 0.0650202 -4.37352 0
M  V30 98 C 7.3346 0.941358 -5.17711 0
M  V30 99 O 6.3606 0.397352 -5.67811 0
M  V30 100 N 7.5626 2.2652 -5.3448 0
M  V30 101 H 10.3276 -0.945982 -2.84379 0
M  V30 102 H 7.8886 -0.647032 -1.48409 0
M  V30 103 H 9.8806 1.3986 -3.79765 0
M  V30 104 H 8.4506 1.5038 -2.74052 0
M  V30 105 H 7.6706 -0.706255 -3.87822 0
M  V30 106 H 8.9586 -0.447847 -5.06825 0
M  V30 107 H 8.3566 2.73128 -4.95396 0
M  V30 108 H 6.9136 2.80493 -5.88359 0
M  V30 109 N 10.3467 1.47872 -0.545128 0
M  V30 110 C 11.2767 2.32661 0.197793 0
M  V30 111 C 12.2577 1.43041 0.920504 0
M  V30 112 O 13.4427 1.71912 0.90333 0
M  V30 113 C 10.5727 3.24569 1.23582 0
M  V30 114 C 9.5267 4.23333 0.630323 0
M  V30 115 C 8.8527 5.0448 1.77211 0
M  V30 116 C 10.1527 5.20704 -0.407974 0
M  V30 117 H 11.8467 2.95024 -0.510045 0
M  V30 118 H 9.3927 1.4187 -0.246731 0
M  V30 119 H 11.3457 3.8272 1.76362 0
M  V30 120 H 10.0697 2.60236 1.97344 0
M  V30 121 H 8.7287 3.6639 0.123922 0
M  V30 122 H 8.3767 4.36561 2.49847 0
M  V30 123 H 8.0767 5.71339 1.37281 0
M  V30 124 H 9.6007 5.65487 2.3034 0
M  V30 125 H 11.0147 5.7329 0.033305 0
M  V30 126 H 9.4117 5.95699 -0.725486 0
M  V30 127 H 10.4817 4.66917 -1.30828 0
M  V30 128 N 11.8248 0.280983 1.55075 0
M  V30 129 C 13.0548 -0.336804 2.03836 0
M  V30 130 C 13.4628 -1.49577 1.15859 0
M  V30 131 O 12.8058 -1.82888 0.172503 0
M  V30 132 C 12.8678 -0.874616 3.48699 0
M  V30 133 C 12.5318 0.156478 4.56732 0
M  V30 134 C 13.5288 0.978032 5.10618 0
M  V30 135 C 11.2138 0.292409 5.01448 0
M  V30 136 C 13.2078 1.92165 6.07743 0
M  V30 137 C 10.8948 1.23949 5.98398 0
M  V30 138 C 11.8928 2.05261 6.51427 0
M  V30 139 O 11.5808 2.98367 7.4648 0
M  V30 140 H 11.3128 -0.0800885 0.671239 0
M  V30 141 H 13.8668 0.412589 2.01213 0
M  V30 142 H 12.0968 -1.67418 3.4858 0
M  V30 143 H 13.7858 -1.40612 3.80766 0
M  V30 144 H 14.5518 0.883782 4.7688 0
M  V30 145 H 10.4308 -0.330498 4.59814 0
M  V30 146 H 13.9748 2.55672 6.49059 0
M  V30 147 H 9.8718 1.33454 6.31554 0
M  V30 148 H 10.6398 2.93116 7.64215 0
M  V30 149 N 13.3029 -1.57598 0.00835791 0
M  V30 150 C 14.5799 -1.82172 -0.712235 0
M  V30 151 C 14.9599 -0.887873 -1.9152 0
M  V30 152 O 14.3079 0.06146 -2.28417 0
M  V30 153 C 14.5179 -3.30875 -1.11008 0
M  V30 154 C 15.8659 -3.96826 -1.51044 0
M  V30 155 O 16.8899 -3.35248 -1.20364 0
M  V30 156 O 15.7489 -5.05318 -2.08125 0
M  V30 157 H 12.8429 -0.750435 -0.347529 0
M  V30 158 H 15.3889 -1.69665 0.0344523 0
M  V30 159 H 14.1609 -3.90481 -0.252982 0
M  V30 160 H 13.7839 -3.48412 -1.9156 0
M  V30 161 N 14.781 0.264519 -1.55364 0
M  V30 162 C 15.744 1.31046 -1.88042 0
M  V30 163 C 16.744 1.41943 -0.755569 0
M  V30 164 O 17.934 1.40947 -1.02369 0
M  V30 165 C 15.066 2.69067 -2.09323 0
M  V30 166 H 16.259 1.03297 -2.81549 0
M  V30 167 H 13.812 0.502989 -1.47986 0
M  V30 168 H 14.547 3.01982 -1.18226 0
M  V30 169 H 14.332 2.62542 -2.91229 0
M  V30 170 H 15.822 3.44623 -2.35848 0
M  V30 171 N 16.2591 1.48442 0.529413 0
M  V30 172 C 17.5051 1.5672 1.28711 0
M  V30 173 C 17.8381 0.2406 1.92704 0
M  V30 174 O 17.1131 -0.753454 1.79313 0
M  V30 175 C 17.3961 2.70587 2.37603 0
M  V30 176 C 17.2491 4.12953 1.78297 0
M  V30 177 C 18.5681 2.80212 3.39366 0
M  V30 178 H 15.6871 0.570474 0.466613 0
M  V30 179 H 18.3291 1.80617 0.589706 0
M  V30 180 H 16.4791 2.50342 2.97088 0
M  V30 181 H 18.1511 4.44639 1.22858 0
M  V30 182 H 16.3941 4.19927 1.0883 0
M  V30 183 H 17.0651 4.88448 2.57144 0
M  V30 184 H 19.5411 2.98553 2.89836 0
M  V30 185 H 18.4171 3.61611 4.12951 0
M  V30 186 H 18.6781 1.88393 3.99951 0
M  V30 187 N 17.7372 -0.778329 1.37039 0
M  V30 188 C 19.1482 -1.35421 1.28523 0
M  V30 189 C 19.4992 -1.96075 -0.0700901 0
M  V30 190 O 18.6242 -1.93352 -0.971801 0
M  V30 191 C 19.2192 -2.46211 2.32735 0
M  V30 192 C 17.7782 -2.99585 2.27873 0
M  V30 193 C 16.9252 -1.72748 2.16918 0
M  V30 194 H 19.8762 -0.5791 1.47757 0
M  V30 195 H 19.8972 -3.2552 1.9702 0
M  V30 196 H 19.4092 -2.02036 3.31365 0
M  V30 197 H 17.5102 -3.48152 1.32745 0
M  V30 198 H 17.6232 -3.55646 3.21018 0
M  V30 199 H 15.9872 -1.95416 1.63354 0
M  V30 200 H 16.7702 -1.30686 3.17452 0
M  V30 201 N 19.2153 -1.21501 -1.00376 0
M  V30 202 C 20.4643 -1.02718 -1.73586 0
M  V30 203 C 20.7773 0.439589 -1.90596 0
M  V30 204 O 21.9833 0.746848 -2.61026 0
M  V30 205 C 20.4393 -1.78929 -3.1227 0
M  V30 206 C 20.0473 -3.29783 -3.03228 0
M  V30 207 C 21.7913 -1.68557 -3.89601 0
M  V30 208 C 19.6983 -3.98479 -4.36999 0
M  V30 209 H 18.6283 -0.380733 -0.650814 0
M  V30 210 H 21.2793 -1.45248 -1.1214 0
M  V30 211 H 19.6613 -1.29192 -3.74333 0
M  V30 212 H 20.8353 -3.86832 -2.50395 0
M  V30 213 H 19.1503 -3.40711 -2.39385 0
M  V30 214 H 21.7473 -2.17211 -4.88593 0
M  V30 215 H 22.0903 -0.644021 -4.11288 0
M  V30 216 H 22.6233 -2.15778 -3.34193 0
M  V30 217 H 19.3623 -5.02841 -4.20513 0
M  V30 218 H 18.8823 -3.46219 -4.89788 0
M  V30 219 H 20.5613 -4.03462 -5.05794 0
M  V30 220 N 20.6934 1.19889 -1.02296 0
M  V30 221 C 21.6254 2.22334 -0.556787 0
M  V30 222 C 22.6384 1.58674 0.364199 0
M  V30 223 O 23.8274 1.77768 0.161533 0
M  V30 224 C 20.9274 3.38257 0.208694 0
M  V30 225 C 20.1004 4.31504 -0.71577 0
M  V30 226 C 19.1594 5.262 0.00325597 0
M  V30 227 O 18.1854 5.65798 -0.621357 0
M  V30 228 N 19.3874 5.66303 1.27599 0
M  V30 229 H 22.1524 2.62957 -1.43784 0
M  V30 230 H 19.7134 1.34495 -0.901261 0
M  V30 231 H 21.7054 3.98616 0.699111 0
M  V30 232 H 20.2754 2.96472 0.991102 0
M  V30 233 H 19.4954 3.69016 -1.38638 0
M  V30 234 H 20.7834 4.9072 -1.34428 0
M  V30 235 H 20.1814 5.36155 1.80429 0
M  V30 236 H 18.7384 6.28942 1.71102 0
M  V30 237 N 22.1715 0.800033 1.35784 0
M  V30 238 C 23.3965 0.388511 2.03729 0
M  V30 239 C 23.8215 -0.990481 1.5991 0
M  V30 240 O 23.1795 -1.64013 0.772612 0
M  V30 241 C 23.2275 0.4726 3.5749 0
M  V30 242 O 22.3315 -0.51646 4.09153 0
M  V30 243 H 21.6725 0.163271 0.643614 0
M  V30 244 H 24.2025 1.0841 1.73518 0
M  V30 245 H 24.2125 0.34003 4.06581 0
M  V30 246 H 22.8875 1.47848 3.88734 0
M  V30 247 H 21.4645 -0.344673 3.71304 0
M  V30 248 N 23.6496 -1.47581 0.552962 0
M  V30 249 C 24.8746 -2.07378 0.0300593 0
M  V30 250 C 25.2996 -1.40355 -1.25229 0
M  V30 251 O 24.6576 -0.477099 -1.7491 0
M  V30 252 C 24.7056 -3.60274 -0.153231 0
M  V30 253 O 23.8096 -3.94041 -1.21678 0
M  V30 254 H 23.1506 -0.662158 0.0494182 0
M  V30 255 H 25.6806 -1.89662 0.767434 0
M  V30 256 H 25.6906 -4.0633 -0.368761 0
M  V30 257 H 24.3656 -4.08455 0.783397 0
M  V30 258 H 22.9426 -3.59735 -0.982079 0
M  V30 259 N 25.1277 -0.289203 -1.54924 0
M  V30 260 C 26.3737 0.323998 -2.00195 0
M  V30 261 C 26.7067 1.54441 -1.17735 0
M  V30 262 O 25.9817 1.92875 -0.250878 0
M  V30 263 C 26.2647 0.692276 -3.53383 0
M  V30 264 C 26.1177 -0.536457 -4.46589 0
M  V30 265 C 27.4367 1.52335 -4.12895 0
M  V30 266 H 24.5557 0.116289 -0.727768 0
M  V30 267 H 27.1977 -0.398954 -1.85764 0
M  V30 268 H 25.3477 1.30822 -3.65811 0
M  V30 269 H 27.0197 -1.17499 -4.46085 0
M  V30 270 H 25.2627 -1.17192 -4.1767 0
M  V30 271 H 25.9337 -0.234806 -5.515 0
M  V30 272 H 28.4097 1.00302 -4.0383 0
M  V30 273 H 27.2857 1.74982 -5.20262 0
M  V30 274 H 27.5467 2.50886 -3.64018 0
M  V30 275 N 26.6058 1.57591 -0.0167156 0
M  V30 276 C 27.8518 1.91567 0.665582 0
M  V30 277 C 28.1848 0.892298 1.72487 0
M  V30 278 O 27.4598 -0.0867127 1.94307 0
M  V30 279 C 27.7428 3.36069 1.29342 0
M  V30 280 C 27.5958 4.49135 0.244541 0
M  V30 281 C 28.9148 3.803 2.21495 0
M  V30 282 H 26.0338 0.69666 0.240488 0
M  V30 283 H 28.6758 1.89866 -0.0714356 0
M  V30 284 H 26.8258 3.3765 1.92158 0
M  V30 285 H 28.4978 4.59689 -0.385228 0
M  V30 286 H 26.7408 4.3165 -0.431379 0
M  V30 287 H 27.4118 5.47242 0.723207 0
M  V30 288 H 29.8878 3.80377 1.68678 0
M  V30 289 H 28.7638 4.82127 2.62382 0
M  V30 290 H 29.0248 3.15104 3.101 0
M  V30 291 N 28.0839 -0.256276 1.55502 0
M  V30 292 C 29.0139 -1.32102 1.92539 0
M  V30 293 C 29.9949 -1.50684 0.789194 0
M  V30 294 O 31.1799 -1.63449 1.04872 0
M  V30 295 C 28.3099 -2.67752 2.21192 0
M  V30 296 C 27.2639 -2.63878 3.36975 0
M  V30 297 C 26.5899 -4.03236 3.51147 0
M  V30 298 C 27.8899 -2.21682 4.72921 0
M  V30 299 H 29.5839 -1.01351 2.81724 0
M  V30 300 H 27.1299 -0.486105 1.35547 0
M  V30 301 H 29.0829 -3.42365 2.45691 0
M  V30 302 H 27.8069 -3.0012 1.28824 0
M  V30 303 H 26.4659 -1.91722 3.12471 0
M  V30 304 H 26.1139 -4.32854 2.56216 0
M  V30 305 H 25.8139 -4.01535 4.29003 0
M  V30 306 H 27.3379 -4.79563 3.77957 0
M  V30 307 H 28.7519 -2.86023 4.96854 0
M  V30 308 H 27.1489 -2.3111 5.53812 0
M  V30 309 H 28.2189 -1.16833 4.70615 0
M  V30 310 N 29.562 -1.4872 -0.521534 0
M  V30 311 C 30.802 -1.58771 -1.28729 0
M  V30 312 C 31.166 -0.259394 -1.9024 0
M  V30 313 O 32.367 -0.234942 -2.67771 0
M  V30 314 C 30.638 -2.70039 -2.34124 0
M  V30 315 S 32.197 -2.9991 -3.20312 0
M  V30 316 H 29.015 -0.560251 -0.437767 0
M  V30 317 H 31.617 -1.86283 -0.593188 0
M  V30 318 H 30.321 -3.65101 -1.87429 0
M  V30 319 H 29.852 -2.44455 -3.08229 0
M  V30 320 H 31.867 -2.39855 -4.34378 0
M  V30 321 N 31.0401 0.771051 -1.3745 0
M  V30 322 C 32.2651 1.56529 -1.36065 0
M  V30 323 C 32.6901 1.88029 0.0515859 0
M  V30 324 O 32.0481 1.49282 1.02882 0
M  V30 325 C 32.0961 2.85187 -2.20683 0
M  V30 326 O 31.2001 3.79593 -1.61193 0
M  V30 327 H 30.5411 0.47411 -0.464883 0
M  V30 328 H 33.0711 0.954269 -1.80983 0
M  V30 329 H 33.0811 3.34283 -2.33921 0
M  V30 330 H 31.7561 2.61588 -3.23334 0
M  V30 331 H 30.3331 3.38239 -1.56999 0
M  V30 332 N 32.5182 1.22032 0.997298 0
M  V30 333 C 33.7582 1.05375 1.75144 0
M  V30 334 C 34.1222 -0.404696 1.87686 0
M  V30 335 O 35.3232 -0.691998 2.5974 0
M  V30 336 C 33.5942 1.74046 3.12158 0
M  V30 337 S 35.1532 1.72745 4.03366 0
M  V30 338 H 31.9712 0.377449 0.602539 0
M  V30 339 H 34.5732 1.54902 1.19272 0
M  V30 340 H 33.2772 2.79332 3.00669 0
M  V30 341 H 32.8082 1.24731 3.73103 0
M  V30 342 H 34.8232 0.774015 4.90126 0
M  V30 343 N 33.9963 -1.19345 1.0293 0
M  V30 344 C 35.4073 -1.70725 0.755633 0
M  V30 345 C 35.7583 -1.82326 -0.724676 0
M  V30 346 O 34.8833 -1.49471 -1.56484 0
M  V30 347 C 35.4783 -3.10084 1.36503 0
M  V30 348 C 34.0373 -3.58723 1.13994 0
M  V30 349 C 33.1843 -2.35577 1.46283 0
M  V30 350 H 36.1353 -1.0418 1.19718 0
M  V30 351 H 36.1563 -3.72787 0.762217 0
M  V30 352 H 35.6683 -3.01609 2.44241 0
M  V30 353 H 33.7693 -3.72512 0.0807901 0
M  V30 354 H 33.8823 -4.42816 1.82894 0
M  V30 355 H 32.2463 -2.38935 0.88217 0
M  V30 356 H 33.0293 -2.29731 2.55105 0
M  V30 357 N 35.4744 -0.807222 -1.35358 0
M  V30 358 C 36.6994 -0.399309 -2.0352 0
M  V30 359 C 37.1244 0.981986 -1.60433 0
M  V30 360 O 36.4824 1.63601 -0.781299 0
M  V30 361 C 36.5304 -0.491552 -3.57234 0
M  V30 362 O 35.6344 0.494754 -4.09421 0
M  V30 363 H 34.9754 -0.166682 -0.642739 0
M  V30 364 H 37.5054 -1.09328 -1.72941 0
M  V30 365 H 37.5154 -0.361588 -4.06395 0
M  V30 366 H 36.1904 -1.49907 -3.87944 0
M  V30 367 H 34.7674 0.324977 -3.71481 0
M  V30 368 N 36.9525 1.47285 -0.560781 0
M  V30 369 C 38.3635 1.86258 -0.128343 0
M  V30 370 C 38.7145 1.46699 1.30284 0
M  V30 371 O 37.8395 0.871698 1.98067 0
M  V30 372 C 38.4345 3.38044 -0.22614 0
M  V30 373 C 36.9935 3.76096 0.151283 0
M  V30 374 C 36.1405 2.71335 -0.572084 0
M  V30 375 H 39.0915 1.38752 -0.770297 0
M  V30 376 H 39.1125 3.76441 0.554322 0
M  V30 377 H 38.6245 3.66806 -1.26788 0
M  V30 378 H 36.7255 3.52951 1.19399 0
M  V30 379 H 36.8385 4.78641 -0.209765 0
M  V30 380 H 35.2025 2.54696 -0.0147653 0
M  V30 381 H 35.9855 3.02938 -1.61504 0
M  V30 382 N 38.4306 0.297415 1.54768 0
M  V30 383 C 39.6556 -0.318435 2.04941 0
M  V30 384 C 40.0806 -1.4701 1.17345 0
M  V30 385 O 39.4386 -1.80436 0.176758 0
M  V30 386 C 39.4866 -0.755749 3.52592 0
M  V30 387 O 38.5906 -1.86088 3.68028 0
M  V30 388 H 37.9316 -0.062421 0.661059 0
M  V30 389 H 40.4616 0.438215 1.99852 0
M  V30 390 H 40.4716 -1.04552 3.94376 0
M  V30 391 H 39.1466 0.0867233 4.1581 0
M  V30 392 H 37.7236 -1.57193 3.38149 0
M  V30 393 N 39.9087 -1.5758 0.0250728 0
M  V30 394 C 40.8417 -2.05473 -0.992777 0
M  V30 395 C 41.8197 -0.949661 -1.31986 0
M  V30 396 O 43.0037 -1.21969 -1.43722 0
M  V30 397 C 40.1307 -2.4734 -2.31389 0
M  V30 398 C 39.1767 -3.68827 -2.1417 0
M  V30 399 S 40.0097 -5.15655 -1.44429 0
M  V30 400 C 41.1657 -5.60814 -2.77918 0
M  V30 401 H 41.3987 -2.91486 -0.585078 0
M  V30 402 H 38.9317 -1.53269 -0.186507 0
M  V30 403 H 40.8897 -2.72127 -3.07339 0
M  V30 404 H 39.5507 -1.6168 -2.69292 0
M  V30 405 H 38.7437 -3.95955 -3.11826 0
M  V30 406 H 38.3457 -3.44172 -1.46362 0
M  V30 407 H 40.6377 -5.64806 -3.74166 0
M  V30 408 H 41.5807 -6.60414 -2.55459 0
M  V30 409 H 41.9887 -4.8845 -2.82979 0
M  V30 410 N 41.3868 0.248026 -1.55636 0
M  V30 411 C 42.6328 0.97767 -1.77678 0
M  V30 412 C 42.9658 1.85016 -0.590135 0
M  V30 413 O 42.2408 1.90095 0.411611 0
M  V30 414 C 42.5238 1.83914 -3.09593 0
M  V30 415 C 42.3768 0.99491 -4.38659 0
M  V30 416 C 43.6958 2.82183 -3.37729 0
M  V30 417 H 40.8148 0.354005 -0.646413 0
M  V30 418 H 43.4568 0.248253 -1.88371 0
M  V30 419 H 41.6068 2.46104 -3.00608 0
M  V30 420 H 43.2788 0.391789 -4.59633 0
M  V30 421 H 41.5218 0.299231 -4.32767 0
M  V30 422 H 42.1928 1.63145 -5.2734 0
M  V30 423 H 44.6688 2.30129 -3.4667 0
M  V30 424 H 43.5448 3.39582 -4.31249 0
M  V30 425 H 43.8058 3.58588 -2.58586 0
M  V30 426 N 42.8649 1.48995 0.513639 0
M  V30 427 C 44.2809 1.35478 0.843682 0
M  V30 428 C 44.4809 0.378213 1.97919 0
M  V30 429 O 43.5369 -0.194689 2.51748 0
M  V30 430 C 44.8499 2.75901 1.1958 0
M  V30 431 C 46.3979 2.84509 1.30474 0
M  V30 432 C 46.8729 4.25671 1.69021 0
M  V30 433 N 48.3639 4.28422 1.76094 0
M  V30 434 C 49.0989 5.34601 2.07338 0
M  V30 435 N 48.5949 6.5104 2.36894 0
M  V30 436 N 50.3879 5.22007 2.08483 0
M  V30 437 H 42.5389 2.11092 -0.235328 0
M  V30 438 H 44.8019 0.947039 -0.0426669 0
M  V30 439 H 44.5079 3.49001 0.434913 0
M  V30 440 H 44.3819 3.10467 2.1422 0
M  V30 441 H 46.7689 2.11655 2.05637 0
M  V30 442 H 46.8499 2.53542 0.339155 0
M  V30 443 H 46.4939 4.99048 0.944135 0
M  V30 444 H 46.4239 4.54094 2.66658 0
M  V30 445 H 48.9149 3.44441 1.55464 0
M  V30 446 H 49.2279 7.2779 2.59887 0
M  V30 447 H 47.5729 6.54287 2.34378 0
M  V30 448 H 50.7639 4.30051 1.84861 0
M  V30 449 H 50.9369 6.04854 2.325 0
M  V30 450 N 44.343 -0.763751 1.37857 0
M  V30 451 C 45.571 -1.55293 1.36718 0
M  V30 452 C 45.986 -1.88745 -0.0455434 0
M  V30 453 O 45.343 -1.52039 -1.00947 0
M  V30 454 C 45.394 -2.85831 2.2132 0
M  V30 455 O 45.115 -2.5381 3.57089 0
M  V30 456 C 46.616 -3.80023 2.28249 0
M  V30 457 H 43.836 -0.480841 0.468009 0
M  V30 458 H 46.38 -0.946009 1.81303 0
M  V30 459 H 44.535 -3.42926 1.80223 0
M  V30 460 H 44.949 -3.37459 4.01524 0
M  V30 461 H 46.423 -4.68599 2.91752 0
M  V30 462 H 46.9 -4.1973 1.2932 0
M  V30 463 H 47.506 -3.28855 2.69693 0
M  V30 464 N 45.8211 -1.22559 -0.990812 0
M  V30 465 C 46.7531 -0.955325 -2.08342 0
M  V30 466 C 47.7661 0.0668408 -1.62663 0
M  V30 467 O 48.9551 -0.167421 -1.77713 0
M  V30 468 C 46.0551 -0.415566 -3.36342 0
M  V30 469 C 45.2281 -1.49544 -4.11042 0
M  V30 470 C 44.2871 -0.962399 -5.17324 0
M  V30 471 O 43.3131 -1.64907 -5.44788 0
M  V30 472 N 44.5151 0.215134 -5.80101 0
M  V30 473 H 47.2801 -1.89596 -2.32106 0
M  V30 474 H 44.8411 -1.13276 -1.15673 0
M  V30 475 H 46.8331 -0.0442386 -4.04676 0
M  V30 476 H 45.4031 0.430232 -3.09625 0
M  V30 477 H 44.6231 -2.04 -3.37309 0
M  V30 478 H 45.9111 -2.22195 -4.57719 0
M  V30 479 H 45.3091 0.789779 -5.6016 0
M  V30 480 H 43.8661 0.527826 -6.49659 0
M  V30 481 N 47.2992 1.18797 -1.03562 0
M  V30 482 C 48.5272 1.92599 -0.755869 0
M  V30 483 C 48.9422 1.75886 0.686271 0
M  V30 484 O 48.2992 1.08517 1.46732 0
M  V30 485 C 48.3502 3.44159 -1.10619 0
M  V30 486 O 48.0712 3.60341 -2.4917 0
M  V30 487 C 49.5722 4.3507 -0.850214 0
M  V30 488 H 46.7922 0.611587 -0.276048 0
M  V30 489 H 49.3362 1.50742 -1.38192 0
M  V30 490 H 47.4912 3.83823 -0.525194 0
M  V30 491 H 47.9052 4.54128 -2.62427 0
M  V30 492 H 49.3792 5.39989 -1.14523 0
M  V30 493 H 49.8562 4.38673 0.215176 0
M  V30 494 H 50.4622 4.01097 -1.41426 0
M  V30 495 N 48.7773 0.814389 1.34928 0
M  V30 496 C 49.6873 0.231978 2.3345 0
M  V30 497 C 50.7033 -0.629139 1.62228 0
M  V30 498 O 51.8793 -0.539052 1.94052 0
M  V30 499 C 48.9443 -0.603482 3.41407 0
M  V30 500 C 48.0053 0.279037 4.28392 0
M  V30 501 C 47.2383 -0.516643 5.31193 0
M  V30 502 O 47.4613 -1.75068 5.4287 0
M  V30 503 O 46.3953 0.0965652 6.01823 0
M  V30 504 H 50.2213 1.04721 2.85074 0
M  V30 505 H 47.8063 0.576343 1.37836 0
M  V30 506 H 49.6883 -1.07908 4.0735 0
M  V30 507 H 48.3633 -1.39618 2.92042 0
M  V30 508 H 47.2703 0.801948 3.65403 0
M  V30 509 H 48.6033 1.03588 4.81176 0
M  V30 510 N 50.2554 -1.46986 0.568584 0
M  V30 511 C 51.4804 -2.07335 0.0520528 0
M  V30 512 C 51.9054 -1.41675 -1.23733 0
M  V30 513 O 51.2634 -0.495623 -1.74394 0
M  V30 514 C 51.3114 -3.60417 -0.11501 0
M  V30 515 O 50.4154 -3.95309 -1.17492 0
M  V30 516 H 49.7564 -0.661597 0.0564385 0
M  V30 517 H 52.2864 -1.88837 0.787507 0
M  V30 518 H 52.2964 -4.06698 -0.325644 0
M  V30 519 H 50.9714 -4.07601 0.826675 0
M  V30 520 H 49.5484 -3.60757 -0.943869 0
M  V30 521 N 51.7335 -0.305618 -1.54608 0
M  V30 522 C 52.9585 0.307562 -2.05107 0
M  V30 523 C 53.3835 1.46385 -1.18123 0
M  V30 524 O 52.7415 1.8034 -0.186324 0
M  V30 525 C 52.7895 0.73704 -3.52987 0
M  V30 526 O 51.8935 1.84134 -3.6901 0
M  V30 527 H 51.2345 0.0589143 -0.661381 0
M  V30 528 H 53.7645 -0.448807 -1.99617 0
M  V30 529 H 53.7745 1.02459 -3.94925 0
M  V30 530 H 52.4495 -0.108773 -4.15758 0
M  V30 531 H 51.0265 1.55398 -3.38978 0
M  V30 532 N 53.2116 1.57565 -0.0334293 0
M  V30 533 C 54.4396 1.9628 0.654347 0
M  V30 534 C 54.8546 0.910138 1.65414 0
M  V30 535 O 54.2116 -0.107595 1.82183 0
M  V30 536 C 54.2626 3.35067 1.35693 0
M  V30 537 O 53.9836 4.36296 0.397191 0
M  V30 538 C 55.4846 3.88439 2.13613 0
M  V30 539 H 52.7046 0.646369 0.180132 0
M  V30 540 H 55.2486 2.04282 -0.0944721 0
M  V30 541 H 53.4036 3.2827 2.05712 0
M  V30 542 H 53.8176 5.1678 0.896597 0
M  V30 543 H 55.2916 4.8788 2.58219 0
M  V30 544 H 55.7686 3.22914 2.97696 0
M  V30 545 H 56.3746 3.98516 1.48543 0
M  V30 546 N 54.6897 -0.239769 1.55765 0
M  V30 547 C 56.1007 -0.808263 1.68297 0
M  V30 548 C 56.4517 -1.85736 0.632181 0
M  V30 549 O 55.5767 -2.15277 -0.220204 0
M  V30 550 C 56.1717 -1.47284 3.05111 0
M  V30 551 C 54.7307 -1.98895 3.19559 0
M  V30 552 C 53.8777 -0.842575 2.64189 0
M  V30 553 H 56.8287 -0.0154422 1.58692 0
M  V30 554 H 56.8497 -2.34111 2.99954 0
M  V30 555 H 56.3617 -0.709053 3.81568 0
M  V30 556 H 54.4627 -2.78132 2.47938 0
M  V30 557 H 54.5757 -2.18143 4.26556 0
M  V30 558 H 52.9397 -1.24501 2.22197 0
M  V30 559 H 53.7227 -0.0917552 3.43177 0
M  V30 560 N 56.1678 -1.49265 -0.50573 0
M  V30 561 C 57.5788 -1.51769 -1.08734 0
M  V30 562 C 57.9298 -0.301192 -1.93874 0
M  V30 563 O 57.0548 0.589456 -2.08217 0
M  V30 564 C 57.6498 -2.75017 -1.97867 0
M  V30 565 C 56.2088 -2.80314 -2.51199 0
M  V30 566 C 55.3558 -2.4562 -1.28709 0
M  V30 567 H 58.3068 -1.56031 -0.289855 0
M  V30 568 H 58.3278 -2.5491 -2.82491 0
M  V30 569 H 57.8398 -3.63539 -1.35873 0
M  V30 570 H 55.9408 -1.96061 -3.16845 0
M  V30 571 H 56.0538 -3.82366 -2.88675 0
M  V30 572 H 54.4178 -1.97297 -1.61078 0
M  V30 573 H 55.2008 -3.36411 -0.6843 0
M  V30 574 N 57.6459 0.756429 -1.3826 0
M  V30 575 C 58.8939 1.51248 -1.34047 0
M  V30 576 C 59.2149 1.94875 0.0698372 0
M  V30 577 O 58.4849 1.67436 1.01696 0
M  V30 578 H 57.0649 0.561018 -0.493222 0
M  V30 579 H 59.7269 0.899347 -1.7291 0
M  V30 580 H 58.8229 2.40472 -1.98947 0
M  V30 581 N 59.124 1.23083 0.984299 0
M  V30 582 C 60.373 1.05466 1.71929 0
M  V30 583 C 60.686 -0.409211 1.91272 0
M  V30 584 O 61.892 -0.705226 2.62181 0
M  V30 585 C 60.348 1.83874 3.09384 0
M  V30 586 C 59.956 3.34566 2.97943 0
M  V30 587 C 61.7 1.74734 3.8687 0
M  V30 588 C 59.607 4.05381 4.30605 0
M  V30 589 H 58.537 0.391039 0.644674 0
M  V30 590 H 61.188 1.47013 1.09815 0
M  V30 591 H 59.57 1.35131 3.72231 0
M  V30 592 H 60.744 3.90767 2.44209 0
M  V30 593 H 59.059 3.44476 2.33934 0
M  V30 594 H 61.656 2.24957 4.85076 0
M  V30 595 H 61.999 0.709372 4.10212 0
M  V30 596 H 62.532 2.21067 3.30717 0
M  V30 597 H 59.271 5.09467 4.1246 0
M  V30 598 H 58.791 3.53967 4.84218 0
M  V30 599 H 60.47 4.11458 4.99311 0
M  V30 600 N 60.6021 -1.18246 1.0419 0
M  V30 601 C 62.0131 -1.69914 0.773698 0
M  V30 602 C 62.3641 -1.83085 -0.705297 0
M  V30 603 O 61.4891 -1.51123 -1.5489 0
M  V30 604 C 62.0841 -3.08619 1.39784 0
M  V30 605 C 60.6431 -3.57494 1.17792 0
M  V30 606 C 59.7901 -2.34013 1.48773 0
M  V30 607 H 62.7411 -1.02904 1.20816 0
M  V30 608 H 62.7621 -3.71958 0.801714 0
M  V30 609 H 62.2741 -2.99001 2.47426 0
M  V30 610 H 60.3751 -3.72406 0.120295 0
M  V30 611 H 60.4881 -4.40852 1.87581 0
M  V30 612 H 58.8521 -2.37986 0.907463 0
M  V30 613 H 59.6351 -2.27013 2.57527 0
M  V30 614 N 62.0802 -0.821533 -1.34494 0
M  V30 615 C 63.3282 -0.408139 -1.97936 0
M  V30 616 C 63.6492 1.03193 -1.65457 0
M  V30 617 O 62.9192 1.71622 -0.944595 0
M  V30 618 H 61.4992 -0.147928 -0.732206 0
M  V30 619 H 64.1612 -1.05067 -1.64155 0
M  V30 620 H 63.2572 -0.52601 -3.07635 0
M  V30 621 N 63.5583 1.46682 -0.576371 0
M  V30 622 C 64.8063 2.02013 -0.0594163 0
M  V30 623 C 65.1273 1.45101 1.30271 0
M  V30 624 O 64.3973 0.633317 1.8538 0
M  V30 625 H 62.9773 0.746759 -0.0189745 0
M  V30 626 H 65.6393 1.79862 -0.750717 0
M  V30 627 H 64.7353 3.12097 0.014345 0
M  V30 628 N 65.0364 0.313813 1.54444 0
M  V30 629 C 66.2614 -0.296681 2.05267 0
M  V30 630 C 66.6864 -1.45757 1.18897 0
M  V30 631 O 66.0444 -1.80239 0.195886 0
M  V30 632 C 66.0924 -0.71831 3.53373 0
M  V30 633 O 65.1964 -1.82175 3.69981 0
M  V30 634 H 64.5374 -0.0554061 0.661684 0
M  V30 635 H 67.0674 0.459387 1.99376 0
M  V30 636 H 67.0774 -1.00364 3.95463 0
M  V30 637 H 65.7524 0.130821 4.15694 0
M  V30 638 H 64.3294 -1.53598 3.39797 0
M  V30 639 N 66.5145 -1.57545 0.0417849 0
M  V30 640 C 67.9305 -1.56467 -0.314704 0
M  V30 641 C 68.1305 -1.04859 -1.72066 0
M  V30 642 O 67.1865 -0.700983 -2.42575 0
M  V30 643 C 68.4995 -3.00317 -0.15174 0
M  V30 644 C 70.0475 -3.12201 -0.223553 0
M  V30 645 C 70.5225 -4.57913 -0.0892295 0
M  V30 646 N 72.0135 -4.6297 -0.145808 0
M  V30 647 C 72.7485 -5.73362 -0.0658459 0
M  V30 648 N 72.2445 -6.92769 0.0659282 0
M  V30 649 N 74.0375 -5.6197 -0.12075 0
M  V30 650 H 66.1885 -1.89416 0.961014 0
M  V30 651 H 68.4515 -0.871862 0.372237 0
M  V30 652 H 68.1575 -3.42073 0.817254 0
M  V30 653 H 68.0315 -3.65892 -0.916692 0
M  V30 654 H 70.4185 -2.70349 -1.18301 0
M  V30 655 H 70.4995 -2.49323 0.571994 0
M  V30 656 H 70.1435 -5.00448 0.866867 0
M  V30 657 H 70.0735 -5.18786 -0.903802 0
M  V30 658 H 72.5645 -3.7709 -0.247286 0
M  V30 659 H 72.8775 -7.72707 0.119905 0
M  V30 660 H 71.2225 -6.94927 0.100885 0
M  V30 661 H 74.4135 -4.67572 -0.222187 0
M  V30 662 H 74.5865 -6.47977 -0.0549735 0
M  V30 663 N 67.9926 0.231505 -1.5589 0
M  V30 664 C 68.9246 1.31006 -1.8807 0
M  V30 665 C 69.9376 1.43539 -0.768145 0
M  V30 666 O 71.1266 1.44614 -1.04638 0
M  V30 667 C 68.2266 2.68688 -2.06543 0
M  V30 668 C 67.3996 2.78228 -3.37502 0
M  V30 669 C 66.4586 3.96857 -3.4553 0
M  V30 670 O 65.4846 3.85662 -4.18633 0
M  V30 671 N 66.6866 5.1072 -2.75944 0
M  V30 672 H 69.4516 1.03731 -2.81176 0
M  V30 673 H 67.0126 0.421573 -1.56315 0
M  V30 674 H 69.0046 3.46412 -2.09239 0
M  V30 675 H 67.5746 2.88605 -1.20109 0
M  V30 676 H 66.7946 1.87059 -3.46991 0
M  V30 677 H 68.0826 2.81564 -4.23791 0
M  V30 678 H 67.4806 5.2271 -2.16311 0
M  V30 679 H 66.0376 5.86523 -2.84314 0
M  V30 680 N 69.4707 1.49531 0.497807 0
M  V30 681 C 70.7187 1.58865 1.24926 0
M  V30 682 C 71.0397 0.278721 1.92998 0
M  V30 683 O 70.3097 -0.702144 1.82885 0
M  V30 684 H 68.8897 0.585343 0.464094 0
M  V30 685 H 71.5517 1.86174 0.57666 0
M  V30 686 H 70.6477 2.38633 2.01149 0
M  V30 687 N 70.9488 -0.749086 1.3866 0
M  V30 688 C 72.3598 -1.32664 1.31366 0
M  V30 689 C 72.7108 -1.96179 -0.028484 0
M  V30 690 O 71.8358 -1.9537 -0.93057 0
M  V30 691 C 72.4308 -2.41219 2.37905 0
M  V30 692 C 70.9898 -2.94684 2.34176 0
M  V30 693 C 70.1368 -1.68108 2.20533 0
M  V30 694 H 73.0878 -0.547628 1.48952 0
M  V30 695 H 73.1088 -3.21268 2.0388 0
M  V30 696 H 72.6208 -1.94962 3.35576 0
M  V30 697 H 70.7218 -3.45258 1.401 0
M  V30 698 H 70.8348 -3.48757 3.2849 0
M  V30 699 H 69.1988 -1.91907 1.67463 0
M  V30 700 H 69.9818 -1.23923 3.20153 0
M  V30 701 N 72.4269 -1.23603 -0.977757 0
M  V30 702 C 73.3899 -1.02069 -2.05218 0
M  V30 703 C 74.3899 0.0184305 -1.60789 0
M  V30 704 O 75.5799 -0.221569 -1.72785 0
M  V30 705 C 72.7119 -0.544926 -3.36517 0
M  V30 706 H 73.9049 -1.9742 -2.25755 0
M  V30 707 H 71.4579 -1.05684 -1.15155 0
M  V30 708 H 72.1929 0.412241 -3.21669 0
M  V30 709 H 71.9779 -1.2948 -3.70105 0
M  V30 710 H 73.4679 -0.414985 -4.15533 0
M  V30 711 N 73.905 1.17692 -1.04816 0
M  V30 712 C 74.838 2.20436 -0.590173 0
M  V30 713 C 75.816 1.58115 0.379244 0
M  V30 714 O 77 1.86228 0.291762 0
M  V30 715 C 74.127 3.38424 0.136817 0
M  V30 716 C 73.173 4.19176 -0.787023 0
M  V30 717 S 74.006 4.84815 -2.27409 0
M  V30 718 C 75.162 6.06195 -1.55817 0
M  V30 719 H 75.395 2.58944 -1.46067 0
M  V30 720 H 72.928 1.28246 -0.859784 0
M  V30 721 H 74.886 4.06798 0.550076 0
M  V30 722 H 73.547 2.98312 0.983299 0
M  V30 723 H 72.74 5.03499 -0.224681 0
M  V30 724 H 72.342 3.56219 -1.13947 0
M  V30 725 H 74.634 6.72078 -0.855387 0
M  V30 726 H 75.577 6.6695 -2.37873 0
M  V30 727 H 75.985 5.54701 -1.04722 0
M  V30 728 N 75.3831 0.828654 1.34056 0
M  V30 729 C 76.6601 0.341809 1.9259 0
M  V30 730 C 77.0401 -1.17158 1.75605 0
M  V30 731 O 76.3881 -1.98132 1.13824 0
M  V30 732 C 76.5981 0.777453 3.4023 0
M  V30 733 C 77.9461 0.779579 4.17382 0
M  V30 734 O 78.9701 0.7204 3.48839 0
M  V30 735 O 77.8291 0.857996 5.39723 0
M  V30 736 H 74.9231 0.0946085 0.821571 0
M  V30 737 H 77.4691 0.913827 1.42994 0
M  V30 738 H 76.2411 1.8196 3.46419 0
M  V30 739 H 75.8641 0.181444 3.97186 0
M  V30 740 N 76.8612 -1.46375 0.584142 0
M  V30 741 C 78.1092 -2.01978 0.0701287 0
M  V30 742 C 78.4302 -1.4579 -1.295 0
M  V30 743 O 77.7002 -0.64314 -1.85042 0
M  V30 744 H 76.2802 -0.746648 0.0229345 0
M  V30 745 H 78.9422 -1.79461 0.760245 0
M  V30 746 H 78.0382 -3.121 0.0022064 0
M  V30 747 N 78.3393 -0.321999 -1.54275 0
M  V30 748 C 79.5673 0.283052 -2.04955 0
M  V30 749 C 79.9823 1.45904 -1.19823 0
M  V30 750 O 79.3393 1.81063 -0.228545 0
M  V30 751 C 79.3903 0.719028 -3.54277 0
M  V30 752 O 79.1113 -0.410175 -4.36176 0
M  V30 753 C 80.6123 1.38705 -4.21041 0
M  V30 754 H 77.8323 0.0584616 -0.668448 0
M  V30 755 H 80.3763 -0.467734 -1.99079 0
M  V30 756 H 78.5313 1.41979 -3.60445 0
M  V30 757 H 78.9453 -0.0669416 -5.24457 0
M  V30 758 H 80.4193 1.64306 -5.2698 0
M  V30 759 H 80.8963 2.33385 -3.72059 0
M  V30 760 H 81.5023 0.728906 -4.19007 0
M  V30 761 N 79.8174 1.5752 -0.0501392 0
M  V30 762 C 80.7804 2.1037 0.909786 0
M  V30 763 C 81.7804 1.02308 1.24056 0
M  V30 764 O 82.9704 1.28385 1.17741 0
M  V30 765 C 80.1024 2.58708 2.21998 0
M  V30 766 H 81.2954 2.96479 0.451665 0
M  V30 767 H 78.8484 1.55038 0.198248 0
M  V30 768 H 79.5834 1.75989 2.72394 0
M  V30 769 H 79.3684 3.37675 1.99295 0
M  V30 770 H 80.8584 2.99747 2.9076 0
M  V30 771 N 81.2955 -0.223234 1.56011 0
M  V30 772 C 82.2585 -1.26014 1.9145 0
M  V30 773 C 83.2585 -1.3989 0.792937 0
M  V30 774 O 84.4485 -1.38184 1.0607 0
M  V30 775 C 81.5805 -2.63422 2.16383 0
M  V30 776 H 82.7735 -0.95796 2.84189 0
M  V30 777 H 80.3265 -0.463576 1.49267 0
M  V30 778 H 81.0615 -2.98741 1.2619 0
M  V30 779 H 80.8465 -2.54728 2.98088 0
M  V30 780 H 82.3365 -3.38249 2.44903 0
M  V30 781 N 82.7736 -1.49793 -0.48987 0
M  V30 782 C 83.6836 -1.70036 -1.61632 0
M  V30 783 C 84.6996 -0.583102 -1.63939 0
M  V30 784 O 85.8756 -0.859169 -1.82154 0
M  V30 785 C 82.9406 -1.77277 -2.97949 0
M  V30 786 C 82.0016 -3.00918 -3.06181 0
M  V30 787 C 81.2346 -3.07804 -4.35996 0
M  V30 788 O 81.4576 -2.21982 -5.25433 0
M  V30 789 O 80.3916 -4.00369 -4.49431 0
M  V30 790 H 84.2176 -2.65486 -1.47482 0
M  V30 791 H 81.8026 -1.33666 -0.667362 0
M  V30 792 H 83.6846 -1.84329 -3.78947 0
M  V30 793 H 82.3596 -0.850076 -3.12339 0
M  V30 794 H 81.2666 -2.99377 -2.2433 0
M  V30 795 H 82.5996 -3.92704 -2.96723 0
M  V30 796 N 84.2517 0.741722 -1.39055 0
M  V30 797 C 85.6627 1.31966 -1.32068 0
M  V30 798 C 86.0137 1.96192 0.0180797 0
M  V30 799 O 85.1387 1.95861 0.920196 0
M  V30 800 C 85.7337 2.39954 -2.39181 0
M  V30 801 C 84.2927 2.93438 -2.35735 0
M  V30 802 C 83.4397 1.66936 -2.21422 0
M  V30 803 H 86.3907 0.539721 -1.4924 0
M  V30 804 H 86.4117 3.20182 -2.05581 0
M  V30 805 H 85.9237 1.9318 -3.36605 0
M  V30 806 H 84.0247 3.4451 -1.41929 0
M  V30 807 H 84.1377 3.4701 -3.30335 0
M  V30 808 H 82.5017 1.91016 -1.68478 0
M  V30 809 H 83.2847 1.22224 -3.20806 0
M  V30 810 N 85.7298 1.2412 0.971189 0
M  V30 811 C 87.1458 1.00584 1.23916 0
M  V30 812 C 87.3458 -0.287481 1.99439 0
M  V30 813 O 86.4018 -1.00454 2.31658 0
M  V30 814 C 87.7148 2.21864 2.0297 0
M  V30 815 C 89.2628 2.26452 2.16076 0
M  V30 816 C 89.7378 3.47343 2.98524 0
M  V30 817 N 91.2288 3.47639 3.06107 0
M  V30 818 C 91.9638 4.37837 3.70251 0
M  V30 819 N 91.4598 5.38286 4.36142 0
M  V30 820 N 93.2528 4.25558 3.67228 0
M  V30 821 H 85.4038 2.07236 0.465499 0
M  V30 822 H 87.6668 0.909236 0.268315 0
M  V30 823 H 87.3728 3.15771 1.54861 0
M  V30 824 H 87.2468 2.23698 3.03709 0
M  V30 825 H 89.6338 1.33078 2.6339 0
M  V30 826 H 89.7148 2.28645 1.14696 0
M  V30 827 H 89.3588 4.41029 2.51905 0
M  V30 828 H 89.2888 3.42393 4.00093 0
M  V30 829 H 91.7798 2.74966 2.59233 0
M  V30 830 H 92.0928 6.03352 4.82894 0
M  V30 831 H 90.4378 5.42176 4.34822 0
M  V30 832 H 93.6288 3.46322 3.14927 0
M  V30 833 H 93.8018 4.96054 4.16935 0
M  V30 834 N 87.2079 -1.17134 1.05439 0
M  V30 835 C 88.6189 -1.69084 0.791676 0
M  V30 836 C 88.9699 -1.83822 -0.685839 0
M  V30 837 O 88.0949 -1.52757 -1.53278 0
M  V30 838 C 88.6899 -3.07119 1.4305 0
M  V30 839 C 87.2489 -3.56225 1.21577 0
M  V30 840 C 86.3959 -2.32421 1.51247 0
M  V30 841 H 89.3469 -1.01617 1.219 0
M  V30 842 H 89.3679 -3.71087 0.84112 0
M  V30 843 H 88.8799 -2.9636 2.50584 0
M  V30 844 H 86.9809 -3.72257 0.159787 0
M  V30 845 H 87.0939 -4.38837 1.92246 0
M  V30 846 H 85.4579 -2.3701 0.932653 0
M  V30 847 H 86.2409 -2.24268 2.5992 0
M  V30 848 N 88.686 -0.835752 -1.33615 0
M  V30 849 C 89.934 -0.429109 -1.97492 0
M  V30 850 C 90.255 1.01433 -1.66543 0
M  V30 851 O 89.525 1.70611 -0.962744 0
M  V30 852 H 88.105 -0.155686 -0.730596 0
M  V30 853 H 90.767 -1.06802 -1.63031 0
M  V30 854 H 89.863 -0.55861 -3.0706 0
M  V30 855 N 90.1641 1.46063 -0.591896 0
M  V30 856 C 91.1271 2.28854 0.125973 0
M  V30 857 C 92.1271 1.38903 0.810107 0
M  V30 858 O 93.3171 1.61186 0.66066 0
M  V30 859 C 90.4491 3.19526 1.1881 0
M  V30 860 H 91.6421 2.93802 -0.601717 0
M  V30 861 H 89.1951 1.52325 -0.350254 0
M  V30 862 H 89.9301 2.59345 1.94707 0
M  V30 863 H 89.7151 3.85766 0.701936 0
M  V30 864 H 91.2051 3.81817 1.69132 0
M  V30 865 N 91.6422 0.330177 1.54103 0
M  V30 866 C 92.8902 -0.269871 2.0029 0
M  V30 867 C 93.2112 -1.52133 1.21986 0
M  V30 868 O 92.4812 -1.93212 0.323438 0
M  V30 869 H 91.0612 -0.10271 0.739905 0
M  V30 870 H 93.7232 0.448249 1.89675 0
M  V30 871 H 92.8192 -0.52166 3.07709 0
M  V30 872 N 93.1203 -1.57491 0.0584922 0
M  V30 873 C 94.3453 -1.97711 -0.62652 0
M  V30 874 C 94.7703 -0.936132 -1.63151 0
M  V30 875 O 94.1283 0.099811 -1.81025 0
M  V30 876 C 94.1763 -3.36989 -1.28338 0
M  V30 877 O 93.2803 -3.35433 -2.39913 0
M  V30 878 H 92.6213 -0.643868 -0.162266 0
M  V30 879 H 95.1513 -2.04193 0.129064 0
M  V30 880 H 95.1613 -3.73879 -1.63335 0
M  V30 881 H 93.8363 -4.12289 -0.546889 0
M  V30 882 H 92.4133 -3.10298 -2.06809 0
M  V30 883 N 94.5984 0.214957 -1.56127 0
M  V30 884 C 95.5284 1.2695 -1.95974 0
M  V30 885 C 96.5094 1.48539 -0.828868 0
M  V30 886 O 97.6944 1.60611 -1.09168 0
M  V30 887 C 94.8244 2.61794 -2.28214 0
M  V30 888 C 93.7784 2.54851 -3.43853 0
M  V30 889 C 93.1044 3.93785 -3.61715 0
M  V30 890 C 94.4044 2.09065 -4.78632 0
M  V30 891 H 96.0984 0.93846 -2.84312 0
M  V30 892 H 93.6444 0.449996 -1.36788 0
M  V30 893 H 95.5974 3.35731 -2.54682 0
M  V30 894 H 94.3214 2.96599 -1.36736 0
M  V30 895 H 92.9804 1.8337 -3.17444 0
M  V30 896 H 92.6284 4.25908 -2.67602 0
M  V30 897 H 92.3284 3.90019 -4.39498 0
M  V30 898 H 93.8524 4.69374 -3.90539 0
M  V30 899 H 95.2664 2.7275 -5.04262 0
M  V30 900 H 93.6634 2.16346 -5.59745 0
M  V30 901 H 94.7334 1.04315 -4.73547 0
M  V30 902 N 96.0765 1.50051 0.48192 0
M  V30 903 C 97.0085 1.64263 1.59844 0
M  V30 904 C 98.0215 0.52451 1.54119 0
M  V30 905 O 99.2105 0.797293 1.59704 0
M  V30 906 C 96.3105 1.60102 2.98698 0
M  V30 907 C 95.4835 2.87767 3.29407 0
M  V30 908 C 94.5425 2.76397 4.47762 0
M  V30 909 O 93.5685 3.50348 4.48603 0
M  V30 910 N 94.7705 1.89222 5.48794 0
M  V30 911 H 97.5355 2.60566 1.48073 0
M  V30 912 H 95.0965 1.47379 0.670149 0
M  V30 913 H 97.0885 1.50123 3.75826 0
M  V30 914 H 95.6585 0.715798 3.04294 0
M  V30 915 H 94.8785 3.11954 2.40994 0
M  V30 916 H 96.1665 3.72365 3.4673 0
M  V30 917 H 95.5645 1.28434 5.50928 0
M  V30 918 H 94.1215 1.85154 6.24949 0
M  V30 919 N 97.5546 -0.734337 1.39446 0
M  V30 920 C 98.5046 -1.83949 1.34709 0
M  V30 921 C 99.4886 -1.59279 0.227851 0
M  V30 922 O 100.681 -1.70771 0.465438 0
M  V30 923 C 97.8096 -3.21884 1.19356 0
M  V30 924 C 96.8956 -3.52381 2.35984 0
M  V30 925 N 97.2866 -3.53811 3.61457 0
M  V30 926 C 95.5846 -3.82747 2.28956 0
M  V30 927 C 96.2856 -3.82122 4.38586 0
M  V30 928 N 95.2616 -3.9993 3.68181 0
M  V30 929 H 99.0636 -1.83361 2.29687 0
M  V30 930 H 96.5776 -0.932609 1.32952 0
M  V30 931 H 98.5746 -4.00998 1.14046 0
M  V30 932 H 97.2346 -3.23711 0.253295 0
M  V30 933 H 98.2456 -3.35107 3.94872 0
M  V30 934 H 94.9226 -3.92175 1.43194 0
M  V30 935 H 96.3126 -3.89691 5.47349 0
M  V30 936 N 99.0327 -1.24633 -0.964593 0
M  V30 937 C 99.9957 -1.0424 -2.04124 0
M  V30 938 C 100.996 0.00137563 -1.608 0
M  V30 939 O 102.186 -0.239883 -1.7254 0
M  V30 940 C 99.3177 -0.580588 -3.3592 0
M  V30 941 H 100.511 -1.99803 -2.23649 0
M  V30 942 H 98.0637 -1.06899 -1.14027 0
M  V30 943 H 98.7987 0.3781 -3.22088 0
M  V30 944 H 98.5837 -1.33398 -3.6871 0
M  V30 945 H 100.074 -0.459034 -4.15069 0
M  V30 946 N 100.511 1.16574 -1.06058 0
M  V30 947 C 101.443 2.2045 -0.627239 0
M  V30 948 C 102.456 1.59752 0.313534 0
M  V30 949 O 103.645 1.78192 0.104896 0
M  V30 950 C 100.745 3.3875 0.100974 0
M  V30 951 C 99.9178 4.29008 -0.852687 0
M  V30 952 C 98.9768 5.25944 -0.164152 0
M  V30 953 O 98.0028 5.63535 -0.801047 0
M  V30 954 N 99.2048 5.70075 1.09518 0
M  V30 955 H 101.97 2.58249 -1.52077 0
M  V30 956 H 99.5308 1.3156 -0.943594 0
M  V30 957 H 101.523 4.00638 0.57194 0
M  V30 958 H 100.093 2.99476 0.89628 0
M  V30 959 H 99.3128 3.64419 -1.50308 0
M  V30 960 H 100.601 4.86195 -1.49972 0
M  V30 961 H 99.9988 5.41624 1.6328 0
M  V30 962 H 98.5558 6.34067 1.51006 0
M  V30 963 N 101.989 0.842826 1.3317 0
M  V30 964 C 103.4 0.496651 1.79973 0
M  V30 965 C 103.751 -0.984641 1.69703 0
M  V30 966 O 102.876 -1.76743 1.24863 0
M  V30 967 C 103.471 0.894727 3.26772 0
M  V30 968 C 102.03 0.600629 3.71577 0
M  V30 969 C 101.177 1.10091 2.5451 0
M  V30 970 H 104.128 1.03116 1.20635 0
M  V30 971 H 104.149 0.206347 3.7994 0
M  V30 972 H 103.661 1.97287 3.34215 0
M  V30 973 H 101.762 -0.467284 3.69658 0
M  V30 974 H 101.875 1.15863 4.64879 0
M  V30 975 H 100.239 0.52162 2.49301 0
M  V30 976 H 101.022 2.18591 2.64713 0
M  V30 977 N 103.467 -1.45747 0.599634 0
M  V30 978 C 104.878 -1.85853 0.177681 0
M  V30 979 C 105.229 -1.50102 -1.26348 0
M  V30 980 O 104.354 -0.923905 -1.95686 0
M  V30 981 C 104.949 -3.37326 0.315688 0
M  V30 982 C 103.508 -3.76365 -0.0515144 0
M  V30 983 C 102.655 -2.69722 0.643822 0
M  V30 984 H 105.606 -1.36661 0.806814 0
M  V30 985 H 105.627 -3.77778 -0.454321 0
M  V30 986 H 105.139 -3.63315 1.36468 0
M  V30 987 H 103.24 -3.55993 -1.09999 0
M  V30 988 H 103.353 -4.77916 0.336594 0
M  V30 989 H 101.717 -2.54567 0.0822881 0
M  V30 990 H 102.5 -2.98549 1.6948 0
M  V30 991 N 104.945 -0.338344 -1.53925 0
M  V30 992 C 106.356 0.146651 -1.86123 0
M  V30 993 C 106.707 1.5042 -1.2597 0
M  V30 994 O 105.832 2.08723 -0.571294 0
M  V30 995 C 106.427 0.272879 -3.37699 0
M  V30 996 C 104.986 0.702103 -3.69794 0
M  V30 997 C 104.133 -0.167304 -2.76795 0
M  V30 998 H 107.084 -0.558123 -1.48562 0
M  V30 999 H 107.105 1.10128 -3.64214 0
M  V30 1000 H 106.617 -0.715307 -3.81451 0
M  V30 1001 H 104.718 1.6995 -3.31584 0
M  V30 1002 H 104.831 0.495604 -4.7653 0
M  V30 1003 H 103.195 0.359527 -2.5215 0
M  V30 1004 H 103.978 -1.15253 -3.23375 0
M  V30 1005 N 106.423 1.57458 -0.0668435 0
M  V30 1006 C 107.355 2.09413 0.931601 0
M  V30 1007 C 108.368 1.02522 1.26464 0
M  V30 1008 O 109.557 1.30049 1.22269 0
M  V30 1009 C 106.657 2.53537 2.24882 0
M  V30 1010 C 105.83 3.83944 2.09537 0
M  V30 1011 C 104.889 4.14214 3.2452 0
M  V30 1012 O 103.915 4.83891 2.9973 0
M  V30 1013 N 105.117 3.67367 4.49469 0
M  V30 1014 H 107.882 2.95699 0.488048 0
M  V30 1015 H 105.443 1.61462 0.119009 0
M  V30 1016 H 107.435 2.70853 3.00701 0
M  V30 1017 H 106.005 1.72415 2.60753 0
M  V30 1018 H 105.225 3.76057 1.18215 0
M  V30 1019 H 106.513 4.69312 1.96529 0
M  V30 1020 H 105.911 3.11068 4.72497 0
M  V30 1021 H 104.468 3.89891 5.2233 0
M  V30 1022 N 107.901 -0.206675 1.56239 0
M  V30 1023 C 109.312 -0.772383 1.69974 0
M  V30 1024 C 109.663 -1.84353 0.671436 0
M  V30 1025 O 108.788 -2.15695 -0.174491 0
M  V30 1026 C 109.383 -1.40779 3.08167 0
M  V30 1027 C 107.942 -1.92072 3.23706 0
M  V30 1028 C 107.089 -0.786347 2.65917 0
M  V30 1029 H 110.04 0.0182223 1.5869 0
M  V30 1030 H 110.061 -2.27696 3.04852 0
M  V30 1031 H 109.573 -0.627958 3.82986 0
M  V30 1032 H 107.674 -2.7281 2.53782 0
M  V30 1033 H 107.787 -2.09046 4.31087 0
M  V30 1034 H 106.151 -1.1976 2.24788 0
M  V30 1035 H 106.934 -0.0189416 3.43295 0
M  V30 1036 N 109.379 -1.50304 -0.473955 0
M  V30 1037 C 110.795 -1.37667 -0.807466 0
M  V30 1038 C 110.995 -0.430555 -1.96846 0
M  V30 1039 O 110.051 0.127874 -2.52176 0
M  V30 1040 C 111.364 -2.78974 -1.12223 0
M  V30 1041 C 112.912 -2.87868 -1.22885 0
M  V30 1042 C 113.387 -4.30003 -1.57676 0
M  V30 1043 N 114.878 -4.3294 -1.64673 0
M  V30 1044 C 115.613 -5.3991 -1.93091 0
M  V30 1045 N 115.109 -6.57092 -2.1955 0
M  V30 1046 N 116.902 -5.27351 -1.94569 0
M  V30 1047 H 109.053 -2.10394 0.291212 0
M  V30 1048 H 111.316 -0.945575 0.0677609 0
M  V30 1049 H 111.022 -3.50031 -0.342229 0
M  V30 1050 H 110.896 -3.16038 -2.05913 0
M  V30 1051 H 113.283 -2.17032 -1.99953 0
M  V30 1052 H 113.364 -2.54352 -0.271814 0
M  V30 1053 H 113.008 -5.01375 -0.81149 0
M  V30 1054 H 112.938 -4.61004 -2.54525 0
M  V30 1055 H 115.429 -3.48441 -1.46277 0
M  V30 1056 H 115.742 -7.34425 -2.405 0
M  V30 1057 H 114.087 -6.60272 -2.16948 0
M  V30 1058 H 117.278 -4.34801 -1.73394 0
M  V30 1059 H 117.451 -6.10805 -2.16381 0
M  V30 1060 N 110.857 0.726932 -1.39834 0
M  V30 1061 C 111.804 1.841 -1.39197 0
M  V30 1062 C 112.774 1.642 -0.250502 0
M  V30 1063 O 113.959 1.85494 -0.446846 0
M  V30 1064 C 111.099 3.21697 -1.24919 0
M  V30 1065 C 110.212 3.53247 -2.48678 0
M  V30 1066 C 109.347 4.80289 -2.26928 0
M  V30 1067 C 108.386 5.04707 -3.4632 0
M  V30 1068 N 107.523 6.22956 -3.23836 0
M  V30 1069 H 112.363 1.83979 -2.34427 0
M  V30 1070 H 109.9 0.898876 -1.16442 0
M  V30 1071 H 111.858 4.01137 -1.1465 0
M  V30 1072 H 110.488 3.21076 -0.333153 0
M  V30 1073 H 109.54 2.68447 -2.69519 0
M  V30 1074 H 110.852 3.67205 -3.37582 0
M  V30 1075 H 110.006 5.67725 -2.13947 0
M  V30 1076 H 108.745 4.68519 -1.35431 0
M  V30 1077 H 107.75 4.1573 -3.5979 0
M  V30 1078 H 108.975 5.18357 -4.38729 0
M  V30 1079 H 106.921 6.12459 -2.35011 0
M  V30 1080 H 106.838 6.37539 -4.063 0
M  V30 1081 H 108.106 7.1321 -3.14566 0
M  V30 1082 N 112.336 1.25143 0.95797 0
M  V30 1083 C 113.283 1.05235 2.05412 0
M  V30 1084 C 114.253 -0.0374561 1.66058 0
M  V30 1085 O 115.438 0.119073 1.90428 0
M  V30 1086 C 112.578 0.673589 3.38462 0
M  V30 1087 C 111.691 1.8379 3.90954 0
M  V30 1088 C 110.826 1.40381 5.12315 0
M  V30 1089 C 109.865 2.53746 5.57027 0
M  V30 1090 N 109.002 2.11136 6.69601 0
M  V30 1091 H 113.842 1.99048 2.21774 0
M  V30 1092 H 111.379 0.991277 1.08683 0
M  V30 1093 H 113.337 0.434964 4.14926 0
M  V30 1094 H 111.967 -0.227554 3.21997 0
M  V30 1095 H 111.019 2.18992 3.11041 0
M  V30 1096 H 112.331 2.68937 4.20089 0
M  V30 1097 H 111.485 1.12464 5.96185 0
M  V30 1098 H 110.224 0.523015 4.84887 0
M  V30 1099 H 109.229 2.82412 4.71724 0
M  V30 1100 H 110.454 3.42398 5.86464 0
M  V30 1101 H 108.4 1.25468 6.4389 0
M  V30 1102 H 108.317 2.89832 6.98236 0
M  V30 1103 H 109.585 1.86385 7.56889 0
M  V30 1104 N 113.814 -1.1601 1.06675 0
M  V30 1105 C 115.23 -1.38622 0.790948 0
M  V30 1106 C 115.43 -1.92109 -0.607965 0
M  V30 1107 O 114.486 -2.12239 -1.36787 0
M  V30 1108 C 115.799 -2.36347 1.85905 0
M  V30 1109 C 117.347 -2.50023 1.88301 0
M  V30 1110 C 117.822 -3.51033 2.94176 0
M  V30 1111 N 119.313 -3.58563 2.93235 0
M  V30 1112 C 120.048 -4.36521 3.71803 0
M  V30 1113 N 119.544 -5.17869 4.602 0
M  V30 1114 N 121.337 -4.31541 3.60178 0
M  V30 1115 H 113.488 -0.796294 1.96908 0
M  V30 1116 H 115.751 -0.412597 0.853503 0
M  V30 1117 H 115.457 -2.04147 2.86386 0
M  V30 1118 H 115.331 -3.36042 1.71334 0
M  V30 1119 H 117.718 -2.81524 0.884769 0
M  V30 1120 H 117.799 -1.5035 2.06951 0
M  V30 1121 H 117.443 -3.20268 3.94196 0
M  V30 1122 H 117.373 -4.50445 2.72776 0
M  V30 1123 H 119.864 -3.00496 2.29152 0
M  V30 1124 H 120.177 -5.74578 5.16797 0
M  V30 1125 H 118.522 -5.17199 4.64253 0
M  V30 1126 H 121.713 -3.67051 2.90502 0
M  V30 1127 H 121.886 -4.9205 4.21653 0
M  V30 1128 N 115.292 -0.849877 -1.32721 0
M  V30 1129 C 116.703 -0.506188 -1.79707 0
M  V30 1130 C 117.054 0.975627 -1.70223 0
M  V30 1131 O 116.179 1.76078 -1.25799 0
M  V30 1132 C 116.774 -0.912044 -3.26293 0
M  V30 1133 C 115.333 -0.620326 -3.71253 0
M  V30 1134 C 114.48 -1.11439 -2.53922 0
M  V30 1135 H 117.431 -1.03754 -1.20087 0
M  V30 1136 H 117.452 -0.226493 -3.79825 0
M  V30 1137 H 116.964 -1.99057 -3.33164 0
M  V30 1138 H 115.065 0.447674 -3.69901 0
M  V30 1139 H 115.178 -1.18327 -4.64258 0
M  V30 1140 H 113.542 -0.534834 -2.49021 0
M  V30 1141 H 114.325 -2.19992 -2.6355 0
M  V30 1142 N 116.77 1.45427 -0.607355 0
M  V30 1143 C 117.68 2.34325 0.113463 0
M  V30 1144 C 118.696 1.51226 0.860617 0
M  V30 1145 O 119.872 1.84029 0.818255 0
M  V30 1146 C 116.937 3.28839 1.09844 0
M  V30 1147 C 115.998 4.27844 0.353271 0
M  V30 1148 C 115.231 5.17842 1.29133 0
M  V30 1149 O 115.454 5.11264 2.52913 0
M  V30 1150 O 114.388 5.96713 0.788523 0
M  V30 1151 H 118.214 2.97364 -0.617094 0
M  V30 1152 H 115.799 1.44807 -0.367619 0
M  V30 1153 H 117.681 3.8708 1.66575 0
M  V30 1154 H 116.356 2.68365 1.81003 0
M  V30 1155 H 115.263 3.7322 -0.256494 0
M  V30 1156 H 116.596 4.91173 -0.317822 0
M  V30 1157 N 118.248 0.346503 1.53744 0
M  V30 1158 C 119.525 -0.304532 1.93215 0
M  V30 1159 C 119.905 -1.67993 1.27834 0
M  V30 1160 O 119.253 -2.24411 0.430352 0
M  V30 1161 C 119.463 -0.373852 3.46992 0
M  V30 1162 C 120.811 -0.62329 4.2 0
M  V30 1163 O 121.835 -0.455847 3.53271 0
M  V30 1164 O 120.694 -0.947879 5.38217 0
M  V30 1165 H 117.788 -0.178318 0.807547 0
M  V30 1166 H 120.334 0.397895 1.64969 0
M  V30 1167 H 119.106 0.591224 3.86808 0
M  V30 1168 H 118.729 -1.12294 3.81413 0
M  V30 1169 N 119.726 -1.57421 0.075193 0
M  V30 1170 C 120.973 -1.93618 -0.593146 0
M  V30 1171 C 121.301 -0.955484 -1.69413 0
M  V30 1172 O 120.556 0.0283251 -1.9568 0
M  V30 1173 C 120.855 -3.36428 -1.20626 0
M  V30 1174 C 120.521 -4.50307 -0.231078 0
M  V30 1175 C 119.183 -4.81186 0.0371936 0
M  V30 1176 C 121.535 -5.19374 0.435888 0
M  V30 1177 C 118.863 -5.78466 0.979461 0
M  V30 1178 C 121.215 -6.17665 1.3665 0
M  V30 1179 C 119.879 -6.46958 1.6432 0
M  V30 1180 H 119.149 -0.708499 -0.217047 0
M  V30 1181 H 121.796 -1.90937 0.146793 0
M  V30 1182 H 120.101 -3.35592 -2.02201 0
M  V30 1183 H 121.798 -3.61727 -1.73073 0
M  V30 1184 H 118.388 -4.26227 -0.450357 0
M  V30 1185 H 122.572 -4.95711 0.241748 0
M  V30 1186 H 117.828 -5.99487 1.20106 0
M  V30 1187 H 122.002 -6.70284 1.88924 0
M  V30 1188 H 119.629 -7.2215 2.37494 0
M  V30 1189 N 121.204 0.198386 -1.56346 0
M  V30 1190 C 122.151 1.24589 -1.94284 0
M  V30 1191 C 123.121 1.454 -0.802997 0
M  V30 1192 O 124.306 1.58588 -1.06087 0
M  V30 1193 C 121.446 2.58631 -2.28482 0
M  V30 1194 C 120.559 2.45426 -3.55514 0
M  V30 1195 C 119.694 3.7215 -3.79049 0
M  V30 1196 C 118.733 3.53763 -4.99518 0
M  V30 1197 N 117.87 4.72491 -5.19323 0
M  V30 1198 H 122.71 0.915356 -2.83593 0
M  V30 1199 H 120.247 0.440629 -1.40346 0
M  V30 1200 H 122.205 3.3672 -2.46324 0
M  V30 1201 H 120.835 2.89734 -1.42317 0
M  V30 1202 H 119.887 1.58652 -3.45737 0
M  V30 1203 H 121.199 2.27772 -4.43758 0
M  V30 1204 H 120.353 4.58679 -3.97113 0
M  V30 1205 H 119.092 3.92754 -2.89129 0
M  V30 1206 H 118.097 2.65619 -4.8138 0
M  V30 1207 H 119.322 3.34607 -5.90944 0
M  V30 1208 H 117.268 4.93365 -4.3235 0
M  V30 1209 H 117.185 4.5765 -6.01741 0
M  V30 1210 H 118.453 5.6038 -5.41843 0
M  V30 1211 N 122.682 1.50554 0.465978 0
M  V30 1212 C 123.929 1.61798 1.21768 0
M  V30 1213 C 124.257 0.320696 1.91838 0
M  V30 1214 O 123.512 -0.693724 1.82992 0
M  V30 1215 C 123.811 2.75152 2.28093 0
M  V30 1216 C 123.477 4.15454 1.75239 0
M  V30 1217 C 122.139 4.53628 1.60546 0
M  V30 1218 C 124.491 5.03121 1.36083 0
M  V30 1219 C 121.819 5.77204 1.05128 0
M  V30 1220 C 124.171 6.27249 0.821056 0
M  V30 1221 C 122.835 6.64221 0.660795 0
M  V30 1222 H 122.105 0.592063 0.445582 0
M  V30 1223 H 124.752 1.84503 0.512927 0
M  V30 1224 H 123.057 2.46556 3.04496 0
M  V30 1225 H 124.754 2.81055 2.86023 0
M  V30 1226 H 121.344 3.85341 1.87644 0
M  V30 1227 H 125.528 4.74257 1.46267 0
M  V30 1228 H 120.784 6.0452 0.91462 0
M  V30 1229 H 124.958 6.94537 0.509018 0
M  V30 1230 H 122.585 7.59854 0.229226 0
M  V30 1231 N 124.16 -0.719506 1.40217 0
M  V30 1232 C 125.408 -1.47641 1.3801 0
M  V30 1233 C 125.729 -1.94992 -0.018145 0
M  V30 1234 O 124.999 -1.70073 -0.972207 0
M  V30 1235 H 123.579 -0.547744 0.507923 0
M  V30 1236 H 126.241 -0.853187 1.75233 0
M  V30 1237 H 125.337 -2.35112 2.05253 0
M  V30 1238 N 125.638 -1.25649 -0.95132 0
M  V30 1239 C 126.585 -1.06323 -2.04851 0
M  V30 1240 C 127.555 0.0286491 -1.66075 0
M  V30 1241 O 128.74 -0.12917 -1.90362 0
M  V30 1242 C 125.88 -0.691529 -3.381 0
M  V30 1243 C 124.993 -1.85861 -3.89974 0
M  V30 1244 C 124.128 -1.43096 -5.11563 0
M  V30 1245 C 123.167 -2.56696 -5.55674 0
M  V30 1246 N 122.304 -2.14684 -6.68472 0
M  V30 1247 H 127.144 -2.00222 -2.20715 0
M  V30 1248 H 124.681 -0.997027 -1.08156 0
M  V30 1249 H 126.639 -0.456963 -4.1469 0
M  V30 1250 H 125.269 0.210474 -3.22113 0
M  V30 1251 H 124.321 -2.20639 -3.09875 0
M  V30 1252 H 125.633 -2.71161 -4.18657 0
M  V30 1253 H 124.787 -1.15624 -5.9558 0
M  V30 1254 H 123.526 -0.548722 -4.84603 0
M  V30 1255 H 122.531 -2.84909 -4.7022 0
M  V30 1256 H 123.756 -3.45503 -5.8464 0
M  V30 1257 H 121.702 -1.28881 -6.43215 0
M  V30 1258 H 121.619 -2.9353 -6.96689 0
M  V30 1259 H 122.887 -1.90397 -7.5589 0
M  V30 1260 N 127.117 1.15442 -1.07289 0
M  V30 1261 C 128.366 1.85557 -0.790669 0
M  V30 1262 C 128.679 1.83186 0.685739 0
M  V30 1263 O 129.885 2.48977 1.0827 0
M  V30 1264 C 128.341 3.33038 -1.36433 0
M  V30 1265 C 127.949 3.43856 -2.8717 0
M  V30 1266 C 129.693 4.0834 -1.1601 0
M  V30 1267 C 127.6 4.85482 -3.3773 0
M  V30 1268 H 126.53 0.695122 -0.292098 0
M  V30 1269 H 129.181 1.30219 -1.29287 0
M  V30 1270 H 127.563 3.88043 -0.789864 0
M  V30 1271 H 128.737 2.98961 -3.50655 0
M  V30 1272 H 127.052 2.81998 -3.06376 0
M  V30 1273 H 129.649 5.12859 -1.51262 0
M  V30 1274 H 129.992 4.16182 -0.0991007 0
M  V30 1275 H 130.525 3.59603 -1.70089 0
M  V30 1276 H 127.264 4.82823 -4.43353 0
M  V30 1277 H 126.784 5.30961 -2.78999 0
M  V30 1278 H 128.463 5.54335 -3.33648 0
M  V30 1279 N 128.595 0.856903 1.32268 0
M  V30 1280 C 129.525 0.31858 2.31316 0
M  V30 1281 C 130.506 -0.583487 1.59779 0
M  V30 1282 O 131.691 -0.503259 1.87566 0
M  V30 1283 C 128.821 -0.491979 3.43798 0
M  V30 1284 C 127.775 0.315849 4.26833 0
M  V30 1285 C 127.101 -0.619586 5.31098 0
M  V30 1286 C 128.401 1.54282 4.98993 0
M  V30 1287 H 130.095 1.14621 2.76591 0
M  V30 1288 H 127.641 0.552613 1.32974 0
M  V30 1289 H 129.594 -0.879012 4.1213 0
M  V30 1290 H 128.318 -1.35299 2.97257 0
M  V30 1291 H 126.977 0.684664 3.6015 0
M  V30 1292 H 126.625 -1.47751 4.8081 0
M  V30 1293 H 126.325 -0.0830621 5.87541 0
M  V30 1294 H 127.849 -1.00375 6.02293 0
M  V30 1295 H 129.263 1.22796 5.59995 0
M  V30 1296 H 127.66 2.01745 5.65172 0
M  V30 1297 H 128.73 2.30285 4.26728 0
M  V30 1298 N 130.073 -1.45103 0.615059 0
M  V30 1299 C 131.321 -2.01784 0.112955 0
M  V30 1300 C 131.642 -1.48504 -1.26378 0
M  V30 1301 O 130.912 -0.682245 -1.83636 0
M  V30 1302 H 129.492 -0.745993 0.0387668 0
M  V30 1303 H 132.154 -1.77808 0.798141 0
M  V30 1304 H 131.25 -3.12025 0.0684069 0
M  V30 1305 N 131.551 -0.354651 -1.53558 0
M  V30 1306 C 132.461 0.50515 -2.29097 0
M  V30 1307 C 133.477 1.10223 -1.34636 0
M  V30 1308 O 134.653 1.11553 -1.67684 0
M  V30 1309 C 131.718 1.63479 -3.05738 0
M  V30 1310 C 130.779 1.06636 -4.15845 0
M  V30 1311 C 130.012 2.14217 -4.88822 0
M  V30 1312 O 130.235 3.35137 -4.61562 0
M  V30 1313 O 129.169 1.77887 -5.75013 0
M  V30 1314 H 132.995 -0.109237 -3.03503 0
M  V30 1315 H 130.58 -0.119357 -1.48922 0
M  V30 1316 H 132.462 2.2918 -3.5363 0
M  V30 1317 H 131.137 2.23478 -2.34178 0
M  V30 1318 H 130.044 0.373565 -3.7223 0
M  V30 1319 H 131.377 0.511081 -4.89539 0
M  V30 1320 N 133.029 1.57378 -0.0835403 0
M  V30 1321 C 134.277 1.93547 0.581718 0
M  V30 1322 C 134.598 0.96524 1.69435 0
M  V30 1323 O 133.868 0.0153369 1.95894 0
M  V30 1324 H 132.448 0.714521 0.217874 0
M  V30 1325 H 135.11 1.94366 -0.144158 0
M  V30 1326 H 134.206 2.95665 0.999423 0
M  V30 1327 N 134.507 -0.190092 1.56449 0
M  V30 1328 C 135.732 -0.929864 1.85387 0
M  V30 1329 C 136.157 -1.7585 0.667704 0
M  V30 1330 O 135.515 -1.77198 -0.383459 0
M  V30 1331 C 135.563 -1.79773 3.12593 0
M  V30 1332 O 134.667 -2.89713 2.93496 0
M  V30 1333 H 134.008 -0.261574 0.610307 0
M  V30 1334 H 136.538 -0.193896 2.03679 0
M  V30 1335 H 136.548 -2.20139 3.43515 0
M  V30 1336 H 135.223 -1.18892 3.98544 0
M  V30 1337 H 133.8 -2.53065 2.73884 0
M  V30 1338 N 135.985 -1.50799 -0.457987 0
M  V30 1339 C 137.232 -1.62442 -1.20908 0
M  V30 1340 C 137.56 -0.330865 -1.91665 0
M  V30 1341 O 136.815 0.68401 -1.83357 0
M  V30 1342 C 137.114 -2.76358 -2.2663 0
M  V30 1343 C 136.78 -4.16378 -1.73033 0
M  V30 1344 C 135.442 -4.54473 -1.58138 0
M  V30 1345 C 137.794 -5.03836 -1.33413 0
M  V30 1346 C 135.122 -5.77754 -1.02065 0
M  V30 1347 C 137.474 -6.27676 -0.78778 0
M  V30 1348 C 136.138 -6.64562 -0.625561 0
M  V30 1349 H 135.408 -0.594417 -0.442435 0
M  V30 1350 H 138.055 -1.84772 -0.503136 0
M  V30 1351 H 136.36 -2.48167 -3.03184 0
M  V30 1352 H 138.057 -2.82568 -2.84528 0
M  V30 1353 H 134.647 -3.86331 -1.85598 0
M  V30 1354 H 138.831 -4.75026 -1.4375 0
M  V30 1355 H 134.087 -6.04997 -0.882547 0
M  V30 1356 H 138.261 -6.94797 -0.472177 0
M  V30 1357 H 135.888 -7.59965 -0.188926 0
M  V30 1358 N 137.463 0.71206 -1.40597 0
M  V30 1359 C 138.688 1.50617 -1.42581 0
M  V30 1360 C 139.113 1.88079 -0.0282102 0
M  V30 1361 O 138.471 1.53511 0.964579 0
M  V30 1362 C 138.519 2.7557 -2.3258 0
M  V30 1363 O 137.623 3.72414 -1.77148 0
M  V30 1364 H 136.964 0.453966 -0.484573 0
M  V30 1365 H 139.494 0.876649 -1.84868 0
M  V30 1366 H 139.504 3.2406 -2.47889 0
M  V30 1367 H 138.179 2.47639 -3.34138 0
M  V30 1368 H 136.756 3.31276 -1.71204 0
M  V30 1369 N 138.941 1.26152 0.944643 0
M  V30 1370 C 140.169 1.14259 1.72489 0
M  V30 1371 C 140.584 -0.302555 1.8636 0
M  V30 1372 O 139.941 -1.20741 1.36849 0
M  V30 1373 C 139.992 1.80266 3.13347 0
M  V30 1374 O 139.713 3.19133 3.00143 0
M  V30 1375 C 141.214 1.74283 4.07603 0
M  V30 1376 H 138.434 0.398051 0.540181 0
M  V30 1377 H 140.978 1.66706 1.18446 0
M  V30 1378 H 139.133 1.31766 3.64303 0
M  V30 1379 H 139.547 3.51744 3.89071 0
M  V30 1380 H 141.021 2.25111 5.04013 0
M  V30 1381 H 141.498 0.708631 4.33446 0
M  V30 1382 H 142.104 2.22319 3.62567 0
M  V30 1383 N 140.419 -1.14872 1.07899 0
M  V30 1384 C 141.665 -1.86064 0.806725 0
M  V30 1385 C 141.998 -1.82434 -0.665706 0
M  V30 1386 O 141.273 -1.25138 -1.48899 0
M  V30 1387 C 141.556 -3.34929 1.32267 0
M  V30 1388 C 141.409 -3.47161 2.86006 0
M  V30 1389 C 142.728 -4.29863 0.943717 0
M  V30 1390 H 139.847 -0.675591 0.294526 0
M  V30 1391 H 142.489 -1.34925 1.33773 0
M  V30 1392 H 140.639 -3.78611 0.870974 0
M  V30 1393 H 142.311 -3.12302 3.39507 0
M  V30 1394 H 140.554 -2.88539 3.23925 0
M  V30 1395 H 141.225 -4.51777 3.17177 0
M  V30 1396 H 143.701 -3.9417 1.33302 0
M  V30 1397 H 142.577 -5.32494 1.33198 0
M  V30 1398 H 142.838 -4.41846 -0.149796 0
M  V30 1399 N 141.898 -0.863906 -1.31812 0
M  V30 1400 C 143.144 -0.472535 -1.97218 0
M  V30 1401 C 143.477 0.971394 -1.68159 0
M  V30 1402 O 142.752 1.68309 -0.974798 0
M  V30 1403 C 143.035 -0.723054 -3.52766 0
M  V30 1404 C 142.888 -2.21608 -3.91421 0
M  V30 1405 C 144.207 -0.185522 -4.39709 0
M  V30 1406 H 141.326 -0.173158 -0.71637 0
M  V30 1407 H 143.968 -1.08403 -1.56041 0
M  V30 1408 H 142.118 -0.202577 -3.87971 0
M  V30 1409 H 143.79 -2.80334 -3.66347 0
M  V30 1410 H 142.033 -2.691 -3.40246 0
M  V30 1411 H 142.704 -2.34203 -4.99853 0
M  V30 1412 H 145.18 -0.630726 -4.11292 0
M  V30 1413 H 144.056 -0.390306 -5.47511 0
M  V30 1414 H 144.317 0.912229 -4.32586 0
M  V30 1415 N 143.376 1.44774 -0.622745 0
M  V30 1416 C 144.306 2.33382 0.0741861 0
M  V30 1417 C 145.287 1.47719 0.843387 0
M  V30 1418 O 146.472 1.76458 0.810934 0
M  V30 1419 C 143.602 3.30663 1.06204 0
M  V30 1420 C 142.556 4.26079 0.405037 0
M  V30 1421 C 141.882 5.13165 1.5022 0
M  V30 1422 C 143.182 5.1781 -0.683414 0
M  V30 1423 H 144.876 2.91905 -0.665713 0
M  V30 1424 H 142.422 1.40363 -0.321587 0
M  V30 1425 H 144.375 3.9153 1.55827 0
M  V30 1426 H 143.099 2.70331 1.83272 0
M  V30 1427 H 141.758 3.66532 -0.0704683 0
M  V30 1428 H 141.406 4.49191 2.26355 0
M  V30 1429 H 141.106 5.77812 1.06803 0
M  V30 1430 H 142.63 5.76902 2.00041 0
M  V30 1431 H 144.044 5.72661 -0.270631 0
M  V30 1432 H 142.441 5.91015 -1.04023 0
M  V30 1433 H 143.511 4.59326 -1.55395 0
M  V30 1434 N 144.854 0.36279 1.53368 0
M  V30 1435 C 145.817 -0.472679 2.24273 0
M  V30 1436 C 146.817 -1.012 1.24961 0
M  V30 1437 O 148.007 -0.898194 1.49259 0
M  V30 1438 C 145.139 -1.66039 2.97731 0
M  V30 1439 H 146.332 0.14773 2.99536 0
M  V30 1440 H 143.885 0.114434 1.55881 0
M  V30 1441 H 144.62 -2.31896 2.26704 0
M  V30 1442 H 144.405 -1.28066 3.70596 0
M  V30 1443 H 145.895 -2.25252 3.51641 0
M  V30 1444 N 146.332 -1.57332 0.0918853 0
M  V30 1445 C 147.748 -1.57389 -0.264766 0
M  V30 1446 C 147.948 -1.10281 -1.68643 0
M  V30 1447 O 147.004 -0.777801 -2.40222 0
M  V30 1448 C 148.317 -3.00648 -0.0561195 0
M  V30 1449 C 149.865 -3.12754 -0.124116 0
M  V30 1450 C 150.34 -4.57965 0.0564972 0
M  V30 1451 N 151.831 -4.632 0.00155611 0
M  V30 1452 C 152.566 -5.73281 0.116598 0
M  V30 1453 N 152.062 -6.92208 0.286294 0
M  V30 1454 N 153.855 -5.6207 0.0580973 0
M  V30 1455 H 146.006 -1.86262 1.02079 0
M  V30 1456 H 148.269 -0.859579 0.399786 0
M  V30 1457 H 147.975 -3.393 0.925669 0
M  V30 1458 H 147.849 -3.68623 -0.799823 0
M  V30 1459 H 150.236 -2.73976 -1.09641 0
M  V30 1460 H 150.317 -2.47377 0.651024 0
M  V30 1461 H 149.961 -4.97436 1.02564 0
M  V30 1462 H 149.891 -5.21399 -0.738297 0
M  V30 1463 H 152.382 -3.77686 -0.127192 0
M  V30 1464 H 152.695 -7.71934 0.365676 0
M  V30 1465 H 151.04 -6.94254 0.32192 0
M  V30 1466 H 154.231 -4.68043 -0.0733204 0
M  V30 1467 H 154.404 -6.47824 0.151203 0
M  V30 1468 N 147.81 0.181792 -1.56548 0
M  V30 1469 C 148.72 1.24538 -1.98815 0
M  V30 1470 C 149.736 1.49045 -0.897861 0
M  V30 1471 O 150.912 1.61399 -1.20467 0
M  V30 1472 C 147.977 2.56683 -2.33055 0
M  V30 1473 C 147.038 2.40131 -3.55859 0
M  V30 1474 C 146.271 3.65975 -3.88456 0
M  V30 1475 O 146.494 4.70711 -3.22161 0
M  V30 1476 O 145.428 3.6071 -4.81842 0
M  V30 1477 H 149.254 0.916647 -2.89536 0
M  V30 1478 H 146.839 0.387842 -1.44278 0
M  V30 1479 H 148.721 3.34655 -2.56094 0
M  V30 1480 H 147.396 2.89157 -1.45498 0
M  V30 1481 H 146.303 1.60226 -3.38051 0
M  V30 1482 H 147.636 2.12585 -4.43924 0
M  V30 1483 N 149.288 1.51039 0.449983 0
M  V30 1484 C 150.218 1.74379 1.55288 0
M  V30 1485 C 151.199 0.593236 1.5942 0
M  V30 1486 O 152.384 0.834625 1.7535 0
M  V30 1487 C 149.514 1.85728 2.93466 0
M  V30 1488 C 148.468 3.01078 3.04197 0
M  V30 1489 C 147.794 2.97595 4.44231 0
M  V30 1490 C 149.094 4.41254 2.7945 0
M  V30 1491 H 150.788 2.66725 1.36008 0
M  V30 1492 H 148.334 1.2835 0.652864 0
M  V30 1493 H 150.287 2.0064 3.70569 0
M  V30 1494 H 149.011 0.900207 3.13949 0
M  V30 1495 H 147.67 2.85851 2.29531 0
M  V30 1496 H 147.318 1.99691 4.61663 0
M  V30 1497 H 147.018 3.75046 4.52343 0
M  V30 1498 H 148.542 3.14583 5.23326 0
M  V30 1499 H 149.956 4.56897 3.46292 0
M  V30 1500 H 148.353 5.20315 2.98985 0
M  V30 1501 H 149.423 4.52164 1.75144 0
M  V30 1502 N 150.766 -0.704594 1.40972 0
M  V30 1503 C 151.729 -1.80035 1.41845 0
M  V30 1504 C 152.729 -1.57774 0.310474 0
M  V30 1505 O 153.919 -1.64613 0.56992 0
M  V30 1506 C 151.051 -3.18284 1.22098 0
M  V30 1507 H 152.244 -1.80658 2.3938 0
M  V30 1508 H 149.797 -0.911329 1.26982 0
M  V30 1509 H 150.532 -3.23306 0.253672 0
M  V30 1510 H 150.317 -3.35843 2.02366 0
M  V30 1511 H 151.807 -3.98289 1.25522 0
M  V30 1512 N 152.244 -1.26651 -0.937939 0
M  V30 1513 C 153.472 -1.15173 -1.7188 0
M  V30 1514 C 153.887 0.292668 -1.86518 0
M  V30 1515 O 153.244 1.20014 -1.37488 0
M  V30 1516 C 153.295 -1.81925 -3.12387 0
M  V30 1517 O 153.016 -3.2072 -2.98446 0
M  V30 1518 C 154.517 -1.76442 -4.06673 0
M  V30 1519 H 151.737 -0.400911 -0.538063 0
M  V30 1520 H 154.281 -1.67332 -1.1756 0
M  V30 1521 H 152.436 -1.33696 -3.63599 0
M  V30 1522 H 152.85 -3.53802 -3.872 0
M  V30 1523 H 154.324 -2.27781 -5.02812 0
M  V30 1524 H 154.801 -0.731608 -4.33064 0
M  V30 1525 H 155.407 -2.24238 -3.61382 0
M  V30 1526 N 153.722 1.14298 -1.08507 0
M  V30 1527 C 154.947 1.8976 -0.837001 0
M  V30 1528 C 155.372 1.78097 0.605228 0
M  V30 1529 O 154.73 1.12188 1.4242 0
M  V30 1530 C 154.778 3.37685 -1.26495 0
M  V30 1531 O 153.882 4.10281 -0.417514 0
M  V30 1532 H 153.223 0.590365 -0.303917 0
M  V30 1533 H 155.753 1.44672 -1.44676 0
M  V30 1534 H 155.763 3.88501 -1.24625 0
M  V30 1535 H 154.438 3.45492 -2.31534 0
M  V30 1536 H 153.015 3.69536 -0.499722 0
M  V30 1537 N 155.201 0.870884 1.31352 0
M  V30 1538 C 156.617 0.562932 1.49343 0
M  V30 1539 C 156.817 -0.902725 1.80148 0
M  V30 1540 O 155.873 -1.68484 1.88067 0
M  V30 1541 C 157.186 1.46393 2.62659 0
M  V30 1542 C 158.734 1.46607 2.76542 0
M  V30 1543 C 159.209 2.35266 3.92955 0
M  V30 1544 N 160.7 2.33151 4.00243 0
M  V30 1545 C 161.435 2.98471 4.89594 0
M  V30 1546 N 160.931 3.72964 5.8384 0
M  V30 1547 N 162.724 2.87775 4.82848 0
M  V30 1548 H 154.875 1.81923 1.09626 0
M  V30 1549 H 157.138 0.777934 0.541777 0
M  V30 1550 H 156.844 2.50689 2.46674 0
M  V30 1551 H 156.718 1.16314 3.58819 0
M  V30 1552 H 159.105 0.43069 2.9194 0
M  V30 1553 H 159.186 1.8071 1.81046 0
M  V30 1554 H 158.83 3.38881 3.78315 0
M  V30 1555 H 158.76 1.98487 4.87761 0
M  V30 1556 H 161.251 1.79006 3.32814 0
M  V30 1557 H 161.564 4.19932 6.4875 0
M  V30 1558 H 159.909 3.77073 5.83816 0
M  V30 1559 H 163.1 2.29116 4.08195 0
M  V30 1560 H 163.273 3.38961 5.52277 0
M  V30 1561 N 156.679 -1.44442 0.630414 0
M  V30 1562 C 157.589 -2.34476 -0.0761693 0
M  V30 1563 C 158.605 -1.52576 -0.836449 0
M  V30 1564 O 159.781 -1.85307 -0.788874 0
M  V30 1565 C 156.846 -3.30545 -1.04599 0
M  V30 1566 C 155.907 -4.28352 -0.28516 0
M  V30 1567 C 155.14 -5.19831 -1.20878 0
M  V30 1568 O 155.363 -5.15223 -2.44747 0
M  V30 1569 O 154.297 -5.97892 -0.693491 0
M  V30 1570 H 158.123 -2.96345 0.664324 0
M  V30 1571 H 155.708 -1.44203 0.39061 0
M  V30 1572 H 157.59 -3.89681 -1.60396 0
M  V30 1573 H 156.265 -2.7121 -1.76711 0
M  V30 1574 H 155.172 -3.72764 0.315837 0
M  V30 1575 H 156.505 -4.90605 0.395924 0
M  V30 1576 N 158.157 -0.370918 -1.53173 0
M  V30 1577 C 159.387 0.217389 -2.05453 0
M  V30 1578 C 159.795 1.42568 -1.24382 0
M  V30 1579 O 159.138 1.81571 -0.278839 0
M  V30 1580 C 159.2 0.669827 -3.53205 0
M  V30 1581 C 158.864 -0.4225 -4.55043 0
M  V30 1582 C 159.861 -1.27407 -5.04047 0
M  V30 1583 C 157.546 -0.58427 -4.9889 0
M  V30 1584 C 159.54 -2.27271 -5.95505 0
M  V30 1585 C 157.227 -1.58627 -5.90153 0
M  V30 1586 C 158.225 -2.42892 -6.38351 0
M  V30 1587 O 157.913 -3.41382 -7.27814 0
M  V30 1588 H 157.645 0.0408171 -0.674767 0
M  V30 1589 H 160.199 -0.5292 -1.98466 0
M  V30 1590 H 158.429 1.4681 -3.57748 0
M  V30 1591 H 160.118 1.18173 -3.88317 0
M  V30 1592 H 160.884 -1.16031 -4.70916 0
M  V30 1593 H 156.763 0.061851 -4.60959 0
M  V30 1594 H 160.307 -2.93079 -6.33049 0
M  V30 1595 H 156.204 -1.70048 -6.22699 0
M  V30 1596 H 156.972 -3.37173 -7.45826 0
M  V30 1597 N 159.635 1.57281 -0.100228 0
M  V30 1598 C 160.598 2.13158 0.842398 0
M  V30 1599 C 161.598 1.06202 1.20738 0
M  V30 1600 O 162.788 1.32066 1.13597 0
M  V30 1601 C 159.92 2.65639 2.13655 0
M  V30 1602 H 161.113 2.97766 0.357114 0
M  V30 1603 H 158.666 1.5559 0.148823 0
M  V30 1604 H 159.401 1.84566 2.66657 0
M  V30 1605 H 159.186 3.43844 1.88451 0
M  V30 1606 H 160.676 3.08846 2.81077 0
M  V30 1607 N 161.113 -0.173488 1.56642 0
M  V30 1608 C 162.362 -0.888758 1.81063 0
M  V30 1609 C 162.675 -1.83506 0.67712 0
M  V30 1610 O 163.881 -2.59254 0.806206 0
M  V30 1611 C 162.337 -1.63091 3.20826 0
M  V30 1612 C 161.945 -0.728357 4.4204 0
M  V30 1613 C 163.689 -2.33454 3.54541 0
M  V30 1614 C 161.596 -1.47062 5.72823 0
M  V30 1615 H 160.526 -0.335618 0.675186 0
M  V30 1616 H 163.177 -0.141712 1.82952 0
M  V30 1617 H 161.559 -2.42263 3.13248 0
M  V30 1618 H 162.733 0.0262449 4.60793 0
M  V30 1619 H 161.048 -0.134492 4.16183 0
M  V30 1620 H 163.645 -2.89578 4.49498 0
M  V30 1621 H 163.988 -3.08687 2.79317 0
M  V30 1622 H 164.521 -1.61227 3.63663 0
M  V30 1623 H 161.26 -0.760658 6.51072 0
M  V30 1624 H 160.78 -2.1986 5.58052 0
M  V30 1625 H 162.459 -2.01868 6.14702 0
M  V30 1626 N 162.591 -1.51276 -0.441967 0
M  V30 1627 C 163.538 -1.72256 -1.53612 0
M  V30 1628 C 164.508 -0.564164 -1.56225 0
M  V30 1629 O 165.693 -0.798074 -1.73307 0
M  V30 1630 C 162.833 -1.84932 -2.91366 0
M  V30 1631 C 161.946 -3.12459 -2.98317 0
M  V30 1632 C 161.081 -3.15758 -4.27166 0
M  V30 1633 C 160.12 -4.37619 -4.27967 0
M  V30 1634 N 159.257 -4.38493 -5.48333 0
M  V30 1635 H 164.097 -2.65654 -1.35026 0
M  V30 1636 H 161.634 -1.31662 -0.656009 0
M  V30 1637 H 163.592 -1.90263 -3.7129 0
M  V30 1638 H 162.222 -0.949461 -3.08521 0
M  V30 1639 H 161.274 -3.1646 -2.11086 0
M  V30 1640 H 162.586 -4.02382 -2.94771 0
M  V30 1641 H 161.74 -3.19979 -5.15459 0
M  V30 1642 H 160.479 -2.23715 -4.33362 0
M  V30 1643 H 159.484 -4.33579 -3.38067 0
M  V30 1644 H 160.709 -5.30921 -4.23438 0
M  V30 1645 H 158.655 -3.49318 -5.55259 0
M  V30 1646 H 158.572 -5.22219 -5.46647 0
M  V30 1647 H 159.84 -4.469 -6.38671 0
M  V30 1648 N 164.069 0.697108 -1.41344 0
M  V30 1649 C 165.318 1.45279 -1.39918 0
M  V30 1650 C 165.631 1.95597 -0.0109624 0
M  V30 1651 O 166.837 2.71208 0.125919 0
M  V30 1652 C 165.293 2.62695 -2.46007 0
M  V30 1653 C 164.901 2.19169 -3.90729 0
M  V30 1654 C 166.645 3.40336 -2.53715 0
M  V30 1655 C 164.552 3.33535 -4.88373 0
M  V30 1656 H 163.482 0.545692 -0.520323 0
M  V30 1657 H 166.133 0.756929 -1.67161 0
M  V30 1658 H 164.515 3.34541 -2.11892 0
M  V30 1659 H 165.689 1.54623 -4.34083 0
M  V30 1660 H 164.004 1.54525 -3.86666 0
M  V30 1661 H 166.601 4.2547 -3.2385 0
M  V30 1662 H 166.944 3.85418 -1.5735 0
M  V30 1663 H 167.477 2.75546 -2.86913 0
M  V30 1664 H 164.216 2.93468 -5.86137 0
M  V30 1665 H 163.736 3.96936 -4.49668 0
M  V30 1666 H 165.415 3.99335 -5.09059 0
M  V30 1667 N 165.547 1.27147 0.931209 0
M  V30 1668 C 166.477 1.12081 2.04842 0
M  V30 1669 C 167.458 0.0232364 1.70084 0
M  V30 1670 O 168.643 0.197085 1.93197 0
M  V30 1671 C 165.773 0.76354 3.38803 0
M  V30 1672 C 164.727 1.81396 3.87659 0
M  V30 1673 C 164.053 1.31075 5.18385 0
M  V30 1674 C 165.353 3.21739 4.11438 0
M  V30 1675 H 167.047 2.05537 2.17703 0
M  V30 1676 H 164.593 0.989603 1.04608 0
M  V30 1677 H 166.546 0.644982 4.16435 0
M  V30 1678 H 165.27 -0.206727 3.25945 0
M  V30 1679 H 163.929 1.92136 3.12217 0
M  V30 1680 H 163.577 0.330037 5.01916 0
M  V30 1681 H 163.277 2.013 5.52044 0
M  V30 1682 H 164.801 1.20506 5.98591 0
M  V30 1683 H 166.215 3.14019 4.79651 0
M  V30 1684 H 164.612 3.89644 4.56397 0
M  V30 1685 H 165.682 3.67054 3.16859 0
M  V30 1686 N 167.025 -1.13721 1.09112 0
M  V30 1687 C 167.935 -2.22638 0.73957 0
M  V30 1688 C 168.951 -1.72091 -0.257068 0
M  V30 1689 O 170.127 -2.01155 -0.0992154 0
M  V30 1690 C 167.192 -3.46322 0.16191 0
M  V30 1691 C 166.253 -4.11775 1.21408 0
M  V30 1692 C 165.486 -5.29555 0.663891 0
M  V30 1693 O 165.709 -5.68077 -0.514274 0
M  V30 1694 O 164.643 -5.84973 1.41738 0
M  V30 1695 H 168.469 -2.55074 1.64836 0
M  V30 1696 H 166.054 -1.21791 0.865289 0
M  V30 1697 H 167.936 -4.21107 -0.157073 0
M  V30 1698 H 166.611 -3.15593 -0.719932 0
M  V30 1699 H 165.518 -3.3883 1.58571 0
M  V30 1700 H 166.851 -4.46627 2.06845 0
M  V30 1701 N 168.503 -0.877838 -1.30888 0
M  V30 1702 C 169.45 -0.337538 -2.28318 0
M  V30 1703 C 170.42 0.568346 -1.56074 0
M  V30 1704 O 171.605 0.498298 -1.84178 0
M  V30 1705 C 168.745 0.448142 -3.42178 0
M  V30 1706 C 167.858 -0.48615 -4.29256 0
M  V30 1707 C 166.993 0.314427 -5.30269 0
M  V30 1708 C 166.032 -0.615791 -6.08995 0
M  V30 1709 N 165.169 0.14902 -7.01942 0
M  V30 1710 H 170.009 -1.17356 -2.73919 0
M  V30 1711 H 167.546 -0.590094 -1.34745 0
M  V30 1712 H 169.504 0.919517 -4.06941 0
M  V30 1713 H 168.134 1.24879 -2.97666 0
M  V30 1714 H 167.186 -1.076 -3.64865 0
M  V30 1715 H 168.498 -1.19909 -4.84173 0
M  V30 1716 H 167.652 0.847969 -6.00745 0
M  V30 1717 H 166.391 1.06062 -4.76027 0
M  V30 1718 H 165.396 -1.16102 -5.37401 0
M  V30 1719 H 166.621 -1.36097 -6.65323 0
M  V30 1720 H 164.567 0.877884 -6.50099 0
M  V30 1721 H 164.484 -0.504433 -7.54315 0
M  V30 1722 H 165.752 0.663537 -7.76671 0
M  V30 1723 N 169.982 1.44106 -0.638065 0
M  V30 1724 C 171.398 1.56672 -0.304286 0
M  V30 1725 C 171.598 1.6244 1.19228 0
M  V30 1726 O 170.654 1.57121 1.9766 0
M  V30 1727 C 171.967 2.83503 -1.00231 0
M  V30 1728 C 173.515 2.97226 -0.981116 0
M  V30 1729 C 173.99 4.26868 -1.65974 0
M  V30 1730 N 175.481 4.33698 -1.62666 0
M  V30 1731 C 176.216 5.32745 -2.12063 0
M  V30 1732 N 175.712 6.38157 -2.6968 0
M  V30 1733 N 177.505 5.24299 -2.02651 0
M  V30 1734 H 169.656 1.38605 -1.60942 0
M  V30 1735 H 171.919 0.664661 -0.675965 0
M  V30 1736 H 171.625 2.85251 -2.0573 0
M  V30 1737 H 171.499 3.73251 -0.54439 0
M  V30 1738 H 173.886 2.95027 0.0654188 0
M  V30 1739 H 173.967 2.08808 -1.47759 0
M  V30 1740 H 173.611 4.29826 -2.70576 0
M  V30 1741 H 173.541 5.14156 -1.13804 0
M  V30 1742 H 176.032 3.58138 -1.20606 0
M  V30 1743 H 176.345 7.10029 -3.05087 0
M  V30 1744 H 174.69 6.38823 -2.73734 0
M  V30 1745 H 177.881 4.4086 -1.57353 0
M  V30 1746 H 178.054 6.01334 -2.41457 0
M  V30 1747 N 171.46 0.379036 1.52974 0
M  V30 1748 C 172.41 -0.477772 2.22938 0
M  V30 1749 C 173.394 -1.03792 1.22948 0
M  V30 1750 O 174.586 -0.965725 1.48333 0
M  V30 1751 C 171.715 -1.60994 3.03209 0
M  V30 1752 C 170.801 -1.06203 4.10587 0
M  V30 1753 N 171.192 -0.238214 5.05239 0
M  V30 1754 C 169.49 -1.33554 4.25534 0
M  V30 1755 C 170.191 0.0633235 5.81666 0
M  V30 1756 N 169.167 -0.537901 5.40932 0
M  V30 1757 H 172.969 0.158295 2.93473 0
M  V30 1758 H 170.483 0.187778 1.61311 0
M  V30 1759 H 172.48 -2.23607 3.5186 0
M  V30 1760 H 171.14 -2.24893 2.34207 0
M  V30 1761 H 172.151 0.123695 5.17752 0
M  V30 1762 H 168.828 -1.97632 3.6776 0
M  V30 1763 H 170.218 0.730161 6.67921 0
M  V30 1764 N 172.938 -1.57226 0.108567 0
M  V30 1765 C 174.187 -1.94008 -0.551703 0
M  V30 1766 C 174.5 -0.993442 -1.68494 0
M  V30 1767 O 175.706 -1.25551 -2.40726 0
M  V30 1768 C 174.162 -3.44763 -1.03279 0
M  V30 1769 C 173.77 -4.47943 0.0714193 0
M  V30 1770 C 175.514 -3.90483 -1.66503 0
M  V30 1771 C 173.421 -5.89865 -0.425779 0
M  V30 1772 H 172.351 -0.724206 -0.209863 0
M  V30 1773 H 175.002 -1.82547 0.186741 0
M  V30 1774 H 173.384 -3.51422 -1.82533 0
M  V30 1775 H 174.558 -4.52942 0.847365 0
M  V30 1776 H 172.873 -4.11913 0.609669 0
M  V30 1777 H 175.47 -4.93925 -2.04798 0
M  V30 1778 H 175.813 -3.29877 -2.53942 0
M  V30 1779 H 176.346 -3.86581 -0.938074 0
M  V30 1780 H 173.085 -6.54202 0.412316 0
M  V30 1781 H 172.605 -5.88309 -1.16843 0
M  V30 1782 H 174.284 -6.40844 -0.890397 0
M  V30 1783 N 174.416 0.165178 -1.56732 0
M  V30 1784 C 175.665 0.879143 -1.81532 0
M  V30 1785 C 175.978 1.83144 -0.686842 0
M  V30 1786 O 177.184 2.58823 -0.819944 0
M  V30 1787 C 175.64 1.61388 -3.21686 0
M  V30 1788 C 175.248 0.704904 -4.4242 0
M  V30 1789 C 176.992 2.3157 -3.55774 0
M  V30 1790 C 174.899 1.44022 -5.73595 0
M  V30 1791 H 173.829 0.332033 -0.676957 0
M  V30 1792 H 176.48 0.132008 -1.83025 0
M  V30 1793 H 174.862 2.40599 -3.14529 0
M  V30 1794 H 176.036 -0.0506815 -4.60772 0
M  V30 1795 H 174.351 0.112419 -4.16248 0
M  V30 1796 H 176.948 2.8719 -4.51028 0
M  V30 1797 H 177.291 3.07201 -2.8095 0
M  V30 1798 H 177.824 1.59297 -3.64513 0
M  V30 1799 H 174.563 0.72612 -6.51466 0
M  V30 1800 H 174.083 2.16898 -5.5921 0
M  V30 1801 H 175.762 1.98606 -6.15764 0
M  V30 1802 N 175.894 1.51508 0.433938 0
M  V30 1803 C 176.841 1.73068 1.52696 0
M  V30 1804 C 177.811 0.572441 1.55924 0
M  V30 1805 O 178.996 0.807253 1.72882 0
M  V30 1806 C 176.136 1.86474 2.90381 0
M  V30 1807 C 175.249 3.14037 2.96656 0
M  V30 1808 C 174.384 3.18019 4.25485 0
M  V30 1809 C 173.423 4.39882 4.2564 0
M  V30 1810 N 172.56 4.41394 5.45999 0
M  V30 1811 H 177.4 2.66366 1.33615 0
M  V30 1812 H 174.937 1.32008 0.649018 0
M  V30 1813 H 176.895 1.92229 3.70275 0
M  V30 1814 H 175.525 0.965809 3.08013 0
M  V30 1815 H 174.577 3.17575 2.09404 0
M  V30 1816 H 175.889 4.0394 2.92633 0
M  V30 1817 H 175.043 3.22708 5.13755 0
M  V30 1818 H 173.782 2.2601 4.3217 0
M  V30 1819 H 172.787 4.35366 3.35763 0
M  V30 1820 H 174.012 5.33159 4.20617 0
M  V30 1821 H 171.958 3.52258 5.53399 0
M  V30 1822 H 171.875 5.25111 5.4387 0
M  V30 1823 H 173.143 4.50281 6.36292 0
M  V30 1824 N 177.372 -0.689602 1.41712 0
M  V30 1825 C 178.282 -1.83314 1.46401 0
M  V30 1826 C 179.298 -1.7036 0.35405 0
M  V30 1827 O 180.474 -1.92171 0.602692 0
M  V30 1828 C 177.539 -3.19344 1.34982 0
M  V30 1829 C 176.6 -3.44363 2.56344 0
M  V30 1830 C 175.833 -4.73904 2.45461 0
M  V30 1831 O 176.056 -5.508 1.48241 0
M  V30 1832 O 174.99 -4.99839 3.35328 0
M  V30 1833 H 178.816 -1.82314 2.42889 0
M  V30 1834 H 176.401 -0.843438 1.23315 0
M  V30 1835 H 178.283 -4.00547 1.3092 0
M  V30 1836 H 176.958 -3.21014 0.41612 0
M  V30 1837 H 175.865 -2.63067 2.65982 0
M  V30 1838 H 177.198 -3.47512 3.48563 0
M  V30 1839 N 178.85 -1.27639 -0.924453 0
M  V30 1840 C 179.798 -1.10485 -2.04685 0
M  V30 1841 C 180.792 -0.0270421 -1.69378 0
M  V30 1842 O 181.998 -0.185008 -1.79047 0
M  V30 1843 H 178.373 -0.340546 -0.670472 0
M  V30 1844 H 180.344 -2.05566 -2.16298 0
M  V30 1845 C 179.093 -0.772229 -3.39016 0
M  V30 1846 H 178.416 -1.59351 -3.66671 0
M  V30 1847 H 179.856 -0.692097 -4.18313 0
M  V30 1848 C 178.315 0.523554 -3.32807 0
M  V30 1849 O 178.845 1.55702 -3.70297 0
M  V30 1850 N 177.051 0.520363 -2.85903 0
M  V30 1851 H 176.598 -0.32107 -2.55591 0
M  V30 1852 H 176.556 1.38742 -2.82131 0
M  V30 1853 N 180.328 1.1314 -1.09713 0
M  V30 1854 C 181.275 2.18642 -0.739196 0
M  V30 1855 C 182.245 1.63706 0.280978 0
M  V30 1856 O 183.43 1.90111 0.161946 0
M  V30 1857 C 180.57 3.44685 -0.169102 0
M  V30 1858 C 179.683 4.13711 -1.24367 0
M  V30 1859 C 178.818 5.27379 -0.636019 0
M  V30 1860 C 177.857 5.88259 -1.69169 0
M  V30 1861 N 176.994 6.93352 -1.10485 0
M  V30 1862 H 181.834 2.48607 -1.64312 0
M  V30 1863 H 179.371 1.22066 -0.820875 0
M  V30 1864 H 181.329 4.16815 0.179256 0
M  V30 1865 H 179.959 3.15161 0.698079 0
M  V30 1866 H 179.011 3.39835 -1.70927 0
M  V30 1867 H 180.323 4.55037 -2.04311 0
M  V30 1868 H 179.477 6.06238 -0.236677 0
M  V30 1869 H 178.216 4.8731 0.194928 0
M  V30 1870 H 177.221 5.08092 -2.10055 0
M  V30 1871 H 178.446 6.30399 -2.52536 0
M  V30 1872 H 176.392 6.55335 -0.295234 0
M  V30 1873 H 176.309 7.33236 -1.84121 0
M  V30 1874 H 177.577 7.76057 -0.73181 0
M  V30 1875 N 181.806 0.884767 1.30421 0
M  V30 1876 C 183.052 0.503851 1.96441 0
M  V30 1877 C 183.385 -0.944518 1.69684 0
M  V30 1878 O 182.66 -1.66737 1.00145 0
M  V30 1879 C 182.943 0.779085 3.51571 0
M  V30 1880 C 182.796 2.27807 3.87846 0
M  V30 1881 C 184.115 0.255452 4.39358 0
M  V30 1882 H 181.234 0.184533 0.713524 0
M  V30 1883 H 183.876 1.10872 1.54297 0
M  V30 1884 H 182.026 0.264274 3.876 0
M  V30 1885 H 183.698 2.86127 3.61841 0
M  V30 1886 H 181.941 2.74479 3.35922 0
M  V30 1887 H 182.612 2.42125 4.96064 0
M  V30 1888 H 185.088 0.696079 4.10236 0
M  V30 1889 H 183.964 0.477361 5.4682 0
M  V30 1890 H 184.225 -0.843293 4.33983 0
M  V30 1891 N 183.284 -1.43765 0.645699 0
M  V30 1892 C 184.695 -1.85193 0.236719 0
M  V30 1893 C 185.046 -1.54045 -1.21509 0
M  V30 1894 O 184.171 -0.985694 -1.92647 0
M  V30 1895 C 184.766 -3.36151 0.422845 0
M  V30 1896 C 183.325 -3.76338 0.0682492 0
M  V30 1897 C 182.472 -2.67538 0.729306 0
M  V30 1898 H 185.423 -1.34025 0.849883 0
M  V30 1899 H 185.444 -3.79032 -0.333904 0
M  V30 1900 H 184.956 -3.5879 1.47958 0
M  V30 1901 H 183.057 -3.59312 -0.986179 0
M  V30 1902 H 183.17 -4.76603 0.488469 0
M  V30 1903 H 181.534 -2.54176 0.163235 0
M  V30 1904 H 182.317 -2.93006 1.78892 0
M  V30 1905 N 184.763 -0.387143 -1.52771 0
M  V30 1906 C 185.993 0.195585 -2.05672 0
M  V30 1907 C 186.401 1.41241 -1.25887 0
M  V30 1908 O 185.744 1.81265 -0.298081 0
M  V30 1909 C 185.806 0.632327 -3.53895 0
M  V30 1910 C 185.47 -0.470739 -4.54569 0
M  V30 1911 C 186.467 -1.32746 -5.02667 0
M  V30 1912 C 184.152 -0.637151 -4.98243 0
M  V30 1913 C 186.146 -2.33574 -5.93061 0
M  V30 1914 C 183.833 -1.64877 -5.88438 0
M  V30 1915 C 184.831 -2.49649 -6.35739 0
M  V30 1916 O 184.519 -3.49082 -7.24153 0
M  V30 1917 H 184.251 0.033658 -0.675162 0
M  V30 1918 H 186.805 -0.550221 -1.97893 0
M  V30 1919 H 185.035 1.43008 -3.59285 0
M  V30 1920 H 186.724 1.14048 -3.89548 0
M  V30 1921 H 187.49 -1.21019 -4.69659 0
M  V30 1922 H 183.369 0.0129567 -4.60998 0
M  V30 1923 H 186.913 -2.99777 -6.29904 0
M  V30 1924 H 182.81 -1.76643 -6.2086 0
M  V30 1925 H 183.578 -3.45065 -7.42208 0
M  V30 1926 N 186.241 1.57166 -0.116904 0
M  V30 1927 C 187.487 1.95412 0.542405 0
M  V30 1928 C 187.82 1.00019 1.66463 0
M  V30 1929 O 187.095 0.0370346 1.94465 0
M  V30 1930 C 187.378 3.43615 1.07708 0
M  V30 1931 C 187.231 4.49781 -0.0415868 0
M  V30 1932 C 188.55 3.93616 1.96861 0
M  V30 1933 H 185.669 0.710543 0.195696 0
M  V30 1934 H 188.311 1.89027 -0.192038 0
M  V30 1935 H 186.461 3.49187 1.70296 0
M  V30 1936 H 188.133 4.56308 -0.676793 0
M  V30 1937 H 186.376 4.28033 -0.705019 0
M  V30 1938 H 187.047 5.50733 0.373717 0
M  V30 1939 H 189.523 3.90335 1.44146 0
M  V30 1940 H 188.399 4.97838 2.3119 0
M  V30 1941 H 188.66 3.34188 2.89432 0
M  V30 1942 N 187.719 -0.156864 1.56817 0
M  V30 1943 C 188.947 -0.886316 1.86955 0
M  V30 1944 C 189.362 -1.75185 0.703975 0
M  V30 1945 O 188.719 -1.79555 -0.326552 0
M  V30 1946 C 188.77 -1.75117 3.16253 0
M  V30 1947 O 188.491 -0.920537 4.2832 0
M  V30 1948 C 189.992 -2.58905 3.59837 0
M  V30 1949 H 187.212 -0.25678 0.619923 0
M  V30 1950 H 189.756 -0.152615 2.0393 0
M  V30 1951 H 187.911 -2.43805 3.01062 0
M  V30 1952 H 188.325 -1.51337 5.02192 0
M  V30 1953 H 189.799 -3.1518 4.53172 0
M  V30 1954 H 190.276 -3.34472 2.84649 0
M  V30 1955 H 190.882 -1.95526 3.7769 0
M  V30 1956 N 189.197 -1.51736 -0.425897 0
M  V30 1957 C 190.613 -1.40166 -0.76326 0
M  V30 1958 C 190.813 -0.492962 -1.95377 0
M  V30 1959 O 189.869 0.0475815 -2.52455 0
M  V30 1960 C 191.182 -2.82403 -1.03291 0
M  V30 1961 C 192.73 -2.91632 -1.13665 0
M  V30 1962 C 193.205 -4.34801 -1.43916 0
M  V30 1963 N 194.696 -4.3796 -1.50816 0
M  V30 1964 C 195.431 -5.4578 -1.75817 0
M  V30 1965 N 194.927 -6.63744 -1.98534 0
M  V30 1966 N 196.72 -5.33274 -1.77694 0
M  V30 1967 H 188.871 -2.09361 0.358 0
M  V30 1968 H 191.134 -0.942941 0.0978094 0
M  V30 1969 H 190.84 -3.50943 -0.230696 0
M  V30 1970 H 190.714 -3.22428 -1.95754 0
M  V30 1971 H 193.101 -2.23284 -1.92947 0
M  V30 1972 H 193.182 -2.55088 -0.190756 0
M  V30 1973 H 192.826 -5.03703 -0.65157 0
M  V30 1974 H 192.756 -4.68868 -2.39729 0
M  V30 1975 H 195.247 -3.52919 -1.35118 0
M  V30 1976 H 195.56 -7.41704 -2.17013 0
M  V30 1977 H 193.905 -6.66839 -1.95832 0
M  V30 1978 H 197.096 -4.40098 -1.59473 0
M  V30 1979 H 197.269 -6.1738 -1.9684 0
M  V30 1980 N 190.675 0.682077 -1.42076 0
M  V30 1981 C 191.585 1.82535 -1.47371 0
M  V30 1982 C 192.601 1.7017 -0.363079 0
M  V30 1983 O 193.777 1.91848 -0.612875 0
M  V30 1984 C 190.842 3.18624 -1.36674 0
M  V30 1985 C 189.903 3.42999 -2.58167 0
M  V30 1986 C 189.136 4.72595 -2.4797 0
M  V30 1987 O 189.359 5.50006 -1.5116 0
M  V30 1988 O 188.293 4.98054 -3.37974 0
M  V30 1989 H 192.119 1.81023 -2.43853 0
M  V30 1990 H 189.704 0.836887 -1.2376 0
M  V30 1991 H 191.586 3.99847 -1.33043 0
M  V30 1992 H 190.261 3.20789 -0.433138 0
M  V30 1993 H 189.168 2.61653 -2.67373 0
M  V30 1994 H 190.501 3.45659 -3.50401 0
M  V30 1995 N 192.153 1.28127 0.917671 0
M  V30 1996 C 193.569 1.05749 1.19538 0
M  V30 1997 C 193.769 -0.202633 2.00479 0
M  V30 1998 O 192.825 -0.905382 2.3571 0
M  V30 1999 C 194.138 2.30273 1.93378 0
M  V30 2000 C 195.686 2.35412 2.06277 0
M  V30 2001 C 196.161 3.59692 2.83524 0
M  V30 2002 N 197.652 3.60309 2.91087 0
M  V30 2003 C 198.387 4.53147 3.51348 0
M  V30 2004 N 197.883 5.563 4.12919 0
M  V30 2005 N 199.676 4.40751 3.48849 0
M  V30 2006 H 191.827 2.09024 0.377184 0
M  V30 2007 H 194.09 0.919798 0.22951 0
M  V30 2008 H 193.796 3.22055 1.41328 0
M  V30 2009 H 193.67 2.36378 2.93947 0
M  V30 2010 H 196.057 1.4413 2.57508 0
M  V30 2011 H 196.138 2.33304 1.04895 0
M  V30 2012 H 195.782 4.51316 2.32973 0
M  V30 2013 H 195.712 3.59054 3.85211 0
M  V30 2014 H 198.203 2.85714 2.47338 0
M  V30 2015 H 198.516 6.2329 4.56869 0
M  V30 2016 H 196.861 5.60131 4.11435 0
M  V30 2017 H 200.052 3.59367 2.99955 0
M  V30 2018 H 200.225 5.13291 3.9552 0
M  V30 2019 N 193.631 -1.12557 1.10312 0
M  V30 2020 C 194.908 -1.80363 0.756878 0
M  V30 2021 C 195.288 -1.97067 -0.756824 0
M  V30 2022 O 194.636 -1.54601 -1.68259 0
M  V30 2023 C 194.846 -3.14812 1.50647 0
M  V30 2024 C 196.194 -3.90029 1.67817 0
M  V30 2025 O 197.218 -3.24464 1.46974 0
M  V30 2026 O 196.077 -5.07652 2.02365 0
M  V30 2027 H 193.171 -0.780667 0.272926 0
M  V30 2028 H 195.717 -1.19404 1.20586 0
M  V30 2029 H 194.489 -2.97936 2.53672 0
M  V30 2030 H 194.112 -3.83478 1.05026 0
M  V30 2031 N 195.109 -0.891671 -1.2995 0
M  V30 2032 C 196.355 -0.514261 -1.96171 0
M  V30 2033 C 196.688 0.935506 -1.70182 0
M  V30 2034 O 195.963 1.66204 -1.01028 0
M  V30 2035 C 196.246 -0.797719 -3.51153 0
M  V30 2036 C 196.099 -2.2986 -3.86632 0
M  V30 2037 C 197.418 -0.278749 -4.39216 0
M  V30 2038 H 194.537 -0.188314 -0.712535 0
M  V30 2039 H 197.179 -1.11689 -1.53706 0
M  V30 2040 H 195.329 -0.284826 -3.87455 0
M  V30 2041 H 197.001 -2.88042 -3.60319 0
M  V30 2042 H 195.244 -2.76257 -3.34462 0
M  V30 2043 H 195.915 -2.44753 -4.94773 0
M  V30 2044 H 198.391 -0.717825 -4.09862 0
M  V30 2045 H 197.267 -0.506353 -5.46559 0
M  V30 2046 H 197.528 0.820266 -4.34424 0
M  V30 2047 N 196.587 1.43421 -0.653314 0
M  V30 2048 C 197.52 2.2803 0.0879804 0
M  V30 2049 C 198.498 1.39833 0.82979 0
M  V30 2050 O 199.682 1.69275 0.829341 0
M  V30 2051 C 196.809 3.19247 1.13132 0
M  V30 2052 C 195.855 4.23704 0.487546 0
M  V30 2053 S 196.688 5.30377 -0.738961 0
M  V30 2054 C 197.844 6.25162 0.30384 0
M  V30 2055 H 198.077 2.90554 -0.629739 0
M  V30 2056 H 195.61 1.47934 -0.442156 0
M  V30 2057 H 197.568 3.72346 1.72827 0
M  V30 2058 H 196.229 2.55901 1.82136 0
M  V30 2059 H 195.422 4.87631 1.27407 0
M  V30 2060 H 195.024 3.73983 -0.0352915 0
M  V30 2061 H 197.316 6.67321 1.17 0
M  V30 2062 H 198.259 7.07463 -0.300402 0
M  V30 2063 H 198.667 5.60864 0.63969 0
M  V30 2064 N 198.065 0.39524 1.52563 0
M  V30 2065 C 199.29 -0.187456 2.06551 0
M  V30 2066 C 199.715 -1.39249 1.26457 0
M  V30 2067 O 199.073 -1.78947 0.291151 0
M  V30 2068 C 199.121 -0.529985 3.56684 0
M  V30 2069 O 198.225 -1.62307 3.79118 0
M  V30 2070 H 197.566 -0.0202537 0.663691 0
M  V30 2071 H 200.096 0.564426 1.96661 0
M  V30 2072 H 200.106 -0.792598 4.00227 0
M  V30 2073 H 198.781 0.350987 4.14416 0
M  V30 2074 H 197.358 -1.3537 3.47461 0
M  V30 2075 N 199.544 -1.57102 0.125237 0
M  V30 2076 C 200.96 -1.57915 -0.231322 0
M  V30 2077 C 201.16 -1.13833 -1.66266 0
M  V30 2078 O 200.216 -0.828581 -2.38518 0
M  V30 2079 C 201.529 -3.00699 0.00766489 0
M  V30 2080 C 203.077 -3.12947 -0.0577483 0
M  V30 2081 C 203.552 -4.57742 0.153626 0
M  V30 2082 N 205.043 -4.63092 0.0998073 0
M  V30 2083 C 205.778 -5.72905 0.238174 0
M  V30 2084 N 205.274 -6.91445 0.433057 0
M  V30 2085 N 207.067 -5.6182 0.177308 0
M  V30 2086 H 199.218 -1.84055 1.06007 0
M  V30 2087 H 201.481 -0.850905 0.417929 0
M  V30 2088 H 201.187 -3.3726 0.997431 0
M  V30 2089 H 201.061 -3.70236 -0.721452 0
M  V30 2090 H 203.448 -2.7624 -1.03804 0
M  V30 2091 H 203.529 -2.4594 0.70335 0
M  V30 2092 H 203.173 -4.95149 1.13092 0
M  V30 2093 H 203.103 -5.22848 -0.627534 0
M  V30 2094 H 205.594 -3.77871 -0.047051 0
M  V30 2095 H 205.907 -7.70985 0.529332 0
M  V30 2096 H 204.252 -6.93415 0.469109 0
M  V30 2097 H 207.443 -4.68093 0.0259748 0
M  V30 2098 H 207.616 -6.47357 0.288582 0
M  V30 2099 N 201.022 0.148545 -1.56898 0
M  V30 2100 C 201.952 1.18524 -2.01182 0
M  V30 2101 C 202.933 1.4489 -0.891123 0
M  V30 2102 O 204.118 1.55836 -1.15882 0
M  V30 2103 C 201.248 2.51879 -2.39112 0
M  V30 2104 C 200.202 2.40038 -3.54353 0
M  V30 2105 C 199.528 3.78089 -3.78091 0
M  V30 2106 C 200.828 1.88577 -4.87069 0
M  V30 2107 H 202.522 0.817029 -2.88036 0
M  V30 2108 H 200.068 0.391575 -1.38574 0
M  V30 2109 H 202.021 3.24627 -2.68692 0
M  V30 2110 H 200.745 2.90532 -1.49193 0
M  V30 2111 H 199.404 1.69742 -3.24936 0
M  V30 2112 H 199.052 4.14175 -2.85426 0
M  V30 2113 H 198.752 3.71028 -4.55645 0
M  V30 2114 H 200.276 4.52387 -4.10095 0
M  V30 2115 H 201.69 2.51117 -5.15377 0
M  V30 2116 H 200.087 1.9241 -5.68417 0
M  V30 2117 H 201.157 0.84136 -4.77545 0
M  V30 2118 N 202.5 1.5196 0.417844 0
M  V30 2119 C 203.777 1.56146 1.17803 0
M  V30 2120 C 204.157 0.337275 2.08388 0
M  V30 2121 O 203.505 -0.676447 2.18258 0
M  V30 2122 C 203.715 2.88566 1.96293 0
M  V30 2123 C 205.063 3.41244 2.52662 0
M  V30 2124 O 206.087 2.90247 2.06483 0
M  V30 2125 O 204.946 4.30273 3.36938 0
M  V30 2126 H 202.04 0.628598 0.537395 0
M  V30 2127 H 204.586 1.64283 0.425331 0
M  V30 2128 H 203.358 3.69116 1.2988 0
M  V30 2129 H 202.981 2.83681 2.78587 0
M  V30 2130 N 203.978 -0.674533 1.42435 0
M  V30 2131 C 204.928 -1.7807 1.4239 0
M  V30 2132 C 205.912 -1.58169 0.295202 0
M  V30 2133 O 207.104 -1.68643 0.537449 0
M  V30 2134 C 204.233 -3.16532 1.32901 0
M  V30 2135 C 203.319 -3.42055 2.50717 0
M  V30 2136 N 203.71 -3.38162 3.76139 0
M  V30 2137 C 202.008 -3.72692 2.44983 0
M  V30 2138 C 202.709 -3.63177 4.54398 0
M  V30 2139 N 201.685 -3.83954 3.84812 0
M  V30 2140 H 205.487 -1.73454 2.37257 0
M  V30 2141 H 203.001 -0.875381 1.36788 0
M  V30 2142 H 204.998 -3.958 1.30951 0
M  V30 2143 H 203.658 -3.22345 0.390363 0
M  V30 2144 H 204.669 -3.18057 4.0873 0
M  V30 2145 H 201.346 -3.85749 1.59699 0
M  V30 2146 H 202.736 -3.66125 5.63384 0
M  V30 2147 N 205.456 -1.28612 -0.910864 0
M  V30 2148 C 206.867 -1.14406 -1.47541 0
M  V30 2149 C 207.218 0.264901 -1.94403 0
M  V30 2150 O 206.343 1.15942 -1.82719 0
M  V30 2151 C 206.938 -2.07073 -2.68153 0
M  V30 2152 C 205.497 -1.96923 -3.20778 0
M  V30 2153 C 204.644 -1.98646 -1.93481 0
M  V30 2154 H 207.595 -1.41259 -0.723291 0
M  V30 2155 H 207.616 -1.63642 -3.43514 0
M  V30 2156 H 207.128 -3.09611 -2.34015 0
M  V30 2157 H 205.229 -0.97433 -3.59635 0
M  V30 2158 H 205.342 -2.84026 -3.85832 0
M  V30 2159 H 203.706 -1.43093 -2.10705 0
M  V30 2160 H 204.489 -3.02868 -1.61634 0
M  V30 2161 N 206.934 1.1197 -1.10907 0
M  V30 2162 C 208.181 1.83588 -0.854507 0
M  V30 2163 C 208.509 1.84357 0.6199 0
M  V30 2164 O 207.764 1.28809 1.47332 0
M  V30 2165 C 208.063 3.30749 -1.35425 0
M  V30 2166 C 207.729 3.50146 -2.84093 0
M  V30 2167 C 206.391 3.55148 -3.2469 0
M  V30 2168 C 208.743 3.56857 -3.79872 0
M  V30 2169 C 206.071 3.6441 -4.59806 0
M  V30 2170 C 208.423 3.6765 -5.14797 0
M  V30 2171 C 207.087 3.7091 -5.54961 0
M  V30 2172 H 206.357 0.671795 -0.312686 0
M  V30 2173 H 209.004 1.32091 -1.38652 0
M  V30 2174 H 207.309 3.84703 -0.742361 0
M  V30 2175 H 209.006 3.8464 -1.1337 0
M  V30 2176 H 205.596 3.46919 -2.51685 0
M  V30 2177 H 209.78 3.52258 -3.49611 0
M  V30 2178 H 205.036 3.65208 -4.9034 0
M  V30 2179 H 209.21 3.71786 -5.88853 0
M  V30 2180 H 206.837 3.7784 -6.59652 0
M  V30 2181 N 208.412 0.89855 1.29475 0
M  V30 2182 C 209.659 0.523882 1.95606 0
M  V30 2183 C 209.987 -0.929608 1.70847 0
M  V30 2184 O 209.242 -1.67401 1.01367 0
M  V30 2185 C 209.541 0.761398 3.49195 0
M  V30 2186 C 209.207 2.19207 3.94029 0
M  V30 2187 C 207.869 2.58326 4.05982 0
M  V30 2188 C 210.221 3.12379 4.17216 0
M  V30 2189 C 207.549 3.898 4.38489 0
M  V30 2190 C 209.901 4.43401 4.51197 0
M  V30 2191 C 208.565 4.82394 4.61359 0
M  V30 2192 H 207.835 0.191702 0.715773 0
M  V30 2193 H 210.482 1.13699 1.54094 0
M  V30 2194 H 208.787 0.0653622 3.91745 0
M  V30 2195 H 210.484 0.450904 3.98457 0
M  V30 2196 H 207.074 1.87846 3.85242 0
M  V30 2197 H 211.258 2.83371 4.07449 0
M  V30 2198 H 206.514 4.19734 4.44559 0
M  V30 2199 H 210.688 5.15623 4.68087 0
M  V30 2200 H 208.315 5.84306 4.86303 0
M  V30 2201 N 209.89 -1.43072 0.660911 0
M  V30 2202 C 211.136 -2.0202 0.177708 0
M  V30 2203 C 211.469 -1.52066 -1.20787 0
M  V30 2204 O 210.744 -0.716987 -1.80802 0
M  V30 2205 C 211.027 -3.59561 0.197019 0
M  V30 2206 C 210.88 -4.19727 1.61706 0
M  V30 2207 C 212.199 -4.37664 -0.462396 0
M  V30 2208 H 209.318 -0.734034 0.0660494 0
M  V30 2209 H 211.96 -1.70272 0.843058 0
M  V30 2210 H 210.11 -3.86739 -0.369527 0
M  V30 2211 H 211.782 -4.03553 2.23479 0
M  V30 2212 H 210.025 -3.76084 2.16201 0
M  V30 2213 H 210.696 -5.28834 1.58237 0
M  V30 2214 H 213.172 -4.16095 0.0197215 0
M  V30 2215 H 212.048 -5.47305 -0.418188 0
M  V30 2216 H 212.309 -4.14493 -1.53778 0
M  V30 2217 N 211.368 -0.403325 -1.52352 0
M  V30 2218 C 212.315 0.425011 -2.26853 0
M  V30 2219 C 213.285 1.04598 -1.29029 0
M  V30 2220 O 214.47 1.07135 -1.57882 0
M  V30 2221 C 211.61 1.53888 -3.08889 0
M  V30 2222 C 210.723 0.939396 -4.21663 0
M  V30 2223 C 209.858 2.02547 -4.91068 0
M  V30 2224 C 208.897 1.40263 -5.95813 0
M  V30 2225 N 208.034 2.4286 -6.58759 0
M  V30 2226 H 212.874 -0.21674 -2.97211 0
M  V30 2227 H 210.411 -0.118722 -1.4662 0
M  V30 2228 H 212.369 2.19558 -3.54753 0
M  V30 2229 H 210.999 2.15074 -2.40714 0
M  V30 2230 H 210.051 0.171898 -3.80011 0
M  V30 2231 H 211.363 0.44436 -4.96817 0
M  V30 2232 H 210.517 2.75958 -5.40308 0
M  V30 2233 H 209.256 2.55415 -4.15469 0
M  V30 2234 H 208.261 0.653833 -5.45898 0
M  V30 2235 H 209.486 0.881719 -6.73352 0
M  V30 2236 H 207.432 2.94871 -5.85992 0
M  V30 2237 H 207.349 1.98152 -7.2957 0
M  V30 2238 H 208.617 3.15858 -7.12639 0
M  V30 2239 N 212.846 1.57033 -0.133567 0
M  V30 2240 C 213.776 2.1909 0.807567 0
M  V30 2241 C 214.757 1.13517 1.26681 0
M  V30 2242 O 215.942 1.41809 1.32679 0
M  V30 2243 C 213.072 2.80188 2.05212 0
M  V30 2244 C 212.026 3.91471 1.73015 0
M  V30 2245 C 211.352 4.39443 3.04622 0
M  V30 2246 C 212.652 5.12886 0.987168 0
M  V30 2247 H 214.346 2.97988 0.290403 0
M  V30 2248 H 211.892 1.43335 0.138239 0
M  V30 2249 H 213.845 3.22264 2.71521 0
M  V30 2250 H 212.569 1.98601 2.59278 0
M  V30 2251 H 211.228 3.49993 1.0909 0
M  V30 2252 H 210.876 3.54695 3.56651 0
M  V30 2253 H 210.576 5.14495 2.83847 0
M  V30 2254 H 212.1 4.8418 3.72024 0
M  V30 2255 H 213.514 5.51891 1.55208 0
M  V30 2256 H 211.911 5.93615 0.87985 0
M  V30 2257 H 212.981 4.84894 -0.0235286 0
M  V30 2258 N 214.325 -0.140222 1.56975 0
M  V30 2259 C 215.555 -0.865181 1.87612 0
M  V30 2260 C 215.963 -1.74942 0.72055 0
M  V30 2261 O 215.306 -1.80917 -0.318561 0
M  V30 2262 C 215.368 -1.76782 3.13031 0
M  V30 2263 C 215.032 -1.06005 4.44536 0
M  V30 2264 C 216.029 -0.410768 5.18275 0
M  V30 2265 C 213.714 -1.04754 4.91255 0
M  V30 2266 C 215.708 0.241572 6.36942 0
M  V30 2267 C 213.395 -0.391394 6.09845 0
M  V30 2268 C 214.393 0.252029 6.82535 0
M  V30 2269 O 214.081 0.897757 7.98871 0
M  V30 2270 H 213.813 -0.255188 0.625983 0
M  V30 2271 H 216.367 -0.135653 2.04952 0
M  V30 2272 H 214.597 -2.53846 2.91718 0
M  V30 2273 H 216.286 -2.36533 3.29859 0
M  V30 2274 H 217.052 -0.412195 4.83245 0
M  V30 2275 H 212.931 -1.53777 4.34596 0
M  V30 2276 H 216.475 0.744375 6.93617 0
M  V30 2277 H 212.372 -0.387656 6.44335 0
M  V30 2278 H 213.14 0.800102 8.1458 0
M  V30 2279 N 215.803 -1.52179 -0.40978 0
M  V30 2280 C 217.05 -1.66206 -1.15679 0
M  V30 2281 C 217.378 -0.391674 -1.90516 0
M  V30 2282 O 216.633 0.62533 -1.8544 0
M  V30 2283 C 216.932 -2.83428 -2.17723 0
M  V30 2284 C 216.598 -4.21672 -1.59699 0
M  V30 2285 C 215.26 -4.59274 -1.43599 0
M  V30 2286 C 217.612 -5.07825 -1.17317 0
M  V30 2287 C 214.94 -5.80709 -0.836328 0
M  V30 2288 C 217.292 -6.29864 -0.587691 0
M  V30 2289 C 215.956 -6.66216 -0.413818 0
M  V30 2290 H 215.226 -0.608192 -0.423301 0
M  V30 2291 H 217.873 -1.86279 -0.444097 0
M  V30 2292 H 216.178 -2.57687 -2.95135 0
M  V30 2293 H 217.875 -2.91477 -2.75394 0
M  V30 2294 H 214.465 -3.9204 -1.73213 0
M  V30 2295 H 218.649 -4.79359 -1.28565 0
M  V30 2296 H 213.905 -6.07498 -0.689626 0
M  V30 2297 H 218.079 -6.95948 -0.250894 0
M  V30 2298 H 215.706 -7.60182 0.0529471 0
M  V30 2299 N 217.281 0.66697 -1.42791 0
M  V30 2300 C 218.509 1.45505 -1.47091 0
M  V30 2301 C 218.924 1.8861 -0.0845873 0
M  V30 2302 O 218.281 1.58632 0.90234 0
M  V30 2303 C 218.332 2.69906 -2.40485 0
M  V30 2304 O 218.053 2.28608 -3.73725 0
M  V30 2305 C 219.554 3.63396 -2.53886 0
M  V30 2306 H 216.774 0.447459 -0.500022 0
M  V30 2307 H 219.318 0.818866 -1.8739 0
M  V30 2308 H 217.473 3.29696 -2.03419 0
M  V30 2309 H 217.887 3.08997 -4.23817 0
M  V30 2310 H 219.361 4.47387 -3.2334 0
M  V30 2311 H 219.838 4.09824 -1.57927 0
M  V30 2312 H 220.444 3.09495 -2.91706 0
M  V30 2313 N 218.759 1.29093 0.90403 0
M  V30 2314 C 220.006 1.16813 1.65411 0
M  V30 2315 C 220.334 -0.28128 1.92455 0
M  V30 2316 O 219.589 -1.22006 1.53013 0
M  V30 2317 C 219.888 1.92224 3.01305 0
M  V30 2318 C 219.554 3.41968 2.93885 0
M  V30 2319 C 218.216 3.82807 2.91569 0
M  V30 2320 C 220.568 4.37409 2.83413 0
M  V30 2321 C 217.896 5.1741 2.76594 0
M  V30 2322 C 220.248 5.72097 2.69977 0
M  V30 2323 C 218.912 6.12199 2.66024 0
M  V30 2324 H 218.182 0.42745 0.605283 0
M  V30 2325 H 220.829 1.59981 1.05254 0
M  V30 2326 H 219.134 1.41635 3.65304 0
M  V30 2327 H 220.831 1.80131 3.58265 0
M  V30 2328 H 217.421 3.09504 2.96488 0
M  V30 2329 H 221.605 4.06813 2.84283 0
M  V30 2330 H 216.861 5.47596 2.71935 0
M  V30 2331 H 221.035 6.45704 2.60844 0
M  V30 2332 H 218.662 7.16448 2.54178 0
M  V30 2333 N 220.237 -1.11381 1.11499 0
M  V30 2334 C 221.169 -2.17207 0.731704 0
M  V30 2335 C 222.182 -1.61066 -0.236957 0
M  V30 2336 O 223.371 -1.78489 -0.0197591 0
M  V30 2337 C 220.471 -3.38846 0.0607624 0
M  V30 2338 C 219.644 -4.24451 1.0564 0
M  V30 2339 C 218.703 -5.24562 0.4149 0
M  V30 2340 O 217.729 -5.59071 1.069 0
M  V30 2341 N 218.931 -5.74651 -0.821943 0
M  V30 2342 H 221.696 -2.50699 1.64225 0
M  V30 2343 H 219.257 -1.26908 1.00529 0
M  V30 2344 H 221.249 -4.02911 -0.380139 0
M  V30 2345 H 219.819 -3.03411 -0.752376 0
M  V30 2346 H 219.039 -3.56833 1.67524 0
M  V30 2347 H 220.327 -4.78486 1.72998 0
M  V30 2348 H 219.725 -5.48797 -1.37252 0
M  V30 2349 H 218.282 -6.40549 -1.20582 0
M  V30 2350 N 221.715 -0.905404 -1.28997 0
M  V30 2351 C 222.992 -0.453513 -1.9027 0
M  V30 2352 C 223.372 1.06721 -1.82137 0
M  V30 2353 O 222.72 1.91159 -1.25182 0
M  V30 2354 C 222.93 -0.974494 -3.35119 0
M  V30 2355 C 224.278 -1.0216 -4.12127 0
M  V30 2356 O 225.302 -0.922557 -3.44046 0
M  V30 2357 O 224.161 -1.17121 -5.33802 0
M  V30 2358 H 221.255 -0.142347 -0.814657 0
M  V30 2359 H 223.801 -0.995642 -1.37423 0
M  V30 2360 H 222.573 -2.01848 -3.35221 0
M  V30 2361 H 222.196 -0.412706 -3.95452 0
M  V30 2362 N 223.193 1.4272 -0.668489 0
M  V30 2363 C 224.47 1.95248 -0.117373 0
M  V30 2364 C 224.85 1.60919 1.36632 0
M  V30 2365 O 224.198 0.902095 2.09939 0
M  V30 2366 C 224.408 3.46927 -0.379806 0
M  V30 2367 C 225.756 4.23588 -0.292923 0
M  V30 2368 O 226.78 3.5482 -0.313204 0
M  V30 2369 O 225.639 5.46017 -0.229697 0
M  V30 2370 H 222.733 0.827 0.00079152 0
M  V30 2371 H 225.279 1.52581 -0.742783 0
M  V30 2372 H 224.051 3.65096 -1.40786 0
M  V30 2373 H 223.674 3.96627 0.277923 0
M  V30 2374 N 224.671 0.411399 1.52136 0
M  V30 2375 C 225.581 -0.419774 2.30814 0
M  V30 2376 C 226.597 -1.0515 1.38634 0
M  V30 2377 O 227.773 -1.05252 1.71709 0
M  V30 2378 C 224.838 -1.52019 3.11594 0
M  V30 2379 C 223.899 -0.91129 4.19516 0
M  V30 2380 C 223.132 -1.95927 4.96436 0
M  V30 2381 O 223.355 -3.17775 4.73683 0
M  V30 2382 O 222.289 -1.56423 5.81219 0
M  V30 2383 H 226.115 0.221805 3.02889 0
M  V30 2384 H 223.7 0.174547 1.48377 0
M  V30 2385 H 225.582 -2.15898 3.61892 0
M  V30 2386 H 224.257 -2.14633 2.42311 0
M  V30 2387 H 223.164 -0.235157 3.7336 0
M  V30 2388 H 224.497 -0.32904 4.91099 0
M  V30 2389 N 226.149 -1.5696 0.141893 0
M  V30 2390 C 227.096 -2.16501 -0.799737 0
M  V30 2391 C 228.066 -1.09643 -1.24771 0
M  V30 2392 O 229.251 -1.3766 -1.32115 0
M  V30 2393 C 226.391 -2.78679 -2.03549 0
M  V30 2394 C 225.504 -3.99914 -1.6338 0
M  V30 2395 C 224.639 -4.50106 -2.82096 0
M  V30 2396 C 223.678 -5.63819 -2.38275 0
M  V30 2397 N 222.815 -6.08651 -3.49983 0
M  V30 2398 H 227.655 -2.96632 -0.285179 0
M  V30 2399 H 225.192 -1.46533 -0.129053 0
M  V30 2400 H 227.15 -3.1287 -2.75986 0
M  V30 2401 H 225.78 -2.012 -2.52425 0
M  V30 2402 H 224.832 -3.71735 -0.807279 0
M  V30 2403 H 226.144 -4.82311 -1.27192 0
M  V30 2404 H 225.298 -4.86325 -3.62729 0
M  V30 2405 H 224.037 -3.66706 -3.21525 0
M  V30 2406 H 223.042 -5.2718 -1.56081 0
M  V30 2407 H 224.267 -6.49 -1.99938 0
M  V30 2408 H 222.213 -5.28188 -3.89042 0
M  V30 2409 H 222.13 -6.85961 -3.17794 0
M  V30 2410 H 223.398 -6.49515 -4.30988 0
M  V30 2411 N 227.627 0.131896 -1.57047 0
M  V30 2412 C 228.557 1.16384 -2.02428 0
M  V30 2413 C 229.538 1.43936 -0.90644 0
M  V30 2414 O 230.723 1.54599 -1.17528 0
M  V30 2415 C 227.853 2.49328 -2.4177 0
M  V30 2416 C 226.807 2.36266 -3.56879 0
M  V30 2417 C 226.133 3.74057 -3.8208 0
M  V30 2418 C 227.433 1.834 -4.89042 0
M  V30 2419 H 229.127 0.786433 -2.88887 0
M  V30 2420 H 226.673 0.376855 -1.38981 0
M  V30 2421 H 228.626 3.21759 -2.7212 0
M  V30 2422 H 227.35 2.88934 -1.52266 0
M  V30 2423 H 226.009 1.66286 -3.26718 0
M  V30 2424 H 225.657 4.11125 -2.89803 0
M  V30 2425 H 225.357 3.66174 -4.59554 0
M  V30 2426 H 226.881 4.48012 -4.1487 0
M  V30 2427 H 228.295 2.45636 -5.18011 0
M  V30 2428 H 226.692 1.8637 -5.70426 0
M  V30 2429 H 227.762 0.790662 -4.7841 0
M  V30 2430 N 229.106 1.52395 0.401703 0
M  V30 2431 C 230.336 1.70429 1.1678 0
M  V30 2432 C 230.744 0.416702 1.84554 0
M  V30 2433 O 230.087 -0.617697 1.73003 0
M  V30 2434 C 230.149 2.78919 2.26814 0
M  V30 2435 C 229.813 4.20437 1.79113 0
M  V30 2436 C 230.81 5.04028 1.27482 0
M  V30 2437 C 228.495 4.66704 1.85722 0
M  V30 2438 C 230.489 6.31961 0.830913 0
M  V30 2439 C 228.176 5.94625 1.40942 0
M  V30 2440 C 229.174 6.77082 0.897128 0
M  V30 2441 O 228.862 8.02607 0.455822 0
M  V30 2442 H 228.594 0.574272 0.356634 0
M  V30 2443 H 231.148 1.99767 0.477724 0
M  V30 2444 H 229.378 2.44973 2.99207 0
M  V30 2445 H 231.067 2.8548 2.88541 0
M  V30 2446 H 231.833 4.69471 1.21744 0
M  V30 2447 H 227.712 4.0262 2.24539 0
M  V30 2448 H 231.256 6.96271 0.430368 0
M  V30 2449 H 227.153 6.28688 1.46362 0
M  V30 2450 H 227.921 8.16453 0.578457 0
M  V30 2451 N 230.584 -0.659388 1.43143 0
M  V30 2452 C 231.831 -1.41935 1.44433 0
M  V30 2453 C 232.159 -1.94387 0.0663522 0
M  V30 2454 O 231.414 -1.72314 -0.927706 0
M  V30 2455 C 231.713 -2.62206 2.42864 0
M  V30 2456 C 231.379 -2.28208 3.88886 0
M  V30 2457 C 230.041 -2.18647 4.28657 0
M  V30 2458 C 232.393 -2.00887 4.8093 0
M  V30 2459 C 229.721 -1.79914 5.58433 0
M  V30 2460 C 232.073 -1.63653 6.11065 0
M  V30 2461 C 230.737 -1.52614 6.49819 0
M  V30 2462 H 230.007 -0.519376 0.528517 0
M  V30 2463 H 232.654 -0.750453 1.76183 0
M  V30 2464 H 230.959 -3.34199 2.04495 0
M  V30 2465 H 232.656 -3.2041 2.41119 0
M  V30 2466 H 229.246 -2.36557 3.57406 0
M  V30 2467 H 233.43 -2.07198 4.5098 0
M  V30 2468 H 228.686 -1.69948 5.87305 0
M  V30 2469 H 232.86 -1.41543 6.81864 0
M  V30 2470 H 230.487 -1.22371 7.50286 0
M  V30 2471 N 232.062 -1.29571 -0.897171 0
M  V30 2472 C 233.31 -1.17456 -1.64464 0
M  V30 2473 C 233.631 0.273698 -1.9307 0
M  V30 2474 O 232.901 1.18684 -1.55855 0
M  V30 2475 H 231.481 -0.431706 -0.609622 0
M  V30 2476 H 234.143 -1.62531 -1.07562 0
M  V30 2477 H 233.239 -1.72648 -2.59998 0
M  V30 2478 N 233.54 1.10788 -1.12088 0
M  V30 2479 C 234.47 2.19083 -0.807755 0
M  V30 2480 C 235.451 1.6858 0.226859 0
M  V30 2481 O 236.636 1.93997 0.0888475 0
M  V30 2482 C 233.766 3.46344 -0.257576 0
M  V30 2483 C 232.72 4.101 -1.22483 0
M  V30 2484 C 232.046 5.32016 -0.535052 0
M  V30 2485 C 233.346 4.54236 -2.57811 0
M  V30 2486 H 235.04 2.45534 -1.71328 0
M  V30 2487 H 232.586 1.1801 -0.825205 0
M  V30 2488 H 234.539 4.21392 -0.0262679 0
M  V30 2489 H 233.263 3.19373 0.683278 0
M  V30 2490 H 231.922 3.37054 -1.44189 0
M  V30 2491 H 231.57 5.01319 0.410827 0
M  V30 2492 H 231.27 5.75625 -1.18024 0
M  V30 2493 H 232.794 6.09799 -0.312695 0
M  V30 2494 H 234.208 5.20575 -2.40155 0
M  V30 2495 H 232.605 5.08682 -3.18375 0
M  V30 2496 H 233.675 3.6734 -3.16528 0
M  V30 2497 N 235.018 0.912232 1.28515 0
M  V30 2498 C 236.243 0.559774 1.99703 0
M  V30 2499 C 236.668 -0.851393 1.67729 0
M  V30 2500 O 236.026 -1.56875 0.908834 0
M  V30 2501 C 236.074 0.773874 3.52198 0
M  V30 2502 O 235.178 -0.167842 4.12058 0
M  V30 2503 H 234.519 0.21723 0.627461 0
M  V30 2504 H 237.049 1.22725 1.63706 0
M  V30 2505 H 237.059 0.683386 4.02236 0
M  V30 2506 H 235.734 1.80261 3.74805 0
M  V30 2507 H 234.311 -0.0287509 3.72889 0
M  V30 2508 N 236.496 -1.42363 0.676048 0
M  V30 2509 C 237.726 -2.05561 0.206967 0
M  V30 2510 C 238.134 -1.50887 -1.14148 0
M  V30 2511 O 237.477 -0.643933 -1.72044 0
M  V30 2512 C 237.539 -3.5944 0.0659508 0
M  V30 2513 C 237.203 -4.36812 1.34331 0
M  V30 2514 C 238.2 -4.67383 2.27704 0
M  V30 2515 C 235.885 -4.76429 1.59125 0
M  V30 2516 C 237.879 -5.36509 3.44147 0
M  V30 2517 C 235.566 -5.45294 2.75857 0
M  V30 2518 C 236.564 -5.75259 3.68193 0
M  V30 2519 O 236.252 -6.42712 4.82883 0
M  V30 2520 H 235.984 -0.668872 0.0979084 0
M  V30 2521 H 238.538 -1.83467 0.923531 0
M  V30 2522 H 236.768 -3.80197 -0.706204 0
M  V30 2523 H 238.457 -4.0427 -0.363418 0
M  V30 2524 H 239.223 -4.37275 2.09799 0
M  V30 2525 H 235.102 -4.52498 0.881258 0
M  V30 2526 H 238.646 -5.59814 4.16238 0
M  V30 2527 H 234.543 -5.7482 2.93688 0
M  V30 2528 H 235.311 -6.61204 4.82444 0
M  V30 2529 N 237.974 -0.419461 -1.51915 0
M  V30 2530 C 238.937 0.389116 -2.25873 0
M  V30 2531 C 239.937 0.964924 -1.28631 0
M  V30 2532 O 241.127 0.842179 -1.52489 0
M  V30 2533 C 238.259 1.54874 -3.03689 0
M  V30 2534 H 239.452 -0.258799 -2.98781 0
M  V30 2535 H 237.005 -0.172209 -1.55348 0
M  V30 2536 H 237.74 2.23323 -2.35154 0
M  V30 2537 H 237.525 1.14223 -3.75094 0
M  V30 2538 H 239.015 2.12046 -3.59759 0
M  V30 2539 N 239.452 1.56882 -0.150215 0
M  V30 2540 C 240.399 2.16922 0.788244 0
M  V30 2541 C 241.369 1.10303 1.24187 0
M  V30 2542 O 242.554 1.38359 1.31383 0
M  V30 2543 C 239.694 2.79754 2.02068 0
M  V30 2544 C 238.807 4.00775 1.61257 0
M  V30 2545 C 237.942 4.51595 2.79705 0
M  V30 2546 C 236.981 5.65074 2.35282 0
M  V30 2547 N 236.118 6.10499 3.4675 0
M  V30 2548 H 240.958 2.96779 0.269444 0
M  V30 2549 H 238.495 1.46599 0.12128 0
M  V30 2550 H 240.453 3.14329 2.74323 0
M  V30 2551 H 239.083 2.02536 2.51354 0
M  V30 2552 H 238.135 3.72158 0.787553 0
M  V30 2553 H 239.447 4.82978 1.24633 0
M  V30 2554 H 238.601 4.88242 3.60145 0
M  V30 2555 H 237.34 3.68406 3.19576 0
M  V30 2556 H 236.345 5.28 1.53283 0
M  V30 2557 H 237.57 6.50052 1.96493 0
M  V30 2558 H 235.516 5.30243 3.86236 0
M  V30 2559 H 235.433 6.87637 3.14152 0
M  V30 2560 H 236.701 6.51791 4.27537 0
M  V30 2561 N 240.93 -0.123565 1.57115 0
M  V30 2562 C 241.878 -1.17082 2.00984 0
M  V30 2563 C 242.872 -1.43136 0.906009 0
M  V30 2564 O 244.078 -1.43152 1.09121 0
M  V30 2565 H 240.453 -0.394653 0.64012 0
M  V30 2566 H 242.424 -0.774292 2.88179 0
M  V30 2567 C 241.173 -2.49057 2.42623 0
M  V30 2568 H 240.496 -2.29846 3.27125 0
M  V30 2569 H 241.936 -3.20906 2.7712 0
M  V30 2570 C 240.395 -3.11305 1.28805 0
M  V30 2571 O 240.925 -3.97171 0.60153 0
M  V30 2572 N 239.131 -2.71111 1.04628 0
M  V30 2573 H 238.678 -2.01382 1.60634 0
M  V30 2574 H 238.636 -3.1309 0.286685 0
M  V30 2575 N 242.408 -1.52605 -0.393616 0
M  V30 2576 C 243.656 -1.67093 -1.13685 0
M  V30 2577 C 243.977 -0.411011 -1.90619 0
M  V30 2578 O 243.247 0.574491 -1.87287 0
M  V30 2579 H 241.827 -0.615923 -0.422668 0
M  V30 2580 H 244.489 -1.89704 -0.447039 0
M  V30 2581 H 243.585 -2.51922 -1.84232 0
M  V30 2582 N 243.887 0.651787 -1.4349 0
M  V30 2583 C 244.797 1.79368 -1.5121 0
M  V30 2584 C 245.813 1.69361 -0.399093 0
M  V30 2585 O 246.989 1.90505 -0.653431 0
M  V30 2586 C 244.054 3.15653 -1.43401 0
M  V30 2587 C 243.115 3.37446 -2.65384 0
M  V30 2588 C 242.348 4.67229 -2.57939 0
M  V30 2589 O 242.571 5.46676 -1.62792 0
M  V30 2590 O 241.505 4.90773 -3.48462 0
M  V30 2591 H 245.331 1.7581 -2.47638 0
M  V30 2592 H 242.916 0.810447 -1.25507 0
M  V30 2593 H 244.798 3.96935 -1.41494 0
M  V30 2594 H 243.473 3.19798 -0.501085 0
M  V30 2595 H 242.38 2.55923 -2.72863 0
M  V30 2596 H 243.713 3.38148 -3.57654 0
M  V30 2597 N 245.365 1.30045 0.890287 0
M  V30 2598 C 246.295 1.18541 2.01172 0
M  V30 2599 C 247.276 0.0773356 1.69924 0
M  V30 2600 O 248.461 0.25845 1.92473 0
M  V30 2601 C 245.591 0.870941 3.36202 0
M  V30 2602 C 244.545 1.93637 3.81692 0
M  V30 2603 C 243.871 1.475 5.13953 0
M  V30 2604 C 245.171 3.34666 4.00994 0
M  V30 2605 H 246.865 2.12359 2.11054 0
M  V30 2606 H 244.411 1.02238 1.01407 0
M  V30 2607 H 246.364 0.777141 4.14172 0
M  V30 2608 H 245.088 -0.102926 3.26438 0
M  V30 2609 H 243.747 2.01972 3.05946 0
M  V30 2610 H 243.395 0.489551 5.00612 0
M  V30 2611 H 243.095 2.1876 5.4536 0
M  V30 2612 H 244.619 1.39489 5.94454 0
M  V30 2613 H 246.033 3.2912 4.69417 0
M  V30 2614 H 244.43 4.03966 4.43769 0
M  V30 2615 H 245.5 3.76949 3.05021 0
M  V30 2616 N 246.843 -1.10192 1.12674 0
M  V30 2617 C 247.773 -2.18652 0.819362 0
M  V30 2618 C 248.754 -1.68698 -0.217915 0
M  V30 2619 O 249.939 -1.94041 -0.0785581 0
M  V30 2620 C 247.069 -3.46202 0.27594 0
M  V30 2621 C 246.023 -4.09444 1.24656 0
M  V30 2622 C 245.349 -5.31725 0.563258 0
M  V30 2623 C 246.649 -4.52863 2.60217 0
M  V30 2624 H 248.343 -2.44622 1.72628 0
M  V30 2625 H 245.889 -1.17571 0.831451 0
M  V30 2626 H 247.842 -4.21372 0.0486149 0
M  V30 2627 H 246.566 -3.1973 -0.666331 0
M  V30 2628 H 245.225 -3.36284 1.45974 0
M  V30 2629 H 244.873 -5.0153 -0.384235 0
M  V30 2630 H 244.573 -5.74991 1.21075 0
M  V30 2631 H 246.097 -6.09624 0.34503 0
M  V30 2632 H 247.511 -5.19294 2.42913 0
M  V30 2633 H 245.908 -5.06986 3.21068 0
M  V30 2634 H 246.978 -3.65656 3.18471 0
M  V30 2635 N 248.321 -0.919034 -1.28029 0
M  V30 2636 C 249.268 -0.410005 -2.27129 0
M  V30 2637 C 250.238 0.518405 -1.57803 0
M  V30 2638 O 251.423 0.439451 -1.8567 0
M  V30 2639 C 248.563 0.339054 -3.4343 0
M  V30 2640 C 247.676 -0.622468 -4.27492 0
M  V30 2641 C 246.811 0.145567 -5.31001 0
M  V30 2642 C 245.85 -0.809226 -6.06727 0
M  V30 2643 N 244.987 -0.0743728 -7.02061 0
M  V30 2644 H 249.827 -1.26011 -2.70047 0
M  V30 2645 H 247.364 -0.632663 -1.328 0
M  V30 2646 H 249.322 0.789586 -4.0966 0
M  V30 2647 H 247.952 1.15346 -3.01488 0
M  V30 2648 H 247.004 -1.19153 -3.61257 0
M  V30 2649 H 248.316 -1.35252 -4.80113 0
M  V30 2650 H 247.47 0.656417 -6.03139 0
M  V30 2651 H 246.209 0.908643 -4.79161 0
M  V30 2652 H 245.214 -1.3314 -5.33436 0
M  V30 2653 H 246.439 -1.57194 -6.60656 0
M  V30 2654 H 244.385 0.670616 -6.52563 0
M  V30 2655 H 244.302 -0.744157 -7.52329 0
M  V30 2656 H 245.57 0.416109 -7.78389 0
M  V30 2657 N 249.799 1.42003 -0.683588 0
M  V30 2658 C 251.029 2.05448 -0.217866 0
M  V30 2659 C 251.437 1.51491 1.13346 0
M  V30 2660 O 250.78 0.653048 1.717 0
M  V30 2661 C 250.842 3.59399 -0.0850118 0
M  V30 2662 C 250.506 4.36093 -1.36645 0
M  V30 2663 C 251.503 4.66169 -2.30179 0
M  V30 2664 C 249.188 4.75578 -1.61649 0
M  V30 2665 C 251.182 5.34676 -3.46988 0
M  V30 2666 C 248.869 5.43824 -2.78745 0
M  V30 2667 C 249.867 5.73299 -3.71238 0
M  V30 2668 O 249.555 6.40142 -4.86285 0
M  V30 2669 H 249.287 0.668344 -0.101454 0
M  V30 2670 H 251.841 1.82974 -0.933248 0
M  V30 2671 H 250.071 3.80566 0.686031 0
M  V30 2672 H 251.76 4.04457 0.341973 0
M  V30 2673 H 252.526 4.36156 -2.12115 0
M  V30 2674 H 248.405 4.52025 -0.905243 0
M  V30 2675 H 251.949 5.57599 -4.19201 0
M  V30 2676 H 247.846 5.73254 -2.96732 0
M  V30 2677 H 248.614 6.58636 -4.85944 0
M  V30 2678 N 251.277 0.427512 1.51691 0
M  V30 2679 C 252.526 -0.143679 2.01188 0
M  V30 2680 C 252.839 -1.44642 1.31674 0
M  V30 2681 O 254.045 -2.09997 1.72086 0
M  V30 2682 C 252.501 -0.306602 3.58592 0
M  V30 2683 C 252.109 0.985125 4.37035 0
M  V30 2684 C 253.853 -0.832091 4.16265 0
M  V30 2685 C 251.76 0.788382 5.86122 0
M  V30 2686 H 250.69 -0.0574701 0.751807 0
M  V30 2687 H 253.341 0.555772 1.74881 0
M  V30 2688 H 251.723 -1.06882 3.81303 0
M  V30 2689 H 252.897 1.75492 4.26074 0
M  V30 2690 H 251.212 1.4384 3.90767 0
M  V30 2691 H 253.809 -0.995617 5.25349 0
M  V30 2692 H 254.152 -1.81186 3.74803 0
M  V30 2693 H 254.685 -0.128444 3.97593 0
M  V30 2694 H 251.424 1.74025 6.31978 0
M  V30 2695 H 250.944 0.0582143 5.99772 0
M  V30 2696 H 252.623 0.437722 6.45518 0
M  V30 2697 N 252.755 -1.56801 0.158532 0
M  V30 2698 C 254.171 -1.5837 -0.197774 0
M  V30 2699 C 254.371 -1.17334 -1.63814 0
M  V30 2700 O 253.427 -0.878988 -2.36707 0
M  V30 2701 C 254.74 -3.00615 0.0714459 0
M  V30 2702 C 256.288 -3.12999 0.00864533 0
M  V30 2703 C 256.763 -4.57313 0.250685 0
M  V30 2704 N 258.254 -4.62777 0.198014 0
M  V30 2705 C 258.989 -5.72271 0.359642 0
M  V30 2706 N 258.485 -6.90371 0.579625 0
M  V30 2707 N 260.278 -5.61318 0.296438 0
M  V30 2708 H 252.429 -1.81765 1.09887 0
M  V30 2709 H 254.692 -0.841849 0.435884 0
M  V30 2710 H 254.398 -3.35068 1.06874 0
M  V30 2711 H 254.272 -3.71683 -0.642757 0
M  V30 2712 H 256.659 -2.7838 -0.979217 0
M  V30 2713 H 256.74 -2.44393 0.755359 0
M  V30 2714 H 256.384 -4.92639 1.2357 0
M  V30 2715 H 256.314 -5.24061 -0.516489 0
M  V30 2716 H 258.805 -3.77885 0.0331115 0
M  V30 2717 H 259.118 -7.69689 0.69275 0
M  V30 2718 H 257.463 -6.92264 0.616087 0
M  V30 2719 H 260.654 -4.67932 0.125258 0
M  V30 2720 H 260.827 -6.46599 0.425831 0
M  V30 2721 N 254.233 0.115231 -1.57178 0
M  V30 2722 C 255.18 1.14115 -2.00615 0
M  V30 2723 C 256.15 1.40939 -0.878941 0
M  V30 2724 O 257.335 1.52741 -1.14345 0
M  V30 2725 C 254.475 2.46156 -2.4187 0
M  V30 2726 C 253.588 2.26236 -3.68024 0
M  V30 2727 C 252.723 3.51534 -3.98243 0
M  V30 2728 C 251.762 3.26787 -5.17568 0
M  V30 2729 N 250.899 4.44298 -5.43639 0
M  V30 2730 H 255.739 0.763743 -2.88047 0
M  V30 2731 H 253.276 0.365615 -1.42484 0
M  V30 2732 H 255.234 3.23189 -2.63827 0
M  V30 2733 H 253.864 2.81783 -1.57475 0
M  V30 2734 H 252.916 1.40102 -3.5366 0
M  V30 2735 H 254.228 2.03929 -4.55208 0
M  V30 2736 H 253.382 4.36984 -4.20868 0
M  V30 2737 H 252.121 3.76876 -3.09541 0
M  V30 2738 H 251.126 2.39729 -4.94783 0
M  V30 2739 H 252.351 3.02812 -6.0785 0
M  V30 2740 H 250.297 4.69754 -4.57895 0
M  V30 2741 H 250.214 4.25109 -6.25154 0
M  V30 2742 H 251.482 5.3087 -5.70786 0
M  V30 2743 N 255.711 1.52812 0.385517 0
M  V30 2744 C 256.96 1.67249 1.12741 0
M  V30 2745 C 257.273 0.4205 1.91027 0
M  V30 2746 O 258.479 0.445064 2.67827 0
M  V30 2747 C 256.935 2.95583 2.05326 0
M  V30 2748 C 256.543 4.27974 1.32447 0
M  V30 2749 C 258.287 3.19386 2.7963 0
M  V30 2750 C 256.194 5.47412 2.23818 0
M  V30 2751 H 255.124 0.6231 0.424573 0
M  V30 2752 H 257.775 1.79309 0.389924 0
M  V30 2753 H 256.157 2.77277 2.82725 0
M  V30 2754 H 257.331 4.56844 0.602495 0
M  V30 2755 H 255.646 4.10459 0.700885 0
M  V30 2756 H 258.243 4.05801 3.48181 0
M  V30 2757 H 258.586 2.34604 3.43899 0
M  V30 2758 H 259.119 3.38274 2.09322 0
M  V30 2759 H 255.858 6.34612 1.64157 0
M  V30 2760 H 255.378 5.22849 2.93921 0
M  V30 2761 H 257.057 5.81423 2.83824 0
M  V30 2762 N 257.189 -0.644168 1.43834 0
M  V30 2763 C 258.437 -1.40117 1.45642 0
M  V30 2764 C 258.758 -1.94814 0.0852413 0
M  V30 2765 O 258.028 -1.74988 -0.880688 0
M  V30 2766 H 256.608 -0.52005 0.536243 0
M  V30 2767 H 259.27 -0.7591 1.7951 0
M  V30 2768 H 258.366 -2.23902 2.17427 0
M  V30 2769 N 258.668 -1.30515 -0.883378 0
M  V30 2770 C 259.893 -1.22487 -1.67367 0
M  V30 2771 C 260.318 0.208767 -1.86938 0
M  V30 2772 O 259.676 1.15015 -1.40148 0
M  V30 2773 C 259.724 -1.96041 -3.02655 0
M  V30 2774 O 258.828 -1.28859 -3.91751 0
M  V30 2775 H 258.169 -0.423573 -0.511353 0
M  V30 2776 H 260.699 -1.72362 -1.10239 0
M  V30 2777 H 260.709 -2.05124 -3.52687 0
M  V30 2778 H 259.384 -3.00307 -2.8773 0
M  V30 2779 H 257.961 -1.28141 -3.50192 0
M  V30 2780 N 260.146 1.09593 -1.13257 0
M  V30 2781 C 261.393 1.81734 -0.893257 0
M  V30 2782 C 261.721 1.8563 0.580656 0
M  V30 2783 O 260.976 1.31906 1.44566 0
M  V30 2784 C 261.275 3.27802 -1.42411 0
M  V30 2785 C 260.941 3.44041 -2.91456 0
M  V30 2786 C 259.603 3.48181 -3.3215 0
M  V30 2787 C 261.955 3.48719 -3.87356 0
M  V30 2788 C 259.283 3.54575 -4.67433 0
M  V30 2789 C 261.635 3.56648 -5.2248 0
M  V30 2790 C 260.299 3.59055 -5.62704 0
M  V30 2791 H 259.569 0.665011 -0.326866 0
M  V30 2792 H 262.216 1.2912 -1.41422 0
M  V30 2793 H 260.521 3.83042 -0.823795 0
M  V30 2794 H 262.218 3.82149 -1.21503 0
M  V30 2795 H 258.808 3.41502 -2.58987 0
M  V30 2796 H 262.992 3.44763 -3.57004 0
M  V30 2797 H 258.248 3.54725 -4.97976 0
M  V30 2798 H 262.422 3.59212 -5.96607 0
M  V30 2799 H 260.049 3.63763 -6.67518 0
M  V30 2800 N 261.624 0.925811 1.2754 0
M  V30 2801 C 262.901 0.483726 1.89524 0
M  V30 2802 C 263.281 -1.03809 1.83812 0
M  V30 2803 O 262.629 -1.89143 1.28207 0
M  V30 2804 C 262.839 1.02769 3.33526 0
M  V30 2805 C 264.187 1.08703 4.10449 0
M  V30 2806 O 265.211 0.977175 3.42534 0
M  V30 2807 O 264.07 1.25599 5.31871 0
M  V30 2808 H 261.164 0.15529 0.812289 0
M  V30 2809 H 263.71 1.01738 1.35822 0
M  V30 2810 H 262.482 2.07155 3.31967 0
M  V30 2811 H 262.105 0.475567 3.94746 0
M  V30 2812 N 263.102 -1.41638 0.69111 0
M  V30 2813 C 264.012 -2.34588 0.0233487 0
M  V30 2814 C 265.028 -1.55987 -0.770984 0
M  V30 2815 O 266.204 -1.88486 -0.709569 0
M  V30 2816 C 263.269 -3.34684 -0.904851 0
M  V30 2817 C 262.33 -4.29176 -0.103225 0
M  V30 2818 C 261.563 -5.2449 -0.987216 0
M  V30 2819 O 261.786 -5.2514 -2.22674 0
M  V30 2820 O 260.72 -6.00295 -0.439281 0
M  V30 2821 H 264.546 -2.93261 0.789416 0
M  V30 2822 H 262.131 -1.42417 0.45142 0
M  V30 2823 H 264.013 -3.96133 -1.43724 0
M  V30 2824 H 262.688 -2.78461 -1.65049 0
M  V30 2825 H 261.595 -3.71089 0.473655 0
M  V30 2826 H 262.928 -4.88484 0.60365 0
M  V30 2827 N 264.58 -0.43555 -1.51462 0
M  V30 2828 C 265.808 0.130242 -2.0649 0
M  V30 2829 C 266.223 1.36614 -1.30315 0
M  V30 2830 O 265.58 1.78869 -0.362223 0
M  V30 2831 C 265.631 0.454253 -3.58635 0
M  V30 2832 O 265.352 -0.73259 -4.31931 0
M  V30 2833 C 266.853 1.07091 -4.3017 0
M  V30 2834 H 264.073 0.00871669 -0.670943 0
M  V30 2835 H 266.617 -0.614117 -1.95061 0
M  V30 2836 H 264.772 1.14851 -3.69984 0
M  V30 2837 H 265.186 -0.455787 -5.22516 0
M  V30 2838 H 266.66 1.24764 -5.37716 0
M  V30 2839 H 267.137 2.05144 -3.88346 0
M  V30 2840 H 267.743 0.416089 -4.2326 0
M  V30 2841 N 266.058 1.56714 -0.166846 0
M  V30 2842 C 267.298 1.98641 0.481763 0
M  V30 2843 C 267.662 1.05038 1.6072 0
M  V30 2844 O 268.863 1.36087 2.31805 0
M  V30 2845 C 267.134 3.44362 0.956517 0
M  V30 2846 S 268.693 4.08317 1.60694 0
M  V30 2847 H 265.511 0.693873 0.155116 0
M  V30 2848 H 268.113 1.93719 -0.263251 0
M  V30 2849 H 266.817 4.10204 0.126936 0
M  V30 2850 H 266.348 3.53041 1.73568 0
M  V30 2851 H 268.363 4.02999 2.89494 0
M  V30 2852 N 267.536 -0.106894 1.57237 0
M  V30 2853 C 268.764 -0.826389 1.8968 0
M  V30 2854 C 269.179 -1.72856 0.759353 0
M  V30 2855 O 268.536 -1.80503 -0.269263 0
M  V30 2856 C 268.587 -1.64967 3.21665 0
M  V30 2857 O 268.308 -0.783804 4.31031 0
M  V30 2858 C 269.809 -2.47326 3.67892 0
M  V30 2859 H 267.029 -0.236927 0.627779 0
M  V30 2860 H 269.573 -0.0876593 2.04312 0
M  V30 2861 H 267.728 -2.34103 3.08666 0
M  V30 2862 H 268.142 -1.35284 5.06753 0
M  V30 2863 H 269.616 -3.00604 4.6297 0
M  V30 2864 H 270.093 -3.25247 2.95146 0
M  V30 2865 H 270.699 -1.83411 3.83719 0
M  V30 2866 N 269.014 -1.53014 -0.377408 0
M  V30 2867 C 270.43 -1.42523 -0.718281 0
M  V30 2868 C 270.63 -0.55487 -1.9371 0
M  V30 2869 O 269.686 -0.0327593 -2.52479 0
M  V30 2870 C 270.999 -2.85546 -0.942539 0
M  V30 2871 C 272.547 -2.95101 -1.04329 0
M  V30 2872 C 273.022 -4.3916 -1.3001 0
M  V30 2873 N 274.513 -4.42536 -1.36806 0
M  V30 2874 C 275.248 -5.51097 -1.58364 0
M  V30 2875 N 274.744 -6.69724 -1.77317 0
M  V30 2876 N 276.537 -5.38657 -1.60638 0
M  V30 2877 H 268.688 -2.08116 0.424426 0
M  V30 2878 H 270.951 -0.939352 0.127759 0
M  V30 2879 H 270.657 -3.51499 -0.118929 0
M  V30 2880 H 270.531 -3.28493 -1.85397 0
M  V30 2881 H 272.918 -2.29309 -1.85745 0
M  V30 2882 H 272.999 -2.55566 -0.109505 0
M  V30 2883 H 272.643 -5.05521 -0.490991 0
M  V30 2884 H 272.573 -4.76258 -2.24691 0
M  V30 2885 H 275.064 -3.57039 -1.23821 0
M  V30 2886 H 275.377 -7.48233 -1.93306 0
M  V30 2887 H 273.722 -6.72732 -1.74518 0
M  V30 2888 H 276.913 -4.44948 -1.45391 0
M  V30 2889 H 277.086 -6.2333 -1.77098 0
M  V30 2890 N 270.492 0.636531 -1.44174 0
M  V30 2891 C 271.739 1.39619 -1.46672 0
M  V30 2892 C 272.067 1.94257 -0.0972691 0
M  V30 2893 O 271.322 1.73768 0.900175 0
M  V30 2894 C 271.621 2.58309 -2.47005 0
M  V30 2895 C 271.287 2.21992 -3.92467 0
M  V30 2896 C 269.949 2.118 -4.32081 0
M  V30 2897 C 272.301 1.9321 -4.84065 0
M  V30 2898 C 269.629 1.71007 -5.61225 0
M  V30 2899 C 271.981 1.53911 -6.13591 0
M  V30 2900 C 270.645 1.42257 -6.52165 0
M  V30 2901 H 269.915 0.510902 -0.536712 0
M  V30 2902 H 272.562 0.722328 -1.77355 0
M  V30 2903 H 270.867 3.30903 -2.09786 0
M  V30 2904 H 272.564 3.16533 -2.46186 0
M  V30 2905 H 269.154 2.30841 -3.61124 0
M  V30 2906 H 273.338 1.99997 -4.54219 0
M  V30 2907 H 268.594 1.60583 -5.89935 0
M  V30 2908 H 272.768 1.30677 -6.8403 0
M  V30 2909 H 270.395 1.10419 -7.52138 0
M  V30 2910 N 271.97 1.30982 0.876444 0
M  V30 2911 C 273.2 1.23063 1.65949 0
M  V30 2912 C 273.608 -0.207537 1.88058 0
M  V30 2913 O 272.951 -1.14781 1.43426 0
M  V30 2914 C 273.013 1.89768 3.05333 0
M  V30 2915 C 272.677 3.39106 3.0636 0
M  V30 2916 C 273.674 4.3496 2.84791 0
M  V30 2917 C 271.359 3.80693 3.27686 0
M  V30 2918 C 273.353 5.70375 2.84519 0
M  V30 2919 C 271.04 5.16223 3.27043 0
M  V30 2920 C 272.038 6.10875 3.05485 0
M  V30 2921 O 271.726 7.43928 3.04674 0
M  V30 2922 H 271.458 0.426685 0.524324 0
M  V30 2923 H 274.012 1.7329 1.10271 0
M  V30 2924 H 272.242 1.34082 3.6271 0
M  V30 2925 H 273.931 1.75853 3.65829 0
M  V30 2926 H 274.697 4.0416 2.68103 0
M  V30 2927 H 270.576 3.07457 3.43499 0
M  V30 2928 H 274.12 6.44228 2.67611 0
M  V30 2929 H 270.017 5.4666 3.43269 0
M  V30 2930 H 270.785 7.53022 3.2078 0
M  V30 2931 N 273.449 -1.08991 1.13837 0
M  V30 2932 C 274.677 -1.85011 0.926202 0
M  V30 2933 C 275.092 -1.8135 -0.525127 0
M  V30 2934 O 274.449 -1.21287 -1.36366 0
M  V30 2935 C 274.5 -3.32802 1.41155 0
M  V30 2936 O 274.221 -3.36444 2.80601 0
M  V30 2937 C 275.722 -4.25649 1.23847 0
M  V30 2938 H 272.942 -0.584249 0.32999 0
M  V30 2939 H 275.486 -1.37688 1.51202 0
M  V30 2940 H 273.641 -3.77536 0.868631 0
M  V30 2941 H 274.055 -4.28657 3.02248 0
M  V30 2942 H 275.529 -5.27485 1.62675 0
M  V30 2943 H 276.006 -4.38828 0.18065 0
M  V30 2944 H 276.612 -3.86735 1.76964 0
M  V30 2945 N 274.927 -0.932562 -1.27047 0
M  V30 2946 C 275.89 -0.440064 -2.24936 0
M  V30 2947 C 276.89 0.444071 -1.54547 0
M  V30 2948 O 278.08 0.244465 -1.72476 0
M  V30 2949 C 275.212 0.36678 -3.38921 0
M  V30 2950 H 276.405 -1.305 -2.70018 0
M  V30 2951 H 273.958 -0.713707 -1.39054 0
M  V30 2952 H 274.693 1.25033 -2.99228 0
M  V30 2953 H 274.478 -0.267204 -3.91188 0
M  V30 2954 H 275.968 0.701567 -4.11665 0
M  V30 2955 N 276.405 1.4127 -0.698611 0
M  V30 2956 C 277.315 2.34573 -0.0357891 0
M  V30 2957 C 278.331 1.56393 0.762701 0
M  V30 2958 O 279.507 1.8886 0.699564 0
M  V30 2959 C 276.572 3.35159 0.887089 0
M  V30 2960 C 275.633 4.29225 0.0804634 0
M  V30 2961 C 274.866 5.25006 0.959387 0
M  V30 2962 O 275.089 5.26314 2.19886 0
M  V30 2963 O 274.023 6.00519 0.407439 0
M  V30 2964 H 277.849 2.92838 -0.804957 0
M  V30 2965 H 275.434 1.42175 -0.458966 0
M  V30 2966 H 277.316 3.9689 1.41621 0
M  V30 2967 H 275.991 2.79333 1.6357 0
M  V30 2968 H 274.898 3.70833 -0.493328 0
M  V30 2969 H 276.231 4.88157 -0.629547 0
M  V30 2970 N 277.883 0.443576 1.51229 0
M  V30 2971 C 279.132 -0.122332 2.01329 0
M  V30 2972 C 279.445 -1.43237 1.33201 0
M  V30 2973 O 280.651 -2.0816 1.74304 0
M  V30 2974 C 279.107 -0.268551 3.58897 0
M  V30 2975 C 278.715 1.03142 4.35965 0
M  V30 2976 C 280.459 -0.787894 4.17124 0
M  V30 2977 C 278.366 0.850504 5.85252 0
M  V30 2978 H 277.296 -0.0494929 0.752374 0
M  V30 2979 H 279.947 0.574289 1.74282 0
M  V30 2980 H 278.329 -1.02832 3.82415 0
M  V30 2981 H 279.503 1.80001 4.24189 0
M  V30 2982 H 277.818 1.47977 3.89219 0
M  V30 2983 H 280.415 -0.939841 5.26375 0
M  V30 2984 H 280.758 -1.77201 3.76703 0
M  V30 2985 H 281.291 -0.0862669 3.97706 0
M  V30 2986 H 278.03 1.80718 6.30096 0
M  V30 2987 H 277.55 0.121825 5.99676 0
M  V30 2988 H 279.229 0.506163 6.45017 0
M  V30 2989 N 279.361 -1.56624 0.175154 0
M  V30 2990 C 280.607 -1.9729 -0.469506 0
M  V30 2991 C 280.94 -1.06128 -1.62636 0
M  V30 2992 O 280.215 -0.109183 -1.94193 0
M  V30 2993 C 280.498 -3.47375 -0.948804 0
M  V30 2994 C 280.351 -4.49317 0.208491 0
M  V30 2995 C 281.67 -4.00652 -1.82116 0
M  V30 2996 H 278.789 -0.717317 -0.16919 0
M  V30 2997 H 281.431 -1.88184 0.262062 0
M  V30 2998 H 279.581 -3.55267 -1.57219 0
M  V30 2999 H 281.253 -4.53482 0.845682 0
M  V30 3000 H 279.496 -4.25121 0.863395 0
M  V30 3001 H 280.167 -5.51741 -0.169059 0
M  V30 3002 H 282.643 -3.95416 -1.2956 0
M  V30 3003 H 281.519 -5.06075 -2.12554 0
M  V30 3004 H 281.78 -3.44699 -2.7683 0
M  V30 3005 N 280.839 0.0985539 -1.57292 0
M  V30 3006 C 282.064 0.820196 -1.90493 0
M  V30 3007 C 282.489 1.71658 -0.769094 0
M  V30 3008 O 281.847 1.79133 0.279495 0
M  V30 3009 C 281.895 1.61242 -3.22542 0
M  V30 3010 O 280.999 2.72108 -3.09888 0
M  V30 3011 H 280.34 0.225547 -0.62452 0
M  V30 3012 H 282.87 0.0748159 -2.04463 0
M  V30 3013 H 282.88 1.99737 -3.55766 0
M  V30 3014 H 281.555 0.954535 -4.04798 0
M  V30 3015 H 280.132 2.36667 -2.88172 0
M  V30 3016 N 282.317 1.53212 0.369288 0
M  V30 3017 C 283.28 1.7872 1.43498 0
M  V30 3018 C 284.28 0.657554 1.46741 0
M  V30 3019 O 285.47 0.925736 1.47566 0
M  V30 3020 C 282.602 1.90591 2.82645 0
M  V30 3021 H 283.795 2.73894 1.22156 0
M  V30 3022 H 281.348 1.44233 0.602203 0
M  V30 3023 H 282.083 0.974709 3.09306 0
M  V30 3024 H 281.868 2.72751 2.8169 0
M  V30 3025 H 283.358 2.11931 3.59826 0
M  V30 3026 N 283.795 -0.628877 1.44509 0
M  V30 3027 C 284.725 -1.75187 1.54376 0
M  V30 3028 C 285.706 -1.65411 0.396618 0
M  V30 3029 O 286.891 -1.84137 0.617031 0
M  V30 3030 C 284.021 -3.13725 1.48976 0
M  V30 3031 C 282.975 -3.38291 2.62189 0
M  V30 3032 C 282.301 -4.76883 2.41841 0
M  V30 3033 C 283.601 -3.30632 4.04326 0
M  V30 3034 H 285.295 -1.67187 2.48373 0
M  V30 3035 H 282.841 -0.802909 1.19538 0
M  V30 3036 H 284.794 -3.92064 1.54478 0
M  V30 3037 H 283.518 -3.22515 0.514961 0
M  V30 3038 H 282.177 -2.62334 2.56079 0
M  V30 3039 H 281.825 -4.82378 1.42548 0
M  V30 3040 H 281.525 -4.94278 3.17747 0
M  V30 3041 H 283.049 -5.57449 2.49165 0
M  V30 3042 H 284.463 -3.98873 4.11793 0
M  V30 3043 H 282.86 -3.59561 4.80454 0
M  V30 3044 H 283.93 -2.28404 4.27738 0
M  V30 3045 N 285.273 -1.31445 -0.869486 0
M  V30 3046 C 286.183 -1.21097 -2.0093 0
M  V30 3047 C 287.199 -0.127584 -1.73532 0
M  V30 3048 O 288.375 -0.345477 -1.98415 0
M  V30 3049 C 285.44 -0.919378 -3.34288 0
M  V30 3050 C 284.501 -2.08971 -3.75006 0
M  V30 3051 C 283.734 -1.81194 -5.02001 0
M  V30 3052 O 283.957 -0.747296 -5.65484 0
M  V30 3053 O 282.891 -2.66883 -5.39497 0
M  V30 3054 H 286.717 -2.16883 -2.12592 0
M  V30 3055 H 284.302 -1.11189 -0.997868 0
M  V30 3056 H 286.184 -0.772625 -4.14257 0
M  V30 3057 H 284.859 0.00844772 -3.23699 0
M  V30 3058 H 283.766 -2.29187 -2.95676 0
M  V30 3059 H 285.099 -2.9998 -3.90221 0
M  V30 3060 N 286.751 1.08385 -1.14413 0
M  V30 3061 C 287.981 1.8425 -0.934644 0
M  V30 3062 C 288.389 1.81907 0.520234 0
M  V30 3063 O 287.732 1.22126 1.37226 0
M  V30 3064 C 287.794 3.32853 -1.35828 0
M  V30 3065 C 287.458 3.5893 -2.82875 0
M  V30 3066 C 288.455 3.53756 -3.80989 0
M  V30 3067 C 286.14 3.86934 -3.20293 0
M  V30 3068 C 288.134 3.76216 -5.14529 0
M  V30 3069 C 285.821 4.09047 -4.54008 0
M  V30 3070 C 286.819 4.03682 -5.50936 0
M  V30 3071 O 286.507 4.25214 -6.82238 0
M  V30 3072 H 286.239 0.588502 -0.332628 0
M  V30 3073 H 288.793 1.37792 -1.52324 0
M  V30 3074 H 287.023 3.8007 -0.713019 0
M  V30 3075 H 288.712 3.90154 -1.11957 0
M  V30 3076 H 289.478 3.32135 -3.53428 0
M  V30 3077 H 285.357 3.9023 -2.45442 0
M  V30 3078 H 288.901 3.71943 -5.90173 0
M  V30 3079 H 284.798 4.30151 -4.8129 0
M  V30 3080 H 285.566 4.42619 -6.88499 0
M  V30 3081 N 288.23 0.939286 1.26551 0
M  V30 3082 C 289.16 0.465044 2.28822 0
M  V30 3083 C 290.141 -0.480692 1.63167 0
M  V30 3084 O 291.326 -0.382955 1.90387 0
M  V30 3085 C 288.456 -0.27234 3.46231 0
M  V30 3086 C 287.41 0.58666 4.2396 0
M  V30 3087 C 286.736 -0.280573 5.33963 0
M  V30 3088 C 288.036 1.85704 4.88171 0
M  V30 3089 H 289.73 1.31979 2.68741 0
M  V30 3090 H 287.276 0.636061 1.29191 0
M  V30 3091 H 289.229 -0.615133 4.16886 0
M  V30 3092 H 287.953 -1.16121 3.0526 0
M  V30 3093 H 286.612 0.91232 3.55067 0
M  V30 3094 H 286.26 -1.16874 4.89234 0
M  V30 3095 H 285.96 0.29076 5.8688 0
M  V30 3096 H 287.484 -0.618678 6.07458 0
M  V30 3097 H 288.898 1.58161 5.51052 0
M  V30 3098 H 287.295 2.37279 5.51197 0
M  V30 3099 H 288.365 2.56957 4.11219 0
M  V30 3100 N 289.708 -1.40897 0.706093 0
M  V30 3101 C 290.658 -2.27987 0.0240746 0
M  V30 3102 C 291.642 -1.42759 -0.742204 0
M  V30 3103 O 292.834 -1.65936 -0.615966 0
M  V30 3104 C 289.963 -3.31186 -0.903907 0
M  V30 3105 C 289.049 -4.2389 -0.133318 0
M  V30 3106 N 289.44 -4.98113 0.878444 0
M  V30 3107 C 287.738 -4.44485 -0.367269 0
M  V30 3108 C 288.439 -5.6604 1.34064 0
M  V30 3109 N 287.415 -5.39522 0.664565 0
M  V30 3110 H 291.217 -2.82812 0.799658 0
M  V30 3111 H 288.731 -1.53235 0.537845 0
M  V30 3112 H 290.728 -3.92413 -1.40775 0
M  V30 3113 H 289.388 -2.77922 -1.67897 0
M  V30 3114 H 290.399 -5.02364 1.25901 0
M  V30 3115 H 287.076 -4.02213 -1.1194 0
M  V30 3116 H 288.466 -6.35524 2.1808 0
M  V30 3117 N 291.186 -0.45159 -1.50991 0
M  V30 3118 C 292.434 0.109857 -2.01801 0
M  V30 3119 C 292.755 1.41958 -1.3369 0
M  V30 3120 O 292.025 1.9003 -0.475951 0
M  V30 3121 H 290.605 0.0435884 -0.745727 0
M  V30 3122 H 293.267 -0.597557 -1.85514 0
M  V30 3123 H 292.363 0.275489 -3.10882 0
M  V30 3124 N 292.664 1.56529 -0.183458 0
M  V30 3125 C 293.611 2.18546 0.742055 0
M  V30 3126 C 294.581 1.12912 1.2182 0
M  V30 3127 O 295.766 1.41115 1.28418 0
M  V30 3128 C 292.906 2.83977 1.96089 0
M  V30 3129 C 292.019 4.04105 1.52719 0
M  V30 3130 C 291.154 4.57427 2.70063 0
M  V30 3131 C 290.193 5.69938 2.23243 0
M  V30 3132 N 289.33 6.17717 3.33722 0
M  V30 3133 H 294.17 2.97284 0.206432 0
M  V30 3134 H 291.707 1.46823 0.0901571 0
M  V30 3135 H 293.665 3.20077 2.67594 0
M  V30 3136 H 292.295 2.07822 2.47002 0
M  V30 3137 H 291.347 3.73745 0.708436 0
M  V30 3138 H 292.659 4.85513 1.1436 0
M  V30 3139 H 291.813 4.95772 3.49708 0
M  V30 3140 H 290.552 3.75101 3.11689 0
M  V30 3141 H 289.557 5.31133 1.42048 0
M  V30 3142 H 290.782 6.54073 1.82661 0
M  V30 3143 H 288.728 5.38317 3.74902 0
M  V30 3144 H 288.645 6.94146 2.99495 0
M  V30 3145 H 289.913 6.60713 4.13616 0
M  V30 3146 N 294.142 -0.090211 1.57342 0
M  V30 3147 C 295.39 -0.791241 1.85967 0
M  V30 3148 C 295.711 -1.7903 0.772859 0
M  V30 3149 O 294.981 -1.94872 -0.200398 0
M  V30 3150 H 293.561 -0.295205 0.686195 0
M  V30 3151 H 296.223 -0.0706782 1.94772 0
M  V30 3152 H 295.319 -1.31882 2.82867 0
M  V30 3153 N 295.62 -1.53406 -0.361157 0
M  V30 3154 C 296.869 -1.69022 -1.10066 0
M  V30 3155 C 297.182 -0.450838 -1.90333 0
M  V30 3156 O 298.388 -0.487617 -2.67085 0
M  V30 3157 C 296.844 -2.98812 -2.00598 0
M  V30 3158 C 296.452 -4.30027 -1.25621 0
M  V30 3159 C 298.196 -3.23795 -2.74513 0
M  V30 3160 C 296.103 -5.50903 -2.1508 0
M  V30 3161 H 295.033 -0.629776 -0.414606 0
M  V30 3162 H 297.684 -1.79907 -0.361348 0
M  V30 3163 H 296.066 -2.8174 -2.78278 0
M  V30 3164 H 297.24 -4.57745 -0.529739 0
M  V30 3165 H 295.555 -4.11522 -0.635496 0
M  V30 3166 H 298.152 -4.11289 -3.41681 0
M  V30 3167 H 298.495 -2.40045 -3.40123 0
M  V30 3168 H 299.028 -3.41561 -2.03914 0
M  V30 3169 H 295.767 -6.37143 -1.54041 0
M  V30 3170 H 295.287 -5.27459 -2.85565 0
M  V30 3171 H 296.966 -5.85865 -2.74538 0
M  V30 3172 N 297.098 0.621204 -1.44841 0
M  V30 3173 C 298.347 1.37658 -1.47422 0
M  V30 3174 C 298.66 1.95264 -0.114629 0
M  V30 3175 O 299.866 2.71494 -0.0180199 0
M  V30 3176 C 298.322 2.49285 -2.59586 0
M  V30 3177 C 297.93 1.98149 -4.01797 0
M  V30 3178 C 299.674 3.26409 -2.71399 0
M  V30 3179 C 297.581 3.07178 -5.05367 0
M  V30 3180 H 296.511 0.517344 -0.548517 0
M  V30 3181 H 299.162 0.667257 -1.70938 0
M  V30 3182 H 297.544 3.22839 -2.29328 0
M  V30 3183 H 298.718 1.31395 -4.41669 0
M  V30 3184 H 297.033 1.33812 -3.94314 0
M  V30 3185 H 299.63 4.07706 -3.45948 0
M  V30 3186 H 299.973 3.76535 -1.77559 0
M  V30 3187 H 300.506 2.5995 -3.01116 0
M  V30 3188 H 297.245 2.61985 -6.00869 0
M  V30 3189 H 296.765 3.72542 -4.70077 0
M  V30 3190 H 298.444 3.71789 -5.29511 0
M  V30 3191 N 298.576 1.31904 0.862503 0
M  V30 3192 C 299.526 1.16772 1.95827 0
M  V30 3193 C 300.51 0.0767098 1.60717 0
M  V30 3194 O 301.702 0.302407 1.74398 0
M  V30 3195 C 298.831 0.884858 3.317 0
M  V30 3196 C 297.917 2.0172 3.73055 0
M  V30 3197 N 298.308 3.265 3.86305 0
M  V30 3198 C 296.606 1.91861 4.02623 0
M  V30 3199 C 297.307 4.00616 4.2176 0
M  V30 3200 N 296.283 3.28847 4.32852 0
M  V30 3201 H 300.085 2.11382 2.04193 0
M  V30 3202 H 297.599 1.2357 1.05377 0
M  V30 3203 H 299.596 0.757419 4.09962 0
M  V30 3204 H 298.256 -0.0529448 3.24657 0
M  V30 3205 H 299.267 3.61529 3.70833 0
M  V30 3206 H 295.944 1.05593 4.03926 0
M  V30 3207 H 297.334 5.08182 4.39546 0
M  V30 3208 N 300.054 -1.07777 1.14986 0
M  V30 3209 C 301.47 -1.32373 0.891596 0
M  V30 3210 C 301.67 -1.9609 -0.463788 0
M  V30 3211 O 300.726 -2.21801 -1.20667 0
M  V30 3212 C 302.039 -2.21905 2.02925 0
M  V30 3213 C 303.587 -2.35367 2.06329 0
M  V30 3214 C 304.062 -3.28245 3.19405 0
M  V30 3215 N 305.553 -3.35824 3.19024 0
M  V30 3216 C 306.288 -4.07739 4.03158 0
M  V30 3217 N 305.784 -4.82306 4.97346 0
M  V30 3218 N 307.577 -4.03635 3.91197 0
M  V30 3219 H 299.728 -0.648039 2.02273 0
M  V30 3220 H 301.991 -0.348149 0.881757 0
M  V30 3221 H 301.697 -1.82342 3.0074 0
M  V30 3222 H 301.571 -3.22407 1.95789 0
M  V30 3223 H 303.958 -2.74186 1.09116 0
M  V30 3224 H 304.039 -1.34585 2.17533 0
M  V30 3225 H 303.683 -2.90146 4.16867 0
M  V30 3226 H 303.613 -4.28971 3.05437 0
M  V30 3227 H 306.104 -2.8267 2.50811 0
M  V30 3228 H 306.417 -5.34661 5.57994 0
M  V30 3229 H 304.762 -4.81337 5.01338 0
M  V30 3230 H 307.953 -3.44491 3.16928 0
M  V30 3231 H 308.126 -4.59417 4.5699 0
M  V30 3232 N 301.532 -0.945985 -1.26051 0
M  V30 3233 C 302.809 -0.513816 -1.88731 0
M  V30 3234 C 303.189 1.00872 -1.8544 0
M  V30 3235 O 302.537 1.8708 -1.312 0
M  V30 3236 C 302.747 -1.08062 -3.31849 0
M  V30 3237 C 304.095 -1.1522 -4.08668 0
M  V30 3238 O 305.119 -1.03155 -3.40936 0
M  V30 3239 O 303.978 -1.34044 -5.29806 0
M  V30 3240 H 301.072 -0.168193 -0.809716 0
M  V30 3241 H 303.618 -1.03886 -1.34186 0
M  V30 3242 H 302.39 -2.1241 -3.2863 0
M  V30 3243 H 302.013 -0.538307 -3.93939 0
M  V30 3244 N 303.011 1.40521 -0.713556 0
M  V30 3245 C 303.941 2.33381 -0.0743864 0
M  V30 3246 C 304.922 1.52784 0.747735 0
M  V30 3247 O 306.107 1.81258 0.697071 0
M  V30 3248 C 303.237 3.36748 0.849598 0
M  V30 3249 C 302.191 4.27793 0.133247 0
M  V30 3250 C 301.517 5.21679 1.17281 0
M  V30 3251 C 302.817 5.12415 -1.01134 0
M  V30 3252 H 304.511 2.87081 -0.850007 0
M  V30 3253 H 302.057 1.38034 -0.410201 0
M  V30 3254 H 304.01 4.00648 1.30612 0
M  V30 3255 H 302.734 2.81439 1.65709 0
M  V30 3256 H 301.393 3.65342 -0.303426 0
M  V30 3257 H 301.041 4.62677 1.9733 0
M  V30 3258 H 300.741 5.83435 0.698397 0
M  V30 3259 H 302.265 5.88456 1.62947 0
M  V30 3260 H 303.679 5.69781 -0.634274 0
M  V30 3261 H 302.076 5.83203 -1.41399 0
M  V30 3262 H 303.146 4.48514 -1.84292 0
M  V30 3263 N 304.489 0.459591 1.5075 0
M  V30 3264 C 305.436 -0.340524 2.28274 0
M  V30 3265 C 306.406 -0.997371 1.32822 0
M  V30 3266 O 307.591 -1.01202 1.61749 0
M  V30 3267 C 304.731 -1.42317 3.14388 0
M  V30 3268 C 303.844 -0.782251 4.24859 0
M  V30 3269 C 302.979 -1.84182 4.98247 0
M  V30 3270 C 302.018 -1.18053 6.00608 0
M  V30 3271 N 301.155 -2.18244 6.67319 0
M  V30 3272 H 305.995 0.326899 2.96202 0
M  V30 3273 H 303.532 0.173057 1.46078 0
M  V30 3274 H 305.49 -2.06241 3.62658 0
M  V30 3275 H 304.12 -2.05992 2.4853 0
M  V30 3276 H 303.172 -0.0307404 3.80388 0
M  V30 3277 H 304.484 -0.259663 4.98124 0
M  V30 3278 H 303.638 -2.55714 5.50177 0
M  V30 3279 H 302.377 -2.39819 4.24662 0
M  V30 3280 H 301.382 -0.450776 5.47949 0
M  V30 3281 H 302.607 -0.631202 6.7616 0
M  V30 3282 H 300.553 -2.72919 5.96533 0
M  V30 3283 H 300.47 -1.70938 7.36421 0
M  V30 3284 H 301.738 -2.89191 7.23871 0
M  V30 3285 N 305.967 -1.56429 0.191757 0
M  V30 3286 C 307.378 -1.83912 -0.321428 0
M  V30 3287 C 307.729 -1.11231 -1.61623 0
M  V30 3288 O 306.854 -0.37202 -2.13178 0
M  V30 3289 C 307.449 -3.33624 -0.589961 0
M  V30 3290 C 306.008 -3.6153 -1.04753 0
M  V30 3291 C 305.155 -2.7714 -0.0943327 0
M  V30 3292 H 308.106 -1.53161 0.415612 0
M  V30 3293 H 308.127 -3.52213 -1.43966 0
M  V30 3294 H 307.639 -3.86495 0.352588 0
M  V30 3295 H 305.74 -3.14089 -2.00447 0
M  V30 3296 H 305.853 -4.69737 -0.942549 0
M  V30 3297 H 304.217 -2.47638 -0.595589 0
M  V30 3298 H 305 -3.32799 0.842601 0
M  V30 3299 N 307.445 0.0818655 -1.57387 0
M  V30 3300 C 308.355 1.11642 -2.06333 0
M  V30 3301 C 309.371 1.43033 -0.99083 0
M  V30 3302 O 310.547 1.53411 -1.30488 0
M  V30 3303 C 307.612 2.41342 -2.48907 0
M  V30 3304 C 306.673 2.17014 -3.7041 0
M  V30 3305 C 305.906 3.4053 -4.10944 0
M  V30 3306 O 306.129 4.4927 -3.51444 0
M  V30 3307 O 305.063 3.29336 -5.03807 0
M  V30 3308 H 308.889 0.730657 -2.9478 0
M  V30 3309 H 306.474 0.295301 -1.46452 0
M  V30 3310 H 308.356 3.17691 -2.76858 0
M  V30 3311 H 307.031 2.79319 -1.63593 0
M  V30 3312 H 305.938 1.38403 -3.47556 0
M  V30 3313 H 307.271 1.83923 -4.56545 0
M  V30 3314 N 308.923 1.53595 0.353017 0
M  V30 3315 C 309.871 1.81605 1.45335 0
M  V30 3316 C 310.865 0.685923 1.54892 0
M  V30 3317 O 312.071 0.869095 1.57628 0
M  V30 3318 H 308.446 0.575204 0.484401 0
M  V30 3319 H 310.417 2.73679 1.18921 0
M  V30 3320 C 309.166 2.03406 2.81995 0
M  V30 3321 H 308.489 2.89814 2.75405 0
M  V30 3322 H 309.929 2.26975 3.58132 0
M  V30 3323 C 308.388 0.816794 3.26849 0
M  V30 3324 O 308.918 0.0115856 4.01698 0
M  V30 3325 N 307.124 0.636682 2.8354 0
M  V30 3326 H 306.671 1.2931 2.22793 0
M  V30 3327 H 306.629 -0.176336 3.13905 0
M  V30 3328 N 310.401 -0.613514 1.45168 0
M  V30 3329 C 311.65 -1.36874 1.4815 0
M  V30 3330 C 311.963 -1.952 0.124982 0
M  V30 3331 O 313.169 -2.71481 0.0324176 0
M  V30 3332 C 311.625 -2.47905 2.60904 0
M  V30 3333 C 311.233 -1.96016 4.02842 0
M  V30 3334 C 312.977 -3.24965 2.73126 0
M  V30 3335 C 310.884 -3.04494 5.06988 0
M  V30 3336 H 309.814 -0.514428 0.551253 0
M  V30 3337 H 312.465 -0.658182 1.7129 0
M  V30 3338 H 310.847 -3.21618 2.31037 0
M  V30 3339 H 312.021 -1.29051 4.4236 0
M  V30 3340 H 310.336 -1.31719 3.95018 0
M  V30 3341 H 312.933 -4.05865 3.48106 0
M  V30 3342 H 313.276 -3.75588 1.79553 0
M  V30 3343 H 313.809 -2.5835 3.0249 0
M  V30 3344 H 310.548 -2.58795 6.0225 0
M  V30 3345 H 310.068 -3.70044 4.72046 0
M  V30 3346 H 311.747 -3.68976 5.31475 0
M  V30 3347 N 311.879 -1.3236 -0.855495 0
M  V30 3348 C 312.809 -1.23833 -1.97958 0
M  V30 3349 C 313.79 -0.122361 -1.69659 0
M  V30 3350 O 314.975 -0.30939 -1.9172 0
M  V30 3351 C 312.105 -0.959772 -3.33775 0
M  V30 3352 C 311.059 -2.03689 -3.76424 0
M  V30 3353 C 310.385 -1.61075 -5.09862 0
M  V30 3354 C 311.685 -3.4518 -3.9198 0
M  V30 3355 H 313.379 -2.1788 -2.0535 0
M  V30 3356 H 310.925 -1.04891 -0.986605 0
M  V30 3357 H 312.878 -0.886678 -4.11966 0
M  V30 3358 H 311.602 0.0163404 -3.26596 0
M  V30 3359 H 310.261 -2.10012 -3.00484 0
M  V30 3360 H 309.909 -0.622107 -4.99138 0
M  V30 3361 H 309.609 -2.33143 -5.39368 0
M  V30 3362 H 311.133 -1.55201 -5.90546 0
M  V30 3363 H 312.547 -3.4145 -4.60526 0
M  V30 3364 H 310.944 -4.1559 -4.32903 0
M  V30 3365 H 312.014 -3.84903 -2.94919 0
M  V30 3366 N 313.357 1.07166 -1.15556 0
M  V30 3367 C 314.287 2.16403 -0.877046 0
M  V30 3368 C 315.268 1.69217 0.173111 0
M  V30 3369 O 316.453 1.94181 0.027084 0
M  V30 3370 C 313.583 3.45349 -0.367632 0
M  V30 3371 C 312.537 4.05995 -1.35468 0
M  V30 3372 C 311.863 5.30045 -0.704038 0
M  V30 3373 C 313.163 4.45804 -2.72132 0
M  V30 3374 H 314.857 2.39959 -1.79053 0
M  V30 3375 H 312.403 1.15325 -0.862331 0
M  V30 3376 H 314.356 4.21095 -0.160317 0
M  V30 3377 H 313.08 3.21385 0.581326 0
M  V30 3378 H 311.739 3.32296 -1.54839 0
M  V30 3379 H 311.387 5.02373 0.251128 0
M  V30 3380 H 311.087 5.71579 -1.36277 0
M  V30 3381 H 312.611 6.08495 -0.50654 0
M  V30 3382 H 314.025 5.12671 -2.56595 0
M  V30 3383 H 312.422 4.98296 -3.34397 0
M  V30 3384 H 313.492 3.57083 -3.28054 0
M  V30 3385 N 314.835 0.952656 1.25548 0
M  V30 3386 C 315.783 0.462354 2.27958 0
M  V30 3387 C 316.777 -0.46634 1.62855 0
M  V30 3388 O 317.983 -0.343287 1.76696 0
M  V30 3389 H 314.358 0.13101 0.7405 0
M  V30 3390 H 316.329 1.33839 2.66702 0
M  V30 3391 C 315.078 -0.24628 3.46827 0
M  V30 3392 H 314.401 0.459192 3.97154 0
M  V30 3393 H 315.841 -0.553393 4.20373 0
M  V30 3394 C 314.3 -1.4681 3.0323 0
M  V30 3395 O 314.83 -2.56591 3.09069 0
M  V30 3396 N 313.036 -1.32874 2.58443 0
M  V30 3397 H 312.583 -0.435536 2.53891 0
M  V30 3398 H 312.541 -2.14742 2.29637 0
M  V30 3399 N 316.313 -1.40141 0.720998 0
M  V30 3400 C 317.223 -2.34486 0.0731031 0
M  V30 3401 C 318.239 -1.57587 -0.737723 0
M  V30 3402 O 319.415 -1.89949 -0.669429 0
M  V30 3403 C 316.48 -3.36528 -0.833656 0
M  V30 3404 C 315.541 -4.29298 -0.0121673 0
M  V30 3405 C 314.774 -5.26466 -0.875742 0
M  V30 3406 O 314.997 -5.29745 -2.11485 0
M  V30 3407 O 313.931 -6.01092 -0.31185 0
M  V30 3408 H 317.757 -2.9152 0.851444 0
M  V30 3409 H 315.342 -1.41427 0.481527 0
M  V30 3410 H 317.224 -3.99093 -1.35289 0
M  V30 3411 H 315.899 -2.81899 -1.59105 0
M  V30 3412 H 314.806 -3.70001 0.552262 0
M  V30 3413 H 316.139 -4.87094 0.707129 0
M  V30 3414 N 317.792 -0.46758 -1.50504 0
M  V30 3415 C 319.069 0.15003 -1.95024 0
M  V30 3416 C 319.449 1.57304 -1.40779 0
M  V30 3417 O 318.797 2.20281 -0.607319 0
M  V30 3418 C 319.007 0.0969324 -3.48865 0
M  V30 3419 C 320.355 0.287565 -4.23625 0
M  V30 3420 O 321.379 0.173678 -3.55776 0
M  V30 3421 O 320.238 0.517186 -5.44047 0
M  V30 3422 H 317.332 0.113582 -0.819163 0
M  V30 3423 H 319.878 -0.52773 -1.61286 0
M  V30 3424 H 318.65 -0.896732 -3.80886 0
M  V30 3425 H 318.273 0.816303 -3.8913 0
M  V30 3426 N 319.27 1.56325 -0.20005 0
M  V30 3427 C 320.203 2.15234 0.758267 0
M  V30 3428 C 321.181 1.09046 1.20614 0
M  V30 3429 O 322.365 1.37186 1.29276 0
M  V30 3430 C 319.492 2.71524 2.02466 0
M  V30 3431 C 318.538 3.90345 1.71852 0
M  V30 3432 S 319.371 5.28513 0.862249 0
M  V30 3433 C 320.527 5.88227 2.13868 0
M  V30 3434 H 320.76 2.96183 0.2575 0
M  V30 3435 H 318.293 1.54393 0.0150099 0
M  V30 3436 H 320.251 3.04598 2.75191 0
M  V30 3437 H 318.912 1.90607 2.49655 0
M  V30 3438 H 318.105 4.28158 2.65888 0
M  V30 3439 H 317.707 3.58306 1.07205 0
M  V30 3440 H 319.999 6.02891 3.09076 0
M  V30 3441 H 320.942 6.84714 1.80479 0
M  V30 3442 H 321.35 5.16874 2.2694 0
M  V30 3443 N 320.748 -0.0735177 1.57428 0
M  V30 3444 C 321.698 -1.09442 2.00016 0
M  V30 3445 C 322.682 -1.34575 0.881947 0
M  V30 3446 O 323.874 -1.34905 1.14585 0
M  V30 3447 C 321.003 -2.40865 2.4462 0
M  V30 3448 C 320.089 -2.19014 3.63172 0
M  V30 3449 N 320.48 -1.67087 4.77405 0
M  V30 3450 C 318.778 -2.49494 3.69688 0
M  V30 3451 C 319.479 -1.6001 5.5926 0
M  V30 3452 N 318.455 -2.05999 5.03056 0
M  V30 3453 H 322.257 -0.686227 2.85776 0
M  V30 3454 H 319.771 -0.280617 1.59957 0
M  V30 3455 H 321.768 -3.14763 2.73368 0
M  V30 3456 H 320.428 -2.82403 1.60246 0
M  V30 3457 H 321.439 -1.35975 4.99731 0
M  V30 3458 H 318.116 -2.94409 2.96023 0
M  V30 3459 H 319.506 -1.2073 6.60964 0
M  V30 3460 N 322.226 -1.5378 -0.344866 0
M  V30 3461 C 323.475 -1.7018 -1.08267 0
M  V30 3462 C 323.788 -0.471 -1.89845 0
M  V30 3463 O 324.994 -0.515917 -2.66553 0
M  V30 3464 C 323.45 -3.00923 -1.97417 0
M  V30 3465 C 323.058 -4.31335 -1.21053 0
M  V30 3466 C 324.802 -3.26688 -2.71063 0
M  V30 3467 C 322.709 -5.53153 -2.09225 0
M  V30 3468 H 321.639 -0.634138 -0.407903 0
M  V30 3469 H 324.29 -1.8028 -0.342246 0
M  V30 3470 H 322.672 -2.84676 -2.75274 0
M  V30 3471 H 323.846 -4.58281 -0.481159 0
M  V30 3472 H 322.161 -4.12173 -0.591813 0
M  V30 3473 H 324.758 -4.1489 -3.37299 0
M  V30 3474 H 325.101 -2.43639 -3.37558 0
M  V30 3475 H 325.634 -3.43705 -2.0028 0
M  V30 3476 H 322.373 -6.38741 -1.47274 0
M  V30 3477 H 321.893 -5.30458 -2.79955 0
M  V30 3478 H 323.572 -5.88744 -2.68308 0
M  V30 3479 N 323.704 0.605807 -1.45491 0
M  V30 3480 C 324.636 1.73031 -1.5031 0
M  V30 3481 C 325.649 1.57968 -0.393687 0
M  V30 3482 O 326.838 1.65817 -0.660839 0
M  V30 3483 C 323.938 3.11049 -1.34543 0
M  V30 3484 C 323.111 3.52334 -2.59189 0
M  V30 3485 C 322.17 4.69323 -2.37954 0
M  V30 3486 O 321.196 4.7635 -3.11575 0
M  V30 3487 N 322.398 5.62705 -1.4263 0
M  V30 3488 H 325.163 1.6936 -2.4726 0
M  V30 3489 H 322.724 0.79114 -1.41254 0
M  V30 3490 H 324.716 3.87071 -1.18144 0
M  V30 3491 H 323.286 3.09217 -0.458623 0
M  V30 3492 H 322.506 2.66256 -2.90691 0
M  V30 3493 H 323.794 3.76677 -3.42041 0
M  V30 3494 H 323.192 5.59744 -0.818758 0
M  V30 3495 H 321.749 6.38252 -1.32202 0
M  V30 3496 N 325.182 1.32811 0.848464 0
M  V30 3497 C 326.431 1.23075 1.59798 0
M  V30 3498 C 326.744 -0.204419 1.94529 0
M  V30 3499 O 327.95 -0.423701 2.68173 0
M  V30 3500 C 326.406 2.15594 2.88179 0
M  V30 3501 C 326.014 3.64228 2.60849 0
M  V30 3502 C 327.758 2.14709 3.66197 0
M  V30 3503 C 325.665 4.48689 3.85269 0
M  V30 3504 H 324.595 0.457091 0.599653 0
M  V30 3505 H 327.246 1.57813 0.936342 0
M  V30 3506 H 325.628 1.73778 3.55833 0
M  V30 3507 H 326.802 4.14424 2.01467 0
M  V30 3508 H 325.117 3.67306 1.96151 0
M  V30 3509 H 327.714 2.75046 4.58534 0
M  V30 3510 H 328.057 1.13966 4.00397 0
M  V30 3511 H 328.59 2.54837 3.05455 0
M  V30 3512 H 325.329 5.5027 3.56207 0
M  V30 3513 H 324.849 4.03241 4.44024 0
M  V30 3514 H 326.528 4.62006 4.52946 0
M  V30 3515 N 326.66 -1.06551 1.16123 0
M  V30 3516 C 327.888 -1.83005 0.965237 0
M  V30 3517 C 328.303 -1.82423 -0.486542 0
M  V30 3518 O 327.66 -1.24152 -1.33763 0
M  V30 3519 C 327.711 -3.29733 1.48183 0
M  V30 3520 O 327.432 -3.30416 2.87674 0
M  V30 3521 C 328.933 -4.22926 1.32848 0
M  V30 3522 H 326.153 -0.577118 0.342309 0
M  V30 3523 H 328.697 -1.3445 1.54089 0
M  V30 3524 H 326.852 -3.75609 0.948517 0
M  V30 3525 H 327.266 -4.22149 3.11272 0
M  V30 3526 H 328.74 -5.23916 1.73827 0
M  V30 3527 H 329.217 -4.38346 0.273692 0
M  V30 3528 H 329.823 -3.82894 1.85127 0
M  V30 3529 N 328.138 -0.959301 -1.25041 0
M  V30 3530 C 329.415 -0.533805 -1.88175 0
M  V30 3531 C 329.795 0.988994 -1.865 0
M  V30 3532 O 329.143 1.85677 -1.33177 0
M  V30 3533 C 329.353 -1.11575 -3.30684 0
M  V30 3534 C 330.701 -1.19548 -4.07423 0
M  V30 3535 O 331.725 -1.06765 -3.39823 0
M  V30 3536 O 330.584 -1.39656 -5.28354 0
M  V30 3537 H 327.678 -0.176772 -0.807887 0
M  V30 3538 H 330.224 -1.05303 -1.33076 0
M  V30 3539 H 328.996 -2.15884 -3.26358 0
M  V30 3540 H 328.619 -0.580059 -3.93346 0
M  V30 3541 N 329.616 1.39756 -0.72842 0
M  V30 3542 C 330.863 2.00645 -0.273487 0
M  V30 3543 C 331.191 1.57786 1.13727 0
M  V30 3544 O 330.446 0.794886 1.7883 0
M  V30 3545 C 330.745 3.56002 -0.315776 0
M  V30 3546 C 330.411 4.18489 -1.67863 0
M  V30 3547 C 329.073 4.3527 -2.05166 0
M  V30 3548 C 331.425 4.53219 -2.57375 0
M  V30 3549 C 328.753 4.84069 -3.31503 0
M  V30 3550 C 331.105 5.03423 -3.83077 0
M  V30 3551 C 329.769 5.18413 -4.20481 0
M  V30 3552 H 329.039 0.734211 -0.100076 0
M  V30 3553 H 331.686 1.6718 -0.933972 0
M  V30 3554 H 329.991 3.89452 0.428285 0
M  V30 3555 H 331.688 4.00963 0.0542575 0
M  V30 3556 H 328.278 4.05824 -1.37858 0
M  V30 3557 H 332.462 4.39878 -2.29827 0
M  V30 3558 H 327.718 4.93859 -3.60435 0
M  V30 3559 H 331.892 5.2927 -4.52599 0
M  V30 3560 H 329.519 5.55987 -5.18443 0
M  V30 3561 N 331.094 0.475555 1.50254 0
M  V30 3562 C 332.342 -0.077738 2.0195 0
M  V30 3563 C 332.663 -1.39813 1.35931 0
M  V30 3564 O 331.933 -1.89249 0.506123 0
M  V30 3565 H 330.513 -0.031719 0.746326 0
M  V30 3566 H 333.175 0.626995 1.84539 0
M  V30 3567 H 332.271 -0.225995 3.11281 0
M  V30 3568 N 332.573 -1.56217 0.208337 0
M  V30 3569 C 333.801 -2.02337 -0.43215 0
M  V30 3570 C 334.216 -1.08834 -1.54275 0
M  V30 3571 O 333.573 -0.0955462 -1.8225 0
M  V30 3572 C 333.624 -3.48072 -0.976138 0
M  V30 3573 O 333.345 -4.38007 0.0901621 0
M  V30 3574 C 334.846 -4.09773 -1.69119 0
M  V30 3575 H 332.066 -0.662385 -0.10718 0
M  V30 3576 H 334.61 -2.01966 0.320923 0
M  V30 3577 H 332.765 -3.49099 -1.67954 0
M  V30 3578 H 333.179 -5.23543 -0.316701 0
M  V30 3579 H 334.653 -5.13556 -2.02397 0
M  V30 3580 H 335.13 -3.53999 -2.59964 0
M  V30 3581 H 335.736 -4.12556 -1.03332 0
M  V30 3582 N 334.051 0.0651679 -1.57465 0
M  V30 3583 C 335.014 1.06117 -2.03155 0
M  V30 3584 C 336.014 1.31204 -0.929632 0
M  V30 3585 O 337.204 1.26813 -1.19432 0
M  V30 3586 C 334.336 2.4032 -2.41783 0
M  V30 3587 H 335.529 0.667231 -2.92383 0
M  V30 3588 H 333.082 0.311075 -1.53173 0
M  V30 3589 H 333.817 2.84532 -1.55601 0
M  V30 3590 H 333.602 2.23451 -3.22199 0
M  V30 3591 H 335.092 3.11898 -2.77685 0
M  V30 3592 N 335.529 1.53961 0.336706 0
M  V30 3593 C 336.476 1.82428 1.41381 0
M  V30 3594 C 337.446 0.670444 1.51968 0
M  V30 3595 O 338.631 0.915565 1.67398 0
M  V30 3596 C 335.771 2.04564 2.77934 0
M  V30 3597 C 334.884 3.32267 2.76084 0
M  V30 3598 C 334.019 3.44434 4.04399 0
M  V30 3599 C 333.058 4.66061 3.96804 0
M  V30 3600 N 332.195 4.75224 5.16823 0
M  V30 3601 H 337.035 2.74324 1.16405 0
M  V30 3602 H 334.572 1.35869 0.563752 0
M  V30 3603 H 336.53 2.15388 3.57301 0
M  V30 3604 H 335.16 1.15974 3.01247 0
M  V30 3605 H 334.212 3.3025 1.88784 0
M  V30 3606 H 335.524 4.21733 2.66351 0
M  V30 3607 H 334.678 3.54728 4.92192 0
M  V30 3608 H 333.417 2.53037 4.16921 0
M  V30 3609 H 332.422 4.55838 3.07396 0
M  V30 3610 H 333.647 5.58829 3.85858 0
M  V30 3611 H 331.593 3.86739 5.29876 0
M  V30 3612 H 331.51 5.58636 5.09374 0
M  V30 3613 H 332.778 4.89835 6.06367 0
M  V30 3614 N 337.007 -0.598083 1.45811 0
M  V30 3615 C 338.253 -1.35882 1.50545 0
M  V30 3616 C 338.586 -1.93616 0.150445 0
M  V30 3617 O 337.861 -1.75604 -0.83628 0
M  V30 3618 C 338.144 -2.49966 2.59208 0
M  V30 3619 C 337.997 -1.97367 4.04186 0
M  V30 3620 C 339.316 -3.52068 2.64076 0
M  V30 3621 H 336.435 -0.492717 0.548087 0
M  V30 3622 H 339.077 -0.673319 1.77669 0
M  V30 3623 H 337.227 -3.08443 2.3621 0
M  V30 3624 H 338.899 -1.43466 4.38423 0
M  V30 3625 H 337.142 -1.283 4.14393 0
M  V30 3626 H 337.813 -2.79649 4.75921 0
M  V30 3627 H 340.289 -3.03448 2.84708 0
M  V30 3628 H 339.165 -4.2937 3.41954 0
M  V30 3629 H 339.426 -4.08304 1.69531 0
M  V30 3630 N 338.485 -1.33259 -0.841409 0
M  V30 3631 C 339.415 -1.25926 -1.96634 0
M  V30 3632 C 340.396 -0.140349 -1.6952 0
M  V30 3633 O 341.581 -0.329707 -1.91381 0
M  V30 3634 C 338.711 -0.99512 -3.32738 0
M  V30 3635 C 337.665 -2.0767 -3.74242 0
M  V30 3636 C 336.991 -1.66474 -5.08125 0
M  V30 3637 C 338.291 -3.49318 -3.88297 0
M  V30 3638 H 339.985 -2.20046 -2.03027 0
M  V30 3639 H 337.531 -1.05931 -0.975425 0
M  V30 3640 H 339.484 -0.930323 -4.11002 0
M  V30 3641 H 338.208 -0.0183004 -3.26595 0
M  V30 3642 H 336.867 -2.13187 -2.98239 0
M  V30 3643 H 336.515 -0.675012 -4.9845 0
M  V30 3644 H 336.215 -2.3885 -5.36865 0
M  V30 3645 H 337.739 -1.61455 -5.88867 0
M  V30 3646 H 339.153 -3.46316 -4.56879 0
M  V30 3647 H 337.55 -4.20158 -4.28471 0
M  V30 3648 H 338.62 -3.8801 -2.9082 0
M  V30 3649 N 339.963 1.05934 -1.16686 0
M  V30 3650 C 341.188 1.83029 -0.975455 0
M  V30 3651 C 341.613 1.82096 0.471452 0
M  V30 3652 O 340.971 1.22443 1.33706 0
M  V30 3653 C 341.019 3.27372 -1.51195 0
M  V30 3654 O 340.123 4.06054 -0.720701 0
M  V30 3655 H 339.464 0.566194 -0.346872 0
M  V30 3656 H 341.994 1.33541 -1.55009 0
M  V30 3657 H 342.004 3.78186 -1.53099 0
M  V30 3658 H 340.679 3.27366 -2.56523 0
M  V30 3659 H 339.256 3.64812 -0.772458 0
M  V30 3660 N 341.441 0.965919 1.2453 0
M  V30 3661 C 342.852 0.665929 1.7442 0
M  V30 3662 C 343.203 -0.818407 1.78316 0
M  V30 3663 O 342.328 -1.64037 1.41141 0
M  V30 3664 C 342.923 1.20211 3.16757 0
M  V30 3665 C 341.482 0.952059 3.6416 0
M  V30 3666 C 340.629 1.33848 2.42858 0
M  V30 3667 H 343.58 1.14144 1.10258 0
M  V30 3668 H 343.601 0.567544 3.76244 0
M  V30 3669 H 343.113 2.28244 3.13889 0
M  V30 3670 H 341.214 -0.112821 3.72429 0
M  V30 3671 H 341.327 1.59645 4.51719 0
M  V30 3672 H 339.691 0.756864 2.43195 0
M  V30 3673 H 340.474 2.42827 2.42673 0
M  V30 3674 N 342.919 -1.39368 0.735821 0
M  V30 3675 C 343.829 -2.34395 0.0979693 0
M  V30 3676 C 344.845 -1.58361 -0.720968 0
M  V30 3677 O 346.021 -1.90648 -0.649245 0
M  V30 3678 C 343.086 -3.37393 -0.797916 0
M  V30 3679 C 342.147 -4.29287 0.0333662 0
M  V30 3680 C 341.38 -5.27365 -0.819854 0
M  V30 3681 O 341.603 -5.31959 -2.05855 0
M  V30 3682 O 340.537 -6.01389 -0.248079 0
M  V30 3683 H 344.363 -2.90601 0.882315 0
M  V30 3684 H 341.948 -1.40909 0.4965 0
M  V30 3685 H 343.83 -4.00505 -1.31048 0
M  V30 3686 H 342.505 -2.83571 -1.56106 0
M  V30 3687 H 341.412 -3.69395 0.591475 0
M  V30 3688 H 342.745 -4.86317 0.758752 0
M  V30 3689 N 344.397 -0.483516 -1.5 0
M  V30 3690 C 345.622 0.0667119 -2.07293 0
M  V30 3691 C 346.047 1.3164 -1.3436 0
M  V30 3692 O 345.405 1.76945 -0.394987 0
M  V30 3693 C 345.453 0.321126 -3.59167 0
M  V30 3694 O 344.557 1.39927 -3.87936 0
M  V30 3695 H 343.898 -0.0184758 -0.663743 0
M  V30 3696 H 346.428 -0.678125 -1.93035 0
M  V30 3697 H 346.438 0.557906 -4.04168 0
M  V30 3698 H 345.113 -0.592007 -4.11665 0
M  V30 3699 H 343.69 1.14882 -3.54763 0
M  V30 3700 N 345.875 1.56104 -0.216619 0
M  V30 3701 C 346.822 2.2007 0.695531 0
M  V30 3702 C 347.792 1.15471 1.19397 0
M  V30 3703 O 348.977 1.43807 1.25396 0
M  V30 3704 C 346.117 2.88073 1.90021 0
M  V30 3705 C 345.23 4.07253 1.44113 0
M  V30 3706 C 344.365 4.63052 2.603 0
M  V30 3707 C 343.404 5.74545 2.11103 0
M  V30 3708 N 342.541 6.24656 3.20545 0
M  V30 3709 H 347.381 2.97655 0.143327 0
M  V30 3710 H 344.918 1.46982 0.0589934 0
M  V30 3711 H 346.876 3.25681 2.60745 0
M  V30 3712 H 345.506 2.13015 2.42538 0
M  V30 3713 H 344.558 3.75164 0.628999 0
M  V30 3714 H 345.87 4.8783 1.04036 0
M  V30 3715 H 345.024 5.03078 3.39113 0
M  V30 3716 H 343.763 3.81628 3.03663 0
M  V30 3717 H 342.768 5.34027 1.3075 0
M  V30 3718 H 343.993 6.57801 1.68746 0
M  V30 3719 H 341.939 5.46148 3.63399 0
M  V30 3720 H 341.856 7.00343 2.84704 0
M  V30 3721 H 343.124 6.69338 3.99508 0
M  V30 3722 N 347.353 -0.0568162 1.57498 0
M  V30 3723 C 348.285 -1.09292 2.01464 0
M  V30 3724 C 349.298 -1.34112 0.922913 0
M  V30 3725 O 350.487 -1.32089 1.20062 0
M  V30 3726 C 347.587 -2.44068 2.35125 0
M  V30 3727 C 346.76 -2.38995 3.66333 0
M  V30 3728 C 345.819 -3.55997 3.87495 0
M  V30 3729 O 344.845 -3.36746 4.58901 0
M  V30 3730 N 346.047 -4.76888 3.30996 0
M  V30 3731 H 348.812 -0.718386 2.90963 0
M  V30 3732 H 346.373 -0.245235 1.60032 0
M  V30 3733 H 348.365 -3.21011 2.46443 0
M  V30 3734 H 346.935 -2.73468 1.5144 0
M  V30 3735 H 346.155 -1.47336 3.65631 0
M  V30 3736 H 347.443 -2.3272 4.52458 0
M  V30 3737 H 346.841 -4.95431 2.73065 0
M  V30 3738 H 345.398 -5.51291 3.47738 0
M  V30 3739 N 348.832 -1.54138 -0.328536 0
M  V30 3740 C 349.795 -1.82462 -1.38709 0
M  V30 3741 C 350.795 -0.696229 -1.44946 0
M  V30 3742 O 351.985 -0.964535 -1.4506 0
M  V30 3743 C 349.117 -1.98018 -2.77492 0
M  V30 3744 H 350.31 -2.77037 -1.14851 0
M  V30 3745 H 347.863 -1.45779 -0.563751 0
M  V30 3746 H 348.598 -1.05637 -3.06613 0
M  V30 3747 H 348.383 -2.80124 -2.74359 0
M  V30 3748 H 349.873 -2.21396 -3.54081 0
M  V30 3749 N 350.31 0.590341 -1.46126 0
M  V30 3750 C 351.726 0.912917 -1.30912 0
M  V30 3751 C 351.926 1.99616 -0.274893 0
M  V30 3752 O 350.982 2.50397 0.325197 0
M  V30 3753 C 352.295 1.3375 -2.69317 0
M  V30 3754 C 353.843 1.45077 -2.77348 0
M  V30 3755 C 354.318 1.90904 -4.16317 0
M  V30 3756 N 355.809 1.9811 -4.18696 0
M  V30 3757 C 356.544 2.34828 -5.23109 0
M  V30 3758 N 356.04 2.70393 -6.37856 0
M  V30 3759 N 357.833 2.35317 -5.10473 0
M  V30 3760 H 349.984 -0.125358 -2.1203 0
M  V30 3761 H 352.247 0.00658481 -0.947977 0
M  V30 3762 H 351.953 0.615614 -3.4627 0
M  V30 3763 H 351.827 2.30058 -2.9892 0
M  V30 3764 H 354.214 2.16353 -2.00687 0
M  V30 3765 H 354.295 0.4704 -2.51438 0
M  V30 3766 H 353.939 1.20209 -4.9347 0
M  V30 3767 H 353.869 2.89886 -4.39629 0
M  V30 3768 H 356.36 1.73146 -3.359 0
M  V30 3769 H 356.673 2.97341 -7.13308 0
M  V30 3770 H 355.018 2.68048 -6.41229 0
M  V30 3771 H 358.209 2.0695 -4.19868 0
M  V30 3772 H 358.382 2.63605 -5.9196 0
M  V30 3773 N 351.788 1.33704 0.83433 0
M  V30 3774 C 352.751 1.24244 1.92603 0
M  V30 3775 C 353.751 0.160383 1.59998 0
M  V30 3776 O 354.941 0.412228 1.69252 0
M  V30 3777 C 352.073 0.91555 3.28376 0
M  V30 3778 H 353.266 2.21287 2.02416 0
M  V30 3779 H 350.819 1.17827 1.02696 0
M  V30 3780 H 351.554 -0.0521886 3.24258 0
M  V30 3781 H 351.339 1.69811 3.53422 0
M  V30 3782 H 352.829 0.874231 4.08347 0
M  V30 3783 N 353.266 -1.05314 1.17247 0
M  V30 3784 C 354.214 -2.15137 0.884238 0
M  V30 3785 C 355.208 -1.68729 -0.15063 0
M  V30 3786 O 356.414 -1.8 -0.00366673 0
M  V30 3787 H 352.789 -0.702471 0.2684 0
M  V30 3788 H 354.76 -2.36652 1.81764 0
M  V30 3789 C 353.509 -3.45243 0.412659 0
M  V30 3790 H 352.832 -3.81352 1.20043 0
M  V30 3791 H 354.272 -4.23263 0.249858 0
M  V30 3792 C 352.731 -3.25487 -0.86948 0
M  V30 3793 O 353.261 -3.51938 -1.93655 0
M  V30 3794 N 351.467 -2.78875 -0.817147 0
M  V30 3795 H 351.014 -2.57549 0.0514211 0
M  V30 3796 H 350.972 -2.66036 -1.67547 0
M  V30 3797 N 354.744 -0.972509 -1.24016 0
M  V30 3798 C 355.969 -0.654417 -1.96805 0
M  V30 3799 C 356.394 0.770398 -1.716 0
M  V30 3800 O 355.752 1.52361 -0.982647 0
M  V30 3801 C 355.8 -0.941031 -3.48105 0
M  V30 3802 O 354.904 -0.0289472 -4.1239 0
M  V30 3803 H 354.245 -0.24692 -0.616382 0
M  V30 3804 H 356.775 -1.30396 -1.57664 0
M  V30 3805 H 356.785 -0.87452 -3.98517 0
M  V30 3806 H 355.46 -1.97939 -3.65777 0
M  V30 3807 H 354.037 -0.149192 -3.72601 0
M  V30 3808 N 356.222 1.38976 -0.743202 0
M  V30 3809 C 357.469 2.00343 -0.294752 0
M  V30 3810 C 357.797 1.58983 1.12047 0
M  V30 3811 O 357.052 0.813809 1.77977 0
M  V30 3812 C 357.351 3.55647 -0.353517 0
M  V30 3813 C 357.017 4.16685 -1.72292 0
M  V30 3814 C 355.679 4.3307 -2.09771 0
M  V30 3815 C 358.031 4.50464 -2.62168 0
M  V30 3816 C 355.359 4.80526 -3.36618 0
M  V30 3817 C 357.711 4.99332 -3.88395 0
M  V30 3818 C 356.375 5.13924 -4.25956 0
M  V30 3819 H 355.645 0.733108 -0.107857 0
M  V30 3820 H 358.292 1.6618 -0.951651 0
M  V30 3821 H 356.597 3.89884 0.386954 0
M  V30 3822 H 358.294 4.00998 0.0117269 0
M  V30 3823 H 354.884 4.04339 -1.42155 0
M  V30 3824 H 359.068 4.37416 -2.3448 0
M  V30 3825 H 354.324 4.90008 -3.65653 0
M  V30 3826 H 358.498 5.2444 -4.58187 0
M  V30 3827 H 356.125 5.50457 -5.2431 0
M  V30 3828 N 357.7 0.491464 1.49741 0
M  V30 3829 C 358.946 -0.0565092 2.02721 0
M  V30 3830 C 359.279 -1.37522 1.37118 0
M  V30 3831 O 358.554 -1.87866 0.503645 0
M  V30 3832 C 358.837 -0.219051 3.59433 0
M  V30 3833 C 358.69 1.12211 4.35579 0
M  V30 3834 C 360.009 -0.964157 4.29409 0
M  V30 3835 H 357.128 -0.0190627 0.736753 0
M  V30 3836 H 359.77 0.641021 1.7886 0
M  V30 3837 H 357.92 -0.813165 3.79895 0
M  V30 3838 H 359.592 1.75437 4.26637 0
M  V30 3839 H 357.835 1.71377 3.98513 0
M  V30 3840 H 358.506 0.961794 5.43556 0
M  V30 3841 H 360.982 -0.460378 4.13545 0
M  V30 3842 H 359.858 -1.04671 5.38828 0
M  V30 3843 H 360.119 -2.00563 3.93988 0
M  V30 3844 N 359.178 -1.55987 0.224894 0
M  V30 3845 C 360.426 -1.97998 -0.405099 0
M  V30 3846 C 360.747 -1.11387 -1.60056 0
M  V30 3847 O 360.017 -0.191645 -1.9496 0
M  V30 3848 H 358.597 -0.731235 -0.152658 0
M  V30 3849 H 361.259 -1.92279 0.318567 0
M  V30 3850 H 360.355 -3.03463 -0.729167 0
M  V30 3851 N 360.656 0.0484629 -1.57525 0
M  V30 3852 C 361.884 0.755421 -1.92616 0
M  V30 3853 C 362.299 1.69919 -0.822984 0
M  V30 3854 O 361.656 1.81378 0.202085 0
M  V30 3855 C 361.707 1.52915 -3.27566 0
M  V30 3856 O 361.428 0.62329 -4.33644 0
M  V30 3857 C 362.929 2.33502 -3.76818 0
M  V30 3858 H 360.149 0.213465 -0.63614 0
M  V30 3859 H 362.693 0.0117698 -2.04497 0
M  V30 3860 H 360.848 2.22486 -3.17142 0
M  V30 3861 H 361.262 1.16383 -5.11425 0
M  V30 3862 H 362.736 2.83214 -4.73808 0
M  V30 3863 H 363.213 3.14068 -3.07014 0
M  V30 3864 H 363.819 1.69043 -3.90262 0
M  V30 3865 N 362.134 1.5431 0.320358 0
M  V30 3866 C 363.097 1.83195 1.3774 0
M  V30 3867 C 364.097 0.703906 1.44575 0
M  V30 3868 O 365.287 0.972214 1.44546 0
M  V30 3869 C 362.419 1.99487 2.76438 0
M  V30 3870 H 363.612 2.77642 1.1338 0
M  V30 3871 H 361.165 1.46076 0.556012 0
M  V30 3872 H 361.9 1.07262 3.06048 0
M  V30 3873 H 361.685 2.81575 2.7287 0
M  V30 3874 H 363.175 2.23271 3.52902 0
M  V30 3875 N 363.613 -0.582584 1.46437 0
M  V30 3876 C 364.545 -1.70618 1.53043 0
M  V30 3877 C 365.558 -1.57322 0.418769 0
M  V30 3878 O 366.747 -1.64744 0.687136 0
M  V30 3879 C 363.847 -3.08869 1.39474 0
M  V30 3880 C 363.02 -3.48166 2.64762 0
M  V30 3881 C 362.079 -4.65478 2.4539 0
M  V30 3882 O 361.105 -4.71333 3.19114 0
M  V30 3883 N 362.307 -5.60365 1.51564 0
M  V30 3884 H 365.072 -1.65405 2.49923 0
M  V30 3885 H 362.633 -0.768567 1.42494 0
M  V30 3886 H 364.625 -3.85143 1.24287 0
M  V30 3887 H 363.195 -3.08449 0.507758 0
M  V30 3888 H 362.415 -2.61598 2.9489 0
M  V30 3889 H 363.703 -3.71188 3.4799 0
M  V30 3890 H 363.101 -5.5837 0.907705 0
M  V30 3891 H 361.658 -6.36068 1.4234 0
M  V30 3892 N 365.091 -1.34144 -0.827227 0
M  V30 3893 C 366.321 -1.29138 -1.61267 0
M  V30 3894 C 366.729 0.137597 -1.88699 0
M  V30 3895 O 366.072 1.09379 -1.47587 0
M  V30 3896 C 366.134 -2.0097 -2.9808 0
M  V30 3897 C 365.798 -3.50242 -2.93563 0
M  V30 3898 C 366.795 -4.4523 -2.68452 0
M  V30 3899 C 364.48 -3.92592 -3.13331 0
M  V30 3900 C 366.474 -5.80542 -2.63154 0
M  V30 3901 C 364.161 -5.28005 -3.07658 0
M  V30 3902 C 365.159 -6.21792 -2.82602 0
M  V30 3903 O 364.847 -7.54723 -2.76853 0
M  V30 3904 H 364.579 -0.445851 -0.508127 0
M  V30 3905 H 367.133 -1.77263 -1.03763 0
M  V30 3906 H 365.363 -1.47451 -3.57484 0
M  V30 3907 H 367.052 -1.89309 -3.5905 0
M  V30 3908 H 367.818 -4.13832 -2.52919 0
M  V30 3909 H 363.697 -3.19994 -3.31851 0
M  V30 3910 H 367.241 -6.53717 -2.43516 0
M  V30 3911 H 363.138 -5.59023 -3.22743 0
M  V30 3912 H 363.906 -7.64409 -2.92611 0
M  V30 3913 N 366.569 1.04691 -1.17803 0
M  V30 3914 C 367.815 1.78045 -0.970969 0
M  V30 3915 C 368.148 1.87686 0.498751 0
M  V30 3916 O 367.423 1.38035 1.37027 0
M  V30 3917 C 367.706 3.2166 -1.61884 0
M  V30 3918 C 367.559 3.20001 -3.161 0
M  V30 3919 C 368.878 4.1962 -1.3269 0
M  V30 3920 H 365.997 0.64633 -0.354155 0
M  V30 3921 H 368.639 1.22333 -1.45378 0
M  V30 3922 H 366.789 3.69232 -1.20831 0
M  V30 3923 H 368.461 2.80467 -3.66246 0
M  V30 3924 H 366.704 2.58203 -3.48588 0
M  V30 3925 H 367.375 4.21386 -3.56564 0
M  V30 3926 H 369.851 3.80567 -1.68249 0
M  V30 3927 H 368.727 5.18339 -1.80599 0
M  V30 3928 H 368.988 4.414 -0.248622 0
M  V30 3929 N 368.047 0.979072 1.23499 0
M  V30 3930 C 369.272 0.664845 1.96455 0
M  V30 3931 C 369.697 -0.761287 1.72006 0
M  V30 3932 O 369.055 -1.51837 0.990713 0
M  V30 3933 C 369.103 0.959479 3.47601 0
M  V30 3934 O 368.207 0.0508168 4.12369 0
M  V30 3935 H 367.548 0.250185 0.615064 0
M  V30 3936 H 370.078 1.31231 1.5697 0
M  V30 3937 H 370.088 0.895642 3.98048 0
M  V30 3938 H 368.763 1.99876 3.64723 0
M  V30 3939 H 367.34 0.16895 3.72517 0
M  V30 3940 N 369.525 -1.3858 0.750561 0
M  V30 3941 C 370.936 -1.82927 0.373438 0
M  V30 3942 C 371.287 -1.62634 -1.09748 0
M  V30 3943 O 370.412 -1.12588 -1.84805 0
M  V30 3944 C 371.007 -3.32088 0.671029 0
M  V30 3945 C 369.566 -3.74795 0.34722 0
M  V30 3946 C 368.713 -2.61391 0.92575 0
M  V30 3947 H 371.664 -1.27351 0.946958 0
M  V30 3948 H 371.685 -3.80465 -0.0518269 0
M  V30 3949 H 371.197 -3.46826 1.74164 0
M  V30 3950 H 369.298 -3.65638 -0.716933 0
M  V30 3951 H 369.411 -4.71667 0.840656 0
M  V30 3952 H 367.775 -2.52265 0.351327 0
M  V30 3953 H 368.558 -2.78929 2.00133 0
M  V30 3954 N 371.003 -0.499398 -1.49478 0
M  V30 3955 C 371.913 0.284489 -2.32869 0
M  V30 3956 C 372.929 0.968885 -1.44529 0
M  V30 3957 O 374.105 0.95062 -1.77553 0
M  V30 3958 C 371.17 1.33594 -3.19928 0
M  V30 3959 C 370.231 0.665149 -4.24116 0
M  V30 3960 C 369.464 1.6665 -5.07014 0
M  V30 3961 O 369.687 2.89618 -4.91404 0
M  V30 3962 O 368.621 1.22271 -5.8935 0
M  V30 3963 H 372.447 -0.39802 -3.01081 0
M  V30 3964 H 370.032 -0.260758 -1.47107 0
M  V30 3965 H 371.914 1.94431 -3.73864 0
M  V30 3966 H 370.589 2.0014 -2.54412 0
M  V30 3967 H 369.496 0.0170769 -3.74096 0
M  V30 3968 H 370.829 0.0421555 -4.92182 0
M  V30 3969 N 372.481 1.55866 -0.233164 0
M  V30 3970 C 373.411 2.23783 0.666599 0
M  V30 3971 C 374.392 1.21343 1.19205 0
M  V30 3972 O 375.577 1.4996 1.23392 0
M  V30 3973 C 372.707 2.92671 1.86978 0
M  V30 3974 C 371.661 4.01682 1.47768 0
M  V30 3975 C 370.987 4.57926 2.76058 0
M  V30 3976 C 372.287 5.18126 0.658993 0
M  V30 3977 H 373.981 2.99232 0.100306 0
M  V30 3978 H 371.527 1.43924 0.046804 0
M  V30 3979 H 373.48 3.3888 2.50476 0
M  V30 3980 H 372.204 2.14688 2.46123 0
M  V30 3981 H 370.863 3.56222 0.866106 0
M  V30 3982 H 370.511 3.76659 3.33372 0
M  V30 3983 H 370.211 5.31505 2.50552 0
M  V30 3984 H 371.735 5.06859 3.40479 0
M  V30 3985 H 373.149 5.60644 1.19795 0
M  V30 3986 H 371.546 5.98009 0.500552 0
M  V30 3987 H 372.616 4.83763 -0.331856 0
M  V30 3988 N 373.959 -0.0401083 1.57549 0
M  V30 3989 C 374.889 -1.04384 2.08869 0
M  V30 3990 C 375.87 -1.38407 0.988817 0
M  V30 3991 O 377.055 -1.47483 1.26342 0
M  V30 3992 C 374.185 -2.34808 2.55895 0
M  V30 3993 C 373.139 -2.15057 3.70047 0
M  V30 3994 C 372.465 -3.51145 4.03239 0
M  V30 3995 C 373.765 -1.54576 4.98902 0
M  V30 3996 H 375.459 -0.616666 2.92981 0
M  V30 3997 H 373.005 -0.295184 1.40942 0
M  V30 3998 H 374.958 -3.05346 2.90417 0
M  V30 3999 H 373.682 -2.79565 1.68853 0
M  V30 4000 H 372.341 -1.46954 3.35857 0
M  V30 4001 H 371.989 -3.93529 3.13279 0
M  V30 4002 H 371.689 -3.38758 4.80122 0
M  V30 4003 H 373.213 -4.23062 4.40285 0
M  V30 4004 H 374.627 -2.15017 5.31451 0
M  V30 4005 H 373.024 -1.52796 5.80322 0
M  V30 4006 H 374.094 -0.51039 4.82206 0
M  V30 4007 N 375.437 -1.54477 -0.31217 0
M  V30 4008 C 376.665 -1.77205 -1.068 0
M  V30 4009 C 377.08 -0.526114 -1.81321 0
M  V30 4010 O 376.437 0.503647 -1.75413 0
M  V30 4011 C 376.488 -2.97253 -2.05725 0
M  V30 4012 O 376.209 -4.1703 -1.34228 0
M  V30 4013 C 377.71 -3.32281 -2.93435 0
M  V30 4014 H 374.93 -0.591287 -0.317208 0
M  V30 4015 H 377.474 -2.01398 -0.354834 0
M  V30 4016 H 375.629 -2.753 -2.72559 0
M  V30 4017 H 376.043 -4.84636 -2.00571 0
M  V30 4018 H 377.517 -4.19551 -3.58721 0
M  V30 4019 H 377.994 -2.49945 -3.61143 0
M  V30 4020 H 378.6 -3.56353 -2.32147 0
M  V30 4021 N 376.915 0.57481 -1.46744 0
M  V30 4022 C 377.825 1.711 -1.60505 0
M  V30 4023 C 378.841 1.67008 -0.488307 0
M  V30 4024 O 380.017 1.86774 -0.753495 0
M  V30 4025 C 377.082 3.07608 -1.59932 0
M  V30 4026 C 376.143 3.22904 -2.82898 0
M  V30 4027 C 375.376 4.529 -2.82343 0
M  V30 4028 O 375.599 5.37278 -1.91542 0
M  V30 4029 O 374.533 4.71611 -3.73987 0
M  V30 4030 H 378.359 1.62436 -2.56609 0
M  V30 4031 H 375.944 0.742779 -1.29627 0
M  V30 4032 H 377.826 3.88877 -1.62336 0
M  V30 4033 H 376.501 3.16692 -0.669898 0
M  V30 4034 H 375.408 2.41099 -2.86046 0
M  V30 4035 H 376.741 3.18715 -3.75076 0
M  V30 4036 N 378.394 1.34581 0.820102 0
M  V30 4037 C 379.341 1.2639 1.93117 0
M  V30 4038 C 380.311 0.138554 1.65521 0
M  V30 4039 O 381.496 0.320004 1.88097 0
M  V30 4040 C 378.636 1.02812 3.29429 0
M  V30 4041 C 377.749 2.24146 3.693 0
M  V30 4042 C 376.884 1.93829 4.94574 0
M  V30 4043 C 375.923 3.1129 5.27034 0
M  V30 4044 N 375.06 2.80838 6.43486 0
M  V30 4045 H 379.9 2.21408 1.99455 0
M  V30 4046 H 377.437 1.10077 0.975784 0
M  V30 4047 H 379.395 0.871788 4.0799 0
M  V30 4048 H 378.025 0.114612 3.22596 0
M  V30 4049 H 377.077 2.50691 2.86109 0
M  V30 4050 H 378.389 3.11899 3.89257 0
M  V30 4051 H 377.543 1.74948 5.80929 0
M  V30 4052 H 376.282 1.03341 4.76626 0
M  V30 4053 H 375.287 3.30764 4.39175 0
M  V30 4054 H 376.512 4.02561 5.4692 0
M  V30 4055 H 374.458 1.92929 6.26988 0
M  V30 4056 H 374.375 3.62123 6.63629 0
M  V30 4057 H 375.643 2.65467 7.32903 0
M  V30 4058 N 379.872 -1.04064 1.18357 0
M  V30 4059 C 381.097 -1.81454 1.00445 0
M  V30 4060 C 381.522 -1.82823 -0.442423 0
M  V30 4061 O 380.88 -1.24555 -1.31741 0
M  V30 4062 C 380.928 -3.24925 1.56384 0
M  V30 4063 O 380.032 -4.04856 0.785209 0
M  V30 4064 H 379.373 -0.560604 0.355835 0
M  V30 4065 H 381.903 -1.31059 1.57114 0
M  V30 4066 H 381.913 -3.75702 1.59097 0
M  V30 4067 H 380.588 -3.23244 2.61699 0
M  V30 4068 H 379.165 -3.63537 0.830399 0
M  V30 4069 N 381.35 -0.985608 -1.22978 0
M  V30 4070 C 382.313 -0.535071 -2.22867 0
M  V30 4071 C 383.313 0.378123 -1.56291 0
M  V30 4072 O 384.503 0.171092 -1.73358 0
M  V30 4073 C 381.635 0.222702 -3.40172 0
M  V30 4074 H 382.828 -1.41835 -2.6424 0
M  V30 4075 H 380.381 -0.772042 -1.35901 0
M  V30 4076 H 381.116 1.12229 -3.04262 0
M  V30 4077 H 380.901 -0.43288 -3.89703 0
M  V30 4078 H 382.391 0.526335 -4.1427 0
M  V30 4079 N 382.828 1.3818 -0.7579 0
M  V30 4080 C 384.068 2.01864 -0.320968 0
M  V30 4081 C 384.432 1.58863 1.07827 0
M  V30 4082 O 385.633 2.14908 1.61456 0
M  V30 4083 C 383.904 3.54626 -0.44446 0
M  V30 4084 S 385.463 4.38706 -0.0907467 0
M  V30 4085 H 382.281 0.700056 -0.124268 0
M  V30 4086 H 384.883 1.68611 -0.989468 0
M  V30 4087 H 383.587 3.83411 -1.4637 0
M  V30 4088 H 383.118 3.92661 0.241073 0
M  V30 4089 H 385.133 4.83435 1.11826 0
M  V30 4090 N 384.306 0.507319 1.49211 0
M  V30 4091 C 385.253 -0.267728 2.29242 0
M  V30 4092 C 386.223 -0.954609 1.35928 0
M  V30 4093 O 387.408 -0.960046 1.64887 0
M  V30 4094 C 384.548 -1.32243 3.18756 0
M  V30 4095 C 383.661 -0.64669 4.27132 0
M  V30 4096 C 382.796 -1.68238 5.03855 0
M  V30 4097 C 381.835 -0.98885 6.0406 0
M  V30 4098 N 380.972 -1.96903 6.73924 0
M  V30 4099 H 385.812 0.420968 2.95012 0
M  V30 4100 H 383.349 0.219443 1.45454 0
M  V30 4101 H 385.307 -1.94599 3.69036 0
M  V30 4102 H 383.937 -1.97981 2.54958 0
M  V30 4103 H 382.989 0.0902926 3.80293 0
M  V30 4104 H 384.301 -0.101058 4.98698 0
M  V30 4105 H 383.455 -2.38081 5.58034 0
M  V30 4106 H 382.194 -2.26187 4.32077 0
M  V30 4107 H 381.199 -0.276222 5.49106 0
M  V30 4108 H 382.424 -0.415767 6.77826 0
M  V30 4109 H 380.37 -2.53803 6.04913 0
M  V30 4110 H 380.287 -1.47423 7.41487 0
M  V30 4111 H 381.555 -2.66015 7.32705 0
M  V30 4112 N 385.784 -1.5574 0.241426 0
M  V30 4113 C 387.009 -2.0366 -0.392111 0
M  V30 4114 C 387.434 -1.11969 -1.51144 0
M  V30 4115 O 386.792 -0.111594 -1.80956 0
M  V30 4116 C 386.84 -3.49638 -0.882371 0
M  V30 4117 O 385.944 -3.6108 -1.99235 0
M  V30 4118 H 385.285 -0.658379 -0.0862122 0
M  V30 4119 H 387.815 -2.01302 0.365881 0
M  V30 4120 H 387.825 -3.90351 -1.18702 0
M  V30 4121 H 386.5 -4.15852 -0.0632361 0
M  V30 4122 H 385.077 -3.32262 -1.69282 0
M  V30 4123 N 387.262 0.0317525 -1.57568 0
M  V30 4124 C 388.487 0.738664 -1.938 0
M  V30 4125 C 388.912 1.68242 -0.841208 0
M  V30 4126 O 388.27 1.80157 0.203267 0
M  V30 4127 C 388.318 1.47417 -3.29091 0
M  V30 4128 O 387.422 2.5872 -3.2115 0
M  V30 4129 H 386.763 0.198856 -0.633524 0
M  V30 4130 H 389.293 -0.0119713 -2.04596 0
M  V30 4131 H 389.303 1.84468 -3.63917 0
M  V30 4132 H 387.978 0.781988 -4.08482 0
M  V30 4133 H 386.555 2.24231 -2.97951 0
M  V30 4134 N 388.74 1.54641 0.303973 0
M  V30 4135 C 390.017 1.64455 1.05896 0
M  V30 4136 C 390.397 0.490923 2.05312 0
M  V30 4137 O 389.745 -0.512685 2.22674 0
M  V30 4138 C 389.955 3.02331 1.74347 0
M  V30 4139 C 391.303 3.59045 2.26653 0
M  V30 4140 O 392.327 3.04764 1.84384 0
M  V30 4141 O 391.186 4.54081 3.04093 0
M  V30 4142 H 388.28 0.666729 0.489287 0
M  V30 4143 H 390.826 1.66986 0.302298 0
M  V30 4144 H 389.598 3.77734 1.02142 0
M  V30 4145 H 389.221 3.03565 2.56777 0
M  V30 4146 N 390.218 -0.567019 1.47046 0
M  V30 4147 C 391.148 -1.68482 1.61667 0
M  V30 4148 C 392.129 -1.6358 0.466418 0
M  V30 4149 O 393.314 -1.81354 0.694574 0
M  V30 4150 C 390.444 -3.07124 1.62148 0
M  V30 4151 C 389.398 -3.26867 2.76301 0
M  V30 4152 C 388.724 -4.66196 2.61849 0
M  V30 4153 C 390.024 -3.13186 4.17986 0
M  V30 4154 H 391.718 -1.56502 2.5524 0
M  V30 4155 H 389.264 -0.751486 1.22836 0
M  V30 4156 H 391.217 -3.8516 1.70968 0
M  V30 4157 H 389.941 -3.2004 0.651287 0
M  V30 4158 H 388.6 -2.51237 2.66975 0
M  V30 4159 H 388.248 -4.75898 1.62879 0
M  V30 4160 H 387.948 -4.80356 3.38425 0
M  V30 4161 H 389.472 -5.46379 2.72584 0
M  V30 4162 H 390.886 -3.81049 4.2834 0
M  V30 4163 H 389.283 -3.3886 4.95272 0
M  V30 4164 H 390.353 -2.10057 4.3704 0
M  V30 4165 N 391.696 -1.35014 -0.812953 0
M  V30 4166 C 392.942 -1.29129 -1.57154 0
M  V30 4167 C 393.297 0.134922 -1.91926 0
M  V30 4168 O 392.59 1.08373 -1.58006 0
M  V30 4169 C 392.784 -2.12524 -2.87347 0
M  V30 4170 C 392.613 -3.6311 -2.65294 0
M  V30 4171 C 391.383 -4.32363 -2.61516 0
M  V30 4172 C 393.581 -4.56897 -2.36114 0
M  V30 4173 N 391.563 -5.68735 -2.31113 0
M  V30 4174 C 392.934 -5.81345 -2.15494 0
M  V30 4175 C 394.989 -4.45706 -2.21925 0
M  V30 4176 C 393.692 -6.95862 -1.82122 0
M  V30 4177 C 395.718 -5.60066 -1.89948 0
M  V30 4178 C 395.08 -6.83539 -1.7016 0
M  V30 4179 H 391.179 -0.527764 -0.577052 0
M  V30 4180 H 393.763 -1.6983 -0.952146 0
M  V30 4181 H 391.934 -1.74104 -3.47192 0
M  V30 4182 H 393.666 -1.98207 -3.5284 0
M  V30 4183 H 390.421 -3.84907 -2.75941 0
M  V30 4184 H 390.845 -6.40694 -2.18724 0
M  V30 4185 H 395.487 -3.50855 -2.35925 0
M  V30 4186 H 393.205 -7.90685 -1.6686 0
M  V30 4187 H 396.791 -5.53357 -1.79687 0
M  V30 4188 H 395.671 -7.70531 -1.45777 0
M  V30 4189 N 393.175 1.03435 -1.18907 0
M  V30 4190 C 394.138 2.09756 -0.923844 0
M  V30 4191 C 395.138 1.60528 0.093416 0
M  V30 4192 O 396.328 1.73631 -0.140727 0
M  V30 4193 C 393.46 3.38692 -0.387354 0
M  V30 4194 H 394.653 2.34719 -1.86674 0
M  V30 4195 H 392.206 1.19959 -1.00197 0
M  V30 4196 H 392.941 3.19396 0.561845 0
M  V30 4197 H 392.726 3.75742 -1.12074 0
M  V30 4198 H 394.216 4.17016 -0.220694 0
M  V30 4199 N 394.653 0.992116 1.22453 0
M  V30 4200 C 395.583 0.561677 2.26644 0
M  V30 4201 C 396.564 -0.411055 1.65059 0
M  V30 4202 O 397.749 -0.301861 1.9184 0
M  V30 4203 C 394.879 -0.125247 3.47074 0
M  V30 4204 C 393.833 0.765948 4.21091 0
M  V30 4205 C 393.159 -0.0538484 5.34673 0
M  V30 4206 C 394.459 2.06242 4.79856 0
M  V30 4207 H 396.153 1.43259 2.62902 0
M  V30 4208 H 393.699 0.690283 1.26377 0
M  V30 4209 H 395.652 -0.437764 4.1912 0
M  V30 4210 H 394.376 -1.03069 3.0991 0
M  V30 4211 H 393.035 1.0621 3.50878 0
M  V30 4212 H 392.683 -0.960188 4.9375 0
M  V30 4213 H 392.383 0.539415 5.85119 0
M  V30 4214 H 393.907 -0.360477 6.09535 0
M  V30 4215 H 395.321 1.8139 5.43848 0
M  V30 4216 H 393.718 2.60444 5.40638 0
M  V30 4217 H 394.788 2.74167 3.99951 0
M  V30 4218 N 396.131 -1.37776 0.765217 0
M  V30 4219 C 397.379 -1.99454 0.325943 0
M  V30 4220 C 397.7 -1.61049 -1.09947 0
M  V30 4221 O 396.97 -0.872821 -1.75381 0
M  V30 4222 H 395.55 -0.737697 0.117525 0
M  V30 4223 H 398.212 -1.68359 0.981895 0
M  V30 4224 H 397.308 -3.09547 0.398353 0
M  V30 4225 N 397.609 -0.515225 -1.4894 0
M  V30 4226 C 398.849 0.0223983 -2.04388 0
M  V30 4227 C 399.213 1.32961 -1.38511 0
M  V30 4228 O 400.414 1.95236 -1.8476 0
M  V30 4229 C 398.685 0.157056 -3.57055 0
M  V30 4230 S 400.244 0.646875 -4.34006 0
M  V30 4231 H 397.062 -0.00500662 -0.710982 0
M  V30 4232 H 399.664 -0.69243 -1.82827 0
M  V30 4233 H 398.368 -0.799412 -4.02539 0
M  V30 4234 H 397.899 0.896704 -3.83044 0
M  V30 4235 H 399.914 1.91381 -4.57808 0
M  V30 4236 N 399.087 1.5561 -0.249682 0
M  V30 4237 C 400.336 1.98187 0.37479 0
M  V30 4238 C 400.649 1.14111 1.58865 0
M  V30 4239 O 401.855 1.46714 2.28445 0
M  V30 4240 C 400.311 3.52661 0.718192 0
M  V30 4241 C 399.919 4.45481 -0.474428 0
M  V30 4242 C 401.663 4.03888 1.3067 0
M  V30 4243 C 399.57 5.91303 -0.107026 0
M  V30 4244 H 398.5 0.740159 0.143808 0
M  V30 4245 H 401.151 1.80125 -0.350336 0
M  V30 4246 H 399.533 3.66429 1.50152 0
M  V30 4247 H 400.707 4.43473 -1.25172 0
M  V30 4248 H 399.022 4.04751 -0.978052 0
M  V30 4249 H 401.619 5.10358 1.59496 0
M  V30 4250 H 401.962 3.51401 2.23211 0
M  V30 4251 H 402.495 3.93457 0.586211 0
M  V30 4252 H 399.234 6.47833 -0.999642 0
M  V30 4253 H 398.754 5.9644 0.634013 0
M  V30 4254 H 400.433 6.46258 0.309807 0
M  V30 4255 N 400.565 -0.0233959 1.57583 0
M  V30 4256 C 401.814 -0.712133 1.8871 0
M  V30 4257 C 402.127 -1.76217 0.848944 0
M  V30 4258 O 403.333 -2.50389 1.04964 0
M  V30 4259 C 401.789 -1.3177 3.3491 0
M  V30 4260 C 401.397 -0.303715 4.46969 0
M  V30 4261 C 403.141 -1.98598 3.75179 0
M  V30 4262 C 401.048 -0.917945 5.84233 0
M  V30 4263 H 399.978 -0.269735 0.704101 0
M  V30 4264 H 402.629 0.0333114 1.8347 0
M  V30 4265 H 401.011 -2.11304 3.34913 0
M  V30 4266 H 402.185 0.465325 4.58445 0
M  V30 4267 H 400.5 0.2628 4.1557 0
M  V30 4268 H 403.097 -2.45416 4.75053 0
M  V30 4269 H 403.44 -2.80659 3.07468 0
M  V30 4270 H 403.973 -1.25831 3.77374 0
M  V30 4271 H 400.712 -0.136633 6.55358 0
M  V30 4272 H 400.232 -1.65669 5.76467 0
M  V30 4273 H 401.911 -1.4236 6.31144 0
M  V30 4274 N 402.043 -1.548 -0.295768 0
M  V30 4275 C 403.273 -1.78069 -1.04762 0
M  V30 4276 C 403.681 -0.542847 -1.81245 0
M  V30 4277 O 403.024 0.497051 -1.76848 0
M  V30 4278 C 403.086 -2.93881 -2.07061 0
M  V30 4279 C 402.75 -4.31777 -1.49725 0
M  V30 4280 C 403.747 -5.11613 -0.924581 0
M  V30 4281 C 401.432 -4.78389 -1.5313 0
M  V30 4282 C 403.426 -6.36184 -0.393594 0
M  V30 4283 C 401.113 -6.02921 -0.996447 0
M  V30 4284 C 402.111 -6.81654 -0.428569 0
M  V30 4285 O 401.799 -8.0384 0.0981593 0
M  V30 4286 H 401.531 -0.597475 -0.316226 0
M  V30 4287 H 404.085 -2.02584 -0.338973 0
M  V30 4288 H 402.315 -2.65003 -2.81621 0
M  V30 4289 H 404.004 -3.04679 -2.6819 0
M  V30 4290 H 404.77 -4.76743 -0.891136 0
M  V30 4291 H 400.649 -4.17132 -1.9627 0
M  V30 4292 H 404.193 -6.97582 0.0503014 0
M  V30 4293 H 400.09 -6.37277 -1.02706 0
M  V30 4294 H 400.858 -8.18499 -0.0146455 0
M  V30 4295 N 403.521 0.559213 -1.47345 0
M  V30 4296 C 404.453 1.68161 -1.55738 0
M  V30 4297 C 405.466 1.56636 -0.443744 0
M  V30 4298 O 406.655 1.6363 -0.713258 0
M  V30 4299 C 403.755 3.06611 -1.4437 0
M  V30 4300 C 402.928 3.4391 -2.70268 0
M  V30 4301 C 401.987 4.61515 -2.52765 0
M  V30 4302 O 401.013 4.66197 -3.26572 0
M  V30 4303 N 402.215 5.57883 -1.6046 0
M  V30 4304 H 404.98 1.61408 -2.52522 0
M  V30 4305 H 402.541 0.7458 -1.43699 0
M  V30 4306 H 404.533 3.83117 -1.30398 0
M  V30 4307 H 403.103 3.07602 -0.556766 0
M  V30 4308 H 402.323 2.56873 -2.99015 0
M  V30 4309 H 403.611 3.65605 -3.53851 0
M  V30 4310 H 403.009 5.56855 -0.996422 0
M  V30 4311 H 401.566 6.33723 -1.52441 0
M  V30 4312 N 404.999 1.35443 0.805782 0
M  V30 4313 C 405.929 1.31095 1.93226 0
M  V30 4314 C 406.91 0.185244 1.69088 0
M  V30 4315 O 408.095 0.380332 1.90439 0
M  V30 4316 C 405.225 1.08299 3.29983 0
M  V30 4317 C 404.179 2.17519 3.68605 0
M  V30 4318 C 403.505 1.79887 5.03532 0
M  V30 4319 C 404.805 3.5949 3.78898 0
M  V30 4320 H 406.499 2.25352 1.97122 0
M  V30 4321 H 404.045 1.0848 0.946996 0
M  V30 4322 H 405.998 1.03897 4.08391 0
M  V30 4323 H 404.722 0.104885 3.26432 0
M  V30 4324 H 403.381 2.2102 2.92482 0
M  V30 4325 H 403.029 0.80693 4.96485 0
M  V30 4326 H 402.729 2.53001 5.30344 0
M  V30 4327 H 404.253 1.77011 5.84379 0
M  V30 4328 H 405.667 3.58307 4.47536 0
M  V30 4329 H 404.064 4.31371 4.1718 0
M  V30 4330 H 405.134 3.95584 2.80431 0
M  V30 4331 N 406.477 -1.02803 1.19454 0
M  V30 4332 C 407.723 -1.76478 0.999171 0
M  V30 4333 C 408.056 -1.88456 -0.468828 0
M  V30 4334 O 407.331 -1.40198 -1.34814 0
M  V30 4335 C 407.614 -3.19044 1.66981 0
M  V30 4336 C 407.467 -3.14932 3.21151 0
M  V30 4337 C 408.786 -4.17456 1.39349 0
M  V30 4338 H 405.905 -0.640614 0.364393 0
M  V30 4339 H 408.547 -1.20005 1.47305 0
M  V30 4340 H 406.697 -3.67263 1.2669 0
M  V30 4341 H 408.369 -2.74605 3.70661 0
M  V30 4342 H 406.612 -2.52625 3.52652 0
M  V30 4343 H 407.283 -4.1566 3.63223 0
M  V30 4344 H 409.759 -3.77842 1.74283 0
M  V30 4345 H 408.635 -5.154 1.88823 0
M  V30 4346 H 408.896 -4.40949 0.318813 0
M  V30 4347 N 407.956 -0.998596 -1.21925 0
M  V30 4348 C 408.919 -0.558679 -2.22287 0
M  V30 4349 C 409.919 0.361525 -1.56683 0
M  V30 4350 O 411.109 0.152695 -1.73529 0
M  V30 4351 C 408.241 0.18661 -3.40389 0
M  V30 4352 H 409.434 -1.4463 -2.62721 0
M  V30 4353 H 406.987 -0.786413 -1.35075 0
M  V30 4354 H 407.722 1.08996 -3.05435 0
M  V30 4355 H 407.507 -0.474188 -3.89222 0
M  V30 4356 H 408.997 0.482367 -4.14805 0
M  V30 4357 N 409.434 1.37368 -0.772513 0
M  V30 4358 C 410.682 1.99279 -0.336516 0
M  V30 4359 C 411.003 1.6163 1.09091 0
M  V30 4360 O 410.273 0.882109 1.74916 0
M  V30 4361 H 408.853 0.737063 -0.121435 0
M  V30 4362 H 411.515 1.67836 -0.990809 0
M  V30 4363 H 410.611 3.09332 -0.414763 0
M  V30 4364 N 410.912 0.523116 1.48665 0
M  V30 4365 C 411.842 -0.23231 2.32342 0
M  V30 4366 C 412.823 -0.941637 1.41659 0
M  V30 4367 O 414.008 -0.928751 1.70552 0
M  V30 4368 C 411.138 -1.28387 3.22698 0
M  V30 4369 C 410.092 -0.693098 4.22351 0
M  V30 4370 C 409.418 -1.8468 5.01794 0
M  V30 4371 C 410.718 0.33063 5.21252 0
M  V30 4372 H 412.412 0.466192 2.95748 0
M  V30 4373 H 409.958 0.225643 1.42221 0
M  V30 4374 H 411.911 -1.82024 3.80059 0
M  V30 4375 H 410.635 -2.01186 2.57278 0
M  V30 4376 H 409.294 -0.178299 3.66166 0
M  V30 4377 H 408.942 -2.56301 4.32804 0
M  V30 4378 H 408.642 -1.45747 5.69238 0
M  V30 4379 H 410.166 -2.38709 5.62006 0
M  V30 4380 H 411.58 -0.118407 5.73178 0
M  V30 4381 H 409.977 0.636974 5.9671 0
M  V30 4382 H 411.047 1.23883 4.68808 0
M  V30 4383 N 412.39 -1.55475 0.257931 0
M  V30 4384 C 413.801 -1.8511 -0.243135 0
M  V30 4385 C 414.152 -1.17986 -1.5676 0
M  V30 4386 O 413.277 -0.462102 -2.11409 0
M  V30 4387 C 413.872 -3.35826 -0.447929 0
M  V30 4388 C 412.431 -3.65647 -0.893245 0
M  V30 4389 C 411.578 -2.7729 0.0232965 0
M  V30 4390 H 414.529 -1.51261 0.480199 0
M  V30 4391 H 414.55 -3.58002 -1.28898 0
M  V30 4392 H 414.062 -3.84652 0.516196 0
M  V30 4393 H 412.163 -3.22308 -1.86945 0
M  V30 4394 H 412.276 -4.73312 -0.742469 0
M  V30 4395 H 410.64 -2.49942 -0.490021 0
M  V30 4396 H 411.423 -3.28926 0.982994 0
M  V30 4397 N 413.868 0.0150385 -1.57593 0
M  V30 4398 C 415.279 0.559832 -1.78109 0
M  V30 4399 C 415.63 1.74814 -0.890756 0
M  V30 4400 O 414.755 2.16216 -0.0892482 0
M  V30 4401 C 415.35 1.02238 -3.23006 0
M  V30 4402 C 413.909 1.51258 -3.44671 0
M  V30 4403 C 413.056 0.456955 -2.73509 0
M  V30 4404 H 416.007 -0.211169 -1.57289 0
M  V30 4405 H 416.028 1.88912 -3.30292 0
M  V30 4406 H 415.54 0.157302 -3.87781 0
M  V30 4407 H 413.641 2.39905 -2.8509 0
M  V30 4408 H 413.754 1.55042 -4.5332 0
M  V30 4409 H 412.118 0.915196 -2.37689 0
M  V30 4410 H 412.901 -0.398896 -3.40975 0
M  V30 4411 N 415.346 1.54954 0.287554 0
M  V30 4412 C 416.593 1.74873 1.02106 0
M  V30 4413 C 416.921 0.541829 1.86801 0
M  V30 4414 O 416.176 -0.475992 1.89823 0
M  V30 4415 C 416.475 2.99833 1.94512 0
M  V30 4416 C 416.141 4.33029 1.25686 0
M  V30 4417 C 414.803 4.69233 1.06649 0
M  V30 4418 C 417.155 5.15542 0.765913 0
M  V30 4419 C 414.483 5.85518 0.372222 0
M  V30 4420 C 416.835 6.32542 0.0853101 0
M  V30 4421 C 415.499 6.67398 -0.1169 0
M  V30 4422 H 414.769 0.639906 0.373632 0
M  V30 4423 H 417.416 1.89219 0.294665 0
M  V30 4424 H 415.721 2.80325 2.73725 0
M  V30 4425 H 417.418 3.1244 2.51361 0
M  V30 4426 H 414.008 4.04564 1.41512 0
M  V30 4427 H 418.192 4.88059 0.90066 0
M  V30 4428 H 413.448 6.11057 0.204695 0
M  V30 4429 H 417.622 6.95741 -0.302936 0
M  V30 4430 H 415.249 7.57357 -0.656859 0
M  V30 4431 N 416.824 -0.551391 1.4764 0
M  V30 4432 C 418.24 -0.877887 1.33287 0
M  V30 4433 C 418.44 -1.98817 0.327721 0
M  V30 4434 O 417.496 -2.51171 -0.258695 0
M  V30 4435 C 418.809 -1.26563 2.72768 0
M  V30 4436 C 420.357 -1.37673 2.81097 0
M  V30 4437 C 420.832 -1.79799 4.21232 0
M  V30 4438 N 422.323 -1.8694 4.23802 0
M  V30 4439 C 423.058 -2.20876 5.29151 0
M  V30 4440 N 422.554 -2.53386 6.448 0
M  V30 4441 N 424.347 -2.217 5.16532 0
M  V30 4442 H 416.498 0.18153 2.11623 0
M  V30 4443 H 418.761 0.0185514 0.947818 0
M  V30 4444 H 418.467 -0.523591 3.47781 0
M  V30 4445 H 418.341 -2.22052 3.04915 0
M  V30 4446 H 420.728 -2.10956 2.06353 0
M  V30 4447 H 420.809 -0.40357 2.52596 0
M  V30 4448 H 420.453 -1.07083 4.96483 0
M  V30 4449 H 420.383 -2.78128 4.4716 0
M  V30 4450 H 422.874 -1.64179 3.40373 0
M  V30 4451 H 423.187 -2.78325 7.20941 0
M  V30 4452 H 421.532 -2.50953 6.48111 0
M  V30 4453 H 424.723 -1.95745 4.25207 0
M  V30 4454 H 424.896 -2.47818 5.98741 0
M  V30 4455 N 418.302 -1.35869 -0.798587 0
M  V30 4456 C 419.265 -1.29307 -1.89242 0
M  V30 4457 C 420.265 -0.202747 -1.59517 0
M  V30 4458 O 421.455 -0.456957 -1.681 0
M  V30 4459 C 418.587 -1.00229 -3.25833 0
M  V30 4460 H 419.78 -2.26576 -1.96478 0
M  V30 4461 H 417.333 -1.20509 -0.995358 0
M  V30 4462 H 418.068 -0.033801 -3.24282 0
M  V30 4463 H 417.853 -1.79121 -3.48795 0
M  V30 4464 H 419.343 -0.98219 -4.05885 0
M  V30 4465 N 419.78 1.02168 -1.19998 0
M  V30 4466 C 421.028 1.75338 -1.00504 0
M  V30 4467 C 421.349 1.89387 0.464506 0
M  V30 4468 O 420.619 1.43268 1.33608 0
M  V30 4469 H 419.199 0.649564 -0.368885 0
M  V30 4470 H 421.861 1.23205 -1.51018 0
M  V30 4471 H 420.957 2.75892 -1.45912 0
M  V30 4472 N 421.258 1.00505 1.21394 0
M  V30 4473 C 422.206 0.558623 2.25792 0
M  V30 4474 C 423.2 -0.396848 1.64686 0
M  V30 4475 O 424.406 -0.268035 1.77993 0
M  V30 4476 H 420.781 0.1623 0.734277 0
M  V30 4477 H 422.752 1.4503 2.60785 0
M  V30 4478 C 421.501 -0.0989574 3.47559 0
M  V30 4479 H 420.824 0.627225 3.94849 0
M  V30 4480 H 422.264 -0.3746 4.22342 0
M  V30 4481 C 420.723 -1.33817 3.09184 0
M  V30 4482 O 421.253 -2.43252 3.19674 0
M  V30 4483 N 419.459 -1.21793 2.63846 0
M  V30 4484 H 419.006 -0.32746 2.5551 0
M  V30 4485 H 418.964 -2.04809 2.38539 0
M  V30 4486 N 422.737 -1.36956 0.779787 0
M  V30 4487 C 423.647 -2.33965 0.172491 0
M  V30 4488 C 424.663 -1.60574 -0.670222 0
M  V30 4489 O 425.839 -1.92617 -0.588263 0
M  V30 4490 C 422.904 -3.39761 -0.690173 0
M  V30 4491 C 421.965 -4.28964 0.169924 0
M  V30 4492 C 421.198 -5.29707 -0.651662 0
M  V30 4493 O 421.421 -5.38238 -1.88827 0
M  V30 4494 O 420.355 -6.01873 -0.0566264 0
M  V30 4495 H 424.181 -2.87647 0.974321 0
M  V30 4496 H 421.766 -1.39258 0.541078 0
M  V30 4497 H 423.648 -4.04471 -1.1824 0
M  V30 4498 H 422.323 -2.88394 -1.47006 0
M  V30 4499 H 421.23 -3.67326 0.708696 0
M  V30 4500 H 422.563 -4.83656 0.913085 0
M  V30 4501 N 424.215 -0.530993 -1.48385 0
M  V30 4502 C 425.445 -0.00133928 -2.066 0
M  V30 4503 C 425.853 1.28599 -1.38777 0
M  V30 4504 O 425.196 1.77599 -0.469495 0
M  V30 4505 C 425.258 0.292137 -3.58311 0
M  V30 4506 C 424.922 -0.901864 -4.48013 0
M  V30 4507 C 425.919 -1.80053 -4.87726 0
M  V30 4508 C 423.604 -1.10915 -4.89901 0
M  V30 4509 C 425.598 -2.89038 -5.68098 0
M  V30 4510 C 423.285 -2.20213 -5.70043 0
M  V30 4511 C 424.283 -3.09107 -6.0905 0
M  V30 4512 O 423.971 -4.16514 -6.87583 0
M  V30 4513 H 423.703 -0.0308475 -0.675296 0
M  V30 4514 H 426.257 -0.736335 -1.91748 0
M  V30 4515 H 424.487 1.08112 -3.7128 0
M  V30 4516 H 426.176 0.763994 -3.98645 0
M  V30 4517 H 426.942 -1.65234 -4.55986 0
M  V30 4518 H 422.821 -0.426498 -4.59023 0
M  V30 4519 H 426.365 -3.58451 -5.98464 0
M  V30 4520 H 422.262 -2.35016 -6.01197 0
M  V30 4521 H 423.03 -4.14237 -7.05939 0
M  V30 4522 N 425.693 1.55336 -0.266172 0
M  V30 4523 C 426.623 2.25146 0.618981 0
M  V30 4524 C 427.604 1.23845 1.16604 0
M  V30 4525 O 428.789 1.52544 1.20183 0
M  V30 4526 C 425.919 2.96572 1.80728 0
M  V30 4527 C 424.873 4.04726 1.39215 0
M  V30 4528 C 424.199 4.63678 2.66283 0
M  V30 4529 C 425.499 5.19407 0.548942 0
M  V30 4530 H 427.193 2.99377 0.0368116 0
M  V30 4531 H 424.739 1.43991 0.0162651 0
M  V30 4532 H 426.692 3.44116 2.43232 0
M  V30 4533 H 425.416 2.19861 2.41514 0
M  V30 4534 H 424.075 3.57979 0.790351 0
M  V30 4535 H 423.723 3.83646 3.25308 0
M  V30 4536 H 423.423 5.367 2.39222 0
M  V30 4537 H 424.947 5.13967 3.29651 0
M  V30 4538 H 426.361 5.63059 1.07876 0
M  V30 4539 H 424.758 5.98936 0.373593 0
M  V30 4540 H 425.828 4.8295 -0.434394 0
M  V30 4541 N 427.171 -0.0066808 1.57599 0
M  V30 4542 C 428.42 -0.692078 1.89455 0
M  V30 4543 C 428.733 -1.75306 0.867586 0
M  V30 4544 O 429.939 -2.49262 1.07614 0
M  V30 4545 C 428.395 -1.2821 3.36289 0
M  V30 4546 C 428.003 -0.256291 4.47266 0
M  V30 4547 C 429.747 -1.94608 3.77264 0
M  V30 4548 C 427.654 -0.855927 5.85173 0
M  V30 4549 H 426.584 -0.262252 0.706923 0
M  V30 4550 H 429.235 0.052769 1.83424 0
M  V30 4551 H 427.617 -2.0774 3.37135 0
M  V30 4552 H 428.791 0.513923 4.57925 0
M  V30 4553 H 427.106 0.306862 4.15268 0
M  V30 4554 H 429.703 -2.40364 4.77629 0
M  V30 4555 H 430.046 -2.77382 3.10427 0
M  V30 4556 H 430.579 -1.21822 3.78688 0
M  V30 4557 H 427.318 -0.0671161 6.55466 0
M  V30 4558 H 426.838 -1.59546 5.78191 0
M  V30 4559 H 428.517 -1.35658 6.32618 0
M  V30 4560 N 428.649 -1.55105 -0.279332 0
M  V30 4561 C 429.896 -1.75412 -1.01177 0
M  V30 4562 C 430.224 -0.551728 -1.86511 0
M  V30 4563 O 429.479 0.465919 -1.90073 0
M  V30 4564 C 429.778 -3.0086 -1.92919 0
M  V30 4565 C 429.444 -4.33689 -1.23387 0
M  V30 4566 C 428.106 -4.69792 -1.04159 0
M  V30 4567 C 430.458 -5.15941 -0.738562 0
M  V30 4568 C 427.786 -5.85707 -0.341166 0
M  V30 4569 C 430.138 -6.32579 -0.0517636 0
M  V30 4570 C 428.802 -6.67326 0.152292 0
M  V30 4571 H 428.072 -0.641879 -0.370233 0
M  V30 4572 H 430.719 -1.89373 -0.284627 0
M  V30 4573 H 429.024 -2.81773 -2.72234 0
M  V30 4574 H 430.721 -3.13768 -2.49701 0
M  V30 4575 H 427.311 -4.05309 -1.39364 0
M  V30 4576 H 431.495 -4.8853 -0.874764 0
M  V30 4577 H 426.751 -6.11157 -0.172287 0
M  V30 4578 H 430.925 -6.9557 0.339828 0
M  V30 4579 H 428.552 -7.56998 0.697014 0
M  V30 4580 N 430.127 0.543554 -1.4793 0
M  V30 4581 C 431.059 1.665 -1.57513 0
M  V30 4582 C 432.072 1.56156 -0.460333 0
M  V30 4583 O 433.261 1.62865 -0.730573 0
M  V30 4584 C 430.361 3.05063 -1.47614 0
M  V30 4585 C 429.534 3.41024 -2.739 0
M  V30 4586 C 428.593 4.58809 -2.57645 0
M  V30 4587 O 427.619 4.62707 -3.31498 0
M  V30 4588 N 428.821 5.56149 -1.66368 0
M  V30 4589 H 431.586 1.5872 -2.5422 0
M  V30 4590 H 429.147 0.730517 -1.44482 0
M  V30 4591 H 431.139 3.81712 -1.34455 0
M  V30 4592 H 429.709 3.06994 -0.589359 0
M  V30 4593 H 428.929 2.53687 -3.01723 0
M  V30 4594 H 430.217 3.61831 -3.57709 0
M  V30 4595 H 429.615 5.55767 -1.05543 0
M  V30 4596 H 428.172 6.32071 -1.59154 0
M  V30 4597 N 431.605 1.3629 0.791371 0
M  V30 4598 C 432.552 1.30458 1.90393 0
M  V30 4599 C 433.522 0.173632 1.6519 0
M  V30 4600 O 434.707 0.35983 1.87376 0
M  V30 4601 C 431.847 1.09777 3.27174 0
M  V30 4602 C 430.96 2.31929 3.64462 0
M  V30 4603 C 430.095 2.04276 4.90352 0
M  V30 4604 C 429.134 3.224 5.20312 0
M  V30 4605 N 428.271 2.94424 6.37385 0
M  V30 4606 H 433.111 2.25589 1.94714 0
M  V30 4607 H 430.648 1.12122 0.952216 0
M  V30 4608 H 432.606 0.958133 4.06049 0
M  V30 4609 H 431.236 0.183014 3.22281 0
M  V30 4610 H 430.288 2.56703 2.80727 0
M  V30 4611 H 431.6 3.20085 3.82553 0
M  V30 4612 H 430.754 1.87231 5.77087 0
M  V30 4613 H 429.493 1.13428 4.74326 0
M  V30 4614 H 428.498 3.40005 4.32061 0
M  V30 4615 H 429.723 4.14071 5.38258 0
M  V30 4616 H 427.669 2.06185 6.22755 0
M  V30 4617 H 427.586 3.76118 6.55798 0
M  V30 4618 H 428.854 2.80953 7.27108 0
M  V30 4619 N 433.083 -1.0153 1.20538 0
M  V30 4620 C 434.332 -1.74558 1.01057 0
M  V30 4621 C 434.645 -1.90168 -0.457756 0
M  V30 4622 O 435.851 -2.60301 -0.771722 0
M  V30 4623 C 434.307 -3.13963 1.75941 0
M  V30 4624 C 433.915 -3.06361 3.26875 0
M  V30 4625 C 435.659 -3.91191 1.64832 0
M  V30 4626 C 433.566 -4.40782 3.94291 0
M  V30 4627 H 432.496 -0.654417 0.374505 0
M  V30 4628 H 435.147 -1.13521 1.44171 0
M  V30 4629 H 433.529 -3.75549 1.25614 0
M  V30 4630 H 434.703 -2.54074 3.84425 0
M  V30 4631 H 433.018 -2.42625 3.38411 0
M  V30 4632 H 435.615 -4.90644 2.12539 0
M  V30 4633 H 435.958 -4.11884 0.604745 0
M  V30 4634 H 436.491 -3.36236 2.12579 0
M  V30 4635 H 433.23 -4.25292 4.98805 0
M  V30 4636 H 432.75 -4.9307 3.41529 0
M  V30 4637 H 434.429 -5.09621 3.98617 0
M  V30 4638 N 434.561 -1.01147 -1.20859 0
M  V30 4639 C 435.81 -0.693214 -1.89413 0
M  V30 4640 C 436.123 0.779969 -1.79376 0
M  V30 4641 O 437.329 1.21057 -2.43017 0
M  V30 4642 C 435.785 -1.18949 -3.39675 0
M  V30 4643 C 435.393 -2.68921 -3.58309 0
M  V30 4644 C 437.137 -0.94642 -4.13815 0
M  V30 4645 C 435.044 -3.12056 -5.0237 0
M  V30 4646 H 433.974 -0.255595 -0.709357 0
M  V30 4647 H 436.625 -1.22349 -1.36759 0
M  V30 4648 H 435.007 -0.587228 -3.91622 0
M  V30 4649 H 436.181 -3.34652 -3.16772 0
M  V30 4650 H 434.496 -2.91314 -2.97532 0
M  V30 4651 H 437.093 -1.24417 -5.20023 0
M  V30 4652 H 437.436 0.117219 -4.16135 0
M  V30 4653 H 437.969 -1.5118 -3.67953 0
M  V30 4654 H 434.708 -4.17674 -5.05202 0
M  V30 4655 H 434.228 -2.51041 -5.44737 0
M  V30 4656 H 435.907 -3.04403 -5.70918 0
M  V30 4657 N 436.039 1.36541 -0.78704 0
M  V30 4658 C 436.986 2.30082 -0.181901 0
M  V30 4659 C 437.956 1.5186 0.672896 0
M  V30 4660 O 439.141 1.80374 0.622072 0
M  V30 4661 C 436.281 3.3835 0.679197 0
M  V30 4662 C 435.394 4.31565 -0.193882 0
M  V30 4663 C 434.529 5.26915 0.673364 0
M  V30 4664 C 433.568 6.11769 -0.201315 0
M  V30 4665 N 432.705 6.99315 0.624777 0
M  V30 4666 H 437.545 2.81248 -0.985064 0
M  V30 4667 H 435.082 1.38437 -0.497342 0
M  V30 4668 H 437.04 3.99767 1.19341 0
M  V30 4669 H 435.67 2.8851 1.44781 0
M  V30 4670 H 434.722 3.71323 -0.826044 0
M  V30 4671 H 436.034 4.91191 -0.867937 0
M  V30 4672 H 435.188 5.9361 1.25348 0
M  V30 4673 H 433.927 4.67737 1.38105 0
M  V30 4674 H 432.932 5.44039 -0.793849 0
M  V30 4675 H 434.157 6.73022 -0.906568 0
M  V30 4676 H 432.103 6.42648 1.3168 0
M  V30 4677 H 432.02 7.56 0.00835237 0
M  V30 4678 H 433.288 7.70382 1.18879 0
M  V30 4679 N 437.518 0.538854 1.48102 0
M  V30 4680 C 438.448 -0.207654 2.32575 0
M  V30 4681 C 439.429 -0.926559 1.4265 0
M  V30 4682 O 440.614 -0.91061 1.71527 0
M  V30 4683 C 437.744 -1.24957 3.24042 0
M  V30 4684 C 436.698 -0.648263 4.23062 0
M  V30 4685 C 436.024 -1.79348 5.03725 0
M  V30 4686 C 437.324 0.385897 5.20872 0
M  V30 4687 H 439.018 0.497534 2.95237 0
M  V30 4688 H 436.564 0.240715 1.41974 0
M  V30 4689 H 438.517 -1.77983 3.81969 0
M  V30 4690 H 437.241 -1.98446 2.59397 0
M  V30 4691 H 435.9 -0.139452 3.66335 0
M  V30 4692 H 435.548 -2.51696 4.35498 0
M  V30 4693 H 435.248 -1.39702 5.70751 0
M  V30 4694 H 436.772 -2.32735 5.64506 0
M  V30 4695 H 438.186 -0.057607 5.73271 0
M  V30 4696 H 436.583 0.700227 5.96001 0
M  V30 4697 H 437.653 1.28848 4.67468 0
M  V30 4698 N 438.996 -1.55193 0.274407 0
M  V30 4699 C 439.906 -2.26164 -0.623473 0
M  V30 4700 C 440.922 -1.28729 -1.17068 0
M  V30 4701 O 442.098 -1.61663 -1.20112 0
M  V30 4702 C 439.163 -2.96833 -1.7914 0
M  V30 4703 C 438.224 -4.09745 -1.28093 0
M  V30 4704 C 437.457 -4.77034 -2.3932 0
M  V30 4705 O 437.68 -4.4353 -3.5866 0
M  V30 4706 O 436.614 -5.64996 -2.07516 0
M  V30 4707 H 440.44 -3.03661 -0.0485661 0
M  V30 4708 H 438.025 -1.49341 0.0418382 0
M  V30 4709 H 439.907 -3.41248 -2.4724 0
M  V30 4710 H 438.582 -2.22253 -2.35341 0
M  V30 4711 H 437.489 -3.69787 -0.566416 0
M  V30 4712 H 438.822 -4.86224 -0.764683 0
M  V30 4713 N 440.474 -0.00167713 -1.576 0
M  V30 4714 C 441.704 0.692754 -1.94639 0
M  V30 4715 C 442.112 1.67744 -0.87513 0
M  V30 4716 O 441.455 1.8305 0.154382 0
M  V30 4717 C 441.517 1.47881 -3.27676 0
M  V30 4718 C 441.181 0.655518 -4.52274 0
M  V30 4719 C 442.178 -0.0575214 -5.19868 0
M  V30 4720 C 439.863 0.600994 -4.98692 0
M  V30 4721 C 441.857 -0.814052 -6.3218 0
M  V30 4722 C 439.544 -0.15926 -6.10892 0
M  V30 4723 C 440.542 -0.865515 -6.77494 0
M  V30 4724 O 440.23 -1.61336 -7.87544 0
M  V30 4725 H 439.962 0.197792 -0.646417 0
M  V30 4726 H 442.516 -0.049423 -2.05341 0
M  V30 4727 H 440.746 2.2655 -3.13388 0
M  V30 4728 H 442.435 2.05874 -3.49816 0
M  V30 4729 H 443.201 -0.0245611 -4.84994 0
M  V30 4730 H 439.08 1.14025 -4.46676 0
M  V30 4731 H 442.624 -1.36584 -6.84098 0
M  V30 4732 H 438.521 -0.194035 -6.45208 0
M  V30 4733 H 439.289 -1.53025 -8.04068 0
M  V30 4734 N 441.952 1.55251 0.271103 0
M  V30 4735 C 443.229 1.66664 1.02384 0
M  V30 4736 C 443.609 0.534363 2.04225 0
M  V30 4737 O 442.957 -0.465337 2.23712 0
M  V30 4738 C 443.167 3.05961 1.67895 0
M  V30 4739 C 444.515 3.63772 2.18986 0
M  V30 4740 O 445.539 3.08606 1.77878 0
M  V30 4741 O 444.398 4.60429 2.94393 0
M  V30 4742 H 441.492 0.676957 0.475035 0
M  V30 4743 H 444.038 1.67589 0.26681 0
M  V30 4744 H 442.81 3.79815 0.941071 0
M  V30 4745 H 442.433 3.08943 2.5028 0
M  V30 4746 N 443.43 -0.535701 1.48216 0
M  V30 4747 C 444.677 -1.29183 1.55942 0
M  V30 4748 C 445.005 -1.93125 0.230857 0
M  V30 4749 O 444.26 -1.79556 -0.778331 0
M  V30 4750 C 444.559 -2.4068 2.64212 0
M  V30 4751 C 444.225 -1.94428 4.06827 0
M  V30 4752 C 442.887 -1.81532 4.45645 0
M  V30 4753 C 445.239 -1.59405 4.96225 0
M  V30 4754 C 442.567 -1.31939 5.71672 0
M  V30 4755 C 444.919 -1.11276 6.22736 0
M  V30 4756 C 443.583 -0.969924 6.60416 0
M  V30 4757 H 442.853 -0.472715 0.570632 0
M  V30 4758 H 445.5 -0.598437 1.81909 0
M  V30 4759 H 443.805 -3.15666 2.32083 0
M  V30 4760 H 445.502 -2.98822 2.67407 0
M  V30 4761 H 442.092 -2.05415 3.76168 0
M  V30 4762 H 446.276 -1.68231 4.66917 0
M  V30 4763 H 441.532 -1.19562 5.99596 0
M  V30 4764 H 445.706 -0.832453 6.91407 0
M  V30 4765 H 443.333 -0.583436 7.57958 0
M  V30 4766 N 444.908 -1.36708 -0.784132 0
M  V30 4767 C 446.319 -1.27947 -1.35965 0
M  V30 4768 C 446.67 0.0784013 -1.96043 0
M  V30 4769 O 445.795 0.979989 -1.92938 0
M  V30 4770 C 446.39 -2.31689 -2.47195 0
M  V30 4771 C 444.949 -2.26601 -3.00548 0
M  V30 4772 C 444.096 -2.16184 -1.73666 0
M  V30 4773 H 447.047 -1.4751 -0.585358 0
M  V30 4774 H 447.068 -1.95638 -3.26352 0
M  V30 4775 H 446.58 -3.30506 -2.03439 0
M  V30 4776 H 444.681 -1.31268 -3.48711 0
M  V30 4777 H 444.794 -3.19508 -3.57004 0
M  V30 4778 H 443.158 -1.62524 -1.96107 0
M  V30 4779 H 443.941 -3.16896 -1.32031 0
M  V30 4780 N 446.386 1.0089 -1.21074 0
M  V30 4781 C 447.296 2.13039 -0.982425 0
M  V30 4782 C 448.312 1.73881 0.0642161 0
M  V30 4783 O 449.488 2.01012 -0.12496 0
M  V30 4784 C 446.553 3.42377 -0.545803 0
M  V30 4785 C 445.614 3.95731 -1.6642 0
M  V30 4786 C 444.847 5.18896 -1.24832 0
M  V30 4787 O 445.07 5.70273 -0.120265 0
M  V30 4788 O 444.004 5.65597 -2.05873 0
M  V30 4789 H 447.83 2.35175 -1.92163 0
M  V30 4790 H 445.415 1.1142 -0.995285 0
M  V30 4791 H 447.297 4.20244 -0.311912 0
M  V30 4792 H 445.972 3.21639 0.364727 0
M  V30 4793 H 444.879 3.19108 -1.95246 0
M  V30 4794 H 446.212 4.20872 -2.55201 0
M  V30 4795 N 447.864 1.01787 1.20321 0
M  V30 4796 C 448.811 0.589197 2.23153 0
M  V30 4797 C 449.781 -0.391367 1.61423 0
M  V30 4798 O 450.966 -0.290518 1.88575 0
M  V30 4799 C 448.106 -0.0650747 3.45039 0
M  V30 4800 C 447.219 0.960207 4.21194 0
M  V30 4801 C 446.354 0.276854 5.30478 0
M  V30 4802 C 445.393 1.2888 5.98378 0
M  V30 4803 N 444.53 0.632031 6.99249 0
M  V30 4804 H 449.37 1.47071 2.59179 0
M  V30 4805 H 446.907 0.736192 1.27352 0
M  V30 4806 H 448.865 -0.461552 4.14639 0
M  V30 4807 H 447.495 -0.910233 3.09701 0
M  V30 4808 H 446.547 1.47484 3.50646 0
M  V30 4809 H 447.859 1.72977 4.67847 0
M  V30 4810 H 447.013 -0.175056 6.06447 0
M  V30 4811 H 445.752 -0.525004 4.84866 0
M  V30 4812 H 444.757 1.75109 5.21169 0
M  V30 4813 H 445.982 2.09196 6.46076 0
M  V30 4814 H 443.928 -0.149935 6.55829 0
M  V30 4815 H 443.845 1.33964 7.44036 0
M  V30 4816 H 445.113 0.203755 7.79234 0
M  V30 4817 N 449.342 -1.36122 0.79427 0
M  V30 4818 C 450.589 -1.99111 0.368905 0
M  V30 4819 C 450.917 -1.63032 -1.0607 0
M  V30 4820 O 450.172 -0.879303 -1.74833 0
M  V30 4821 C 450.471 -3.5409 0.48527 0
M  V30 4822 C 450.137 -4.10003 1.87638 0
M  V30 4823 C 448.799 -4.24986 2.257 0
M  V30 4824 C 451.151 -4.40423 2.78706 0
M  V30 4825 C 448.479 -4.67701 3.54221 0
M  V30 4826 C 450.831 -4.84573 4.0666 0
M  V30 4827 C 449.495 -4.97761 4.44737 0
M  V30 4828 H 448.765 -0.7286 0.134992 0
M  V30 4829 H 451.412 -1.62534 1.01267 0
M  V30 4830 H 449.717 -3.91052 -0.241984 0
M  V30 4831 H 451.414 -4.00766 0.137109 0
M  V30 4832 H 448.004 -3.98784 1.57064 0
M  V30 4833 H 452.188 -4.28412 2.50553 0
M  V30 4834 H 447.444 -4.761 3.83587 0
M  V30 4835 H 451.618 -5.07074 4.77336 0
M  V30 4836 H 449.245 -5.30618 5.44379 0
M  V30 4837 N 450.82 -0.546701 -1.47814 0
M  V30 4838 C 452.067 -0.0187407 -2.02491 0
M  V30 4839 C 452.395 1.32685 -1.42215 0
M  V30 4840 O 451.65 1.87413 -0.563454 0
M  V30 4841 C 451.949 0.134869 -3.57145 0
M  V30 4842 C 451.615 -1.13849 -4.3629 0
M  V30 4843 C 450.277 -1.48743 -4.57634 0
M  V30 4844 C 452.629 -1.98277 -4.82012 0
M  V30 4845 C 449.957 -2.67932 -5.21948 0
M  V30 4846 C 452.309 -3.16659 -5.4764 0
M  V30 4847 C 450.973 -3.51879 -5.67219 0
M  V30 4848 H 450.243 -0.0068577 -0.740968 0
M  V30 4849 H 452.89 -0.716097 -1.77607 0
M  V30 4850 H 451.195 0.915118 -3.80963 0
M  V30 4851 H 452.892 0.558556 -3.97091 0
M  V30 4852 H 449.482 -0.856767 -4.19949 0
M  V30 4853 H 453.666 -1.72628 -4.6531 0
M  V30 4854 H 448.922 -2.95401 -5.35302 0
M  V30 4855 H 453.096 -3.82374 -5.82033 0
M  V30 4856 H 450.723 -4.44331 -6.16825 0
M  V30 4857 N 452.299 1.55045 -0.282633 0
M  V30 4858 C 453.71 1.85473 0.213655 0
M  V30 4859 C 454.061 1.20465 1.54863 0
M  V30 4860 O 453.186 0.495676 2.10647 0
M  V30 4861 C 453.781 3.36496 0.394445 0
M  V30 4862 C 452.34 3.67022 0.834961 0
M  V30 4863 C 451.487 2.77218 -0.0674081 0
M  V30 4864 H 454.438 1.50478 -0.504202 0
M  V30 4865 H 454.459 3.60007 1.23186 0
M  V30 4866 H 453.971 3.83782 -0.577326 0
M  V30 4867 H 452.072 3.25241 1.81794 0
M  V30 4868 H 452.185 4.74433 0.667075 0
M  V30 4869 H 450.549 2.5069 0.450196 0
M  V30 4870 H 451.332 3.2732 -1.0352 0
M  V30 4871 N 453.777 0.010035 1.57597 0
M  V30 4872 C 454.724 -0.978122 2.09049 0
M  V30 4873 C 455.694 -1.33509 0.988159 0
M  V30 4874 O 456.879 -1.43172 1.26121 0
M  V30 4875 C 454.019 -2.26158 2.60666 0
M  V30 4876 C 453.132 -1.96275 3.84838 0
M  V30 4877 C 452.267 -3.18776 4.24918 0
M  V30 4878 C 451.306 -2.84625 5.41899 0
M  V30 4879 N 450.443 -3.99693 5.77226 0
M  V30 4880 H 455.283 -0.532431 2.93205 0
M  V30 4881 H 452.82 -0.251234 1.44939 0
M  V30 4882 H 454.778 -3.01202 2.88675 0
M  V30 4883 H 453.408 -2.68378 1.79369 0
M  V30 4884 H 452.46 -1.11555 3.63675 0
M  V30 4885 H 453.772 -1.67111 4.69974 0
M  V30 4886 H 452.926 -4.02157 4.54262 0
M  V30 4887 H 451.665 -3.51087 3.38511 0
M  V30 4888 H 450.67 -1.99653 5.12268 0
M  V30 4889 H 451.895 -2.53551 6.29991 0
M  V30 4890 H 449.841 -4.31882 4.93776 0
M  V30 4891 H 449.758 -3.74087 6.56959 0
M  V30 4892 H 451.026 -4.83834 6.11167 0
M  V30 4893 N 455.255 -1.55392 -0.262866 0
M  V30 4894 C 456.218 -1.88181 -1.30846 0
M  V30 4895 C 457.218 -0.757079 -1.41862 0
M  V30 4896 O 458.408 -1.02519 -1.40838 0
M  V30 4897 C 455.54 -2.09609 -2.68844 0
M  V30 4898 H 456.733 -2.81659 -1.02997 0
M  V30 4899 H 454.286 -1.48039 -0.501414 0
M  V30 4900 H 455.021 -1.18547 -3.01856 0
M  V30 4901 H 454.806 -2.91508 -2.62231 0
M  V30 4902 H 456.296 -2.36215 -3.44372 0
M  V30 4903 N 456.733 0.527833 -1.48498 0
M  V30 4904 C 458.149 0.856571 -1.34666 0
M  V30 4905 C 458.349 1.98271 -0.35931 0
M  V30 4906 O 457.405 2.51551 0.218703 0
M  V30 4907 C 458.718 1.22207 -2.74747 0
M  V30 4908 C 460.266 1.33183 -2.83251 0
M  V30 4909 C 460.741 1.73075 -4.24039 0
M  V30 4910 N 462.232 1.80174 -4.26722 0
M  V30 4911 C 462.967 2.1243 -5.32598 0
M  V30 4912 N 462.463 2.43096 -6.4875 0
M  V30 4913 N 464.256 2.13454 -5.19994 0
M  V30 4914 H 456.407 -0.215174 -2.11307 0
M  V30 4915 H 458.67 -0.0336281 -0.947403 0
M  V30 4916 H 458.376 0.468195 -3.4857 0
M  V30 4917 H 458.25 2.17173 -3.08409 0
M  V30 4918 H 460.637 2.07647 -2.09683 0
M  V30 4919 H 460.718 0.363333 -2.53206 0
M  V30 4920 H 460.362 0.991712 -4.98124 0
M  V30 4921 H 460.292 2.70979 -4.51529 0
M  V30 4922 H 462.783 1.58744 -3.42942 0
M  V30 4923 H 463.096 2.6682 -7.25277 0
M  V30 4924 H 461.441 2.40611 -6.52021 0
M  V30 4925 H 464.632 1.88956 -4.28268 0
M  V30 4926 H 464.805 2.38261 -6.02608 0
M  V30 4927 N 458.211 1.37122 0.776871 0
M  V30 4928 C 459.488 1.22586 1.52421 0
M  V30 4929 C 459.868 -0.182726 2.10308 0
M  V30 4930 O 459.216 -1.18979 1.9508 0
M  V30 4931 C 459.426 2.31782 2.60918 0
M  V30 4932 C 460.774 2.69071 3.2846 0
M  V30 4933 O 461.798 2.3092 2.71209 0
M  V30 4934 O 460.657 3.3478 4.31954 0
M  V30 4935 H 457.751 0.478045 0.674835 0
M  V30 4936 H 460.297 1.48888 0.814275 0
M  V30 4937 H 459.069 3.26131 2.16227 0
M  V30 4938 H 458.692 2.06916 3.39517 0
M  V30 4939 N 459.689 -1.00246 1.21608 0
M  V30 4940 C 460.619 -2.10921 1.00172 0
M  V30 4941 C 461.6 -1.69938 -0.0741587 0
M  V30 4942 O 462.785 -1.94009 0.0861753 0
M  V30 4943 C 459.915 -3.42618 0.568355 0
M  V30 4944 C 458.869 -3.97407 1.58909 0
M  V30 4945 C 458.195 -5.25038 1.01187 0
M  V30 4946 C 459.495 -4.2918 2.97661 0
M  V30 4947 H 461.189 -2.29112 1.92739 0
M  V30 4948 H 458.735 -1.10101 0.928102 0
M  V30 4949 H 460.688 -4.19444 0.405555 0
M  V30 4950 H 459.412 -3.24227 -0.392961 0
M  V30 4951 H 458.071 -3.22703 1.73949 0
M  V30 4952 H 457.719 -5.02982 0.0421965 0
M  V30 4953 H 457.419 -5.62661 1.6937 0
M  V30 4954 H 458.943 -6.04507 0.860448 0
M  V30 4955 H 460.357 -4.96839 2.86049 0
M  V30 4956 H 458.754 -4.77952 3.6288 0
M  V30 4957 H 459.824 -3.3735 3.48315 0
M  V30 4958 N 461.167 -1.02423 -1.1978 0
M  V30 4959 C 462.413 -0.719051 -1.89625 0
M  V30 4960 C 462.746 0.750083 -1.7913 0
M  V30 4961 O 462.021 1.54574 -1.18056 0
M  V30 4962 C 462.304 -1.16499 -3.40735 0
M  V30 4963 C 462.157 -2.695 -3.60125 0
M  V30 4964 C 463.476 -0.742166 -4.33797 0
M  V30 4965 H 460.595 -0.26269 -0.688595 0
M  V30 4966 H 463.237 -1.27333 -1.41018 0
M  V30 4967 H 461.387 -0.69341 -3.82262 0
M  V30 4968 H 463.059 -3.24569 -3.278 0
M  V30 4969 H 461.302 -3.10113 -3.03336 0
M  V30 4970 H 461.973 -2.95757 -4.66081 0
M  V30 4971 H 464.449 -1.1477 -3.99959 0
M  V30 4972 H 463.325 -1.08213 -5.38127 0
M  V30 4973 H 463.586 0.355747 -4.40666 0
M  V30 4974 N 462.645 1.35699 -0.801477 0
M  V30 4975 C 463.555 2.33661 -0.209691 0
M  V30 4976 C 464.571 1.6162 0.644591 0
M  V30 4977 O 465.747 1.93529 0.557545 0
M  V30 4978 C 462.812 3.40816 0.636033 0
M  V30 4979 C 461.873 4.28639 -0.238147 0
M  V30 4980 C 461.106 5.30676 0.567307 0
M  V30 4981 O 461.329 5.41174 1.8024 0
M  V30 4982 O 460.263 6.01887 -0.0391336 0
M  V30 4983 H 464.089 2.8606 -1.01996 0
M  V30 4984 H 461.674 1.38379 -0.563164 0
M  V30 4985 H 463.556 4.06301 1.11791 0
M  V30 4986 H 462.231 2.90696 1.42399 0
M  V30 4987 H 461.138 3.66152 -0.767044 0
M  V30 4988 H 462.471 4.82143 -0.989915 0
M  V30 4989 N 464.123 0.554532 1.47522 0
M  V30 4990 C 465.07 -0.19466 2.29978 0
M  V30 4991 C 466.04 -0.910882 1.38896 0
M  V30 4992 O 467.225 -0.907102 1.67858 0
M  V30 4993 C 464.365 -1.22035 3.22802 0
M  V30 4994 C 463.478 -0.510474 4.28973 0
M  V30 4995 C 462.613 -1.52123 5.08952 0
M  V30 4996 C 461.652 -0.796173 6.069 0
M  V30 4997 N 460.789 -1.75363 6.79847 0
M  V30 4998 H 465.629 0.51461 2.93523 0
M  V30 4999 H 463.166 0.265607 1.44682 0
M  V30 5000 H 465.124 -1.8276 3.7504 0
M  V30 5001 H 463.754 -1.89769 2.61127 0
M  V30 5002 H 462.806 0.211234 3.79813 0
M  V30 5003 H 464.118 0.0576503 4.98767 0
M  V30 5004 H 463.272 -2.20207 5.65326 0
M  V30 5005 H 462.011 -2.12327 4.39054 0
M  V30 5006 H 461.016 -0.101388 5.49707 0
M  V30 5007 H 462.241 -0.199911 6.78806 0
M  V30 5008 H 460.187 -2.3443 6.12682 0
M  V30 5009 H 460.104 -1.23759 7.45801 0
M  V30 5010 H 461.372 -2.4257 7.40797 0
M  V30 5011 N 465.601 -1.54893 0.290851 0
M  V30 5012 C 466.531 -2.26103 -0.583084 0
M  V30 5013 C 467.512 -1.25684 -1.14619 0
M  V30 5014 O 468.697 -1.54436 -1.17741 0
M  V30 5015 C 465.827 -2.99409 -1.75987 0
M  V30 5016 C 464.781 -4.0689 -1.32758 0
M  V30 5017 C 464.107 -4.67856 -2.58872 0
M  V30 5018 C 465.407 -5.20215 -0.46624 0
M  V30 5019 H 467.101 -2.99398 0.0108214 0
M  V30 5020 H 464.647 -1.43998 0.00664468 0
M  V30 5021 H 466.6 -3.47943 -2.37727 0
M  V30 5022 H 465.324 -2.23675 -2.37985 0
M  V30 5023 H 463.983 -3.59191 -0.733299 0
M  V30 5024 H 463.631 -3.88772 -3.19163 0
M  V30 5025 H 463.331 -5.40438 -2.30653 0
M  V30 5026 H 464.855 -5.19147 -3.21433 0
M  V30 5027 H 466.269 -5.64704 -0.989047 0
M  V30 5028 H 464.666 -5.99455 -0.27826 0
M  V30 5029 H 465.736 -4.82198 0.511173 0
M  V30 5030 N 467.08 -0.0183926 -1.57589 0
M  V30 5031 C 468.01 0.965596 -2.12599 0
M  V30 5032 C 468.991 1.34641 -1.0395 0
M  V30 5033 O 470.176 1.42693 -1.31729 0
M  V30 5034 C 467.306 2.25149 -2.64434 0
M  V30 5035 C 466.26 2.01175 -3.77773 0
M  V30 5036 C 465.586 3.35937 -4.15994 0
M  V30 5037 C 466.886 1.35953 -5.04296 0
M  V30 5038 H 468.58 0.507504 -2.95067 0
M  V30 5039 H 466.126 0.242671 -1.41941 0
M  V30 5040 H 468.079 2.94357 -3.01549 0
M  V30 5041 H 466.803 2.73105 -1.79112 0
M  V30 5042 H 465.462 1.34388 -3.4108 0
M  V30 5043 H 465.11 3.81631 -3.27669 0
M  V30 5044 H 464.81 3.20705 -4.92364 0
M  V30 5045 H 466.334 4.0643 -4.55683 0
M  V30 5046 H 467.748 1.95144 -5.39065 0
M  V30 5047 H 466.145 1.31152 -5.85593 0
M  V30 5048 H 467.215 0.331071 -4.83768 0
M  V30 5049 N 468.558 1.5553 0.254621 0
M  V30 5050 C 469.804 1.77262 0.985193 0
M  V30 5051 C 470.137 0.582286 1.85265 0
M  V30 5052 O 469.412 -0.419666 1.89919 0
M  V30 5053 C 469.695 3.0881 1.85225 0
M  V30 5054 C 469.548 4.38233 1.0135 0
M  V30 5055 C 470.867 3.3653 2.83612 0
M  V30 5056 H 467.986 0.644906 0.356742 0
M  V30 5057 H 470.628 1.88264 0.256236 0
M  V30 5058 H 468.778 2.99562 2.47376 0
M  V30 5059 H 470.45 4.59463 0.411269 0
M  V30 5060 H 468.693 4.32636 0.317574 0
M  V30 5061 H 469.364 5.26644 1.65379 0
M  V30 5062 H 471.84 3.45691 2.31596 0
M  V30 5063 H 470.716 4.29805 3.41407 0
M  V30 5064 H 470.977 2.57064 3.59681 0
M  V30 5065 N 470.036 -0.519951 1.48776 0
M  V30 5066 C 470.966 -1.63253 1.66945 0
M  V30 5067 C 471.947 -1.62014 0.518224 0
M  V30 5068 O 473.132 -1.79053 0.751919 0
M  V30 5069 C 470.262 -3.0181 1.71836 0
M  V30 5070 C 469.216 -3.17911 2.8656 0
M  V30 5071 C 468.542 -4.5763 2.76548 0
M  V30 5072 C 469.842 -2.99729 4.27738 0
M  V30 5073 H 471.536 -1.48302 2.6009 0
M  V30 5074 H 469.082 -0.712026 1.25165 0
M  V30 5075 H 471.035 -3.79525 1.83135 0
M  V30 5076 H 469.759 -3.17806 0.752775 0
M  V30 5077 H 468.418 -2.42616 2.74833 0
M  V30 5078 H 468.066 -4.70476 1.77937 0
M  V30 5079 H 467.766 -4.69346 3.53536 0
M  V30 5080 H 469.29 -5.37431 2.89828 0
M  V30 5081 H 470.704 -3.67228 4.40246 0
M  V30 5082 H 469.101 -3.22932 5.05801 0
M  V30 5083 H 470.171 -1.96047 4.43502 0
M  V30 5084 N 471.514 -1.37532 -0.769588 0
M  V30 5085 C 472.791 -1.23392 -1.51768 0
M  V30 5086 C 473.171 0.17157 -2.10402 0
M  V30 5087 O 472.519 1.17943 -1.95708 0
M  V30 5088 C 472.729 -2.33163 -2.59685 0
M  V30 5089 C 474.077 -2.70809 -3.27028 0
M  V30 5090 O 475.101 -2.32355 -2.69981 0
M  V30 5091 O 473.96 -3.37066 -4.30173 0
M  V30 5092 H 471.054 -0.481617 -0.67229 0
M  V30 5093 H 473.6 -1.49318 -0.806368 0
M  V30 5094 H 472.372 -3.27273 -2.14494 0
M  V30 5095 H 471.995 -2.08713 -3.38415 0
M  V30 5096 N 472.992 0.995999 -1.22138 0
M  V30 5097 C 473.955 2.06711 -0.990109 0
M  V30 5098 C 474.955 1.60744 0.0422978 0
M  V30 5099 O 476.145 1.73095 -0.195895 0
M  V30 5100 C 473.277 3.37288 -0.49491 0
M  V30 5101 H 474.47 2.28661 -1.94047 0
M  V30 5102 H 472.023 1.16711 -1.03963 0
M  V30 5103 H 472.758 3.21022 0.459948 0
M  V30 5104 H 472.543 3.71986 -1.23971 0
M  V30 5105 H 474.033 4.16103 -0.353253 0
M  V30 5106 N 474.47 1.03057 1.19235 0
M  V30 5107 C 475.698 0.747697 1.92917 0
M  V30 5108 C 476.113 -0.69372 1.75593 0
M  V30 5109 O 475.47 -1.47191 1.07894 0
M  V30 5110 C 475.521 1.09159 3.44625 0
M  V30 5111 O 475.242 2.47641 3.61394 0
M  V30 5112 C 476.743 0.831763 4.35427 0
M  V30 5113 H 473.963 0.273453 0.612751 0
M  V30 5114 H 476.507 1.37552 1.51327 0
M  V30 5115 H 474.662 0.508919 3.84043 0
M  V30 5116 H 475.076 2.60499 4.55237 0
M  V30 5117 H 476.55 1.12233 5.4047 0
M  V30 5118 H 477.027 -0.233769 4.38577 0
M  V30 5119 H 477.633 1.39725 4.01693 0
M  V30 5120 N 475.948 -1.35272 0.808662 0
M  V30 5121 C 476.895 -2.29764 0.218482 0
M  V30 5122 C 477.865 -1.52911 -0.648652 0
M  V30 5123 O 479.05 -1.81341 -0.593297 0
M  V30 5124 C 476.19 -3.39388 -0.625282 0
M  V30 5125 C 475.303 -4.31202 0.262516 0
M  V30 5126 C 474.438 -5.27919 -0.589451 0
M  V30 5127 C 473.477 -6.11371 0.298617 0
M  V30 5128 N 472.614 -7.0022 -0.513443 0
M  V30 5129 H 477.454 -2.79645 1.02968 0
M  V30 5130 H 474.991 -1.37629 0.519303 0
M  V30 5131 H 476.949 -4.01615 -1.12966 0
M  V30 5132 H 475.579 -2.90777 -1.40173 0
M  V30 5133 H 474.631 -3.69962 0.885013 0
M  V30 5134 H 475.943 -4.89748 0.945971 0
M  V30 5135 H 475.097 -5.95529 -1.15888 0
M  V30 5136 H 473.836 -4.69875 -1.30647 0
M  V30 5137 H 472.841 -5.42707 0.880301 0
M  V30 5138 H 474.066 -6.71494 1.01352 0
M  V30 5139 H 472.012 -6.44662 -1.21439 0
M  V30 5140 H 471.929 -7.55917 0.111922 0
M  V30 5141 H 473.197 -7.72175 -1.06608 0
M  V30 5142 N 477.426 -0.562348 -1.47226 0
M  V30 5143 C 478.842 -0.222492 -1.58042 0
M  V30 5144 C 479.042 1.27505 -1.56028 0
M  V30 5145 O 478.098 2.05555 -1.46641 0
M  V30 5146 C 479.411 -0.853694 -2.88327 0
M  V30 5147 C 480.959 -0.825397 -3.01921 0
M  V30 5148 C 481.434 -1.43576 -4.34914 0
M  V30 5149 N 482.925 -1.39918 -4.41562 0
M  V30 5150 C 483.66 -1.84103 -5.43041 0
M  V30 5151 N 483.156 -2.36167 -6.51304 0
M  V30 5152 N 484.949 -1.75142 -5.34118 0
M  V30 5153 H 477.1 -1.53525 -1.46778 0
M  V30 5154 H 479.363 -0.640527 -0.698877 0
M  V30 5155 H 479.069 -1.90635 -2.95552 0
M  V30 5156 H 478.943 -0.34977 -3.75575 0
M  V30 5157 H 481.33 0.218583 -2.94289 0
M  V30 5158 H 481.411 -1.36713 -2.16202 0
M  V30 5159 H 481.055 -2.47884 -4.43301 0
M  V30 5160 H 480.985 -0.869427 -5.19373 0
M  V30 5161 H 483.476 -1.0184 -3.63919 0
M  V30 5162 H 483.789 -2.67793 -7.24919 0
M  V30 5163 H 482.134 -2.40181 -6.52179 0
M  V30 5164 H 485.325 -1.34241 -4.48439 0
M  V30 5165 H 485.498 -2.09895 -6.13065 0
M  V30 5166 N 478.904 1.54736 -0.299062 0
M  V30 5167 C 479.834 2.26409 0.571085 0
M  V30 5168 C 480.815 1.2629 1.13951 0
M  V30 5169 O 482 1.55059 1.16921 0
M  V30 5170 C 479.13 3.00338 1.74396 0
M  V30 5171 C 478.084 4.07588 1.30599 0
M  V30 5172 C 477.41 4.69222 2.56387 0
M  V30 5173 C 478.71 5.20455 0.438645 0
M  V30 5174 H 480.404 2.99388 -0.0266991 0
M  V30 5175 H 477.95 1.43993 -0.0142812 0
M  V30 5176 H 479.903 3.49198 2.35878 0
M  V30 5177 H 478.627 2.24934 2.36796 0
M  V30 5178 H 477.286 3.59575 0.71424 0
M  V30 5179 H 476.934 3.9046 3.17097 0
M  V30 5180 H 476.634 5.41653 2.27784 0
M  V30 5181 H 478.158 5.20844 3.18675 0
M  V30 5182 H 479.572 5.65221 0.959085 0
M  V30 5183 H 477.969 5.99594 0.246466 0
M  V30 5184 H 479.039 4.8192 -0.536738 0
M  V30 5185 N 480.382 0.0267497 1.57577 0
M  V30 5186 C 481.63 -0.651116 1.91324 0
M  V30 5187 C 481.951 -1.72804 0.90353 0
M  V30 5188 O 481.221 -1.95822 -0.0552946 0
M  V30 5189 H 479.801 -0.243491 0.706202 0
M  V30 5190 H 482.463 0.0739935 1.94759 0
M  V30 5191 H 481.559 -1.10536 2.9187 0
M  V30 5192 N 481.861 -1.55662 -0.24637 0
M  V30 5193 C 483.101 -1.79283 -0.981685 0
M  V30 5194 C 483.465 -0.596356 -1.82504 0
M  V30 5195 O 484.666 -0.711342 -2.59217 0
M  V30 5196 C 482.937 -3.07648 -1.819 0
M  V30 5197 S 484.496 -3.52491 -2.61334 0
M  V30 5198 H 481.314 -0.629676 -0.330196 0
M  V30 5199 H 483.916 -1.93901 -0.249498 0
M  V30 5200 H 482.62 -3.92794 -1.18915 0
M  V30 5201 H 482.151 -2.95768 -2.59393 0
M  V30 5202 H 484.166 -3.13866 -3.84321 0
M  V30 5203 N 483.339 0.512053 -1.4905 0
M  V30 5204 C 484.249 1.64139 -1.67617 0
M  V30 5205 C 485.265 1.64786 -0.558701 0
M  V30 5206 O 486.441 1.8341 -0.832034 0
M  V30 5207 C 483.506 3.00548 -1.72835 0
M  V30 5208 C 482.567 3.10615 -2.96339 0
M  V30 5209 C 481.8 4.40517 -3.01298 0
M  V30 5210 O 482.023 5.28671 -2.14157 0
M  V30 5211 O 480.957 4.55325 -3.93653 0
M  V30 5212 H 484.783 1.51407 -2.63267 0
M  V30 5213 H 482.368 0.687131 -1.32661 0
M  V30 5214 H 484.25 3.81641 -1.78683 0
M  V30 5215 H 482.925 3.13566 -0.803616 0
M  V30 5216 H 481.832 2.2875 -2.96014 0
M  V30 5217 H 483.165 3.0252 -3.88256 0
M  V30 5218 N 484.817 1.37938 0.762283 0
M  V30 5219 C 485.727 1.36681 1.90671 0
M  V30 5220 C 486.743 0.265078 1.71969 0
M  V30 5221 O 487.919 0.502055 1.95042 0
M  V30 5222 C 484.984 1.18211 3.25925 0
M  V30 5223 C 484.045 2.3811 3.57214 0
M  V30 5224 C 483.278 2.20512 4.86014 0
M  V30 5225 O 483.501 1.19429 5.57757 0
M  V30 5226 O 482.435 3.08911 5.16583 0
M  V30 5227 H 486.261 2.33091 1.94685 0
M  V30 5228 H 483.846 1.18767 0.906356 0
M  V30 5229 H 485.728 1.09937 4.06807 0
M  V30 5230 H 484.403 0.248807 3.22742 0
M  V30 5231 H 483.31 2.51958 2.76529 0
M  V30 5232 H 484.643 3.30041 3.65149 0
M  V30 5233 N 486.295 -0.989507 1.22664 0
M  V30 5234 C 487.228 -2.07805 0.942985 0
M  V30 5235 C 488.206 -1.6219 -0.115356 0
M  V30 5236 O 489.39 -1.88492 0.0169565 0
M  V30 5237 C 486.517 -3.361 0.418898 0
M  V30 5238 C 485.563 -4.00643 1.46244 0
M  V30 5239 S 486.396 -4.41059 3.03689 0
M  V30 5240 C 487.552 -5.7252 2.52927 0
M  V30 5241 H 487.785 -2.31547 1.86476 0
M  V30 5242 H 485.318 -1.12446 1.05808 0
M  V30 5243 H 487.276 -4.10315 0.123114 0
M  V30 5244 H 485.937 -3.10383 -0.481818 0
M  V30 5245 H 485.13 -4.93033 1.04569 0
M  V30 5246 H 484.732 -3.32767 1.7071 0
M  V30 5247 H 487.024 -6.49017 1.94379 0
M  V30 5248 H 487.967 -6.19026 3.4382 0
M  V30 5249 H 488.375 -5.30083 1.94094 0
M  V30 5250 N 487.773 -1.03688 -1.18687 0
M  V30 5251 C 488.683 -0.634908 -2.25845 0
M  V30 5252 C 489.699 0.337065 -1.70704 0
M  V30 5253 O 490.875 0.192943 -2.00474 0
M  V30 5254 C 487.94 -0.000180054 -3.467 0
M  V30 5255 C 487.001 -1.02067 -4.1699 0
M  V30 5256 C 486.234 -0.41614 -5.32075 0
M  V30 5257 O 486.457 0.778712 -5.65059 0
M  V30 5258 O 485.391 -1.14296 -5.90948 0
M  V30 5259 H 489.217 -1.52757 -2.62486 0
M  V30 5260 H 486.802 -0.807533 -1.25695 0
M  V30 5261 H 488.684 0.353342 -4.19916 0
M  V30 5262 H 487.359 0.866367 -3.11891 0
M  V30 5263 H 486.266 -1.42592 -3.45859 0
M  V30 5264 H 487.599 -1.85786 -4.5579 0
M  V30 5265 N 489.251 1.34841 -0.815825 0
M  V30 5266 C 490.499 1.98107 -0.399744 0
M  V30 5267 C 490.82 1.65019 1.03894 0
M  V30 5268 O 490.09 0.937311 1.72021 0
M  V30 5269 H 488.67 0.732827 -0.144823 0
M  V30 5270 H 491.332 1.64599 -1.0437 0
M  V30 5271 H 490.428 3.07856 -0.512965 0
M  V30 5272 N 490.729 0.570148 1.46925 0
M  V30 5273 C 491.959 0.0561151 2.06524 0
M  V30 5274 C 492.367 -1.24874 1.42137 0
M  V30 5275 O 491.71 -1.76292 0.516417 0
M  V30 5276 C 491.772 -0.197035 3.5896 0
M  V30 5277 C 491.436 1.02033 4.45464 0
M  V30 5278 C 492.433 1.92921 4.82781 0
M  V30 5279 C 490.118 1.23864 4.86788 0
M  V30 5280 C 492.112 3.03999 5.60235 0
M  V30 5281 C 489.799 2.35249 5.64004 0
M  V30 5282 C 490.797 3.25146 6.0064 0
M  V30 5283 O 490.485 4.34598 6.76299 0
M  V30 5284 H 490.217 0.0487409 0.674241 0
M  V30 5285 H 492.771 0.786915 1.89728 0
M  V30 5286 H 491.001 -0.982299 3.74016 0
M  V30 5287 H 492.69 -0.658032 4.00531 0
M  V30 5288 H 493.456 1.77265 4.51444 0
M  V30 5289 H 489.335 0.54805 4.57731 0
M  V30 5290 H 492.879 3.74192 5.8875 0
M  V30 5291 H 488.776 2.50873 5.94755 0
M  V30 5292 H 489.544 4.32808 6.94708 0
M  V30 5293 N 492.207 -1.54576 0.307264 0
M  V30 5294 C 493.455 -1.99867 -0.299574 0
M  V30 5295 C 493.776 -1.19714 -1.53927 0
M  V30 5296 O 493.046 -0.29472 -1.9367 0
M  V30 5297 H 491.626 -0.738299 -0.113683 0
M  V30 5298 H 494.288 -1.9032 0.420042 0
M  V30 5299 H 493.384 -3.06901 -0.567283 0
M  V30 5300 N 493.685 -0.035106 -1.57561 0
M  V30 5301 C 495.096 0.502885 -1.798 0
M  V30 5302 C 495.447 1.71892 -0.945921 0
M  V30 5303 O 494.572 2.15822 -0.157991 0
M  V30 5304 C 495.167 0.919097 -3.26095 0
M  V30 5305 C 493.726 1.40216 -3.49308 0
M  V30 5306 C 492.873 0.369709 -2.74824 0
M  V30 5307 H 495.824 -0.261102 -1.56537 0
M  V30 5308 H 495.845 1.78308 -3.36135 0
M  V30 5309 H 495.357 0.0338526 -3.88085 0
M  V30 5310 H 493.458 2.30714 -2.92578 0
M  V30 5311 H 493.571 1.40541 -4.58023 0
M  V30 5312 H 491.935 0.839113 -2.40481 0
M  V30 5313 H 492.718 -0.507173 -3.39533 0
M  V30 5314 N 495.163 1.55791 0.238111 0
M  V30 5315 C 496.093 1.94068 1.29846 0
M  V30 5316 C 497.074 0.806726 1.49753 0
M  V30 5317 O 498.259 1.06772 1.62214 0
M  V30 5318 C 495.389 2.24302 2.65153 0
M  V30 5319 C 494.343 3.40032 2.59927 0
M  V30 5320 C 493.669 3.55829 3.99111 0
M  V30 5321 C 494.969 4.75476 2.16148 0
M  V30 5322 H 496.663 2.82887 0.980563 0
M  V30 5323 H 494.209 1.36105 0.470253 0
M  V30 5324 H 496.162 2.4967 3.39475 0
M  V30 5325 H 494.886 1.32318 2.98596 0
M  V30 5326 H 493.545 3.14687 1.88063 0
M  V30 5327 H 493.193 2.6125 4.29834 0
M  V30 5328 H 492.893 4.3366 3.96501 0
M  V30 5329 H 494.417 3.83528 4.7512 0
M  V30 5330 H 495.831 5.00158 2.80205 0
M  V30 5331 H 494.228 5.56472 2.24631 0
M  V30 5332 H 495.298 4.71946 1.11333 0
M  V30 5333 N 496.642 -0.504142 1.49319 0
M  V30 5334 C 497.589 -1.60603 1.65756 0
M  V30 5335 C 498.559 -1.58425 0.499082 0
M  V30 5336 O 499.744 -1.76459 0.725728 0
M  V30 5337 C 496.884 -2.98764 1.72726 0
M  V30 5338 C 495.997 -3.10982 2.99857 0
M  V30 5339 C 495.132 -4.39857 2.97824 0
M  V30 5340 C 494.171 -4.45697 4.19548 0
M  V30 5341 N 493.308 -5.65995 4.15444 0
M  V30 5342 H 498.148 -1.45895 2.59843 0
M  V30 5343 H 495.685 -0.709891 1.28837 0
M  V30 5344 H 497.643 -3.78839 1.74747 0
M  V30 5345 H 496.273 -3.12183 0.821075 0
M  V30 5346 H 495.325 -2.23991 3.07461 0
M  V30 5347 H 496.637 -3.11157 3.89849 0
M  V30 5348 H 495.791 -5.2825 2.98391 0
M  V30 5349 H 494.53 -4.42242 2.05604 0
M  V30 5350 H 493.535 -3.55707 4.19229 0
M  V30 5351 H 494.76 -4.4503 5.12957 0
M  V30 5352 H 492.706 -5.69229 3.26059 0
M  V30 5353 H 492.623 -5.67773 4.99169 0
M  V30 5354 H 493.891 -6.56604 4.20109 0
M  V30 5355 N 498.12 -1.38341 -0.754957 0
M  V30 5356 C 499.083 -1.35262 -1.85032 0
M  V30 5357 C 500.083 -0.253393 -1.58791 0
M  V30 5358 O 501.273 -0.510205 -1.66561 0
M  V30 5359 C 498.405 -1.10544 -3.22479 0
M  V30 5360 H 499.598 -2.32712 -1.8917 0
M  V30 5361 H 497.151 -1.23614 -0.956515 0
M  V30 5362 H 497.886 -0.136952 -3.24011 0
M  V30 5363 H 497.671 -1.90127 -3.4292 0
M  V30 5364 H 499.161 -1.11082 -4.02555 0
M  V30 5365 N 499.598 0.982988 -1.23187 0
M  V30 5366 C 500.548 2.05962 -0.977942 0
M  V30 5367 C 501.532 1.60725 0.0751148 0
M  V30 5368 O 502.724 1.76471 -0.136683 0
M  V30 5369 C 499.853 3.38564 -0.568276 0
M  V30 5370 C 498.939 3.90407 -1.6566 0
M  V30 5371 N 499.33 4.15359 -2.88635 0
M  V30 5372 C 497.628 4.18915 -1.53058 0
M  V30 5373 C 498.329 4.57642 -3.5908 0
M  V30 5374 N 497.305 4.6192 -2.86584 0
M  V30 5375 H 501.107 2.23208 -1.91195 0
M  V30 5376 H 498.621 1.16555 -1.13087 0
M  V30 5377 H 500.618 4.15276 -0.36764 0
M  V30 5378 H 499.278 3.22712 0.358713 0
M  V30 5379 H 500.289 4.03258 -3.24966 0
M  V30 5380 H 496.966 4.12081 -0.670506 0
M  V30 5381 H 498.356 4.85488 -4.6449 0
M  V30 5382 N 501.076 1.04316 1.18135 0
M  V30 5383 C 502.487 0.775505 1.69832 0
M  V30 5384 C 502.838 -0.703348 1.8316 0
M  V30 5385 O 501.963 -1.54729 1.51287 0
M  V30 5386 C 502.558 1.40112 3.0847 0
M  V30 5387 C 501.117 1.18172 3.57368 0
M  V30 5388 C 500.264 1.49022 2.33854 0
M  V30 5389 H 503.215 1.20925 1.02775 0
M  V30 5390 H 503.236 0.805672 3.71873 0
M  V30 5391 H 502.748 2.47744 2.98738 0
M  V30 5392 H 500.849 0.124258 3.72393 0
M  V30 5393 H 500.962 1.8805 4.40652 0
M  V30 5394 H 499.326 0.909995 2.37889 0
M  V30 5395 H 500.109 2.57768 2.26738 0
M  V30 5396 N 502.554 -1.34406 0.822964 0
M  V30 5397 C 503.801 -1.98284 0.411057 0
M  V30 5398 C 504.129 -1.65245 -1.02588 0
M  V30 5399 O 503.384 -0.91619 -1.72929 0
M  V30 5400 C 503.683 -3.52981 0.560268 0
M  V30 5401 C 503.349 -4.05931 1.96293 0
M  V30 5402 C 502.011 -4.20103 2.34664 0
M  V30 5403 C 504.363 -4.34412 2.87985 0
M  V30 5404 C 501.691 -4.60082 3.64062 0
M  V30 5405 C 504.043 -4.75838 4.16847 0
M  V30 5406 C 502.707 -4.88215 4.55195 0
M  V30 5407 H 501.977 -0.725573 0.150416 0
M  V30 5408 H 504.624 -1.60349 1.04692 0
M  V30 5409 H 502.929 -3.91477 -0.158982 0
M  V30 5410 H 504.626 -4.00385 0.222087 0
M  V30 5411 H 501.216 -3.95363 1.65487 0
M  V30 5412 H 505.4 -4.23001 2.59584 0
M  V30 5413 H 500.656 -4.67856 3.93599 0
M  V30 5414 H 504.83 -4.96834 4.87984 0
M  V30 5415 H 502.457 -5.18952 5.55512 0
M  V30 5416 N 504.032 -0.577932 -1.46621 0
M  V30 5417 C 505.279 -0.0616879 -2.02406 0
M  V30 5418 C 505.607 1.29638 -1.44997 0
M  V30 5419 O 504.862 1.86176 -0.60308 0
M  V30 5420 C 505.161 0.0590832 -3.57351 0
M  V30 5421 C 504.827 -1.23077 -4.33777 0
M  V30 5422 C 503.489 -1.58416 -4.54376 0
M  V30 5423 C 505.841 -2.08457 -4.77698 0
M  V30 5424 C 503.169 -2.78943 -5.16147 0
M  V30 5425 C 505.521 -3.28204 -5.408 0
M  V30 5426 C 504.185 -3.63832 -5.59627 0
M  V30 5427 H 503.455 -0.0225732 -0.740656 0
M  V30 5428 H 506.102 -0.753609 -1.76048 0
M  V30 5429 H 504.407 0.834104 -3.82818 0
M  V30 5430 H 506.104 0.474202 -3.98186 0
M  V30 5431 H 502.694 -0.945652 -4.18038 0
M  V30 5432 H 506.878 -1.82459 -4.61544 0
M  V30 5433 H 502.134 -3.06689 -5.28916 0
M  V30 5434 H 506.308 -3.94634 -5.73792 0
M  V30 5435 H 503.935 -4.57315 -6.07262 0
M  V30 5436 N 505.51 1.54411 -0.315457 0
M  V30 5437 C 506.42 2.27737 0.56329 0
M  V30 5438 C 507.436 1.31787 1.13614 0
M  V30 5439 O 508.612 1.64791 1.15784 0
M  V30 5440 C 505.677 3.01478 1.71207 0
M  V30 5441 C 504.738 4.12997 1.17185 0
M  V30 5442 C 503.971 4.83212 2.26588 0
M  V30 5443 O 504.194 4.52884 3.46775 0
M  V30 5444 O 503.128 5.70299 1.92463 0
M  V30 5445 H 506.954 3.03683 -0.0319614 0
M  V30 5446 H 504.539 1.49178 -0.0814188 0
M  V30 5447 H 506.421 3.47683 2.38106 0
M  V30 5448 H 505.096 2.28414 2.29366 0
M  V30 5449 H 504.003 3.71159 0.468174 0
M  V30 5450 H 505.336 4.8808 0.635501 0
M  V30 5451 N 506.988 0.0434614 1.5754 0
M  V30 5452 C 508.213 -0.645358 1.97104 0
M  V30 5453 C 508.638 -1.64037 0.920521 0
M  V30 5454 O 507.996 -1.80922 -0.11708 0
M  V30 5455 C 508.044 -1.31547 3.35749 0
M  V30 5456 O 507.148 -2.43103 3.33129 0
M  V30 5457 H 506.489 -0.168403 0.64229 0
M  V30 5458 H 509.019 0.109573 2.04306 0
M  V30 5459 H 509.029 -1.66895 3.72304 0
M  V30 5460 H 507.704 -0.586205 4.11748 0
M  V30 5461 H 506.281 -2.0976 3.0831 0
M  V30 5462 N 508.466 -1.55915 -0.229846 0
M  V30 5463 C 509.712 -1.78807 -0.956868 0
M  V30 5464 C 510.045 -0.611687 -1.84315 0
M  V30 5465 O 509.32 0.389398 -1.90562 0
M  V30 5466 C 509.603 -3.11718 -1.80288 0
M  V30 5467 C 509.456 -4.3979 -0.943649 0
M  V30 5468 C 510.775 -3.40999 -2.78222 0
M  V30 5469 H 507.894 -0.6505 -0.346437 0
M  V30 5470 H 510.536 -1.88648 -0.226252 0
M  V30 5471 H 508.686 -3.03459 -2.42579 0
M  V30 5472 H 510.358 -4.60059 -0.338121 0
M  V30 5473 H 508.601 -4.33086 -0.248705 0
M  V30 5474 H 509.272 -5.29208 -1.5698 0
M  V30 5475 H 511.748 -3.49332 -2.26067 0
M  V30 5476 H 510.624 -4.35183 -3.34526 0
M  V30 5477 H 510.885 -2.62754 -3.55546 0
M  V30 5478 N 509.944 0.496216 -1.49584 0
M  V30 5479 C 511.172 1.27394 -1.63029 0
M  V30 5480 C 511.587 1.86344 -0.303569 0
M  V30 5481 O 510.944 1.68057 0.711547 0
M  V30 5482 C 510.995 2.40077 -2.70269 0
M  V30 5483 O 510.716 1.83549 -3.97796 0
M  V30 5484 C 512.217 3.31372 -2.94462 0
M  V30 5485 H 509.437 0.386211 -0.54871 0
M  V30 5486 H 511.981 0.595163 -1.95648 0
M  V30 5487 H 510.136 3.03775 -2.40415 0
M  V30 5488 H 510.55 2.57561 -4.56905 0
M  V30 5489 H 512.024 4.06707 -3.73221 0
M  V30 5490 H 512.501 3.88654 -2.0456 0
M  V30 5491 H 513.107 2.73435 -3.25751 0
M  V30 5492 N 511.423 1.38739 0.74761 0
M  V30 5493 C 512.669 1.3648 1.50814 0
M  V30 5494 C 513.024 -0.0431982 1.92351 0
M  V30 5495 O 512.317 -1.0071 1.62997 0
M  V30 5496 C 512.511 2.25992 2.7688 0
M  V30 5497 C 512.34 3.75354 2.47668 0
M  V30 5498 C 511.11 4.44348 2.40589 0
M  V30 5499 C 513.308 4.67642 2.14046 0
M  V30 5500 N 511.29 5.79114 2.03715 0
M  V30 5501 C 512.661 5.90965 1.87512 0
M  V30 5502 C 514.716 4.55787 2.00407 0
M  V30 5503 C 513.419 7.03759 1.48714 0
M  V30 5504 C 515.445 5.68491 1.63011 0
M  V30 5505 C 514.807 6.90879 1.37353 0
M  V30 5506 H 510.906 0.554695 0.551214 0
M  V30 5507 H 513.49 1.7418 0.870033 0
M  V30 5508 H 511.661 1.9047 3.3849 0
M  V30 5509 H 513.393 2.14815 3.42982 0
M  V30 5510 H 510.148 3.97634 2.57262 0
M  V30 5511 H 510.572 6.504 1.87906 0
M  V30 5512 H 515.214 3.61712 2.18916 0
M  V30 5513 H 512.932 7.97746 1.28945 0
M  V30 5514 H 516.518 5.613 1.53081 0
M  V30 5515 H 515.398 7.76609 1.08848 0
M  V30 5516 N 512.901 -0.976442 1.23707 0
M  V30 5517 C 513.811 -2.10359 1.03856 0
M  V30 5518 C 514.827 -1.73991 -0.0180919 0
M  V30 5519 O 516.003 -2.0061 0.178211 0
M  V30 5520 C 513.068 -3.40809 0.636387 0
M  V30 5521 C 512.129 -3.91179 1.76854 0
M  V30 5522 C 511.362 -5.15404 1.38546 0
M  V30 5523 O 511.585 -5.69754 0.27142 0
M  V30 5524 O 510.519 -5.5994 2.20797 0
M  V30 5525 H 514.345 -2.29997 1.98331 0
M  V30 5526 H 511.93 -1.08742 1.02448 0
M  V30 5527 H 513.812 -4.19269 0.423223 0
M  V30 5528 H 512.487 -3.22493 -0.279322 0
M  V30 5529 H 511.394 -3.13819 2.03638 0
M  V30 5530 H 512.727 -4.13958 2.6627 0
M  V30 5531 N 514.379 -1.04941 -1.1758 0
M  V30 5532 C 515.327 -0.64204 -2.23563 0
M  V30 5533 C 516.321 0.335453 -1.66045 0
M  V30 5534 O 517.527 0.20179 -1.78865 0
M  V30 5535 H 513.902 -0.18944 -0.727748 0
M  V30 5536 H 515.873 -1.54609 -2.55223 0
M  V30 5537 C 514.622 -0.0301051 -3.47687 0
M  V30 5538 H 513.945 -0.773339 -3.92249 0
M  V30 5539 H 515.385 0.217592 -4.23441 0
M  V30 5540 C 513.844 1.2225 -3.13937 0
M  V30 5541 O 514.374 2.3122 -3.28482 0
M  V30 5542 N 512.58 1.11917 -2.68185 0
M  V30 5543 H 512.127 0.232403 -2.5655 0
M  V30 5544 H 512.085 1.95814 -2.45976 0
M  V30 5545 N 515.857 1.33968 -0.830081 0
M  V30 5546 C 516.787 2.31911 -0.271911 0
M  V30 5547 C 517.768 1.58571 0.61556 0
M  V30 5548 O 518.953 1.86514 0.540946 0
M  V30 5549 C 516.083 3.42737 0.561146 0
M  V30 5550 C 515.037 4.27383 -0.229789 0
M  V30 5551 C 514.363 5.29742 0.726463 0
M  V30 5552 C 515.663 5.02 -1.44197 0
M  V30 5553 H 517.357 2.78844 -1.09025 0
M  V30 5554 H 514.903 1.34061 -0.52571 0
M  V30 5555 H 516.856 4.10276 0.961867 0
M  V30 5556 H 515.58 2.94471 1.41261 0
M  V30 5557 H 514.239 3.61456 -0.611964 0
M  V30 5558 H 513.887 4.77736 1.57408 0
M  V30 5559 H 513.587 5.87255 0.20142 0
M  V30 5560 H 515.111 6.00149 1.12489 0
M  V30 5561 H 516.525 5.62355 -1.11488 0
M  V30 5562 H 514.922 5.69122 -1.90317 0
M  V30 5563 H 515.992 4.31281 -2.2164 0
M  V30 5564 N 517.335 0.585699 1.46312 0
M  V30 5565 C 518.285 -0.166813 2.27389 0
M  V30 5566 C 519.269 -0.859076 1.36047 0
M  V30 5567 O 520.461 -0.752678 1.60199 0
M  V30 5568 C 517.59 -1.17791 3.2246 0
M  V30 5569 C 516.676 -0.487605 4.21288 0
M  V30 5570 N 517.067 0.45849 5.03718 0
M  V30 5571 C 515.365 -0.737971 4.39852 0
M  V30 5572 C 516.066 0.862213 5.75275 0
M  V30 5573 N 515.042 0.210707 5.43191 0
M  V30 5574 H 518.844 0.560167 2.88512 0
M  V30 5575 H 516.358 0.407715 1.57199 0
M  V30 5576 H 518.355 -1.73122 3.79255 0
M  V30 5577 H 517.015 -1.90568 2.62896 0
M  V30 5578 H 518.026 0.834163 5.11138 0
M  V30 5579 H 514.703 -1.45209 3.91434 0
M  V30 5580 H 516.093 1.64128 6.51546 0
M  V30 5581 N 518.813 -1.54241 0.323641 0
M  V30 5582 C 519.745 -2.21836 -0.576311 0
M  V30 5583 C 520.758 -1.21837 -1.07979 0
M  V30 5584 O 521.947 -1.48306 -0.99336 0
M  V30 5585 C 519.047 -2.86923 -1.80356 0
M  V30 5586 C 518.22 -4.1306 -1.43875 0
M  V30 5587 C 517.279 -4.6174 -2.52353 0
M  V30 5588 O 516.305 -5.26421 -2.16494 0
M  V30 5589 N 517.507 -4.35974 -3.83284 0
M  V30 5590 H 520.272 -2.997 0.00247987 0
M  V30 5591 H 517.833 -1.61233 0.146848 0
M  V30 5592 H 519.825 -3.16414 -2.52318 0
M  V30 5593 H 518.395 -2.12765 -2.29019 0
M  V30 5594 H 517.615 -3.90334 -0.550752 0
M  V30 5595 H 518.903 -4.95148 -1.17071 0
M  V30 5596 H 518.301 -3.84203 -4.15216 0
M  V30 5597 H 516.858 -4.70119 -4.51477 0
M  V30 5598 N 520.291 -0.0518155 -1.57515 0
M  V30 5599 C 521.223 0.951542 -2.08515 0
M  V30 5600 C 522.236 1.27436 -1.01311 0
M  V30 5601 O 523.425 1.23504 -1.28876 0
M  V30 5602 C 520.525 2.27291 -2.5138 0
M  V30 5603 C 519.698 2.13191 -3.81927 0
M  V30 5604 C 518.757 3.28458 -4.11098 0
M  V30 5605 O 517.783 3.04334 -4.81009 0
M  V30 5606 N 518.985 4.52954 -3.63061 0
M  V30 5607 H 521.75 0.516242 -2.9522 0
M  V30 5608 H 519.311 0.13441 -1.61341 0
M  V30 5609 H 521.303 3.03272 -2.67971 0
M  V30 5610 H 519.873 2.62386 -1.69919 0
M  V30 5611 H 519.093 1.21798 -3.74912 0
M  V30 5612 H 520.381 2.00999 -4.67415 0
M  V30 5613 H 519.779 4.75444 -3.06545 0
M  V30 5614 H 518.336 5.26026 -3.84889 0
M  V30 5615 N 521.769 1.56035 0.221574 0
M  V30 5616 C 522.997 1.8313 0.962864 0
M  V30 5617 C 523.412 0.630934 1.77946 0
M  V30 5618 O 522.769 -0.400519 1.78051 0
M  V30 5619 C 522.82 3.08742 1.88045 0
M  V30 5620 O 522.541 4.24147 1.09686 0
M  V30 5621 C 524.042 3.48824 2.73563 0
M  V30 5622 H 521.262 0.608775 0.282194 0
M  V30 5623 H 523.806 2.03124 0.23681 0
M  V30 5624 H 521.961 2.90723 2.56045 0
M  V30 5625 H 522.375 4.95505 1.71974 0
M  V30 5626 H 523.849 4.39752 3.3365 0
M  V30 5627 H 524.326 2.70575 3.45956 0
M  V30 5628 H 524.932 3.69282 2.10976 0
M  V30 5629 N 523.247 -0.488276 1.49845 0
M  V30 5630 C 524.658 -1.06955 1.53028 0
M  V30 5631 C 525.009 -1.9351 0.323797 0
M  V30 5632 O 524.134 -2.08891 -0.565116 0
M  V30 5633 C 524.729 -1.94643 2.77307 0
M  V30 5634 C 523.288 -2.4791 2.83227 0
M  V30 5635 C 522.435 -1.25833 2.47106 0
M  V30 5636 H 525.386 -0.271626 1.56358 0
M  V30 5637 H 525.407 -2.79496 2.5819 0
M  V30 5638 H 524.919 -1.31621 3.65099 0
M  V30 5639 H 523.02 -3.14535 1.99745 0
M  V30 5640 H 523.133 -2.84193 3.85709 0
M  V30 5641 H 521.497 -1.58764 1.99163 0
M  V30 5642 H 522.28 -0.644993 3.37186 0
M  V30 5643 N 524.725 -1.39134 -0.740242 0
M  V30 5644 C 526.136 -1.32208 -1.31825 0
M  V30 5645 C 526.487 0.0159919 -1.96193 0
M  V30 5646 O 525.612 0.918111 -1.95958 0
M  V30 5647 C 526.207 -2.39436 -2.39699 0
M  V30 5648 C 524.766 -2.36048 -2.93187 0
M  V30 5649 C 523.913 -2.21599 -1.66701 0
M  V30 5650 H 526.864 -1.49298 -0.538133 0
M  V30 5651 H 526.885 -2.05922 -3.19963 0
M  V30 5652 H 526.397 -3.36811 -1.92821 0
M  V30 5653 H 524.498 -1.42295 -3.44359 0
M  V30 5654 H 524.611 -3.30704 -3.46658 0
M  V30 5655 H 522.975 -1.68681 -1.90837 0
M  V30 5656 H 523.758 -3.20936 -1.21882 0
M  V30 5657 N 526.204 0.969867 -1.24223 0
M  V30 5658 C 527.151 2.06407 -1.0327 0
M  V30 5659 C 528.121 1.66014 0.0533 0
M  V30 5660 O 529.306 1.90533 -0.100896 0
M  V30 5661 C 526.446 3.3909 -0.641262 0
M  V30 5662 C 525.559 3.9269 -1.80051 0
M  V30 5663 C 524.694 5.13631 -1.35486 0
M  V30 5664 C 523.733 5.59423 -2.48419 0
M  V30 5665 N 522.87 6.71586 -2.04737 0
M  V30 5666 H 527.71 2.23663 -1.96923 0
M  V30 5667 H 525.247 1.09624 -0.980862 0
M  V30 5668 H 527.205 4.15323 -0.395351 0
M  V30 5669 H 525.835 3.21765 0.258269 0
M  V30 5670 H 524.887 3.13116 -2.16014 0
M  V30 5671 H 526.199 4.22636 -2.64916 0
M  V30 5672 H 525.353 5.97231 -1.0677 0
M  V30 5673 H 524.092 4.85364 -0.476722 0
M  V30 5674 H 523.097 4.74398 -2.77897 0
M  V30 5675 H 524.322 5.89705 -3.36786 0
M  V30 5676 H 522.268 6.45058 -1.19318 0
M  V30 5677 H 522.185 7.0097 -2.83156 0
M  V30 5678 H 523.453 7.58633 -1.79154 0
M  V30 5679 N 527.682 1.05563 1.17022 0
M  V30 5680 C 528.612 0.681026 2.23348 0
M  V30 5681 C 529.593 -0.322983 1.67005 0
M  V30 5682 O 530.778 -0.199746 1.9317 0
M  V30 5683 C 527.908 0.0589053 3.4725 0
M  V30 5684 C 526.862 0.988082 4.16438 0
M  V30 5685 C 526.188 0.229646 5.34207 0
M  V30 5686 C 527.488 2.31388 4.68249 0
M  V30 5687 H 529.182 1.56993 2.54938 0
M  V30 5688 H 526.728 0.756302 1.2254 0
M  V30 5689 H 528.681 -0.214982 4.20851 0
M  V30 5690 H 527.405 -0.864968 3.14938 0
M  V30 5691 H 526.064 1.24659 3.44754 0
M  V30 5692 H 525.712 -0.697111 4.98146 0
M  V30 5693 H 525.412 0.848815 5.81437 0
M  V30 5694 H 526.936 -0.0368694 6.10589 0
M  V30 5695 H 528.35 2.09964 5.33468 0
M  V30 5696 H 526.747 2.88736 5.26072 0
M  V30 5697 H 527.817 2.94982 3.84855 0
M  V30 5698 N 529.16 -1.33526 0.837174 0
M  V30 5699 C 530.388 -2.02047 0.445494 0
M  V30 5700 C 530.803 -1.62995 -0.952788 0
M  V30 5701 O 530.16 -0.842447 -1.61892 0
M  V30 5702 C 530.211 -3.57221 0.554577 0
M  V30 5703 O 529.932 -3.94863 1.89776 0
M  V30 5704 C 531.433 -4.43012 0.159634 0
M  V30 5705 H 528.653 -0.647221 0.177048 0
M  V30 5706 H 531.197 -1.70492 1.12928 0
M  V30 5707 H 529.352 -3.87315 -0.0812781 0
M  V30 5708 H 529.766 -4.89569 1.88208 0
M  V30 5709 H 531.24 -5.51253 0.28701 0
M  V30 5710 H 531.717 -4.29916 -0.898289 0
M  V30 5711 H 532.323 -4.18274 0.769855 0
M  V30 5712 N 530.638 -0.59345 -1.46 0
M  V30 5713 C 531.601 0.123538 -2.28867 0
M  V30 5714 C 532.601 0.808628 -1.38989 0
M  V30 5715 O 533.791 0.658945 -1.61256 0
M  V30 5716 C 530.923 1.1847 -3.19653 0
M  V30 5717 H 532.116 -0.604843 -2.93737 0
M  V30 5718 H 529.669 -0.351875 -1.52288 0
M  V30 5719 H 530.404 1.94431 -2.59552 0
M  V30 5720 H 530.189 0.69783 -3.8584 0
M  V30 5721 H 531.679 1.68726 -3.81997 0
M  V30 5722 N 532.116 1.54067 -0.331816 0
M  V30 5723 C 533.346 2.04833 0.269605 0
M  V30 5724 C 533.754 1.20714 1.45687 0
M  V30 5725 O 533.097 0.232539 1.82222 0
M  V30 5726 C 533.159 3.51386 0.759499 0
M  V30 5727 C 532.823 4.55971 -0.306557 0
M  V30 5728 C 533.82 5.07126 -1.14538 0
M  V30 5729 C 531.505 5.00216 -0.457116 0
M  V30 5730 C 533.499 6.01096 -2.12042 0
M  V30 5731 C 531.186 5.93999 -1.43556 0
M  V30 5732 C 532.184 6.44326 -2.26568 0
M  V30 5733 O 531.872 7.36267 -3.22749 0
M  V30 5734 H 531.604 0.673509 0.0579763 0
M  V30 5735 H 534.158 1.99748 -0.478521 0
M  V30 5736 H 532.388 3.53896 1.55867 0
M  V30 5737 H 534.077 3.85184 1.28017 0
M  V30 5738 H 534.843 4.73716 -1.04009 0
M  V30 5739 H 530.722 4.60652 0.179142 0
M  V30 5740 H 534.266 6.40302 -2.76873 0
M  V30 5741 H 530.163 6.26825 -1.54146 0
M  V30 5742 H 530.931 7.54165 -3.18083 0
M  V30 5743 N 533.594 0.0601682 1.57485 0
M  V30 5744 C 534.524 -0.90889 2.15085 0
M  V30 5745 C 535.505 -1.31838 1.07484 0
M  V30 5746 O 536.69 -1.3915 1.35466 0
M  V30 5747 C 533.82 -2.18059 2.7031 0
M  V30 5748 C 532.774 -1.91088 3.82974 0
M  V30 5749 C 532.1 -3.24789 4.24754 0
M  V30 5750 C 533.4 -1.22535 5.07723 0
M  V30 5751 H 535.094 -0.429093 2.96309 0
M  V30 5752 H 532.64 -0.204952 1.42534 0
M  V30 5753 H 534.593 -2.86258 3.09248 0
M  V30 5754 H 533.317 -2.6826 1.8629 0
M  V30 5755 H 531.976 -1.25297 3.44523 0
M  V30 5756 H 531.624 -3.72809 3.37672 0
M  V30 5757 H 531.324 -3.07538 5.00694 0
M  V30 5758 H 532.848 -3.94205 4.66299 0
M  V30 5759 H 534.262 -1.80783 5.4405 0
M  V30 5760 H 532.659 -1.1558 5.88864 0
M  V30 5761 H 533.729 -0.202692 4.84476 0
M  V30 5762 N 535.072 -1.5615 -0.213296 0
M  V30 5763 C 536.483 -1.69645 -0.779582 0
M  V30 5764 C 536.834 -0.663615 -1.84636 0
M  V30 5765 O 535.959 0.183633 -2.15619 0
M  V30 5766 C 536.554 -3.07567 -1.42084 0
M  V30 5767 C 535.113 -3.22889 -1.93442 0
M  V30 5768 C 534.26 -2.65581 -0.797612 0
M  V30 5769 H 537.211 -1.58696 0.0114951 0
M  V30 5770 H 537.232 -3.03884 -2.28986 0
M  V30 5771 H 536.744 -3.82716 -0.644187 0
M  V30 5772 H 534.845 -2.52623 -2.73884 0
M  V30 5773 H 534.958 -4.30197 -2.10872 0
M  V30 5774 H 533.322 -2.24278 -1.20712 0
M  V30 5775 H 534.105 -3.43284 -0.033494 0
M  V30 5776 N 536.55 0.480323 -1.50102 0
M  V30 5777 C 537.513 1.56181 -1.6775 0
M  V30 5778 C 538.513 1.51156 -0.548503 0
M  V30 5779 O 539.703 1.5394 -0.815363 0
M  V30 5780 C 536.835 2.95823 -1.69415 0
M  V30 5781 H 538.028 1.41855 -2.6423 0
M  V30 5782 H 535.581 0.70605 -1.39444 0
M  V30 5783 H 536.316 3.15604 -0.745948 0
M  V30 5784 H 536.101 3.00878 -2.51425 0
M  V30 5785 H 537.591 3.74359 -1.85054 0
M  V30 5786 N 538.028 1.39524 0.732853 0
M  V30 5787 C 538.961 1.32806 1.85574 0
M  V30 5788 C 539.939 0.201354 1.61348 0
M  V30 5789 O 541.123 0.38216 1.84585 0
M  V30 5790 C 538.25 1.06271 3.21596 0
M  V30 5791 C 537.296 2.21161 3.64678 0
M  V30 5792 S 538.129 3.83454 3.73796 0
M  V30 5793 C 539.285 3.59149 5.12604 0
M  V30 5794 H 539.518 2.27838 1.9099 0
M  V30 5795 H 537.051 1.25605 0.897927 0
M  V30 5796 H 539.009 0.916461 4.00139 0
M  V30 5797 H 537.67 0.129223 3.13834 0
M  V30 5798 H 536.863 1.98193 4.63396 0
M  V30 5799 H 536.465 2.32 2.93346 0
M  V30 5800 H 538.757 3.16547 5.99003 0
M  V30 5801 H 539.7 4.57335 5.40602 0
M  V30 5802 H 540.108 2.93203 4.82382 0
M  V30 5803 N 539.506 -0.963266 1.24736 0
M  V30 5804 C 540.731 -1.74699 1.11781 0
M  V30 5805 C 541.156 -1.85267 -0.325258 0
M  V30 5806 O 540.514 -1.32681 -1.23553 0
M  V30 5807 C 540.562 -3.14322 1.76731 0
M  V30 5808 O 539.666 -3.99043 1.04109 0
M  V30 5809 H 539.007 -0.53684 0.390767 0
M  V30 5810 H 541.537 -1.20801 1.65131 0
M  V30 5811 H 541.547 -3.64824 1.82668 0
M  V30 5812 H 540.222 -3.05946 2.81726 0
M  V30 5813 H 538.799 -3.5752 1.05991 0
M  V30 5814 N 540.985 -1.06182 -1.16461 0
M  V30 5815 C 541.895 -0.682671 -2.24448 0
M  V30 5816 C 542.911 0.30078 -1.71381 0
M  V30 5817 O 544.087 0.150376 -2.00838 0
M  V30 5818 C 541.152 -0.0737202 -3.46622 0
M  V30 5819 C 540.213 -1.10889 -4.14731 0
M  V30 5820 C 539.446 -0.528908 -5.31073 0
M  V30 5821 O 539.669 0.65868 -5.66584 0
M  V30 5822 O 538.603 -1.26805 -5.88391 0
M  V30 5823 H 542.429 -1.58291 -2.59187 0
M  V30 5824 H 540.014 -0.834013 -1.23954 0
M  V30 5825 H 541.896 0.264192 -4.20571 0
M  V30 5826 H 540.571 0.800015 -3.13658 0
M  V30 5827 H 539.478 -1.49896 -3.42756 0
M  V30 5828 H 540.811 -1.95412 -4.51747 0
M  V30 5829 N 542.463 1.3308 -0.844243 0
M  V30 5830 C 543.74 1.92178 -0.364261 0
M  V30 5831 C 544.12 1.76961 1.15101 0
M  V30 5832 O 543.468 1.16128 1.9679 0
M  V30 5833 C 543.678 3.393 -0.817106 0
M  V30 5834 C 545.026 4.16444 -0.828236 0
M  V30 5835 O 546.05 3.47975 -0.761062 0
M  V30 5836 O 544.909 5.38685 -0.920926 0
M  V30 5837 H 542.003 0.820411 -0.10419 0
M  V30 5838 H 544.549 1.41918 -0.930453 0
M  V30 5839 H 543.321 3.44272 -1.85991 0
M  V30 5840 H 542.944 3.96947 -0.227785 0
M  V30 5841 N 543.941 0.601185 1.45683 0
M  V30 5842 C 545.218 0.0261659 1.95582 0
M  V30 5843 C 545.598 -1.4399 1.5437 0
M  V30 5844 O 544.946 -2.13919 0.80318 0
M  V30 5845 C 545.156 0.217557 3.48321 0
M  V30 5846 C 546.504 0.0950076 4.24494 0
M  V30 5847 O 547.528 0.147345 3.55895 0
M  V30 5848 O 546.387 -0.025261 5.46494 0
M  V30 5849 H 543.481 -0.0393688 0.826062 0
M  V30 5850 H 546.027 0.670798 1.55879 0
M  V30 5851 H 544.799 1.23601 3.71266 0
M  V30 5852 H 544.422 -0.46264 3.94899 0
M  V30 5853 N 545.419 -1.53889 0.339982 0
M  V30 5854 C 546.329 -2.28604 -0.526988 0
M  V30 5855 C 547.345 -1.33578 -1.11503 0
M  V30 5856 O 548.521 -1.66612 -1.13148 0
M  V30 5857 C 545.586 -3.04164 -1.66389 0
M  V30 5858 C 544.647 -4.14809 -1.10599 0
M  V30 5859 C 543.88 -4.86756 -2.18871 0
M  V30 5860 O 544.103 -4.58343 -3.39526 0
M  V30 5861 O 543.037 -5.73289 -1.83366 0
M  V30 5862 H 546.863 -3.03594 0.0802707 0
M  V30 5863 H 544.448 -1.4903 0.105141 0
M  V30 5864 H 546.33 -3.51427 -2.32544 0
M  V30 5865 H 545.005 -2.32035 -2.25703 0
M  V30 5866 H 543.912 -3.71857 -0.409067 0
M  V30 5867 H 545.245 -4.89029 -0.557771 0
M  V30 5868 N 546.897 -0.0685191 -1.57451 0
M  V30 5869 C 548.174 0.642167 -1.84758 0
M  V30 5870 C 548.554 1.87991 -0.960344 0
M  V30 5871 O 547.902 2.28485 -0.0257894 0
M  V30 5872 C 548.112 0.982946 -3.34872 0
M  V30 5873 C 549.46 1.35784 -4.02303 0
M  V30 5874 O 550.484 1.07477 -3.39598 0
M  V30 5875 O 549.343 1.88681 -5.12895 0
M  V30 5876 H 546.437 0.318625 -0.763156 0
M  V30 5877 H 548.983 -0.0992015 -1.6941 0
M  V30 5878 H 547.755 0.10372 -3.91163 0
M  V30 5879 H 547.378 1.78119 -3.55471 0
M  V30 5880 N 548.375 1.56261 0.205012 0
M  V30 5881 C 549.615 1.81823 0.933806 0
M  V30 5882 C 549.979 0.644534 1.80858 0
M  V30 5883 O 551.18 0.779819 2.5724 0
M  V30 5884 C 549.451 3.12362 1.7368 0
M  V30 5885 S 551.01 3.59296 2.51897 0
M  V30 5886 H 547.828 0.638209 0.313386 0
M  V30 5887 H 550.43 1.94495 0.198001 0
M  V30 5888 H 549.134 3.95809 1.08459 0
M  V30 5889 H 548.665 3.02542 2.5146 0
M  V30 5890 H 550.68 3.23945 3.75864 0
M  V30 5891 N 549.853 -0.472356 1.50355 0
M  V30 5892 C 551.083 -1.24603 1.64796 0
M  V30 5893 C 551.491 -1.86297 0.330156 0
M  V30 5894 O 550.834 -1.69934 -0.697728 0
M  V30 5895 C 550.896 -2.39578 2.68035 0
M  V30 5896 C 550.56 -1.98531 4.11624 0
M  V30 5897 C 551.557 -1.50856 4.97532 0
M  V30 5898 C 549.242 -2.0729 4.57532 0
M  V30 5899 C 551.236 -1.12481 6.27397 0
M  V30 5900 C 548.923 -1.68527 5.87403 0
M  V30 5901 C 549.921 -1.212 6.7216 0
M  V30 5902 O 549.609 -0.829728 7.99607 0
M  V30 5903 H 549.341 -0.383035 0.55701 0
M  V30 5904 H 551.895 -0.570392 1.97321 0
M  V30 5905 H 550.125 -3.10309 2.30749 0
M  V30 5906 H 551.814 -3.01544 2.71709 0
M  V30 5907 H 552.58 -1.43511 4.63281 0
M  V30 5908 H 548.459 -2.43076 3.91708 0
M  V30 5909 H 552.003 -0.754698 6.93506 0
M  V30 5910 H 547.9 -1.7553 6.21176 0
M  V30 5911 H 548.668 -0.958689 8.12866 0
M  V30 5912 N 551.331 -1.39911 -0.725443 0
M  V30 5913 C 552.579 -1.37382 -1.48224 0
M  V30 5914 C 552.9 0.0264107 -1.94982 0
M  V30 5915 O 552.17 0.979408 -1.6966 0
M  V30 5916 H 550.75 -0.505596 -0.549892 0
M  V30 5917 H 553.412 -1.7487 -0.860608 0
M  V30 5918 H 552.508 -2.04254 -2.3598 0
M  V30 5919 N 552.809 0.956637 -1.25245 0
M  V30 5920 C 553.757 2.0743 -1.0524 0
M  V30 5921 C 554.751 1.69392 0.0160725 0
M  V30 5922 O 555.957 1.7946 -0.139382 0
M  V30 5923 H 552.332 0.678921 -0.323373 0
M  V30 5924 H 554.303 2.2146 -1.99995 0
M  V30 5925 C 553.052 3.40872 -0.685702 0
M  V30 5926 H 552.375 3.70607 -1.49968 0
M  V30 5927 H 553.815 4.19939 -0.585415 0
M  V30 5928 C 552.274 3.31367 0.608082 0
M  V30 5929 O 552.804 3.66214 1.65076 0
M  V30 5930 N 551.01 2.84486 0.592955 0
M  V30 5931 H 550.557 2.56326 -0.25592 0
M  V30 5932 H 550.515 2.78509 1.45877 0
M  V30 5933 N 554.287 1.06798 1.15896 0
M  V30 5934 C 555.517 0.807522 1.90165 0
M  V30 5935 C 555.925 -0.642417 1.7796 0
M  V30 5936 O 555.268 -1.45193 1.12537 0
M  V30 5937 C 555.33 1.12939 3.41299 0
M  V30 5938 C 554.994 2.57879 3.7729 0
M  V30 5939 C 555.991 3.56118 3.78782 0
M  V30 5940 C 553.676 2.93311 4.07767 0
M  V30 5941 C 555.67 4.87827 4.10248 0
M  V30 5942 C 553.357 4.25219 4.38899 0
M  V30 5943 C 554.355 5.22287 4.4012 0
M  V30 5944 O 554.043 6.51826 4.70508 0
M  V30 5945 H 553.775 0.291946 0.609708 0
M  V30 5946 H 556.329 1.42627 1.47806 0
M  V30 5947 H 554.559 0.45359 3.84031 0
M  V30 5948 H 556.248 0.852363 3.9685 0
M  V30 5949 H 557.014 3.30086 3.55342 0
M  V30 5950 H 552.893 2.18409 4.05979 0
M  V30 5951 H 556.437 5.63586 4.11116 0
M  V30 5952 H 552.334 4.51006 4.61805 0
M  V30 5953 H 553.102 6.56893 4.88298 0
M  V30 5954 N 555.766 -1.3263 0.851289 0
M  V30 5955 C 557.043 -1.91982 0.374448 0
M  V30 5956 C 557.423 -1.77568 -1.14161 0
M  V30 5957 O 556.771 -1.1717 -1.96172 0
M  V30 5958 C 556.981 -3.38862 0.835088 0
M  V30 5959 C 558.329 -4.15999 0.850309 0
M  V30 5960 O 559.353 -3.47566 0.779505 0
M  V30 5961 O 558.212 -5.38189 0.949481 0
M  V30 5962 H 555.306 -0.819846 0.10854 0
M  V30 5963 H 557.852 -1.41422 0.937966 0
M  V30 5964 H 556.624 -3.43281 1.87814 0
M  V30 5965 H 556.247 -3.96821 0.248833 0
M  V30 5966 N 557.244 -0.608902 -1.45362 0
M  V30 5967 C 558.192 0.121639 -2.32282 0
M  V30 5968 C 559.186 0.858301 -1.46046 0
M  V30 5969 O 560.392 0.773718 -1.62523 0
M  V30 5970 H 556.767 0.058086 -0.749753 0
M  V30 5971 H 558.738 -0.629866 -2.91677 0
M  V30 5972 C 557.487 1.1047 -3.29684 0
M  V30 5973 H 556.81 0.547278 -3.96036 0
M  V30 5974 H 558.25 1.58576 -3.9323 0
M  V30 5975 C 556.709 2.17891 -2.56954 0
M  V30 5976 O 557.239 3.25652 -2.35189 0
M  V30 5977 N 555.445 1.93211 -2.17066 0
M  V30 5978 H 554.992 1.05584 -2.34967 0
M  V30 5979 H 554.95 2.6529 -1.68727 0
M  V30 5980 N 558.722 1.53707 -0.348139 0
M  V30 5981 C 559.652 2.28111 0.498766 0
M  V30 5982 C 560.633 1.29851 1.09876 0
M  V30 5983 O 561.818 1.587 1.11928 0
M  V30 5984 C 558.948 3.05735 1.64753 0
M  V30 5985 C 557.902 4.11537 1.17565 0
M  V30 5986 C 557.228 4.77142 2.4133 0
M  V30 5987 C 558.528 5.21587 0.272844 0
M  V30 5988 H 560.222 2.99152 -0.121934 0
M  V30 5989 H 557.768 1.43875 -0.0600842 0
M  V30 5990 H 559.721 3.56526 2.24649 0
M  V30 5991 H 558.445 2.32354 2.2952 0
M  V30 5992 H 557.104 3.61665 0.599483 0
M  V30 5993 H 556.752 4.0035 3.04514 0
M  V30 5994 H 556.452 5.48626 2.10436 0
M  V30 5995 H 557.976 5.30719 3.01943 0
M  V30 5996 H 559.39 5.67986 0.778779 0
M  V30 5997 H 557.787 6.00074 0.0555849 0
M  V30 5998 H 558.857 4.79969 -0.689785 0
M  V30 5999 N 560.2 0.0768682 1.57412 0
M  V30 6000 C 561.13 -0.886026 2.16037 0
M  V30 6001 C 562.111 -1.30691 1.08876 0
M  V30 6002 O 563.296 -1.37705 1.36934 0
M  V30 6003 C 560.426 -2.1518 2.72608 0
M  V30 6004 C 559.38 -1.87015 3.8498 0
M  V30 6005 C 558.706 -3.20266 4.28175 0
M  V30 6006 C 560.006 -1.17143 5.08994 0
M  V30 6007 H 561.7 -0.397642 2.96748 0
M  V30 6008 H 559.246 -0.189823 1.42743 0
M  V30 6009 H 561.199 -2.82962 3.12266 0
M  V30 6010 H 559.923 -2.66269 1.89125 0
M  V30 6011 H 558.582 -1.21636 3.45833 0
M  V30 6012 H 558.23 -3.69207 3.41607 0
M  V30 6013 H 557.93 -3.0221 5.03927 0
M  V30 6014 H 559.454 -3.89237 4.70454 0
M  V30 6015 H 560.868 -1.75003 5.45937 0
M  V30 6016 H 559.265 -1.09328 5.90057 0
M  V30 6017 H 560.335 -0.151295 4.84664 0
M  V30 6018 N 561.678 -1.56367 -0.196722 0
M  V30 6019 C 562.903 -1.84991 -0.937714 0
M  V30 6020 C 563.328 -0.660244 -1.76132 0
M  V30 6021 O 562.686 0.390967 -1.77034 0
M  V30 6022 C 562.734 -3.11828 -1.81096 0
M  V30 6023 O 561.838 -2.92266 -2.90955 0
M  V30 6024 H 561.179 -0.609193 -0.264159 0
M  V30 6025 H 563.709 -2.03595 -0.202529 0
M  V30 6026 H 563.719 -3.42579 -2.21594 0
M  V30 6027 H 562.394 -3.98037 -1.2058 0
M  V30 6028 H 560.971 -2.72809 -2.54224 0
M  V30 6029 N 563.156 0.464375 -1.50603 0
M  V30 6030 C 564.088 1.57916 -1.66118 0
M  V30 6031 C 565.101 1.53497 -0.54246 0
M  V30 6032 O 566.29 1.58763 -0.815877 0
M  V30 6033 C 563.39 2.96809 -1.63577 0
M  V30 6034 C 562.563 3.26026 -2.91592 0
M  V30 6035 C 561.622 4.44506 -2.81604 0
M  V30 6036 O 560.648 4.44484 -3.55559 0
M  V30 6037 N 561.85 5.46549 -1.95614 0
M  V30 6038 H 564.615 1.45022 -2.62276 0
M  V30 6039 H 562.176 0.652903 -1.48151 0
M  V30 6040 H 564.168 3.74048 -1.54499 0
M  V30 6041 H 562.738 3.03438 -0.751262 0
M  V30 6042 H 561.958 2.37337 -3.14746 0
M  V30 6043 H 563.246 3.42361 -3.76386 0
M  V30 6044 H 562.644 5.49391 -1.34854 0
M  V30 6045 H 561.201 6.22746 -1.92435 0
M  V30 6046 N 564.634 1.40294 0.718013 0
M  V30 6047 C 565.881 1.3844 1.47786 0
M  V30 6048 C 566.209 -0.0140838 1.94495 0
M  V30 6049 O 565.464 -0.998165 1.68331 0
M  V30 6050 C 565.763 2.31814 2.72024 0
M  V30 6051 C 565.429 3.79117 2.44093 0
M  V30 6052 C 564.091 4.19249 2.36185 0
M  V30 6053 C 566.443 4.72212 2.20602 0
M  V30 6054 C 563.771 5.50516 2.02851 0
M  V30 6055 C 566.123 6.03775 1.88781 0
M  V30 6056 C 564.787 6.42953 1.79354 0
M  V30 6057 H 564.057 0.506588 0.540786 0
M  V30 6058 H 566.704 1.72929 0.822663 0
M  V30 6059 H 565.009 1.90501 3.42369 0
M  V30 6060 H 566.706 2.27664 3.30106 0
M  V30 6061 H 563.296 3.47318 2.51133 0
M  V30 6062 H 567.48 4.42026 2.25669 0
M  V30 6063 H 562.736 5.79776 1.94088 0
M  V30 6064 H 566.91 6.75428 1.69617 0
M  V30 6065 H 564.537 7.44584 1.53291 0
M  V30 6066 N 566.112 -0.949982 1.2575 0
M  V30 6067 C 567.36 -1.6918 1.10555 0
M  V30 6068 C 567.681 -1.91773 -0.353298 0
M  V30 6069 O 566.951 -1.50814 -1.25027 0
M  V30 6070 H 565.531 -0.626952 0.406129 0
M  V30 6071 H 568.193 -1.1419 1.57945 0
M  V30 6072 H 567.289 -2.66915 1.61749 0
M  V30 6073 N 567.59 -1.07411 -1.15328 0
M  V30 6074 C 568.83 -0.807011 -1.87794 0
M  V30 6075 C 569.194 0.654987 -1.80482 0
M  V30 6076 O 570.395 1.03716 -2.47985 0
M  V30 6077 C 568.666 -1.30198 -3.32841 0
M  V30 6078 S 570.225 -1.16564 -4.23034 0
M  V30 6079 H 567.043 -0.292429 -0.648079 0
M  V30 6080 H 569.645 -1.37334 -1.39139 0
M  V30 6081 H 568.349 -2.3607 -3.35707 0
M  V30 6082 H 567.88 -0.730881 -3.86551 0
M  V30 6083 H 569.895 -0.103557 -4.96092 0
M  V30 6084 N 569.068 1.32177 -0.85831 0
M  V30 6085 C 570.001 2.26823 -0.25035 0
M  V30 6086 C 570.979 1.50571 0.61378 0
M  V30 6087 O 572.163 1.79682 0.569777 0
M  V30 6088 C 569.29 3.32472 0.646556 0
M  V30 6089 C 568.336 4.26255 -0.144675 0
M  V30 6090 S 569.169 5.13608 -1.5155 0
M  V30 6091 C 570.325 6.22778 -0.624408 0
M  V30 6092 H 570.558 2.7804 -1.05267 0
M  V30 6093 H 568.091 1.39764 -0.656152 0
M  V30 6094 H 570.049 3.93817 1.15837 0
M  V30 6095 H 568.71 2.80031 1.42272 0
M  V30 6096 H 567.903 5.01114 0.538613 0
M  V30 6097 H 567.505 3.69346 -0.588198 0
M  V30 6098 H 569.797 6.77287 0.169846 0
M  V30 6099 H 570.74 6.95233 -1.34376 0
M  V30 6100 H 571.148 5.64156 -0.197128 0
M  V30 6101 N 570.547 0.616602 1.45037 0
M  V30 6102 C 571.479 -0.135186 2.28801 0
M  V30 6103 C 572.492 -0.82303 1.40464 0
M  V30 6104 O 573.681 -0.686909 1.64754 0
M  V30 6105 C 570.781 -1.21292 3.16451 0
M  V30 6106 C 569.954 -0.61043 4.3312 0
M  V30 6107 C 569.013 -1.58022 5.01912 0
M  V30 6108 O 568.039 -1.10301 5.58411 0
M  V30 6109 N 569.241 -2.91464 5.02025 0
M  V30 6110 H 572.006 0.583612 2.93963 0
M  V30 6111 H 569.567 0.456723 1.55324 0
M  V30 6112 H 571.559 -1.86169 3.59337 0
M  V30 6113 H 570.129 -1.83412 2.53138 0
M  V30 6114 H 569.349 0.216638 3.93604 0
M  V30 6115 H 570.637 -0.188293 5.08451 0
M  V30 6116 H 570.035 -3.32829 4.57429 0
M  V30 6117 H 568.592 -3.51741 5.48745 0
M  V30 6118 N 572.025 -1.5352 0.356285 0
M  V30 6119 C 573.271 -2.01414 -0.236653 0
M  V30 6120 C 573.604 -1.24339 -1.49176 0
M  V30 6121 O 572.879 -0.334496 -1.91602 0
M  V30 6122 C 573.162 -3.56059 -0.537982 0
M  V30 6123 C 573.015 -4.43835 0.730112 0
M  V30 6124 C 574.334 -4.19127 -1.34239 0
M  V30 6125 H 571.453 -0.732135 -0.0845386 0
M  V30 6126 H 574.095 -1.83854 0.479341 0
M  V30 6127 H 572.245 -3.71153 -1.14795 0
M  V30 6128 H 573.917 -4.40555 1.36782 0
M  V30 6129 H 572.16 -4.1218 1.3524 0
M  V30 6130 H 572.831 -5.49958 0.474358 0
M  V30 6131 H 575.307 -4.07809 -0.826498 0
M  V30 6132 H 574.183 -5.27378 -1.52198 0
M  V30 6133 H 574.444 -3.74581 -2.34822 0
M  V30 6134 N 573.503 -0.0852151 -1.57369 0
M  V30 6135 C 574.728 0.592872 -1.98746 0
M  V30 6136 C 575.153 1.61538 -0.963689 0
M  V30 6137 O 574.511 1.81168 0.069071 0
M  V30 6138 C 574.559 1.22599 -3.39119 0
M  V30 6139 O 573.663 2.34185 -3.39457 0
M  V30 6140 H 573.004 0.151314 -0.646529 0
M  V30 6141 H 575.534 -0.163703 -2.03944 0
M  V30 6142 H 575.544 1.56965 -3.76598 0
M  V30 6143 H 574.219 0.476831 -4.13158 0
M  V30 6144 H 572.796 2.01512 -3.13763 0
M  V30 6145 N 574.981 1.5647 0.188427 0
M  V30 6146 C 576.206 1.85486 0.927891 0
M  V30 6147 C 576.631 0.669575 1.75779 0
M  V30 6148 O 575.989 -0.381573 1.77239 0
M  V30 6149 C 576.037 3.12784 1.7944 0
M  V30 6150 O 575.141 2.93805 2.894 0
M  V30 6151 H 574.482 0.610585 0.260925 0
M  V30 6152 H 577.012 2.037 0.191729 0
M  V30 6153 H 577.022 3.43749 2.19774 0
M  V30 6154 H 575.697 3.98671 1.18468 0
M  V30 6155 H 574.274 2.74153 2.52774 0
M  V30 6156 N 576.459 -0.456382 1.50847 0
M  V30 6157 C 577.684 -1.2349 1.66628 0
M  V30 6158 C 578.109 -1.84715 0.355254 0
M  V30 6159 O 577.467 -1.67961 -0.682559 0
M  V30 6160 C 577.515 -2.30865 2.77009 0
M  V30 6161 O 576.619 -3.35882 2.39285 0
M  V30 6162 H 575.96 -0.36266 0.556214 0
M  V30 6163 H 578.49 -0.541374 1.97308 0
M  V30 6164 H 578.5 -2.75949 3.00526 0
M  V30 6165 H 577.175 -1.85677 3.72152 0
M  V30 6166 H 575.752 -2.96406 2.26269 0
M  V30 6167 N 577.937 -1.40673 -0.710563 0
M  V30 6168 C 579.162 -1.42741 -1.50465 0
M  V30 6169 C 579.587 -0.0302116 -1.88076 0
M  V30 6170 O 578.945 0.962945 -1.53613 0
M  V30 6171 C 578.993 -2.32873 -2.75322 0
M  V30 6172 O 578.097 -1.77544 -3.72226 0
M  V30 6173 H 577.438 -0.485056 -0.45345 0
M  V30 6174 H 579.968 -1.84961 -0.874681 0
M  V30 6175 H 579.978 -2.48233 -3.23797 0
M  V30 6176 H 578.653 -3.34401 -2.47283 0
M  V30 6177 H 577.23 -1.71556 -3.31093 0
M  V30 6178 N 579.415 0.9433 -1.26252 0
M  V30 6179 C 580.64 1.72898 -1.14547 0
M  V30 6180 C 581.065 1.85761 0.295743 0
M  V30 6181 O 580.423 1.3463 1.21427 0
M  V30 6182 C 580.471 3.11471 -1.8171 0
M  V30 6183 O 579.575 3.97336 -1.10445 0
M  V30 6184 H 578.916 0.530555 -0.399259 0
M  V30 6185 H 581.446 1.18159 -1.67032 0
M  V30 6186 H 581.456 3.61872 -1.88449 0
M  V30 6187 H 580.131 3.01425 -2.86558 0
M  V30 6188 H 578.708 3.55788 -1.11666 0
M  V30 6189 N 580.893 1.08022 1.14757 0
M  V30 6190 C 582.118 0.82895 1.90114 0
M  V30 6191 C 582.543 -0.612772 1.77839 0
M  V30 6192 O 581.901 -1.42895 1.11583 0
M  V30 6193 C 581.949 1.25062 3.38219 0
M  V30 6194 O 581.053 0.400119 4.10454 0
M  V30 6195 H 580.394 0.301412 0.591648 0
M  V30 6196 H 582.924 1.44062 1.45284 0
M  V30 6197 H 582.934 1.22977 3.89025 0
M  V30 6198 H 581.609 2.30067 3.46471 0
M  V30 6199 H 580.186 0.484052 3.69745 0
M  V30 6200 N 582.371 -1.3172 0.865308 0
M  V30 6201 C 583.321 -2.26157 0.289305 0
M  V30 6202 C 584.305 -1.50428 -0.570977 0
M  V30 6203 O 585.497 -1.71978 -0.418617 0
M  V30 6204 C 582.626 -3.39457 -0.512237 0
M  V30 6205 C 581.712 -4.22561 0.361028 0
M  V30 6206 N 582.103 -4.84501 1.45231 0
M  V30 6207 C 580.401 -4.45739 0.152641 0
M  V30 6208 C 581.102 -5.46586 1.99043 0
M  V30 6209 N 580.078 -5.28119 1.28809 0
M  V30 6210 H 583.88 -2.71581 1.12344 0
M  V30 6211 H 581.394 -1.45932 0.712565 0
M  V30 6212 H 583.391 -4.06133 -0.941379 0
M  V30 6213 H 582.051 -2.95577 -1.34404 0
M  V30 6214 H 583.062 -4.84293 1.83524 0
M  V30 6215 H 579.739 -4.1251 -0.643583 0
M  V30 6216 H 581.129 -6.05817 2.90577 0
M  V30 6217 N 583.85 -0.624285 -1.44708 0
M  V30 6218 C 585.075 -0.131171 -2.06985 0
M  V30 6219 C 585.5 1.18234 -1.46295 0
M  V30 6220 O 584.858 1.72375 -0.561842 0
M  V30 6221 C 584.906 -0.0226724 -3.60593 0
M  V30 6222 O 584.01 1.02314 -3.99507 0
M  V30 6223 H 583.351 -0.0816556 -0.65896 0
M  V30 6224 H 585.88 -0.859027 -1.85693 0
M  V30 6225 H 585.891 0.170138 -4.07645 0
M  V30 6226 H 584.566 -0.981685 -4.04148 0
M  V30 6227 H 583.143 0.805452 -3.64097 0
M  V30 6228 N 585.328 1.53329 -0.364422 0
M  V30 6229 C 586.258 2.28627 0.474543 0
M  V30 6230 C 587.239 1.31009 1.08492 0
M  V30 6231 O 588.424 1.59878 1.10239 0
M  V30 6232 C 585.554 3.07465 1.61501 0
M  V30 6233 C 584.508 4.1276 1.13194 0
M  V30 6234 C 583.834 4.79674 2.36255 0
M  V30 6235 C 585.134 5.21847 0.217507 0
M  V30 6236 H 586.828 2.99005 -0.153656 0
M  V30 6237 H 584.374 1.43803 -0.0753406 0
M  V30 6238 H 586.327 3.58889 2.20855 0
M  V30 6239 H 585.051 2.34775 2.27042 0
M  V30 6240 H 583.71 3.62281 0.56109 0
M  V30 6241 H 583.358 4.03557 3.00251 0
M  V30 6242 H 583.058 5.50827 2.04606 0
M  V30 6243 H 584.582 5.33892 2.96297 0
M  V30 6244 H 585.996 5.6878 0.718493 0
M  V30 6245 H 584.393 6.00099 -0.00806408 0
M  V30 6246 H 585.463 4.7921 -0.740653 0
M  V30 6247 N 586.806 0.0935595 1.57322 0
M  V30 6248 C 588.031 -0.582324 1.99057 0
M  V30 6249 C 588.456 -1.61025 0.972242 0
M  V30 6250 O 587.814 -1.81202 -0.0594622 0
M  V30 6251 C 587.862 -1.20799 3.39765 0
M  V30 6252 O 586.966 -2.32382 3.40694 0
M  V30 6253 H 586.307 -0.147884 0.647323 0
M  V30 6254 H 588.837 0.174516 2.03854 0
M  V30 6255 H 588.847 -1.54966 3.77425 0
M  V30 6256 H 587.522 -0.454914 4.13405 0
M  V30 6257 H 586.099 -1.99845 3.14827 0
M  V30 6258 N 588.284 -1.56567 -0.180126 0
M  V30 6259 C 589.247 -1.94852 -1.20686 0
M  V30 6260 C 590.247 -0.831212 -1.3765 0
M  V30 6261 O 591.437 -1.09841 -1.35206 0
M  V30 6262 C 588.569 -2.23565 -2.57355 0
M  V30 6263 H 589.762 -2.86722 -0.879225 0
M  V30 6264 H 587.315 -1.50489 -0.422237 0
M  V30 6265 H 588.05 -1.34381 -2.95148 0
M  V30 6266 H 587.835 -3.04999 -2.46411 0
M  V30 6267 H 589.325 -2.54137 -3.31367 0
M  V30 6268 N 589.762 0.448376 -1.51087 0
M  V30 6269 C 590.987 1.22605 -1.6728 0
M  V30 6270 C 591.412 1.84524 -0.365045 0
M  V30 6271 O 590.77 1.6832 0.673642 0
M  V30 6272 C 590.818 2.29393 -2.78229 0
M  V30 6273 O 589.922 3.34608 -2.41063 0
M  V30 6274 H 589.263 0.359705 -0.558129 0
M  V30 6275 H 591.793 0.530903 -1.97592 0
M  V30 6276 H 591.803 2.74352 -3.01986 0
M  V30 6277 H 590.478 1.83701 -3.73131 0
M  V30 6278 H 589.055 2.95202 -2.27838 0
M  V30 6279 N 591.24 1.41047 0.703093 0
M  V30 6280 C 592.517 1.30493 1.45708 0
M  V30 6281 C 592.897 -0.0709892 2.10981 0
M  V30 6282 O 592.245 -1.08471 2.01113 0
M  V30 6283 C 592.455 2.45287 2.48265 0
M  V30 6284 C 593.803 2.86104 3.13735 0
M  V30 6285 O 594.827 2.44971 2.58587 0
M  V30 6286 O 593.686 3.57206 4.13601 0
M  V30 6287 H 590.78 0.513144 0.648546 0
M  V30 6288 H 593.326 1.52995 0.734208 0
M  V30 6289 H 592.098 3.37135 1.98635 0
M  V30 6290 H 591.721 2.24622 3.28071 0
M  V30 6291 N 592.718 -0.936591 1.26751 0
M  V30 6292 C 593.946 -1.71758 1.15355 0
M  V30 6293 C 594.361 -1.86549 -0.290683 0
M  V30 6294 O 593.718 -1.37616 -1.19868 0
M  V30 6295 C 593.769 -3.12193 1.82258 0
M  V30 6296 O 593.49 -2.98105 3.21038 0
M  V30 6297 C 594.991 -4.06485 1.76875 0
M  V30 6298 H 592.211 -0.537636 0.401483 0
M  V30 6299 H 594.755 -1.17382 1.67457 0
M  V30 6300 H 592.91 -3.63456 1.34083 0
M  V30 6301 H 593.324 -3.86824 3.54214 0
M  V30 6302 H 594.798 -5.02569 2.28316 0
M  V30 6303 H 595.275 -4.32986 0.736216 0
M  V30 6304 H 595.881 -3.61144 2.24623 0
M  V30 6305 N 594.196 -1.08629 -1.14182 0
M  V30 6306 C 595.444 -0.815731 -1.84906 0
M  V30 6307 C 595.765 0.660441 -1.83475 0
M  V30 6308 O 595.035 1.47888 -1.28476 0
M  V30 6309 H 593.615 -0.298773 -0.684648 0
M  V30 6310 H 596.277 -1.37274 -1.38354 0
M  V30 6311 H 595.373 -1.16193 -2.89665 0
M  V30 6312 N 595.674 1.31259 -0.872281 0
M  V30 6313 C 596.604 2.30929 -0.345554 0
M  V30 6314 C 597.585 1.60449 0.5648 0
M  V30 6315 O 598.77 1.8814 0.481335 0
M  V30 6316 C 595.9 3.44348 0.451823 0
M  V30 6317 C 594.854 4.26435 -0.365641 0
M  V30 6318 C 594.18 5.31785 0.557562 0
M  V30 6319 C 595.48 4.97159 -1.60095 0
M  V30 6320 H 597.174 2.75234 -1.17841 0
M  V30 6321 H 594.72 1.3232 -0.568094 0
M  V30 6322 H 596.673 4.13128 0.830854 0
M  V30 6323 H 595.397 2.98816 1.31821 0
M  V30 6324 H 594.056 3.59326 -0.726649 0
M  V30 6325 H 593.704 4.82502 1.4213 0
M  V30 6326 H 593.404 5.87598 0.0144878 0
M  V30 6327 H 594.928 6.03424 0.933387 0
M  V30 6328 H 596.342 5.58523 -1.29323 0
M  V30 6329 H 594.739 5.62779 -2.08327 0
M  V30 6330 H 595.809 4.24012 -2.35249 0
M  V30 6331 N 597.152 0.631951 1.44375 0
M  V30 6332 C 598.563 0.219036 1.85411 0
M  V30 6333 C 598.914 -1.22974 1.52879 0
M  V30 6334 O 598.039 -1.93579 0.967266 0
M  V30 6335 C 598.634 0.39075 3.36539 0
M  V30 6336 C 597.193 0.0323351 3.76386 0
M  V30 6337 C 596.34 0.703744 2.68221 0
M  V30 6338 H 599.291 0.837056 1.3483 0
M  V30 6339 H 599.312 -0.370056 3.78696 0
M  V30 6340 H 598.824 1.44527 3.60185 0
M  V30 6341 H 596.925 -1.02042 3.58355 0
M  V30 6342 H 597.038 0.442969 4.77048 0
M  V30 6343 H 595.402 0.138974 2.54321 0
M  V30 6344 H 596.185 1.76088 2.947 0
M  V30 6345 N 598.631 -1.53133 0.372548 0
M  V30 6346 C 599.563 -2.23557 -0.505444 0
M  V30 6347 C 600.576 -1.25211 -1.04049 0
M  V30 6348 O 601.765 -1.51391 -0.945675 0
M  V30 6349 C 598.865 -2.92516 -1.71136 0
M  V30 6350 C 598.038 -4.17428 -1.30661 0
M  V30 6351 C 597.097 -4.69535 -2.37536 0
M  V30 6352 O 596.123 -5.33042 -1.99637 0
M  V30 6353 N 597.325 -4.47947 -3.6922 0
M  V30 6354 H 600.09 -2.9954 0.0978259 0
M  V30 6355 H 597.651 -1.60684 0.198068 0
M  V30 6356 H 599.643 -3.24281 -2.42124 0
M  V30 6357 H 598.213 -2.19944 -2.22134 0
M  V30 6358 H 597.433 -3.91888 -0.426292 0
M  V30 6359 H 598.721 -4.98622 -1.01259 0
M  V30 6360 H 598.119 -3.97219 -4.02783 0
M  V30 6361 H 596.676 -4.84245 -4.36292 0
M  V30 6362 N 600.109 -0.101901 -1.5727 0
M  V30 6363 C 601.525 0.254739 -1.57554 0
M  V30 6364 C 601.725 1.67937 -1.11352 0
M  V30 6365 O 600.781 2.39722 -0.793081 0
M  V30 6366 C 602.094 0.036975 -3.00677 0
M  V30 6367 C 603.642 0.104199 -3.12827 0
M  V30 6368 C 604.117 -0.0856565 -4.5792 0
M  V30 6369 N 605.608 -0.0310498 -4.6319 0
M  V30 6370 C 606.343 -0.153099 -5.73196 0
M  V30 6371 N 605.839 -0.330364 -6.92012 0
M  V30 6372 N 607.632 -0.0938854 -5.62022 0
M  V30 6373 H 599.783 -1.03263 -1.85609 0
M  V30 6374 H 602.046 -0.405251 -0.857016 0
M  V30 6375 H 601.752 -0.947254 -3.38703 0
M  V30 6376 H 601.626 0.776335 -3.69124 0
M  V30 6377 H 604.013 1.07894 -2.74669 0
M  V30 6378 H 604.094 -0.666762 -2.46957 0
M  V30 6379 H 603.738 -1.05729 -4.96773 0
M  V30 6380 H 603.668 0.705082 -5.21858 0
M  V30 6381 H 606.159 0.103141 -3.77759 0
M  V30 6382 H 606.472 -0.41482 -7.71686 0
M  V30 6383 H 604.817 -0.366119 -6.94035 0
M  V30 6384 H 608.008 0.0435168 -4.6808 0
M  V30 6385 H 608.181 -0.19245 -6.47714 0
M  V30 6386 N 601.587 1.56661 0.17182 0
M  V30 6387 C 602.812 1.86459 0.908165 0
M  V30 6388 C 603.237 0.688181 1.75059 0
M  V30 6389 O 602.595 -0.362753 1.77634 0
M  V30 6390 C 602.643 3.14669 1.76112 0
M  V30 6391 O 601.747 2.96858 2.86268 0
M  V30 6392 H 601.088 0.613318 0.254434 0
M  V30 6393 H 603.618 2.03892 0.170113 0
M  V30 6394 H 603.628 3.46061 2.16115 0
M  V30 6395 H 602.303 3.99905 1.14233 0
M  V30 6396 H 600.88 2.76819 2.49852 0
M  V30 6397 N 603.065 -0.440357 1.51323 0
M  V30 6398 C 604.313 -1.18769 1.63518 0
M  V30 6399 C 604.634 -1.91793 0.352201 0
M  V30 6400 O 603.904 -1.85432 -0.631811 0
M  V30 6401 H 602.484 -0.441408 0.602634 0
M  V30 6402 H 605.146 -0.505162 1.8824 0
M  V30 6403 H 604.242 -1.91892 2.46138 0
M  V30 6404 N 604.543 -1.41418 -0.695603 0
M  V30 6405 C 605.768 -1.44329 -1.48942 0
M  V30 6406 C 606.193 -0.0501579 -1.88033 0
M  V30 6407 O 605.551 0.946598 -1.54626 0
M  V30 6408 C 605.599 -2.3578 -2.72837 0
M  V30 6409 O 604.703 -1.81482 -3.70322 0
M  V30 6410 H 604.044 -0.489838 -0.44828 0
M  V30 6411 H 606.574 -1.85878 -0.855014 0
M  V30 6412 H 606.584 -2.51654 -3.21145 0
M  V30 6413 H 605.259 -3.37005 -2.43722 0
M  V30 6414 H 603.836 -1.75058 -3.29255 0
M  V30 6415 N 606.021 0.929856 -1.27246 0
M  V30 6416 C 606.969 2.05151 -1.09616 0
M  V30 6417 C 607.963 1.69388 -0.0198617 0
M  V30 6418 O 609.169 1.79124 -0.177417 0
M  V30 6419 H 605.544 0.671909 -0.337701 0
M  V30 6420 H 607.515 2.17168 -2.04648 0
M  V30 6421 C 606.264 3.3934 -0.757851 0
M  V30 6422 H 605.587 3.67343 -1.57795 0
M  V30 6423 H 607.027 4.18603 -0.674358 0
M  V30 6424 C 605.486 3.32582 0.537658 0
M  V30 6425 O 606.016 3.69633 1.57271 0
M  V30 6426 N 604.222 2.8568 0.532478 0
M  V30 6427 H 603.769 2.55725 -0.310233 0
M  V30 6428 H 603.727 2.81541 1.39936 0
M  V30 6429 N 607.499 1.09233 1.13605 0
M  V30 6430 C 608.748 0.82205 1.84188 0
M  V30 6431 C 609.061 -0.654548 1.84323 0
M  V30 6432 O 610.267 -1.04029 2.50779 0
M  V30 6433 C 608.723 1.42066 3.30674 0
M  V30 6434 C 608.331 2.92965 3.38933 0
M  V30 6435 C 610.075 1.22924 4.06313 0
M  V30 6436 C 607.982 3.45922 4.79679 0
M  V30 6437 H 606.912 0.303854 0.690064 0
M  V30 6438 H 609.563 1.31479 1.28006 0
M  V30 6439 H 607.945 0.855613 3.86646 0
M  V30 6440 H 609.119 3.55679 2.92966 0
M  V30 6441 H 607.434 3.11118 2.76757 0
M  V30 6442 H 610.031 1.59945 5.10217 0
M  V30 6443 H 610.374 0.169726 4.15954 0
M  V30 6444 H 610.907 1.76168 3.56665 0
M  V30 6445 H 607.646 4.51484 4.75229 0
M  V30 6446 H 607.166 2.87971 5.26149 0
M  V30 6447 H 608.845 3.43009 5.48592 0
M  V30 6448 N 608.977 -1.30795 0.87923 0
M  V30 6449 C 609.887 -2.32041 0.345565 0
M  V30 6450 C 610.903 -1.65103 -0.549265 0
M  V30 6451 O 612.079 -1.9645 -0.443763 0
M  V30 6452 C 609.144 -3.43944 -0.436245 0
M  V30 6453 C 608.205 -4.26521 0.48765 0
M  V30 6454 C 607.438 -5.33081 -0.256943 0
M  V30 6455 O 607.661 -5.50762 -1.48381 0
M  V30 6456 O 606.595 -6.00635 0.389985 0
M  V30 6457 H 610.421 -2.79627 1.18501 0
M  V30 6458 H 608.006 -1.3486 0.642885 0
M  V30 6459 H 609.888 -4.12128 -0.879119 0
M  V30 6460 H 608.563 -2.98504 -1.25208 0
M  V30 6461 H 607.47 -3.61057 0.979216 0
M  V30 6462 H 608.803 -4.75551 1.26933 0
M  V30 6463 N 610.455 -0.639598 -1.44038 0
M  V30 6464 C 611.387 0.0987684 -2.28987 0
M  V30 6465 C 612.4 0.80058 -1.41755 0
M  V30 6466 O 613.589 0.660611 -1.65826 0
M  V30 6467 C 610.689 1.16242 -3.18341 0
M  V30 6468 C 609.862 0.541447 -4.34036 0
M  V30 6469 C 608.921 1.50017 -5.04362 0
M  V30 6470 O 607.947 1.01403 -5.60095 0
M  V30 6471 N 609.149 2.83441 -5.06598 0
M  V30 6472 H 611.914 -0.630305 -2.92997 0
M  V30 6473 H 609.475 -0.481376 -1.54578 0
M  V30 6474 H 611.467 1.80429 -3.62253 0
M  V30 6475 H 610.037 1.79362 -2.56024 0
M  V30 6476 H 609.257 -0.27923 -3.9321 0
M  V30 6477 H 610.545 0.107379 -5.08687 0
M  V30 6478 H 609.943 3.2551 -4.62666 0
M  V30 6479 H 608.5 3.42966 -5.54272 0
M  V30 6480 N 611.933 1.52934 -0.380664 0
M  V30 6481 C 613.163 2.05587 0.204302 0
M  V30 6482 C 613.571 1.25288 1.41773 0
M  V30 6483 O 612.914 0.290394 1.8139 0
M  V30 6484 C 612.976 3.53624 0.647324 0
M  V30 6485 C 612.64 4.54765 -0.451465 0
M  V30 6486 C 613.637 5.03226 -1.30614 0
M  V30 6487 C 611.322 4.98508 -0.616025 0
M  V30 6488 C 613.316 5.94046 -2.31058 0
M  V30 6489 C 611.003 5.89131 -1.62381 0
M  V30 6490 C 612.001 6.36792 -2.46952 0
M  V30 6491 O 611.689 7.25626 -3.46009 0
M  V30 6492 H 611.421 0.675013 0.0365198 0
M  V30 6493 H 613.975 1.98125 -0.541827 0
M  V30 6494 H 612.205 3.58676 1.44529 0
M  V30 6495 H 613.894 3.89061 1.15698 0
M  V30 6496 H 614.66 4.70167 -1.19027 0
M  V30 6497 H 610.539 4.60989 0.0324987 0
M  V30 6498 H 614.083 6.3117 -2.97104 0
M  V30 6499 H 609.98 6.21603 -1.7401 0
M  V30 6500 H 610.748 7.43664 -3.41916 0
M  V30 6501 N 613.412 0.11024 1.57214 0
M  V30 6502 C 614.661 -0.549638 1.94067 0
M  V30 6503 C 614.974 -1.68388 0.995234 0
M  V30 6504 O 616.18 -2.40593 1.25807 0
M  V30 6505 C 614.636 -1.02912 3.44873 0
M  V30 6506 C 614.244 0.0761861 4.47935 0
M  V30 6507 C 615.988 -1.66087 3.9066 0
M  V30 6508 C 613.895 -0.419502 5.8991 0
M  V30 6509 H 612.825 -0.209092 0.724428 0
M  V30 6510 H 615.476 0.188683 1.82527 0
M  V30 6511 H 613.858 -1.82159 3.51616 0
M  V30 6512 H 615.032 0.852185 4.52851 0
M  V30 6513 H 613.347 0.614052 4.11847 0
M  V30 6514 H 615.944 -2.04272 4.94143 0
M  V30 6515 H 616.287 -2.53591 3.30148 0
M  V30 6516 H 616.82 -0.933959 3.86681 0
M  V30 6517 H 613.559 0.419277 6.54158 0
M  V30 6518 H 613.079 -1.16217 5.88433 0
M  V30 6519 H 614.758 -0.883577 6.40938 0
M  V30 6520 N 614.89 -1.56749 -0.16351 0
M  V30 6521 C 615.84 -1.93424 -1.20712 0
M  V30 6522 C 616.824 -0.803469 -1.39403 0
M  V30 6523 O 618.016 -1.06675 -1.41243 0
M  V30 6524 C 615.145 -2.30431 -2.54473 0
M  V30 6525 C 614.231 -3.5004 -2.39443 0
M  V30 6526 N 614.622 -4.67058 -1.9414 0
M  V30 6527 C 612.92 -3.548 -2.70246 0
M  V30 6528 C 613.621 -5.49184 -1.9176 0
M  V30 6529 N 612.597 -4.9044 -2.34457 0
M  V30 6530 H 616.399 -2.8138 -0.848681 0
M  V30 6531 H 613.913 -1.58089 -0.371717 0
M  V30 6532 H 615.91 -2.54903 -3.29894 0
M  V30 6533 H 614.57 -1.43818 -2.91112 0
M  V30 6534 H 615.581 -4.91128 -1.64357 0
M  V30 6535 H 612.258 -2.78685 -3.10871 0
M  V30 6536 H 613.648 -6.5297 -1.58366 0
M  V30 6537 N 616.368 0.432326 -1.51554 0
M  V30 6538 C 617.645 1.19288 -1.55015 0
M  V30 6539 C 618.025 2.08701 -0.317375 0
M  V30 6540 O 617.373 2.17602 0.697243 0
M  V30 6541 C 617.583 1.99037 -2.86679 0
M  V30 6542 C 618.931 2.55907 -3.38817 0
M  V30 6543 O 619.955 2.09243 -2.88263 0
M  V30 6544 O 618.814 3.41029 -4.27038 0
M  V30 6545 H 615.908 0.543369 -0.623441 0
M  V30 6546 H 618.454 0.440988 -1.6387 0
M  V30 6547 H 617.226 1.33397 -3.6786 0
M  V30 6548 H 616.849 2.81281 -2.8101 0
M  V30 6549 N 617.846 1.41785 0.688094 0
M  V30 6550 C 618.776 1.47 1.8142 0
M  V30 6551 C 619.757 0.327881 1.6691 0
M  V30 6552 O 620.942 0.540362 1.86531 0
M  V30 6553 C 618.072 1.35876 3.19617 0
M  V30 6554 C 617.026 2.47976 3.48844 0
M  V30 6555 C 616.352 2.21915 4.86475 0
M  V30 6556 C 617.652 3.90309 3.47068 0
M  V30 6557 H 619.346 2.41247 1.77314 0
M  V30 6558 H 616.892 1.16116 0.851651 0
M  V30 6559 H 618.845 1.38134 3.98117 0
M  V30 6560 H 617.569 0.38116 3.24368 0
M  V30 6561 H 616.228 2.45013 2.72698 0
M  V30 6562 H 615.876 1.2248 4.8786 0
M  V30 6563 H 615.576 2.97037 5.06994 0
M  V30 6564 H 617.1 2.25901 5.67275 0
M  V30 6565 H 618.514 3.94947 4.1556 0
M  V30 6566 H 616.911 4.65175 3.7912 0
M  V30 6567 H 617.981 4.17927 2.45896 0
M  V30 6568 N 619.324 -0.923095 1.27737 0
M  V30 6569 C 620.601 -1.64989 1.05062 0
M  V30 6570 C 620.981 -2.07018 -0.413124 0
M  V30 6571 O 620.329 -1.80797 -1.39731 0
M  V30 6572 C 620.539 -2.84847 2.01652 0
M  V30 6573 C 621.887 -3.56083 2.31279 0
M  V30 6574 O 622.911 -2.94981 1.99662 0
M  V30 6575 O 621.77 -4.66182 2.85196 0
M  V30 6576 H 618.864 -0.723357 0.400853 0
M  V30 6577 H 621.41 -0.973224 1.3902 0
M  V30 6578 H 620.182 -2.50814 3.00347 0
M  V30 6579 H 619.805 -3.60231 1.68284 0
M  V30 6580 N 620.802 -1.09834 -1.13024 0
M  V30 6581 C 622.027 -0.85909 -1.88771 0
M  V30 6582 C 622.452 0.584402 -1.78791 0
M  V30 6583 O 621.81 1.41101 -1.13842 0
M  V30 6584 C 621.858 -1.30427 -3.36186 0
M  V30 6585 O 620.962 -0.465368 -4.09766 0
M  V30 6586 H 620.303 -0.310786 -0.586778 0
M  V30 6587 H 622.833 -1.46355 -1.42973 0
M  V30 6588 H 622.843 -1.2915 -3.8702 0
M  V30 6589 H 621.518 -2.3555 -3.42767 0
M  V30 6590 H 620.095 -0.542814 -3.68928 0
M  V30 6591 N 622.28 1.30327 -0.886154 0
M  V30 6592 C 623.228 2.30052 -0.343317 0
M  V30 6593 C 624.222 1.60212 0.550305 0
M  V30 6594 O 625.428 1.74674 0.434609 0
M  V30 6595 H 621.803 0.746306 -0.0923681 0
M  V30 6596 H 623.774 2.73294 -1.19804 0
M  V30 6597 C 622.523 3.45079 0.426107 0
M  V30 6598 H 621.846 3.99003 -0.25227 0
M  V30 6599 H 623.286 4.16931 0.771009 0
M  V30 6600 C 621.745 2.95195 1.62363 0
M  V30 6601 O 622.275 2.95323 2.723 0
M  V30 6602 N 620.481 2.51192 1.4612 0
M  V30 6603 H 620.028 2.51286 0.566832 0
M  V30 6604 H 619.986 2.18173 2.2638 0
M  V30 6605 N 623.758 0.647228 1.43697 0
M  V30 6606 C 624.983 0.164083 2.0675 0
M  V30 6607 C 625.408 -1.15892 1.48158 0
M  V30 6608 O 624.766 -1.71459 0.589194 0
M  V30 6609 C 624.814 0.0800368 3.60511 0
M  V30 6610 O 623.918 -0.959453 4.01084 0
M  V30 6611 H 623.259 0.0921288 0.657578 0
M  V30 6612 H 625.789 0.88846 1.84303 0
M  V30 6613 H 625.799 -0.105263 4.07864 0
M  V30 6614 H 624.474 1.04586 4.02535 0
M  V30 6615 H 623.051 -0.747425 3.65333 0
M  V30 6616 N 625.236 -1.5273 0.388769 0
M  V30 6617 C 626.483 -2.01573 -0.19359 0
M  V30 6618 C 626.811 -1.27525 -1.46859 0
M  V30 6619 O 626.066 -0.363926 -1.92286 0
M  V30 6620 C 626.365 -3.53765 -0.508445 0
M  V30 6621 C 626.031 -4.4582 0.674947 0
M  V30 6622 C 624.693 -4.70703 0.999596 0
M  V30 6623 C 627.045 -5.00138 1.46666 0
M  V30 6624 C 624.373 -5.47155 2.11751 0
M  V30 6625 C 626.725 -5.77812 2.57518 0
M  V30 6626 C 625.389 -6.00975 2.90492 0
M  V30 6627 H 624.659 -0.737606 -0.0708397 0
M  V30 6628 H 627.306 -1.84134 0.526006 0
M  V30 6629 H 625.611 -3.69274 -1.30936 0
M  V30 6630 H 627.308 -3.8905 -0.971664 0
M  V30 6631 H 623.898 -4.26616 0.411906 0
M  V30 6632 H 628.082 -4.8084 1.22909 0
M  V30 6633 H 623.338 -5.63314 2.3767 0
M  V30 6634 H 627.512 -6.18904 3.19267 0
M  V30 6635 H 625.139 -6.59998 3.77236 0
M  V30 6636 N 626.714 -0.118576 -1.57153 0
M  V30 6637 C 627.624 0.845484 -2.18835 0
M  V30 6638 C 628.64 1.29299 -1.16438 0
M  V30 6639 O 629.816 1.35607 -1.48905 0
M  V30 6640 C 626.881 2.07795 -2.77529 0
M  V30 6641 C 625.942 1.6824 -3.9496 0
M  V30 6642 C 625.175 2.85612 -4.50845 0
M  V30 6643 O 625.398 4.01025 -4.05629 0
M  V30 6644 O 624.332 2.62721 -5.41536 0
M  V30 6645 H 628.158 0.350568 -3.0167 0
M  V30 6646 H 625.743 0.107013 -1.49016 0
M  V30 6647 H 627.625 2.79978 -3.14945 0
M  V30 6648 H 626.3 2.56294 -1.97725 0
M  V30 6649 H 625.207 0.931663 -3.62313 0
M  V30 6650 H 626.54 1.24484 -4.76198 0
M  V30 6651 N 628.193 1.56834 0.155195 0
M  V30 6652 C 629.123 2.00678 1.19376 0
M  V30 6653 C 630.104 0.884973 1.45266 0
M  V30 6654 O 631.289 1.1522 1.56326 0
M  V30 6655 C 628.419 2.38042 2.5289 0
M  V30 6656 C 627.373 3.53332 2.41538 0
M  V30 6657 C 626.699 3.76485 3.79688 0
M  V30 6658 C 627.999 4.86265 1.9064 0
M  V30 6659 H 629.693 2.87688 0.829232 0
M  V30 6660 H 627.239 1.38407 0.397445 0
M  V30 6661 H 629.192 2.67314 3.25763 0
M  V30 6662 H 627.916 1.4796 2.91162 0
M  V30 6663 H 626.575 3.24213 1.71117 0
M  V30 6664 H 626.223 2.83667 4.15382 0
M  V30 6665 H 625.923 4.54068 3.72956 0
M  V30 6666 H 627.447 4.08174 4.54122 0
M  V30 6667 H 628.861 5.14308 2.53299 0
M  V30 6668 H 627.258 5.67597 1.94818 0
M  V30 6669 H 628.328 4.77184 0.861596 0
M  V30 6670 N 629.671 -0.424282 1.51781 0
M  V30 6671 C 630.948 -1.18464 1.55646 0
M  V30 6672 C 631.328 -2.08529 0.328438 0
M  V30 6673 O 630.676 -2.17969 -0.685693 0
M  V30 6674 C 630.886 -1.97514 2.87731 0
M  V30 6675 C 632.234 -2.54106 3.40169 0
M  V30 6676 O 633.258 -2.07711 2.89369 0
M  V30 6677 O 632.117 -3.38759 4.28841 0
M  V30 6678 H 629.211 -0.540055 0.626314 0
M  V30 6679 H 631.757 -0.432291 1.64102 0
M  V30 6680 H 630.529 -1.31444 3.68562 0
M  V30 6681 H 630.152 -2.79787 2.82498 0
M  V30 6682 N 631.149 -1.42148 -0.680565 0
M  V30 6683 C 632.079 -1.4796 -1.80638 0
M  V30 6684 C 633.06 -0.336728 -1.66734 0
M  V30 6685 O 634.245 -0.550247 -1.86242 0
M  V30 6686 C 631.375 -1.37569 -3.18892 0
M  V30 6687 C 630.329 -2.49823 -3.47524 0
M  V30 6688 C 629.655 -2.24491 -4.85291 0
M  V30 6689 C 630.955 -3.92144 -3.44994 0
M  V30 6690 H 632.649 -2.42184 -1.76032 0
M  V30 6691 H 630.195 -1.16566 -0.845481 0
M  V30 6692 H 632.148 -1.40243 -3.97379 0
M  V30 6693 H 630.872 -0.398357 -3.24162 0
M  V30 6694 H 629.531 -2.46455 -2.71395 0
M  V30 6695 H 629.179 -1.25066 -4.87204 0
M  V30 6696 H 628.879 -2.99722 -5.05411 0
M  V30 6697 H 630.403 -2.28906 -5.66069 0
M  V30 6698 H 631.817 -3.97145 -4.13459 0
M  V30 6699 H 630.214 -4.67179 -3.76648 0
M  V30 6700 H 631.284 -4.19225 -2.43676 0
M  V30 6701 N 632.627 0.916307 -1.28225 0
M  V30 6702 C 633.559 2.02303 -1.07732 0
M  V30 6703 C 634.572 1.62773 -0.0298421 0
M  V30 6704 O 635.761 1.76406 -0.272626 0
M  V30 6705 C 632.861 3.33282 -0.614504 0
M  V30 6706 C 632.034 4.01439 -1.73682 0
M  V30 6707 C 631.093 5.10698 -1.26781 0
M  V30 6708 O 630.119 5.34038 -1.96958 0
M  V30 6709 N 631.321 5.80355 -0.129624 0
M  V30 6710 H 634.086 2.20442 -2.03041 0
M  V30 6711 H 631.647 1.08744 -1.19943 0
M  V30 6712 H 633.639 4.03699 -0.284397 0
M  V30 6713 H 632.209 3.11633 0.245664 0
M  V30 6714 H 631.429 3.24604 -2.23665 0
M  V30 6715 H 632.717 4.43721 -2.48976 0
M  V30 6716 H 632.115 5.6386 0.455847 0
M  V30 6717 H 630.672 6.51647 0.141224 0
M  V30 6718 N 634.105 1.10431 1.1244 0
M  V30 6719 C 635.352 0.846717 1.83948 0
M  V30 6720 C 635.68 -0.627709 1.84093 0
M  V30 6721 O 634.935 -1.47876 1.28184 0
M  V30 6722 C 635.234 1.34022 3.3132 0
M  V30 6723 C 634.9 2.82606 3.51347 0
M  V30 6724 C 633.562 3.23182 3.56521 0
M  V30 6725 C 635.914 3.78356 3.58464 0
M  V30 6726 C 633.242 4.58258 3.66356 0
M  V30 6727 C 635.594 5.13234 3.69829 0
M  V30 6728 C 634.258 5.53384 3.73259 0
M  V30 6729 H 633.528 0.309836 0.673114 0
M  V30 6730 H 636.175 1.38091 1.32677 0
M  V30 6731 H 634.48 0.726047 3.85014 0
M  V30 6732 H 636.177 1.11739 3.85118 0
M  V30 6733 H 632.767 2.50212 3.47983 0
M  V30 6734 H 636.951 3.48115 3.53737 0
M  V30 6735 H 632.207 4.88787 3.67284 0
M  V30 6736 H 636.381 5.87272 3.74279 0
M  V30 6737 H 634.008 6.58045 3.80633 0
M  V30 6738 N 635.583 -1.29855 0.893053 0
M  V30 6739 C 636.808 -2.00512 0.530066 0
M  V30 6740 C 637.233 -1.66446 -0.876199 0
M  V30 6741 O 636.591 -0.885446 -1.58207 0
M  V30 6742 C 636.639 -3.53308 0.721505 0
M  V30 6743 O 635.743 -4.11764 -0.228994 0
M  V30 6744 H 635.084 -0.630617 0.207891 0
M  V30 6745 H 637.614 -1.6551 1.20282 0
M  V30 6746 H 637.624 -4.03206 0.623599 0
M  V30 6747 H 636.299 -3.77439 1.74678 0
M  V30 6748 H 634.876 -3.72805 -0.0841034 0
M  V30 6749 N 637.061 -0.65484 -1.43351 0
M  V30 6750 C 637.971 0.0363603 -2.34572 0
M  V30 6751 C 638.987 0.810432 -1.53974 0
M  V30 6752 O 640.163 0.757308 -1.86619 0
M  V30 6753 C 637.228 0.989733 -3.32273 0
M  V30 6754 C 636.289 0.212414 -4.28774 0
M  V30 6755 C 635.522 1.12038 -5.21808 0
M  V30 6756 O 635.745 2.35967 -5.19303 0
M  V30 6757 O 634.679 0.59191 -5.98982 0
M  V30 6758 H 638.505 -0.714527 -2.95175 0
M  V30 6759 H 636.09 -0.415029 -1.4352 0
M  V30 6760 H 637.972 1.53759 -3.92347 0
M  V30 6761 H 636.647 1.72082 -2.74171 0
M  V30 6762 H 635.554 -0.379062 -3.72175 0
M  V30 6763 H 636.887 -0.479138 -4.89862 0
M  V30 6764 N 638.539 1.52521 -0.396863 0
M  V30 6765 C 639.816 1.94112 0.240842 0
M  V30 6766 C 640.196 1.33288 1.637 0
M  V30 6767 O 639.544 0.503901 2.22875 0
M  V30 6768 C 639.754 3.48033 0.259567 0
M  V30 6769 C 641.102 4.21822 0.484866 0
M  V30 6770 O 642.126 3.54579 0.339453 0
M  V30 6771 O 640.985 5.41042 0.770412 0
M  V30 6772 H 638.079 0.812973 0.151671 0
M  V30 6773 H 640.625 1.63572 -0.451918 0
M  V30 6774 H 639.397 3.84655 -0.718078 0
M  V30 6775 H 639.02 3.84899 0.996937 0
M  V30 6776 N 640.017 0.126909 1.57088 0
M  V30 6777 C 640.927 -0.833867 2.1928 0
M  V30 6778 C 641.943 -1.2868 1.17122 0
M  V30 6779 O 643.119 -1.34815 1.49622 0
M  V30 6780 C 640.184 -2.0632 2.78627 0
M  V30 6781 C 639.245 -1.66143 3.95847 0
M  V30 6782 C 638.478 -2.83217 4.52354 0
M  V30 6783 O 638.701 -3.98868 4.0775 0
M  V30 6784 O 637.635 -2.59846 5.42922 0
M  V30 6785 H 641.461 -0.334564 3.01852 0
M  V30 6786 H 639.046 -0.0991091 1.49071 0
M  V30 6787 H 640.928 -2.78304 3.16425 0
M  V30 6788 H 639.603 -2.55242 1.99082 0
M  V30 6789 H 638.51 -0.912435 3.62802 0
M  V30 6790 H 639.843 -1.21957 4.76852 0
M  V30 6791 N 641.495 -1.56914 -0.146875 0
M  V30 6792 C 642.442 -1.98275 -1.18134 0
M  V30 6793 C 643.412 -0.850367 -1.42681 0
M  V30 6794 O 644.597 -1.11244 -1.55014 0
M  V30 6795 C 641.737 -2.36861 -2.5098 0
M  V30 6796 C 640.85 -3.63391 -2.33605 0
M  V30 6797 C 639.985 -3.91079 -3.59486 0
M  V30 6798 C 639.024 -5.10879 -3.37149 0
M  V30 6799 N 638.161 -5.34577 -4.55161 0
M  V30 6800 H 643.001 -2.8645 -0.821622 0
M  V30 6801 H 640.538 -1.41718 -0.394248 0
M  V30 6802 H 642.496 -2.57262 -3.28439 0
M  V30 6803 H 641.126 -1.51766 -2.84898 0
M  V30 6804 H 640.178 -3.50766 -1.47199 0
M  V30 6805 H 641.49 -4.51007 -2.13059 0
M  V30 6806 H 640.644 -4.11979 -4.45374 0
M  V30 6807 H 639.383 -3.01885 -3.83036 0
M  V30 6808 H 638.388 -4.89853 -2.49649 0
M  V30 6809 H 639.613 -6.01626 -3.14997 0
M  V30 6810 H 637.559 -4.48337 -4.78884 0
M  V30 6811 H 637.476 -6.16463 -4.37618 0
M  V30 6812 H 638.744 -5.59975 -5.42263 0
M  V30 6813 N 642.974 0.416227 -1.52004 0
M  V30 6814 C 644.39 0.754319 -1.40649 0
M  V30 6815 C 644.59 1.95059 -0.505392 0
M  V30 6816 O 643.646 2.5248 0.0315057 0
M  V30 6817 C 644.959 1.0149 -2.83055 0
M  V30 6818 C 646.507 1.11805 -2.9235 0
M  V30 6819 C 646.982 1.41144 -4.35709 0
M  V30 6820 N 648.473 1.48024 -4.38911 0
M  V30 6821 C 649.208 1.72338 -5.46889 0
M  V30 6822 N 648.704 1.94303 -6.64995 0
M  V30 6823 N 650.497 1.74294 -5.34395 0
M  V30 6824 H 642.648 -0.371324 -2.09129 0
M  V30 6825 H 644.911 -0.103811 -0.942299 0
M  V30 6826 H 644.617 0.208345 -3.51082 0
M  V30 6827 H 644.491 1.93697 -3.23668 0
M  V30 6828 H 646.878 1.91521 -2.24508 0
M  V30 6829 H 646.959 0.17451 -2.55204 0
M  V30 6830 H 646.603 0.619484 -5.04108 0
M  V30 6831 H 646.533 2.36739 -4.70385 0
M  V30 6832 H 649.024 1.32868 -3.53772 0
M  V30 6833 H 649.337 2.12286 -7.43071 0
M  V30 6834 H 647.682 1.91582 -6.68073 0
M  V30 6835 H 650.873 1.56667 -4.41104 0
M  V30 6836 H 651.046 1.92904 -6.18621 0
M  V30 6837 N 644.452 1.42507 0.673017 0
M  V30 6838 C 645.382 1.48916 1.79851 0
M  V30 6839 C 646.363 0.345566 1.66553 0
M  V30 6840 O 647.548 0.560116 1.85947 0
M  V30 6841 C 644.678 1.39258 3.18158 0
M  V30 6842 C 643.632 2.51662 3.46194 0
M  V30 6843 C 642.958 2.27062 4.84094 0
M  V30 6844 C 644.258 3.93968 3.42909 0
M  V30 6845 H 645.952 2.43114 1.74745 0
M  V30 6846 H 643.498 1.17013 0.839288 0
M  V30 6847 H 645.451 1.42349 3.96629 0
M  V30 6848 H 644.175 0.415542 3.23946 0
M  V30 6849 H 642.834 2.47891 2.70084 0
M  V30 6850 H 642.482 1.27648 4.86534 0
M  V30 6851 H 642.182 3.02398 5.03815 0
M  V30 6852 H 643.706 2.31905 5.64847 0
M  V30 6853 H 645.12 3.99332 4.11347 0
M  V30 6854 H 643.517 4.6917 3.74165 0
M  V30 6855 H 644.587 4.20512 2.41449 0
M  V30 6856 N 645.93 -0.909495 1.28709 0
M  V30 6857 C 646.86 -2.0291 1.15542 0
M  V30 6858 C 647.841 -1.7002 0.0521017 0
M  V30 6859 O 649.026 -1.92835 0.229849 0
M  V30 6860 C 646.156 -3.37458 0.820935 0
M  V30 6861 C 645.11 -3.84524 1.87949 0
M  V30 6862 C 644.436 -5.16086 1.39854 0
M  V30 6863 C 645.736 -4.05918 3.28676 0
M  V30 6864 H 647.43 -2.14183 2.09203 0
M  V30 6865 H 644.976 -1.02913 1.00722 0
M  V30 6866 H 646.929 -4.1528 0.715571 0
M  V30 6867 H 645.653 -3.26249 -0.151374 0
M  V30 6868 H 644.312 -3.08911 1.97408 0
M  V30 6869 H 643.96 -5.01284 0.41518 0
M  V30 6870 H 643.66 -5.48547 2.1064 0
M  V30 6871 H 645.184 -5.96459 1.30649 0
M  V30 6872 H 646.598 -4.74252 3.22115 0
M  V30 6873 H 644.995 -4.49717 3.97334 0
M  V30 6874 H 646.065 -3.10583 3.72379 0
M  V30 6875 N 647.408 -1.11026 -1.11852 0
M  V30 6876 C 648.338 -0.786812 -2.19844 0
M  V30 6877 C 649.319 0.242935 -1.68356 0
M  V30 6878 O 650.504 0.107355 -1.93903 0
M  V30 6879 C 647.634 -0.224516 -3.46574 0
M  V30 6880 C 646.588 -1.18564 -4.1125 0
M  V30 6881 C 645.914 -0.484261 -5.32503 0
M  V30 6882 C 647.214 -2.53465 -4.56676 0
M  V30 6883 H 648.908 -1.68978 -2.47158 0
M  V30 6884 H 646.454 -0.813906 -1.18792 0
M  V30 6885 H 648.407 0.0139435 -4.21398 0
M  V30 6886 H 647.131 0.713722 -3.18706 0
M  V30 6887 H 645.79 -1.40966 -3.38414 0
M  V30 6888 H 645.438 0.458646 -5.00905 0
M  V30 6889 H 645.138 -1.12526 -5.76725 0
M  V30 6890 H 646.662 -0.254492 -6.10069 0
M  V30 6891 H 648.076 -2.35177 -5.22843 0
M  V30 6892 H 646.473 -3.13507 -5.11697 0
M  V30 6893 H 647.543 -3.13008 -3.70343 0
M  V30 6894 N 648.886 1.2938 -0.899927 0
M  V30 6895 C 649.796 2.31462 -0.382437 0
M  V30 6896 C 650.812 1.65956 0.522929 0
M  V30 6897 O 651.988 1.97131 0.412454 0
M  V30 6898 C 649.053 3.44595 0.381472 0
M  V30 6899 C 648.114 4.25692 -0.555444 0
M  V30 6900 C 647.347 5.33422 0.172102 0
M  V30 6901 O 647.57 5.53053 1.396 0
M  V30 6902 O 646.504 5.99939 -0.485491 0
M  V30 6903 H 650.33 2.77706 -1.22934 0
M  V30 6904 H 647.915 1.33821 -0.664259 0
M  V30 6905 H 649.797 4.13474 0.813442 0
M  V30 6906 H 648.472 3.00458 1.20443 0
M  V30 6907 H 647.379 3.59453 -1.03653 0
M  V30 6908 H 648.712 4.73471 -1.34483 0
M  V30 6909 N 650.364 0.662433 1.43002 0
M  V30 6910 C 651.311 -0.0235324 2.30788 0
M  V30 6911 C 652.281 -0.805342 1.4527 0
M  V30 6912 O 653.466 -0.78009 1.74124 0
M  V30 6913 C 650.606 -0.977545 3.30965 0
M  V30 6914 C 649.719 -0.190865 4.31578 0
M  V30 6915 C 648.854 -1.13951 5.18834 0
M  V30 6916 C 647.893 -0.343796 6.11134 0
M  V30 6917 N 647.03 -1.2445 6.90982 0
M  V30 6918 H 651.87 0.730921 2.88897 0
M  V30 6919 H 649.407 0.372197 1.42313 0
M  V30 6920 H 651.365 -1.54437 3.87563 0
M  V30 6921 H 649.995 -1.69877 2.74484 0
M  V30 6922 H 649.047 0.492388 3.772 0
M  V30 6923 H 650.359 0.427464 4.96965 0
M  V30 6924 H 649.513 -1.77666 5.80103 0
M  V30 6925 H 648.252 -1.79174 4.53595 0
M  V30 6926 H 647.257 0.30665 5.48944 0
M  V30 6927 H 648.482 0.304161 6.78419 0
M  V30 6928 H 646.428 -1.88336 6.28383 0
M  V30 6929 H 646.345 -0.680959 7.52927 0
M  V30 6930 H 647.613 -1.86952 7.56749 0
M  V30 6931 N 651.842 -1.52309 0.404946 0
M  V30 6932 C 652.774 -2.24579 -0.45791 0
M  V30 6933 C 653.787 -1.2739 -1.01369 0
M  V30 6934 O 654.976 -1.53363 -0.91335 0
M  V30 6935 C 652.076 -2.9608 -1.64893 0
M  V30 6936 C 651.249 -4.20106 -1.21777 0
M  V30 6937 C 650.308 -4.74468 -2.27523 0
M  V30 6938 O 649.334 -5.37157 -1.88285 0
M  V30 6939 N 650.536 -4.55678 -3.59635 0
M  V30 6940 H 653.301 -2.99265 0.161341 0
M  V30 6941 H 650.862 -1.60228 0.232107 0
M  V30 6942 H 652.854 -3.29344 -2.35191 0
M  V30 6943 H 651.424 -2.24606 -2.17419 0
M  V30 6944 H 650.644 -3.92704 -0.343071 0
M  V30 6945 H 651.932 -5.00658 -0.906596 0
M  V30 6946 H 651.33 -4.05673 -3.94266 0
M  V30 6947 H 649.887 -4.9339 -4.25922 0
M  V30 6948 N 653.32 -0.135238 -1.57019 0
M  V30 6949 C 654.283 0.794707 -2.14981 0
M  V30 6950 C 655.283 1.18342 -1.08866 0
M  V30 6951 O 656.473 1.10627 -1.34563 0
M  V30 6952 C 653.605 2.07685 -2.70333 0
M  V30 6953 H 654.798 0.290696 -2.98488 0
M  V30 6954 H 652.351 0.114128 -1.55883 0
M  V30 6955 H 653.086 2.6248 -1.9046 0
M  V30 6956 H 652.871 1.80745 -3.47957 0
M  V30 6957 H 654.361 2.74127 -3.1503 0
M  V30 6958 N 654.798 1.5699 0.138552 0
M  V30 6959 C 656.046 1.83446 0.848053 0
M  V30 6960 C 656.367 0.71744 1.81322 0
M  V30 6961 O 655.637 -0.260228 1.94164 0
M  V30 6962 H 654.217 0.676792 0.316166 0
M  V30 6963 H 656.879 1.94462 0.130538 0
M  V30 6964 H 655.975 2.78677 1.40518 0
M  V30 6965 N 656.276 -0.40816 1.52223 0
M  V30 6966 C 657.524 -1.15274 1.66001 0
M  V30 6967 C 657.845 -1.91003 0.392803 0
M  V30 6968 O 657.115 -1.8673 -0.592336 0
M  V30 6969 H 655.695 -0.428526 0.611861 0
M  V30 6970 H 658.357 -0.46512 1.89269 0
M  V30 6971 H 657.453 -1.86628 2.50153 0
M  V30 6972 N 657.755 -1.42862 -0.66545 0
M  V30 6973 C 658.703 -1.47319 -1.8 0
M  V30 6974 C 659.697 -0.347963 -1.65788 0
M  V30 6975 O 660.903 -0.521406 -1.72283 0
M  V30 6976 H 657.278 -0.461588 -0.593667 0
M  V30 6977 H 659.249 -2.42876 -1.7336 0
M  V30 6978 C 657.998 -1.40152 -3.18203 0
M  V30 6979 H 657.321 -2.26035 -3.2977 0
M  V30 6980 H 658.761 -1.47331 -3.9758 0
M  V30 6981 C 657.22 -0.117493 -3.36695 0
M  V30 6982 O 657.75 0.826058 -3.93115 0
M  V30 6983 N 655.956 -0.0316218 -2.90583 0
M  V30 6984 H 655.503 -0.800247 -2.44855 0
M  V30 6985 H 655.461 0.826835 -3.03333 0
M  V30 6986 N 659.233 0.902656 -1.29189 0
M  V30 6987 C 660.644 1.46809 -1.15343 0
M  V30 6988 C 660.995 1.94568 0.252517 0
M  V30 6989 O 660.12 1.83454 1.14777 0
M  V30 6990 C 660.715 2.66829 -2.08776 0
M  V30 6991 C 659.274 3.19518 -1.98961 0
M  V30 6992 C 658.421 1.92212 -1.99874 0
M  V30 6993 H 661.372 0.714282 -1.41717 0
M  V30 6994 H 661.393 3.42465 -1.65826 0
M  V30 6995 H 660.905 2.32039 -3.11094 0
M  V30 6996 H 659.006 3.59008 -0.99721 0
M  V30 6997 H 659.119 3.84016 -2.86477 0
M  V30 6998 H 657.483 2.0979 -1.44431 0
M  V30 6999 H 658.266 1.59702 -3.03891 0
M  V30 7000 N 660.711 1.11618 1.11262 0
M  V30 7001 C 661.957 0.877377 1.83504 0
M  V30 7002 C 662.312 -0.590606 1.83111 0
M  V30 7003 O 661.605 -1.43057 1.27456 0
M  V30 7004 C 661.799 1.37529 3.2988 0
M  V30 7005 C 661.628 2.89014 3.4453 0
M  V30 7006 C 660.398 3.57157 3.57445 0
M  V30 7007 C 662.596 3.8706 3.38658 0
M  V30 7008 N 660.578 4.96842 3.60585 0
M  V30 7009 C 661.949 5.12825 3.4844 0
M  V30 7010 C 664.004 3.79593 3.22201 0
M  V30 7011 C 662.707 6.32002 3.43462 0
M  V30 7012 C 664.733 4.98282 3.18542 0
M  V30 7013 C 664.095 6.22901 3.28897 0
M  V30 7014 H 660.194 0.37422 0.686646 0
M  V30 7015 H 662.778 1.42087 1.33114 0
M  V30 7016 H 660.949 0.85895 3.78783 0
M  V30 7017 H 662.681 1.07944 3.90039 0
M  V30 7018 H 659.436 3.07628 3.60086 0
M  V30 7019 H 659.86 5.69674 3.65788 0
M  V30 7020 H 664.502 2.84149 3.1308 0
M  V30 7021 H 662.22 7.27721 3.51352 0
M  V30 7022 H 665.806 4.94226 3.06972 0
M  V30 7023 H 664.686 7.13202 3.26056 0
M  V30 7024 N 662.189 -1.289 0.906776 0
M  V30 7025 C 663.139 -2.25122 0.361109 0
M  V30 7026 C 664.123 -1.52169 -0.52283 0
M  V30 7027 O 665.315 -1.73223 -0.363691 0
M  V30 7028 C 662.444 -3.40915 -0.403982 0
M  V30 7029 C 661.53 -4.21198 0.495279 0
M  V30 7030 N 661.921 -4.79636 1.60572 0
M  V30 7031 C 660.219 -4.45027 0.294372 0
M  V30 7032 C 660.92 -5.39977 2.16332 0
M  V30 7033 N 659.896 -5.23753 1.45546 0
M  V30 7034 H 663.698 -2.67869 1.20927 0
M  V30 7035 H 661.212 -1.43592 0.758632 0
M  V30 7036 H 663.209 -4.08922 -0.811695 0
M  V30 7037 H 661.869 -2.99703 -1.24932 0
M  V30 7038 H 662.88 -4.78209 1.98838 0
M  V30 7039 H 659.557 -4.14348 -0.512021 0
M  V30 7040 H 660.947 -5.96266 3.09704 0
M  V30 7041 N 663.667 -0.670007 -1.42649 0
M  V30 7042 C 664.599 0.0501746 -2.29145 0
M  V30 7043 C 665.612 0.770331 -1.43422 0
M  V30 7044 O 666.801 0.625288 -1.6719 0
M  V30 7045 C 663.901 1.09463 -3.20735 0
M  V30 7046 C 663.074 0.44926 -4.35087 0
M  V30 7047 C 662.133 1.39285 -5.07431 0
M  V30 7048 O 661.159 0.894997 -5.6212 0
M  V30 7049 N 662.361 2.72631 -5.12496 0
M  V30 7050 H 665.126 -0.692312 -2.91594 0
M  V30 7051 H 662.687 -0.514056 -1.53522 0
M  V30 7052 H 664.679 1.72705 -3.65999 0
M  V30 7053 H 663.249 1.73891 -2.59771 0
M  V30 7054 H 662.469 -0.362573 -3.92529 0
M  V30 7055 H 663.757 -0.000544776 -5.088 0
M  V30 7056 H 663.155 3.15623 -4.69467 0
M  V30 7057 H 661.712 3.31132 -5.61422 0
M  V30 7058 N 665.145 1.52092 -0.413018 0
M  V30 7059 C 666.392 2.01855 0.161497 0
M  V30 7060 C 666.72 1.29845 1.44812 0
M  V30 7061 O 665.975 0.394471 1.91683 0
M  V30 7062 C 666.274 3.54529 0.4521 0
M  V30 7063 C 665.94 4.4469 -0.745788 0
M  V30 7064 C 664.602 4.69053 -1.07435 0
M  V30 7065 C 666.954 4.97742 -1.54604 0
M  V30 7066 C 664.282 5.43717 -2.20429 0
M  V30 7067 C 666.634 5.73642 -2.66678 0
M  V30 7068 C 665.298 5.96277 -3.00016 0
M  V30 7069 H 664.568 0.73864 0.0590961 0
M  V30 7070 H 667.215 1.83274 -0.555234 0
M  V30 7071 H 665.52 3.7131 1.25045 0
M  V30 7072 H 667.217 3.90546 0.909647 0
M  V30 7073 H 663.807 4.25907 -0.479725 0
M  V30 7074 H 667.991 4.78824 -1.30543 0
M  V30 7075 H 663.247 5.59462 -2.46602 0
M  V30 7076 H 667.421 6.13746 -3.29072 0
M  V30 7077 H 665.048 6.53913 -3.87688 0
M  V30 7078 N 666.623 0.143563 1.56945 0
M  V30 7079 C 667.869 -0.50916 1.96304 0
M  V30 7080 C 668.202 -1.64741 1.0283 0
M  V30 7081 O 667.477 -1.94374 0.0700361 0
M  V30 7082 C 667.76 -1.0186 3.45393 0
M  V30 7083 C 667.613 0.117923 4.49645 0
M  V30 7084 C 668.932 -1.90151 3.96901 0
M  V30 7085 H 666.051 -0.183608 0.713763 0
M  V30 7086 H 668.693 0.224095 1.88674 0
M  V30 7087 H 666.843 -1.64345 3.52027 0
M  V30 7088 H 668.515 0.754145 4.55094 0
M  V30 7089 H 666.758 0.777568 4.26774 0
M  V30 7090 H 667.429 -0.280187 5.51288 0
M  V30 7091 H 669.905 -1.375 3.92725 0
M  V30 7092 H 668.781 -2.22707 5.0169 0
M  V30 7093 H 669.042 -2.83718 3.39052 0
M  V30 7094 N 668.101 -1.57061 -0.130224 0
M  V30 7095 C 669.011 -2.02802 -1.17934 0
M  V30 7096 C 670.027 -0.946378 -1.46013 0
M  V30 7097 O 671.203 -1.25708 -1.57351 0
M  V30 7098 C 668.268 -2.41368 -2.48882 0
M  V30 7099 C 667.329 -3.63561 -2.28301 0
M  V30 7100 C 666.562 -4.00279 -3.53005 0
M  V30 7101 O 666.785 -3.37463 -4.59864 0
M  V30 7102 O 665.719 -4.93441 -3.44673 0
M  V30 7103 H 669.545 -2.92394 -0.820958 0
M  V30 7104 H 667.13 -1.45475 -0.340197 0
M  V30 7105 H 669.012 -2.66958 -3.26054 0
M  V30 7106 H 667.687 -1.54926 -2.84217 0
M  V30 7107 H 666.594 -3.43136 -1.49025 0
M  V30 7108 H 667.927 -4.50673 -1.97875 0
M  V30 7109 N 669.579 0.400081 -1.52437 0
M  V30 7110 C 670.527 1.50851 -1.7705 0
M  V30 7111 C 671.521 1.56928 -0.637969 0
M  V30 7112 O 672.727 1.60226 -0.820212 0
M  V30 7113 H 669.102 0.50186 -0.560036 0
M  V30 7114 H 671.073 1.27281 -2.69893 0
M  V30 7115 C 669.822 2.88117 -1.94638 0
M  V30 7116 H 669.145 2.84187 -2.81208 0
M  V30 7117 H 670.585 3.64942 -2.15855 0
M  V30 7118 C 669.044 3.29206 -0.715899 0
M  V30 7119 O 669.574 4.01544 0.111944 0
M  V30 7120 N 667.78 2.85363 -0.549191 0
M  V30 7121 H 667.327 2.26664 -1.22397 0
M  V30 7122 H 667.285 3.13214 0.27278 0
M  V30 7123 N 671.057 1.43213 0.657864 0
M  V30 7124 C 672.005 1.48271 1.79216 0
M  V30 7125 C 672.999 0.35675 1.65601 0
M  V30 7126 O 674.205 0.530535 1.72004 0
M  V30 7127 H 670.58 0.464729 0.591211 0
M  V30 7128 H 672.551 2.43792 1.7207 0
M  V30 7129 C 671.3 1.41837 3.17455 0
M  V30 7130 H 670.623 2.27781 3.28567 0
M  V30 7131 H 672.063 1.49438 3.96793 0
M  V30 7132 C 670.522 0.135347 3.36628 0
M  V30 7133 O 671.052 -0.805199 3.93547 0
M  V30 7134 N 669.258 0.0470316 2.90562 0
M  V30 7135 H 668.805 0.813221 2.44427 0
M  V30 7136 H 668.763 -0.810737 3.03767 0
M  V30 7137 N 672.536 -0.895792 1.29666 0
M  V30 7138 C 673.466 -2.01673 1.17688 0
M  V30 7139 C 674.447 -1.69955 0.0701317 0
M  V30 7140 O 675.632 -1.9258 0.250289 0
M  V30 7141 C 672.762 -3.36568 0.856681 0
M  V30 7142 C 671.716 -3.82509 1.92017 0
M  V30 7143 C 671.042 -5.14574 1.4532 0
M  V30 7144 C 672.342 -4.02409 3.32963 0
M  V30 7145 H 674.036 -2.11953 2.11463 0
M  V30 7146 H 671.582 -1.01839 1.01807 0
M  V30 7147 H 673.535 -4.14498 0.759577 0
M  V30 7148 H 672.259 -3.26391 -0.116763 0
M  V30 7149 H 670.918 -3.068 2.00673 0
M  V30 7150 H 670.566 -5.00815 0.468325 0
M  V30 7151 H 670.266 -5.46283 2.16447 0
M  V30 7152 H 671.79 -5.9504 1.36968 0
M  V30 7153 H 673.204 -4.70808 3.27127 0
M  V30 7154 H 671.601 -4.45478 4.02082 0
M  V30 7155 H 672.671 -3.06616 3.75652 0
M  V30 7156 N 674.014 -1.12206 -1.10668 0
M  V30 7157 C 675.263 -0.870595 -1.81944 0
M  V30 7158 C 675.576 0.605447 -1.85994 0
M  V30 7159 O 676.782 0.973433 -2.53449 0
M  V30 7160 C 675.238 -1.50783 -3.26791 0
M  V30 7161 C 674.846 -3.01849 -3.31046 0
M  V30 7162 C 676.59 -1.33653 -4.02911 0
M  V30 7163 C 674.497 -3.58518 -4.70339 0
M  V30 7164 H 673.427 -0.322043 -0.681765 0
M  V30 7165 H 676.078 -1.34827 -1.24475 0
M  V30 7166 H 674.46 -0.957825 -3.84242 0
M  V30 7167 H 675.634 -3.63321 -2.83433 0
M  V30 7168 H 673.949 -3.18346 -2.68411 0
M  V30 7169 H 676.546 -1.73416 -5.05797 0
M  V30 7170 H 676.889 -0.279949 -4.15358 0
M  V30 7171 H 677.422 -1.85562 -3.51868 0
M  V30 7172 H 674.161 -4.63925 -4.63091 0
M  V30 7173 H 673.681 -3.01819 -5.18329 0
M  V30 7174 H 675.36 -3.57434 -5.39305 0
M  V30 7175 N 675.492 1.28418 -0.913599 0
M  V30 7176 C 676.422 2.29713 -0.418847 0
M  V30 7177 C 677.403 1.62165 0.513469 0
M  V30 7178 O 678.588 1.89576 0.421235 0
M  V30 7179 C 675.718 3.45612 0.342042 0
M  V30 7180 C 674.672 4.25056 -0.501123 0
M  V30 7181 C 673.998 5.3329 0.388097 0
M  V30 7182 C 675.298 4.91814 -1.75831 0
M  V30 7183 H 676.992 2.71346 -1.26538 0
M  V30 7184 H 674.538 1.30446 -0.609903 0
M  V30 7185 H 676.491 4.15562 0.699 0
M  V30 7186 H 675.215 3.02858 1.22248 0
M  V30 7187 H 673.874 3.56833 -0.840598 0
M  V30 7188 H 673.522 4.8678 1.26707 0
M  V30 7189 H 673.222 5.87347 -0.172459 0
M  V30 7190 H 674.746 6.06088 0.74094 0
M  V30 7191 H 676.16 5.54126 -1.47026 0
M  V30 7192 H 674.557 5.55866 -2.26126 0
M  V30 7193 H 675.627 4.16313 -2.4862 0
M  V30 7194 N 676.97 0.677563 1.42291 0
M  V30 7195 C 677.917 0.000947061 2.308 0
M  V30 7196 C 678.887 -0.789889 1.46116 0
M  V30 7197 O 680.072 -0.761578 1.74942 0
M  V30 7198 C 677.212 -0.942387 3.31984 0
M  V30 7199 C 676.325 -0.14508 4.31756 0
M  V30 7200 C 675.46 -1.08442 5.20013 0
M  V30 7201 C 674.499 -0.278958 6.11464 0
M  V30 7202 N 673.636 -1.17115 6.92263 0
M  V30 7203 H 678.476 0.761521 2.88106 0
M  V30 7204 H 676.013 0.38727 1.41911 0
M  V30 7205 H 677.971 -1.50317 3.89179 0
M  V30 7206 H 676.601 -1.66956 2.76271 0
M  V30 7207 H 675.653 0.532368 3.76656 0
M  V30 7208 H 676.965 0.48015 4.96484 0
M  V30 7209 H 676.119 -1.71504 5.81955 0
M  V30 7210 H 674.858 -1.74353 4.55469 0
M  V30 7211 H 673.863 0.364856 5.48588 0
M  V30 7212 H 675.088 0.376099 6.78058 0
M  V30 7213 H 673.034 -1.81661 6.30345 0
M  V30 7214 H 672.951 -0.601063 7.53607 0
M  V30 7215 H 674.219 -1.78915 7.58689 0
M  V30 7216 N 678.448 -1.51871 0.421078 0
M  V30 7217 C 679.381 -2.23851 -0.443369 0
M  V30 7218 C 680.359 -1.25142 -1.03818 0
M  V30 7219 O 681.543 -1.5423 -1.08377 0
M  V30 7220 C 678.67 -2.97637 -1.61648 0
M  V30 7221 C 677.716 -4.10873 -1.14391 0
M  V30 7222 S 678.549 -5.35408 -0.0992403 0
M  V30 7223 C 679.705 -6.12726 -1.27739 0
M  V30 7224 H 679.938 -2.96826 0.167786 0
M  V30 7225 H 677.471 -1.53027 0.205461 0
M  V30 7226 H 679.429 -3.40751 -2.28909 0
M  V30 7227 H 678.09 -2.24282 -2.199 0
M  V30 7228 H 677.283 -4.61718 -2.02069 0
M  V30 7229 H 676.885 -3.69937 -0.549775 0
M  V30 7230 H 679.177 -6.40827 -2.19881 0
M  V30 7231 H 680.12 -7.03461 -0.809239 0
M  V30 7232 H 680.528 -5.43968 -1.5086 0
M  V30 7233 N 679.926 -0.151884 -1.56866 0
M  V30 7234 C 681.174 0.497021 -1.95893 0
M  V30 7235 C 681.495 1.65078 -1.03799 0
M  V30 7236 O 680.765 1.95642 -0.10049 0
M  V30 7237 H 679.345 0.186603 -0.723318 0
M  V30 7238 H 682.007 -0.228525 -1.93556 0
M  V30 7239 H 681.103 0.869933 -2.99731 0
M  V30 7240 N 681.404 1.57128 0.121893 0
M  V30 7241 C 682.815 1.73902 0.679348 0
M  V30 7242 C 683.166 0.770135 1.80453 0
M  V30 7243 O 682.291 -0.0576083 2.16323 0
M  V30 7244 C 682.886 3.15328 1.2391 0
M  V30 7245 C 681.445 3.33618 1.74288 0
M  V30 7246 C 680.592 2.6978 0.641414 0
M  V30 7247 H 683.543 1.58359 -0.104 0
M  V30 7248 H 683.564 3.16718 2.10879 0
M  V30 7249 H 683.076 3.85821 0.419957 0
M  V30 7250 H 681.177 2.68162 2.58689 0
M  V30 7251 H 681.29 4.4176 1.85432 0
M  V30 7252 H 679.654 2.30935 1.0743 0
M  V30 7253 H 680.437 3.42895 -0.166707 0
M  V30 7254 N 682.882 -0.391992 1.52647 0
M  V30 7255 C 684.128 -1.139 1.67793 0
M  V30 7256 C 684.461 -1.89711 0.41514 0
M  V30 7257 O 683.736 -1.85431 -0.586979 0
M  V30 7258 C 684.019 -2.11966 2.91105 0
M  V30 7259 C 683.872 -1.39939 4.27478 0
M  V30 7260 C 685.191 -3.1243 3.09961 0
M  V30 7261 H 682.31 -0.412707 0.610608 0
M  V30 7262 H 684.952 -0.422725 1.85238 0
M  V30 7263 H 683.102 -2.73048 2.76364 0
M  V30 7264 H 684.774 -0.818439 4.53982 0
M  V30 7265 H 683.017 -0.701246 4.28095 0
M  V30 7266 H 683.688 -2.1158 5.09841 0
M  V30 7267 H 686.164 -2.61435 3.23714 0
M  V30 7268 H 685.04 -3.78294 3.97725 0
M  V30 7269 H 685.301 -3.81127 2.24042 0
M  V30 7270 N 684.36 -1.4356 -0.65026 0
M  V30 7271 C 685.637 -1.35811 -1.40765 0
M  V30 7272 C 686.017 -0.00736379 -2.11099 0
M  V30 7273 O 685.365 1.00932 -2.05 0
M  V30 7274 C 685.575 -2.54332 -2.3899 0
M  V30 7275 C 686.923 -2.97551 -3.02901 0
M  V30 7276 O 687.947 -2.544 -2.49317 0
M  V30 7277 O 686.806 -3.72311 -4.00059 0
M  V30 7278 H 683.9 -0.536861 -0.629054 0
M  V30 7279 H 686.446 -1.55615 -0.676919 0
M  V30 7280 H 685.218 -3.44274 -1.85986 0
M  V30 7281 H 684.841 -2.36643 -3.19509 0
M  V30 7282 N 685.838 0.888903 -1.30139 0
M  V30 7283 C 686.785 1.99422 -1.16188 0
M  V30 7284 C 687.755 1.66017 -0.0523869 0
M  V30 7285 O 688.94 1.89506 -0.221864 0
M  V30 7286 C 686.08 3.34325 -0.855612 0
M  V30 7287 C 685.193 3.80445 -2.0466 0
M  V30 7288 C 684.328 5.03975 -1.67876 0
M  V30 7289 C 683.367 5.42492 -2.83493 0
M  V30 7290 N 682.504 6.57206 -2.47032 0
M  V30 7291 H 687.344 2.10687 -2.10749 0
M  V30 7292 H 684.881 1.03165 -1.04859 0
M  V30 7293 H 686.839 4.11968 -0.658681 0
M  V30 7294 H 685.469 3.22756 0.0531155 0
M  V30 7295 H 684.521 2.98745 -2.3549 0
M  V30 7296 H 685.833 4.04933 -2.91257 0
M  V30 7297 H 684.987 5.89232 -1.44535 0
M  V30 7298 H 683.726 4.8135 -0.784431 0
M  V30 7299 H 682.731 4.55764 -3.07505 0
M  V30 7300 H 683.956 5.67093 -3.73607 0
M  V30 7301 H 681.902 6.36164 -1.601 0
M  V30 7302 H 681.819 6.81543 -3.27161 0
M  V30 7303 H 683.087 7.45704 -2.27038 0
M  V30 7304 N 687.317 1.12792 1.10072 0
M  V30 7305 C 688.733 0.864745 1.34143 0
M  V30 7306 C 688.933 -0.503201 1.95116 0
M  V30 7307 O 687.989 -1.25111 2.19325 0
M  V30 7308 C 689.302 1.98413 2.25949 0
M  V30 7309 C 690.85 2.01545 2.39476 0
M  V30 7310 C 691.325 3.12727 3.34613 0
M  V30 7311 N 692.816 3.12194 3.42183 0
M  V30 7312 C 693.551 3.94862 4.15779 0
M  V30 7313 N 693.047 4.87528 4.92228 0
M  V30 7314 N 694.84 3.82985 4.11435 0
M  V30 7315 H 686.991 2.00926 0.68866 0
M  V30 7316 H 689.254 0.874564 0.365844 0
M  V30 7317 H 688.96 2.97005 1.88364 0
M  V30 7318 H 688.834 1.89254 3.26287 0
M  V30 7319 H 691.221 1.0357 2.76328 0
M  V30 7320 H 691.302 2.14777 1.3894 0
M  V30 7321 H 690.946 4.10936 2.98486 0
M  V30 7322 H 690.876 2.96732 4.35037 0
M  V30 7323 H 693.367 2.45065 2.87666 0
M  V30 7324 H 693.68 5.47109 5.45794 0
M  V30 7325 H 692.025 4.91539 4.9134 0
M  V30 7326 H 695.216 3.09923 3.50807 0
M  V30 7327 H 695.389 4.47641 4.68531 0
M  V30 7328 N 688.795 -1.27931 0.920396 0
M  V30 7329 C 689.742 -2.27085 0.412422 0
M  V30 7330 C 690.712 -1.57858 -0.516725 0
M  V30 7331 O 691.897 -1.85717 -0.437475 0
M  V30 7332 C 689.037 -3.43466 -0.335399 0
M  V30 7333 C 688.15 -4.27425 0.627017 0
M  V30 7334 C 687.285 -5.31016 -0.139916 0
M  V30 7335 C 686.324 -6.06641 0.815683 0
M  V30 7336 N 685.461 -7.02052 0.0818439 0
M  V30 7337 H 690.301 -2.69913 1.26298 0
M  V30 7338 H 687.838 -1.32732 0.634076 0
M  V30 7339 H 689.796 -4.09744 -0.785226 0
M  V30 7340 H 688.426 -3.01611 -1.15025 0
M  V30 7341 H 687.478 -3.6113 1.19537 0
M  V30 7342 H 688.79 -4.79969 1.35763 0
M  V30 7343 H 687.944 -6.03208 -0.649998 0
M  V30 7344 H 686.683 -4.79257 -0.903543 0
M  V30 7345 H 685.688 -5.33294 1.33708 0
M  V30 7346 H 686.913 -6.60489 1.57897 0
M  V30 7347 H 684.859 -6.52634 -0.663671 0
M  V30 7348 H 684.776 -7.52249 0.752163 0
M  V30 7349 H 686.044 -7.78432 -0.407825 0
M  V30 7350 N 690.273 -0.685099 -1.4193 0
M  V30 7351 C 691.521 -0.21124 -2.00993 0
M  V30 7352 C 691.842 1.18985 -1.54491 0
M  V30 7353 O 691.112 1.8009 -0.771 0
M  V30 7354 H 689.692 -0.0751059 -0.743215 0
M  V30 7355 H 692.354 -0.883915 -1.73704 0
M  V30 7356 H 691.45 -0.220513 -3.1132 0
M  V30 7357 N 691.751 1.51645 -0.429126 0
M  V30 7358 C 692.681 2.30434 0.377148 0
M  V30 7359 C 693.662 1.35493 1.02838 0
M  V30 7360 O 694.847 1.6441 1.03359 0
M  V30 7361 C 691.977 3.14038 1.48315 0
M  V30 7362 C 690.931 4.1719 0.955855 0
M  V30 7363 C 690.257 4.89263 2.15698 0
M  V30 7364 C 691.557 5.223 -0.00402136 0
M  V30 7365 H 693.251 2.98085 -0.280336 0
M  V30 7366 H 690.797 1.43354 -0.136265 0
M  V30 7367 H 692.75 3.67933 2.05435 0
M  V30 7368 H 691.474 2.44193 2.16881 0
M  V30 7369 H 690.133 3.64335 0.406929 0
M  V30 7370 H 689.781 4.15929 2.82864 0
M  V30 7371 H 689.481 5.59009 1.81059 0
M  V30 7372 H 691.005 5.45978 2.73387 0
M  V30 7373 H 692.419 5.71315 0.476607 0
M  V30 7374 H 690.816 5.99525 -0.26258 0
M  V30 7375 H 691.886 4.75638 -0.943236 0
M  V30 7376 N 693.229 0.160201 1.56784 0
M  V30 7377 C 694.476 -0.487588 1.96542 0
M  V30 7378 C 694.804 -1.63999 1.04569 0
M  V30 7379 O 694.059 -1.95546 0.0775211 0
M  V30 7380 C 694.358 -1.02259 3.42459 0
M  V30 7381 C 694.024 0.0127436 4.50898 0
M  V30 7382 C 692.686 0.297318 4.80281 0
M  V30 7383 C 695.038 0.716078 5.16257 0
M  V30 7384 C 692.366 1.29081 5.72324 0
M  V30 7385 C 694.718 1.69847 6.09372 0
M  V30 7386 C 693.382 1.99061 6.37127 0
M  V30 7387 H 692.652 -0.178421 0.719199 0
M  V30 7388 H 695.299 0.249818 1.89864 0
M  V30 7389 H 693.604 -1.8376 3.46034 0
M  V30 7390 H 695.301 -1.53261 3.70556 0
M  V30 7391 H 691.891 -0.219235 4.28039 0
M  V30 7392 H 696.075 0.509428 4.93679 0
M  V30 7393 H 691.331 1.52344 5.92116 0
M  V30 7394 H 695.505 2.2489 6.59088 0
M  V30 7395 H 693.132 2.76194 7.08252 0
M  V30 7396 N 694.707 -1.5719 -0.113559 0
M  V30 7397 C 695.67 -1.99796 -1.12314 0
M  V30 7398 C 696.67 -0.888847 -1.34001 0
M  V30 7399 O 697.86 -1.15476 -1.30426 0
M  V30 7400 C 694.992 -2.34279 -2.47641 0
M  V30 7401 H 696.185 -2.90193 -0.756825 0
M  V30 7402 H 693.738 -1.52144 -0.358029 0
M  V30 7403 H 694.473 -1.46778 -2.89183 0
M  V30 7404 H 694.258 -3.15175 -2.33253 0
M  V30 7405 H 695.748 -2.67963 -3.2029 0
M  V30 7406 N 696.185 0.383891 -1.52853 0
M  V30 7407 C 697.601 0.724316 -1.42218 0
M  V30 7408 C 697.801 1.93943 -0.546654 0
M  V30 7409 O 696.857 2.5249 -0.0220562 0
M  V30 7410 C 698.17 0.954635 -2.85144 0
M  V30 7411 C 699.718 1.05579 -2.94656 0
M  V30 7412 C 700.193 1.3187 -4.38605 0
M  V30 7413 N 701.684 1.38681 -4.41952 0
M  V30 7414 C 702.419 1.60699 -5.50421 0
M  V30 7415 N 701.915 1.80154 -6.68967 0
M  V30 7416 N 703.708 1.6292 -5.37972 0
M  V30 7417 H 695.859 -0.4156 -2.08294 0
M  V30 7418 H 698.122 -0.123776 -0.939885 0
M  V30 7419 H 697.828 0.133829 -3.51445 0
M  V30 7420 H 697.702 1.86788 -3.27704 0
M  V30 7421 H 700.089 1.86716 -2.2852 0
M  V30 7422 H 700.17 0.120338 -2.55517 0
M  V30 7423 H 699.814 0.512416 -5.05309 0
M  V30 7424 H 699.744 2.26708 -4.75301 0
M  V30 7425 H 702.235 1.25334 -3.56511 0
M  V30 7426 H 702.548 1.96476 -7.47407 0
M  V30 7427 H 700.893 1.77368 -6.71986 0
M  V30 7428 H 704.084 1.47276 -4.44328 0
M  V30 7429 H 704.257 1.79739 -6.22574 0
M  V30 7430 N 697.663 1.43903 0.642637 0
M  V30 7431 C 699.079 1.27536 0.959519 0
M  V30 7432 C 699.279 0.202751 2.00477 0
M  V30 7433 O 698.335 -0.415256 2.49062 0
M  V30 7434 C 699.648 2.6432 1.43372 0
M  V30 7435 C 701.196 2.71937 1.54981 0
M  V30 7436 C 701.671 4.09164 2.05789 0
M  V30 7437 N 703.162 4.11282 2.13076 0
M  V30 7438 C 703.897 5.14303 2.53534 0
M  V30 7439 N 703.393 6.27693 2.93212 0
M  V30 7440 N 705.186 5.01657 2.53567 0
M  V30 7441 H 697.337 2.12344 -0.0488376 0
M  V30 7442 H 699.6 0.947124 0.0407559 0
M  V30 7443 H 699.306 3.43826 0.740048 0
M  V30 7444 H 699.18 2.90432 2.40685 0
M  V30 7445 H 701.567 1.92757 2.23448 0
M  V30 7446 H 701.648 2.49578 0.560739 0
M  V30 7447 H 701.292 4.88815 1.37921 0
M  V30 7448 H 701.222 4.28893 3.05546 0
M  V30 7449 H 703.713 3.2944 1.85143 0
M  V30 7450 H 704.026 7.02125 3.22863 0
M  V30 7451 H 702.371 6.31149 2.90991 0
M  V30 7452 H 705.562 4.12134 2.21952 0
M  V30 7453 H 705.735 5.82072 2.84774 0
M  V30 7454 N 699.141 -0.881989 1.30609 0
M  V30 7455 C 700.557 -1.16576 1.09005 0
M  V30 7456 C 700.757 -2.00961 -0.14727 0
M  V30 7457 O 699.813 -2.38117 -0.840036 0
M  V30 7458 C 701.126 -1.86954 2.35518 0
M  V30 7459 C 702.674 -1.99706 2.41011 0
M  V30 7460 C 703.149 -2.73497 3.67374 0
M  V30 7461 N 704.64 -2.8104 3.68199 0
M  V30 7462 C 705.375 -3.38718 4.62664 0
M  V30 7463 N 704.871 -3.97421 5.67475 0
M  V30 7464 N 706.664 -3.36561 4.50203 0
M  V30 7465 H 698.815 -0.319398 2.09985 0
M  V30 7466 H 701.078 -0.204058 0.925778 0
M  V30 7467 H 700.784 -1.32393 3.2583 0
M  V30 7468 H 700.658 -2.87317 2.44395 0
M  V30 7469 H 703.045 -2.53436 1.51176 0
M  V30 7470 H 703.126 -0.984218 2.36108 0
M  V30 7471 H 702.77 -2.20438 4.57569 0
M  V30 7472 H 702.7 -3.75163 3.6954 0
M  V30 7473 H 705.191 -2.39365 2.92426 0
M  V30 7474 H 705.504 -4.39507 6.35652 0
M  V30 7475 H 703.849 -3.95832 5.71264 0
M  V30 7476 H 707.04 -2.8993 3.67503 0
M  V30 7477 H 707.213 -3.81215 5.24003 0
M  V30 7478 N 700.619 -1.13374 -1.09472 0
M  V30 7479 C 701.551 -0.768466 -2.15933 0
M  V30 7480 C 702.564 0.209585 -1.61445 0
M  V30 7481 O 703.753 -0.010539 -1.78497 0
M  V30 7482 C 700.853 -0.118266 -3.38694 0
M  V30 7483 C 700.026 -1.12829 -4.22597 0
M  V30 7484 C 699.085 -0.503875 -5.23782 0
M  V30 7485 O 698.111 -1.16374 -5.57177 0
M  V30 7486 N 699.313 0.724288 -5.75964 0
M  V30 7487 H 702.078 -1.68457 -2.47876 0
M  V30 7488 H 699.639 -1.02668 -1.25183 0
M  V30 7489 H 701.631 0.311698 -4.03498 0
M  V30 7490 H 700.201 0.700769 -3.04644 0
M  V30 7491 H 699.421 -1.73556 -3.53938 0
M  V30 7492 H 700.709 -1.81095 -4.75481 0
M  V30 7493 H 700.107 1.27918 -5.51048 0
M  V30 7494 H 698.664 1.09692 -6.42504 0
M  V30 7495 N 702.098 1.27442 -0.927168 0
M  V30 7496 C 703.028 2.29256 -0.443188 0
M  V30 7497 C 704.009 1.62701 0.49624 0
M  V30 7498 O 705.194 1.90013 0.401105 0
M  V30 7499 C 702.324 3.45955 0.305366 0
M  V30 7500 C 701.278 4.24501 -0.546178 0
M  V30 7501 C 700.604 5.33671 0.331512 0
M  V30 7502 C 701.904 4.89921 -1.81037 0
M  V30 7503 H 703.598 2.69988 -1.29409 0
M  V30 7504 H 701.144 1.29792 -0.623705 0
M  V30 7505 H 703.097 4.1628 0.654885 0
M  V30 7506 H 701.821 3.04138 1.19029 0
M  V30 7507 H 700.48 3.55921 -0.878398 0
M  V30 7508 H 700.128 4.88096 1.21537 0
M  V30 7509 H 699.828 5.87131 -0.234746 0
M  V30 7510 H 701.352 6.0684 0.676614 0
M  V30 7511 H 702.766 5.52536 -1.52895 0
M  V30 7512 H 701.163 5.53436 -2.32009 0
M  V30 7513 H 702.233 4.13652 -2.53021 0
M  V30 7514 N 703.576 0.692616 1.41565 0
M  V30 7515 C 704.506 0.0397325 2.33466 0
M  V30 7516 C 705.487 -0.770334 1.51657 0
M  V30 7517 O 706.672 -0.723903 1.80203 0
M  V30 7518 C 703.802 -0.899495 3.3545 0
M  V30 7519 C 702.756 -0.196738 4.27548 0
M  V30 7520 C 702.082 -1.25012 5.19881 0
M  V30 7521 C 703.382 0.935158 5.1386 0
M  V30 7522 H 705.076 0.807296 2.88311 0
M  V30 7523 H 702.622 0.389665 1.38628 0
M  V30 7524 H 704.575 -1.36545 3.98665 0
M  V30 7525 H 703.299 -1.69869 2.78948 0
M  V30 7526 H 701.958 0.249158 3.65752 0
M  V30 7527 H 701.606 -2.04177 4.59696 0
M  V30 7528 H 701.306 -0.784931 5.82334 0
M  V30 7529 H 702.83 -1.71665 5.85972 0
M  V30 7530 H 704.244 0.549619 5.70659 0
M  V30 7531 H 702.641 1.32726 5.85238 0
M  V30 7532 H 703.711 1.77613 4.512 0
M  V30 7533 N 705.054 -1.51416 0.437162 0
M  V30 7534 C 705.984 -2.30631 -0.364922 0
M  V30 7535 C 706.965 -1.36037 -1.02118 0
M  V30 7536 O 708.15 -1.64956 -1.02485 0
M  V30 7537 C 705.28 -3.1482 -1.46648 0
M  V30 7538 C 704.234 -4.17691 -0.933717 0
M  V30 7539 C 703.56 -4.904 -2.13101 0
M  V30 7540 C 704.86 -5.2229 0.0317201 0
M  V30 7541 H 706.554 -2.97932 0.29614 0
M  V30 7542 H 704.1 -1.4328 0.143865 0
M  V30 7543 H 706.053 -3.69017 -2.03481 0
M  V30 7544 H 704.777 -2.4534 -2.15583 0
M  V30 7545 H 703.436 -3.64545 -0.387602 0
M  V30 7546 H 703.084 -4.17423 -2.80654 0
M  V30 7547 H 702.784 -5.59962 -1.78092 0
M  V30 7548 H 704.308 -5.4742 -2.70487 0
M  V30 7549 H 705.722 -5.7156 -0.446302 0
M  V30 7550 H 704.119 -5.99378 0.29437 0
M  V30 7551 H 705.189 -4.75131 0.968447 0
M  V30 7552 N 706.532 -0.168513 -1.56696 0
M  V30 7553 C 707.76 0.483503 -2.01171 0
M  V30 7554 C 708.175 1.56994 -1.04872 0
M  V30 7555 O 707.532 1.82434 -0.0491337 0
M  V30 7556 C 707.583 1.0644 -3.45475 0
M  V30 7557 O 707.304 0.0213375 -4.38095 0
M  V30 7558 C 708.805 1.79493 -4.05336 0
M  V30 7559 H 706.025 0.124002 -0.659443 0
M  V30 7560 H 708.569 -0.269419 -2.02717 0
M  V30 7561 H 706.724 1.76784 -3.44712 0
M  V30 7562 H 707.138 0.449837 -5.22567 0
M  V30 7563 H 708.612 2.15401 -5.08238 0
M  V30 7564 H 709.089 2.68889 -3.47269 0
M  V30 7565 H 709.695 1.13798 -4.09793 0
M  V30 7566 N 708.01 1.57248 0.105221 0
M  V30 7567 C 708.92 2.04653 1.14693 0
M  V30 7568 C 709.936 0.969488 1.44489 0
M  V30 7569 O 711.112 1.28196 1.55331 0
M  V30 7570 C 708.177 2.45297 2.45011 0
M  V30 7571 C 707.238 3.67148 2.22489 0
M  V30 7572 C 706.471 4.05844 3.46592 0
M  V30 7573 O 706.694 3.44736 4.54437 0
M  V30 7574 O 705.628 4.98862 3.36779 0
M  V30 7575 H 709.454 2.93663 0.774336 0
M  V30 7576 H 707.039 1.45998 0.31701 0
M  V30 7577 H 708.921 2.72112 3.21766 0
M  V30 7578 H 707.596 1.59429 2.81717 0
M  V30 7579 H 706.503 3.45463 1.43547 0
M  V30 7580 H 707.836 4.53764 1.9068 0
M  V30 7581 N 709.488 -0.375779 1.53054 0
M  V30 7582 C 710.736 -1.11727 1.68409 0
M  V30 7583 C 711.057 -1.90127 0.43323 0
M  V30 7584 O 710.327 -1.87945 -0.552595 0
M  V30 7585 H 708.907 -0.415451 0.620813 0
M  V30 7586 H 711.569 -0.424869 1.90213 0
M  V30 7587 H 710.665 -1.8128 2.54055 0
M  V30 7588 N 710.966 -1.44241 -0.634997 0
M  V30 7589 C 712.377 -1.41622 -1.21655 0
M  V30 7590 C 712.728 -0.129584 -1.95772 0
M  V30 7591 O 711.853 0.770225 -2.02229 0
M  V30 7592 C 712.448 -2.56557 -2.21278 0
M  V30 7593 C 711.007 -2.57145 -2.7487 0
M  V30 7594 C 710.154 -2.33354 -1.49804 0
M  V30 7595 H 713.105 -1.52878 -0.425905 0
M  V30 7596 H 713.126 -2.29089 -3.03807 0
M  V30 7597 H 712.638 -3.50186 -1.67306 0
M  V30 7598 H 710.739 -1.67447 -3.32855 0
M  V30 7599 H 710.852 -3.55507 -3.21172 0
M  V30 7600 H 709.216 -1.82372 -1.77799 0
M  V30 7601 H 709.999 -3.29092 -0.977402 0
M  V30 7602 N 712.444 0.87505 -1.31075 0
M  V30 7603 C 713.394 1.96933 -1.14898 0
M  V30 7604 C 714.378 1.60783 -0.0613703 0
M  V30 7605 O 715.57 1.74678 -0.285751 0
M  V30 7606 C 712.699 3.3253 -0.853166 0
M  V30 7607 C 711.785 3.74963 -1.98151 0
M  V30 7608 N 712.176 3.89403 -3.22799 0
M  V30 7609 C 710.474 4.04436 -1.8801 0
M  V30 7610 C 711.175 4.25563 -3.96574 0
M  V30 7611 N 710.151 4.3597 -3.24701 0
M  V30 7612 H 713.953 2.06201 -2.09424 0
M  V30 7613 H 711.467 1.06551 -1.22558 0
M  V30 7614 H 713.464 4.10666 -0.718266 0
M  V30 7615 H 712.124 3.24592 0.0839218 0
M  V30 7616 H 713.135 3.74266 -3.57974 0
M  V30 7617 H 709.812 4.04915 -1.01733 0
M  V30 7618 H 711.202 4.44375 -5.03965 0
M  V30 7619 N 713.922 1.13953 1.08869 0
M  V30 7620 C 714.852 0.844824 2.17681 0
M  V30 7621 C 715.833 -0.198213 1.68941 0
M  V30 7622 O 717.018 -0.0559073 1.9412 0
M  V30 7623 C 714.148 0.316325 3.45856 0
M  V30 7624 C 713.102 1.29426 4.07962 0
M  V30 7625 C 712.428 0.625275 5.31031 0
M  V30 7626 C 713.728 2.65484 4.49795 0
M  V30 7627 H 715.422 1.75471 2.42591 0
M  V30 7628 H 712.968 0.845116 1.16592 0
M  V30 7629 H 714.921 0.0977876 4.21287 0
M  V30 7630 H 713.645 -0.628972 3.20486 0
M  V30 7631 H 712.304 1.49889 3.34558 0
M  V30 7632 H 711.952 -0.325678 5.01945 0
M  V30 7633 H 711.652 1.27777 5.73539 0
M  V30 7634 H 713.176 0.416152 6.0918 0
M  V30 7635 H 714.59 2.48957 5.16424 0
M  V30 7636 H 712.987 3.26963 5.03205 0
M  V30 7637 H 714.057 3.22717 3.61914 0
M  V30 7638 N 715.4 -1.26948 0.933913 0
M  V30 7639 C 716.63 -1.97898 0.593279 0
M  V30 7640 C 717.038 -1.69806 -0.834412 0
M  V30 7641 O 716.381 -0.958704 -1.56699 0
M  V30 7642 C 716.443 -3.51657 0.746825 0
M  V30 7643 C 716.107 -4.03384 2.14779 0
M  V30 7644 C 717.104 -4.15682 3.12257 0
M  V30 7645 C 714.789 -4.37577 2.46641 0
M  V30 7646 C 716.783 -4.61455 4.39702 0
M  V30 7647 C 714.47 -4.8304 3.7432 0
M  V30 7648 C 715.468 -4.94939 4.70664 0
M  V30 7649 O 715.156 -5.39403 5.96071 0
M  V30 7650 H 714.888 -0.63814 0.223055 0
M  V30 7651 H 717.442 -1.62608 1.2549 0
M  V30 7652 H 715.672 -3.8669 0.0280889 0
M  V30 7653 H 717.361 -4.03821 0.410328 0
M  V30 7654 H 718.127 -3.89519 2.88964 0
M  V30 7655 H 714.006 -4.27554 1.72391 0
M  V30 7656 H 717.55 -4.70658 5.14905 0
M  V30 7657 H 713.447 -5.08646 3.97429 0
M  V30 7658 H 714.215 -5.57641 5.99148 0
M  V30 7659 N 716.879 -0.700114 -1.41195 0
M  V30 7660 C 718.109 -0.241828 -2.0518 0
M  V30 7661 C 718.517 1.1157 -1.52803 0
M  V30 7662 O 717.86 1.70926 -0.673042 0
M  V30 7663 C 717.922 -0.12695 -3.59276 0
M  V30 7664 C 717.586 -1.41725 -4.34469 0
M  V30 7665 C 718.583 -2.35604 -4.63451 0
M  V30 7666 C 716.268 -1.67189 -4.73659 0
M  V30 7667 C 718.262 -3.53204 -5.3059 0
M  V30 7668 C 715.949 -2.85073 -5.40534 0
M  V30 7669 C 716.947 -3.77904 -5.68927 0
M  V30 7670 O 716.635 -4.93723 -6.34424 0
M  V30 7671 H 716.367 -0.109247 -0.667114 0
M  V30 7672 H 718.921 -0.954538 -1.81873 0
M  V30 7673 H 717.151 0.641571 -3.81341 0
M  V30 7674 H 718.84 0.294748 -4.04828 0
M  V30 7675 H 719.606 -2.1719 -4.33651 0
M  V30 7676 H 715.485 -0.957935 -4.50937 0
M  V30 7677 H 719.029 -4.25679 -5.52669 0
M  V30 7678 H 714.926 -3.03402 -5.69752 0
M  V30 7679 H 715.694 -4.93597 -6.5292 0
M  V30 7680 N 718.357 1.51182 -0.445186 0
M  V30 7681 C 719.603 2.02452 0.11882 0
M  V30 7682 C 719.936 1.32824 1.41673 0
M  V30 7683 O 719.211 0.445637 1.89326 0
M  V30 7684 C 719.494 3.5859 0.329475 0
M  V30 7685 C 719.347 4.38823 -0.987638 0
M  V30 7686 C 720.666 4.26241 1.09575 0
M  V30 7687 H 717.785 0.735819 0.0417092 0
M  V30 7688 H 720.427 1.80747 -0.585718 0
M  V30 7689 H 718.577 3.77214 0.9296 0
M  V30 7690 H 720.249 4.3183 -1.62235 0
M  V30 7691 H 718.492 4.03594 -1.59041 0
M  V30 7692 H 719.163 5.46257 -0.794192 0
M  V30 7693 H 721.639 4.11934 0.587328 0
M  V30 7694 H 720.515 5.35354 1.21191 0
M  V30 7695 H 720.776 3.87635 2.12584 0
M  V30 7696 N 719.835 0.176821 1.56605 0
M  V30 7697 C 721.112 -0.513365 1.88743 0
M  V30 7698 C 721.492 -1.80929 1.08757 0
M  V30 7699 O 720.84 -2.27765 0.183127 0
M  V30 7700 C 721.05 -0.749925 3.40848 0
M  V30 7701 C 722.398 -1.07747 4.10701 0
M  V30 7702 O 723.422 -0.838277 3.46196 0
M  V30 7703 O 722.281 -1.52901 5.24675 0
M  V30 7704 H 719.375 -0.265296 0.783292 0
M  V30 7705 H 721.921 0.215669 1.68324 0
M  V30 7706 H 720.693 0.16599 3.90948 0
M  V30 7707 H 720.316 -1.53208 3.66897 0
M  V30 7708 N 721.313 -1.57302 -0.09688 0
M  V30 7709 C 722.724 -1.7496 -0.651595 0
M  V30 7710 C 723.075 -0.798746 -1.79205 0
M  V30 7711 O 722.2 0.0231858 -2.16388 0
M  V30 7712 C 722.795 -3.17259 -1.18878 0
M  V30 7713 C 721.354 -3.36348 -1.68958 0
M  V30 7714 C 720.501 -2.70766 -0.598413 0
M  V30 7715 H 723.452 -1.58173 0.12918 0
M  V30 7716 H 723.473 -3.20033 -2.05814 0
M  V30 7717 H 722.985 -3.8644 -0.358523 0
M  V30 7718 H 721.086 -2.72243 -2.5439 0
M  V30 7719 H 721.199 -4.44654 -1.7838 0
M  V30 7720 H 719.563 -2.32615 -1.03743 0
M  V30 7721 H 720.346 -3.42586 0.221238 0
M  V30 7722 N 722.791 0.367657 -1.53252 0
M  V30 7723 C 724.037 1.11216 -1.69584 0
M  V30 7724 C 724.37 1.89026 -0.445269 0
M  V30 7725 O 723.645 1.86342 0.557404 0
M  V30 7726 C 723.928 2.07308 -2.94441 0
M  V30 7727 C 723.781 1.3312 -4.2965 0
M  V30 7728 C 725.1 3.07459 -3.14892 0
M  V30 7729 H 722.219 0.40294 -0.617096 0
M  V30 7730 H 724.861 0.393201 -1.85887 0
M  V30 7731 H 723.011 2.68617 -2.80673 0
M  V30 7732 H 724.683 0.746111 -4.55226 0
M  V30 7733 H 722.926 0.633051 -4.29156 0
M  V30 7734 H 723.597 2.03443 -5.13142 0
M  V30 7735 H 726.073 2.56252 -3.27832 0
M  V30 7736 H 724.949 3.71919 -4.03693 0
M  V30 7737 H 725.21 3.77514 -2.30077 0
M  V30 7738 N 724.269 1.44576 0.627338 0
M  V30 7739 C 725.217 1.52039 1.76031 0
M  V30 7740 C 726.211 0.391796 1.64807 0
M  V30 7741 O 727.417 0.5669 1.7084 0
M  V30 7742 H 723.792 0.477165 0.581221 0
M  V30 7743 H 725.763 2.47387 1.6686 0
M  V30 7744 C 724.512 1.48539 3.14375 0
M  V30 7745 H 723.835 2.34699 3.23661 0
M  V30 7746 H 725.275 1.57821 3.93534 0
M  V30 7747 C 723.734 0.20672 3.36265 0
M  V30 7748 O 724.264 -0.72154 3.95167 0
M  V30 7749 N 722.47 0.108654 2.90397 0
M  V30 7750 H 722.017 0.864884 2.42647 0
M  V30 7751 H 721.975 -0.746121 3.05418 0
M  V30 7752 N 725.747 -0.868086 1.31537 0
M  V30 7753 C 726.694 -1.97548 1.19346 0
M  V30 7754 C 727.664 -1.65913 0.0787922 0
M  V30 7755 O 728.849 -1.89129 0.251985 0
M  V30 7756 C 725.989 -3.32922 0.908692 0
M  V30 7757 C 725.102 -3.77141 2.10687 0
M  V30 7758 C 724.237 -5.01241 1.75873 0
M  V30 7759 C 723.276 -5.37914 2.92088 0
M  V30 7760 N 722.413 -6.53192 2.57457 0
M  V30 7761 H 727.253 -2.07307 2.14074 0
M  V30 7762 H 724.79 -1.01483 1.06487 0
M  V30 7763 H 726.748 -4.10867 0.724138 0
M  V30 7764 H 725.378 -3.228 -0.0017611 0
M  V30 7765 H 724.43 -2.94961 2.40213 0
M  V30 7766 H 725.742 -4.00248 2.97663 0
M  V30 7767 H 724.896 -5.86858 1.53891 0
M  V30 7768 H 723.635 -4.80041 0.86091 0
M  V30 7769 H 722.64 -4.50814 3.14717 0
M  V30 7770 H 723.865 -5.61077 3.82582 0
M  V30 7771 H 721.811 -6.33536 1.702 0
M  V30 7772 H 721.728 -6.76252 3.37963 0
M  V30 7773 H 722.996 -7.41997 2.38873 0
M  V30 7774 N 727.225 -1.14528 -1.08264 0
M  V30 7775 C 728.471 -0.91576 -1.80947 0
M  V30 7776 C 728.804 0.55623 -1.86064 0
M  V30 7777 O 728.079 1.41207 -1.33756 0
M  V30 7778 C 728.362 -1.51917 -3.26486 0
M  V30 7779 C 728.215 -3.06111 -3.2957 0
M  V30 7780 C 729.534 -1.19724 -4.23502 0
M  V30 7781 H 726.653 -0.334113 -0.656915 0
M  V30 7782 H 729.295 -1.41547 -1.26746 0
M  V30 7783 H 727.445 -1.0942 -3.72773 0
M  V30 7784 H 729.117 -3.57448 -2.91597 0
M  V30 7785 H 727.36 -3.40483 -2.688 0
M  V30 7786 H 728.031 -3.43438 -4.32151 0
M  V30 7787 H 730.507 -1.56467 -3.85561 0
M  V30 7788 H 729.383 -1.64575 -5.23647 0
M  V30 7789 H 729.644 -0.112771 -4.41956 0
M  V30 7790 N 728.703 1.26451 -0.940633 0
M  V30 7791 C 729.633 2.28773 -0.467479 0
M  V30 7792 C 730.614 1.63218 0.478955 0
M  V30 7793 O 731.799 1.90427 0.380929 0
M  V30 7794 C 728.929 3.46259 0.268656 0
M  V30 7795 C 727.883 4.23898 -0.591171 0
M  V30 7796 C 727.209 5.33993 0.274891 0
M  V30 7797 C 728.509 4.87974 -1.86223 0
M  V30 7798 H 730.203 2.68601 -1.32265 0
M  V30 7799 H 727.749 1.29123 -0.637436 0
M  V30 7800 H 729.702 4.16951 0.610696 0
M  V30 7801 H 728.426 3.05383 1.15796 0
M  V30 7802 H 727.085 3.54969 -0.916098 0
M  V30 7803 H 726.733 4.89358 1.16353 0
M  V30 7804 H 726.433 5.86849 -0.297006 0
M  V30 7805 H 727.957 6.07523 0.612213 0
M  V30 7806 H 729.371 5.50883 -1.58747 0
M  V30 7807 H 727.768 5.50945 -2.37866 0
M  V30 7808 H 728.838 4.10945 -2.57394 0
M  V30 7809 N 730.181 0.707592 1.40822 0
M  V30 7810 C 731.128 0.0499029 2.30746 0
M  V30 7811 C 732.098 -0.758718 1.47759 0
M  V30 7812 O 733.283 -0.724299 1.76518 0
M  V30 7813 C 730.423 -0.871756 3.33908 0
M  V30 7814 C 729.536 -0.0534655 4.31967 0
M  V30 7815 C 728.671 -0.973869 5.22197 0
M  V30 7816 C 727.71 -0.149194 6.11918 0
M  V30 7817 N 726.847 -1.02404 6.94592 0
M  V30 7818 H 731.687 0.822461 2.86426 0
M  V30 7819 H 729.224 0.417285 1.41057 0
M  V30 7820 H 731.182 -1.42028 3.9228 0
M  V30 7821 H 729.812 -1.61058 2.7975 0
M  V30 7822 H 728.864 0.612142 3.75442 0
M  V30 7823 H 730.176 0.585354 4.95353 0
M  V30 7824 H 729.33 -1.59121 5.85462 0
M  V30 7825 H 728.069 -1.64652 4.59065 0
M  V30 7826 H 727.074 0.481137 5.47691 0
M  V30 7827 H 728.299 0.519841 6.77107 0
M  V30 7828 H 726.245 -1.6825 6.34057 0
M  V30 7829 H 726.162 -0.441076 7.54712 0
M  V30 7830 H 727.43 -1.62782 7.62314 0
M  V30 7831 N 731.66 -1.50943 0.453197 0
M  V30 7832 C 732.908 -2.01813 -0.107709 0
M  V30 7833 C 733.229 -1.33841 -1.41816 0
M  V30 7834 O 732.499 -0.477973 -1.8998 0
M  V30 7835 H 731.079 -0.745773 -0.0427948 0
M  V30 7836 H 733.741 -1.8545 0.599531 0
M  V30 7837 H 732.837 -3.10911 -0.27218 0
M  V30 7838 N 733.138 -0.185124 -1.56509 0
M  V30 7839 C 734.048 0.751908 -2.22224 0
M  V30 7840 C 735.064 1.24244 -1.21817 0
M  V30 7841 O 736.24 1.29169 -1.54523 0
M  V30 7842 C 733.305 1.95837 -2.86092 0
M  V30 7843 C 732.366 1.51337 -4.01741 0
M  V30 7844 C 731.599 2.66233 -4.62554 0
M  V30 7845 O 731.822 3.8346 -4.22273 0
M  V30 7846 O 730.756 2.39517 -5.52191 0
M  V30 7847 H 734.582 0.222304 -3.02885 0
M  V30 7848 H 732.167 0.0437141 -1.49336 0
M  V30 7849 H 734.049 2.66368 -3.26536 0
M  V30 7850 H 732.724 2.47677 -2.08417 0
M  V30 7851 H 731.631 0.777155 -3.65939 0
M  V30 7852 H 732.964 1.04175 -4.81049 0
M  V30 7853 N 734.616 1.57351 0.0885366 0
M  V30 7854 C 735.865 1.85604 0.789556 0
M  V30 7855 C 736.178 0.775352 1.79576 0
M  V30 7856 O 737.384 0.945206 2.54515 0
M  V30 7857 C 735.84 3.29175 1.45506 0
M  V30 7858 C 735.448 4.45331 0.488278 0
M  V30 7859 C 737.192 3.66646 2.13942 0
M  V30 7860 C 735.099 5.79937 1.15874 0
M  V30 7861 H 734.029 0.692346 0.298619 0
M  V30 7862 H 736.68 1.83451 0.0425821 0
M  V30 7863 H 735.062 3.25889 2.24972 0
M  V30 7864 H 736.236 4.59977 -0.275359 0
M  V30 7865 H 734.551 4.16301 -0.0907363 0
M  V30 7866 H 737.148 4.64498 2.6485 0
M  V30 7867 H 737.491 2.956 2.93132 0
M  V30 7868 H 738.024 3.71848 1.41328 0
M  V30 7869 H 734.763 6.54232 0.407508 0
M  V30 7870 H 734.283 5.69123 1.89364 0
M  V30 7871 H 735.962 6.24718 1.68336 0
M  V30 7872 N 736.094 -0.359525 1.53444 0
M  V30 7873 C 737.505 -0.936009 1.61542 0
M  V30 7874 C 737.856 -1.90069 0.486633 0
M  V30 7875 O 736.981 -2.12929 -0.386047 0
M  V30 7876 C 737.576 -1.70441 2.92806 0
M  V30 7877 C 736.135 -2.23015 3.03218 0
M  V30 7878 C 735.282 -1.04438 2.56881 0
M  V30 7879 H 738.233 -0.138134 1.58098 0
M  V30 7880 H 738.254 -2.56609 2.80948 0
M  V30 7881 H 737.766 -1.00205 3.74941 0
M  V30 7882 H 735.867 -2.96475 2.25684 0
M  V30 7883 H 735.98 -2.50481 4.08407 0
M  V30 7884 H 734.344 -1.41314 2.11902 0
M  V30 7885 H 735.127 -0.356905 3.4144 0
M  V30 7886 N 737.572 -1.44907 -0.619662 0
M  V30 7887 C 738.818 -1.49504 -1.37914 0
M  V30 7888 C 739.173 -0.130158 -1.91959 0
M  V30 7889 O 738.466 0.856263 -1.71402 0
M  V30 7890 C 738.66 -2.50002 -2.55409 0
M  V30 7891 C 738.489 -3.96128 -2.12867 0
M  V30 7892 C 737.259 -4.64204 -1.99606 0
M  V30 7893 C 739.457 -4.85014 -1.71074 0
M  V30 7894 N 737.439 -5.95104 -1.50748 0
M  V30 7895 C 738.81 -6.05447 -1.33544 0
M  V30 7896 C 740.865 -4.71979 -1.58557 0
M  V30 7897 C 739.568 -7.1429 -0.847484 0
M  V30 7898 C 741.594 -5.80858 -1.11165 0
M  V30 7899 C 740.956 -7.00439 -0.745932 0
M  V30 7900 H 737.055 -0.60207 -0.499034 0
M  V30 7901 H 739.639 -1.81305 -0.70968 0
M  V30 7902 H 737.81 -2.20172 -3.19967 0
M  V30 7903 H 739.542 -2.44823 -3.22248 0
M  V30 7904 H 736.297 -4.19182 -2.20417 0
M  V30 7905 H 736.721 -6.64676 -1.28585 0
M  V30 7906 H 741.363 -3.79953 -1.85461 0
M  V30 7907 H 739.081 -8.06116 -0.565974 0
M  V30 7908 H 742.667 -5.72803 -1.01923 0
M  V30 7909 H 741.547 -7.83255 -0.384848 0
M  V30 7910 N 739.05 0.861098 -1.31996 0
M  V30 7911 C 740.275 1.65264 -1.2531 0
M  V30 7912 C 740.7 1.87265 0.177007 0
M  V30 7913 O 740.058 1.4208 1.12619 0
M  V30 7914 C 740.106 2.99284 -2.0115 0
M  V30 7915 O 739.21 3.89508 -1.3549 0
M  V30 7916 H 738.551 0.50409 -0.432192 0
M  V30 7917 H 741.081 1.07297 -1.74208 0
M  V30 7918 H 741.091 3.49154 -2.11081 0
M  V30 7919 H 739.766 2.82591 -3.05148 0
M  V30 7920 H 738.343 3.47966 -1.34066 0
M  V30 7921 N 740.528 1.15101 1.07655 0
M  V30 7922 C 741.46 0.802722 2.14684 0
M  V30 7923 C 742.473 -0.183874 1.61758 0
M  V30 7924 O 743.662 0.0389349 1.78458 0
M  V30 7925 C 740.762 0.172135 3.38463 0
M  V30 7926 C 739.935 1.19538 4.20749 0
M  V30 7927 C 738.994 0.58714 5.22914 0
M  V30 7928 O 738.02 1.25224 5.55255 0
M  V30 7929 N 739.222 -0.632566 5.77043 0
M  V30 7930 H 741.987 1.72379 2.45164 0
M  V30 7931 H 739.548 1.04647 1.23534 0
M  V30 7932 H 741.54 -0.247465 4.03943 0
M  V30 7933 H 740.11 -0.652214 3.0572 0
M  V30 7934 H 739.33 1.79165 3.51132 0
M  V30 7935 H 740.618 1.88636 4.7254 0
M  V30 7936 H 740.016 -1.19135 5.53013 0
M  V30 7937 H 738.573 -0.994566 6.44167 0
M  V30 7938 N 742.006 -1.2595 0.947325 0
M  V30 7939 C 742.916 -2.29883 0.468079 0
M  V30 7940 C 743.932 -1.67783 -0.460975 0
M  V30 7941 O 745.108 -1.98526 -0.339006 0
M  V30 7942 C 742.173 -3.45773 -0.253315 0
M  V30 7943 C 741.234 -4.23337 0.713054 0
M  V30 7944 C 740.467 -5.33694 0.025993 0
M  V30 7945 O 740.69 -5.57853 -1.18978 0
M  V30 7946 O 739.624 -5.97724 0.70782 0
M  V30 7947 H 743.45 -2.72952 1.33156 0
M  V30 7948 H 741.035 -1.31263 0.713468 0
M  V30 7949 H 742.917 -4.16209 -0.659423 0
M  V30 7950 H 741.592 -3.04721 -1.09209 0
M  V30 7951 H 740.499 -3.55359 1.16923 0
M  V30 7952 H 741.832 -4.68154 1.51963 0
M  V30 7953 N 743.484 -0.715051 -1.40445 0
M  V30 7954 C 744.414 -0.0768699 -2.33373 0
M  V30 7955 C 745.395 0.746109 -1.52863 0
M  V30 7956 O 746.58 0.695142 -1.81332 0
M  V30 7957 C 743.71 0.846014 -3.36838 0
M  V30 7958 C 742.664 0.128694 -4.27806 0
M  V30 7959 C 741.99 1.16726 -5.21804 0
M  V30 7960 C 743.29 -1.01679 -5.12307 0
M  V30 7961 H 744.984 -0.853061 -2.8699 0
M  V30 7962 H 742.53 -0.41167 -1.3799 0
M  V30 7963 H 744.483 1.30185 -4.00786 0
M  V30 7964 H 743.207 1.6541 -2.81615 0
M  V30 7965 H 741.866 -0.307314 -3.6531 0
M  V30 7966 H 741.514 1.96838 -4.62887 0
M  V30 7967 H 741.214 0.692188 -5.83509 0
M  V30 7968 H 742.738 1.62321 -5.88629 0
M  V30 7969 H 744.152 -0.640337 -5.69713 0
M  V30 7970 H 742.549 -1.4202 -5.83053 0
M  V30 7971 H 743.619 -1.84769 -4.48317 0
M  V30 7972 N 744.962 1.50701 -0.461195 0
M  V30 7973 C 746.378 1.59187 -0.114786 0
M  V30 7974 C 746.578 1.4702 1.37794 0
M  V30 7975 O 745.634 1.32361 2.15027 0
M  V30 7976 C 746.947 2.93453 -0.656167 0
M  V30 7977 C 748.495 3.06824 -0.618715 0
M  V30 7978 C 748.97 4.4365 -1.13747 0
M  V30 7979 N 750.461 4.50035 -1.09646 0
M  V30 7980 C 751.196 5.54278 -1.46846 0
M  V30 7981 N 750.692 6.65822 -1.91448 0
M  V30 7982 N 752.485 5.44767 -1.38512 0
M  V30 7983 H 744.636 1.56853 -1.43216 0
M  V30 7984 H 746.899 0.740712 -0.59165 0
M  V30 7985 H 746.605 3.07802 -1.7015 0
M  V30 7986 H 746.479 3.77082 -0.0942261 0
M  V30 7987 H 748.866 2.92129 0.417685 0
M  V30 7988 H 748.947 2.24976 -1.21734 0
M  V30 7989 H 748.591 4.59093 -2.17245 0
M  V30 7990 H 748.521 5.24074 -0.515153 0
M  V30 7991 H 751.012 3.69988 -0.769217 0
M  V30 7992 H 751.325 7.41413 -2.18007 0
M  V30 7993 H 749.67 6.66968 -1.95393 0
M  V30 7994 H 752.861 4.56511 -1.03516 0
M  V30 7995 H 753.034 6.25889 -1.6783 0
M  V30 7996 N 746.441 0.193421 1.56409 0
M  V30 7997 C 747.852 -0.319471 1.83946 0
M  V30 7998 C 748.203 -1.61505 1.11403 0
M  V30 7999 O 747.328 -2.13139 0.374289 0
M  V30 8000 C 747.923 -0.586411 3.33686 0
M  V30 8001 C 746.482 -1.04368 3.61641 0
M  V30 8002 C 745.629 -0.0913834 2.77149 0
M  V30 8003 H 748.58 0.417242 1.53117 0
M  V30 8004 H 748.601 -1.43591 3.52366 0
M  V30 8005 H 748.113 0.356701 3.86457 0
M  V30 8006 H 746.214 -2.00113 3.14302 0
M  V30 8007 H 746.327 -0.937549 4.69837 0
M  V30 8008 H 744.691 -0.592954 2.47702 0
M  V30 8009 H 745.474 0.846142 3.32709 0
M  V30 8010 N 747.919 -1.57396 -0.0801906 0
M  V30 8011 C 748.829 -2.06451 -1.11423 0
M  V30 8012 C 749.845 -0.992352 -1.42928 0
M  V30 8013 O 751.021 -1.30651 -1.53272 0
M  V30 8014 C 748.086 -2.49164 -2.41077 0
M  V30 8015 C 747.147 -3.70641 -2.16619 0
M  V30 8016 C 746.38 -4.11307 -3.40092 0
M  V30 8017 O 746.603 -3.51922 -4.48895 0
M  V30 8018 O 745.537 -5.04157 -3.288 0
M  V30 8019 H 749.363 -2.94857 -0.727519 0
M  V30 8020 H 746.948 -1.46484 -0.293743 0
M  V30 8021 H 748.83 -2.77196 -3.17396 0
M  V30 8022 H 747.505 -1.6389 -2.79145 0
M  V30 8023 H 746.412 -3.47703 -1.38033 0
M  V30 8024 H 747.745 -4.5674 -1.83437 0
M  V30 8025 N 749.397 0.351382 -1.53633 0
M  V30 8026 C 750.36 1.41403 -1.80383 0
M  V30 8027 C 751.36 1.45963 -0.674635 0
M  V30 8028 O 752.55 1.46476 -0.942895 0
M  V30 8029 C 749.682 2.80401 -1.93876 0
M  V30 8030 H 750.875 1.18951 -2.75301 0
M  V30 8031 H 748.428 0.58533 -1.44926 0
M  V30 8032 H 749.163 3.08147 -1.01074 0
M  V30 8033 H 748.948 2.78488 -2.7602 0
M  V30 8034 H 750.438 3.57329 -2.16116 0
M  V30 8035 N 750.875 1.45233 0.611969 0
M  V30 8036 C 751.822 1.5357 1.72293 0
M  V30 8037 C 752.792 0.381912 1.6165 0
M  V30 8038 O 753.977 0.594765 1.81293 0
M  V30 8039 C 751.117 1.50419 3.10593 0
M  V30 8040 C 750.23 2.76316 3.32074 0
M  V30 8041 C 749.365 2.64866 4.60456 0
M  V30 8042 C 748.404 3.85838 4.7518 0
M  V30 8043 N 747.541 3.72949 5.94856 0
M  V30 8044 H 752.381 2.4848 1.64504 0
M  V30 8045 H 749.918 1.23302 0.802191 0
M  V30 8046 H 751.876 1.4658 3.90602 0
M  V30 8047 H 750.506 0.590621 3.17351 0
M  V30 8048 H 749.558 2.90261 2.45872 0
M  V30 8049 H 750.87 3.66055 3.38829 0
M  V30 8050 H 750.024 2.58969 5.48653 0
M  V30 8051 H 748.763 1.72719 4.56092 0
M  V30 8052 H 747.768 3.92099 3.85407 0
M  V30 8053 H 748.993 4.79045 4.81344 0
M  V30 8054 H 746.939 2.83567 5.91545 0
M  V30 8055 H 746.856 4.56319 6.02751 0
M  V30 8056 H 748.124 3.70976 6.85563 0
M  V30 8057 N 752.353 -0.854086 1.3245 0
M  V30 8058 C 753.301 -1.98411 1.21391 0
M  V30 8059 C 754.295 -1.68984 0.118586 0
M  V30 8060 O 755.501 -1.77784 0.281549 0
M  V30 8061 H 751.876 -0.651077 0.376301 0
M  V30 8062 H 753.847 -2.04867 2.16961 0
M  V30 8063 C 752.596 -3.34345 0.954407 0
M  V30 8064 H 751.919 -3.57518 1.78944 0
M  V30 8065 H 753.359 -4.13959 0.917269 0
M  V30 8066 C 751.818 -3.35151 -0.342838 0
M  V30 8067 O 752.348 -3.78174 -1.35452 0
M  V30 8068 N 750.554 -2.88298 -0.365012 0
M  V30 8069 H 750.101 -2.53481 0.4588 0
M  V30 8070 H 750.059 -2.8922 -1.23284 0
M  V30 8071 N 753.831 -1.1567 -1.07043 0
M  V30 8072 C 755.078 -0.933517 -1.79699 0
M  V30 8073 C 755.406 0.539162 -1.86878 0
M  V30 8074 O 754.661 1.41592 -1.35093 0
M  V30 8075 C 754.96 -1.49677 -3.24548 0
M  V30 8076 C 754.626 -2.99047 -3.37463 0
M  V30 8077 C 753.288 -3.39824 -3.40695 0
M  V30 8078 C 755.64 -3.95027 -3.40004 0
M  V30 8079 C 752.968 -4.75215 -3.44075 0
M  V30 8080 C 755.32 -5.30295 -3.44921 0
M  V30 8081 C 753.984 -5.70562 -3.46432 0
M  V30 8082 H 753.254 -0.341598 -0.657565 0
M  V30 8083 H 755.901 -1.44263 -1.25938 0
M  V30 8084 H 754.206 -0.908915 -3.81111 0
M  V30 8085 H 755.903 -1.29986 -3.79348 0
M  V30 8086 H 752.493 -2.6653 -3.35648 0
M  V30 8087 H 756.677 -3.64596 -3.36725 0
M  V30 8088 H 751.933 -5.05754 -3.43545 0
M  V30 8089 H 756.107 -6.0446 -3.45833 0
M  V30 8090 H 753.734 -6.75456 -3.48803 0
M  V30 8091 N 755.309 1.25446 -0.953992 0
M  V30 8092 C 756.256 2.25912 -0.472485 0
M  V30 8093 C 757.226 1.59173 0.47469 0
M  V30 8094 O 758.411 1.86812 0.388082 0
M  V30 8095 C 755.551 3.44235 0.244218 0
M  V30 8096 C 754.664 4.25613 -0.740121 0
M  V30 8097 C 753.799 5.312 -0.000922267 0
M  V30 8098 C 752.838 6.04265 -0.976236 0
M  V30 8099 N 751.975 7.01589 -0.267952 0
M  V30 8100 H 756.815 2.66469 -1.3341 0
M  V30 8101 H 754.352 1.31005 -0.669045 0
M  V30 8102 H 756.31 4.11682 0.676314 0
M  V30 8103 H 754.94 3.04554 1.06988 0
M  V30 8104 H 753.992 3.57834 -1.2907 0
M  V30 8105 H 755.304 4.762 -1.48441 0
M  V30 8106 H 754.458 6.04719 0.48984 0
M  V30 8107 H 753.197 4.81484 0.776159 0
M  V30 8108 H 752.202 5.29561 -1.478 0
M  V30 8109 H 753.427 6.5607 -1.75354 0
M  V30 8110 H 751.373 6.54164 0.490403 0
M  V30 8111 H 751.29 7.4999 -0.951344 0
M  V30 8112 H 752.558 7.7924 0.201294 0
M  V30 8113 N 756.787 0.722489 1.40064 0
M  V30 8114 C 758.015 0.274838 2.05066 0
M  V30 8115 C 758.43 -1.08586 1.54449 0
M  V30 8116 O 757.787 -1.68375 0.704003 0
M  V30 8117 C 757.838 0.253673 3.60609 0
M  V30 8118 O 757.559 1.56064 4.0936 0
M  V30 8119 C 759.06 -0.211684 4.42794 0
M  V30 8120 H 756.28 0.12226 0.659768 0
M  V30 8121 H 758.824 0.982632 1.79345 0
M  V30 8122 H 756.979 -0.405137 3.85276 0
M  V30 8123 H 757.393 1.46576 5.03603 0
M  V30 8124 H 758.867 -0.175341 5.51721 0
M  V30 8125 H 759.344 -1.25493 4.2089 0
M  V30 8126 H 759.95 0.4171 4.2325 0
M  V30 8127 N 758.265 -1.50454 0.469181 0
M  V30 8128 C 759.512 -2.02315 -0.086469 0
M  V30 8129 C 759.84 -1.3513 -1.39893 0
M  V30 8130 O 759.095 -0.465341 -1.90087 0
M  V30 8131 C 759.394 -3.55963 -0.320207 0
M  V30 8132 C 759.06 -4.41615 0.910318 0
M  V30 8133 C 757.722 -4.64743 1.2477 0
M  V30 8134 C 760.074 -4.91661 1.72971 0
M  V30 8135 C 757.402 -5.35161 2.40457 0
M  V30 8136 C 759.754 -5.6335 2.87785 0
M  V30 8137 C 758.418 -5.84732 3.2194 0
M  V30 8138 H 757.688 -0.740324 -0.0316412 0
M  V30 8139 H 760.335 -1.81087 0.622872 0
M  V30 8140 H 758.64 -3.75695 -1.11177 0
M  V30 8141 H 760.337 -3.93653 -0.764071 0
M  V30 8142 H 756.927 -4.23833 0.637467 0
M  V30 8143 H 761.111 -4.73649 1.48224 0
M  V30 8144 H 756.367 -5.49924 2.67196 0
M  V30 8145 H 760.541 -6.0111 3.51624 0
M  V30 8146 H 758.168 -6.39074 4.1169 0
M  V30 8147 N 759.743 -0.201713 -1.56304 0
M  V30 8148 C 760.99 0.435307 -1.97766 0
M  V30 8149 C 761.318 1.61169 -1.0888 0
M  V30 8150 O 760.573 1.95272 -0.12934 0
M  V30 8151 C 760.872 0.931432 -3.45049 0
M  V30 8152 C 760.538 -0.132287 -4.50706 0
M  V30 8153 C 759.2 -0.424552 -4.79323 0
M  V30 8154 C 761.552 -0.852703 -5.14177 0
M  V30 8155 C 758.88 -1.4421 -5.68701 0
M  V30 8156 C 761.232 -1.85944 -6.04655 0
M  V30 8157 C 759.896 -2.15884 -6.31625 0
M  V30 8158 H 759.166 0.15929 -0.723676 0
M  V30 8159 H 761.813 -0.300069 -1.89134 0
M  V30 8160 H 760.118 1.7452 -3.50785 0
M  V30 8161 H 761.815 1.43383 -3.74489 0
M  V30 8162 H 758.405 0.105671 -4.2847 0
M  V30 8163 H 762.589 -0.640139 -4.92154 0
M  V30 8164 H 757.845 -1.6799 -5.87869 0
M  V30 8165 H 762.019 -2.42286 -6.52894 0
M  V30 8166 H 759.646 -2.94875 -7.0068 0
M  V30 8167 N 761.222 1.57436 0.0718424 0
M  V30 8168 C 762.468 1.87525 0.772149 0
M  V30 8169 C 762.801 0.79399 1.77227 0
M  V30 8170 O 762.076 -0.195733 1.93513 0
M  V30 8171 C 762.359 3.28272 1.48018 0
M  V30 8172 C 762.212 4.47052 0.49647 0
M  V30 8173 C 763.531 3.67256 2.42509 0
M  V30 8174 H 760.65 0.682049 0.279245 0
M  V30 8175 H 763.292 1.89967 0.03534 0
M  V30 8176 H 761.442 3.26321 2.10824 0
M  V30 8177 H 763.114 4.61127 -0.126375 0
M  V30 8178 H 761.357 4.33392 -0.188205 0
M  V30 8179 H 762.028 5.42315 1.02949 0
M  V30 8180 H 764.504 3.70301 1.89781 0
M  V30 8181 H 763.38 4.66626 2.89053 0
M  V30 8182 H 763.641 2.97186 3.27312 0
M  V30 8183 N 762.7 -0.34323 1.53817 0
M  V30 8184 C 763.65 -1.42217 1.78208 0
M  V30 8185 C 764.634 -1.4774 0.637304 0
M  V30 8186 O 765.826 -1.52605 0.896705 0
M  V30 8187 C 762.955 -2.79354 1.9954 0
M  V30 8188 C 762.041 -2.78222 3.20084 0
M  V30 8189 N 762.432 -2.46719 4.41547 0
M  V30 8190 C 760.73 -3.09368 3.21259 0
M  V30 8191 C 761.431 -2.53828 5.23399 0
M  V30 8192 N 760.407 -2.89464 4.60121 0
M  V30 8193 H 764.209 -1.16759 2.69712 0
M  V30 8194 H 761.723 -0.551592 1.52746 0
M  V30 8195 H 763.72 -3.57095 2.15148 0
M  V30 8196 H 762.38 -3.05759 1.09278 0
M  V30 8197 H 763.391 -2.19912 4.68891 0
M  V30 8198 H 760.068 -3.40942 2.40966 0
M  V30 8199 H 761.458 -2.32629 6.30344 0
M  V30 8200 N 764.178 -1.45556 -0.604258 0
M  V30 8201 C 765.406 -1.53278 -1.38973 0
M  V30 8202 C 765.821 -0.166509 -1.88064 0
M  V30 8203 O 765.178 0.832519 -1.62405 0
M  V30 8204 C 765.229 -2.51992 -2.59195 0
M  V30 8205 O 764.95 -3.8331 -2.12143 0
M  V30 8206 C 766.451 -2.69445 -3.52015 0
M  V30 8207 H 763.671 -0.519003 -0.425297 0
M  V30 8208 H 766.215 -1.90773 -0.736621 0
M  V30 8209 H 764.37 -2.17561 -3.2054 0
M  V30 8210 H 764.784 -4.3685 -2.90279 0
M  V30 8211 H 766.258 -3.42485 -4.32907 0
M  V30 8212 H 766.735 -1.75596 -4.0257 0
M  V30 8213 H 767.341 -3.04886 -2.9652 0
M  V30 8214 N 765.656 0.84705 -1.32902 0
M  V30 8215 C 767.067 1.41785 -1.21466 0
M  V30 8216 C 767.418 1.95464 0.169767 0
M  V30 8217 O 766.543 1.88157 1.06892 0
M  V30 8218 C 767.138 2.57734 -2.19906 0
M  V30 8219 C 765.697 3.10791 -2.12334 0
M  V30 8220 C 764.844 1.83562 -2.07847 0
M  V30 8221 H 767.795 0.653532 -1.44619 0
M  V30 8222 H 767.816 3.35123 -1.80202 0
M  V30 8223 H 767.328 2.18635 -3.20656 0
M  V30 8224 H 765.429 3.54455 -1.14858 0
M  V30 8225 H 765.542 3.71519 -3.02506 0
M  V30 8226 H 763.906 2.03475 -1.53199 0
M  V30 8227 H 764.689 1.4667 -3.10392 0
M  V30 8228 N 767.134 1.16236 1.06428 0
M  V30 8229 C 768.082 0.863669 2.15971 0
M  V30 8230 C 769.076 -0.166723 1.68578 0
M  V30 8231 O 770.282 -0.0208425 1.79988 0
M  V30 8232 H 766.657 0.261684 0.705 0
M  V30 8233 H 768.628 1.79498 2.38376 0
M  V30 8234 C 767.377 0.379697 3.45621 0
M  V30 8235 H 766.7 1.16399 3.82481 0
M  V30 8236 H 768.14 0.209458 4.23482 0
M  V30 8237 C 766.599 -0.900499 3.24642 0
M  V30 8238 O 767.129 -1.97004 3.50074 0
M  V30 8239 N 765.335 -0.843721 2.78082 0
M  V30 8240 H 764.882 0.0268429 2.57586 0
M  V30 8241 H 764.84 -1.70078 2.64425 0
M  V30 8242 N 768.612 -1.24939 0.960631 0
M  V30 8243 C 770.028 -1.45039 0.666018 0
M  V30 8244 C 770.228 -1.86021 -0.774501 0
M  V30 8245 O 769.284 -1.99392 -1.54916 0
M  V30 8246 C 770.597 -2.51775 1.64408 0
M  V30 8247 C 772.145 -2.6561 1.65592 0
M  V30 8248 C 772.62 -3.75536 2.62177 0
M  V30 8249 N 774.111 -3.82954 2.60577 0
M  V30 8250 C 774.846 -4.67517 3.31987 0
M  V30 8251 N 774.342 -5.56321 4.1289 0
M  V30 8252 N 776.135 -4.61535 3.20845 0
M  V30 8253 H 768.286 -0.96632 1.89145 0
M  V30 8254 H 770.549 -0.486034 0.813926 0
M  V30 8255 H 770.255 -2.28534 2.67329 0
M  V30 8256 H 770.129 -3.49804 1.41128 0
M  V30 8257 H 772.516 -2.88212 0.633846 0
M  V30 8258 H 772.597 -1.67962 1.92931 0
M  V30 8259 H 772.241 -3.53684 3.64514 0
M  V30 8260 H 772.171 -4.72682 2.32119 0
M  V30 8261 H 774.662 -3.19478 2.01847 0
M  V30 8262 H 774.975 -6.17787 4.64283 0
M  V30 8263 H 773.32 -5.5601 4.16987 0
M  V30 8264 H 776.511 -3.91169 2.57108 0
M  V30 8265 H 776.684 -5.27214 3.76762 0
M  V30 8266 N 770.09 -0.729906 -1.39679 0
M  V30 8267 C 771.318 -0.285709 -2.04918 0
M  V30 8268 C 771.733 1.07765 -1.55023 0
M  V30 8269 O 771.09 1.67999 -0.712923 0
M  V30 8270 C 771.141 -0.272793 -3.60469 0
M  V30 8271 O 770.862 -1.58233 -4.08527 0
M  V30 8272 C 772.363 0.188199 -4.429 0
M  V30 8273 H 769.583 -0.125758 -0.65911 0
M  V30 8274 H 772.127 -0.992129 -1.78821 0
M  V30 8275 H 770.282 0.384699 -3.85485 0
M  V30 8276 H 770.696 -1.49245 -5.02818 0
M  V30 8277 H 772.17 0.14608 -5.51807 0
M  V30 8278 H 772.647 1.2326 -4.21549 0
M  V30 8279 H 773.253 -0.439541 -4.23023 0
M  V30 8280 N 771.568 1.50203 -0.477153 0
M  V30 8281 C 772.798 2.0647 0.0731427 0
M  V30 8282 C 773.206 1.3405 1.33518 0
M  V30 8283 O 772.549 0.405164 1.79176 0
M  V30 8284 C 772.611 3.57025 0.421121 0
M  V30 8285 C 772.275 4.50973 -0.739765 0
M  V30 8286 C 773.272 4.939 -1.62353 0
M  V30 8287 C 770.957 4.93581 -0.93181 0
M  V30 8288 C 772.951 5.78149 -2.6837 0
M  V30 8289 C 770.638 5.77612 -1.99519 0
M  V30 8290 C 771.636 6.19798 -2.86949 0
M  V30 8291 O 771.324 7.02152 -3.91456 0
M  V30 8292 H 771.056 0.675969 -0.00648243 0
M  V30 8293 H 773.61 1.94278 -0.66673 0
M  V30 8294 H 771.84 3.67141 1.21426 0
M  V30 8295 H 773.529 3.95632 0.907213 0
M  V30 8296 H 774.295 4.61646 -1.48687 0
M  V30 8297 H 770.174 4.60262 -0.260739 0
M  V30 8298 H 773.718 6.10997 -3.36643 0
M  V30 8299 H 769.615 6.09279 -2.13189 0
M  V30 8300 H 770.383 7.20414 -3.88518 0
M  V30 8301 N 773.046 0.209999 1.56195 0
M  V30 8302 C 774.276 -0.429373 2.02089 0
M  V30 8303 C 774.684 -1.54703 1.0892 0
M  V30 8304 O 774.027 -1.83485 0.0889535 0
M  V30 8305 C 774.089 -1.03266 3.44349 0
M  V30 8306 C 773.753 -0.0518873 4.56971 0
M  V30 8307 C 774.75 0.744249 5.14545 0
M  V30 8308 C 772.435 0.0635185 5.0226 0
M  V30 8309 C 774.429 1.64261 6.15871 0
M  V30 8310 C 772.116 0.965423 6.03426 0
M  V30 8311 C 773.114 1.75352 6.60106 0
M  V30 8312 O 772.802 2.64029 7.59305 0
M  V30 8313 H 772.534 -0.110604 0.66689 0
M  V30 8314 H 775.088 0.320436 2.02885 0
M  V30 8315 H 773.318 -1.83134 3.40586 0
M  V30 8316 H 775.007 -1.57823 3.73961 0
M  V30 8317 H 775.773 0.665476 4.80413 0
M  V30 8318 H 771.652 -0.539762 4.57829 0
M  V30 8319 H 775.196 2.25819 6.60039 0
M  V30 8320 H 771.093 1.04526 6.36981 0
M  V30 8321 H 771.861 2.57974 7.76783 0
M  V30 8322 N 774.524 -1.57472 -0.0634922 0
M  V30 8323 C 775.454 -2.07297 -1.07473 0
M  V30 8324 C 776.435 -0.968162 -1.39859 0
M  V30 8325 O 777.62 -1.24139 -1.49343 0
M  V30 8326 C 774.75 -2.52381 -2.38581 0
M  V30 8327 C 773.704 -3.66813 -2.20526 0
M  V30 8328 C 773.03 -3.97982 -3.57092 0
M  V30 8329 C 774.33 -4.96553 -1.61965 0
M  V30 8330 H 776.024 -2.92033 -0.660092 0
M  V30 8331 H 773.57 -1.40488 -0.316074 0
M  V30 8332 H 775.523 -2.85852 -3.09624 0
M  V30 8333 H 774.247 -1.64684 -2.8204 0
M  V30 8334 H 772.906 -3.33639 -1.51924 0
M  V30 8335 H 772.554 -3.07403 -3.98136 0
M  V30 8336 H 772.254 -4.7504 -3.45848 0
M  V30 8337 H 773.778 -4.33956 -4.29552 0
M  V30 8338 H 775.192 -5.28201 -2.22883 0
M  V30 8339 H 773.589 -5.7799 -1.61394 0
M  V30 8340 H 774.659 -4.81396 -0.581918 0
M  V30 8341 N 776.003 0.335068 -1.53997 0
M  V30 8342 C 776.936 1.43533 -1.77407 0
M  V30 8343 C 777.914 1.5017 -0.623529 0
M  V30 8344 O 779.098 1.67756 -0.85966 0
M  V30 8345 C 776.225 2.81712 -1.88033 0
M  V30 8346 C 775.271 2.92661 -3.10245 0
M  V30 8347 S 776.104 2.58254 -4.69111 0
M  V30 8348 C 777.26 3.98525 -4.82627 0
M  V30 8349 H 777.493 1.2346 -2.70453 0
M  V30 8350 H 775.026 0.531234 -1.44973 0
M  V30 8351 H 776.984 3.61314 -1.9484 0
M  V30 8352 H 775.645 2.99075 -0.959849 0
M  V30 8353 H 774.838 3.93931 -3.14379 0
M  V30 8354 H 774.44 2.21017 -3.01708 0
M  V30 8355 H 776.732 4.93146 -4.64557 0
M  V30 8356 H 777.675 3.9938 -5.84723 0
M  V30 8357 H 778.083 3.86945 -4.11016 0
M  V30 8358 N 777.481 1.45874 0.596531 0
M  V30 8359 C 778.758 1.40942 1.35627 0
M  V30 8360 C 779.138 0.0857066 2.10926 0
M  V30 8361 O 778.486 -0.932544 2.08605 0
M  V30 8362 C 778.696 2.63027 2.29386 0
M  V30 8363 C 780.044 3.08588 2.91649 0
M  V30 8364 O 781.068 2.63478 2.39704 0
M  V30 8365 O 779.927 3.86902 3.85965 0
M  V30 8366 H 777.021 0.559838 0.608696 0
M  V30 8367 H 779.567 1.5802 0.618698 0
M  V30 8368 H 778.339 3.5094 1.7308 0
M  V30 8369 H 777.962 2.48338 3.10506 0
M  V30 8370 N 778.959 -0.83999 1.33349 0
M  V30 8371 C 780.37 -1.41139 1.22216 0
M  V30 8372 C 780.721 -1.95551 -0.159398 0
M  V30 8373 O 779.846 -1.88721 -1.05893 0
M  V30 8374 C 780.441 -2.56564 2.21269 0
M  V30 8375 C 779 -3.09661 2.13979 0
M  V30 8376 C 778.147 -1.82457 2.08818 0
M  V30 8377 H 781.098 -0.645853 1.44964 0
M  V30 8378 H 781.119 -3.34163 1.81976 0
M  V30 8379 H 780.631 -2.16932 3.21811 0
M  V30 8380 H 778.732 -3.53841 1.16736 0
M  V30 8381 H 778.845 -3.6991 3.04472 0
M  V30 8382 H 777.209 -2.0266 1.54276 0
M  V30 8383 H 777.992 -1.45022 3.11165 0
M  V30 8384 N 780.437 -1.16799 -1.0581 0
M  V30 8385 C 781.662 -0.977402 -1.82925 0
M  V30 8386 C 782.087 0.469514 -1.82146 0
M  V30 8387 O 781.445 1.33576 -1.22585 0
M  V30 8388 C 781.493 -1.51543 -3.27211 0
M  V30 8389 O 780.597 -0.725021 -4.05977 0
M  V30 8390 H 779.938 -0.347474 -0.565825 0
M  V30 8391 H 782.468 -1.55151 -1.33376 0
M  V30 8392 H 782.478 -1.53502 -3.78023 0
M  V30 8393 H 781.153 -2.56872 -3.27093 0
M  V30 8394 H 779.73 -0.77634 -3.64729 0
M  V30 8395 N 781.915 1.24427 -0.967243 0
M  V30 8396 C 783.163 1.92107 -0.627638 0
M  V30 8397 C 783.484 1.75991 0.83978 0
M  V30 8398 O 782.754 1.13118 1.59941 0
M  V30 8399 H 781.334 0.710986 -0.229145 0
M  V30 8400 H 783.996 1.51331 -1.22821 0
M  V30 8401 H 783.092 2.99791 -0.867844 0
M  V30 8402 N 783.393 0.737304 1.3929 0
M  V30 8403 C 784.341 0.0879867 2.32434 0
M  V30 8404 C 785.335 -0.723324 1.53181 0
M  V30 8405 O 786.541 -0.624251 1.68829 0
M  V30 8406 H 782.916 0.00965277 0.751938 0
M  V30 8407 H 784.887 0.889915 2.84821 0
M  V30 8408 C 783.636 -0.803384 3.38291 0
M  V30 8409 H 782.959 -0.18849 3.99355 0
M  V30 8410 H 784.399 -1.22528 4.0591 0
M  V30 8411 C 782.858 -1.93872 2.75527 0
M  V30 8412 O 783.388 -3.03154 2.63553 0
M  V30 8413 N 781.594 -1.72883 2.3358 0
M  V30 8414 H 781.141 -0.840005 2.43519 0
M  V30 8415 H 781.099 -2.49021 1.91927 0
M  V30 8416 N 784.871 -1.49948 0.485112 0
M  V30 8417 C 785.834 -2.27351 -0.290546 0
M  V30 8418 C 786.834 -1.32704 -0.908087 0
M  V30 8419 O 788.024 -1.56007 -0.775085 0
M  V30 8420 C 785.156 -3.10135 -1.41524 0
M  V30 8421 H 786.349 -2.97374 0.388454 0
M  V30 8422 H 783.902 -1.54453 0.239586 0
M  V30 8423 H 784.637 -2.44641 -2.12888 0
M  V30 8424 H 784.422 -3.79705 -0.978074 0
M  V30 8425 H 785.912 -3.68638 -1.96204 0
M  V30 8426 N 786.349 -0.21828 -1.56081 0
M  V30 8427 C 787.299 0.706492 -2.16778 0
M  V30 8428 C 788.283 1.15987 -1.11516 0
M  V30 8429 O 789.475 1.11441 -1.37513 0
M  V30 8430 C 786.604 1.91583 -2.8487 0
M  V30 8431 C 785.69 1.48228 -3.97353 0
M  V30 8432 N 786.081 0.761113 -5.00041 0
M  V30 8433 C 784.379 1.76982 -4.09382 0
M  V30 8434 C 785.08 0.540496 -5.79184 0
M  V30 8435 N 784.056 1.09622 -5.32432 0
M  V30 8436 H 787.858 0.147038 -2.93532 0
M  V30 8437 H 785.372 -0.0194049 -1.62388 0
M  V30 8438 H 787.369 2.58906 -3.26762 0
M  V30 8439 H 786.029 2.47979 -2.09611 0
M  V30 8440 H 787.04 0.414141 -5.16241 0
M  V30 8441 H 783.717 2.34721 -3.45271 0
M  V30 8442 H 785.107 -0.0332531 -6.71892 0
M  V30 8443 N 787.827 1.57504 0.0551401 0
M  V30 8444 C 788.774 2.04825 1.06373 0
M  V30 8445 C 789.744 0.932108 1.37481 0
M  V30 8446 O 790.929 1.20093 1.48265 0
M  V30 8447 C 788.069 2.51091 2.36743 0
M  V30 8448 C 787.182 3.76392 2.12021 0
M  V30 8449 C 786.317 4.11373 3.36074 0
M  V30 8450 C 785.356 5.29666 3.0679 0
M  V30 8451 N 784.493 5.60205 4.2322 0
M  V30 8452 H 789.333 2.90753 0.653216 0
M  V30 8453 H 786.87 1.43776 0.310951 0
M  V30 8454 H 788.828 2.75973 3.12881 0
M  V30 8455 H 787.458 1.68118 2.75565 0
M  V30 8456 H 786.51 3.58751 1.26498 0
M  V30 8457 H 787.822 4.62662 1.86401 0
M  V30 8458 H 786.976 4.37245 4.20597 0
M  V30 8459 H 785.715 3.23704 3.64784 0
M  V30 8460 H 784.72 5.03574 2.20664 0
M  V30 8461 H 785.945 6.18968 2.79385 0
M  V30 8462 H 783.891 4.75495 4.5193 0
M  V30 8463 H 783.808 6.40928 4.00933 0
M  V30 8464 H 785.076 5.90637 5.08692 0
M  V30 8465 N 789.305 -0.326896 1.54172 0
M  V30 8466 C 790.551 -1.06304 1.7341 0
M  V30 8467 C 790.906 -1.85791 0.499935 0
M  V30 8468 O 790.199 -1.84753 -0.507625 0
M  V30 8469 C 790.393 -2.0208 2.94785 0
M  V30 8470 C 790.222 -1.32009 4.29888 0
M  V30 8471 C 788.992 -1.05798 4.941 0
M  V30 8472 C 791.19 -0.737721 5.08982 0
M  V30 8473 N 789.172 -0.324836 6.1304 0
M  V30 8474 C 790.543 -0.136006 6.19851 0
M  V30 8475 C 792.598 -0.640206 4.93767 0
M  V30 8476 C 791.301 0.553757 7.17165 0
M  V30 8477 C 793.327 0.0358492 5.91389 0
M  V30 8478 C 792.689 0.626522 7.01608 0
M  V30 8479 H 788.788 -0.372808 0.687414 0
M  V30 8480 H 791.372 -0.34462 1.91626 0
M  V30 8481 H 789.543 -2.71197 2.78041 0
M  V30 8482 H 791.275 -2.68655 3.02666 0
M  V30 8483 H 788.03 -1.34945 4.53968 0
M  V30 8484 H 788.454 0.0274982 6.76994 0
M  V30 8485 H 793.096 -1.0826 4.08705 0
M  V30 8486 H 790.814 1.00799 8.01789 0
M  V30 8487 H 794.4 0.110895 5.81694 0
M  V30 8488 H 793.28 1.14135 7.7585 0
M  V30 8489 N 790.784 -1.46188 -0.588786 0
M  V30 8490 C 792.024 -1.52738 -1.35833 0
M  V30 8491 C 792.388 -0.172403 -1.91224 0
M  V30 8492 O 793.589 -0.112633 -2.68564 0
M  V30 8493 C 791.86 -2.59085 -2.4619 0
M  V30 8494 S 793.419 -2.84997 -3.3365 0
M  V30 8495 H 790.237 -0.539713 -0.462851 0
M  V30 8496 H 792.839 -1.83386 -0.677489 0
M  V30 8497 H 791.543 -3.56177 -2.03878 0
M  V30 8498 H 791.074 -2.3015 -3.19053 0
M  V30 8499 H 793.089 -2.19804 -4.4486 0
M  V30 8500 N 792.262 0.832906 -1.33792 0
M  V30 8501 C 793.678 1.1245 -1.13257 0
M  V30 8502 C 793.878 2.01369 0.0725832 0
M  V30 8503 O 792.934 2.41071 0.751082 0
M  V30 8504 C 794.247 1.78084 -2.42294 0
M  V30 8505 C 795.795 1.90624 -2.48257 0
M  V30 8506 C 796.27 2.59673 -3.77271 0
M  V30 8507 N 797.761 2.67181 -3.78376 0
M  V30 8508 C 798.496 3.21313 -4.74916 0
M  V30 8509 N 797.992 3.76086 -5.81835 0
M  V30 8510 N 799.785 3.19621 -4.62384 0
M  V30 8511 H 791.936 0.241244 -2.11026 0
M  V30 8512 H 794.199 0.169557 -0.932713 0
M  V30 8513 H 793.905 1.20209 -3.30519 0
M  V30 8514 H 793.779 2.78049 -2.5489 0
M  V30 8515 H 796.166 2.4765 -1.60478 0
M  V30 8516 H 796.247 0.89591 -2.39598 0
M  V30 8517 H 795.891 2.03304 -4.65435 0
M  V30 8518 H 795.821 3.61189 -3.8321 0
M  V30 8519 H 798.312 2.28346 -3.01108 0
M  V30 8520 H 798.625 4.15612 -6.51526 0
M  V30 8521 H 796.97 3.74357 -5.85561 0
M  V30 8522 H 800.161 2.76091 -3.7801 0
M  V30 8523 H 800.334 3.61504 -5.37791 0
M  V30 8524 N 793.74 1.17359 1.05189 0
M  V30 8525 C 794.687 0.890325 2.12936 0
M  V30 8526 C 795.657 -0.165779 1.65271 0
M  V30 8527 O 796.842 -0.0285672 1.90779 0
M  V30 8528 C 793.982 0.409793 3.42658 0
M  V30 8529 C 793.095 1.53002 4.03998 0
M  V30 8530 C 792.23 1.00336 5.21638 0
M  V30 8531 C 791.269 2.09903 5.74984 0
M  V30 8532 N 790.406 1.58714 6.83926 0
M  V30 8533 H 795.246 1.81299 2.36505 0
M  V30 8534 H 792.783 0.904249 1.16025 0
M  V30 8535 H 794.741 0.112743 4.17048 0
M  V30 8536 H 793.371 -0.475915 3.19272 0
M  V30 8537 H 792.423 1.9428 3.27047 0
M  V30 8538 H 793.735 2.3564 4.39631 0
M  V30 8539 H 792.889 0.660158 6.03098 0
M  V30 8540 H 791.628 0.14642 4.8748 0
M  V30 8541 H 790.633 2.45081 4.92154 0
M  V30 8542 H 791.858 2.96013 6.1119 0
M  V30 8543 H 789.804 0.752915 6.51665 0
M  V30 8544 H 789.721 2.34959 7.18561 0
M  V30 8545 H 790.989 1.27287 7.69037 0
M  V30 8546 N 795.218 -1.23913 0.973828 0
M  V30 8547 C 796.467 -1.91455 0.63464 0
M  V30 8548 C 796.78 -1.76893 -0.834759 0
M  V30 8549 O 797.986 -2.3918 -1.28473 0
M  V30 8550 C 796.442 -3.43172 1.08447 0
M  V30 8551 C 796.05 -3.66409 2.57776 0
M  V30 8552 C 797.794 -4.1653 0.818721 0
M  V30 8553 C 795.701 -5.11728 2.9646 0
M  V30 8554 H 794.631 -0.716881 0.233661 0
M  V30 8555 H 797.282 -1.40457 1.18085 0
M  V30 8556 H 795.664 -3.93242 0.466524 0
M  V30 8557 H 796.838 -3.26913 3.24753 0
M  V30 8558 H 795.153 -3.06349 2.82027 0
M  V30 8559 H 797.75 -5.23603 1.08367 0
M  V30 8560 H 798.093 -4.15578 -0.245128 0
M  V30 8561 H 798.626 -3.72428 1.39793 0
M  V30 8562 H 795.365 -5.17806 4.01941 0
M  V30 8563 H 794.885 -5.52199 2.34172 0
M  V30 8564 H 796.564 -5.80009 2.86703 0
M  V30 8565 N 796.696 -0.74468 -1.38897 0
M  V30 8566 C 797.628 -0.0713608 -2.29089 0
M  V30 8567 C 798.641 0.693224 -1.47303 0
M  V30 8568 O 799.83 0.535785 -1.70269 0
M  V30 8569 C 796.93 0.923078 -3.26087 0
M  V30 8570 C 796.103 0.217998 -4.36856 0
M  V30 8571 C 795.162 1.12192 -5.14101 0
M  V30 8572 O 794.188 0.595771 -5.66073 0
M  V30 8573 N 795.39 2.45082 -5.26227 0
M  V30 8574 H 798.155 -0.845906 -2.87514 0
M  V30 8575 H 795.716 -0.594712 -1.50581 0
M  V30 8576 H 797.708 1.53061 -3.74639 0
M  V30 8577 H 796.278 1.59876 -2.68623 0
M  V30 8578 H 795.498 -0.570134 -3.90055 0
M  V30 8579 H 796.786 -0.270248 -5.08082 0
M  V30 8580 H 796.184 2.90294 -4.85537 0
M  V30 8581 H 794.741 3.00907 -5.78185 0
M  V30 8582 N 798.174 1.49689 -0.493057 0
M  V30 8583 C 799.084 2.32746 0.294358 0
M  V30 8584 C 800.1 1.44117 0.975003 0
M  V30 8585 O 801.276 1.77149 0.958138 0
M  V30 8586 C 798.341 3.19358 1.34949 0
M  V30 8587 C 797.402 4.2383 0.683122 0
M  V30 8588 C 796.635 5.06303 1.68798 0
M  V30 8589 O 796.858 4.90172 2.91698 0
M  V30 8590 O 795.792 5.88826 1.24768 0
M  V30 8591 H 799.618 3.01247 -0.385254 0
M  V30 8592 H 797.203 1.47216 -0.254519 0
M  V30 8593 H 799.085 3.73037 1.96014 0
M  V30 8594 H 797.76 2.53561 2.01217 0
M  V30 8595 H 796.667 3.74086 0.0329351 0
M  V30 8596 H 798 4.9216 0.0630192 0
M  V30 8597 N 799.652 0.226554 1.55963 0
M  V30 8598 C 800.898 -0.404387 1.98727 0
M  V30 8599 C 801.231 -1.59059 1.11418 0
M  V30 8600 O 800.506 -1.93729 0.172971 0
M  V30 8601 C 800.789 -0.834081 3.50307 0
M  V30 8602 C 800.642 0.356104 4.48388 0
M  V30 8603 C 801.961 -1.68845 4.06423 0
M  V30 8604 H 799.08 -0.145515 0.722492 0
M  V30 8605 H 801.722 0.323791 1.87221 0
M  V30 8606 H 799.872 -1.45454 3.60244 0
M  V30 8607 H 801.544 0.99432 4.50456 0
M  V30 8608 H 799.787 1.0027 4.22053 0
M  V30 8609 H 800.458 0.0124333 5.51999 0
M  V30 8610 H 802.934 -1.16489 3.99461 0
M  V30 8611 H 801.81 -1.958 5.1279 0
M  V30 8612 H 802.071 -2.65347 3.53615 0
M  V30 8613 N 801.13 -1.57531 -0.0467866 0
M  V30 8614 C 802.376 -1.89584 -0.736837 0
M  V30 8615 C 802.731 -0.82317 -1.73901 0
M  V30 8616 O 802.024 0.170098 -1.90843 0
M  V30 8617 C 802.218 -3.26091 -1.46285 0
M  V30 8618 C 802.047 -4.46536 -0.532502 0
M  V30 8619 C 800.817 -5.05046 -0.160109 0
M  V30 8620 C 803.015 -5.13979 0.181555 0
M  V30 8621 N 800.997 -6.09009 0.773349 0
M  V30 8622 C 802.368 -6.12345 0.971297 0
M  V30 8623 C 804.423 -4.9727 0.250382 0
M  V30 8624 C 803.126 -6.95802 1.82351 0
M  V30 8625 C 805.152 -5.81275 1.08965 0
M  V30 8626 C 804.514 -6.79197 1.86737 0
M  V30 8627 H 800.613 -0.742868 -0.244277 0
M  V30 8628 H 803.197 -1.947 0.0025481 0
M  V30 8629 H 801.368 -3.21938 -2.1728 0
M  V30 8630 H 803.1 -3.45715 -2.10389 0
M  V30 8631 H 799.855 -4.70754 -0.518457 0
M  V30 8632 H 800.279 -6.65658 1.23406 0
M  V30 8633 H 804.921 -4.21458 -0.336578 0
M  V30 8634 H 802.639 -7.70971 2.42134 0
M  V30 8635 H 806.225 -5.70397 1.14621 0
M  V30 8636 H 805.105 -7.4307 2.50631 0
M  V30 8637 N 802.608 0.318715 -1.54344 0
M  V30 8638 C 804.024 0.663345 -1.45162 0
M  V30 8639 C 804.224 1.9145 -0.62842 0
M  V30 8640 O 803.28 2.5217 -0.129126 0
M  V30 8641 C 804.593 0.832836 -2.88937 0
M  V30 8642 C 806.141 0.929866 -2.98869 0
M  V30 8643 C 806.616 1.13149 -4.43803 0
M  V30 8644 N 808.107 1.19811 -4.47437 0
M  V30 8645 C 808.842 1.37209 -5.56742 0
M  V30 8646 N 808.338 1.51619 -6.76006 0
M  V30 8647 N 810.131 1.39956 -5.44398 0
M  V30 8648 H 802.282 -0.50357 -2.06344 0
M  V30 8649 H 804.545 -0.163528 -0.933789 0
M  V30 8650 H 804.251 -0.0153519 -3.51697 0
M  V30 8651 H 804.125 1.72721 -3.35332 0
M  V30 8652 H 806.512 1.76855 -2.36233 0
M  V30 8653 H 806.593 0.0118561 -2.55797 0
M  V30 8654 H 806.237 0.297636 -5.07027 0
M  V30 8655 H 806.167 2.06345 -4.84489 0
M  V30 8656 H 808.658 1.101 -3.61506 0
M  V30 8657 H 808.971 1.64599 -7.55067 0
M  V30 8658 H 807.316 1.48708 -6.78904 0
M  V30 8659 H 810.507 1.28298 -4.50175 0
M  V30 8660 H 810.68 1.53172 -6.29637 0
M  V30 8661 N 804.086 1.46499 0.581025 0
M  V30 8662 C 805.018 1.53225 1.70455 0
M  V30 8663 C 806.031 0.420443 1.57277 0
M  V30 8664 O 807.22 0.688888 1.64671 0
M  V30 8665 C 804.32 1.39803 3.08721 0
M  V30 8666 C 803.493 2.65132 3.47884 0
M  V30 8667 C 802.552 2.45886 4.65217 0
M  V30 8668 O 801.578 3.19615 4.70993 0
M  V30 8669 N 802.78 1.5216 5.60203 0
M  V30 8670 H 805.545 2.50098 1.65139 0
M  V30 8671 H 803.106 1.42576 0.76705 0
M  V30 8672 H 805.098 1.24697 3.8501 0
M  V30 8673 H 803.668 0.51104 3.08394 0
M  V30 8674 H 802.888 2.95169 2.61284 0
M  V30 8675 H 804.176 3.48385 3.70817 0
M  V30 8676 H 803.574 0.913646 5.58273 0
M  V30 8677 H 802.131 1.43017 6.35916 0
M  V30 8678 N 805.565 -0.825799 1.34232 0
M  V30 8679 C 806.981 -1.11848 1.13851 0
M  V30 8680 C 807.181 -2.01405 -0.0619031 0
M  V30 8681 O 806.237 -2.41465 -0.738287 0
M  V30 8682 C 807.55 -1.76797 2.43235 0
M  V30 8683 C 809.098 -1.89304 2.49265 0
M  V30 8684 C 809.573 -2.57669 3.78643 0
M  V30 8685 N 811.064 -2.65171 3.79788 0
M  V30 8686 C 811.799 -3.1879 4.76614 0
M  V30 8687 N 811.295 -3.72995 5.83821 0
M  V30 8688 N 813.088 -3.17164 4.64073 0
M  V30 8689 H 805.239 -0.230049 2.11151 0
M  V30 8690 H 807.502 -0.164609 0.9336 0
M  V30 8691 H 807.208 -1.18455 3.31152 0
M  V30 8692 H 807.082 -2.76693 2.56361 0
M  V30 8693 H 809.469 -2.46796 1.6179 0
M  V30 8694 H 809.55 -0.883191 2.4007 0
M  V30 8695 H 809.194 -2.00833 4.66507 0
M  V30 8696 H 809.124 -3.59152 3.8512 0
M  V30 8697 H 811.615 -2.26746 3.02315 0
M  V30 8698 H 811.928 -4.12151 6.53721 0
M  V30 8699 H 810.273 -3.71246 5.87538 0
M  V30 8700 H 813.464 -2.74082 3.79469 0
M  V30 8701 H 813.637 -3.58647 5.397 0
M  V30 8702 N 807.043 -1.17915 -1.04565 0
M  V30 8703 C 808.273 -0.994716 -1.81077 0
M  V30 8704 C 808.681 0.460146 -1.83519 0
M  V30 8705 O 808.024 1.33136 -1.26572 0
M  V30 8706 C 808.086 -1.46698 -3.28207 0
M  V30 8707 C 807.75 -2.94523 -3.49436 0
M  V30 8708 C 808.747 -3.92414 -3.41038 0
M  V30 8709 C 806.432 -3.32841 -3.76194 0
M  V30 8710 C 808.426 -5.2662 -3.59096 0
M  V30 8711 C 806.113 -4.67212 -3.93899 0
M  V30 8712 C 807.111 -5.6391 -3.8535 0
M  V30 8713 O 806.799 -6.95849 -4.02554 0
M  V30 8714 H 806.531 -0.351797 -0.577248 0
M  V30 8715 H 809.085 -1.56772 -1.32709 0
M  V30 8716 H 807.315 -0.837592 -3.7752 0
M  V30 8717 H 809.004 -1.24724 -3.86263 0
M  V30 8718 H 809.77 -3.64157 -3.20336 0
M  V30 8719 H 805.649 -2.58139 -3.81949 0
M  V30 8720 H 809.193 -6.02082 -3.52339 0
M  V30 8721 H 805.09 -4.95172 -4.14095 0
M  V30 8722 H 805.858 -7.02679 -4.19743 0
M  V30 8723 N 808.521 1.23394 -0.980386 0
M  V30 8724 C 809.453 2.24146 -0.478657 0
M  V30 8725 C 810.466 1.57303 0.419492 0
M  V30 8726 O 811.655 1.77094 0.223631 0
M  V30 8727 C 808.755 3.3732 0.326913 0
M  V30 8728 C 807.928 4.33744 -0.56436 0
M  V30 8729 C 806.987 5.25866 0.187358 0
M  V30 8730 O 806.013 5.67626 -0.423019 0
M  V30 8731 N 807.215 5.61492 1.47335 0
M  V30 8732 H 809.98 2.67826 -1.34496 0
M  V30 8733 H 807.541 1.37566 -0.853653 0
M  V30 8734 H 809.533 3.95926 0.838148 0
M  V30 8735 H 808.103 2.92823 1.09422 0
M  V30 8736 H 807.323 3.73641 -1.25642 0
M  V30 8737 H 808.611 4.95123 -1.17177 0
M  V30 8738 H 808.009 5.29514 1.99077 0
M  V30 8739 H 806.566 6.2257 1.93002 0
M  V30 8740 N 809.999 0.752036 1.385 0
M  V30 8741 C 811.224 0.316993 2.04963 0
M  V30 8742 C 811.649 -1.04582 1.56346 0
M  V30 8743 O 811.007 -1.66616 0.714755 0
M  V30 8744 C 811.055 0.347235 3.58924 0
M  V30 8745 O 810.159 -0.659296 4.07096 0
M  V30 8746 H 809.5 0.140652 0.648932 0
M  V30 8747 H 812.03 1.02272 1.77205 0
M  V30 8748 H 812.04 0.19757 4.07521 0
M  V30 8749 H 810.715 1.34157 3.93668 0
M  V30 8750 H 809.292 -0.474371 3.6987 0
M  V30 8751 N 811.477 -1.49425 0.500989 0
M  V30 8752 C 812.427 -2.26061 -0.296698 0
M  V30 8753 C 813.411 -1.30906 -0.935541 0
M  V30 8754 O 814.603 -1.55628 -0.843142 0
M  V30 8755 C 811.732 -3.15189 -1.36055 0
M  V30 8756 C 810.818 -4.17806 -0.727952 0
M  V30 8757 N 811.209 -5.05516 0.169408 0
M  V30 8758 C 809.507 -4.34907 -0.988535 0
M  V30 8759 C 810.208 -5.79267 0.531509 0
M  V30 8760 N 809.184 -5.43507 -0.100564 0
M  V30 8761 H 812.986 -2.91246 0.394103 0
M  V30 8762 H 810.5 -1.59275 0.317065 0
M  V30 8763 H 812.497 -3.68724 -1.94547 0
M  V30 8764 H 811.157 -2.51556 -2.05303 0
M  V30 8765 H 812.168 -5.15075 0.540218 0
M  V30 8766 H 808.845 -3.82481 -1.67376 0
M  V30 8767 H 810.235 -6.59872 1.26564 0
M  V30 8768 N 812.955 -0.234822 -1.55841 0
M  V30 8769 C 814.366 0.270588 -1.84729 0
M  V30 8770 C 814.717 1.58494 -1.15646 0
M  V30 8771 O 813.842 2.12071 -0.430667 0
M  V30 8772 C 814.437 0.497733 -3.35124 0
M  V30 8773 C 812.996 0.947428 -3.64281 0
M  V30 8774 C 812.143 0.01787 -2.77294 0
M  V30 8775 H 815.094 -0.457691 -1.51957 0
M  V30 8776 H 815.115 1.34199 -3.56049 0
M  V30 8777 H 814.627 -0.459037 -3.85376 0
M  V30 8778 H 812.728 1.91709 -3.19497 0
M  V30 8779 H 812.841 0.812651 -4.72158 0
M  V30 8780 H 811.205 0.527071 -2.49187 0
M  V30 8781 H 811.988 -0.934056 -3.30349 0
M  V30 8782 N 814.433 1.57553 0.0384317 0
M  V30 8783 C 815.71 1.79977 0.766002 0
M  V30 8784 C 816.09 0.830625 1.94072 0
M  V30 8785 O 815.438 -0.129243 2.28134 0
M  V30 8786 C 815.648 3.27434 1.20781 0
M  V30 8787 C 816.996 3.92167 1.62758 0
M  V30 8788 O 818.02 3.31527 1.30263 0
M  V30 8789 O 816.879 4.98917 2.23035 0
M  V30 8790 H 813.973 0.739787 0.369654 0
M  V30 8791 H 816.519 1.69693 0.0159312 0
M  V30 8792 H 815.291 3.89558 0.368792 0
M  V30 8793 H 814.914 3.42571 2.01819 0
M  V30 8794 N 815.911 -0.310526 1.54511 0
M  V30 8795 C 816.874 -1.3657 1.84068 0
M  V30 8796 C 817.874 -1.44123 0.713097 0
M  V30 8797 O 819.064 -1.43924 0.981399 0
M  V30 8798 C 816.196 -2.75162 2.01243 0
M  V30 8799 H 817.389 -1.1161 2.78358 0
M  V30 8800 H 814.942 -0.546699 1.46427 0
M  V30 8801 H 815.677 -3.05359 1.09208 0
M  V30 8802 H 815.462 -2.71071 2.83307 0
M  V30 8803 H 816.952 -3.51473 2.25514 0
M  V30 8804 N 817.389 -1.46805 -0.573248 0
M  V30 8805 C 818.352 -1.57655 -1.66366 0
M  V30 8806 C 819.352 -0.452905 -1.5429 0
M  V30 8807 O 820.542 -0.717502 -1.58737 0
M  V30 8808 C 817.674 -1.50584 -3.05839 0
M  V30 8809 H 818.867 -2.54842 -1.581 0
M  V30 8810 H 816.42 -1.34756 -0.791868 0
M  V30 8811 H 817.155 -0.547127 -3.19651 0
M  V30 8812 H 816.94 -2.32118 -3.16012 0
M  V30 8813 H 818.43 -1.61282 -3.85199 0
M  V30 8814 N 818.867 0.818669 -1.34668 0
M  V30 8815 C 820.113 1.57746 -1.27453 0
M  V30 8816 C 820.446 1.93588 0.154077 0
M  V30 8817 O 819.721 1.60371 1.10051 0
M  V30 8818 C 820.004 2.87414 -2.16945 0
M  V30 8819 C 819.857 2.58125 -3.68363 0
M  V30 8820 C 821.176 3.89021 -2.05792 0
M  V30 8821 H 818.295 0.572339 -0.464324 0
M  V30 8822 H 820.937 0.942784 -1.64959 0
M  V30 8823 H 819.087 3.41576 -1.85089 0
M  V30 8824 H 820.759 2.10239 -4.10606 0
M  V30 8825 H 819.002 1.91503 -3.89242 0
M  V30 8826 H 819.673 3.5061 -4.26353 0
M  V30 8827 H 822.149 3.44224 -2.33771 0
M  V30 8828 H 821.025 4.77548 -2.70628 0
M  V30 8829 H 821.286 4.29786 -1.03618 0
M  V30 8830 N 820.346 1.18468 1.03938 0
M  V30 8831 C 821.278 0.870615 2.12021 0
M  V30 8832 C 822.291 -0.132318 1.62261 0
M  V30 8833 O 823.48 0.0956901 1.78243 0
M  V30 8834 C 820.58 0.279727 3.37744 0
M  V30 8835 C 819.753 1.32863 4.16733 0
M  V30 8836 C 818.812 0.753204 5.20781 0
M  V30 8837 O 817.838 1.42825 5.5099 0
M  V30 8838 N 819.04 -0.448664 5.78764 0
M  V30 8839 H 821.805 1.80091 2.39556 0
M  V30 8840 H 819.366 1.08524 1.20142 0
M  V30 8841 H 821.358 -0.118829 4.04526 0
M  V30 8842 H 819.928 -0.554621 3.07641 0
M  V30 8843 H 819.148 1.90245 3.45254 0
M  V30 8844 H 820.436 2.03574 4.66299 0
M  V30 8845 H 819.834 -1.01481 5.56523 0
M  V30 8846 H 818.391 -0.789125 6.47005 0
M  V30 8847 O 821.863 -1.1679 1.11545 0
M  V30 8848 H 822.554 -1.7538 0.822292 0
M  V30 END ATOM
M  V30 BEGIN BOND
M  V30 END BOND
M  V30 END CTAB
M  END
$$$$
