drugbank_target|P51570 Galactokinase (DB04395)
 OpenBabel12092120293D

  0  0  0     0  0            999 V3000
M  V30 BEGIN CTAB
M  V30 COUNTS 5933 5987 0 0 0
M  V30 BEGIN ATOM
M  V30 1 H -0.908 1.98254 -0.117106 0
M  V30 2 N 0 1.576 0 0
M  V30 3 C 0.933 2.03868 1.02534 0
M  V30 4 C 1.911 0.928543 1.3348 0
M  V30 5 O 3.095 1.19667 1.45644 0
M  V30 6 C 0.222 2.43627 2.35294 0
M  V30 7 C -0.732 3.65373 2.2001 0
M  V30 8 S 0.101 5.13292 1.52614 0
M  V30 9 C 1.257 5.56322 2.86805 0
M  V30 10 H 1.49 2.90518 0.631377 0
M  V30 11 H -0.977 1.52953 0.210867 0
M  V30 12 H 0.981 2.67203 3.11629 0
M  V30 13 H -0.358 1.57376 2.7183 0
M  V30 14 H -1.165 3.90944 3.18086 0
M  V30 15 H -1.563 3.418 1.51819 0
M  V30 16 H 0.729 5.58782 3.83104 0
M  V30 17 H 1.672 6.56266 2.65933 0
M  V30 18 H 2.08 4.83886 2.90714 0
M  V30 19 N 1.4781 -0.272755 1.55222 0
M  V30 20 C 2.4411 -1.32041 1.87344 0
M  V30 21 C 3.4411 -1.42342 0.74803 0
M  V30 22 O 4.6311 -1.41488 1.0162 0
M  V30 23 C 1.7631 -2.70173 2.07893 0
M  V30 24 H 2.9561 -1.04789 2.80997 0
M  V30 25 H 0.5091 -0.51083 1.47717 0
M  V30 26 H 1.2441 -3.02605 1.16622 0
M  V30 27 H 1.0291 -2.64082 2.89833 0
M  V30 28 H 2.5191 -3.45869 2.34017 0
M  V30 29 N 2.9562 -1.48159 -0.537278 0
M  V30 30 C 3.9192 -1.61665 -1.62472 0
M  V30 31 C 4.9192 -0.490395 -1.5314 0
M  V30 32 O 6.1092 -0.755998 -1.5694 0
M  V30 33 C 3.2412 -1.57997 -3.02076 0
M  V30 34 H 4.4342 -2.58621 -1.51839 0
M  V30 35 H 1.9872 -1.36647 -0.758771 0
M  V30 36 H 2.7222 -0.624913 -3.18222 0
M  V30 37 H 2.5072 -2.39755 -3.10258 0
M  V30 38 H 3.9972 -1.70627 -3.81151 0
M  V30 39 N 4.4343 0.785586 -1.36625 0
M  V30 40 C 5.3643 1.91259 -1.33949 0
M  V30 41 C 6.3453 1.68795 -0.210325 0
M  V30 42 O 7.5303 1.89854 -0.408561 0
M  V30 43 C 4.6603 3.28339 -1.13186 0
M  V30 44 C 3.6143 3.65335 -2.22967 0
M  V30 45 C 2.9403 5.00806 -1.87342 0
M  V30 46 C 4.2403 3.7352 -3.65075 0
M  V30 47 H 5.9343 1.93755 -2.28253 0
M  V30 48 H 3.4803 0.930788 -1.09874 0
M  V30 49 H 5.4333 4.06804 -1.09948 0
M  V30 50 H 4.1573 3.2624 -0.153332 0
M  V30 51 H 2.8163 2.89169 -2.25337 0
M  V30 52 H 2.4643 4.95233 -0.880545 0
M  V30 53 H 2.1643 5.26529 -2.60846 0
M  V30 54 H 3.6883 5.81687 -1.85667 0
M  V30 55 H 5.1023 4.42168 -3.64911 0
M  V30 56 H 3.4993 4.10731 -4.37516 0
M  V30 57 H 4.5693 2.74527 -3.99703 0
M  V30 58 N 5.9124 1.20967 1.01018 0
M  V30 59 C 7.3284 0.965905 1.27053 0
M  V30 60 C 7.5284 -0.350785 1.98423 0
M  V30 61 O 6.5844 -1.07773 2.28344 0
M  V30 62 C 7.8974 2.15294 2.09926 0
M  V30 63 C 9.4454 2.19463 2.23171 0
M  V30 64 C 9.9204 3.3767 3.09424 0
M  V30 65 N 11.4114 3.37724 3.17012 0
M  V30 66 C 12.1464 4.25837 3.83993 0
M  V30 67 N 11.6424 5.24138 4.53047 0
M  V30 68 N 13.4354 4.1366 3.80581 0
M  V30 69 H 5.5864 2.0565 0.531194 0
M  V30 70 H 7.8494 0.90024 0.297106 0
M  V30 71 H 7.5554 3.10684 1.64828 0
M  V30 72 H 7.4294 2.13923 3.10672 0
M  V30 73 H 9.8164 1.24632 2.6749 0
M  V30 74 H 9.8974 2.2488 1.21912 0
M  V30 75 H 9.5414 4.32791 2.65808 0
M  V30 76 H 9.4714 3.29491 4.10784 0
M  V30 77 H 11.9624 2.6658 2.6785 0
M  V30 78 H 12.2754 5.87684 5.01844 0
M  V30 79 H 10.6204 5.28068 4.5185 0
M  V30 80 H 13.8114 3.36127 3.25785 0
M  V30 81 H 13.9844 4.82538 4.32505 0
M  V30 82 N 7.3905 -1.2043 1.01659 0
M  V30 83 C 8.3225 -2.22626 0.544988 0
M  V30 84 C 9.3355 -1.58479 -0.372609 0
M  V30 85 O 10.5245 -1.77679 -0.170958 0
M  V30 86 C 7.6245 -3.38141 -0.22663 0
M  V30 87 C 6.7975 -4.31877 0.692876 0
M  V30 88 C 5.8565 -5.26191 -0.0311616 0
M  V30 89 O 4.8825 -5.6612 0.591343 0
M  V30 90 N 6.0845 -5.65618 -1.30601 0
M  V30 91 H 8.8495 -2.63716 1.42388 0
M  V30 92 H 6.4105 -1.34971 0.894116 0
M  V30 93 H 8.4025 -3.98239 -0.72024 0
M  V30 94 H 6.9725 -2.95943 -1.00681 0
M  V30 95 H 6.1925 -3.69746 1.36679 0
M  V30 96 H 7.4805 -4.91426 1.31824 0
M  V30 97 H 6.8785 -5.3519 -1.83269 0
M  V30 98 H 5.4355 -6.28025 -1.74435 0
M  V30 99 N 8.8686 -0.792821 -1.36206 0
M  V30 100 C 10.2796 -0.429513 -1.81692 0
M  V30 101 C 10.6306 1.04695 -1.65932 0
M  V30 102 O 9.7556 1.81256 -1.18218 0
M  V30 103 C 10.3506 -0.772831 -3.29868 0
M  V30 104 C 8.9096 -0.462307 -3.7355 0
M  V30 105 C 8.0566 -1.00569 -2.5842 0
M  V30 106 H 11.0076 -0.985672 -1.24379 0
M  V30 107 H 11.0286 -0.0651928 -3.80444 0
M  V30 108 H 10.5406 -1.84747 -3.41307 0
M  V30 109 H 8.6416 0.604158 -3.67669 0
M  V30 110 H 8.7546 -0.985299 -4.68859 0
M  V30 111 H 7.1186 -0.428734 -2.51066 0
M  V30 112 H 7.9016 -2.08616 -2.72643 0
M  V30 113 N 10.3467 1.47872 -0.545128 0
M  V30 114 C 11.2787 2.27869 0.246621 0
M  V30 115 C 12.2917 1.36282 0.890561 0
M  V30 116 O 13.4807 1.61207 0.766449 0
M  V30 117 C 10.5807 3.10159 1.36582 0
M  V30 118 C 9.7537 4.29627 0.820954 0
M  V30 119 C 8.8127 4.93607 1.82314 0
M  V30 120 O 7.8387 5.52366 1.37406 0
M  V30 121 N 9.0407 4.87211 3.15603 0
M  V30 122 H 11.8057 2.96459 -0.439539 0
M  V30 123 H 9.3667 1.57367 -0.380421 0
M  V30 124 H 11.3587 3.49829 2.03474 0
M  V30 125 H 9.9287 2.43891 1.9554 0
M  V30 126 H 9.1487 3.94192 -0.0244032 0
M  V30 127 H 10.4367 5.06928 0.436063 0
M  V30 128 H 9.8347 4.40651 3.54744 0
M  V30 129 H 8.3917 5.30937 3.78087 0
M  V30 130 N 11.8248 0.280983 1.55075 0
M  V30 131 C 13.0708 -0.33461 2.00021 0
M  V30 132 C 13.4038 -1.55063 1.16915 0
M  V30 133 O 12.6788 -1.93006 0.240646 0
M  V30 134 C 12.9618 -0.711007 3.53011 0
M  V30 135 C 12.8148 0.512766 4.46868 0
M  V30 136 C 14.1338 -1.54522 4.12081 0
M  V30 137 H 11.2528 -0.120147 0.727141 0
M  V30 138 H 13.8948 0.389097 1.85973 0
M  V30 139 H 12.0448 -1.32761 3.65112 0
M  V30 140 H 13.7168 1.15131 4.46702 0
M  V30 141 H 11.9598 1.14975 4.18286 0
M  V30 142 H 12.6308 0.205556 5.51617 0
M  V30 143 H 15.1068 -1.02442 4.03293 0
M  V30 144 H 13.9828 -1.77739 5.19327 0
M  V30 145 H 14.2438 -2.52813 3.62682 0
M  V30 146 N 13.3029 -1.57598 0.00835791 0
M  V30 147 C 14.2659 -2.07884 -0.965242 0
M  V30 148 C 15.2659 -0.989825 -1.26725 0
M  V30 149 O 16.4559 -1.25218 -1.21104 0
M  V30 150 C 13.5879 -2.52731 -2.28779 0
M  V30 151 H 14.7809 -2.95178 -0.530112 0
M  V30 152 H 12.3339 -1.54458 -0.239283 0
M  V30 153 H 13.0689 -1.68705 -2.76964 0
M  V30 154 H 12.8539 -3.32272 -2.08177 0
M  V30 155 H 14.3439 -2.91933 -2.98605 0
M  V30 156 N 14.781 0.264519 -1.55364 0
M  V30 157 C 15.691 1.34902 -1.91934 0
M  V30 158 C 16.707 1.53595 -0.817593 0
M  V30 159 O 17.883 1.67558 -1.11742 0
M  V30 160 C 14.948 2.68676 -2.19121 0
M  V30 161 C 14.009 2.58657 -3.4263 0
M  V30 162 C 13.242 3.86051 -3.68511 0
M  V30 163 O 13.465 4.87126 -2.96757 0
M  V30 164 O 12.399 3.85744 -4.62045 0
M  V30 165 H 16.225 1.06883 -2.8427 0
M  V30 166 H 13.81 0.463775 -1.42019 0
M  V30 167 H 15.692 3.47759 -2.37995 0
M  V30 168 H 14.367 2.96463 -1.29966 0
M  V30 169 H 13.274 1.7792 -3.29082 0
M  V30 170 H 14.607 2.35818 -4.32031 0
M  V30 171 N 16.2591 1.48442 0.529413 0
M  V30 172 C 17.1891 1.65902 1.64313 0
M  V30 173 C 18.1701 0.507897 1.6234 0
M  V30 174 O 19.3551 0.740503 1.79528 0
M  V30 175 C 16.4851 1.69911 3.02898 0
M  V30 176 C 15.4391 2.8453 3.19729 0
M  V30 177 C 14.7651 2.73629 4.59381 0
M  V30 178 C 16.0651 4.25821 3.02447 0
M  V30 179 H 17.7591 2.5914 1.49955 0
M  V30 180 H 15.3051 1.24709 0.719982 0
M  V30 181 H 17.2581 1.80715 3.80684 0
M  V30 182 H 15.9821 0.732524 3.18279 0
M  V30 183 H 14.6411 2.73283 2.44361 0
M  V30 184 H 14.2891 1.74938 4.71599 0
M  V30 185 H 13.9891 3.50541 4.71588 0
M  V30 186 H 15.5131 2.86401 5.39265 0
M  V30 187 H 16.9271 4.37898 3.70024 0
M  V30 188 H 15.3241 5.03735 3.26146 0
M  V30 189 H 16.3941 4.42244 1.98867 0
M  V30 190 N 17.7372 -0.778329 1.37039 0
M  V30 191 C 18.6672 -1.90546 1.34962 0
M  V30 192 C 19.6482 -1.68681 0.219274 0
M  V30 193 O 20.8332 -1.89634 0.418624 0
M  V30 194 C 17.9632 -3.27734 1.14925 0
M  V30 195 C 16.9172 -3.64147 2.24902 0
M  V30 196 C 16.2432 -4.99806 1.89996 0
M  V30 197 C 17.5432 -3.71579 3.67051 0
M  V30 198 H 19.2372 -1.92541 2.29277 0
M  V30 199 H 16.7832 -0.924948 1.10366 0
M  V30 200 H 18.7362 -4.06215 1.12104 0
M  V30 201 H 17.4602 -3.26154 0.170631 0
M  V30 202 H 16.1192 -2.8797 2.26868 0
M  V30 203 H 15.7672 -4.94759 0.906796 0
M  V30 204 H 15.4672 -5.25139 2.63634 0
M  V30 205 H 16.9912 -5.80694 1.88749 0
M  V30 206 H 18.4052 -4.40227 3.67251 0
M  V30 207 H 16.8022 -4.08405 4.39688 0
M  V30 208 H 17.8722 -2.72404 4.01154 0
M  V30 209 N 19.2153 -1.21501 -1.00376 0
M  V30 210 C 20.1783 -0.976927 -2.07337 0
M  V30 211 C 21.1783 0.0525322 -1.60714 0
M  V30 212 O 22.3683 -0.184869 -1.73216 0
M  V30 213 C 19.5003 -0.473423 -3.37597 0
M  V30 214 H 20.6933 -1.92587 -2.29892 0
M  V30 215 H 18.2463 -1.03217 -1.17371 0
M  V30 216 H 18.9813 0.480379 -3.20722 0
M  V30 217 H 18.7663 -1.216 -3.72768 0
M  V30 218 H 20.2563 -0.32675 -4.1632 0
M  V30 219 N 20.6934 1.19889 -1.02296 0
M  V30 220 C 21.6034 2.26571 -0.608508 0
M  V30 221 C 22.6194 1.70299 0.356964 0
M  V30 222 O 23.7954 2.00235 0.216326 0
M  V30 223 C 20.8604 3.46677 0.0402814 0
M  V30 224 C 19.9214 4.18153 -0.97194 0
M  V30 225 C 19.1544 5.32525 -0.354016 0
M  V30 226 O 19.3774 5.64112 0.844604 0
M  V30 227 O 18.3114 5.92242 -1.07391 0
M  V30 228 H 22.1374 2.64251 -1.49684 0
M  V30 229 H 19.7224 1.26629 -0.792809 0
M  V30 230 H 21.6044 4.19475 0.402324 0
M  V30 231 H 20.2794 3.10858 0.902707 0
M  V30 232 H 19.1864 3.47499 -1.38546 0
M  V30 233 H 20.5194 4.57927 -1.80454 0
M  V30 234 N 22.1715 0.800033 1.35784 0
M  V30 235 C 23.1345 0.211565 2.28221 0
M  V30 236 C 24.1345 -0.59728 1.49296 0
M  V30 237 O 25.3245 -0.416721 1.69142 0
M  V30 238 C 22.4565 -0.705846 3.33513 0
M  V30 239 H 23.6495 1.02677 2.81776 0
M  V30 240 H 21.2025 0.570211 1.45528 0
M  V30 241 H 21.9375 -1.54498 2.85133 0
M  V30 242 H 21.7225 -0.127655 3.91892 0
M  V30 243 H 23.2125 -1.11211 4.02519 0
M  V30 244 N 23.6496 -1.47581 0.552962 0
M  V30 245 C 25.0656 -1.5818 0.212424 0
M  V30 246 C 25.2656 -1.55213 -1.28496 0
M  V30 247 O 24.3216 -1.45329 -2.06484 0
M  V30 248 C 25.6346 -2.88865 0.835318 0
M  V30 249 C 27.1826 -3.0244 0.806156 0
M  V30 250 C 27.6576 -4.35819 1.40804 0
M  V30 251 N 29.1486 -4.42444 1.37103 0
M  V30 252 C 29.8836 -5.44202 1.80641 0
M  V30 253 N 29.3796 -6.52795 2.32015 0
M  V30 254 N 31.1726 -5.35222 1.71738 0
M  V30 255 H 23.3236 -1.47753 1.52587 0
M  V30 256 H 25.5866 -0.702941 0.636064 0
M  V30 257 H 25.2926 -2.9676 1.88749 0
M  V30 258 H 25.1666 -3.7579 0.325848 0
M  V30 259 H 27.5536 -2.94144 -0.237317 0
M  V30 260 H 27.6346 -2.17068 1.35334 0
M  V30 261 H 27.2786 -4.44871 2.45056 0
M  V30 262 H 27.2086 -5.19916 0.836338 0
M  V30 263 H 29.6996 -3.6456 0.995202 0
M  V30 264 H 30.0126 -7.26609 2.63171 0
M  V30 265 H 28.3576 -6.53696 2.36023 0
M  V30 266 H 31.5486 -4.49284 1.31382 0
M  V30 267 H 31.7216 -6.14389 2.05987 0
M  V30 268 N 25.1277 -0.289203 -1.54924 0
M  V30 269 C 26.5437 0.0645403 -1.59469 0
M  V30 270 C 26.7437 1.53419 -1.30632 0
M  V30 271 O 25.7997 2.2852 -1.074 0
M  V30 272 C 27.1127 -0.32278 -2.98963 0
M  V30 273 C 28.6607 -0.270564 -3.11828 0
M  V30 274 C 29.1357 -0.632532 -4.53611 0
M  V30 275 N 30.6267 -0.584617 -4.59496 0
M  V30 276 C 31.3617 -0.837314 -5.67254 0
M  V30 277 N 30.8577 -1.15536 -6.83098 0
M  V30 278 N 32.6507 -0.765166 -5.56868 0
M  V30 279 H 24.8017 -1.24714 -1.71931 0
M  V30 280 H 27.0647 -0.504809 -0.802416 0
M  V30 281 H 26.7707 -1.34541 -3.24948 0
M  V30 282 H 26.6447 0.32944 -3.75759 0
M  V30 283 H 29.0317 0.742805 -2.85598 0
M  V30 284 H 29.1127 -0.957242 -2.37214 0
M  V30 285 H 28.7567 -1.64365 -4.80569 0
M  V30 286 H 28.6867 0.07609 -5.26545 0
M  V30 287 H 31.1777 -0.349248 -3.76283 0
M  V30 288 H 31.4907 -1.33447 -7.61191 0
M  V30 289 H 29.8357 -1.19328 -6.84679 0
M  V30 290 H 33.0267 -0.516432 -4.65243 0
M  V30 291 H 33.1997 -0.965477 -6.40767 0
M  V30 292 N 26.6058 1.57591 -0.0167156 0
M  V30 293 C 27.5688 2.08393 0.954204 0
M  V30 294 C 28.5688 0.996531 1.26198 0
M  V30 295 O 29.7588 1.25858 1.20438 0
M  V30 296 C 26.8908 2.5394 2.27436 0
M  V30 297 H 28.0838 2.95455 0.514451 0
M  V30 298 H 25.6368 1.54582 0.231089 0
M  V30 299 H 26.3718 1.70171 2.76066 0
M  V30 300 H 26.1568 3.33371 2.06412 0
M  V30 301 H 27.6468 2.93512 2.97053 0
M  V30 302 N 28.0839 -0.256276 1.55502 0
M  V30 303 C 29.3309 -0.985619 1.76895 0
M  V30 304 C 29.6589 -1.85671 0.579355 0
M  V30 305 O 28.9139 -1.90744 -0.437651 0
M  V30 306 C 29.2129 -1.88432 3.03691 0
M  V30 307 C 28.8789 -1.16936 4.35473 0
M  V30 308 C 27.5409 -0.97173 4.71286 0
M  V30 309 C 29.8929 -0.661889 5.1698 0
M  V30 310 C 27.2209 -0.254179 5.86149 0
M  V30 311 C 29.5729 0.042149 6.32586 0
M  V30 312 C 28.2369 0.25134 6.67027 0
M  V30 313 H 27.5069 -0.360663 0.647304 0
M  V30 314 H 30.1539 -0.256483 1.89775 0
M  V30 315 H 28.4589 -2.68021 2.85783 0
M  V30 316 H 30.1559 -2.45015 3.1744 0
M  V30 317 H 26.7459 -1.33332 4.07333 0
M  V30 318 H 30.9299 -0.802145 4.89775 0
M  V30 319 H 26.1859 -0.0815408 6.11346 0
M  V30 320 H 30.3599 0.443049 6.94989 0
M  V30 321 H 27.9869 0.809314 7.5588 0
M  V30 322 N 29.562 -1.4872 -0.521534 0
M  V30 323 C 30.978 -1.35028 -0.850855 0
M  V30 324 C 31.178 -0.367712 -1.98116 0
M  V30 325 O 30.234 0.208037 -2.51642 0
M  V30 326 C 31.547 -2.75263 -1.21041 0
M  V30 327 C 33.095 -2.83813 -1.31981 0
M  V30 328 C 33.57 -4.24769 -1.71276 0
M  V30 329 N 35.061 -4.27482 -1.78363 0
M  V30 330 C 35.796 -5.33494 -2.1017 0
M  V30 331 N 35.292 -6.49775 -2.40343 0
M  V30 332 N 37.085 -5.20894 -2.11248 0
M  V30 333 H 29.236 -2.11214 0.22413 0
M  V30 334 H 31.499 -0.947252 0.0376439 0
M  V30 335 H 31.205 -3.48765 -0.453415 0
M  V30 336 H 31.079 -3.09327 -2.15863 0
M  V30 337 H 33.466 -2.10561 -2.06756 0
M  V30 338 H 33.547 -2.53358 -0.352596 0
M  V30 339 H 33.191 -4.9854 -0.970588 0
M  V30 340 H 33.121 -4.52673 -2.69062 0
M  V30 341 H 35.612 -3.43611 -1.57288 0
M  V30 342 H 35.925 -7.26402 -2.63743 0
M  V30 343 H 34.27 -6.53035 -2.37844 0
M  V30 344 H 37.461 -4.29065 -1.87139 0
M  V30 345 H 37.634 -6.03612 -2.35704 0
M  V30 346 N 31.0401 0.771051 -1.3745 0
M  V30 347 C 31.9501 1.91538 -1.35464 0
M  V30 348 C 32.9661 1.72134 -0.254123 0
M  V30 349 O 34.1421 1.95358 -0.489626 0
M  V30 350 C 31.2071 3.26671 -1.16134 0
M  V30 351 C 30.2681 3.58723 -2.35831 0
M  V30 352 C 29.5011 4.87409 -2.17413 0
M  V30 353 O 29.7241 5.58506 -1.15876 0
M  V30 354 O 28.6581 5.18539 -3.05615 0
M  V30 355 H 32.4841 1.96165 -2.31847 0
M  V30 356 H 30.0691 0.9139 -1.18187 0
M  V30 357 H 31.9511 4.07499 -1.07345 0
M  V30 358 H 30.6261 3.22894 -0.228251 0
M  V30 359 H 29.5331 2.78127 -2.50192 0
M  V30 360 H 30.8661 3.67243 -3.27709 0
M  V30 361 N 32.5182 1.22032 0.997298 0
M  V30 362 C 33.4282 1.00271 2.12092 0
M  V30 363 C 34.4442 -0.047621 1.73935 0
M  V30 364 O 35.6202 0.144136 2.00884 0
M  V30 365 C 32.6852 0.578449 3.4184 0
M  V30 366 C 31.7462 1.70189 3.94125 0
M  V30 367 C 30.9792 1.29778 5.17681 0
M  V30 368 O 31.2022 0.174676 5.70132 0
M  V30 369 O 30.1362 2.11261 5.63607 0
M  V30 370 H 33.9622 1.94398 2.3333 0
M  V30 371 H 31.5472 1.00587 1.10465 0
M  V30 372 H 33.4292 0.351998 4.19927 0
M  V30 373 H 32.1042 -0.334019 3.21972 0
M  V30 374 H 31.0112 1.98282 3.1723 0
M  V30 375 H 32.3442 2.59206 4.18417 0
M  V30 376 N 33.9963 -1.19345 1.0293 0
M  V30 377 C 35.2433 -1.89038 0.726008 0
M  V30 378 C 35.5713 -1.79649 -0.745427 0
M  V30 379 O 34.8263 -1.18354 -1.55855 0
M  V30 380 C 35.1253 -3.39292 1.12319 0
M  V30 381 C 34.7913 -3.68885 2.59297 0
M  V30 382 C 33.4533 -3.76671 2.99453 0
M  V30 383 C 35.8053 -3.82178 3.54386 0
M  V30 384 C 33.1333 -3.9522 4.33611 0
M  V30 385 C 35.4853 -4.0224 4.88248 0
M  V30 386 C 34.1493 -4.08259 5.28092 0
M  V30 387 H 33.4193 -0.691739 0.265665 0
M  V30 388 H 36.0663 -1.41328 1.29223 0
M  V30 389 H 34.3713 -3.88903 0.475584 0
M  V30 390 H 36.0683 -3.91536 0.866037 0
M  V30 391 H 32.6583 -3.63433 2.27189 0
M  V30 392 H 36.8423 -3.75505 3.24514 0
M  V30 393 H 32.0983 -3.98119 4.64016 0
M  V30 394 H 36.2723 -4.11468 5.61843 0
M  V30 395 H 33.8993 -4.22384 6.32057 0
M  V30 396 N 35.4744 -0.807222 -1.35358 0
M  V30 397 C 36.7224 -0.387122 -1.98358 0
M  V30 398 C 37.0434 1.04942 -1.64354 0
M  V30 399 O 36.3134 1.72615 -0.926339 0
M  V30 400 H 34.8934 -0.140154 -0.733734 0
M  V30 401 H 37.5554 -1.0332 -1.6526 0
M  V30 402 H 36.6514 -0.493352 -3.08176 0
M  V30 403 N 36.9525 1.47285 -0.560781 0
M  V30 404 C 37.9155 2.28535 0.174488 0
M  V30 405 C 38.9155 1.37153 0.839388 0
M  V30 406 O 40.1055 1.59748 0.694702 0
M  V30 407 C 37.2375 3.16934 1.25561 0
M  V30 408 H 38.4305 2.95012 -0.539262 0
M  V30 409 H 35.9835 1.53034 -0.317865 0
M  V30 410 H 36.7185 2.55157 2.00164 0
M  V30 411 H 36.5035 3.8419 0.783604 0
M  V30 412 H 37.9935 3.78143 1.77193 0
M  V30 413 N 38.4306 0.297415 1.54768 0
M  V30 414 C 39.3406 -0.58983 2.27064 0
M  V30 415 C 40.3566 -1.15144 1.30453 0
M  V30 416 O 41.5326 -1.17699 1.63428 0
M  V30 417 C 38.5976 -1.74714 2.9946 0
M  V30 418 C 37.6586 -1.21997 4.11601 0
M  V30 419 C 36.8916 -2.32212 4.80535 0
M  V30 420 O 37.1146 -3.52036 4.48806 0
M  V30 421 O 36.0486 -1.99106 5.68014 0
M  V30 422 H 39.8746 -0.00348199 3.037 0
M  V30 423 H 37.4596 0.0640035 1.49263 0
M  V30 424 H 39.3416 -2.42147 3.44881 0
M  V30 425 H 38.0166 -2.32016 2.25722 0
M  V30 426 H 36.9236 -0.511458 3.70587 0
M  V30 427 H 38.2566 -0.692419 4.87305 0
M  V30 428 N 39.9087 -1.5758 0.0250728 0
M  V30 429 C 41.3197 -1.79476 -0.514323 0
M  V30 430 C 41.6707 -0.934956 -1.72491 0
M  V30 431 O 40.7957 -0.144245 -2.15919 0
M  V30 432 C 41.3907 -3.25503 -0.939842 0
M  V30 433 C 39.9497 -3.48408 -1.42438 0
M  V30 434 C 39.0967 -2.74583 -0.387201 0
M  V30 435 H 42.0477 -1.567 0.25113 0
M  V30 436 H 42.0687 -3.34992 -1.80445 0
M  V30 437 H 41.5807 -3.88056 -0.0585628 0
M  V30 438 H 39.6817 -2.91103 -2.32572 0
M  V30 439 H 39.7947 -4.57119 -1.43455 0
M  V30 440 H 38.1587 -2.39942 -0.854409 0
M  V30 441 H 38.9417 -3.39849 0.485543 0
M  V30 442 N 41.3868 0.248026 -1.55636 0
M  V30 443 C 42.2968 1.32859 -1.93354 0
M  V30 444 C 43.3128 1.52719 -0.833838 0
M  V30 445 O 44.4888 1.66363 -1.13513 0
M  V30 446 C 41.5538 2.66337 -2.21958 0
M  V30 447 C 40.6148 2.55008 -3.45354 0
M  V30 448 C 39.8478 3.82121 -3.72584 0
M  V30 449 O 40.0708 4.83951 -3.01907 0
M  V30 450 O 39.0048 3.80822 -4.6611 0
M  V30 451 H 42.8308 1.03862 -2.85388 0
M  V30 452 H 40.4158 0.448686 -1.42503 0
M  V30 453 H 42.2978 3.45216 -2.4167 0
M  V30 454 H 40.9728 2.95068 -1.33103 0
M  V30 455 H 39.8798 1.7442 -3.30951 0
M  V30 456 H 41.2128 2.31222 -4.34508 0
M  V30 457 N 42.8649 1.48995 0.513639 0
M  V30 458 C 43.7949 1.67636 1.62544 0
M  V30 459 C 44.7759 0.525087 1.61793 0
M  V30 460 O 45.9609 0.759502 1.78732 0
M  V30 461 C 43.0909 1.73114 3.01079 0
M  V30 462 C 42.0449 2.87905 3.16693 0
M  V30 463 C 41.3709 2.78486 4.56453 0
M  V30 464 C 42.6709 4.29005 2.97913 0
M  V30 465 H 44.3649 2.60716 1.47198 0
M  V30 466 H 41.9109 1.25465 0.706714 0
M  V30 467 H 43.8639 1.84742 3.78746 0
M  V30 468 H 42.5879 0.766241 3.17484 0
M  V30 469 H 41.2469 2.75859 2.41448 0
M  V30 470 H 40.8949 1.7993 4.69717 0
M  V30 471 H 40.5949 3.55523 4.67843 0
M  V30 472 H 42.1189 2.92104 5.36197 0
M  V30 473 H 43.5329 4.41798 3.65359 0
M  V30 474 H 41.9299 5.07166 3.20785 0
M  V30 475 H 42.9999 4.44329 1.94165 0
M  V30 476 N 44.343 -0.763751 1.37857 0
M  V30 477 C 45.306 -1.85889 1.34081 0
M  V30 478 C 46.306 -1.58949 0.243277 0
M  V30 479 O 47.496 -1.66882 0.499589 0
M  V30 480 C 44.628 -3.23176 1.08489 0
M  V30 481 H 45.821 -1.90648 2.31502 0
M  V30 482 H 43.374 -0.964367 1.23003 0
M  V30 483 H 44.109 -3.24091 0.116318 0
M  V30 484 H 43.894 -3.44124 1.8794 0
M  V30 485 H 45.384 -4.03254 1.08517 0
M  V30 486 N 45.8211 -1.22559 -0.990812 0
M  V30 487 C 47.0671 -1.05297 -1.73322 0
M  V30 488 C 47.4001 0.410655 -1.89808 0
M  V30 489 O 46.6751 1.30439 -1.44277 0
M  V30 490 C 46.9581 -1.76713 -3.13759 0
M  V30 491 C 46.8111 -3.30684 -3.04907 0
M  V30 492 C 48.1301 -1.52121 -4.12974 0
M  V30 493 H 45.2491 -0.38392 -0.629106 0
M  V30 494 H 47.8911 -1.50926 -1.15418 0
M  V30 495 H 46.0411 -1.37924 -3.63193 0
M  V30 496 H 47.7131 -3.7893 -2.63077 0
M  V30 497 H 45.9561 -3.60253 -2.41661 0
M  V30 498 H 46.6271 -3.75833 -4.04294 0
M  V30 499 H 49.1031 -1.85819 -3.72304 0
M  V30 500 H 47.9791 -2.04582 -5.0935 0
M  V30 501 H 48.2401 -0.454257 -4.3976 0
M  V30 502 N 47.2992 1.18797 -1.03562 0
M  V30 503 C 48.5242 1.9314 -0.755764 0
M  V30 504 C 48.9492 1.7537 0.68022 0
M  V30 505 O 48.3072 1.06046 1.47051 0
M  V30 506 C 48.3552 3.42747 -1.12058 0
M  V30 507 O 47.4592 4.11683 -0.243124 0
M  V30 508 H 46.8002 0.602724 -0.278604 0
M  V30 509 H 49.3302 1.50678 -1.3841 0
M  V30 510 H 49.3402 3.93437 -1.08035 0
M  V30 511 H 48.0152 3.55002 -2.16672 0
M  V30 512 H 46.5922 3.71323 -0.342539 0
M  V30 513 N 48.7773 0.814389 1.34928 0
M  V30 514 C 49.7403 0.235759 2.27984 0
M  V30 515 C 50.7403 -0.581412 1.49921 0
M  V30 516 O 51.9303 -0.398758 1.69575 0
M  V30 517 C 49.0623 -0.670433 3.34242 0
M  V30 518 H 50.2553 1.05659 2.80671 0
M  V30 519 H 47.8083 0.585614 1.44915 0
M  V30 520 H 48.5433 -1.51466 2.86755 0
M  V30 521 H 48.3283 -0.0860822 3.92005 0
M  V30 522 H 49.8183 -1.06935 4.03676 0
M  V30 523 N 50.2554 -1.46986 0.568584 0
M  V30 524 C 51.6664 -1.86188 0.138219 0
M  V30 525 C 52.0174 -1.47388 -1.29504 0
M  V30 526 O 51.1424 -0.88219 -1.97602 0
M  V30 527 C 51.7374 -3.3792 0.244065 0
M  V30 528 C 50.2964 -3.76171 -0.131335 0
M  V30 529 C 49.4434 -2.71027 0.586465 0
M  V30 530 H 52.3944 -1.38342 0.777645 0
M  V30 531 H 52.4154 -3.76729 -0.534351 0
M  V30 532 H 51.9274 -3.66128 1.28731 0
M  V30 533 H 50.0284 -3.5358 -1.17526 0
M  V30 534 H 50.1414 -4.78523 0.235146 0
M  V30 535 H 48.5054 -2.54684 0.0282722 0
M  V30 536 H 49.2884 -3.02077 1.63109 0
M  V30 537 N 51.7335 -0.305618 -1.54608 0
M  V30 538 C 52.9815 0.301701 -1.99835 0
M  V30 539 C 53.3025 1.54054 -1.19551 0
M  V30 540 O 52.5725 1.93702 -0.292658 0
M  V30 541 H 51.1525 0.114468 -0.738178 0
M  V30 542 H 53.8145 -0.418016 -1.90364 0
M  V30 543 H 52.9105 0.570548 -3.06841 0
M  V30 544 N 53.2116 1.57565 -0.0334293 0
M  V30 545 C 54.6276 1.56297 0.322997 0
M  V30 546 C 54.8276 1.03945 1.7262 0
M  V30 547 O 53.8836 0.688109 2.42943 0
M  V30 548 C 55.1966 3.00232 0.167664 0
M  V30 549 C 56.7446 3.12078 0.240107 0
M  V30 550 C 57.2196 4.57859 0.113513 0
M  V30 551 N 58.7106 4.62887 0.170359 0
M  V30 552 C 59.4456 5.73319 0.0962517 0
M  V30 553 N 58.9416 6.92794 -0.0291881 0
M  V30 554 N 60.7346 5.61898 0.150551 0
M  V30 555 H 52.8856 1.89923 -0.950956 0
M  V30 556 H 55.1486 0.873824 -0.367608 0
M  V30 557 H 54.8546 3.42501 -0.799102 0
M  V30 558 H 54.7286 3.654 0.936083 0
M  V30 559 H 57.1156 2.69718 1.19733 0
M  V30 560 H 57.1966 2.49623 -0.558763 0
M  V30 561 H 56.8406 5.009 -0.840314 0
M  V30 562 H 56.7706 5.18299 0.931302 0
M  V30 563 H 59.2616 3.76954 0.26728 0
M  V30 564 H 59.5746 7.7276 -0.0789252 0
M  V30 565 H 57.9196 6.94971 -0.0640299 0
M  V30 566 H 61.1106 4.67448 0.246981 0
M  V30 567 H 61.2836 6.47938 0.0893365 0
M  V30 568 N 54.6897 -0.239769 1.55765 0
M  V30 569 C 55.9357 -0.968234 1.78194 0
M  V30 570 C 56.2687 -1.84701 0.599938 0
M  V30 571 O 55.5437 -1.9031 -0.401524 0
M  V30 572 C 55.8267 -1.8227 3.10564 0
M  V30 573 C 55.6797 -0.971633 4.3918 0
M  V30 574 C 56.9987 -2.80388 3.39221 0
M  V30 575 H 54.1177 -0.350572 0.648281 0
M  V30 576 H 56.7597 -0.238259 1.885 0
M  V30 577 H 54.9097 -2.44507 3.01908 0
M  V30 578 H 56.5817 -0.367408 4.59835 0
M  V30 579 H 54.8247 -0.276276 4.32919 0
M  V30 580 H 55.4957 -1.60346 5.28198 0
M  V30 581 H 57.9717 -2.28287 3.47885 0
M  V30 582 H 56.8477 -3.3729 4.33044 0
M  V30 583 H 57.1087 -3.57212 2.60484 0
M  V30 584 N 56.1678 -1.49265 -0.50573 0
M  V30 585 C 57.1158 -1.66065 -1.62866 0
M  V30 586 C 58.1098 -0.526636 -1.61006 0
M  V30 587 O 59.3158 -0.706126 -1.65571 0
M  V30 588 H 55.6908 -0.52356 -0.539805 0
M  V30 589 H 57.6618 -2.60329 -1.45848 0
M  V30 590 C 56.4108 -1.74008 -3.01026 0
M  V30 591 H 55.7338 -2.6064 -3.03161 0
M  V30 592 H 57.1738 -1.89798 -3.79147 0
M  V30 593 C 55.6328 -0.483868 -3.33407 0
M  V30 594 O 56.1628 0.392548 -3.99777 0
M  V30 595 N 54.3688 -0.348236 -2.88506 0
M  V30 596 H 53.9158 -1.06242 -2.34671 0
M  V30 597 H 53.8738 0.491204 -3.10539 0
M  V30 598 N 57.6459 0.756429 -1.3826 0
M  V30 599 C 58.5759 1.88374 -1.37976 0
M  V30 600 C 59.5569 1.68311 -0.246082 0
M  V30 601 O 60.7419 1.88944 -0.44874 0
M  V30 602 C 57.8719 3.25864 -1.20125 0
M  V30 603 C 56.8259 3.60523 -2.30666 0
M  V30 604 C 56.1519 4.9672 -1.97923 0
M  V30 605 C 57.4519 3.65692 -3.72916 0
M  V30 606 H 59.1459 1.88869 -2.32312 0
M  V30 607 H 56.6919 0.907272 -1.11824 0
M  V30 608 H 58.6449 4.0438 -1.18552 0
M  V30 609 H 57.3689 3.25841 -0.222498 0
M  V30 610 H 56.0279 2.84324 -2.3142 0
M  V30 611 H 55.6759 4.93253 -0.985393 0
M  V30 612 H 55.3759 5.20878 -2.71955 0
M  V30 613 H 56.8999 5.77618 -1.97964 0
M  V30 614 H 58.3139 4.34328 -3.74208 0
M  V30 615 H 56.7109 4.01358 -4.4613 0
M  V30 616 H 57.7809 2.65987 -4.05436 0
M  V30 617 N 59.124 1.23083 0.984299 0
M  V30 618 C 60.373 1.05466 1.71929 0
M  V30 619 C 60.686 -0.409211 1.91272 0
M  V30 620 O 61.892 -0.705226 2.62181 0
M  V30 621 C 60.348 1.83874 3.09384 0
M  V30 622 C 59.956 3.34566 2.97943 0
M  V30 623 C 61.7 1.74734 3.8687 0
M  V30 624 C 59.607 4.05381 4.30605 0
M  V30 625 H 58.537 0.391039 0.644674 0
M  V30 626 H 61.188 1.47013 1.09815 0
M  V30 627 H 59.57 1.35131 3.72231 0
M  V30 628 H 60.744 3.90767 2.44209 0
M  V30 629 H 59.059 3.44476 2.33934 0
M  V30 630 H 61.656 2.24957 4.85076 0
M  V30 631 H 61.999 0.709372 4.10212 0
M  V30 632 H 62.532 2.21067 3.30717 0
M  V30 633 H 59.271 5.09467 4.1246 0
M  V30 634 H 58.791 3.53967 4.84218 0
M  V30 635 H 60.47 4.11458 4.99311 0
M  V30 636 N 60.6021 -1.18246 1.0419 0
M  V30 637 C 61.8501 -1.87886 0.744543 0
M  V30 638 C 62.1711 -1.8082 -0.730006 0
M  V30 639 O 61.4411 -1.22736 -1.52685 0
M  V30 640 H 60.0211 -0.695556 0.272417 0
M  V30 641 H 62.6831 -1.43494 1.31892 0
M  V30 642 H 61.7791 -2.9389 1.05049 0
M  V30 643 N 62.0802 -0.821533 -1.34494 0
M  V30 644 C 62.9902 -0.244355 -2.33324 0
M  V30 645 C 64.0062 0.620527 -1.62559 0
M  V30 646 O 65.1822 0.528754 -1.94335 0
M  V30 647 C 62.2472 0.585368 -3.41723 0
M  V30 648 C 61.3082 -0.301752 -4.28238 0
M  V30 649 C 60.5412 0.488466 -5.3146 0
M  V30 650 O 60.7642 1.72186 -5.4379 0
M  V30 651 O 59.6982 -0.12848 -6.01763 0
M  V30 652 H 63.5242 -1.06231 -2.84515 0
M  V30 653 H 61.1092 -0.583645 -1.37528 0
M  V30 654 H 62.9912 1.05747 -4.07916 0
M  V30 655 H 61.6662 1.38068 -2.92778 0
M  V30 656 H 60.5732 -0.821315 -3.64973 0
M  V30 657 H 61.9062 -1.06138 -4.8062 0
M  V30 658 N 63.5583 1.46682 -0.576371 0
M  V30 659 C 64.5083 2.27278 0.181288 0
M  V30 660 C 65.4923 1.35497 0.867721 0
M  V30 661 O 66.6843 1.59717 0.762863 0
M  V30 662 C 63.8133 3.21703 1.19841 0
M  V30 663 C 62.8993 4.20969 0.51442 0
M  V30 664 N 63.2903 5.03999 -0.426407 0
M  V30 665 C 61.5883 4.39373 0.765963 0
M  V30 666 C 62.2893 5.75812 -0.825565 0
M  V30 667 N 61.2653 5.43315 -0.176116 0
M  V30 668 H 65.0673 2.88863 -0.541785 0
M  V30 669 H 62.5813 1.57455 -0.397697 0
M  V30 670 H 64.5783 3.78145 1.75533 0
M  V30 671 H 63.2383 2.61677 1.92238 0
M  V30 672 H 64.2493 5.11659 -0.8016 0
M  V30 673 H 60.9263 3.90502 1.47698 0
M  V30 674 H 62.3163 6.52577 -1.59976 0
M  V30 675 N 65.0364 0.313813 1.54444 0
M  V30 676 C 66.2644 -0.293918 2.04802 0
M  V30 677 C 66.6794 -1.46537 1.19047 0
M  V30 678 O 66.0364 -1.81182 0.218939 0
M  V30 679 C 66.0874 -0.737806 3.53891 0
M  V30 680 O 65.8084 0.387038 4.36387 0
M  V30 681 C 67.3094 -1.40936 4.203 0
M  V30 682 H 64.5294 -0.0620057 0.668129 0
M  V30 683 H 67.0734 0.457169 1.99324 0
M  V30 684 H 65.2284 -1.43889 3.59687 0
M  V30 685 H 65.6424 0.0391274 5.24485 0
M  V30 686 H 67.1164 -1.67099 5.26101 0
M  V30 687 H 67.5934 -2.35355 3.70816 0
M  V30 688 H 68.1994 -0.751117 4.18615 0
M  V30 689 N 66.5145 -1.57545 0.0417849 0
M  V30 690 C 67.7915 -1.83642 -0.673433 0
M  V30 691 C 68.1715 -0.928298 -1.89594 0
M  V30 692 O 67.5195 0.0129955 -2.28496 0
M  V30 693 C 67.7295 -3.33155 -1.03964 0
M  V30 694 C 69.0775 -3.99941 -1.42592 0
M  V30 695 O 70.1015 -3.37725 -1.13226 0
M  V30 696 O 68.9605 -5.09619 -1.9736 0
M  V30 697 H 66.0545 -0.757638 -0.331533 0
M  V30 698 H 68.6005 -1.69554 0.070433 0
M  V30 699 H 67.3725 -3.9093 -0.170098 0
M  V30 700 H 66.9955 -3.52396 -1.84126 0
M  V30 701 N 67.9926 0.231505 -1.5589 0
M  V30 702 C 69.2226 0.973092 -1.82248 0
M  V30 703 C 69.6306 1.78845 -0.617328 0
M  V30 704 O 68.9736 1.78752 0.423499 0
M  V30 705 C 69.0356 1.94732 -3.02192 0
M  V30 706 C 68.6996 1.31743 -4.37599 0
M  V30 707 C 69.6966 0.712238 -5.14998 0
M  V30 708 C 67.3816 1.33218 -4.84312 0
M  V30 709 C 69.3756 0.130195 -6.37267 0
M  V30 710 C 67.0626 0.746286 -6.06526 0
M  V30 711 C 68.0606 0.146337 -6.82843 0
M  V30 712 O 67.7486 -0.430465 -8.02747 0
M  V30 713 H 67.4806 0.29125 -0.61004 0
M  V30 714 H 70.0346 0.254915 -2.03812 0
M  V30 715 H 68.2646 2.70422 -2.76422 0
M  V30 716 H 69.9536 2.55362 -3.15508 0
M  V30 717 H 70.7196 0.69324 -4.8002 0
M  V30 718 H 66.5986 1.78854 -4.24891 0
M  V30 719 H 70.1426 -0.33871 -6.96777 0
M  V30 720 H 66.0396 0.762663 -6.40979 0
M  V30 721 H 66.8076 -0.323818 -8.17859 0
M  V30 722 N 69.4707 1.49531 0.497807 0
M  V30 723 C 70.4187 1.66926 1.61983 0
M  V30 724 C 71.4127 0.535167 1.60724 0
M  V30 725 O 72.6187 0.714896 1.65195 0
M  V30 726 H 68.9937 0.526415 0.537021 0
M  V30 727 H 70.9647 2.61098 1.44465 0
M  V30 728 C 69.7137 1.75602 3.00099 0
M  V30 729 H 69.0367 2.62244 3.01775 0
M  V30 730 H 70.4767 1.91807 3.78135 0
M  V30 731 C 68.9357 0.501543 3.33146 0
M  V30 732 O 69.4657 -0.371342 3.9998 0
M  V30 733 N 67.6717 0.363531 2.88317 0
M  V30 734 H 67.2187 1.07485 2.34104 0
M  V30 735 H 67.1767 -0.474728 3.10795 0
M  V30 736 N 70.9488 -0.749086 1.3866 0
M  V30 737 C 71.8808 -1.87273 1.32142 0
M  V30 738 C 72.8938 -1.61127 0.232787 0
M  V30 739 O 74.0828 -1.71623 0.49069 0
M  V30 740 C 71.1828 -3.23005 1.02571 0
M  V30 741 C 70.3558 -3.7662 2.22433 0
M  V30 742 C 69.4148 -4.90879 1.89537 0
M  V30 743 O 68.4408 -5.05276 2.62078 0
M  V30 744 N 69.6428 -5.74198 0.853031 0
M  V30 745 H 72.4078 -1.93373 2.28969 0
M  V30 746 H 69.9688 -0.929216 1.32579 0
M  V30 747 H 71.9608 -3.96992 0.786085 0
M  V30 748 H 70.5308 -3.12262 0.145249 0
M  V30 749 H 69.7508 -2.94147 2.62434 0
M  V30 750 H 71.0388 -4.09173 3.02415 0
M  V30 751 H 70.4368 -5.6514 0.25155 0
M  V30 752 H 68.9938 -6.48313 0.67329 0
M  V30 753 N 72.4269 -1.23603 -0.977757 0
M  V30 754 C 73.6749 -1.06759 -1.71601 0
M  V30 755 C 73.9959 0.395929 -1.90938 0
M  V30 756 O 73.2659 1.28356 -1.47992 0
M  V30 757 H 71.8459 -0.392062 -0.635843 0
M  V30 758 H 74.5079 -1.55362 -1.1768 0
M  V30 759 H 73.6039 -1.55763 -2.70452 0
M  V30 760 N 73.905 1.17692 -1.04816 0
M  V30 761 C 74.835 2.23777 -0.666791 0
M  V30 762 C 75.816 1.66796 0.33361 0
M  V30 763 O 77.001 1.93039 0.212042 0
M  V30 764 C 74.131 3.47281 -0.0367933 0
M  V30 765 C 73.085 4.17059 -0.961546 0
M  V30 766 C 72.411 5.34342 -0.195626 0
M  V30 767 C 73.711 4.69713 -2.28402 0
M  V30 768 H 75.405 2.55933 -1.55367 0
M  V30 769 H 72.951 1.23019 -0.748484 0
M  V30 770 H 74.904 4.20706 0.241775 0
M  V30 771 H 73.628 3.14381 0.885004 0
M  V30 772 H 72.287 3.45541 -1.22462 0
M  V30 773 H 71.935 4.97692 0.728816 0
M  V30 774 H 71.635 5.81966 -0.811775 0
M  V30 775 H 73.159 6.10553 0.0757473 0
M  V30 776 H 74.573 5.34794 -2.06563 0
M  V30 777 H 72.97 5.279 -2.8538 0
M  V30 778 H 74.04 3.86726 -2.92525 0
M  V30 779 N 75.3831 0.828654 1.34056 0
M  V30 780 C 76.6291 0.42008 1.98402 0
M  V30 781 C 76.9621 -1.01564 1.65525 0
M  V30 782 O 76.2371 -1.70834 0.929831 0
M  V30 783 C 76.5201 0.62927 3.54559 0
M  V30 784 C 76.3731 2.11152 3.97159 0
M  V30 785 C 77.6921 0.0688756 4.40046 0
M  V30 786 H 74.8111 0.154104 0.720709 0
M  V30 787 H 77.4531 1.04228 1.5886 0
M  V30 788 H 75.6031 0.0996418 3.88372 0
M  V30 789 H 77.2751 2.70522 3.73651 0
M  V30 790 H 75.5181 2.59985 3.47261 0
M  V30 791 H 76.1891 2.20868 5.05887 0
M  V30 792 H 78.6651 0.521458 4.1282 0
M  V30 793 H 77.5411 0.245006 5.48353 0
M  V30 794 H 77.8021 -1.0266 4.30015 0
M  V30 795 N 76.8612 -1.46375 0.584142 0
M  V30 796 C 77.7912 -2.33103 -0.136037 0
M  V30 797 C 78.7722 -1.45431 -0.882255 0
M  V30 798 O 79.9572 -1.74246 -0.857434 0
M  V30 799 C 77.0872 -3.27731 -1.14933 0
M  V30 800 C 76.0412 -4.24855 -0.517862 0
M  V30 801 C 75.3672 -5.09001 -1.63773 0
M  V30 802 C 76.6672 -5.19439 0.545886 0
M  V30 803 H 78.3612 -2.93568 0.588086 0
M  V30 804 H 75.9072 -1.41166 0.284259 0
M  V30 805 H 77.8602 -3.87261 -1.66153 0
M  V30 806 H 76.5842 -2.65377 -1.90375 0
M  V30 807 H 75.2432 -3.6659 -0.0267361 0
M  V30 808 H 74.8912 -4.43031 -2.38185 0
M  V30 809 H 74.5912 -5.74777 -1.22085 0
M  V30 810 H 76.1152 -5.71396 -2.15266 0
M  V30 811 H 77.5292 -5.73177 0.118704 0
M  V30 812 H 75.9262 -5.93566 0.88317 0
M  V30 813 H 76.9962 -4.63285 1.43162 0
M  V30 814 N 78.3393 -0.321999 -1.54275 0
M  V30 815 C 79.7503 0.166384 -1.85957 0
M  V30 816 C 80.1013 1.51747 -1.24367 0
M  V30 817 O 79.2263 2.09317 -0.549124 0
M  V30 818 C 79.8213 0.308681 -3.37391 0
M  V30 819 C 78.3803 0.741286 -3.69028 0
M  V30 820 C 77.5273 -0.137937 -2.76957 0
M  V30 821 H 80.4783 -0.542335 -1.49146 0
M  V30 822 H 80.4993 1.13984 -3.63026 0
M  V30 823 H 80.0113 -0.674809 -3.82188 0
M  V30 824 H 78.1123 1.73458 -3.29762 0
M  V30 825 H 78.2253 0.546118 -4.75977 0
M  V30 826 H 76.5893 0.386251 -2.51754 0
M  V30 827 H 77.3723 -1.11816 -3.2458 0
M  V30 828 N 79.8174 1.5752 -0.0501392 0
M  V30 829 C 80.7504 2.07026 0.959962 0
M  V30 830 C 81.7284 0.970539 1.30458 0
M  V30 831 O 82.9124 1.2424 1.41763 0
M  V30 832 C 80.0394 2.5099 2.27424 0
M  V30 833 C 79.0854 3.72188 2.08275 0
M  V30 834 S 79.9184 5.17888 1.36207 0
M  V30 835 C 81.0744 5.65165 2.6896 0
M  V30 836 H 81.3074 2.9238 0.538631 0
M  V30 837 H 78.8404 1.53547 0.162099 0
M  V30 838 H 80.7984 2.76982 3.02971 0
M  V30 839 H 79.4594 1.65944 2.66686 0
M  V30 840 H 78.6524 4.00866 3.05487 0
M  V30 841 H 78.2544 3.46457 1.40868 0
M  V30 842 H 80.5464 5.70687 3.65133 0
M  V30 843 H 81.4894 6.64394 2.4492 0
M  V30 844 H 81.8974 4.9289 2.75172 0
M  V30 845 N 81.2955 -0.223234 1.56011 0
M  V30 846 C 82.2585 -1.26014 1.9145 0
M  V30 847 C 83.2585 -1.3989 0.792937 0
M  V30 848 O 84.4485 -1.38184 1.0607 0
M  V30 849 C 81.5805 -2.63422 2.16383 0
M  V30 850 H 82.7735 -0.95796 2.84189 0
M  V30 851 H 80.3265 -0.463576 1.49267 0
M  V30 852 H 81.0615 -2.98741 1.2619 0
M  V30 853 H 80.8465 -2.54728 2.98088 0
M  V30 854 H 82.3365 -3.38249 2.44903 0
M  V30 855 N 82.7736 -1.49793 -0.48987 0
M  V30 856 C 83.7036 -1.70201 -1.59856 0
M  V30 857 C 84.6846 -0.55076 -1.60937 0
M  V30 858 O 85.8696 -0.787841 -1.77501 0
M  V30 859 C 82.9996 -1.77882 -2.98287 0
M  V30 860 C 81.9536 -2.92907 -3.12073 0
M  V30 861 C 81.2796 -2.85712 -4.51965 0
M  V30 862 C 82.5796 -4.3369 -2.91051 0
M  V30 863 H 84.2736 -2.63025 -1.43032 0
M  V30 864 H 81.8196 -1.26574 -0.686664 0
M  V30 865 H 83.7726 -1.90744 -3.75759 0
M  V30 866 H 82.4966 -0.816653 -3.16225 0
M  V30 867 H 81.1556 -2.79665 -2.37029 0
M  V30 868 H 80.8036 -1.8738 -4.66795 0
M  V30 869 H 80.5036 -3.62921 -4.62128 0
M  V30 870 H 82.0276 -3.00598 -5.31482 0
M  V30 871 H 83.4416 -4.47555 -3.58284 0
M  V30 872 H 81.8386 -5.12205 -3.12675 0
M  V30 873 H 82.9086 -4.47362 -1.87071 0
M  V30 874 N 84.2517 0.741722 -1.39055 0
M  V30 875 C 85.1617 1.88621 -1.39496 0
M  V30 876 C 86.1777 1.71557 -0.290578 0
M  V30 877 O 87.3537 1.94275 -0.530954 0
M  V30 878 C 84.4187 3.24134 -1.23037 0
M  V30 879 C 83.4797 3.5364 -2.43387 0
M  V30 880 C 82.7127 4.82687 -2.27703 0
M  V30 881 O 82.9357 5.55922 -1.27696 0
M  V30 882 O 81.8697 5.1194 -3.16545 0
M  V30 883 H 85.6957 1.91203 -2.35956 0
M  V30 884 H 83.2807 0.888625 -1.20099 0
M  V30 885 H 85.1627 4.0513 -1.15964 0
M  V30 886 H 83.8377 3.22337 -0.296691 0
M  V30 887 H 82.7447 2.72758 -2.56035 0
M  V30 888 H 84.0777 3.60209 -3.35425 0
M  V30 889 N 85.7298 1.2412 0.971189 0
M  V30 890 C 86.6598 1.05508 2.08304 0
M  V30 891 C 87.6408 -0.0308864 1.70072 0
M  V30 892 O 88.8258 0.135521 1.93727 0
M  V30 893 C 85.9558 0.655365 3.4106 0
M  V30 894 C 84.9098 1.68971 3.93234 0
M  V30 895 C 84.2358 1.14516 5.22293 0
M  V30 896 C 85.5358 3.08487 4.21465 0
M  V30 897 H 87.2298 1.98507 2.24132 0
M  V30 898 H 84.7758 0.955821 1.07704 0
M  V30 899 H 86.7288 0.51217 4.18276 0
M  V30 900 H 85.4528 -0.31032 3.25122 0
M  V30 901 H 84.1118 1.82106 3.18171 0
M  V30 902 H 83.7598 0.170189 5.02712 0
M  V30 903 H 83.4598 1.83635 5.58168 0
M  V30 904 H 84.9838 1.01401 6.02121 0
M  V30 905 H 86.3978 2.98601 4.89398 0
M  V30 906 H 84.7948 3.74926 4.68562 0
M  V30 907 H 85.8648 3.56787 3.28376 0
M  V30 908 N 87.2079 -1.17134 1.05439 0
M  V30 909 C 88.1409 -2.2012 0.601855 0
M  V30 910 C 89.1189 -1.58314 -0.370854 0
M  V30 911 O 90.3029 -1.8638 -0.281882 0
M  V30 912 C 87.4299 -3.38491 -0.118868 0
M  V30 913 C 86.4759 -4.18752 0.809242 0
M  V30 914 S 87.3089 -4.83602 2.29977 0
M  V30 915 C 88.4649 -6.0536 1.59029 0
M  V30 916 H 88.6979 -2.58165 1.47438 0
M  V30 917 H 86.2309 -1.27788 0.866573 0
M  V30 918 H 88.1889 -4.07084 -0.528495 0
M  V30 919 H 86.8499 -2.98829 -0.967465 0
M  V30 920 H 86.0429 -5.03373 0.251379 0
M  V30 921 H 85.6449 -3.5561 1.15835 0
M  V30 922 H 87.9369 -6.71615 0.891017 0
M  V30 923 H 88.8799 -6.65679 2.41407 0
M  V30 924 H 89.2879 -5.54138 1.07663 0
M  V30 925 N 88.686 -0.835752 -1.33615 0
M  V30 926 C 89.914 -0.443344 -2.02094 0
M  V30 927 C 90.329 0.954522 -1.62894 0
M  V30 928 O 89.686 1.61982 -0.840723 0
M  V30 929 C 89.737 -0.550775 -3.5728 0
M  V30 930 O 89.458 -1.89356 -3.95065 0
M  V30 931 C 90.959 -0.154919 -4.43029 0
M  V30 932 H 88.179 -0.176359 -0.647409 0
M  V30 933 H 90.723 -1.12746 -1.70612 0
M  V30 934 H 88.878 0.0853997 -3.87306 0
M  V30 935 H 89.292 -1.87687 -4.89769 0
M  V30 936 H 90.766 -0.281144 -5.51284 0
M  V30 937 H 91.243 0.902863 -4.2982 0
M  V30 938 H 91.849 -0.765404 -4.18356 0
M  V30 939 N 90.1641 1.46063 -0.591896 0
M  V30 940 C 91.4101 2.02638 -0.0811191 0
M  V30 941 C 91.7431 1.4613 1.27905 0
M  V30 942 O 91.0181 0.629908 1.84017 0
M  V30 943 C 91.3011 3.60091 -0.0252436 0
M  V30 944 C 91.1541 4.26965 -1.41496 0
M  V30 945 C 92.4731 4.3496 0.670685 0
M  V30 946 H 89.5921 0.73635 -0.0309524 0
M  V30 947 H 92.2341 1.741 -0.760859 0
M  V30 948 H 90.3841 3.84535 0.553624 0
M  V30 949 H 92.0561 4.13756 -2.0397 0
M  V30 950 H 90.2991 3.85971 -1.98011 0
M  V30 951 H 90.9701 5.35781 -1.32825 0
M  V30 952 H 93.4461 4.15716 0.178825 0
M  V30 953 H 92.3221 5.44686 0.678837 0
M  V30 954 H 92.5831 4.06685 1.73379 0
M  V30 955 N 91.6422 0.330177 1.54103 0
M  V30 956 C 92.5722 -0.525353 2.27513 0
M  V30 957 C 93.5532 -1.11383 1.2856 0
M  V30 958 O 94.7382 -1.13773 1.57383 0
M  V30 959 C 91.8682 -1.6831 3.03791 0
M  V30 960 C 90.8222 -1.2236 4.10137 0
M  V30 961 C 90.1482 -2.46882 4.74293 0
M  V30 962 C 91.4482 -0.333697 5.21233 0
M  V30 963 H 93.1422 0.087013 2.99274 0
M  V30 964 H 90.6882 0.0432893 1.43935 0
M  V30 965 H 92.6412 -2.28795 3.5388 0
M  V30 966 H 91.3652 -2.32216 2.29659 0
M  V30 967 H 90.0242 -0.64165 3.60941 0
M  V30 968 H 89.6722 -3.09165 3.96769 0
M  V30 969 H 89.3722 -2.16825 5.46133 0
M  V30 970 H 90.8962 -3.08117 5.27159 0
M  V30 971 H 92.3102 -0.845013 5.67038 0
M  V30 972 H 90.7072 -0.125612 5.99969 0
M  V30 973 H 91.7772 0.633724 4.80741 0
M  V30 974 N 93.1203 -1.57491 0.0584922 0
M  V30 975 C 94.3663 -1.93264 -0.614558 0
M  V30 976 C 94.6993 -0.937717 -1.7006 0
M  V30 977 O 93.9743 0.0351652 -1.94468 0
M  V30 978 C 94.2573 -3.3938 -1.20386 0
M  V30 979 C 94.1103 -4.49625 -0.125375 0
M  V30 980 C 95.4293 -3.86039 -2.11334 0
M  V30 981 H 92.5483 -0.702791 -0.221933 0
M  V30 982 H 95.1903 -1.8961 0.12175 0
M  V30 983 H 93.3403 -3.42626 -1.83139 0
M  V30 984 H 95.0123 -4.58506 0.506971 0
M  V30 985 H 93.2553 -4.30354 0.545672 0
M  V30 986 H 93.9263 -5.48967 -0.577861 0
M  V30 987 H 96.4023 -3.84716 -1.58534 0
M  V30 988 H 95.2783 -4.88914 -2.49507 0
M  V30 989 H 95.5393 -3.23215 -3.01636 0
M  V30 990 N 94.5984 0.214957 -1.56127 0
M  V30 991 C 95.8464 0.936518 -1.79091 0
M  V30 992 C 96.1674 1.84606 -0.628148 0
M  V30 993 O 95.4374 1.92664 0.35462 0
M  V30 994 H 94.0174 0.3488 -0.660566 0
M  V30 995 H 96.6794 0.22523 -1.93594 0
M  V30 996 H 95.7754 1.53943 -2.71492 0
M  V30 997 N 96.0765 1.50051 0.48192 0
M  V30 998 C 97.3015 1.64508 1.26301 0
M  V30 999 C 97.7265 0.323851 1.85291 0
M  V30 1000 O 97.0845 -0.710969 1.66778 0
M  V30 1001 C 97.1325 2.7305 2.35533 0
M  V30 1002 O 96.2365 2.3355 3.39895 0
M  V30 1003 H 95.5775 0.549978 0.372048 0
M  V30 1004 H 98.1075 1.9636 0.574786 0
M  V30 1005 H 98.1175 2.95799 2.8101 0
M  V30 1006 H 96.7925 3.68946 1.91967 0
M  V30 1007 H 95.3695 2.21205 3.00204 0
M  V30 1008 N 97.5546 -0.734337 1.39446 0
M  V30 1009 C 98.9656 -1.31264 1.32766 0
M  V30 1010 C 99.3166 -1.96198 -0.00767497 0
M  V30 1011 O 98.4416 -1.96346 -0.909796 0
M  V30 1012 C 99.0366 -2.38682 2.4045 0
M  V30 1013 C 97.5956 -2.92184 2.37288 0
M  V30 1014 C 96.7426 -1.6576 2.22304 0
M  V30 1015 H 99.6936 -0.531799 1.49525 0
M  V30 1016 H 99.7146 -3.19087 2.07276 0
M  V30 1017 H 99.2266 -1.91392 3.37625 0
M  V30 1018 H 97.3276 -3.43752 1.43754 0
M  V30 1019 H 97.4406 -3.45253 3.3217 0
M  V30 1020 H 95.8046 -1.9012 1.69489 0
M  V30 1021 H 96.5876 -1.20521 3.21449 0
M  V30 1022 N 99.0327 -1.24633 -0.964593 0
M  V30 1023 C 100.449 -1.01239 -1.2338 0
M  V30 1024 C 100.649 0.2769 -1.99588 0
M  V30 1025 O 99.7047 0.992241 -2.32187 0
M  V30 1026 C 101.018 -2.22937 -2.01791 0
M  V30 1027 C 102.566 -2.27594 -2.14872 0
M  V30 1028 C 103.041 -3.48921 -2.96678 0
M  V30 1029 N 104.532 -3.49257 -3.04259 0
M  V30 1030 C 105.267 -4.39795 -3.67924 0
M  V30 1031 N 104.763 -5.40591 -4.33281 0
M  V30 1032 N 106.556 -4.275 -3.64966 0
M  V30 1033 H 98.7067 -2.0748 -0.454502 0
M  V30 1034 H 100.97 -0.910647 -0.26349 0
M  V30 1035 H 100.676 -3.16587 -1.53184 0
M  V30 1036 H 100.55 -2.25306 -3.02518 0
M  V30 1037 H 102.937 -1.34473 -2.6268 0
M  V30 1038 H 103.018 -2.2925 -1.13482 0
M  V30 1039 H 102.662 -4.42359 -2.49562 0
M  V30 1040 H 102.592 -3.4451 -3.98272 0
M  V30 1041 H 105.083 -2.76337 -2.57771 0
M  V30 1042 H 105.396 -6.05904 -4.79687 0
M  V30 1043 H 103.741 -5.44475 -4.3194 0
M  V30 1044 H 106.932 -3.47987 -3.13086 0
M  V30 1045 H 107.105 -4.98258 -4.14298 0
M  V30 1046 N 100.511 1.16574 -1.06058 0
M  V30 1047 C 101.458 2.20883 -0.669263 0
M  V30 1048 C 102.428 1.62729 0.332918 0
M  V30 1049 O 103.613 1.895 0.222346 0
M  V30 1050 C 100.753 3.45049 -0.0593572 0
M  V30 1051 C 99.8658 4.17458 -1.11143 0
M  V30 1052 C 99.0008 5.29135 -0.467916 0
M  V30 1053 C 98.0398 5.93343 -1.50369 0
M  V30 1054 N 97.1768 6.96516 -0.883706 0
M  V30 1055 H 102.017 2.53709 -1.5632 0
M  V30 1056 H 99.5538 1.24616 -0.781625 0
M  V30 1057 H 101.512 4.16033 0.311771 0
M  V30 1058 H 100.142 3.12781 0.797992 0
M  V30 1059 H 99.1938 3.45101 -1.60029 0
M  V30 1060 H 100.506 4.61307 -1.89731 0
M  V30 1061 H 99.6598 6.06684 -0.0436871 0
M  V30 1062 H 98.3988 4.86443 0.349864 0
M  V30 1063 H 97.4038 5.14517 -1.93784 0
M  V30 1064 H 98.6288 6.38114 -2.32352 0
M  V30 1065 H 96.5748 6.55943 -0.086595 0
M  V30 1066 H 96.4918 7.38723 -1.607 0
M  V30 1067 H 97.7598 7.77993 -0.484543 0
M  V30 1068 N 101.989 0.842826 1.3317 0
M  V30 1069 C 103.266 0.362216 1.92217 0
M  V30 1070 C 103.646 -1.15289 1.76838 0
M  V30 1071 O 102.994 -1.96914 1.15919 0
M  V30 1072 C 103.204 0.813495 3.39387 0
M  V30 1073 C 104.552 0.823804 4.16532 0
M  V30 1074 O 105.576 0.757358 3.48055 0
M  V30 1075 O 104.435 0.915193 5.38782 0
M  V30 1076 H 101.529 0.103317 0.820521 0
M  V30 1077 H 104.075 0.928942 1.42017 0
M  V30 1078 H 102.847 1.85624 3.4447 0
M  V30 1079 H 102.47 0.223561 3.96971 0
M  V30 1080 N 103.467 -1.45747 0.599634 0
M  V30 1081 C 104.715 -2.01893 0.0915472 0
M  V30 1082 C 105.036 -1.47155 -1.27946 0
M  V30 1083 O 104.306 -0.66273 -1.84349 0
M  V30 1084 H 102.886 -0.746363 0.0308524 0
M  V30 1085 H 105.548 -1.78645 0.779237 0
M  V30 1086 H 104.644 -3.1208 0.0353086 0
M  V30 1087 N 104.945 -0.338344 -1.53925 0
M  V30 1088 C 105.875 0.51328 -2.27789 0
M  V30 1089 C 106.856 1.107 -1.29149 0
M  V30 1090 O 108.041 1.12937 -1.57984 0
M  V30 1091 C 105.171 1.66697 -3.04679 0
M  V30 1092 C 104.125 1.20183 -4.1078 0
M  V30 1093 C 103.451 2.44363 -4.75595 0
M  V30 1094 C 104.751 0.30605 -5.21403 0
M  V30 1095 H 106.445 -0.102883 -2.99223 0
M  V30 1096 H 103.991 -0.0509219 -1.4391 0
M  V30 1097 H 105.944 2.26915 -3.55088 0
M  V30 1098 H 104.668 2.30995 -2.30887 0
M  V30 1099 H 103.327 0.622499 -3.61276 0
M  V30 1100 H 102.975 3.07057 -3.98403 0
M  V30 1101 H 102.675 2.13925 -5.47275 0
M  V30 1102 H 104.199 3.05317 -5.28786 0
M  V30 1103 H 105.613 0.814929 -5.67478 0
M  V30 1104 H 104.01 0.0937929 -6.00027 0
M  V30 1105 H 105.08 -0.65921 -4.80398 0
M  V30 1106 N 106.423 1.57458 -0.0668435 0
M  V30 1107 C 107.669 1.93587 0.6043 0
M  V30 1108 C 108.002 0.946722 1.69561 0
M  V30 1109 O 107.277 -0.0248516 1.94484 0
M  V30 1110 C 107.56 3.40014 1.18585 0
M  V30 1111 C 107.413 4.49685 0.101529 0
M  V30 1112 C 108.732 3.87154 2.09284 0
M  V30 1113 H 105.851 0.703958 0.218202 0
M  V30 1114 H 108.493 1.89542 -0.131804 0
M  V30 1115 H 106.643 3.43592 1.81319 0
M  V30 1116 H 108.315 4.5823 -0.531279 0
M  V30 1117 H 106.558 4.30059 -0.568487 0
M  V30 1118 H 107.229 5.49266 0.54874 0
M  V30 1119 H 109.705 3.85551 1.56491 0
M  V30 1120 H 108.581 4.90231 2.46911 0
M  V30 1121 H 108.842 3.2481 2.99918 0
M  V30 1122 N 107.901 -0.206675 1.56239 0
M  V30 1123 C 109.126 -0.949474 1.8439 0
M  V30 1124 C 109.551 -1.76549 0.649016 0
M  V30 1125 O 108.909 -1.76782 -0.402231 0
M  V30 1126 C 108.957 -1.83078 3.10668 0
M  V30 1127 O 108.061 -2.9281 2.90407 0
M  V30 1128 H 107.402 -0.268033 0.607499 0
M  V30 1129 H 109.932 -0.215488 2.03462 0
M  V30 1130 H 109.942 -2.2377 3.41161 0
M  V30 1131 H 108.617 -1.23112 3.97261 0
M  V30 1132 H 107.194 -2.55956 2.71184 0
M  V30 1133 N 109.379 -1.50304 -0.473955 0
M  V30 1134 C 110.309 -1.71886 -1.58042 0
M  V30 1135 C 111.29 -0.567799 -1.60344 0
M  V30 1136 O 112.475 -0.806623 -1.76656 0
M  V30 1137 C 109.605 -1.81036 -2.96384 0
M  V30 1138 C 108.559 -2.962 -3.08949 0
M  V30 1139 C 107.885 -2.9049 -4.48909 0
M  V30 1140 C 109.185 -4.36752 -2.86434 0
M  V30 1141 H 110.879 -2.64527 -1.40234 0
M  V30 1142 H 108.425 -1.27295 -0.673201 0
M  V30 1143 H 110.378 -1.94719 -3.73714 0
M  V30 1144 H 109.102 -0.850147 -3.15341 0
M  V30 1145 H 107.761 -2.82164 -2.3405 0
M  V30 1146 H 107.409 -1.92321 -4.64781 0
M  V30 1147 H 107.109 -3.67802 -4.58253 0
M  V30 1148 H 108.633 -3.06218 -5.28264 0
M  V30 1149 H 110.047 -4.5133 -3.53517 0
M  V30 1150 H 108.444 -5.15493 -3.07225 0
M  V30 1151 H 109.514 -4.49321 -1.82316 0
M  V30 1152 N 110.857 0.726932 -1.39834 0
M  V30 1153 C 111.787 1.85405 -1.41941 0
M  V30 1154 C 112.768 1.67751 -0.281728 0
M  V30 1155 O 113.953 1.8795 -0.488717 0
M  V30 1156 C 111.083 3.23243 -1.2701 0
M  V30 1157 C 110.037 3.55549 -2.38262 0
M  V30 1158 C 109.363 4.9241 -2.08415 0
M  V30 1159 C 110.663 3.577 -3.80589 0
M  V30 1160 H 112.357 1.83899 -2.36266 0
M  V30 1161 H 109.903 0.883349 -1.13723 0
M  V30 1162 H 111.856 4.01775 -1.27103 0
M  V30 1163 H 110.58 3.25296 -0.291564 0
M  V30 1164 H 109.239 2.79351 -2.37399 0
M  V30 1165 H 108.887 4.91052 -1.0898 0
M  V30 1166 H 108.587 5.14992 -2.82943 0
M  V30 1167 H 110.111 5.73289 -2.10171 0
M  V30 1168 H 111.525 4.26293 -3.83337 0
M  V30 1169 H 109.922 3.91804 -4.54543 0
M  V30 1170 H 110.992 2.57328 -4.10987 0
M  V30 1171 N 112.336 1.25143 0.95797 0
M  V30 1172 C 113.564 1.12424 1.73691 0
M  V30 1173 C 113.979 -0.322304 1.86029 0
M  V30 1174 O 113.336 -1.22186 1.35561 0
M  V30 1175 C 113.387 1.76933 3.15241 0
M  V30 1176 O 113.108 3.15932 3.03511 0
M  V30 1177 C 114.609 1.6995 4.09429 0
M  V30 1178 H 111.829 0.3923 0.544373 0
M  V30 1179 H 114.373 1.6544 1.20207 0
M  V30 1180 H 112.528 1.27895 3.6568 0
M  V30 1181 H 112.942 3.47598 3.9278 0
M  V30 1182 H 114.416 2.19753 5.06372 0
M  V30 1183 H 114.893 0.662619 4.34173 0
M  V30 1184 H 115.499 2.18461 3.64904 0
M  V30 1185 N 113.814 -1.1601 1.06675 0
M  V30 1186 C 115.042 -1.90527 0.806667 0
M  V30 1187 C 115.457 -1.77643 -0.639396 0
M  V30 1188 O 114.814 -1.12369 -1.43803 0
M  V30 1189 C 114.865 -3.41106 1.19705 0
M  V30 1190 O 114.586 -3.53608 2.58636 0
M  V30 1191 C 116.087 -4.32663 0.965266 0
M  V30 1192 H 113.307 -0.604053 0.292166 0
M  V30 1193 H 115.851 -1.47026 1.4214 0
M  V30 1194 H 114.006 -3.82296 0.626774 0
M  V30 1195 H 114.42 -4.47011 2.74375 0
M  V30 1196 H 115.894 -5.36763 1.288 0
M  V30 1197 H 116.371 -4.39089 -0.0987936 0
M  V30 1198 H 116.977 -3.97206 1.52011 0
M  V30 1199 N 115.292 -0.849877 -1.32721 0
M  V30 1200 C 116.517 -0.463856 -2.02146 0
M  V30 1201 C 116.942 0.930449 -1.63476 0
M  V30 1202 O 116.3 1.61033 -0.832952 0
M  V30 1203 C 116.348 -0.604955 -3.55489 0
M  V30 1204 O 115.452 0.36425 -4.10788 0
M  V30 1205 H 114.793 -0.187046 -0.637111 0
M  V30 1206 H 117.323 -1.14775 -1.69375 0
M  V30 1207 H 117.333 -0.490696 -4.05038 0
M  V30 1208 H 116.008 -1.62174 -3.82978 0
M  V30 1209 H 114.585 0.206628 -3.72327 0
M  V30 1210 N 116.77 1.45427 -0.607355 0
M  V30 1211 C 117.68 2.34325 0.113463 0
M  V30 1212 C 118.696 1.51226 0.860617 0
M  V30 1213 O 119.872 1.84029 0.818255 0
M  V30 1214 C 116.937 3.28839 1.09844 0
M  V30 1215 C 115.998 4.27844 0.353271 0
M  V30 1216 C 115.231 5.17842 1.29133 0
M  V30 1217 O 115.454 5.11264 2.52913 0
M  V30 1218 O 114.388 5.96713 0.788523 0
M  V30 1219 H 118.214 2.97364 -0.617094 0
M  V30 1220 H 115.799 1.44807 -0.367619 0
M  V30 1221 H 117.681 3.8708 1.66575 0
M  V30 1222 H 116.356 2.68365 1.81003 0
M  V30 1223 H 115.263 3.7322 -0.256494 0
M  V30 1224 H 116.596 4.91173 -0.317822 0
M  V30 1225 N 118.248 0.346503 1.53744 0
M  V30 1226 C 119.496 -0.248612 2.00565 0
M  V30 1227 C 119.817 -1.5083 1.23593 0
M  V30 1228 O 119.087 -1.92858 0.343912 0
M  V30 1229 H 117.667 -0.0948564 0.740953 0
M  V30 1230 H 120.329 0.468341 1.89189 0
M  V30 1231 H 119.425 -0.488994 3.08245 0
M  V30 1232 N 119.726 -1.57421 0.075193 0
M  V30 1233 C 120.689 -2.11791 -0.876203 0
M  V30 1234 C 121.689 -1.04268 -1.22412 0
M  V30 1235 O 122.879 -1.30242 -1.15684 0
M  V30 1236 C 120.011 -2.62207 -2.17854 0
M  V30 1237 H 121.204 -2.9716 -0.40444 0
M  V30 1238 H 118.757 -1.55333 -0.173557 0
M  V30 1239 H 119.492 -1.803 -2.6956 0
M  V30 1240 H 119.277 -3.40802 -1.93897 0
M  V30 1241 H 120.767 -3.04335 -2.85955 0
M  V30 1242 N 121.204 0.198386 -1.56346 0
M  V30 1243 C 122.481 0.944982 -1.71258 0
M  V30 1244 C 122.861 2.0151 -0.629048 0
M  V30 1245 O 122.209 2.25639 0.360473 0
M  V30 1246 C 122.419 1.5344 -3.1346 0
M  V30 1247 C 123.767 2.01778 -3.73591 0
M  V30 1248 O 124.791 1.63288 -3.16568 0
M  V30 1249 O 123.65 2.72594 -4.73661 0
M  V30 1250 H 120.744 0.442939 -0.69838 0
M  V30 1251 H 123.29 0.188342 -1.68652 0
M  V30 1252 H 122.062 0.762869 -3.83792 0
M  V30 1253 H 121.685 2.35596 -3.20282 0
M  V30 1254 N 122.682 1.50554 0.465978 0
M  V30 1255 C 123.592 1.72585 1.58907 0
M  V30 1256 C 124.608 0.60911 1.6299 0
M  V30 1257 O 125.784 0.88804 1.80765 0
M  V30 1258 C 122.849 1.81995 2.95091 0
M  V30 1259 C 121.91 3.05751 3.01355 0
M  V30 1260 C 121.143 3.14702 4.31043 0
M  V30 1261 O 121.366 2.30313 5.21835 0
M  V30 1262 O 120.3 4.07468 4.43005 0
M  V30 1263 H 124.126 2.67799 1.43239 0
M  V30 1264 H 121.711 1.34711 0.646013 0
M  V30 1265 H 123.593 1.90335 3.75966 0
M  V30 1266 H 122.268 0.899659 3.10947 0
M  V30 1267 H 121.175 3.02908 2.19539 0
M  V30 1268 H 122.508 3.97375 2.90437 0
M  V30 1269 N 124.16 -0.719506 1.40217 0
M  V30 1270 C 125.571 -1.29848 1.34151 0
M  V30 1271 C 125.922 -1.96196 0.0131349 0
M  V30 1272 O 125.047 -1.973 -0.88892 0
M  V30 1273 C 125.642 -2.36118 2.42968 0
M  V30 1274 C 124.201 -2.8965 2.40374 0
M  V30 1275 C 123.348 -1.63393 2.24049 0
M  V30 1276 H 126.299 -0.51591 1.5008 0
M  V30 1277 H 126.32 -3.16871 2.10649 0
M  V30 1278 H 125.832 -1.878 3.39636 0
M  V30 1279 H 123.933 -3.42208 1.47392 0
M  V30 1280 H 124.046 -3.4171 3.35814 0
M  V30 1281 H 122.41 -1.88312 1.71495 0
M  V30 1282 H 123.193 -1.17104 3.2271 0
M  V30 1283 N 125.638 -1.25649 -0.95132 0
M  V30 1284 C 126.57 -1.02112 -2.05197 0
M  V30 1285 C 127.583 0.0150571 -1.62793 0
M  V30 1286 O 128.772 -0.223874 -1.77091 0
M  V30 1287 C 125.872 -0.522361 -3.3485 0
M  V30 1288 C 125.045 -1.62546 -4.06076 0
M  V30 1289 C 124.104 -1.12649 -5.14001 0
M  V30 1290 O 123.13 -1.82156 -5.39266 0
M  V30 1291 N 124.332 0.03047 -5.80492 0
M  V30 1292 H 127.097 -1.96885 -2.25957 0
M  V30 1293 H 124.658 -1.16899 -1.1201 0
M  V30 1294 H 126.65 -0.172961 -4.0433 0
M  V30 1295 H 125.22 0.33151 -3.10837 0
M  V30 1296 H 124.44 -2.14628 -3.30649 0
M  V30 1297 H 125.728 -2.36644 -4.50419 0
M  V30 1298 H 125.126 0.611169 -5.62389 0
M  V30 1299 H 123.683 0.320875 -6.5101 0
M  V30 1300 N 127.117 1.15442 -1.07289 0
M  V30 1301 C 128.533 1.38201 -0.798288 0
M  V30 1302 C 128.733 1.92429 0.597769 0
M  V30 1303 O 127.789 2.12962 1.3566 0
M  V30 1304 C 129.102 2.35357 -1.87156 0
M  V30 1305 C 130.65 2.49021 -1.89624 0
M  V30 1306 C 131.125 3.49468 -2.96034 0
M  V30 1307 N 132.616 3.57003 -2.95132 0
M  V30 1308 C 133.351 4.34543 -3.74112 0
M  V30 1309 N 132.847 5.15421 -4.6294 0
M  V30 1310 N 134.64 4.29625 -3.62462 0
M  V30 1311 H 126.791 0.78584 -1.97328 0
M  V30 1312 H 129.054 0.408065 -0.855679 0
M  V30 1313 H 128.76 2.02626 -2.87464 0
M  V30 1314 H 128.634 3.35129 -1.73114 0
M  V30 1315 H 131.021 2.81051 -0.899687 0
M  V30 1316 H 131.102 1.4925 -2.07745 0
M  V30 1317 H 130.746 3.18173 -3.95889 0
M  V30 1318 H 130.676 4.48992 -2.75161 0
M  V30 1319 H 133.167 2.99276 -2.30743 0
M  V30 1320 H 133.48 5.7183 -5.19837 0
M  V30 1321 H 131.825 5.14729 -4.66989 0
M  V30 1322 H 135.016 3.65505 -2.92444 0
M  V30 1323 H 135.189 4.89807 -4.24256 0
M  V30 1324 N 128.595 0.856903 1.32268 0
M  V30 1325 C 129.525 0.31858 2.31316 0
M  V30 1326 C 130.506 -0.583487 1.59779 0
M  V30 1327 O 131.691 -0.503259 1.87566 0
M  V30 1328 C 128.821 -0.491979 3.43798 0
M  V30 1329 C 127.775 0.315849 4.26833 0
M  V30 1330 C 127.101 -0.619586 5.31098 0
M  V30 1331 C 128.401 1.54282 4.98993 0
M  V30 1332 H 130.095 1.14621 2.76591 0
M  V30 1333 H 127.641 0.552613 1.32974 0
M  V30 1334 H 129.594 -0.879012 4.1213 0
M  V30 1335 H 128.318 -1.35299 2.97257 0
M  V30 1336 H 126.977 0.684664 3.6015 0
M  V30 1337 H 126.625 -1.47751 4.8081 0
M  V30 1338 H 126.325 -0.0830621 5.87541 0
M  V30 1339 H 127.849 -1.00375 6.02293 0
M  V30 1340 H 129.263 1.22796 5.59995 0
M  V30 1341 H 127.66 2.01745 5.65172 0
M  V30 1342 H 128.73 2.30285 4.26728 0
M  V30 1343 N 130.073 -1.45103 0.615059 0
M  V30 1344 C 131.005 -2.28786 -0.13762 0
M  V30 1345 C 132.018 -1.40376 -0.824525 0
M  V30 1346 O 133.207 -1.64681 -0.688662 0
M  V30 1347 C 130.307 -3.16322 -1.21628 0
M  V30 1348 C 129.48 -4.33054 -0.615039 0
M  V30 1349 C 128.539 -5.01743 -1.58556 0
M  V30 1350 O 127.565 -5.58293 -1.10895 0
M  V30 1351 N 128.767 -5.01714 -2.91998 0
M  V30 1352 H 131.532 -2.94025 0.580483 0
M  V30 1353 H 129.093 -1.55373 0.45507 0
M  V30 1354 H 131.085 -3.59139 -1.86552 0
M  V30 1355 H 129.655 -2.52943 -1.83681 0
M  V30 1356 H 128.875 -3.93627 0.21245 0
M  V30 1357 H 130.163 -5.08431 -0.193704 0
M  V30 1358 H 129.561 -4.57075 -3.33316 0
M  V30 1359 H 128.118 -5.48371 -3.52325 0
M  V30 1360 N 131.551 -0.354651 -1.53558 0
M  V30 1361 C 132.798 0.238443 -2.01091 0
M  V30 1362 C 133.126 1.49663 -1.24222 0
M  V30 1363 O 132.381 1.93049 -0.321003 0
M  V30 1364 C 132.68 0.587121 -3.52545 0
M  V30 1365 C 132.346 -0.575472 -4.47213 0
M  V30 1366 C 131.008 -0.894497 -4.72813 0
M  V30 1367 C 133.36 -1.35489 -5.03281 0
M  V30 1368 C 130.688 -1.99511 -5.51736 0
M  V30 1369 C 133.04 -2.44583 -5.83405 0
M  V30 1370 C 131.704 -2.77033 -6.07296 0
M  V30 1371 H 130.974 0.0872526 -0.735845 0
M  V30 1372 H 133.621 -0.484859 -1.8526 0
M  V30 1373 H 131.926 1.39129 -3.66265 0
M  V30 1374 H 133.623 1.05809 -3.86789 0
M  V30 1375 H 130.213 -0.316774 -4.27428 0
M  V30 1376 H 134.397 -1.12167 -4.83459 0
M  V30 1377 H 129.653 -2.25063 -5.68469 0
M  V30 1378 H 133.827 -3.05401 -6.25862 0
M  V30 1379 H 131.454 -3.6244 -6.68237 0
M  V30 1380 N 133.029 1.57378 -0.0835403 0
M  V30 1381 C 134.44 1.81261 0.447358 0
M  V30 1382 C 134.791 0.998331 1.68902 0
M  V30 1383 O 133.916 0.224282 2.15235 0
M  V30 1384 C 134.511 3.28767 0.818386 0
M  V30 1385 C 133.07 3.53455 1.29409 0
M  V30 1386 C 132.217 2.75831 0.285024 0
M  V30 1387 H 135.168 1.5566 -0.309115 0
M  V30 1388 H 135.189 3.41459 1.67887 0
M  V30 1389 H 134.701 3.88006 -0.0855019 0
M  V30 1390 H 132.802 2.99534 2.21608 0
M  V30 1391 H 132.915 4.62128 1.2639 0
M  V30 1392 H 131.279 2.42947 0.764767 0
M  V30 1393 H 132.062 3.37813 -0.611341 0
M  V30 1394 N 134.507 -0.190092 1.56449 0
M  V30 1395 C 135.437 -1.23816 1.97969 0
M  V30 1396 C 136.418 -1.47201 0.852395 0
M  V30 1397 O 137.603 -1.58854 1.1171 0
M  V30 1398 C 134.733 -2.5813 2.3235 0
M  V30 1399 C 133.687 -2.49348 3.47864 0
M  V30 1400 C 133.013 -3.8798 3.67934 0
M  V30 1401 C 134.313 -2.01424 4.81898 0
M  V30 1402 H 136.007 -0.89311 2.85769 0
M  V30 1403 H 133.553 -0.428177 1.37487 0
M  V30 1404 H 135.506 -3.31637 2.59991 0
M  V30 1405 H 134.23 -2.94386 1.41438 0
M  V30 1406 H 132.889 -1.78297 3.20321 0
M  V30 1407 H 132.537 -4.21597 2.74344 0
M  V30 1408 H 132.237 -3.82978 4.45648 0
M  V30 1409 H 133.761 -4.63101 3.97957 0
M  V30 1410 H 135.175 -2.64693 5.08538 0
M  V30 1411 H 133.572 -2.07413 5.63116 0
M  V30 1412 H 134.642 -0.967677 4.75146 0
M  V30 1413 N 135.985 -1.50799 -0.457987 0
M  V30 1414 C 137.396 -1.55152 -1.0385 0
M  V30 1415 C 137.747 -0.362719 -1.92818 0
M  V30 1416 O 136.872 0.522915 -2.09987 0
M  V30 1417 C 137.467 -2.81173 -1.89017 0
M  V30 1418 C 136.026 -2.88164 -2.42154 0
M  V30 1419 C 135.173 -2.49591 -1.20829 0
M  V30 1420 H 138.124 -1.56874 -0.240068 0
M  V30 1421 H 138.145 -2.63769 -2.74238 0
M  V30 1422 H 137.657 -3.67677 -1.24238 0
M  V30 1423 H 135.758 -2.06042 -3.10447 0
M  V30 1424 H 135.871 -3.91356 -2.76364 0
M  V30 1425 H 134.235 -2.02322 -1.54719 0
M  V30 1426 H 135.018 -3.38418 -0.576927 0
M  V30 1427 N 137.463 0.71206 -1.40597 0
M  V30 1428 C 138.691 1.50111 -1.42388 0
M  V30 1429 C 139.106 1.88784 -0.0245395 0
M  V30 1430 O 138.463 1.55681 0.952351 0
M  V30 1431 C 138.514 2.7742 -2.31776 0
M  V30 1432 O 138.235 2.40382 -3.66262 0
M  V30 1433 C 139.736 3.7129 -2.42196 0
M  V30 1434 H 136.956 0.46314 -0.485533 0
M  V30 1435 H 139.5 0.878068 -1.8469 0
M  V30 1436 H 137.655 3.36001 -1.92827 0
M  V30 1437 H 138.069 3.22324 -4.13772 0
M  V30 1438 H 139.543 4.57448 -3.08943 0
M  V30 1439 H 140.02 4.14641 -1.44809 0
M  V30 1440 H 140.626 3.18619 -2.81712 0
M  V30 1441 N 138.941 1.26152 0.944643 0
M  V30 1442 C 139.904 1.07474 2.0244 0
M  V30 1443 C 140.904 0.0242064 1.60782 0
M  V30 1444 O 142.094 0.267302 1.72137 0
M  V30 1445 C 139.226 0.633956 3.34953 0
M  V30 1446 H 140.419 2.03336 2.20442 0
M  V30 1447 H 137.972 1.087 1.12312 0
M  V30 1448 H 138.707 -0.326811 3.22649 0
M  V30 1449 H 138.492 1.39247 3.66542 0
M  V30 1450 H 139.982 0.52501 4.14287 0
M  V30 1451 N 140.419 -1.14872 1.07899 0
M  V30 1452 C 141.351 -2.19425 0.662231 0
M  V30 1453 C 142.364 -1.60231 -0.288079 0
M  V30 1454 O 143.553 -1.78336 -0.076534 0
M  V30 1455 C 140.653 -3.38867 -0.0470695 0
M  V30 1456 C 139.826 -4.27597 0.920831 0
M  V30 1457 C 138.885 -5.25616 0.247805 0
M  V30 1458 O 137.911 -5.62189 0.890599 0
M  V30 1459 N 139.113 -5.71746 -1.00435 0
M  V30 1460 H 141.878 -2.55797 1.56166 0
M  V30 1461 H 139.439 -1.30042 0.964404 0
M  V30 1462 H 141.431 -4.01497 -0.50813 0
M  V30 1463 H 140.001 -3.00864 -0.848523 0
M  V30 1464 H 139.221 -3.61982 1.56087 0
M  V30 1465 H 140.509 -4.83748 1.57688 0
M  V30 1466 H 139.907 -5.44153 -1.54642 0
M  V30 1467 H 138.464 -6.36389 -1.40899 0
M  V30 1468 N 141.898 -0.863906 -1.31812 0
M  V30 1469 C 143.314 -0.555004 -1.49639 0
M  V30 1470 C 143.514 0.912266 -1.79666 0
M  V30 1471 O 142.57 1.69479 -1.87171 0
M  V30 1472 C 143.883 -1.44998 -2.63431 0
M  V30 1473 C 145.431 -1.45138 -2.77316 0
M  V30 1474 C 145.906 -2.33179 -3.94197 0
M  V30 1475 N 147.397 -2.31025 -4.01474 0
M  V30 1476 C 148.132 -2.95871 -4.9117 0
M  V30 1477 N 147.628 -3.69863 -5.8581 0
M  V30 1478 N 149.421 -2.85211 -4.84367 0
M  V30 1479 H 141.572 -1.81339 -1.10589 0
M  V30 1480 H 143.835 -0.77505 -0.545895 0
M  V30 1481 H 143.541 -2.49377 -2.48 0
M  V30 1482 H 143.415 -1.14409 -3.59431 0
M  V30 1483 H 145.802 -0.415201 -2.92164 0
M  V30 1484 H 145.883 -1.79747 -1.82001 0
M  V30 1485 H 145.527 -3.3687 -3.80107 0
M  V30 1486 H 145.457 -1.95897 -4.88807 0
M  V30 1487 H 147.948 -1.77238 -3.33759 0
M  V30 1488 H 148.261 -4.16486 -6.50968 0
M  V30 1489 H 146.606 -3.73971 -5.85808 0
M  V30 1490 H 149.797 -2.26948 -4.09405 0
M  V30 1491 H 149.97 -3.36027 -5.54066 0
M  V30 1492 N 143.376 1.44774 -0.622745 0
M  V30 1493 C 144.601 2.06999 -0.128968 0
M  V30 1494 C 145.026 1.4617 1.1839 0
M  V30 1495 O 144.384 0.560007 1.72434 0
M  V30 1496 C 144.432 3.60595 -0.0188351 0
M  V30 1497 O 143.536 3.99398 1.02739 0
M  V30 1498 H 142.877 0.659047 -0.0809544 0
M  V30 1499 H 145.407 1.85784 -0.85705 0
M  V30 1500 H 145.417 4.07627 0.174476 0
M  V30 1501 H 144.092 4.04252 -0.977384 0
M  V30 1502 H 142.669 3.64011 0.809326 0
M  V30 1503 N 144.854 0.36279 1.53368 0
M  V30 1504 C 145.784 -0.476976 2.28576 0
M  V30 1505 C 146.765 -1.08631 1.30894 0
M  V30 1506 O 147.95 -1.10409 1.59761 0
M  V30 1507 C 145.08 -1.61828 3.07293 0
M  V30 1508 C 144.034 -1.13633 4.1264 0
M  V30 1509 C 143.36 -2.36766 4.79423 0
M  V30 1510 C 144.66 -0.223061 5.21823 0
M  V30 1511 H 146.354 0.150474 2.99022 0
M  V30 1512 H 143.9 0.0738103 1.43811 0
M  V30 1513 H 145.853 -2.21237 3.58653 0
M  V30 1514 H 144.577 -2.27292 2.34533 0
M  V30 1515 H 143.236 -0.564945 3.62221 0
M  V30 1516 H 142.884 -3.0068 4.03238 0
M  V30 1517 H 142.584 -2.05192 5.50609 0
M  V30 1518 H 144.108 -2.96865 5.33576 0
M  V30 1519 H 145.522 -0.724545 5.68703 0
M  V30 1520 H 143.919 0.001678 6.001 0
M  V30 1521 H 144.989 0.735553 4.79289 0
M  V30 1522 N 146.332 -1.57332 0.0918853 0
M  V30 1523 C 147.242 -2.17368 -0.882505 0
M  V30 1524 C 148.258 -1.14226 -1.31257 0
M  V30 1525 O 149.434 -1.46582 -1.38115 0
M  V30 1526 C 146.499 -2.73962 -2.12476 0
M  V30 1527 C 145.56 -3.92048 -1.7492 0
M  V30 1528 C 144.793 -4.45933 -2.93223 0
M  V30 1529 O 145.016 -3.98764 -4.07852 0
M  V30 1530 O 143.95 -5.36999 -2.71875 0
M  V30 1531 H 147.776 -3.01031 -0.40172 0
M  V30 1532 H 145.361 -1.48813 -0.132291 0
M  V30 1533 H 147.243 -3.10147 -2.85283 0
M  V30 1534 H 145.918 -1.93347 -2.59613 0
M  V30 1535 H 144.825 -3.6068 -0.993025 0
M  V30 1536 H 146.158 -4.74017 -1.32548 0
M  V30 1537 N 147.81 0.181792 -1.56548 0
M  V30 1538 C 149.221 0.745244 -1.71181 0
M  V30 1539 C 149.572 1.83262 -0.70068 0
M  V30 1540 O 148.697 2.15946 0.140154 0
M  V30 1541 C 149.292 1.35859 -3.10367 0
M  V30 1542 C 147.851 1.86898 -3.2672 0
M  V30 1543 C 146.998 0.743942 -2.67134 0
M  V30 1544 H 149.949 -0.0434661 -1.5864 0
M  V30 1545 H 149.97 2.22817 -3.08436 0
M  V30 1546 H 149.482 0.566948 -3.83937 0
M  V30 1547 H 147.583 2.68738 -2.5809 0
M  V30 1548 H 147.696 2.02162 -4.34359 0
M  V30 1549 H 146.06 1.16169 -2.26665 0
M  V30 1550 H 146.843 -0.035676 -3.43281 0
M  V30 1551 N 149.288 1.51039 0.449983 0
M  V30 1552 C 150.536 1.62759 1.19808 0
M  V30 1553 C 150.857 0.339981 1.92013 0
M  V30 1554 O 150.127 -0.643606 1.85026 0
M  V30 1555 H 148.707 0.599811 0.445237 0
M  V30 1556 H 151.369 1.87914 0.517138 0
M  V30 1557 H 150.465 2.44911 1.93455 0
M  V30 1558 N 150.766 -0.704594 1.40972 0
M  V30 1559 C 151.994 -1.49354 1.43182 0
M  V30 1560 C 152.409 -1.88768 0.0345508 0
M  V30 1561 O 151.766 -1.56184 -0.944081 0
M  V30 1562 C 151.817 -2.76187 2.33244 0
M  V30 1563 O 151.538 -2.38436 3.67532 0
M  V30 1564 C 153.039 -3.7 2.44162 0
M  V30 1565 H 150.259 -0.460559 0.487982 0
M  V30 1566 H 152.803 -0.868261 1.85153 0
M  V30 1567 H 150.958 -3.34974 1.94606 0
M  V30 1568 H 151.372 -3.20126 4.15475 0
M  V30 1569 H 152.846 -4.55803 3.11364 0
M  V30 1570 H 153.323 -4.13867 1.47006 0
M  V30 1571 H 153.929 -3.17121 2.83398 0
M  V30 1572 N 152.244 -1.26651 -0.937939 0
M  V30 1573 C 153.655 -1.1125 -1.49934 0
M  V30 1574 C 154.006 0.306077 -1.93798 0
M  V30 1575 O 153.131 1.19792 -1.80219 0
M  V30 1576 C 153.726 -2.01339 -2.72485 0
M  V30 1577 C 152.285 -1.90074 -3.24883 0
M  V30 1578 C 151.432 -1.94498 -1.97651 0
M  V30 1579 H 154.383 -1.39693 -0.753091 0
M  V30 1580 H 154.404 -1.56319 -3.46907 0
M  V30 1581 H 153.916 -3.04577 -2.40529 0
M  V30 1582 H 152.017 -0.897827 -3.61621 0
M  V30 1583 H 152.13 -2.75778 -3.9177 0
M  V30 1584 H 150.494 -1.38591 -2.13693 0
M  V30 1585 H 151.277 -2.99372 -1.68022 0
M  V30 1586 N 153.722 1.14298 -1.08507 0
M  V30 1587 C 155.138 1.37347 -0.812901 0
M  V30 1588 C 155.338 1.93052 0.577325 0
M  V30 1589 O 154.394 2.14389 1.33393 0
M  V30 1590 C 155.707 2.33359 -1.89642 0
M  V30 1591 C 157.255 2.46996 -1.92255 0
M  V30 1592 C 157.73 3.46309 -2.99724 0
M  V30 1593 N 159.221 3.53853 -2.98902 0
M  V30 1594 C 159.956 4.3055 -3.787 0
M  V30 1595 N 159.452 5.10482 -4.6838 0
M  V30 1596 N 161.245 4.25757 -3.66998 0
M  V30 1597 H 153.396 0.764867 -1.9815 0
M  V30 1598 H 155.659 0.398966 -0.859959 0
M  V30 1599 H 155.365 1.99565 -2.89597 0
M  V30 1600 H 155.239 3.33274 -1.76659 0
M  V30 1601 H 157.626 2.80081 -0.929445 0
M  V30 1602 H 157.707 1.47039 -2.09316 0
M  V30 1603 H 157.351 3.13957 -3.99241 0
M  V30 1604 H 157.281 4.46049 -2.79907 0
M  V30 1605 H 159.772 2.96812 -2.33904 0
M  V30 1606 H 160.085 5.66284 -5.25873 0
M  V30 1607 H 158.43 5.09747 -4.72422 0
M  V30 1608 H 161.621 3.62383 -2.96304 0
M  V30 1609 H 161.794 4.85279 -4.29427 0
M  V30 1610 N 155.201 0.870884 1.31352 0
M  V30 1611 C 156.447 0.492314 1.97352 0
M  V30 1612 C 156.802 -0.945174 1.67583 0
M  V30 1613 O 156.095 -1.65674 0.962423 0
M  V30 1614 C 156.289 0.687157 3.50732 0
M  V30 1615 C 156.118 2.14203 3.95407 0
M  V30 1616 C 154.888 2.78382 4.21701 0
M  V30 1617 C 157.086 3.1144 4.09279 0
M  V30 1618 N 155.068 4.14611 4.52737 0
M  V30 1619 C 156.439 4.32702 4.44037 0
M  V30 1620 C 158.494 3.07418 3.91661 0
M  V30 1621 C 157.197 5.50463 4.63015 0
M  V30 1622 C 159.223 4.24438 4.11833 0
M  V30 1623 C 158.585 5.44463 4.46923 0
M  V30 1624 H 154.684 0.229206 0.747655 0
M  V30 1625 H 157.268 1.12568 1.5886 0
M  V30 1626 H 155.439 0.083384 3.8831 0
M  V30 1627 H 157.171 0.276883 4.03752 0
M  V30 1628 H 153.926 2.29326 4.14375 0
M  V30 1629 H 154.35 4.84928 4.72413 0
M  V30 1630 H 158.992 2.15732 3.6362 0
M  V30 1631 H 156.71 6.42666 4.89904 0
M  V30 1632 H 160.296 4.2278 3.99685 0
M  V30 1633 H 159.176 6.33504 4.62214 0
M  V30 1634 N 156.679 -1.44442 0.630414 0
M  V30 1635 C 157.642 -2.29107 -0.0652523 0
M  V30 1636 C 158.642 -1.41002 -0.772995 0
M  V30 1637 O 159.832 -1.62881 -0.617692 0
M  V30 1638 C 156.964 -3.22564 -1.10296 0
M  V30 1639 H 158.157 -2.92103 0.679401 0
M  V30 1640 H 155.71 -1.51343 0.390517 0
M  V30 1641 H 156.445 -2.64416 -1.87762 0
M  V30 1642 H 156.23 -3.87491 -0.59941 0
M  V30 1643 H 157.72 -3.86167 -1.5895 0
M  V30 1644 N 158.157 -0.370918 -1.53173 0
M  V30 1645 C 159.105 0.488101 -2.27421 0
M  V30 1646 C 160.099 1.07884 -1.30604 0
M  V30 1647 O 161.305 1.02143 -1.48212 0
M  V30 1648 H 157.68 0.176134 -0.731082 0
M  V30 1649 H 159.651 -0.159815 -2.97972 0
M  V30 1650 C 158.4 1.61306 -3.08019 0
M  V30 1651 H 157.723 1.1678 -3.82364 0
M  V30 1652 H 159.163 2.18872 -3.63141 0
M  V30 1653 C 157.622 2.55848 -2.19188 0
M  V30 1654 O 158.152 3.58799 -1.80626 0
M  V30 1655 N 156.358 2.2516 -1.83715 0
M  V30 1656 H 155.905 1.41476 -2.15273 0
M  V30 1657 H 155.863 2.8867 -1.24567 0
M  V30 1658 N 159.635 1.57281 -0.100228 0
M  V30 1659 C 160.865 1.98591 0.569681 0
M  V30 1660 C 161.273 0.978315 1.61943 0
M  V30 1661 O 160.616 -0.0396108 1.83657 0
M  V30 1662 C 160.678 3.36282 1.271 0
M  V30 1663 C 160.342 4.55488 0.371409 0
M  V30 1664 C 161.339 5.18491 -0.382504 0
M  V30 1665 C 159.024 5.01474 0.287965 0
M  V30 1666 C 161.018 6.25852 -1.20779 0
M  V30 1667 C 158.705 6.08701 -0.540965 0
M  V30 1668 C 159.703 6.70755 -1.28749 0
M  V30 1669 O 159.391 7.75914 -2.10269 0
M  V30 1670 H 159.123 0.65752 0.156982 0
M  V30 1671 H 161.677 2.0463 -0.177734 0
M  V30 1672 H 159.907 3.26941 2.0651 0
M  V30 1673 H 161.596 3.62005 1.83595 0
M  V30 1674 H 162.362 4.83891 -0.3278 0
M  V30 1675 H 158.241 4.52932 0.858689 0
M  V30 1676 H 161.785 6.74218 -1.79096 0
M  V30 1677 H 157.682 6.42732 -0.597131 0
M  V30 1678 H 158.45 7.92925 -2.03007 0
M  V30 1679 N 161.113 -0.173488 1.56642 0
M  V30 1680 C 162.359 -0.891784 1.8214 0
M  V30 1681 C 162.692 -1.8199 0.677736 0
M  V30 1682 O 161.967 -1.91842 -0.320446 0
M  V30 1683 C 162.25 -1.68933 3.18015 0
M  V30 1684 C 162.103 -0.784487 4.42906 0
M  V30 1685 C 163.422 -2.65748 3.50808 0
M  V30 1686 H 160.541 -0.322761 0.662567 0
M  V30 1687 H 163.183 -0.158095 1.89341 0
M  V30 1688 H 161.333 -2.31482 3.12007 0
M  V30 1689 H 163.005 -0.172046 4.60979 0
M  V30 1690 H 161.248 -0.0924117 4.33702 0
M  V30 1691 H 161.919 -1.37799 5.34524 0
M  V30 1692 H 164.395 -2.13327 3.57255 0
M  V30 1693 H 163.271 -3.18619 4.4696 0
M  V30 1694 H 163.532 -3.45842 2.75401 0
M  V30 1695 N 162.591 -1.51276 -0.441967 0
M  V30 1696 C 163.538 -1.72256 -1.53612 0
M  V30 1697 C 164.508 -0.564164 -1.56225 0
M  V30 1698 O 165.693 -0.798074 -1.73307 0
M  V30 1699 C 162.833 -1.84932 -2.91366 0
M  V30 1700 C 161.946 -3.12459 -2.98317 0
M  V30 1701 C 161.081 -3.15758 -4.27166 0
M  V30 1702 C 160.12 -4.37619 -4.27967 0
M  V30 1703 N 159.257 -4.38493 -5.48333 0
M  V30 1704 H 164.097 -2.65654 -1.35026 0
M  V30 1705 H 161.634 -1.31662 -0.656009 0
M  V30 1706 H 163.592 -1.90263 -3.7129 0
M  V30 1707 H 162.222 -0.949461 -3.08521 0
M  V30 1708 H 161.274 -3.1646 -2.11086 0
M  V30 1709 H 162.586 -4.02382 -2.94771 0
M  V30 1710 H 161.74 -3.19979 -5.15459 0
M  V30 1711 H 160.479 -2.23715 -4.33362 0
M  V30 1712 H 159.484 -4.33579 -3.38067 0
M  V30 1713 H 160.709 -5.30921 -4.23438 0
M  V30 1714 H 158.655 -3.49318 -5.55259 0
M  V30 1715 H 158.572 -5.22219 -5.46647 0
M  V30 1716 H 159.84 -4.469 -6.38671 0
M  V30 1717 N 164.069 0.697108 -1.41344 0
M  V30 1718 C 165.317 1.45426 -1.40341 0
M  V30 1719 C 165.638 1.94996 -0.0128787 0
M  V30 1720 O 164.908 1.71599 0.945027 0
M  V30 1721 H 163.488 0.539594 -0.516573 0
M  V30 1722 H 166.15 0.825201 -1.76569 0
M  V30 1723 H 165.246 2.31817 -2.08967 0
M  V30 1724 N 165.547 1.27147 0.931209 0
M  V30 1725 C 166.793 1.13446 1.68101 0
M  V30 1726 C 167.126 -0.319628 1.91552 0
M  V30 1727 O 166.401 -1.23407 1.50336 0
M  V30 1728 C 166.684 1.91482 3.0497 0
M  V30 1729 C 166.537 3.44855 2.88782 0
M  V30 1730 C 167.856 1.71651 4.05246 0
M  V30 1731 H 164.975 0.413498 0.610072 0
M  V30 1732 H 167.617 1.56261 1.08086 0
M  V30 1733 H 165.767 1.55095 3.56199 0
M  V30 1734 H 167.439 3.9105 2.44698 0
M  V30 1735 H 165.682 3.71373 2.24198 0
M  V30 1736 H 166.353 3.94694 3.85902 0
M  V30 1737 H 168.829 2.0337 3.63015 0
M  V30 1738 H 167.705 2.28651 4.99009 0
M  V30 1739 H 167.966 0.663555 4.37092 0
M  V30 1740 N 167.025 -1.13721 1.09112 0
M  V30 1741 C 168.274 -1.84275 0.82009 0
M  V30 1742 C 168.587 -1.84253 -0.656509 0
M  V30 1743 O 169.793 -2.50668 -1.04296 0
M  V30 1744 C 168.249 -3.30825 1.41714 0
M  V30 1745 C 167.857 -3.39244 2.92605 0
M  V30 1746 C 169.601 -4.06443 1.22492 0
M  V30 1747 C 167.508 -4.80047 3.45411 0
M  V30 1748 H 166.438 -0.690387 0.30312 0
M  V30 1749 H 169.089 -1.28146 1.31343 0
M  V30 1750 H 167.471 -3.86737 0.851498 0
M  V30 1751 H 168.645 -2.93344 3.55367 0
M  V30 1752 H 166.96 -2.77088 3.10823 0
M  V30 1753 H 169.557 -5.10387 1.59402 0
M  V30 1754 H 169.9 -4.15972 0.165299 0
M  V30 1755 H 170.433 -3.56852 1.75788 0
M  V30 1756 H 167.172 -4.75709 4.50978 0
M  V30 1757 H 166.692 -5.26455 2.87411 0
M  V30 1758 H 168.371 -5.48957 3.42425 0
M  V30 1759 N 168.503 -0.877838 -1.30888 0
M  V30 1760 C 169.435 -0.296607 -2.27273 0
M  V30 1761 C 170.448 0.544799 -1.53414 0
M  V30 1762 O 171.637 0.365511 -1.74718 0
M  V30 1763 C 168.737 0.597481 -3.33592 0
M  V30 1764 C 167.91 -0.213251 -4.3688 0
M  V30 1765 C 166.969 0.610208 -5.2265 0
M  V30 1766 O 165.995 0.035441 -5.69189 0
M  V30 1767 N 167.197 1.92071 -5.47804 0
M  V30 1768 H 169.962 -1.12492 -2.77787 0
M  V30 1769 H 167.523 -0.740105 -1.43993 0
M  V30 1770 H 169.515 1.15425 -3.87891 0
M  V30 1771 H 168.085 1.32647 -2.83061 0
M  V30 1772 H 167.305 -0.951466 -3.82545 0
M  V30 1773 H 168.593 -0.769262 -5.02951 0
M  V30 1774 H 167.991 2.4107 -5.11763 0
M  V30 1775 H 166.548 2.42508 -6.05007 0
M  V30 1776 N 169.982 1.44106 -0.638065 0
M  V30 1777 C 171.212 2.06037 -0.152394 0
M  V30 1778 C 171.62 1.47808 1.18108 0
M  V30 1779 O 170.963 0.598092 1.73691 0
M  V30 1780 C 171.025 3.59488 0.0293714 0
M  V30 1781 C 170.689 4.4022 -1.22702 0
M  V30 1782 C 171.686 4.73256 -2.15232 0
M  V30 1783 C 169.371 4.8048 -1.46437 0
M  V30 1784 C 171.365 5.45444 -3.29802 0
M  V30 1785 C 169.052 5.52417 -2.61303 0
M  V30 1786 C 170.05 5.84819 -3.52811 0
M  V30 1787 O 169.738 6.55289 -4.65673 0
M  V30 1788 H 169.47 0.671233 -0.0801401 0
M  V30 1789 H 172.024 1.85851 -0.874563 0
M  V30 1790 H 170.254 3.78191 0.806758 0
M  V30 1791 H 171.943 4.03164 0.470475 0
M  V30 1792 H 172.709 4.42684 -1.98131 0
M  V30 1793 H 168.588 4.54676 -0.760977 0
M  V30 1794 H 172.132 5.70653 -4.01249 0
M  V30 1795 H 168.029 5.82404 -2.78344 0
M  V30 1796 H 168.797 6.73762 -4.64744 0
M  V30 1797 N 171.46 0.379036 1.52974 0
M  V30 1798 C 172.69 -0.20649 2.05566 0
M  V30 1799 C 173.098 -1.41906 1.25137 0
M  V30 1800 O 172.441 -1.81421 0.288464 0
M  V30 1801 C 172.503 -0.651086 3.53555 0
M  V30 1802 C 172.167 0.446626 4.54812 0
M  V30 1803 C 173.164 1.30079 5.03364 0
M  V30 1804 C 170.849 0.610719 4.98573 0
M  V30 1805 C 172.843 2.30426 5.94292 0
M  V30 1806 C 170.53 1.61754 5.89304 0
M  V30 1807 C 171.528 2.46274 6.37054 0
M  V30 1808 O 171.216 3.45237 7.25994 0
M  V30 1809 H 170.948 -0.0372381 0.674974 0
M  V30 1810 H 173.502 0.539718 1.98182 0
M  V30 1811 H 171.732 -1.44911 3.58522 0
M  V30 1812 H 173.421 -1.16112 3.88938 0
M  V30 1813 H 174.187 1.18527 4.70294 0
M  V30 1814 H 170.066 -0.0374044 4.60985 0
M  V30 1815 H 173.61 2.96432 6.31485 0
M  V30 1816 H 169.507 1.73348 6.21788 0
M  V30 1817 H 170.275 3.41124 7.44027 0
M  V30 1818 N 172.938 -1.57226 0.108567 0
M  V30 1819 C 174.349 -1.8195 -0.418464 0
M  V30 1820 C 174.7 -1.02508 -1.67292 0
M  V30 1821 O 173.825 -0.258496 -2.14851 0
M  V30 1822 C 174.42 -3.30028 -0.765979 0
M  V30 1823 C 172.979 -3.55469 -1.23769 0
M  V30 1824 C 172.126 -2.7625 -0.241106 0
M  V30 1825 H 175.077 -1.55149 0.33384 0
M  V30 1826 H 175.098 -3.44086 -1.62434 0
M  V30 1827 H 174.61 -3.87821 0.147219 0
M  V30 1828 H 172.711 -3.03022 -2.16814 0
M  V30 1829 H 172.824 -4.6408 -1.19022 0
M  V30 1830 H 171.188 -2.44133 -0.72602 0
M  V30 1831 H 171.971 -3.36797 0.665007 0
M  V30 1832 N 174.416 0.165178 -1.56732 0
M  V30 1833 C 175.379 1.18822 -1.95995 0
M  V30 1834 C 176.379 1.3685 -0.84431 0
M  V30 1835 O 177.569 1.34152 -1.11126 0
M  V30 1836 C 174.701 2.5521 -2.26011 0
M  V30 1837 H 175.894 0.851825 -2.87548 0
M  V30 1838 H 173.447 0.407857 -1.50885 0
M  V30 1839 H 174.182 2.93852 -1.37191 0
M  V30 1840 H 173.967 2.43489 -3.07336 0
M  V30 1841 H 175.457 3.28927 -2.57288 0
M  V30 1842 N 175.894 1.51508 0.433938 0
M  V30 1843 C 176.857 1.72473 1.50949 0
M  V30 1844 C 177.857 0.594725 1.49398 0
M  V30 1845 O 179.047 0.862315 1.5136 0
M  V30 1846 C 176.179 1.78431 2.90474 0
M  V30 1847 H 177.372 2.68467 1.33662 0
M  V30 1848 H 174.925 1.41549 0.662836 0
M  V30 1849 H 175.66 0.842645 3.13161 0
M  V30 1850 H 175.445 2.60558 2.93005 0
M  V30 1851 H 176.935 1.96479 3.68491 0
M  V30 1852 N 177.372 -0.689602 1.41712 0
M  V30 1853 C 178.783 -1.26973 1.36875 0
M  V30 1854 C 179.134 -1.96124 0.054748 0
M  V30 1855 O 178.259 -1.99141 -0.84687 0
M  V30 1856 C 178.854 -2.30912 2.47922 0
M  V30 1857 C 177.413 -2.84486 2.46464 0
M  V30 1858 C 176.56 -1.58603 2.27465 0
M  V30 1859 H 179.511 -0.48396 1.51141 0
M  V30 1860 H 179.532 -3.12331 2.17323 0
M  V30 1861 H 179.044 -1.80554 3.43543 0
M  V30 1862 H 177.145 -3.39005 1.54617 0
M  V30 1863 H 177.258 -3.34511 3.42986 0
M  V30 1864 H 175.622 -1.84632 1.75451 0
M  V30 1865 H 176.405 -1.10233 3.25121 0
M  V30 1866 N 178.85 -1.27639 -0.924453 0
M  V30 1867 C 179.78 -1.13166 -2.04244 0
M  V30 1868 C 180.761 -0.032256 -1.70069 0
M  V30 1869 O 181.946 -0.207328 -1.9309 0
M  V30 1870 C 179.076 -0.781496 -3.38393 0
M  V30 1871 C 178.03 -1.83449 -3.86692 0
M  V30 1872 C 177.356 -1.33822 -5.17683 0
M  V30 1873 C 178.656 -3.23917 -4.09726 0
M  V30 1874 H 180.35 -2.06689 -2.1661 0
M  V30 1875 H 177.896 -0.995136 -1.04082 0
M  V30 1876 H 179.849 -0.667057 -4.16087 0
M  V30 1877 H 178.573 0.189439 -3.2605 0
M  V30 1878 H 177.232 -1.93789 -3.11193 0
M  V30 1879 H 176.88 -0.35665 -5.01734 0
M  V30 1880 H 176.58 -2.04224 -5.50968 0
M  V30 1881 H 178.104 -1.23679 -5.97943 0
M  V30 1882 H 179.518 -3.16559 -4.77978 0
M  V30 1883 H 177.915 -3.92059 -4.54324 0
M  V30 1884 H 178.985 -3.68729 -3.14908 0
M  V30 1885 N 180.328 1.1314 -1.09713 0
M  V30 1886 C 181.739 1.66029 -0.853885 0
M  V30 1887 C 182.09 1.86241 0.617142 0
M  V30 1888 O 181.215 1.5834 1.47503 0
M  V30 1889 C 181.81 3.01599 -1.5435 0
M  V30 1890 C 180.369 3.51467 -1.34714 0
M  V30 1891 C 179.516 2.26648 -1.59769 0
M  V30 1892 H 182.467 0.970226 -1.25588 0
M  V30 1893 H 182.488 3.67709 -0.978267 0
M  V30 1894 H 182 2.86856 -2.6141 0
M  V30 1895 H 180.101 3.71408 -0.297838 0
M  V30 1896 H 180.214 4.314 -2.08401 0
M  V30 1897 H 178.578 2.33385 -1.01998 0
M  V30 1898 H 179.361 2.14467 -2.68065 0
M  V30 1899 N 181.806 0.884767 1.30421 0
M  V30 1900 C 183.054 0.502112 1.95763 0
M  V30 1901 C 183.375 -0.951815 1.70192 0
M  V30 1902 O 182.645 -1.6692 1.0254 0
M  V30 1903 H 181.225 0.182694 0.724315 0
M  V30 1904 H 183.887 1.1278 1.58955 0
M  V30 1905 H 182.983 0.672188 3.04775 0
M  V30 1906 N 183.284 -1.43765 0.645699 0
M  V30 1907 C 184.531 -2.01898 0.15604 0
M  V30 1908 C 184.859 -1.50887 -1.22733 0
M  V30 1909 O 184.114 -0.689271 -1.8316 0
M  V30 1910 C 184.413 -3.57238 0.107679 0
M  V30 1911 C 184.079 -4.27564 1.43178 0
M  V30 1912 C 182.741 -4.46492 1.7944 0
M  V30 1913 C 185.093 -4.67454 2.30513 0
M  V30 1914 C 182.421 -5.02573 3.02716 0
M  V30 1915 C 184.773 -5.24901 3.53074 0
M  V30 1916 C 183.437 -5.42046 3.89541 0
M  V30 1917 H 182.707 -0.738797 0.057099 0
M  V30 1918 H 185.354 -1.72341 0.834912 0
M  V30 1919 H 183.659 -3.86293 -0.654618 0
M  V30 1920 H 185.356 -3.99965 -0.287938 0
M  V30 1921 H 181.946 -4.13171 1.13963 0
M  V30 1922 H 186.13 -4.5253 2.0379 0
M  V30 1923 H 181.386 -5.14033 3.31028 0
M  V30 1924 H 185.56 -5.54758 4.20971 0
M  V30 1925 H 183.187 -5.85268 4.85145 0
M  V30 1926 N 184.763 -0.387143 -1.52771 0
M  V30 1927 C 185.988 0.198407 -2.06449 0
M  V30 1928 C 186.413 1.39918 -1.25716 0
M  V30 1929 O 185.771 1.79099 -0.281657 0
M  V30 1930 C 185.819 0.548893 -3.56398 0
M  V30 1931 O 184.923 1.64315 -3.78252 0
M  V30 1932 H 184.264 0.0237731 -0.663574 0
M  V30 1933 H 186.794 -0.553989 -1.96957 0
M  V30 1934 H 186.804 0.813812 -3.99801 0
M  V30 1935 H 185.479 -0.329005 -4.14597 0
M  V30 1936 H 184.056 1.37211 -3.46738 0
M  V30 1937 N 186.241 1.57166 -0.116904 0
M  V30 1938 C 187.204 2.14039 0.819742 0
M  V30 1939 C 188.204 1.07477 1.19605 0
M  V30 1940 O 189.394 1.33263 1.1219 0
M  V30 1941 C 186.526 2.67891 2.10826 0
M  V30 1942 H 187.719 2.98128 0.325511 0
M  V30 1943 H 185.272 1.55739 0.132312 0
M  V30 1944 H 186.007 1.87384 2.64685 0
M  V30 1945 H 185.792 3.45823 1.84793 0
M  V30 1946 H 187.282 3.11809 2.77785 0
M  V30 1947 N 187.719 -0.156864 1.56817 0
M  V30 1948 C 188.965 -0.872416 1.83076 0
M  V30 1949 C 189.298 -1.81261 0.697001 0
M  V30 1950 O 188.573 -1.92171 -0.30008 0
M  V30 1951 C 188.856 -1.65551 3.19789 0
M  V30 1952 C 188.709 -0.737467 4.43713 0
M  V30 1953 C 190.028 -2.62012 3.53606 0
M  V30 1954 H 187.147 -0.315715 0.665953 0
M  V30 1955 H 189.789 -0.138004 1.89498 0
M  V30 1956 H 187.939 -2.28159 3.14445 0
M  V30 1957 H 189.611 -0.123143 4.61136 0
M  V30 1958 H 187.854 -0.0464067 4.33775 0
M  V30 1959 H 188.525 -1.32122 5.35955 0
M  V30 1960 H 191.001 -2.09525 3.59497 0
M  V30 1961 H 189.877 -3.13861 4.50314 0
M  V30 1962 H 190.138 -3.42902 2.79053 0
M  V30 1963 N 189.197 -1.51736 -0.425897 0
M  V30 1964 C 190.443 -1.65214 -1.1761 0
M  V30 1965 C 190.776 -0.372778 -1.90589 0
M  V30 1966 O 190.051 0.628139 -1.84078 0
M  V30 1967 C 190.334 -2.86312 -2.18398 0
M  V30 1968 C 190.187 -4.24254 -1.49426 0
M  V30 1969 C 191.506 -3.02925 -3.19256 0
M  V30 1970 H 188.625 -0.601263 -0.426206 0
M  V30 1971 H 191.267 -1.8425 -0.463882 0
M  V30 1972 H 189.417 -2.70213 -2.79137 0
M  V30 1973 H 191.089 -4.52046 -0.919362 0
M  V30 1974 H 189.332 -4.26426 -0.796432 0
M  V30 1975 H 190.003 -5.05001 -2.22885 0
M  V30 1976 H 192.479 -3.1781 -2.68581 0
M  V30 1977 H 191.355 -3.89199 -3.8706 0
M  V30 1978 H 191.616 -2.15497 -3.86023 0
M  V30 1979 N 190.675 0.682077 -1.42076 0
M  V30 1980 C 191.921 1.44428 -1.42367 0
M  V30 1981 C 192.254 1.94164 -0.0373056 0
M  V30 1982 O 191.529 1.70429 0.937239 0
M  V30 1983 C 191.812 2.64654 -2.44194 0
M  V30 1984 C 191.665 2.20596 -3.91991 0
M  V30 1985 C 192.984 3.66865 -2.431 0
M  V30 1986 H 190.103 0.523834 -0.518428 0
M  V30 1987 H 192.745 0.77576 -1.73442 0
M  V30 1988 H 190.895 3.2169 -2.17826 0
M  V30 1989 H 192.567 1.68783 -4.29313 0
M  V30 1990 H 190.81 1.52242 -4.06208 0
M  V30 1991 H 191.481 3.06921 -4.58807 0
M  V30 1992 H 193.957 3.19531 -2.66532 0
M  V30 1993 H 192.833 4.48577 -3.16339 0
M  V30 1994 H 193.094 4.17493 -1.45437 0
M  V30 1995 N 192.153 1.28127 0.917671 0
M  V30 1996 C 193.378 1.18007 1.70555 0
M  V30 1997 C 193.803 -0.258257 1.86319 0
M  V30 1998 O 193.161 -1.1869 1.37049 0
M  V30 1999 C 193.209 1.87948 3.07746 0
M  V30 2000 O 192.313 1.18427 3.9503 0
M  V30 2001 H 191.654 0.409867 0.522403 0
M  V30 2002 H 194.184 1.69379 1.1477 0
M  V30 2003 H 194.194 1.95701 3.58001 0
M  V30 2004 H 192.869 2.92573 2.95591 0
M  V30 2005 H 191.446 1.18811 3.53466 0
M  V30 2006 N 193.631 -1.12557 1.10312 0
M  V30 2007 C 194.856 -1.88405 0.867085 0
M  V30 2008 C 195.281 -1.79038 -0.576817 0
M  V30 2009 O 194.639 -1.14439 -1.40618 0
M  V30 2010 C 194.687 -3.3563 1.31851 0
M  V30 2011 O 193.791 -4.09565 0.482734 0
M  V30 2012 H 193.132 -0.585455 0.313271 0
M  V30 2013 H 195.662 -1.42352 1.4696 0
M  V30 2014 H 195.672 -3.86469 1.3079 0
M  V30 2015 H 194.347 -3.41765 2.37001 0
M  V30 2016 H 192.924 -3.68695 0.558448 0
M  V30 2017 N 195.109 -0.891671 -1.2995 0
M  V30 2018 C 196.355 -0.514261 -1.96171 0
M  V30 2019 C 196.688 0.935506 -1.70182 0
M  V30 2020 O 195.963 1.66204 -1.01028 0
M  V30 2021 C 196.246 -0.797719 -3.51153 0
M  V30 2022 C 196.099 -2.2986 -3.86632 0
M  V30 2023 C 197.418 -0.278749 -4.39216 0
M  V30 2024 H 194.537 -0.188314 -0.712535 0
M  V30 2025 H 197.179 -1.11689 -1.53706 0
M  V30 2026 H 195.329 -0.284826 -3.87455 0
M  V30 2027 H 197.001 -2.88042 -3.60319 0
M  V30 2028 H 195.244 -2.76257 -3.34462 0
M  V30 2029 H 195.915 -2.44753 -4.94773 0
M  V30 2030 H 198.391 -0.717825 -4.09862 0
M  V30 2031 H 197.267 -0.506353 -5.46559 0
M  V30 2032 H 197.528 0.820266 -4.34424 0
M  V30 2033 N 196.587 1.43421 -0.653314 0
M  V30 2034 C 197.998 1.85065 -0.246537 0
M  V30 2035 C 198.349 1.54688 1.2069 0
M  V30 2036 O 197.474 0.995896 1.92122 0
M  V30 2037 C 198.069 3.35922 -0.440666 0
M  V30 2038 C 196.628 3.76297 -0.0882064 0
M  V30 2039 C 195.775 2.67147 -0.743484 0
M  V30 2040 H 198.726 1.33572 -0.856979 0
M  V30 2041 H 198.747 3.79204 0.313798 0
M  V30 2042 H 198.259 3.58 -1.49858 0
M  V30 2043 H 196.36 3.5983 0.96711 0
M  V30 2044 H 196.473 4.76338 -0.513738 0
M  V30 2045 H 194.837 2.54086 -0.176712 0
M  V30 2046 H 195.62 2.92053 -1.80443 0
M  V30 2047 N 198.065 0.39524 1.52563 0
M  V30 2048 C 198.995 -0.428384 2.29537 0
M  V30 2049 C 199.976 -1.05831 1.33169 0
M  V30 2050 O 201.161 -1.06995 1.62067 0
M  V30 2051 C 198.291 -1.55274 3.10656 0
M  V30 2052 C 197.245 -1.04855 4.14957 0
M  V30 2053 C 196.571 -2.26543 4.84337 0
M  V30 2054 C 197.871 -0.112324 5.22179 0
M  V30 2055 H 199.565 0.213867 2.98635 0
M  V30 2056 H 197.111 0.104298 1.43622 0
M  V30 2057 H 199.064 -2.1358 3.63265 0
M  V30 2058 H 197.788 -2.22266 2.39302 0
M  V30 2059 H 196.447 -0.487985 3.63338 0
M  V30 2060 H 196.095 -2.92059 4.09525 0
M  V30 2061 H 195.795 -1.93466 5.54837 0
M  V30 2062 H 197.319 -2.85481 5.39753 0
M  V30 2063 H 198.733 -0.603752 5.70112 0
M  V30 2064 H 197.13 0.128968 5.99961 0
M  V30 2065 H 198.2 0.837052 4.77621 0
M  V30 2066 N 199.544 -1.57102 0.125237 0
M  V30 2067 C 200.792 -1.95021 -0.530198 0
M  V30 2068 C 201.113 -1.00982 -1.66816 0
M  V30 2069 O 200.383 -0.0672693 -1.95784 0
M  V30 2070 H 198.963 -0.720046 -0.198853 0
M  V30 2071 H 201.625 -1.93916 0.19564 0
M  V30 2072 H 200.721 -2.98211 -0.920681 0
M  V30 2073 N 201.022 0.148545 -1.56898 0
M  V30 2074 C 202.27 0.859717 -1.82902 0
M  V30 2075 C 202.591 1.81775 -0.70588 0
M  V30 2076 O 201.861 1.93994 0.272586 0
M  V30 2077 H 200.441 0.320469 -0.674766 0
M  V30 2078 H 203.103 0.142918 -1.94375 0
M  V30 2079 H 202.199 1.4229 -2.77777 0
M  V30 2080 N 202.5 1.5196 0.417844 0
M  V30 2081 C 203.748 1.65263 1.16329 0
M  V30 2082 C 204.069 0.380634 1.91249 0
M  V30 2083 O 203.339 -0.604214 1.86349 0
M  V30 2084 H 201.919 0.60912 0.432414 0
M  V30 2085 H 204.581 1.88969 0.477162 0
M  V30 2086 H 203.677 2.4896 1.88217 0
M  V30 2087 N 203.978 -0.674533 1.42435 0
M  V30 2088 C 204.908 -1.80009 1.48724 0
M  V30 2089 C 205.889 -1.6659 0.343793 0
M  V30 2090 O 207.074 -1.86007 0.558137 0
M  V30 2091 C 204.204 -3.18306 1.38919 0
M  V30 2092 C 203.158 -3.46461 2.51294 0
M  V30 2093 C 202.484 -4.84335 2.26547 0
M  V30 2094 C 203.784 -3.43328 3.93603 0
M  V30 2095 H 205.478 -1.75004 2.42928 0
M  V30 2096 H 203.024 -0.840533 1.16923 0
M  V30 2097 H 204.977 -3.9678 1.41927 0
M  V30 2098 H 203.701 -3.2399 0.412094 0
M  V30 2099 H 202.36 -2.70348 2.47604 0
M  V30 2100 H 202.008 -4.86669 1.2713 0
M  V30 2101 H 201.708 -5.04136 3.01861 0
M  V30 2102 H 203.232 -5.65094 2.31304 0
M  V30 2103 H 204.646 -4.11772 3.98894 0
M  V30 2104 H 203.043 -3.74664 4.68771 0
M  V30 2105 H 204.113 -2.41897 4.20255 0
M  V30 2106 N 205.456 -1.28612 -0.910864 0
M  V30 2107 C 206.681 -1.1891 -1.69927 0
M  V30 2108 C 207.106 0.248372 -1.86453 0
M  V30 2109 O 206.464 1.17961 -1.37676 0
M  V30 2110 C 206.512 -1.89578 -3.06745 0
M  V30 2111 O 205.616 -1.20521 -3.94396 0
M  V30 2112 H 204.957 -0.412632 -0.520222 0
M  V30 2113 H 207.487 -1.69985 -1.1387 0
M  V30 2114 H 207.497 -1.97597 -3.56958 0
M  V30 2115 H 206.172 -2.94136 -2.94035 0
M  V30 2116 H 204.749 -1.20684 -3.52831 0
M  V30 2117 N 206.934 1.1197 -1.10907 0
M  V30 2118 C 208.159 1.87942 -0.877064 0
M  V30 2119 C 208.584 1.79341 0.567314 0
M  V30 2120 O 207.942 1.15184 1.40009 0
M  V30 2121 C 207.99 3.34926 -1.33629 0
M  V30 2122 O 207.094 4.09303 -0.504447 0
M  V30 2123 H 206.435 0.583785 -0.316371 0
M  V30 2124 H 208.965 1.4157 -1.47712 0
M  V30 2125 H 208.975 3.8577 -1.32837 0
M  V30 2126 H 207.65 3.40504 -2.3881 0
M  V30 2127 H 206.227 3.68393 -0.577993 0
M  V30 2128 N 208.412 0.89855 1.29475 0
M  V30 2129 C 209.637 0.538561 2.00285 0
M  V30 2130 C 210.062 -0.869135 1.66816 0
M  V30 2131 O 209.42 -1.57831 0.892145 0
M  V30 2132 C 209.468 0.736475 3.52999 0
M  V30 2133 O 208.572 -0.211537 4.11857 0
M  V30 2134 H 207.913 0.210563 0.62973 0
M  V30 2135 H 210.443 1.20982 1.64998 0
M  V30 2136 H 210.453 0.640685 4.02938 0
M  V30 2137 H 209.128 1.76276 3.76696 0
M  V30 2138 H 207.705 -0.0682991 3.72837 0
M  V30 2139 N 209.89 -1.43072 0.660911 0
M  V30 2140 C 210.853 -2.29194 -0.0166406 0
M  V30 2141 C 211.853 -1.42609 -0.742912 0
M  V30 2142 O 213.043 -1.64155 -0.583004 0
M  V30 2143 C 210.175 -3.24831 -1.0343 0
M  V30 2144 H 211.368 -2.90596 0.741208 0
M  V30 2145 H 208.921 -1.5048 0.422532 0
M  V30 2146 H 209.656 -2.68339 -1.82111 0
M  V30 2147 H 209.441 -3.88676 -0.517082 0
M  V30 2148 H 210.931 -3.89451 -1.50723 0
M  V30 2149 N 211.368 -0.403325 -1.52352 0
M  V30 2150 C 212.593 0.176499 -2.06648 0
M  V30 2151 C 213.018 1.38577 -1.27193 0
M  V30 2152 O 212.376 1.7879 -0.300637 0
M  V30 2153 C 212.424 0.511061 -3.5696 0
M  V30 2154 O 211.528 1.60294 -3.79973 0
M  V30 2155 H 210.869 0.0167337 -0.663789 0
M  V30 2156 H 213.399 -0.574848 -1.96359 0
M  V30 2157 H 213.409 0.771362 -4.00642 0
M  V30 2158 H 212.084 -0.37296 -4.14224 0
M  V30 2159 H 210.661 1.33526 -3.48174 0
M  V30 2160 N 212.846 1.57033 -0.133567 0
M  V30 2161 C 213.776 2.1909 0.807567 0
M  V30 2162 C 214.757 1.13517 1.26681 0
M  V30 2163 O 215.942 1.41809 1.32679 0
M  V30 2164 C 213.072 2.80188 2.05212 0
M  V30 2165 C 212.026 3.91471 1.73015 0
M  V30 2166 C 211.352 4.39443 3.04622 0
M  V30 2167 C 212.652 5.12886 0.987168 0
M  V30 2168 H 214.346 2.97988 0.290403 0
M  V30 2169 H 211.892 1.43335 0.138239 0
M  V30 2170 H 213.845 3.22264 2.71521 0
M  V30 2171 H 212.569 1.98601 2.59278 0
M  V30 2172 H 211.228 3.49993 1.0909 0
M  V30 2173 H 210.876 3.54695 3.56651 0
M  V30 2174 H 210.576 5.14495 2.83847 0
M  V30 2175 H 212.1 4.8418 3.72024 0
M  V30 2176 H 213.514 5.51891 1.55208 0
M  V30 2177 H 211.911 5.93615 0.87985 0
M  V30 2178 H 212.981 4.84894 -0.0235286 0
M  V30 2179 N 214.325 -0.140222 1.56975 0
M  V30 2180 C 215.235 -1.19223 2.02047 0
M  V30 2181 C 216.251 -1.46612 0.937062 0
M  V30 2182 O 217.427 -1.58148 1.24704 0
M  V30 2183 C 214.492 -2.50414 2.39778 0
M  V30 2184 C 213.553 -2.30612 3.621 0
M  V30 2185 C 212.786 -3.55547 3.98023 0
M  V30 2186 O 213.009 -4.62004 3.34528 0
M  V30 2187 O 211.943 -3.47808 4.91237 0
M  V30 2188 H 215.769 -0.839559 2.91865 0
M  V30 2189 H 213.354 -0.349453 1.45256 0
M  V30 2190 H 215.236 -3.27747 2.64877 0
M  V30 2191 H 213.911 -2.85198 1.53114 0
M  V30 2192 H 212.818 -1.51207 3.4218 0
M  V30 2193 H 214.151 -2.00741 4.49404 0
M  V30 2194 N 215.803 -1.52179 -0.40978 0
M  V30 2195 C 217.049 -1.66453 -1.15851 0
M  V30 2196 C 217.382 -0.392972 -1.90182 0
M  V30 2197 O 216.657 0.608579 -1.84734 0
M  V30 2198 C 216.94 -2.88612 -2.15349 0
M  V30 2199 C 216.793 -4.25815 -1.44918 0
M  V30 2200 C 218.112 -3.06294 -3.16026 0
M  V30 2201 H 215.231 -0.60575 -0.419805 0
M  V30 2202 H 217.873 -1.84732 -0.444314 0
M  V30 2203 H 216.023 -2.73158 -2.76255 0
M  V30 2204 H 217.695 -4.52995 -0.871365 0
M  V30 2205 H 215.938 -4.27247 -0.751159 0
M  V30 2206 H 216.609 -5.07337 -2.17516 0
M  V30 2207 H 219.085 -3.20641 -2.65195 0
M  V30 2208 H 217.961 -3.93283 -3.8291 0
M  V30 2209 H 218.222 -2.19579 -3.83715 0
M  V30 2210 N 217.281 0.66697 -1.42791 0
M  V30 2211 C 218.244 1.76211 -1.46568 0
M  V30 2212 C 219.244 1.56896 -0.352196 0
M  V30 2213 O 220.434 1.63044 -0.613364 0
M  V30 2214 C 217.566 3.14935 -1.30494 0
M  V30 2215 H 218.759 1.74247 -2.44086 0
M  V30 2216 H 216.312 0.877342 -1.29354 0
M  V30 2217 H 217.047 3.2252 -0.339301 0
M  V30 2218 H 216.832 3.30359 -2.11199 0
M  V30 2219 H 218.322 3.94821 -1.36038 0
M  V30 2220 N 218.759 1.29093 0.90403 0
M  V30 2221 C 219.987 1.19689 1.68766 0
M  V30 2222 C 220.402 -0.243113 1.87228 0
M  V30 2223 O 219.759 -1.16326 1.40621 0
M  V30 2224 C 219.81 1.90144 3.07453 0
M  V30 2225 O 219.531 3.2852 2.89838 0
M  V30 2226 C 221.032 1.87162 4.01852 0
M  V30 2227 H 218.252 0.415035 0.527244 0
M  V30 2228 H 220.796 1.7039 1.13082 0
M  V30 2229 H 218.951 1.43289 3.59926 0
M  V30 2230 H 219.365 3.63944 3.77684 0
M  V30 2231 H 220.839 2.41032 4.96596 0
M  V30 2232 H 221.316 0.84617 4.30972 0
M  V30 2233 H 221.922 2.33741 3.5531 0
M  V30 2234 N 220.237 -1.11381 1.11499 0
M  V30 2235 C 221.467 -1.86663 0.885464 0
M  V30 2236 C 221.875 -1.80464 -0.568281 0
M  V30 2237 O 221.218 -1.18445 -1.40415 0
M  V30 2238 C 221.28 -3.36337 1.26956 0
M  V30 2239 C 220.944 -3.66304 2.73259 0
M  V30 2240 C 221.941 -3.63733 3.71476 0
M  V30 2241 C 219.626 -3.9529 3.09921 0
M  V30 2242 C 221.62 -3.89725 5.04374 0
M  V30 2243 C 219.307 -4.20941 4.43004 0
M  V30 2244 C 220.305 -4.18147 5.40039 0
M  V30 2245 O 219.993 -4.43153 6.70724 0
M  V30 2246 H 219.725 -0.597114 0.316908 0
M  V30 2247 H 222.279 -1.41782 1.48617 0
M  V30 2248 H 220.509 -3.81826 0.611999 0
M  V30 2249 H 222.198 -3.92986 1.01573 0
M  V30 2250 H 222.964 -3.41389 3.44498 0
M  V30 2251 H 218.843 -3.966 2.35009 0
M  V30 2252 H 222.387 -3.8746 5.80104 0
M  V30 2253 H 218.284 -4.42761 4.69716 0
M  V30 2254 H 219.052 -4.60717 6.76522 0
M  V30 2255 N 221.715 -0.905404 -1.28997 0
M  V30 2256 C 222.943 -0.549846 -1.9946 0
M  V30 2257 C 223.358 0.866834 -1.67724 0
M  V30 2258 O 222.715 1.57298 -0.925404 0
M  V30 2259 C 222.766 -0.739387 -3.53858 0
M  V30 2260 O 222.487 -2.10031 -3.84472 0
M  V30 2261 C 223.988 -0.389541 -4.41585 0
M  V30 2262 H 221.208 -0.210429 -0.637151 0
M  V30 2263 H 223.752 -1.21632 -1.64396 0
M  V30 2264 H 221.907 -0.120023 -3.87214 0
M  V30 2265 H 222.321 -2.13385 -4.79132 0
M  V30 2266 H 223.795 -0.572972 -5.49018 0
M  V30 2267 H 224.272 0.673756 -4.34001 0
M  V30 2268 H 224.878 -0.986089 -4.1371 0
M  V30 2269 N 223.193 1.4272 -0.668489 0
M  V30 2270 C 224.44 2.01624 -0.18814 0
M  V30 2271 C 224.768 1.5282 1.20317 0
M  V30 2272 O 224.023 0.718323 1.8204 0
M  V30 2273 C 224.322 3.57021 -0.164499 0
M  V30 2274 C 223.988 4.25232 -1.49962 0
M  V30 2275 C 222.65 4.4358 -1.8652 0
M  V30 2276 C 225.002 4.63727 -2.37921 0
M  V30 2277 C 222.33 4.97694 -3.10674 0
M  V30 2278 C 224.682 5.19218 -3.6138 0
M  V30 2279 C 223.346 5.3578 -3.98115 0
M  V30 2280 H 222.616 0.737795 -0.0688454 0
M  V30 2281 H 225.263 1.70991 -0.862225 0
M  V30 2282 H 223.568 3.87285 0.593079 0
M  V30 2283 H 225.265 4.00372 0.224271 0
M  V30 2284 H 221.855 4.11306 -1.20522 0
M  V30 2285 H 226.039 4.4923 -2.10964 0
M  V30 2286 H 221.295 5.08702 -3.39164 0
M  V30 2287 H 225.469 5.4799 -4.29743 0
M  V30 2288 H 223.096 5.77475 -4.94395 0
M  V30 2289 N 224.671 0.411399 1.52136 0
M  V30 2290 C 225.601 -0.404015 2.29978 0
M  V30 2291 C 226.582 -1.04412 1.34284 0
M  V30 2292 O 227.767 -1.0527 1.63192 0
M  V30 2293 C 224.897 -1.5197 3.12286 0
M  V30 2294 C 223.851 -1.00448 4.16046 0
M  V30 2295 C 223.177 -2.21393 4.86712 0
M  V30 2296 C 224.477 -0.0569336 5.22269 0
M  V30 2297 H 226.171 0.245529 2.98392 0
M  V30 2298 H 223.717 0.119525 1.43503 0
M  V30 2299 H 225.67 -2.09715 3.6551 0
M  V30 2300 H 224.394 -2.19716 2.41646 0
M  V30 2301 H 223.053 -0.449421 3.63835 0
M  V30 2302 H 222.701 -2.87699 4.12599 0
M  V30 2303 H 222.401 -1.87571 5.56858 0
M  V30 2304 H 223.925 -2.7974 5.4275 0
M  V30 2305 H 225.339 -0.54325 5.7072 0
M  V30 2306 H 223.736 0.192594 5.99791 0
M  V30 2307 H 224.806 0.887663 4.76706 0
M  V30 2308 N 226.149 -1.5696 0.141893 0
M  V30 2309 C 227.081 -2.13619 -0.830627 0
M  V30 2310 C 228.094 -1.08439 -1.21428 0
M  V30 2311 O 229.283 -1.35734 -1.15925 0
M  V30 2312 C 226.383 -2.63978 -2.12529 0
M  V30 2313 C 225.556 -3.93504 -1.9098 0
M  V30 2314 C 224.615 -4.29225 -3.04388 0
M  V30 2315 O 223.641 -4.97641 -2.76302 0
M  V30 2316 N 224.843 -3.88393 -4.31429 0
M  V30 2317 H 227.608 -2.97691 -0.34641 0
M  V30 2318 H 225.169 -1.61846 -0.0418375 0
M  V30 2319 H 227.161 -2.84891 -2.87436 0
M  V30 2320 H 225.731 -1.84659 -2.52229 0
M  V30 2321 H 224.951 -3.81269 -1.00139 0
M  V30 2322 H 226.239 -4.78154 -1.73914 0
M  V30 2323 H 225.637 -3.33257 -4.57117 0
M  V30 2324 H 224.194 -4.14368 -5.03133 0
M  V30 2325 N 227.627 0.131896 -1.57047 0
M  V30 2326 C 228.559 1.1878 -1.9602 0
M  V30 2327 C 229.572 1.38363 -0.857875 0
M  V30 2328 O 230.761 1.37666 -1.13623 0
M  V30 2329 C 227.861 2.55008 -2.23213 0
M  V30 2330 C 227.034 2.56201 -3.54513 0
M  V30 2331 C 226.093 3.7408 -3.70069 0
M  V30 2332 O 225.119 3.58258 -4.42312 0
M  V30 2333 N 226.321 4.92137 -3.07866 0
M  V30 2334 H 229.086 0.85639 -2.87204 0
M  V30 2335 H 226.647 0.321309 -1.5868 0
M  V30 2336 H 228.639 3.32404 -2.30846 0
M  V30 2337 H 227.209 2.80382 -1.3822 0
M  V30 2338 H 226.429 1.64613 -3.58185 0
M  V30 2339 H 227.717 2.54043 -4.4084 0
M  V30 2340 H 227.115 5.07895 -2.49116 0
M  V30 2341 H 225.672 5.67254 -3.21039 0
M  V30 2342 N 229.106 1.52395 0.401703 0
M  V30 2343 C 230.036 1.79231 1.49661 0
M  V30 2344 C 231.017 0.643654 1.57452 0
M  V30 2345 O 232.202 0.889989 1.72606 0
M  V30 2346 C 229.332 1.94971 2.87409 0
M  V30 2347 C 228.286 3.10604 2.94465 0
M  V30 2348 C 227.612 3.11577 4.34538 0
M  V30 2349 C 228.912 4.49921 2.6527 0
M  V30 2350 H 230.606 2.70917 1.27454 0
M  V30 2351 H 228.152 1.30362 0.6117 0
M  V30 2352 H 230.105 2.12328 3.63999 0
M  V30 2353 H 228.829 0.999632 3.10926 0
M  V30 2354 H 227.488 2.93009 2.20321 0
M  V30 2355 H 227.136 2.14277 4.55076 0
M  V30 2356 H 226.836 3.89247 4.40183 0
M  V30 2357 H 228.36 3.31073 5.13053 0
M  V30 2358 H 229.774 4.67683 3.31581 0
M  V30 2359 H 228.171 5.29564 2.82281 0
M  V30 2360 H 229.241 4.57507 1.60671 0
M  V30 2361 N 230.584 -0.659388 1.43143 0
M  V30 2362 C 231.824 -1.43121 1.45931 0
M  V30 2363 C 232.188 -1.91838 0.0789298 0
M  V30 2364 O 233.389 -2.68794 -0.018491 0
M  V30 2365 C 231.66 -2.58534 2.46769 0
M  V30 2366 S 233.219 -3.47154 2.68384 0
M  V30 2367 H 230.037 -0.488624 0.516496 0
M  V30 2368 H 232.639 -0.766128 1.79863 0
M  V30 2369 H 231.343 -2.21007 3.45809 0
M  V30 2370 H 230.874 -3.29898 2.14315 0
M  V30 2371 H 232.889 -4.55051 1.97845 0
M  V30 2372 N 232.062 -1.29571 -0.897171 0
M  V30 2373 C 233.473 -1.15964 -1.46319 0
M  V30 2374 C 233.824 0.244267 -1.94674 0
M  V30 2375 O 232.949 1.13998 -1.83939 0
M  V30 2376 C 233.544 -2.09906 -2.65942 0
M  V30 2377 C 232.103 -2.00314 -3.18671 0
M  V30 2378 C 231.25 -2.00687 -1.91363 0
M  V30 2379 H 234.201 -1.42019 -0.708268 0
M  V30 2380 H 234.222 -1.67276 -3.41759 0
M  V30 2381 H 233.734 -3.12075 -2.30718 0
M  V30 2382 H 231.835 -1.01242 -3.58582 0
M  V30 2383 H 231.948 -2.88102 -3.82798 0
M  V30 2384 H 230.312 -1.45319 -2.09175 0
M  V30 2385 H 231.095 -3.04566 -1.58413 0
M  V30 2386 N 233.54 1.10788 -1.12088 0
M  V30 2387 C 234.817 1.79136 -0.785476 0
M  V30 2388 C 235.197 1.98246 0.725377 0
M  V30 2389 O 234.545 1.57258 1.65778 0
M  V30 2390 C 234.755 3.12375 -1.55636 0
M  V30 2391 C 236.103 3.8731 -1.74001 0
M  V30 2392 O 237.127 3.22085 -1.52117 0
M  V30 2393 O 235.986 5.04369 -2.10415 0
M  V30 2394 H 233.08 0.776226 -0.285311 0
M  V30 2395 H 235.626 1.1747 -1.2247 0
M  V30 2396 H 234.398 2.93863 -2.5838 0
M  V30 2397 H 234.021 3.81758 -1.11114 0
M  V30 2398 N 235.018 0.912232 1.28515 0
M  V30 2399 C 236.243 0.559774 1.99703 0
M  V30 2400 C 236.668 -0.851393 1.67729 0
M  V30 2401 O 236.026 -1.56875 0.908834 0
M  V30 2402 C 236.074 0.773874 3.52198 0
M  V30 2403 O 235.178 -0.167842 4.12058 0
M  V30 2404 H 234.519 0.21723 0.627461 0
M  V30 2405 H 237.049 1.22725 1.63706 0
M  V30 2406 H 237.059 0.683386 4.02236 0
M  V30 2407 H 235.734 1.80261 3.74805 0
M  V30 2408 H 234.311 -0.0287509 3.72889 0
M  V30 2409 N 236.496 -1.42363 0.676048 0
M  V30 2410 C 237.744 -2.01123 0.198437 0
M  V30 2411 C 238.065 -1.53731 -1.19966 0
M  V30 2412 O 237.335 -0.759518 -1.80577 0
M  V30 2413 H 235.915 -0.743678 0.0703721 0
M  V30 2414 H 238.577 -1.74263 0.872837 0
M  V30 2415 H 237.673 -3.11454 0.200686 0
M  V30 2416 N 237.974 -0.419461 -1.51915 0
M  V30 2417 C 239.202 0.152136 -2.0634 0
M  V30 2418 C 239.617 1.37988 -1.28859 0
M  V30 2419 O 238.974 1.79243 -0.343232 0
M  V30 2420 C 239.025 0.492266 -3.58133 0
M  V30 2421 O 238.746 -0.686736 -4.32684 0
M  V30 2422 C 240.247 1.11648 -4.2901 0
M  V30 2423 H 237.467 0.0158325 -0.670813 0
M  V30 2424 H 240.011 -0.593394 -1.95702 0
M  V30 2425 H 238.166 1.18769 -3.68745 0
M  V30 2426 H 238.58 -0.400341 -5.2297 0
M  V30 2427 H 240.054 1.3046 -5.36362 0
M  V30 2428 H 240.531 2.09251 -3.86148 0
M  V30 2429 H 241.137 0.460958 -4.22795 0
M  V30 2430 N 239.452 1.56882 -0.150215 0
M  V30 2431 C 240.701 1.95403 0.500071 0
M  V30 2432 C 241.014 1.03777 1.658 0
M  V30 2433 O 242.22 1.31889 2.37313 0
M  V30 2434 C 240.676 3.4738 0.941018 0
M  V30 2435 C 240.284 4.47596 -0.190158 0
M  V30 2436 C 242.028 3.9476 1.56091 0
M  V30 2437 C 239.935 5.90787 0.269237 0
M  V30 2438 H 238.865 0.729515 0.190588 0
M  V30 2439 H 241.516 1.81988 -0.235074 0
M  V30 2440 H 239.898 3.56138 1.73152 0
M  V30 2441 H 241.072 4.50536 -0.967157 0
M  V30 2442 H 239.387 4.10151 -0.718666 0
M  V30 2443 H 241.984 4.99181 1.9163 0
M  V30 2444 H 242.327 3.36494 2.45107 0
M  V30 2445 H 242.86 3.88932 0.835249 0
M  V30 2446 H 239.599 6.52879 -0.585621 0
M  V30 2447 H 239.119 5.912 1.01204 0
M  V30 2448 H 240.798 6.42979 0.720176 0
M  V30 2449 N 240.93 -0.123565 1.57115 0
M  V30 2450 C 241.893 -1.13583 1.99076 0
M  V30 2451 C 242.893 -1.34564 0.880296 0
M  V30 2452 O 244.083 -1.31158 1.14644 0
M  V30 2453 C 241.215 -2.49128 2.32698 0
M  V30 2454 H 242.408 -0.775287 2.89706 0
M  V30 2455 H 239.961 -0.36771 1.51913 0
M  V30 2456 H 240.696 -2.90111 1.44934 0
M  V30 2457 H 240.481 -2.35255 3.13684 0
M  V30 2458 H 241.971 -3.2199 2.65918 0
M  V30 2459 N 242.408 -1.52605 -0.393616 0
M  V30 2460 C 243.371 -1.76415 -1.46323 0
M  V30 2461 C 244.371 -0.634126 -1.47768 0
M  V30 2462 O 245.561 -0.902142 -1.4902 0
M  V30 2463 C 242.693 -1.8607 -2.85641 0
M  V30 2464 H 243.886 -2.71916 -1.26498 0
M  V30 2465 H 241.439 -1.43257 -0.625073 0
M  V30 2466 H 242.174 -0.925378 -3.10817 0
M  V30 2467 H 241.959 -2.68235 -2.85993 0
M  V30 2468 H 243.449 -2.06179 -3.63153 0
M  V30 2469 N 243.887 0.651787 -1.4349 0
M  V30 2470 C 245.303 0.96762 -1.26922 0
M  V30 2471 C 245.503 2.00602 -0.189982 0
M  V30 2472 O 244.559 2.48793 0.431107 0
M  V30 2473 C 245.872 1.45052 -2.63401 0
M  V30 2474 C 247.42 1.5671 -2.70945 0
M  V30 2475 C 247.895 2.0839 -4.07845 0
M  V30 2476 N 249.386 2.1569 -4.09917 0
M  V30 2477 C 250.121 2.56804 -5.12679 0
M  V30 2478 N 249.617 2.97203 -6.25813 0
M  V30 2479 N 251.41 2.56756 -5.00033 0
M  V30 2480 H 243.561 -0.0353158 -2.12371 0
M  V30 2481 H 245.824 0.0467858 -0.946845 0
M  V30 2482 H 245.53 0.761926 -3.43348 0
M  V30 2483 H 245.404 2.42529 -2.88894 0
M  V30 2484 H 247.791 2.2467 -1.9133 0
M  V30 2485 H 247.872 0.57662 -2.49216 0
M  V30 2486 H 247.516 1.41031 -4.87927 0
M  V30 2487 H 247.446 3.08271 -4.26938 0
M  V30 2488 H 249.937 1.87237 -3.28254 0
M  V30 2489 H 250.25 3.27328 -7.00055 0
M  V30 2490 H 248.595 2.95004 -6.29283 0
M  V30 2491 H 251.786 2.24572 -4.10713 0
M  V30 2492 H 251.959 2.88475 -5.80247 0
M  V30 2493 N 245.365 1.30045 0.890287 0
M  V30 2494 C 246.328 1.15963 1.977 0
M  V30 2495 C 247.328 0.0923777 1.60534 0
M  V30 2496 O 248.518 0.340071 1.70848 0
M  V30 2497 C 245.65 0.775451 3.31963 0
M  V30 2498 H 246.843 2.12502 2.11619 0
M  V30 2499 H 244.396 1.13366 1.07601 0
M  V30 2500 H 245.131 -0.189671 3.23745 0
M  V30 2501 H 244.916 1.54668 3.60306 0
M  V30 2502 H 246.406 0.700251 4.11687 0
M  V30 2503 N 246.843 -1.10192 1.12674 0
M  V30 2504 C 247.775 -2.16418 0.754701 0
M  V30 2505 C 248.788 -1.61309 -0.21986 0
M  V30 2506 O 249.977 -1.785 -0.000826841 0
M  V30 2507 C 247.077 -3.38762 0.096698 0
M  V30 2508 C 246.25 -4.23307 1.10136 0
M  V30 2509 C 245.309 -5.24092 0.470513 0
M  V30 2510 O 244.335 -5.57906 1.12824 0
M  V30 2511 N 245.537 -5.75491 -0.760948 0
M  V30 2512 H 248.302 -2.48943 1.66875 0
M  V30 2513 H 245.863 -1.25834 1.01869 0
M  V30 2514 H 247.855 -4.03291 -0.337384 0
M  V30 2515 H 246.425 -3.04192 -0.720153 0
M  V30 2516 H 245.645 -3.55036 1.71299 0
M  V30 2517 H 246.933 -4.76624 1.78064 0
M  V30 2518 H 246.331 -5.50222 -1.31424 0
M  V30 2519 H 244.888 -6.41792 -1.13781 0
M  V30 2520 N 248.321 -0.919034 -1.28029 0
M  V30 2521 C 249.567 -0.555757 -1.95036 0
M  V30 2522 C 249.9 0.899198 -1.72128 0
M  V30 2523 O 249.175 1.64023 -1.04531 0
M  V30 2524 C 249.458 -0.872024 -3.49382 0
M  V30 2525 C 249.311 -2.3801 -3.81669 0
M  V30 2526 C 250.63 -0.37185 -4.38526 0
M  V30 2527 H 247.749 -0.203386 -0.708381 0
M  V30 2528 H 250.391 -1.14924 -1.51303 0
M  V30 2529 H 248.541 -0.366946 -3.86763 0
M  V30 2530 H 250.213 -2.9562 -3.54128 0
M  V30 2531 H 248.456 -2.83289 -3.28526 0
M  V30 2532 H 249.127 -2.55192 -4.8947 0
M  V30 2533 H 251.603 -0.804602 -4.08247 0
M  V30 2534 H 250.479 -0.622173 -5.45362 0
M  V30 2535 H 250.74 0.727934 -4.36066 0
M  V30 2536 N 249.799 1.42003 -0.683588 0
M  V30 2537 C 251.039 2.03282 -0.213513 0
M  V30 2538 C 251.403 1.52924 1.16097 0
M  V30 2539 O 252.604 2.06048 1.7262 0
M  V30 2540 C 250.875 3.56483 -0.255856 0
M  V30 2541 S 252.434 4.3857 0.14193 0
M  V30 2542 H 249.252 0.705659 -0.0869853 0
M  V30 2543 H 251.854 1.73619 -0.8987 0
M  V30 2544 H 250.558 3.90631 -1.25841 0
M  V30 2545 H 250.089 3.90831 0.448875 0
M  V30 2546 H 252.104 4.76828 1.37295 0
M  V30 2547 N 251.277 0.427512 1.51691 0
M  V30 2548 C 252.209 -0.424521 2.25234 0
M  V30 2549 C 253.222 -0.994671 1.2888 0
M  V30 2550 O 254.411 -0.890483 1.54702 0
M  V30 2551 C 251.511 -1.60479 2.98496 0
M  V30 2552 C 250.684 -1.15527 4.21868 0
M  V30 2553 C 249.743 -2.20454 4.77793 0
M  V30 2554 O 248.769 -1.8029 5.39893 0
M  V30 2555 N 249.971 -3.52831 4.60967 0
M  V30 2556 H 252.736 0.205749 2.98993 0
M  V30 2557 H 250.297 0.255867 1.59865 0
M  V30 2558 H 252.289 -2.30276 3.32799 0
M  V30 2559 H 250.859 -2.14061 2.27809 0
M  V30 2560 H 250.079 -0.284736 3.9317 0
M  V30 2561 H 251.367 -0.832173 5.01949 0
M  V30 2562 H 250.765 -3.88201 4.11481 0
M  V30 2563 H 249.322 -4.18551 4.99658 0
M  V30 2564 N 252.755 -1.56801 0.158532 0
M  V30 2565 C 253.687 -2.14488 -0.807923 0
M  V30 2566 C 254.7 -1.09721 -1.20271 0
M  V30 2567 O 255.889 -1.36956 -1.14478 0
M  V30 2568 C 252.989 -2.66217 -2.09718 0
M  V30 2569 C 252.162 -3.95507 -1.86796 0
M  V30 2570 C 251.221 -4.3243 -2.99818 0
M  V30 2571 O 250.247 -5.00543 -2.71008 0
M  V30 2572 N 251.449 -3.92947 -4.27285 0
M  V30 2573 H 254.214 -2.98042 -0.314816 0
M  V30 2574 H 251.775 -1.61881 -0.0246692 0
M  V30 2575 H 253.767 -2.87924 -2.84398 0
M  V30 2576 H 252.337 -1.87324 -2.50257 0
M  V30 2577 H 251.557 -3.82309 -0.96089 0
M  V30 2578 H 252.845 -4.79972 -1.68833 0
M  V30 2579 H 252.243 -3.38087 -4.53557 0
M  V30 2580 H 250.8 -4.19681 -4.9871 0
M  V30 2581 N 254.233 0.115231 -1.57178 0
M  V30 2582 C 255.196 1.12526 -1.99676 0
M  V30 2583 C 256.196 1.34095 -0.88742 0
M  V30 2584 O 257.386 1.30548 -1.15337 0
M  V30 2585 C 254.518 2.4789 -2.34015 0
M  V30 2586 H 255.711 0.759912 -2.90113 0
M  V30 2587 H 253.264 0.359648 -1.52106 0
M  V30 2588 H 253.999 2.89339 -1.4647 0
M  V30 2589 H 253.784 2.33588 -3.14927 0
M  V30 2590 H 255.274 3.20575 -2.67622 0
M  V30 2591 N 255.711 1.52812 0.385517 0
M  V30 2592 C 256.621 1.80766 1.49535 0
M  V30 2593 C 257.637 0.694651 1.59532 0
M  V30 2594 O 258.813 0.982611 1.75803 0
M  V30 2595 C 255.878 1.97381 2.85029 0
M  V30 2596 C 254.939 3.21295 2.84724 0
M  V30 2597 C 254.172 3.37108 4.13756 0
M  V30 2598 O 254.395 2.5765 5.08893 0
M  V30 2599 O 253.329 4.30378 4.20783 0
M  V30 2600 H 257.155 2.75015 1.28842 0
M  V30 2601 H 254.74 1.37946 0.573697 0
M  V30 2602 H 256.622 2.09996 3.65349 0
M  V30 2603 H 255.297 1.06322 3.05741 0
M  V30 2604 H 254.204 3.1412 2.03174 0
M  V30 2605 H 255.537 4.12212 2.68965 0
M  V30 2606 N 257.189 -0.644168 1.43834 0
M  V30 2607 C 258.139 -1.7501 1.46135 0
M  V30 2608 C 259.123 -1.57507 0.328685 0
M  V30 2609 O 260.315 -1.67465 0.5731 0
M  V30 2610 C 257.444 -3.13641 1.39585 0
M  V30 2611 C 256.53 -3.3666 2.57916 0
M  V30 2612 N 256.921 -3.30107 3.83227 0
M  V30 2613 C 255.219 -3.67411 2.52834 0
M  V30 2614 C 255.92 -3.53456 4.61999 0
M  V30 2615 N 254.896 -3.75705 3.9287 0
M  V30 2616 H 258.698 -1.68382 2.40883 0
M  V30 2617 H 256.212 -0.846169 1.38614 0
M  V30 2618 H 258.209 -3.92933 1.39317 0
M  V30 2619 H 256.869 -3.21444 0.45865 0
M  V30 2620 H 257.88 -3.09316 4.15384 0
M  V30 2621 H 254.557 -3.82275 1.67845 0
M  V30 2622 H 255.947 -3.54093 5.71024 0
M  V30 2623 N 258.668 -1.30515 -0.883378 0
M  V30 2624 C 259.893 -1.22487 -1.67367 0
M  V30 2625 C 260.318 0.208767 -1.86938 0
M  V30 2626 O 259.676 1.15015 -1.40148 0
M  V30 2627 C 259.724 -1.96041 -3.02655 0
M  V30 2628 O 258.828 -1.28859 -3.91751 0
M  V30 2629 H 258.169 -0.423573 -0.511353 0
M  V30 2630 H 260.699 -1.72362 -1.10239 0
M  V30 2631 H 260.709 -2.05124 -3.52687 0
M  V30 2632 H 259.384 -3.00307 -2.8773 0
M  V30 2633 H 257.961 -1.28141 -3.50192 0
M  V30 2634 N 260.146 1.09593 -1.13257 0
M  V30 2635 C 261.393 1.81734 -0.893257 0
M  V30 2636 C 261.721 1.8563 0.580656 0
M  V30 2637 O 260.976 1.31906 1.44566 0
M  V30 2638 C 261.275 3.27802 -1.42411 0
M  V30 2639 C 260.941 3.44041 -2.91456 0
M  V30 2640 C 259.603 3.48181 -3.3215 0
M  V30 2641 C 261.955 3.48719 -3.87356 0
M  V30 2642 C 259.283 3.54575 -4.67433 0
M  V30 2643 C 261.635 3.56648 -5.2248 0
M  V30 2644 C 260.299 3.59055 -5.62704 0
M  V30 2645 H 259.569 0.665011 -0.326866 0
M  V30 2646 H 262.216 1.2912 -1.41422 0
M  V30 2647 H 260.521 3.83042 -0.823795 0
M  V30 2648 H 262.218 3.82149 -1.21503 0
M  V30 2649 H 258.808 3.41502 -2.58987 0
M  V30 2650 H 262.992 3.44763 -3.57004 0
M  V30 2651 H 258.248 3.54725 -4.97976 0
M  V30 2652 H 262.422 3.59212 -5.96607 0
M  V30 2653 H 260.049 3.63763 -6.67518 0
M  V30 2654 N 261.624 0.925811 1.2754 0
M  V30 2655 C 262.587 0.428129 2.25166 0
M  V30 2656 C 263.587 -0.452261 1.54309 0
M  V30 2657 O 264.777 -0.253608 1.72344 0
M  V30 2658 C 261.909 -0.384749 3.38722 0
M  V30 2659 H 263.102 1.29066 2.70706 0
M  V30 2660 H 260.655 0.706323 1.3943 0
M  V30 2661 H 261.39 -1.26618 2.98561 0
M  V30 2662 H 261.175 0.246454 3.91325 0
M  V30 2663 H 262.665 -0.723389 4.11287 0
M  V30 2664 N 263.102 -1.41638 0.69111 0
M  V30 2665 C 264.35 -2.00902 0.219758 0
M  V30 2666 C 264.671 -1.54994 -1.18329 0
M  V30 2667 O 263.941 -0.778628 -1.79762 0
M  V30 2668 H 262.521 -0.74289 0.0782558 0
M  V30 2669 H 265.183 -1.73327 0.891271 0
M  V30 2670 H 264.279 -3.11224 0.233708 0
M  V30 2671 N 264.58 -0.43555 -1.51462 0
M  V30 2672 C 265.513 0.421989 -2.24264 0
M  V30 2673 C 266.491 1.02619 -1.26127 0
M  V30 2674 O 267.675 1.069 -1.55257 0
M  V30 2675 C 264.802 1.588 -2.99166 0
M  V30 2676 C 263.848 1.10465 -4.11946 0
M  V30 2677 S 264.681 0.048146 -5.35478 0
M  V30 2678 C 265.837 1.21887 -6.13917 0
M  V30 2679 H 266.07 -0.196102 -2.96653 0
M  V30 2680 H 263.603 -0.220054 -1.52824 0
M  V30 2681 H 265.561 2.25647 -3.42919 0
M  V30 2682 H 264.222 2.1775 -2.26371 0
M  V30 2683 H 263.415 1.97654 -4.63626 0
M  V30 2684 H 263.017 0.51445 -3.70445 0
M  V30 2685 H 265.309 2.13756 -6.42895 0
M  V30 2686 H 266.252 0.742076 -7.04201 0
M  V30 2687 H 266.66 1.45663 -5.45383 0
M  V30 2688 N 266.058 1.56714 -0.166846 0
M  V30 2689 C 267.469 1.83378 0.350646 0
M  V30 2690 C 267.82 1.08646 1.63372 0
M  V30 2691 O 266.945 0.338058 2.13743 0
M  V30 2692 C 267.54 3.32643 0.642963 0
M  V30 2693 C 266.099 3.59818 1.10491 0
M  V30 2694 C 265.246 2.76954 0.138411 0
M  V30 2695 H 268.197 1.53803 -0.391193 0
M  V30 2696 H 268.218 3.49878 1.49551 0
M  V30 2697 H 267.73 3.87007 -0.291055 0
M  V30 2698 H 265.831 3.1086 2.05418 0
M  V30 2699 H 265.944 4.68178 1.01716 0
M  V30 2700 H 264.308 2.4666 0.634911 0
M  V30 2701 H 265.091 3.34097 -0.789549 0
M  V30 2702 N 267.536 -0.106894 1.57237 0
M  V30 2703 C 268.776 -0.818277 1.87306 0
M  V30 2704 C 269.14 -1.76474 0.756371 0
M  V30 2705 O 270.341 -2.5186 0.939155 0
M  V30 2706 C 268.612 -1.53806 3.22612 0
M  V30 2707 S 270.171 -2.28935 3.74345 0
M  V30 2708 H 266.989 -0.272862 0.656557 0
M  V30 2709 H 269.591 -0.075988 1.95352 0
M  V30 2710 H 268.295 -0.834951 4.01817 0
M  V30 2711 H 267.826 -2.32049 3.17674 0
M  V30 2712 H 269.841 -3.54871 3.46815 0
M  V30 2713 N 269.014 -1.53014 -0.377408 0
M  V30 2714 C 270.262 -1.6829 -1.11906 0
M  V30 2715 C 270.583 -0.431206 -1.90173 0
M  V30 2716 O 269.853 0.554595 -1.87886 0
M  V30 2717 H 268.433 -0.620371 -0.416112 0
M  V30 2718 H 271.095 -1.90167 -0.426893 0
M  V30 2719 H 270.191 -2.53862 -1.8155 0
M  V30 2720 N 270.492 0.636531 -1.44174 0
M  V30 2721 C 271.741 1.39213 -1.45954 0
M  V30 2722 C 272.054 1.95374 -0.0939119 0
M  V30 2723 O 273.26 2.71498 0.0107767 0
M  V30 2724 C 271.716 2.52025 -2.56927 0
M  V30 2725 C 271.324 2.024 -3.99673 0
M  V30 2726 C 273.068 3.29269 -2.67922 0
M  V30 2727 C 270.975 3.12521 -5.0208 0
M  V30 2728 H 269.905 0.523132 -0.542999 0
M  V30 2729 H 272.556 0.685349 -1.70221 0
M  V30 2730 H 270.938 3.25253 -2.25891 0
M  V30 2731 H 272.112 1.36073 -4.40251 0
M  V30 2732 H 270.427 1.37987 -3.92872 0
M  V30 2733 H 273.024 4.11352 -3.41605 0
M  V30 2734 H 273.367 3.78397 -1.73555 0
M  V30 2735 H 273.9 2.63129 -2.98342 0
M  V30 2736 H 270.639 2.68343 -5.98057 0
M  V30 2737 H 270.159 3.77507 -4.66099 0
M  V30 2738 H 271.838 3.77385 -5.25538 0
M  V30 2739 N 271.97 1.30982 0.876444 0
M  V30 2740 C 272.903 1.12414 1.98591 0
M  V30 2741 C 273.881 0.0294078 1.62573 0
M  V30 2742 O 275.065 0.184598 1.87594 0
M  V30 2743 C 272.192 0.716276 3.3104 0
M  V30 2744 C 271.238 1.81311 3.86042 0
M  V30 2745 S 272.071 3.41727 4.1229 0
M  V30 2746 C 273.227 3.02863 5.47745 0
M  V30 2747 H 273.46 2.06338 2.14037 0
M  V30 2748 H 270.993 1.15393 1.02586 0
M  V30 2749 H 272.951 0.487697 4.07593 0
M  V30 2750 H 271.612 -0.203749 3.13438 0
M  V30 2751 H 270.805 1.48021 4.81774 0
M  V30 2752 H 270.407 1.99641 3.16259 0
M  V30 2753 H 272.699 2.51353 6.29148 0
M  V30 2754 H 273.642 3.97533 5.8598 0
M  V30 2755 H 274.05 2.40487 5.10711 0
M  V30 2756 N 273.449 -1.08991 1.13837 0
M  V30 2757 C 274.726 -1.77863 0.813876 0
M  V30 2758 C 275.106 -1.99375 -0.693746 0
M  V30 2759 O 274.454 -1.59875 -1.63255 0
M  V30 2760 C 274.664 -3.0986 1.60586 0
M  V30 2761 C 276.012 -3.84493 1.8014 0
M  V30 2762 O 277.036 -3.19624 1.57222 0
M  V30 2763 O 275.895 -5.00957 2.18413 0
M  V30 2764 H 272.989 -0.771589 0.297624 0
M  V30 2765 H 275.535 -1.15507 1.24323 0
M  V30 2766 H 274.307 -2.89715 2.63022 0
M  V30 2767 H 273.93 -3.79942 1.17173 0
M  V30 2768 N 274.927 -0.932562 -1.27047 0
M  V30 2769 C 275.859 -0.392734 -2.2581 0
M  V30 2770 C 276.872 0.479241 -1.55586 0
M  V30 2771 O 278.061 0.291078 -1.76111 0
M  V30 2772 C 275.161 0.455456 -3.35826 0
M  V30 2773 C 274.334 -0.398355 -4.35582 0
M  V30 2774 C 273.393 0.387985 -5.24768 0
M  V30 2775 O 272.419 -0.206003 -5.68827 0
M  V30 2776 N 273.621 1.68664 -5.55457 0
M  V30 2777 H 276.386 -1.24173 -2.72766 0
M  V30 2778 H 273.947 -0.800511 -1.40725 0
M  V30 2779 H 275.939 0.988692 -3.92437 0
M  V30 2780 H 274.509 1.20522 -2.88432 0
M  V30 2781 H 273.729 -1.11286 -3.78165 0
M  V30 2782 H 275.017 -0.981889 -4.99236 0
M  V30 2783 H 274.415 2.19147 -5.21528 0
M  V30 2784 H 272.972 2.1663 -6.14748 0
M  V30 2785 N 276.405 1.4127 -0.698611 0
M  V30 2786 C 277.652 2.0118 -0.230865 0
M  V30 2787 C 277.98 1.55338 1.17049 0
M  V30 2788 O 277.235 0.756775 1.80475 0
M  V30 2789 C 277.534 3.56592 -0.240192 0
M  V30 2790 C 277.2 4.21955 -1.58948 0
M  V30 2791 C 275.862 4.39524 -1.95887 0
M  V30 2792 C 278.214 4.58576 -2.47704 0
M  V30 2793 C 275.542 4.90992 -3.2116 0
M  V30 2794 C 277.894 5.11435 -3.72313 0
M  V30 2795 C 276.558 5.27215 -4.0939 0
M  V30 2796 H 275.828 0.736169 -0.0844796 0
M  V30 2797 H 278.475 1.69124 -0.8983 0
M  V30 2798 H 276.78 3.88456 0.510797 0
M  V30 2799 H 278.477 4.00758 0.139296 0
M  V30 2800 H 275.067 4.08657 -1.29219 0
M  V30 2801 H 279.251 4.44654 -2.20445 0
M  V30 2802 H 274.507 5.01393 -3.49878 0
M  V30 2803 H 278.681 5.38752 -4.4127 0
M  V30 2804 H 276.308 5.66859 -5.06533 0
M  V30 2805 N 277.883 0.443576 1.51229 0
M  V30 2806 C 279.132 -0.122332 2.01329 0
M  V30 2807 C 279.445 -1.43237 1.33201 0
M  V30 2808 O 280.651 -2.0816 1.74304 0
M  V30 2809 C 279.107 -0.268551 3.58897 0
M  V30 2810 C 278.715 1.03142 4.35965 0
M  V30 2811 C 280.459 -0.787894 4.17124 0
M  V30 2812 C 278.366 0.850504 5.85252 0
M  V30 2813 H 277.296 -0.0494929 0.752374 0
M  V30 2814 H 279.947 0.574289 1.74282 0
M  V30 2815 H 278.329 -1.02832 3.82415 0
M  V30 2816 H 279.503 1.80001 4.24189 0
M  V30 2817 H 277.818 1.47977 3.89219 0
M  V30 2818 H 280.415 -0.939841 5.26375 0
M  V30 2819 H 280.758 -1.77201 3.76703 0
M  V30 2820 H 281.291 -0.0862669 3.97706 0
M  V30 2821 H 278.03 1.80718 6.30096 0
M  V30 2822 H 277.55 0.121825 5.99676 0
M  V30 2823 H 279.229 0.506163 6.45017 0
M  V30 2824 N 279.361 -1.56624 0.175154 0
M  V30 2825 C 280.586 -2.01813 -0.478137 0
M  V30 2826 C 281.011 -1.05457 -1.55757 0
M  V30 2827 O 280.369 -0.0347439 -1.81267 0
M  V30 2828 C 280.417 -3.45581 -1.02987 0
M  V30 2829 O 279.521 -3.52305 -2.14371 0
M  V30 2830 H 278.862 -0.65413 -0.114059 0
M  V30 2831 H 281.392 -2.02673 0.280173 0
M  V30 2832 H 281.402 -3.84965 -1.35151 0
M  V30 2833 H 280.077 -4.1521 -0.239556 0
M  V30 2834 H 278.654 -3.24783 -1.83222 0
M  V30 2835 N 280.839 0.0985539 -1.57292 0
M  V30 2836 C 281.769 1.12064 -2.04851 0
M  V30 2837 C 282.75 1.41981 -0.936767 0
M  V30 2838 O 283.935 1.52071 -1.20781 0
M  V30 2839 C 281.065 2.44144 -2.47004 0
M  V30 2840 C 280.019 2.28643 -3.6181 0
M  V30 2841 C 279.345 3.65869 -3.89929 0
M  V30 2842 C 280.645 1.72986 -4.92822 0
M  V30 2843 H 282.339 0.724979 -2.9049 0
M  V30 2844 H 279.885 0.34729 -1.39749 0
M  V30 2845 H 281.838 3.15914 -2.78884 0
M  V30 2846 H 280.562 2.85639 -1.5836 0
M  V30 2847 H 279.221 1.59318 -3.30172 0
M  V30 2848 H 278.869 4.04885 -2.98458 0
M  V30 2849 H 278.569 3.56344 -4.67218 0
M  V30 2850 H 280.093 4.39112 -4.2428 0
M  V30 2851 H 281.507 2.34593 -5.23105 0
M  V30 2852 H 279.904 1.74229 -5.74251 0
M  V30 2853 H 280.974 0.689007 -4.7998 0
M  V30 2854 N 282.317 1.53212 0.369288 0
M  V30 2855 C 283.25 1.74166 1.4745 0
M  V30 2856 C 284.228 0.589923 1.51521 0
M  V30 2857 O 285.412 0.822078 1.69629 0
M  V30 2858 C 282.539 1.81711 2.8583 0
M  V30 2859 C 281.585 3.03649 2.99499 0
M  V30 2860 S 282.418 4.63242 2.6864 0
M  V30 2861 C 283.574 4.7363 4.09177 0
M  V30 2862 H 283.807 2.67636 1.29454 0
M  V30 2863 H 281.34 1.43754 0.563396 0
M  V30 2864 H 283.298 1.86743 3.65564 0
M  V30 2865 H 281.959 0.89299 3.01139 0
M  V30 2866 H 281.152 3.05526 4.00836 0
M  V30 2867 H 280.754 2.9671 2.27683 0
M  V30 2868 H 283.046 4.53456 5.03372 0
M  V30 2869 H 283.989 5.75682 4.12306 0
M  V30 2870 H 284.397 4.02295 3.96004 0
M  V30 2871 N 283.795 -0.628877 1.44509 0
M  V30 2872 C 285.043 -1.38565 1.4712 0
M  V30 2873 C 285.364 -1.94712 0.105899 0
M  V30 2874 O 284.634 -1.75912 -0.862079 0
M  V30 2875 H 283.214 -0.514333 0.541729 0
M  V30 2876 H 285.876 -0.740018 1.80305 0
M  V30 2877 H 284.972 -2.21583 2.19789 0
M  V30 2878 N 285.273 -1.31445 -0.869486 0
M  V30 2879 C 286.205 -1.14955 -1.98287 0
M  V30 2880 C 287.218 -0.0885037 -1.62559 0
M  V30 2881 O 288.407 -0.336044 -1.75308 0
M  V30 2882 C 285.507 -0.734255 -3.3085 0
M  V30 2883 C 284.68 -1.88042 -3.94917 0
M  V30 2884 C 283.739 -1.4511 -5.05796 0
M  V30 2885 O 282.765 -2.16082 -5.2659 0
M  V30 2886 N 283.967 -0.338763 -5.79511 0
M  V30 2887 H 286.732 -2.10856 -2.12979 0
M  V30 2888 H 284.293 -1.23786 -1.04349 0
M  V30 2889 H 286.285 -0.42975 -4.02412 0
M  V30 2890 H 284.855 0.133158 -3.12316 0
M  V30 2891 H 284.075 -2.35222 -3.1633 0
M  V30 2892 H 285.363 -2.6481 -4.34457 0
M  V30 2893 H 284.761 0.252274 -5.65137 0
M  V30 2894 H 283.318 -0.0937925 -6.51733 0
M  V30 2895 N 286.751 1.08385 -1.14413 0
M  V30 2896 C 287.698 2.15311 -0.831265 0
M  V30 2897 C 288.668 1.64751 0.211292 0
M  V30 2898 O 289.853 1.90627 0.0811674 0
M  V30 2899 C 286.993 3.43658 -0.315143 0
M  V30 2900 C 286.106 4.08064 -1.41802 0
M  V30 2901 C 285.241 5.24207 -0.859126 0
M  V30 2902 C 284.28 5.80554 -1.93967 0
M  V30 2903 N 283.417 6.88042 -1.39793 0
M  V30 2904 H 288.257 2.41415 -1.74708 0
M  V30 2905 H 285.794 1.18474 -0.871909 0
M  V30 2906 H 287.752 4.172 0.00230884 0
M  V30 2907 H 286.382 3.17839 0.56378 0
M  V30 2908 H 285.434 3.3228 -1.85187 0
M  V30 2909 H 286.746 4.45962 -2.23427 0
M  V30 2910 H 285.9 6.04689 -0.49359 0
M  V30 2911 H 284.639 4.87699 -0.011932 0
M  V30 2912 H 283.644 4.98725 -2.31415 0
M  V30 2913 H 284.869 6.19121 -2.79046 0
M  V30 2914 H 282.815 6.53493 -0.572919 0
M  V30 2915 H 282.732 7.24767 -2.15054 0
M  V30 2916 H 284 7.72255 -1.0603 0
M  V30 2917 N 288.23 0.939286 1.26551 0
M  V30 2918 C 289.478 0.58469 1.93457 0
M  V30 2919 C 289.799 -0.878774 1.74076 0
M  V30 2920 O 289.069 -1.62421 1.09528 0
M  V30 2921 H 287.649 0.21325 0.715914 0
M  V30 2922 H 290.311 1.1942 1.54029 0
M  V30 2923 H 289.407 0.800849 3.0165 0
M  V30 2924 N 289.708 -1.40897 0.706093 0
M  V30 2925 C 290.658 -2.27987 0.0240746 0
M  V30 2926 C 291.642 -1.42759 -0.742204 0
M  V30 2927 O 292.834 -1.65936 -0.615966 0
M  V30 2928 C 289.963 -3.31186 -0.903907 0
M  V30 2929 C 289.049 -4.2389 -0.133318 0
M  V30 2930 N 289.44 -4.98113 0.878444 0
M  V30 2931 C 287.738 -4.44485 -0.367269 0
M  V30 2932 C 288.439 -5.6604 1.34064 0
M  V30 2933 N 287.415 -5.39522 0.664565 0
M  V30 2934 H 291.217 -2.82812 0.799658 0
M  V30 2935 H 288.731 -1.53235 0.537845 0
M  V30 2936 H 290.728 -3.92413 -1.40775 0
M  V30 2937 H 289.388 -2.77922 -1.67897 0
M  V30 2938 H 290.399 -5.02364 1.25901 0
M  V30 2939 H 287.076 -4.02213 -1.1194 0
M  V30 2940 H 288.466 -6.35524 2.1808 0
M  V30 2941 N 291.186 -0.45159 -1.50991 0
M  V30 2942 C 292.149 0.341117 -2.26647 0
M  V30 2943 C 293.149 0.937422 -1.30649 0
M  V30 2944 O 294.339 0.809644 -1.54241 0
M  V30 2945 C 291.471 1.48398 -3.06905 0
M  V30 2946 H 292.664 -0.322117 -2.98165 0
M  V30 2947 H 290.217 -0.205122 -1.54948 0
M  V30 2948 H 290.952 2.18284 -2.39838 0
M  V30 2949 H 290.737 1.06241 -3.77432 0
M  V30 2950 H 292.227 2.04367 -3.64176 0
M  V30 2951 N 292.664 1.56529 -0.183458 0
M  V30 2952 C 293.594 2.21549 0.737456 0
M  V30 2953 C 294.575 1.17489 1.23005 0
M  V30 2954 O 295.76 1.45959 1.281 0
M  V30 2955 C 292.89 2.86575 1.96194 0
M  V30 2956 C 291.844 3.96778 1.60473 0
M  V30 2957 C 291.17 4.48911 2.90487 0
M  V30 2958 C 292.47 5.15767 0.823497 0
M  V30 2959 H 294.164 2.98761 0.195453 0
M  V30 2960 H 291.71 1.43702 0.0925686 0
M  V30 2961 H 293.663 3.30739 2.61131 0
M  V30 2962 H 292.387 2.06749 2.52828 0
M  V30 2963 H 291.046 3.53286 0.978997 0
M  V30 2964 H 290.694 3.65862 3.45186 0
M  V30 2965 H 290.394 5.23265 2.67335 0
M  V30 2966 H 291.918 4.95771 3.56432 0
M  V30 2967 H 293.332 5.56549 1.37571 0
M  V30 2968 H 291.729 5.96114 0.690551 0
M  V30 2969 H 292.799 4.84574 -0.177782 0
M  V30 2970 N 294.142 -0.090211 1.57342 0
M  V30 2971 C 295.072 -1.10976 2.05443 0
M  V30 2972 C 296.053 -1.41482 0.944284 0
M  V30 2973 O 297.238 -1.51428 1.21586 0
M  V30 2974 C 294.368 -2.42831 2.48295 0
M  V30 2975 C 293.322 -2.26721 3.63018 0
M  V30 2976 C 292.648 -3.63796 3.91863 0
M  V30 2977 C 293.948 -1.7037 4.93732 0
M  V30 2978 H 295.642 -0.709564 2.9087 0
M  V30 2979 H 293.188 -0.339874 1.39932 0
M  V30 2980 H 295.141 -3.14431 2.80555 0
M  V30 2981 H 293.865 -2.84795 1.59873 0
M  V30 2982 H 292.524 -1.57565 3.31012 0
M  V30 2983 H 292.172 -4.03297 3.00601 0
M  V30 2984 H 291.872 -3.53861 4.69101 0
M  V30 2985 H 293.396 -4.36855 4.26603 0
M  V30 2986 H 294.81 -2.31816 5.24342 0
M  V30 2987 H 293.207 -1.71181 5.75167 0
M  V30 2988 H 294.277 -0.663542 4.80339 0
M  V30 2989 N 295.62 -1.53406 -0.361157 0
M  V30 2990 C 296.869 -1.69022 -1.10066 0
M  V30 2991 C 297.182 -0.450838 -1.90333 0
M  V30 2992 O 298.388 -0.487617 -2.67085 0
M  V30 2993 C 296.844 -2.98812 -2.00598 0
M  V30 2994 C 296.452 -4.30027 -1.25621 0
M  V30 2995 C 298.196 -3.23795 -2.74513 0
M  V30 2996 C 296.103 -5.50903 -2.1508 0
M  V30 2997 H 295.033 -0.629776 -0.414606 0
M  V30 2998 H 297.684 -1.79907 -0.361348 0
M  V30 2999 H 296.066 -2.8174 -2.78278 0
M  V30 3000 H 297.24 -4.57745 -0.529739 0
M  V30 3001 H 295.555 -4.11522 -0.635496 0
M  V30 3002 H 298.152 -4.11289 -3.41681 0
M  V30 3003 H 298.495 -2.40045 -3.40123 0
M  V30 3004 H 299.028 -3.41561 -2.03914 0
M  V30 3005 H 295.767 -6.37143 -1.54041 0
M  V30 3006 H 295.287 -5.27459 -2.85565 0
M  V30 3007 H 296.966 -5.85865 -2.74538 0
M  V30 3008 N 297.098 0.621204 -1.44841 0
M  V30 3009 C 298.375 1.38 -1.38619 0
M  V30 3010 C 298.755 2.11041 -0.0498935 0
M  V30 3011 O 298.103 2.06992 0.967816 0
M  V30 3012 C 298.313 2.33817 -2.59096 0
M  V30 3013 C 299.661 2.96844 -3.03593 0
M  V30 3014 O 300.685 2.44141 -2.59371 0
M  V30 3015 O 299.544 3.92476 -3.80296 0
M  V30 3016 H 296.638 0.61811 -0.549426 0
M  V30 3017 H 299.184 0.645429 -1.56947 0
M  V30 3018 H 297.956 1.79012 -3.47952 0
M  V30 3019 H 297.579 3.14676 -2.43032 0
M  V30 3020 N 298.576 1.31904 0.862503 0
M  V30 3021 C 299.816 1.23324 1.63004 0
M  V30 3022 C 300.18 -0.203724 1.90916 0
M  V30 3023 O 301.381 -0.413132 2.65606 0
M  V30 3024 C 299.652 2.06116 2.91978 0
M  V30 3025 S 301.211 2.14478 3.82812 0
M  V30 3026 H 298.029 0.439117 0.559193 0
M  V30 3027 H 300.631 1.66658 1.02202 0
M  V30 3028 H 299.335 3.09593 2.69407 0
M  V30 3029 H 298.866 1.6353 3.57801 0
M  V30 3030 H 300.881 1.28855 4.79177 0
M  V30 3031 N 300.054 -1.07777 1.14986 0
M  V30 3032 C 301.47 -1.32373 0.891596 0
M  V30 3033 C 301.67 -1.9609 -0.463788 0
M  V30 3034 O 300.726 -2.21801 -1.20667 0
M  V30 3035 C 302.039 -2.21905 2.02925 0
M  V30 3036 C 303.587 -2.35367 2.06329 0
M  V30 3037 C 304.062 -3.28245 3.19405 0
M  V30 3038 N 305.553 -3.35824 3.19024 0
M  V30 3039 C 306.288 -4.07739 4.03158 0
M  V30 3040 N 305.784 -4.82306 4.97346 0
M  V30 3041 N 307.577 -4.03635 3.91197 0
M  V30 3042 H 299.728 -0.648039 2.02273 0
M  V30 3043 H 301.991 -0.348149 0.881757 0
M  V30 3044 H 301.697 -1.82342 3.0074 0
M  V30 3045 H 301.571 -3.22407 1.95789 0
M  V30 3046 H 303.958 -2.74186 1.09116 0
M  V30 3047 H 304.039 -1.34585 2.17533 0
M  V30 3048 H 303.683 -2.90146 4.16867 0
M  V30 3049 H 303.613 -4.28971 3.05437 0
M  V30 3050 H 306.104 -2.8267 2.50811 0
M  V30 3051 H 306.417 -5.34661 5.57994 0
M  V30 3052 H 304.762 -4.81337 5.01338 0
M  V30 3053 H 307.953 -3.44491 3.16928 0
M  V30 3054 H 308.126 -4.59417 4.5699 0
M  V30 3055 N 301.532 -0.945985 -1.26051 0
M  V30 3056 C 302.757 -0.612525 -1.98149 0
M  V30 3057 C 303.182 0.806623 -1.69927 0
M  V30 3058 O 302.54 1.54411 -0.950108 0
M  V30 3059 C 302.588 -0.866981 -3.50023 0
M  V30 3060 O 301.692 0.0585333 -4.12358 0
M  V30 3061 H 301.033 -0.23379 -0.621481 0
M  V30 3062 H 303.563 -1.27023 -1.60395 0
M  V30 3063 H 303.573 -0.789792 -4.00283 0
M  V30 3064 H 302.248 -1.90135 -3.69894 0
M  V30 3065 H 300.825 -0.0701241 -3.72834 0
M  V30 3066 N 303.011 1.40521 -0.713556 0
M  V30 3067 C 303.941 2.33381 -0.0743864 0
M  V30 3068 C 304.922 1.52784 0.747735 0
M  V30 3069 O 306.107 1.81258 0.697071 0
M  V30 3070 C 303.237 3.36748 0.849598 0
M  V30 3071 C 302.191 4.27793 0.133247 0
M  V30 3072 C 301.517 5.21679 1.17281 0
M  V30 3073 C 302.817 5.12415 -1.01134 0
M  V30 3074 H 304.511 2.87081 -0.850007 0
M  V30 3075 H 302.057 1.38034 -0.410201 0
M  V30 3076 H 304.01 4.00648 1.30612 0
M  V30 3077 H 302.734 2.81439 1.65709 0
M  V30 3078 H 301.393 3.65342 -0.303426 0
M  V30 3079 H 301.041 4.62677 1.9733 0
M  V30 3080 H 300.741 5.83435 0.698397 0
M  V30 3081 H 302.265 5.88456 1.62947 0
M  V30 3082 H 303.679 5.69781 -0.634274 0
M  V30 3083 H 302.076 5.83203 -1.41399 0
M  V30 3084 H 303.146 4.48514 -1.84292 0
M  V30 3085 N 304.489 0.459591 1.5075 0
M  V30 3086 C 305.399 -0.34613 2.32033 0
M  V30 3087 C 306.415 -1.00686 1.41909 0
M  V30 3088 O 307.591 -0.997361 1.7497 0
M  V30 3089 C 304.656 -1.42029 3.16273 0
M  V30 3090 C 303.717 -0.777362 4.22203 0
M  V30 3091 C 302.95 -1.80034 5.02418 0
M  V30 3092 O 303.173 -3.02544 4.83553 0
M  V30 3093 O 302.107 -1.37853 5.85901 0
M  V30 3094 H 305.933 0.318054 3.0203 0
M  V30 3095 H 303.518 0.221663 1.47746 0
M  V30 3096 H 305.4 -2.04275 3.68578 0
M  V30 3097 H 304.075 -2.06815 2.49016 0
M  V30 3098 H 302.982 -0.116256 3.73919 0
M  V30 3099 H 304.315 -0.172634 4.91897 0
M  V30 3100 N 305.967 -1.56429 0.191757 0
M  V30 3101 C 307.195 -2.01867 -0.453586 0
M  V30 3102 C 307.61 -1.07191 -1.5542 0
M  V30 3103 O 306.967 -0.0762108 -1.82341 0
M  V30 3104 C 307.018 -3.47017 -1.013 0
M  V30 3105 O 306.739 -4.38078 0.0437005 0
M  V30 3106 C 308.24 -4.07956 -1.73456 0
M  V30 3107 H 305.46 -0.661211 -0.114199 0
M  V30 3108 H 308.004 -2.02295 0.299483 0
M  V30 3109 H 306.159 -3.47298 -1.71647 0
M  V30 3110 H 306.573 -5.23178 -0.372212 0
M  V30 3111 H 308.047 -5.1138 -2.07833 0
M  V30 3112 H 308.524 -3.51222 -2.63704 0
M  V30 3113 H 309.13 -4.11437 -1.07702 0
M  V30 3114 N 307.445 0.0818655 -1.57387 0
M  V30 3115 C 308.67 0.799946 -1.91352 0
M  V30 3116 C 309.095 1.70833 -0.787258 0
M  V30 3117 O 308.453 1.79419 0.26048 0
M  V30 3118 C 308.501 1.57812 -3.24234 0
M  V30 3119 O 307.605 2.68806 -3.12757 0
M  V30 3120 H 306.946 0.21891 -0.626877 0
M  V30 3121 H 309.476 0.0531256 -2.04531 0
M  V30 3122 H 309.486 1.95952 -3.57864 0
M  V30 3123 H 308.161 0.911548 -4.05788 0
M  V30 3124 H 306.738 2.33597 -2.90666 0
M  V30 3125 N 308.923 1.53595 0.353017 0
M  V30 3126 C 309.853 1.83902 1.43883 0
M  V30 3127 C 310.834 0.693421 1.55324 0
M  V30 3128 O 312.019 0.944452 1.69687 0
M  V30 3129 C 309.149 2.04016 2.8106 0
M  V30 3130 C 308.103 3.19814 2.84434 0
M  V30 3131 C 307.429 3.25244 4.24406 0
M  V30 3132 C 308.729 4.58133 2.50822 0
M  V30 3133 H 310.423 2.74835 1.1877 0
M  V30 3134 H 307.969 1.32242 0.569917 0
M  V30 3135 H 309.922 2.238 3.57059 0
M  V30 3136 H 308.646 1.09804 3.07588 0
M  V30 3137 H 307.305 2.9987 2.10887 0
M  V30 3138 H 306.953 2.28646 4.48029 0
M  V30 3139 H 306.653 4.03054 4.27576 0
M  V30 3140 H 308.177 3.47228 5.0226 0
M  V30 3141 H 309.591 4.77995 3.16534 0
M  V30 3142 H 307.988 5.38276 2.6529 0
M  V30 3143 H 309.058 4.62387 1.46034 0
M  V30 3144 N 310.401 -0.613514 1.45168 0
M  V30 3145 C 311.647 -1.37471 1.49096 0
M  V30 3146 C 311.98 -1.93765 0.129901 0
M  V30 3147 O 311.255 -1.74707 -0.854858 0
M  V30 3148 C 311.538 -2.52701 2.56542 0
M  V30 3149 C 311.391 -2.01643 4.0207 0
M  V30 3150 C 312.71 -3.54849 2.60327 0
M  V30 3151 H 309.829 -0.498502 0.54283 0
M  V30 3152 H 312.471 -0.692125 1.76945 0
M  V30 3153 H 310.621 -3.10931 2.32926 0
M  V30 3154 H 312.293 -1.48108 4.36877 0
M  V30 3155 H 310.536 -1.32688 4.13009 0
M  V30 3156 H 311.207 -2.84681 4.72928 0
M  V30 3157 H 313.683 -3.0645 2.81474 0
M  V30 3158 H 312.559 -4.32973 3.37381 0
M  V30 3159 H 312.82 -4.10079 1.6519 0
M  V30 3160 N 311.879 -1.3236 -0.855495 0
M  V30 3161 C 313.29 -1.2056 -1.42556 0
M  V30 3162 C 313.641 0.182209 -1.95352 0
M  V30 3163 O 312.766 1.08088 -1.87472 0
M  V30 3164 C 313.361 -2.1826 -2.59129 0
M  V30 3165 C 311.92 -2.10351 -3.12137 0
M  V30 3166 C 311.067 -2.06674 -1.84882 0
M  V30 3167 H 314.018 -1.442 -0.662727 0
M  V30 3168 H 314.039 -1.78064 -3.36264 0
M  V30 3169 H 313.551 -3.19257 -2.20673 0
M  V30 3170 H 311.652 -1.12599 -3.55179 0
M  V30 3171 H 311.765 -3.00135 -3.73438 0
M  V30 3172 H 310.129 -1.51901 -2.04446 0
M  V30 3173 H 310.912 -3.09451 -1.48643 0
M  V30 3174 N 313.357 1.07166 -1.15556 0
M  V30 3175 C 314.287 2.16403 -0.877046 0
M  V30 3176 C 315.268 1.69217 0.173111 0
M  V30 3177 O 316.453 1.94181 0.027084 0
M  V30 3178 C 313.583 3.45349 -0.367632 0
M  V30 3179 C 312.537 4.05995 -1.35468 0
M  V30 3180 C 311.863 5.30045 -0.704038 0
M  V30 3181 C 313.163 4.45804 -2.72132 0
M  V30 3182 H 314.857 2.39959 -1.79053 0
M  V30 3183 H 312.403 1.15325 -0.862331 0
M  V30 3184 H 314.356 4.21095 -0.160317 0
M  V30 3185 H 313.08 3.21385 0.581326 0
M  V30 3186 H 311.739 3.32296 -1.54839 0
M  V30 3187 H 311.387 5.02373 0.251128 0
M  V30 3188 H 311.087 5.71579 -1.36277 0
M  V30 3189 H 312.611 6.08495 -0.50654 0
M  V30 3190 H 314.025 5.12671 -2.56595 0
M  V30 3191 H 312.422 4.98296 -3.34397 0
M  V30 3192 H 313.492 3.57083 -3.28054 0
M  V30 3193 N 314.835 0.952656 1.25548 0
M  V30 3194 C 316.06 0.623025 1.97821 0
M  V30 3195 C 316.485 -0.7976 1.70352 0
M  V30 3196 O 315.843 -1.53905 0.958283 0
M  V30 3197 C 315.891 0.885532 3.49558 0
M  V30 3198 O 314.995 -0.0366641 4.12384 0
M  V30 3199 H 314.336 0.237082 0.620232 0
M  V30 3200 H 316.866 1.27871 1.59719 0
M  V30 3201 H 316.876 0.811009 3.99858 0
M  V30 3202 H 315.551 1.92094 3.6888 0
M  V30 3203 H 314.128 0.0898954 3.72792 0
M  V30 3204 N 316.313 -1.40141 0.720998 0
M  V30 3205 C 317.59 -1.94677 0.189757 0
M  V30 3206 C 317.97 -1.65879 -1.30566 0
M  V30 3207 O 317.318 -0.979391 -2.06447 0
M  V30 3208 C 317.528 -3.45279 0.508304 0
M  V30 3209 C 318.876 -4.22209 0.449934 0
M  V30 3210 O 319.9 -3.53413 0.444677 0
M  V30 3211 O 318.759 -5.44788 0.432189 0
M  V30 3212 H 315.853 -0.826459 0.0299026 0
M  V30 3213 H 318.399 -1.49719 0.7989 0
M  V30 3214 H 317.171 -3.59619 1.54239 0
M  V30 3215 H 316.794 -3.97386 -0.130525 0
M  V30 3216 N 317.792 -0.46758 -1.50504 0
M  V30 3217 C 319.203 -0.0116166 -1.86696 0
M  V30 3218 C 319.554 1.39202 -1.38265 0
M  V30 3219 O 318.679 2.0313 -0.746132 0
M  V30 3220 C 319.274 -0.0143044 -3.38797 0
M  V30 3221 C 317.833 0.386175 -3.74414 0
M  V30 3222 C 316.98 -0.401287 -2.74381 0
M  V30 3223 H 319.931 -0.682022 -1.43297 0
M  V30 3224 H 319.952 0.788641 -3.72237 0
M  V30 3225 H 319.464 -1.03602 -3.74016 0
M  V30 3226 H 317.565 1.41237 -3.44794 0
M  V30 3227 H 317.678 0.0899596 -4.79016 0
M  V30 3228 H 316.042 0.144536 -2.5429 0
M  V30 3229 H 316.825 -1.42244 -3.12444 0
M  V30 3230 N 319.27 1.56325 -0.20005 0
M  V30 3231 C 320.217 2.1932 0.718833 0
M  V30 3232 C 321.187 1.14198 1.20615 0
M  V30 3233 O 322.372 1.42469 1.26914 0
M  V30 3234 C 319.512 2.86041 1.93066 0
M  V30 3235 C 318.625 4.05702 1.48425 0
M  V30 3236 C 317.76 4.60266 2.65196 0
M  V30 3237 C 316.799 5.72273 2.17185 0
M  V30 3238 N 315.936 6.21221 3.27152 0
M  V30 3239 H 320.776 2.97486 0.17489 0
M  V30 3240 H 318.313 1.46911 0.0745794 0
M  V30 3241 H 320.271 3.22897 2.64184 0
M  V30 3242 H 318.901 2.1043 2.44783 0
M  V30 3243 H 317.953 3.74475 0.668755 0
M  V30 3244 H 319.265 4.86699 1.09204 0
M  V30 3245 H 318.419 4.99453 3.4443 0
M  V30 3246 H 317.158 3.78386 3.07693 0
M  V30 3247 H 316.163 5.3261 1.36407 0
M  V30 3248 H 317.388 6.55974 1.75713 0
M  V30 3249 H 315.334 5.42263 3.69171 0
M  V30 3250 H 315.251 6.97284 2.92116 0
M  V30 3251 H 316.519 6.65063 4.06585 0
M  V30 3252 N 320.748 -0.0735177 1.57428 0
M  V30 3253 C 321.678 -1.0879 2.06608 0
M  V30 3254 C 322.659 -1.40473 0.959237 0
M  V30 3255 O 323.844 -1.5013 1.23185 0
M  V30 3256 C 320.974 -2.40183 2.50857 0
M  V30 3257 C 319.928 -2.22858 3.65402 0
M  V30 3258 C 319.254 -3.59619 3.957 0
M  V30 3259 C 320.554 -1.65123 4.95511 0
M  V30 3260 H 322.248 -0.678673 2.91607 0
M  V30 3261 H 319.794 -0.325013 1.40284 0
M  V30 3262 H 321.747 -3.11437 2.83874 0
M  V30 3263 H 320.471 -2.83083 1.62885 0
M  V30 3264 H 319.13 -1.54045 3.32664 0
M  V30 3265 H 318.778 -4.00086 3.04861 0
M  V30 3266 H 318.478 -3.48866 4.72828 0
M  V30 3267 H 320.002 -4.32306 4.31212 0
M  V30 3268 H 321.416 -2.26241 5.26771 0
M  V30 3269 H 319.813 -1.65071 5.7695 0
M  V30 3270 H 320.883 -0.612559 4.81015 0
M  V30 3271 N 322.226 -1.5378 -0.344866 0
M  V30 3272 C 323.189 -1.80981 -1.40637 0
M  V30 3273 C 324.189 -0.680816 -1.45676 0
M  V30 3274 O 325.379 -0.949095 -1.46075 0
M  V30 3275 C 322.511 -1.95063 -2.79577 0
M  V30 3276 H 323.704 -2.75803 -1.17783 0
M  V30 3277 H 321.257 -1.45173 -0.579181 0
M  V30 3278 H 321.992 -1.02379 -3.07716 0
M  V30 3279 H 321.777 -2.77198 -2.77315 0
M  V30 3280 H 323.267 -2.17629 -3.56409 0
M  V30 3281 N 323.704 0.605807 -1.45491 0
M  V30 3282 C 324.95 1.36679 -1.49823 0
M  V30 3283 C 325.283 1.93693 -0.140175 0
M  V30 3284 O 324.558 1.75158 0.845581 0
M  V30 3285 C 324.841 2.51337 -2.57879 0
M  V30 3286 C 324.694 1.99508 -4.03134 0
M  V30 3287 C 326.013 3.53463 -2.62205 0
M  V30 3288 H 323.132 0.495617 -0.545466 0
M  V30 3289 H 325.774 0.682732 -1.7731 0
M  V30 3290 H 323.924 3.09691 -2.34571 0
M  V30 3291 H 325.596 1.45789 -4.37656 0
M  V30 3292 H 323.839 1.30496 -4.13707 0
M  V30 3293 H 324.51 2.82169 -4.74431 0
M  V30 3294 H 326.986 3.04953 -2.83095 0
M  V30 3295 H 325.862 4.31178 -3.39672 0
M  V30 3296 H 326.123 4.09197 -1.67363 0
M  V30 3297 N 325.182 1.32811 0.848464 0
M  V30 3298 C 326.112 1.24882 1.97299 0
M  V30 3299 C 327.093 0.131357 1.69592 0
M  V30 3300 O 328.278 0.319553 1.91553 0
M  V30 3301 C 325.408 0.97746 3.33261 0
M  V30 3302 C 324.362 2.05682 3.75338 0
M  V30 3303 C 323.688 1.63777 5.09 0
M  V30 3304 C 324.988 3.47254 3.90144 0
M  V30 3305 H 326.682 2.18966 2.04191 0
M  V30 3306 H 324.228 1.05413 0.981029 0
M  V30 3307 H 326.181 0.908513 4.1149 0
M  V30 3308 H 324.905 0.000980011 3.266 0
M  V30 3309 H 323.564 2.11603 2.99366 0
M  V30 3310 H 323.212 0.648569 4.98801 0
M  V30 3311 H 322.912 2.36 5.38124 0
M  V30 3312 H 324.436 1.5833 5.89715 0
M  V30 3313 H 325.85 3.43888 4.58709 0
M  V30 3314 H 324.247 4.1788 4.30693 0
M  V30 3315 H 325.317 3.86462 2.92874 0
M  V30 3316 N 326.66 -1.06551 1.16123 0
M  V30 3317 C 327.909 -1.78687 0.935622 0
M  V30 3318 C 328.222 -1.88056 -0.538001 0
M  V30 3319 O 329.428 -2.56794 -0.88143 0
M  V30 3320 C 327.884 -3.21143 1.62466 0
M  V30 3321 C 327.492 -3.19949 3.13587 0
M  V30 3322 C 329.236 -3.9783 1.48092 0
M  V30 3323 C 327.143 -4.57108 3.75241 0
M  V30 3324 H 326.073 -0.669712 0.346412 0
M  V30 3325 H 328.724 -1.19534 1.39226 0
M  V30 3326 H 327.106 -3.80539 1.09572 0
M  V30 3327 H 328.28 -2.70151 3.73303 0
M  V30 3328 H 326.595 -2.5676 3.27816 0
M  V30 3329 H 329.192 -4.99217 1.91538 0
M  V30 3330 H 329.535 -4.14078 0.429507 0
M  V30 3331 H 330.068 -3.4495 1.98127 0
M  V30 3332 H 326.807 -4.46065 4.80319 0
M  V30 3333 H 326.327 -5.07111 3.20309 0
M  V30 3334 H 328.006 -5.26069 3.76644 0
M  V30 3335 N 328.138 -0.959301 -1.25041 0
M  V30 3336 C 329.366 -0.633949 -1.96948 0
M  V30 3337 C 329.781 0.794916 -1.7125 0
M  V30 3338 O 329.138 1.53231 -0.991287 0
M  V30 3339 C 329.189 -0.888805 -3.50403 0
M  V30 3340 O 328.91 -2.26149 -3.75218 0
M  V30 3341 C 330.411 -0.576482 -4.39536 0
M  V30 3342 H 327.631 -0.237263 -0.627652 0
M  V30 3343 H 330.175 -1.28495 -1.59089 0
M  V30 3344 H 328.33 -0.284145 -3.86357 0
M  V30 3345 H 328.744 -2.33514 -4.6965 0
M  V30 3346 H 330.218 -0.805314 -5.46094 0
M  V30 3347 H 330.695 0.489075 -4.36468 0
M  V30 3348 H 331.301 -1.16067 -4.09156 0
M  V30 3349 N 329.616 1.39756 -0.72842 0
M  V30 3350 C 330.564 2.32485 -0.0731849 0
M  V30 3351 C 331.558 1.52717 0.733063 0
M  V30 3352 O 332.764 1.68428 0.634988 0
M  V30 3353 H 329.139 0.751984 -0.00486469 0
M  V30 3354 H 331.11 2.85382 -0.871761 0
M  V30 3355 C 329.859 3.37773 0.824908 0
M  V30 3356 H 329.182 3.99227 0.213915 0
M  V30 3357 H 330.622 4.05121 1.25111 0
M  V30 3358 C 329.081 2.74287 1.95622 0
M  V30 3359 O 329.611 2.61618 3.04826 0
M  V30 3360 N 327.817 2.32475 1.74367 0
M  V30 3361 H 327.364 2.4298 0.855494 0
M  V30 3362 H 327.322 1.90337 2.50238 0
M  V30 3363 N 331.094 0.475555 1.50254 0
M  V30 3364 C 332.319 -0.0777042 2.07254 0
M  V30 3365 C 332.744 -1.3235 1.3366 0
M  V30 3366 O 332.102 -1.77152 0.385597 0
M  V30 3367 C 332.15 -0.340169 3.58992 0
M  V30 3368 O 331.254 -1.41982 3.87188 0
M  V30 3369 H 330.595 0.0149556 0.663832 0
M  V30 3370 H 333.125 0.667878 1.93392 0
M  V30 3371 H 333.135 -0.579332 4.03866 0
M  V30 3372 H 331.81 0.570167 4.11973 0
M  V30 3373 H 330.387 -1.16762 3.54148 0
M  V30 3374 N 332.573 -1.56217 0.208337 0
M  V30 3375 C 333.521 -2.21053 -0.723769 0
M  V30 3376 C 334.515 -1.18578 -1.20978 0
M  V30 3377 O 335.721 -1.36691 -1.17114 0
M  V30 3378 H 332.096 -0.708595 -0.251788 0
M  V30 3379 H 334.067 -2.98006 -0.153365 0
M  V30 3380 C 332.816 -2.89417 -1.927 0
M  V30 3381 H 332.139 -3.68019 -1.56212 0
M  V30 3382 H 333.579 -3.38201 -2.55727 0
M  V30 3383 C 332.038 -1.91166 -2.77411 0
M  V30 3384 O 332.568 -1.42026 -3.75754 0
M  V30 3385 N 330.774 -1.59105 -2.43175 0
M  V30 3386 H 330.321 -1.99259 -1.63259 0
M  V30 3387 H 330.279 -0.936255 -3.00136 0
M  V30 3388 N 334.051 0.0651679 -1.57465 0
M  V30 3389 C 335.297 0.764193 -1.87851 0
M  V30 3390 C 335.63 1.76889 -0.801495 0
M  V30 3391 O 334.905 1.93594 0.187528 0
M  V30 3392 C 335.188 1.46625 -3.28897 0
M  V30 3393 C 335.041 0.477515 -4.47258 0
M  V30 3394 C 336.36 2.4095 -3.68281 0
M  V30 3395 H 333.479 0.276351 -0.683227 0
M  V30 3396 H 336.121 0.0272868 -1.8998 0
M  V30 3397 H 334.271 2.09438 -3.27212 0
M  V30 3398 H 335.943 -0.145922 -4.61069 0
M  V30 3399 H 334.186 -0.206576 -4.33308 0
M  V30 3400 H 334.857 1.0065 -5.42746 0
M  V30 3401 H 337.333 1.88209 -3.71102 0
M  V30 3402 H 336.209 2.87072 -4.67847 0
M  V30 3403 H 336.47 3.26049 -2.98571 0
M  V30 3404 N 335.529 1.53961 0.336706 0
M  V30 3405 C 336.945 1.44378 0.680241 0
M  V30 3406 C 337.145 0.606034 1.9217 0
M  V30 3407 O 336.201 0.099688 2.52303 0
M  V30 3408 C 337.514 2.87945 0.8665 0
M  V30 3409 C 339.062 2.97763 0.964682 0
M  V30 3410 C 339.537 4.42453 1.18321 0
M  V30 3411 N 341.028 4.46008 1.25025 0
M  V30 3412 C 341.763 5.55102 1.43697 0
M  V30 3413 N 341.259 6.7419 1.59498 0
M  V30 3414 N 343.052 5.42727 1.463 0
M  V30 3415 H 335.203 2.06918 -0.479455 0
M  V30 3416 H 337.466 0.935634 -0.152619 0
M  V30 3417 H 337.172 3.51691 0.0256937 0
M  V30 3418 H 337.046 3.33293 1.76623 0
M  V30 3419 H 339.433 2.34153 1.796 0
M  V30 3420 H 339.514 2.55766 0.041708 0
M  V30 3421 H 339.158 5.06645 0.356788 0
M  V30 3422 H 339.088 4.82048 2.11985 0
M  V30 3423 H 341.579 3.60196 1.14312 0
M  V30 3424 H 341.892 7.53095 1.734 0
M  V30 3425 H 340.237 6.77123 1.56621 0
M  V30 3426 H 343.428 4.48647 1.33543 0
M  V30 3427 H 343.601 6.27806 1.6051 0
M  V30 3428 N 337.007 -0.598083 1.45811 0
M  V30 3429 C 337.957 -1.70272 1.51629 0
M  V30 3430 C 338.941 -1.56382 0.378629 0
M  V30 3431 O 340.133 -1.65557 0.626087 0
M  V30 3432 C 337.262 -3.09042 1.49493 0
M  V30 3433 C 336.348 -3.28284 2.68496 0
M  V30 3434 N 336.739 -3.17748 3.93535 0
M  V30 3435 C 335.037 -3.59182 2.64394 0
M  V30 3436 C 335.738 -3.38579 4.7301 0
M  V30 3437 N 334.714 -3.63016 4.04624 0
M  V30 3438 H 338.516 -1.60634 2.46118 0
M  V30 3439 H 336.03 -0.801642 1.41235 0
M  V30 3440 H 338.027 -3.88302 1.51747 0
M  V30 3441 H 336.687 -3.19823 0.560683 0
M  V30 3442 H 337.698 -2.95944 4.25014 0
M  V30 3443 H 334.375 -3.76742 1.79922 0
M  V30 3444 H 335.765 -3.35747 5.82 0
M  V30 3445 N 338.485 -1.33259 -0.841409 0
M  V30 3446 C 339.71 -1.2775 -1.63385 0
M  V30 3447 C 340.135 0.149188 -1.87507 0
M  V30 3448 O 339.493 1.10498 -1.43736 0
M  V30 3449 C 339.541 -2.05571 -2.96265 0
M  V30 3450 O 338.645 -1.41257 -3.87453 0
M  V30 3451 H 337.986 -0.439627 -0.497618 0
M  V30 3452 H 340.516 -1.75782 -1.04699 0
M  V30 3453 H 340.526 -2.16241 -3.45982 0
M  V30 3454 H 339.201 -3.09309 -2.7803 0
M  V30 3455 H 337.778 -1.39217 -3.45938 0
M  V30 3456 N 339.963 1.05934 -1.16686 0
M  V30 3457 C 340.893 2.1546 -0.899949 0
M  V30 3458 C 341.874 1.69391 0.155154 0
M  V30 3459 O 343.059 1.94199 0.00648693 0
M  V30 3460 C 340.189 3.44939 -0.404241 0
M  V30 3461 C 339.143 4.04536 -1.39767 0
M  V30 3462 C 338.469 5.29268 -0.760216 0
M  V30 3463 C 339.769 4.42893 -2.76845 0
M  V30 3464 H 341.463 2.38046 -1.81588 0
M  V30 3465 H 339.009 1.14404 -0.874514 0
M  V30 3466 H 340.962 4.20901 -0.204971 0
M  V30 3467 H 339.686 3.21983 0.547206 0
M  V30 3468 H 338.345 3.30635 -1.58355 0
M  V30 3469 H 337.993 5.02611 0.197831 0
M  V30 3470 H 337.693 5.70101 -1.42332 0
M  V30 3471 H 339.217 6.07924 -0.57105 0
M  V30 3472 H 340.631 5.09921 -2.62019 0
M  V30 3473 H 339.028 4.94721 -3.39663 0
M  V30 3474 H 340.098 3.53584 -3.31823 0
M  V30 3475 N 341.441 0.965919 1.2453 0
M  V30 3476 C 342.404 0.499547 2.2369 0
M  V30 3477 C 343.404 -0.40294 1.5567 0
M  V30 3478 O 344.594 -0.19865 1.73064 0
M  V30 3479 C 341.726 -0.276792 3.39774 0
M  V30 3480 H 342.919 1.37613 2.66463 0
M  V30 3481 H 340.472 0.750324 1.37112 0
M  V30 3482 H 341.207 -1.17055 3.02438 0
M  V30 3483 H 340.992 0.370826 3.90343 0
M  V30 3484 H 342.482 -0.592175 4.1338 0
M  V30 3485 N 342.919 -1.39368 0.735821 0
M  V30 3486 C 344.144 -2.05319 0.293052 0
M  V30 3487 C 344.569 -1.55115 -1.064 0
M  V30 3488 O 343.927 -0.695261 -1.67439 0
M  V30 3489 C 343.975 -3.59305 0.305323 0
M  V30 3490 O 343.079 -4.06299 -0.706761 0
M  V30 3491 H 342.42 -0.650529 0.13307 0
M  V30 3492 H 344.95 -1.78386 1.00197 0
M  V30 3493 H 344.96 -4.07724 0.149997 0
M  V30 3494 H 343.635 -3.95207 1.29553 0
M  V30 3495 H 342.212 -3.69292 -0.517504 0
M  V30 3496 N 344.397 -0.483516 -1.5 0
M  V30 3497 C 345.622 0.0667119 -2.07293 0
M  V30 3498 C 346.047 1.3164 -1.3436 0
M  V30 3499 O 345.405 1.76945 -0.394987 0
M  V30 3500 C 345.453 0.321126 -3.59167 0
M  V30 3501 O 344.557 1.39927 -3.87936 0
M  V30 3502 H 343.898 -0.0184758 -0.663743 0
M  V30 3503 H 346.428 -0.678125 -1.93035 0
M  V30 3504 H 346.438 0.557906 -4.04168 0
M  V30 3505 H 345.113 -0.592007 -4.11665 0
M  V30 3506 H 343.69 1.14882 -3.54763 0
M  V30 3507 N 345.875 1.56104 -0.216619 0
M  V30 3508 C 346.785 2.23694 0.706982 0
M  V30 3509 C 347.801 1.24295 1.21765 0
M  V30 3510 O 348.977 1.57094 1.2603 0
M  V30 3511 C 346.042 2.8998 1.90033 0
M  V30 3512 C 345.103 4.04708 1.43213 0
M  V30 3513 C 344.336 4.67824 2.56859 0
M  V30 3514 O 344.559 4.29913 3.74874 0
M  V30 3515 O 343.493 5.56905 2.28343 0
M  V30 3516 H 347.319 3.03272 0.161235 0
M  V30 3517 H 344.904 1.49394 0.0136177 0
M  V30 3518 H 346.786 3.31837 2.59735 0
M  V30 3519 H 345.461 2.13365 2.43428 0
M  V30 3520 H 344.368 3.6743 0.70327 0
M  V30 3521 H 345.701 4.83051 0.944615 0
M  V30 3522 N 347.353 -0.0568162 1.57498 0
M  V30 3523 C 348.583 -0.764515 1.91934 0
M  V30 3524 C 348.991 -1.70877 0.81227 0
M  V30 3525 O 348.334 -1.82351 -0.222213 0
M  V30 3526 C 348.396 -1.5994 3.21962 0
M  V30 3527 C 348.06 -0.822925 4.4953 0
M  V30 3528 C 349.057 -0.135464 5.19723 0
M  V30 3529 C 346.742 -0.785666 4.96117 0
M  V30 3530 C 348.736 0.578861 6.34766 0
M  V30 3531 C 346.423 -0.0675784 6.11063 0
M  V30 3532 C 347.421 0.613471 6.80239 0
M  V30 3533 O 347.109 1.31996 7.92989 0
M  V30 3534 H 346.841 -0.221647 0.63863 0
M  V30 3535 H 349.395 -0.0268218 2.05382 0
M  V30 3536 H 347.625 -2.38026 3.04763 0
M  V30 3537 H 349.314 -2.18715 3.41934 0
M  V30 3538 H 350.08 -0.155458 4.84751 0
M  V30 3539 H 345.959 -1.30524 4.42136 0
M  V30 3540 H 349.503 1.111 6.88696 0
M  V30 3541 H 345.4 -0.0455636 6.45484 0
M  V30 3542 H 346.168 1.23077 8.09194 0
M  V30 3543 N 348.832 -1.54138 -0.328536 0
M  V30 3544 C 350.243 -1.63395 -0.903272 0
M  V30 3545 C 350.594 -0.524828 -1.8905 0
M  V30 3546 O 349.719 0.343068 -2.13663 0
M  V30 3547 C 350.314 -2.9618 -1.64507 0
M  V30 3548 C 348.873 -3.0765 -2.1686 0
M  V30 3549 C 348.02 -2.58933 -0.992416 0
M  V30 3550 H 350.971 -1.58344 -0.106253 0
M  V30 3551 H 350.992 -2.86061 -2.50897 0
M  V30 3552 H 350.504 -3.76884 -0.926302 0
M  V30 3553 H 348.605 -2.31611 -2.91868 0
M  V30 3554 H 348.718 -4.1337 -2.42202 0
M  V30 3555 H 347.082 -2.14706 -1.37016 0
M  V30 3556 H 347.865 -3.42089 -0.288041 0
M  V30 3557 N 350.31 0.590341 -1.46126 0
M  V30 3558 C 351.556 1.35082 -1.51264 0
M  V30 3559 C 351.889 1.93534 -0.160711 0
M  V30 3560 O 351.164 1.76045 0.826956 0
M  V30 3561 C 351.447 2.48588 -2.6053 0
M  V30 3562 C 351.3 1.95221 -4.05227 0
M  V30 3563 C 352.619 3.50662 -2.6594 0
M  V30 3564 H 349.738 0.489803 -0.550692 0
M  V30 3565 H 352.38 0.663887 -1.78024 0
M  V30 3566 H 350.53 3.07186 -2.37843 0
M  V30 3567 H 352.202 1.41139 -4.39178 0
M  V30 3568 H 350.445 1.26101 -4.15068 0
M  V30 3569 H 351.116 2.77121 -4.77397 0
M  V30 3570 H 353.592 3.01934 -2.86313 0
M  V30 3571 H 352.468 4.27551 -3.44226 0
M  V30 3572 H 352.729 4.07399 -1.71694 0
M  V30 3573 N 351.788 1.33704 0.83433 0
M  V30 3574 C 353.204 1.13137 1.12571 0
M  V30 3575 C 353.404 -0.0747261 2.01361 0
M  V30 3576 O 352.46 -0.753647 2.4099 0
M  V30 3577 C 353.773 2.42105 1.78342 0
M  V30 3578 C 355.321 2.48054 1.90888 0
M  V30 3579 C 355.796 3.76995 2.60075 0
M  V30 3580 N 357.287 3.78092 2.67584 0
M  V30 3581 C 358.022 4.74574 3.21818 0
M  V30 3582 N 357.518 5.81434 3.76705 0
M  V30 3583 N 359.311 4.62044 3.20112 0
M  V30 3584 H 351.462 2.11 0.243489 0
M  V30 3585 H 353.725 0.932532 0.17055 0
M  V30 3586 H 353.431 3.30391 1.20561 0
M  V30 3587 H 353.305 2.54594 2.7832 0
M  V30 3588 H 355.692 1.60215 2.47821 0
M  V30 3589 H 355.773 2.39502 0.898459 0
M  V30 3590 H 355.417 4.65219 2.03799 0
M  V30 3591 H 355.347 3.82825 3.61597 0
M  V30 3592 H 357.838 3.00865 2.28667 0
M  V30 3593 H 358.151 6.51084 4.16305 0
M  V30 3594 H 356.496 5.85163 3.7498 0
M  V30 3595 H 359.687 3.77716 2.76493 0
M  V30 3596 H 359.86 5.37406 3.62076 0
M  V30 3597 N 353.266 -1.05314 1.17247 0
M  V30 3598 C 354.682 -1.30452 0.919473 0
M  V30 3599 C 354.882 -1.9703 -0.42209 0
M  V30 3600 O 353.938 -2.24311 -1.15935 0
M  V30 3601 C 355.251 -2.17551 2.07586 0
M  V30 3602 C 356.799 -2.30937 2.11275 0
M  V30 3603 C 357.274 -3.21396 3.26296 0
M  V30 3604 N 358.765 -3.28981 3.26076 0
M  V30 3605 C 359.5 -3.99095 4.11716 0
M  V30 3606 N 358.996 -4.71648 5.07465 0
M  V30 3607 N 360.789 -3.95247 3.9967 0
M  V30 3608 H 352.94 -0.604988 2.03602 0
M  V30 3609 H 355.203 -0.329368 0.888944 0
M  V30 3610 H 354.909 -1.75921 3.0454 0
M  V30 3611 H 354.783 -3.18182 2.02584 0
M  V30 3612 H 357.17 -2.71809 1.14907 0
M  V30 3613 H 357.251 -1.2994 2.20339 0
M  V30 3614 H 356.895 -2.81238 4.22927 0
M  V30 3615 H 356.825 -4.22395 3.14467 0
M  V30 3616 H 359.316 -2.77286 2.5675 0
M  V30 3617 H 359.629 -5.22705 5.6921 0
M  V30 3618 H 357.974 -4.70594 5.11435 0
M  V30 3619 H 361.165 -3.37691 3.24164 0
M  V30 3620 H 361.338 -4.4962 4.66632 0
M  V30 3621 N 354.744 -0.972509 -1.24016 0
M  V30 3622 C 356.16 -0.679827 -1.44397 0
M  V30 3623 C 356.36 0.756716 -1.86751 0
M  V30 3624 O 355.416 1.53007 -2.00861 0
M  V30 3625 C 356.729 -1.66803 -2.50195 0
M  V30 3626 C 358.277 -1.68119 -2.64017 0
M  V30 3627 C 358.752 -2.65748 -3.73017 0
M  V30 3628 N 360.243 -2.64219 -3.8045 0
M  V30 3629 C 360.978 -3.36433 -4.64328 0
M  V30 3630 N 360.474 -4.1818 -5.52356 0
M  V30 3631 N 362.267 -3.25235 -4.58453 0
M  V30 3632 H 354.418 -1.90059 -0.948228 0
M  V30 3633 H 356.681 -0.818527 -0.478245 0
M  V30 3634 H 356.387 -2.69498 -2.25973 0
M  V30 3635 H 356.261 -1.4446 -3.48441 0
M  V30 3636 H 358.648 -0.661319 -2.87594 0
M  V30 3637 H 358.729 -1.94525 -1.66113 0
M  V30 3638 H 358.373 -3.67872 -3.50189 0
M  V30 3639 H 358.303 -2.36619 -4.70446 0
M  V30 3640 H 360.794 -2.04887 -3.17537 0
M  V30 3641 H 361.107 -4.70157 -6.13329 0
M  V30 3642 H 359.452 -4.22273 -5.52006 0
M  V30 3643 H 362.643 -2.60829 -3.88698 0
M  V30 3644 H 362.816 -3.81776 -5.23594 0
M  V30 3645 N 356.222 1.38976 -0.743202 0
M  V30 3646 C 357.154 2.29096 -0.0689228 0
M  V30 3647 C 358.167 1.47229 0.694791 0
M  V30 3648 O 359.356 1.70212 0.537597 0
M  V30 3649 C 356.456 3.25988 0.926548 0
M  V30 3650 C 355.629 4.36833 0.222647 0
M  V30 3651 C 354.688 5.13981 1.12739 0
M  V30 3652 O 353.714 5.6601 0.601795 0
M  V30 3653 N 354.916 5.25966 2.45641 0
M  V30 3654 H 357.681 2.87604 -0.842846 0
M  V30 3655 H 355.242 1.50645 -0.593109 0
M  V30 3656 H 357.234 3.74476 1.5346 0
M  V30 3657 H 355.804 2.68453 1.60162 0
M  V30 3658 H 355.024 3.90116 -0.565983 0
M  V30 3659 H 356.312 5.0811 -0.264841 0
M  V30 3660 H 355.71 4.85228 2.9081 0
M  V30 3661 H 354.267 5.77865 3.01522 0
M  V30 3662 N 357.7 0.491464 1.49741 0
M  V30 3663 C 358.94 -0.0549118 2.04326 0
M  V30 3664 C 359.304 -1.35148 1.36378 0
M  V30 3665 O 360.505 -1.9815 1.81631 0
M  V30 3666 C 358.776 -0.213841 3.5676 0
M  V30 3667 S 360.335 -0.715839 4.32922 0
M  V30 3668 H 357.153 -0.00630513 0.710972 0
M  V30 3669 H 359.755 0.663257 1.83905 0
M  V30 3670 H 358.459 0.73527 4.0376 0
M  V30 3671 H 357.99 -0.957529 3.81569 0
M  V30 3672 H 360.005 -1.9864 4.54705 0
M  V30 3673 N 359.178 -1.55987 0.224894 0
M  V30 3674 C 360.088 -2.24066 -0.69511 0
M  V30 3675 C 361.104 -1.24939 -1.21104 0
M  V30 3676 O 362.28 -1.5776 -1.25195 0
M  V30 3677 C 359.345 -2.90983 -1.88493 0
M  V30 3678 C 358.406 -4.05462 -1.41064 0
M  V30 3679 C 357.639 -4.69179 -2.54375 0
M  V30 3680 O 357.862 -4.31895 -3.72589 0
M  V30 3681 O 356.796 -5.58108 -2.25386 0
M  V30 3682 H 360.622 -3.03353 -0.145149 0
M  V30 3683 H 358.207 -1.49399 -0.00569476 0
M  V30 3684 H 360.089 -3.33209 -2.57972 0
M  V30 3685 H 358.764 -2.14653 -2.42293 0
M  V30 3686 H 357.671 -3.67798 -0.683774 0
M  V30 3687 H 359.004 -4.83545 -0.918985 0
M  V30 3688 N 360.656 0.0484629 -1.57525 0
M  V30 3689 C 361.566 1.07241 -2.08654 0
M  V30 3690 C 362.582 1.409 -1.02095 0
M  V30 3691 O 363.758 1.50609 -1.33712 0
M  V30 3692 C 360.823 2.36008 -2.5397 0
M  V30 3693 C 359.884 2.09108 -3.7493 0
M  V30 3694 C 359.117 3.31736 -4.18075 0
M  V30 3695 O 359.34 4.41714 -3.60895 0
M  V30 3696 O 358.274 3.18576 -5.10679 0
M  V30 3697 H 362.1 0.667965 -2.96263 0
M  V30 3698 H 359.685 0.26417 -1.47046 0
M  V30 3699 H 361.567 3.11747 -2.83535 0
M  V30 3700 H 360.242 2.75786 -1.69481 0
M  V30 3701 H 359.149 1.31 -3.50414 0
M  V30 3702 H 360.482 1.74198 -4.60343 0
M  V30 3703 N 362.134 1.5431 0.320358 0
M  V30 3704 C 363.38 1.72924 1.05949 0
M  V30 3705 C 363.713 0.503185 1.87568 0
M  V30 3706 O 362.988 -0.499839 1.87968 0
M  V30 3707 C 363.271 3.00676 1.98156 0
M  V30 3708 C 363.124 4.3354 1.19845 0
M  V30 3709 C 364.443 3.24198 2.9763 0
M  V30 3710 H 361.562 0.629195 0.383774 0
M  V30 3711 H 364.204 1.87008 0.335854 0
M  V30 3712 H 362.354 2.888 2.59859 0
M  V30 3713 H 364.026 4.57305 0.605773 0
M  V30 3714 H 362.269 4.309 0.500784 0
M  V30 3715 H 362.94 5.19156 1.87567 0
M  V30 3716 H 365.416 3.35557 2.4605 0
M  V30 3717 H 364.292 4.14938 3.59329 0
M  V30 3718 H 364.553 2.41577 3.7026 0
M  V30 3719 N 363.613 -0.582584 1.46437 0
M  V30 3720 C 364.576 -1.67366 1.56592 0
M  V30 3721 C 365.576 -1.54575 0.443072 0
M  V30 3722 O 366.766 -1.59191 0.707381 0
M  V30 3723 C 363.898 -3.06791 1.48634 0
M  V30 3724 H 365.091 -1.5972 2.5383 0
M  V30 3725 H 362.644 -0.800432 1.34249 0
M  V30 3726 H 363.379 -3.19993 0.526763 0
M  V30 3727 H 363.164 -3.17484 2.30101 0
M  V30 3728 H 364.654 -3.86218 1.58826 0
M  V30 3729 N 365.091 -1.34144 -0.827227 0
M  V30 3730 C 366.507 -1.13732 -1.11969 0
M  V30 3731 C 366.707 0.0640463 -2.01398 0
M  V30 3732 O 365.763 0.740856 -2.41387 0
M  V30 3733 C 367.076 -2.43047 -1.77055 0
M  V30 3734 C 368.624 -2.49063 -1.89569 0
M  V30 3735 C 369.099 -3.78369 -2.58072 0
M  V30 3736 N 370.59 -3.79505 -2.65575 0
M  V30 3737 C 371.325 -4.76274 -3.19297 0
M  V30 3738 N 370.821 -5.83424 -3.73616 0
M  V30 3739 N 372.614 -4.63735 -3.17658 0
M  V30 3740 H 364.765 -2.11126 -0.232296 0
M  V30 3741 H 367.028 -0.933424 -0.165602 0
M  V30 3742 H 366.734 -3.31025 -1.18807 0
M  V30 3743 H 366.608 -2.56066 -2.76966 0
M  V30 3744 H 368.995 -1.61527 -2.46968 0
M  V30 3745 H 369.076 -2.39975 -0.885745 0
M  V30 3746 H 368.72 -4.66293 -2.01329 0
M  V30 3747 H 368.65 -3.84737 -3.59562 0
M  V30 3748 H 371.141 -3.02074 -2.27068 0
M  V30 3749 H 371.454 -6.53282 -4.12846 0
M  V30 3750 H 369.799 -5.87143 -3.71871 0
M  V30 3751 H 372.99 -3.79177 -2.74486 0
M  V30 3752 H 373.163 -5.39318 -3.59221 0
M  V30 3753 N 366.569 1.04691 -1.17803 0
M  V30 3754 C 367.532 2.10724 -0.901545 0
M  V30 3755 C 368.532 1.6042 0.110437 0
M  V30 3756 O 369.722 1.7377 -0.122303 0
M  V30 3757 C 366.854 3.39084 -0.351409 0
M  V30 3758 H 368.047 2.36686 -1.84174 0
M  V30 3759 H 365.6 1.21015 -0.98919 0
M  V30 3760 H 366.335 3.18782 0.59569 0
M  V30 3761 H 366.12 3.76909 -1.08083 0
M  V30 3762 H 367.61 4.17227 -0.176451 0
M  V30 3763 N 368.047 0.979072 1.23499 0
M  V30 3764 C 368.977 0.537606 2.27227 0
M  V30 3765 C 369.958 -0.428539 1.64613 0
M  V30 3766 O 371.143 -0.322191 1.91509 0
M  V30 3767 C 368.273 -0.162052 3.46922 0
M  V30 3768 C 367.227 0.721242 4.21879 0
M  V30 3769 C 366.553 -0.110555 5.34586 0
M  V30 3770 C 367.853 2.01141 4.82016 0
M  V30 3771 H 369.547 1.40462 2.64406 0
M  V30 3772 H 367.093 0.67684 1.27102 0
M  V30 3773 H 369.046 -0.482192 4.18632 0
M  V30 3774 H 367.77 -1.06351 3.08799 0
M  V30 3775 H 366.429 1.02482 3.51984 0
M  V30 3776 H 366.077 -1.0125 4.92704 0
M  V30 3777 H 365.777 0.477325 5.85658 0
M  V30 3778 H 367.301 -0.425107 6.09118 0
M  V30 3779 H 368.715 1.75612 5.45741 0
M  V30 3780 H 367.112 2.54695 5.43369 0
M  V30 3781 H 368.182 2.69909 4.02836 0
M  V30 3782 N 369.525 -1.3858 0.750561 0
M  V30 3783 C 370.773 -1.99789 0.30477 0
M  V30 3784 C 371.094 -1.59874 -1.11649 0
M  V30 3785 O 370.364 -0.85417 -1.76297 0
M  V30 3786 H 368.944 -0.738902 0.109694 0
M  V30 3787 H 371.606 -1.69391 0.963983 0
M  V30 3788 H 370.702 -3.09952 0.365499 0
M  V30 3789 N 371.003 -0.499398 -1.49478 0
M  V30 3790 C 371.95 0.279881 -2.29097 0
M  V30 3791 C 372.92 0.961805 -1.3542 0
M  V30 3792 O 374.105 0.968777 -1.64376 0
M  V30 3793 C 371.245 1.33932 -3.18051 0
M  V30 3794 C 370.358 0.669333 -4.26783 0
M  V30 3795 C 369.493 1.70907 -5.02955 0
M  V30 3796 C 368.532 1.02087 -6.03527 0
M  V30 3797 N 367.669 2.00474 -6.7287 0
M  V30 3798 H 372.509 -0.405317 -2.95231 0
M  V30 3799 H 370.046 -0.211726 -1.45568 0
M  V30 3800 H 372.004 1.96553 -3.67998 0
M  V30 3801 H 370.634 1.9933 -2.53904 0
M  V30 3802 H 369.686 -0.0701234 -3.80335 0
M  V30 3803 H 370.998 0.127503 -4.98637 0
M  V30 3804 H 370.152 2.41037 -5.56764 0
M  V30 3805 H 368.891 2.28476 -4.30871 0
M  V30 3806 H 367.896 0.305338 -5.48951 0
M  V30 3807 H 369.121 0.451708 -6.77596 0
M  V30 3808 H 367.067 2.57007 -6.03559 0
M  V30 3809 H 366.984 1.51353 -7.40694 0
M  V30 3810 H 368.252 2.69897 -7.31284 0
M  V30 3811 N 372.481 1.55866 -0.233164 0
M  V30 3812 C 373.391 2.24431 0.683217 0
M  V30 3813 C 374.407 1.2558 1.2044 0
M  V30 3814 O 375.583 1.58422 1.24356 0
M  V30 3815 C 372.648 2.91979 1.86947 0
M  V30 3816 C 371.709 4.06204 1.38912 0
M  V30 3817 C 370.942 4.70522 2.51883 0
M  V30 3818 O 371.165 4.33865 3.70293 0
M  V30 3819 O 370.099 5.59296 2.22423 0
M  V30 3820 H 373.925 3.03426 0.129059 0
M  V30 3821 H 371.51 1.494 -0.0022283 0
M  V30 3822 H 373.392 3.34573 2.56201 0
M  V30 3823 H 372.067 2.15935 2.41151 0
M  V30 3824 H 370.974 3.68155 0.664259 0
M  V30 3825 H 372.307 4.84025 0.893328 0
M  V30 3826 N 373.959 -0.0401083 1.57549 0
M  V30 3827 C 375.184 -0.748931 1.93406 0
M  V30 3828 C 375.609 -1.68686 0.832274 0
M  V30 3829 O 374.967 -1.80047 -0.212818 0
M  V30 3830 C 375.015 -1.4916 3.28304 0
M  V30 3831 O 374.119 -2.6042 3.19774 0
M  V30 3832 H 373.46 -0.202212 0.63246 0
M  V30 3833 H 375.99 0.00112086 2.046 0
M  V30 3834 H 376 -1.86395 3.62934 0
M  V30 3835 H 374.675 -0.80364 4.08062 0
M  V30 3836 H 373.252 -2.25808 2.96758 0
M  V30 3837 N 375.437 -1.54477 -0.31217 0
M  V30 3838 C 376.367 -1.87652 -1.38957 0
M  V30 3839 C 377.348 -0.734358 -1.53431 0
M  V30 3840 O 378.533 -0.98911 -1.67123 0
M  V30 3841 C 375.663 -2.11396 -2.75552 0
M  V30 3842 C 374.617 -3.27243 -2.75855 0
M  V30 3843 C 373.943 -3.36382 -4.15633 0
M  V30 3844 C 375.243 -4.64622 -2.38587 0
M  V30 3845 H 376.937 -2.77887 -1.11442 0
M  V30 3846 H 374.483 -1.33707 -0.534655 0
M  V30 3847 H 376.436 -2.33189 -3.51 0
M  V30 3848 H 375.16 -1.17921 -3.04569 0
M  V30 3849 H 373.819 -3.05356 -2.02863 0
M  V30 3850 H 373.467 -2.40445 -4.41809 0
M  V30 3851 H 373.167 -4.14249 -4.1674 0
M  V30 3852 H 374.691 -3.60422 -4.92877 0
M  V30 3853 H 376.105 -4.86219 -3.03749 0
M  V30 3854 H 374.502 -5.45121 -2.50925 0
M  V30 3855 H 375.572 -4.66097 -1.33723 0
M  V30 3856 N 376.915 0.57481 -1.46744 0
M  V30 3857 C 378.331 0.898981 -1.31873 0
M  V30 3858 C 378.531 1.99313 -0.29605 0
M  V30 3859 O 377.587 2.50728 0.298621 0
M  V30 3860 C 378.9 1.30886 -2.7072 0
M  V30 3861 C 380.448 1.42127 -2.78871 0
M  V30 3862 C 380.923 1.86478 -4.18318 0
M  V30 3863 N 382.414 1.93658 -4.20774 0
M  V30 3864 C 383.149 2.29267 -5.2557 0
M  V30 3865 N 382.645 2.63612 -6.40688 0
M  V30 3866 N 384.438 2.29889 -5.1294 0
M  V30 3867 H 376.589 -0.147839 -2.11885 0
M  V30 3868 H 378.852 -0.00347013 -0.947994 0
M  V30 3869 H 378.558 0.578853 -3.46904 0
M  V30 3870 H 378.432 2.26874 -3.01343 0
M  V30 3871 H 380.819 2.14213 -2.0297 0
M  V30 3872 H 380.9 0.443705 -2.51922 0
M  V30 3873 H 380.544 1.14968 -4.94717 0
M  V30 3874 H 380.474 2.85207 -4.42679 0
M  V30 3875 H 382.965 1.69574 -3.37718 0
M  V30 3876 H 383.278 2.89759 -7.16421 0
M  V30 3877 H 381.623 2.61232 -6.44036 0
M  V30 3878 H 384.814 2.02485 -4.22039 0
M  V30 3879 H 384.987 2.57312 -5.94722 0
M  V30 3880 N 378.394 1.34581 0.820102 0
M  V30 3881 C 379.304 1.28471 1.96297 0
M  V30 3882 C 380.32 0.191902 1.72939 0
M  V30 3883 O 381.496 0.418879 1.96996 0
M  V30 3884 C 378.561 1.04281 3.30645 0
M  V30 3885 C 377.622 2.22745 3.66992 0
M  V30 3886 C 376.855 1.997 4.9493 0
M  V30 3887 O 377.078 0.956656 5.6232 0
M  V30 3888 O 376.012 2.86723 5.2922 0
M  V30 3889 H 379.838 2.24624 2.04396 0
M  V30 3890 H 377.423 1.14816 0.955913 0
M  V30 3891 H 379.305 0.925841 4.11104 0
M  V30 3892 H 377.98 0.111697 3.23507 0
M  V30 3893 H 376.887 2.40003 2.86966 0
M  V30 3894 H 378.22 3.14257 3.78819 0
M  V30 3895 N 379.872 -1.04064 1.18357 0
M  V30 3896 C 381.118 -1.77528 0.980397 0
M  V30 3897 C 381.451 -1.87948 -0.48879 0
M  V30 3898 O 380.726 -1.3876 -1.36293 0
M  V30 3899 C 381.009 -3.20797 1.63588 0
M  V30 3900 C 380.862 -3.1832 3.17793 0
M  V30 3901 C 382.181 -4.18911 1.34914 0
M  V30 3902 H 379.3 -0.644443 0.357578 0
M  V30 3903 H 381.942 -1.2156 1.46024 0
M  V30 3904 H 380.092 -3.68586 1.22788 0
M  V30 3905 H 381.764 -2.78521 3.67728 0
M  V30 3906 H 380.007 -2.56351 3.49952 0
M  V30 3907 H 380.678 -4.19489 3.58794 0
M  V30 3908 H 383.154 -3.7967 1.70265 0
M  V30 3909 H 382.03 -5.17374 1.83346 0
M  V30 3910 H 382.291 -4.41262 0.272027 0
M  V30 3911 N 381.35 -0.985608 -1.22978 0
M  V30 3912 C 382.282 -0.488154 -2.23941 0
M  V30 3913 C 383.295 0.41282 -1.57479 0
M  V30 3914 O 384.484 0.216121 -1.77187 0
M  V30 3915 C 381.584 0.312611 -3.37455 0
M  V30 3916 C 380.757 -0.582741 -4.33501 0
M  V30 3917 C 379.816 0.165064 -5.25941 0
M  V30 3918 O 378.842 -0.447077 -5.67442 0
M  V30 3919 N 380.044 1.44953 -5.62111 0
M  V30 3920 H 382.809 -1.3563 -2.67254 0
M  V30 3921 H 380.37 -0.859477 -1.37203 0
M  V30 3922 H 382.362 0.821357 -3.96277 0
M  V30 3923 H 380.932 1.0818 -2.93285 0
M  V30 3924 H 380.152 -1.27225 -3.73105 0
M  V30 3925 H 381.44 -1.19275 -4.94622 0
M  V30 3926 H 380.838 1.9683 -5.30353 0
M  V30 3927 H 379.395 1.90361 -6.23383 0
M  V30 3928 N 382.828 1.3818 -0.7579 0
M  V30 3929 C 383.758 2.33027 -0.148597 0
M  V30 3930 C 384.739 1.55085 0.69875 0
M  V30 3931 O 385.924 1.83384 0.639053 0
M  V30 3932 C 383.054 3.3928 0.742034 0
M  V30 3933 C 382.008 4.28 -0.00291946 0
M  V30 3934 C 381.334 5.25146 1.00625 0
M  V30 3935 C 382.634 5.08938 -1.17385 0
M  V30 3936 H 384.328 2.84231 -0.940909 0
M  V30 3937 H 381.874 1.36659 -0.453908 0
M  V30 3938 H 383.827 4.046 1.17799 0
M  V30 3939 H 382.551 2.86569 1.56671 0
M  V30 3940 H 381.21 3.64192 -0.419504 0
M  V30 3941 H 380.858 4.68721 1.8251 0
M  V30 3942 H 380.558 5.85361 0.512428 0
M  V30 3943 H 382.082 5.93342 1.44143 0
M  V30 3944 H 383.496 5.67474 -0.815224 0
M  V30 3945 H 381.893 5.7841 -1.59882 0
M  V30 3946 H 382.963 4.42424 -1.98468 0
M  V30 3947 N 384.306 0.507319 1.49211 0
M  V30 3948 C 385.216 -0.272136 2.33016 0
M  V30 3949 C 386.232 -0.961206 1.45041 0
M  V30 3950 O 387.408 -0.941191 1.78055 0
M  V30 3951 C 384.473 -1.31895 3.20631 0
M  V30 3952 C 383.534 -0.642648 4.24463 0
M  V30 3953 C 382.767 -1.63959 5.07891 0
M  V30 3954 O 382.99 -2.87007 4.92933 0
M  V30 3955 O 381.924 -1.19143 5.8999 0
M  V30 3956 H 385.75 0.413982 3.00865 0
M  V30 3957 H 383.335 0.268556 1.46966 0
M  V30 3958 H 385.217 -1.92446 3.7489 0
M  V30 3959 H 383.892 -1.98788 2.5547 0
M  V30 3960 H 382.799 0.00276252 3.741 0
M  V30 3961 H 384.132 -0.0160534 4.92197 0
M  V30 3962 N 385.784 -1.5574 0.241426 0
M  V30 3963 C 386.694 -2.2479 -0.671305 0
M  V30 3964 C 387.71 -1.26217 -1.19772 0
M  V30 3965 O 388.886 -1.59079 -1.23514 0
M  V30 3966 C 385.951 -2.92966 -1.85396 0
M  V30 3967 C 385.012 -4.06935 -1.36756 0
M  V30 3968 C 384.245 -4.71851 -2.49384 0
M  V30 3969 O 384.468 -4.35823 -3.67987 0
M  V30 3970 O 383.402 -5.60467 -2.19454 0
M  V30 3971 H 387.228 -3.0349 -0.112966 0
M  V30 3972 H 384.813 -1.49397 0.0101513 0
M  V30 3973 H 386.695 -3.35927 -2.54423 0
M  V30 3974 H 385.37 -2.17211 -2.40002 0
M  V30 3975 H 384.277 -3.68503 -0.644726 0
M  V30 3976 H 385.61 -4.84492 -0.867647 0
M  V30 3977 N 387.262 0.0317525 -1.57568 0
M  V30 3978 C 388.192 1.03274 -2.0942 0
M  V30 3979 C 389.173 1.3788 -0.996143 0
M  V30 3980 O 390.358 1.46811 -1.27122 0
M  V30 3981 C 387.488 2.33448 -2.57137 0
M  V30 3982 C 386.442 2.13091 -3.71182 0
M  V30 3983 C 385.768 3.49001 -4.05095 0
M  V30 3984 C 387.068 1.51928 -4.99715 0
M  V30 3985 H 388.762 0.60112 -2.93303 0
M  V30 3986 H 386.308 0.287705 -1.41097 0
M  V30 3987 H 388.261 3.03802 -2.92032 0
M  V30 3988 H 386.985 2.78665 -1.70333 0
M  V30 3989 H 385.644 1.45171 -3.36632 0
M  V30 3990 H 385.292 3.91862 -3.15362 0
M  V30 3991 H 384.992 3.36207 -4.81911 0
M  V30 3992 H 386.516 4.20721 -4.42522 0
M  V30 3993 H 387.93 2.12196 -5.32584 0
M  V30 3994 H 386.327 1.49716 -5.81124 0
M  V30 3995 H 387.397 0.484811 -4.8247 0
M  V30 3996 N 388.74 1.54641 0.303973 0
M  V30 3997 C 389.65 1.88439 1.39743 0
M  V30 3998 C 390.666 0.778239 1.55626 0
M  V30 3999 O 391.842 1.07442 1.70347 0
M  V30 4000 C 388.907 2.12212 2.74166 0
M  V30 4001 C 387.968 3.35936 2.67293 0
M  V30 4002 C 387.201 3.58566 3.95305 0
M  V30 4003 O 387.424 2.84263 4.9452 0
M  V30 4004 O 386.358 4.52078 3.97378 0
M  V30 4005 H 390.184 2.81458 1.14083 0
M  V30 4006 H 387.769 1.40793 0.499768 0
M  V30 4007 H 389.651 2.29067 3.53704 0
M  V30 4008 H 388.326 1.22379 2.99675 0
M  V30 4009 H 387.233 3.24448 1.86237 0
M  V30 4010 H 388.566 4.2589 2.46736 0
M  V30 4011 N 390.218 -0.567019 1.47046 0
M  V30 4012 C 391.181 -1.65696 1.58359 0
M  V30 4013 C 392.181 -1.54097 0.459441 0
M  V30 4014 O 393.371 -1.58432 0.724225 0
M  V30 4015 C 390.503 -3.05197 1.51879 0
M  V30 4016 H 391.696 -1.57019 2.5551 0
M  V30 4017 H 389.249 -0.786148 1.3509 0
M  V30 4018 H 389.984 -3.19417 0.560673 0
M  V30 4019 H 389.769 -3.15025 2.33455 0
M  V30 4020 H 391.259 -3.84511 1.62913 0
M  V30 4021 N 391.696 -1.35014 -0.812953 0
M  V30 4022 C 392.659 -1.27292 -1.90602 0
M  V30 4023 C 393.659 -0.185817 -1.59723 0
M  V30 4024 O 394.849 -0.439102 -1.68575 0
M  V30 4025 C 391.981 -0.967676 -3.26877 0
M  V30 4026 H 393.174 -2.24479 -1.9887 0
M  V30 4027 H 390.727 -1.19446 -1.00808 0
M  V30 4028 H 391.462 0.0005954 -3.243 0
M  V30 4029 H 391.247 -1.75412 -3.50675 0
M  V30 4030 H 392.737 -0.939085 -4.06904 0
M  V30 4031 N 393.175 1.03435 -1.18907 0
M  V30 4032 C 394.591 1.28973 -0.940111 0
M  V30 4033 C 394.791 1.97676 0.390691 0
M  V30 4034 O 393.847 2.26127 1.12352 0
M  V30 4035 C 395.16 2.14221 -2.11021 0
M  V30 4036 C 396.708 2.27547 -2.14922 0
M  V30 4037 C 397.183 3.16164 -3.31367 0
M  V30 4038 N 398.674 3.23752 -3.31269 0
M  V30 4039 C 399.409 3.92495 -4.18014 0
M  V30 4040 N 398.905 4.63515 -5.14904 0
M  V30 4041 N 400.698 3.88838 -4.05908 0
M  V30 4042 H 392.849 0.57252 -2.04538 0
M  V30 4043 H 395.112 0.315184 -0.894071 0
M  V30 4044 H 394.818 1.71054 -3.073 0
M  V30 4045 H 394.692 3.14919 -2.0762 0
M  V30 4046 H 397.079 2.69947 -1.19217 0
M  V30 4047 H 397.16 1.26418 -2.22378 0
M  V30 4048 H 396.804 2.74474 -4.27348 0
M  V30 4049 H 396.734 4.17339 -3.21148 0
M  V30 4050 H 399.225 2.73167 -2.61129 0
M  V30 4051 H 399.538 5.13583 -5.77453 0
M  V30 4052 H 397.883 4.62398 -5.18857 0
M  V30 4053 H 401.074 3.32491 -3.29495 0
M  V30 4054 H 401.247 4.4214 -4.73726 0
M  V30 4055 N 394.653 0.992116 1.22453 0
M  V30 4056 C 395.93 0.583508 1.86694 0
M  V30 4057 C 396.31 -0.9392 1.89056 0
M  V30 4058 O 395.658 -1.82081 1.38053 0
M  V30 4059 C 395.868 1.20304 3.2761 0
M  V30 4060 C 397.216 1.30308 4.0411 0
M  V30 4061 O 398.24 1.15737 3.36873 0
M  V30 4062 O 397.099 1.53615 5.24466 0
M  V30 4063 H 394.193 0.198129 0.802916 0
M  V30 4064 H 396.739 1.08794 1.30238 0
M  V30 4065 H 395.511 2.24461 3.2052 0
M  V30 4066 H 395.134 0.684144 3.9167 0
M  V30 4067 N 396.131 -1.37776 0.765217 0
M  V30 4068 C 397.061 -2.32945 0.160953 0
M  V30 4069 C 398.042 -1.55454 -0.690516 0
M  V30 4070 O 399.227 -1.83721 -0.629318 0
M  V30 4071 C 396.357 -3.39669 -0.724031 0
M  V30 4072 C 395.311 -4.27992 0.0256173 0
M  V30 4073 C 394.637 -5.25673 -0.978383 0
M  V30 4074 C 395.937 -5.08309 1.20082 0
M  V30 4075 H 397.631 -2.83728 0.955969 0
M  V30 4076 H 395.177 -1.36416 0.461149 0
M  V30 4077 H 397.13 -4.05219 -1.15652 0
M  V30 4078 H 395.854 -2.87396 -1.5515 0
M  V30 4079 H 394.513 -3.63964 0.438812 0
M  V30 4080 H 394.161 -4.69682 -1.80022 0
M  V30 4081 H 393.861 -5.85625 -0.481378 0
M  V30 4082 H 395.385 -5.94098 -1.40995 0
M  V30 4083 H 396.799 -5.67034 0.845307 0
M  V30 4084 H 395.196 -5.77554 1.62947 0
M  V30 4085 H 396.266 -4.41365 2.00811 0
M  V30 4086 N 397.609 -0.515225 -1.4894 0
M  V30 4087 C 398.855 0.0242508 -2.02785 0
M  V30 4088 C 399.188 1.35323 -1.39289 0
M  V30 4089 O 398.463 1.87041 -0.533469 0
M  V30 4090 C 398.746 0.16184 -3.59736 0
M  V30 4091 C 398.599 -1.19127 -4.33738 0
M  V30 4092 C 399.918 0.895719 -4.30888 0
M  V30 4093 H 397.037 0.00733914 -0.736963 0
M  V30 4094 H 399.679 -0.669395 -1.77818 0
M  V30 4095 H 397.829 0.752624 -3.8114 0
M  V30 4096 H 399.501 -1.82202 -4.23792 0
M  V30 4097 H 397.744 -1.77695 -3.95736 0
M  V30 4098 H 398.415 -1.04815 -5.41957 0
M  V30 4099 H 400.891 0.394528 -4.14225 0
M  V30 4100 H 399.767 0.960859 -5.40425 0
M  V30 4101 H 400.028 1.9427 -3.97129 0
M  V30 4102 N 399.087 1.5561 -0.249682 0
M  V30 4103 C 400.312 2.03865 0.381305 0
M  V30 4104 C 400.737 1.12769 1.50548 0
M  V30 4105 O 400.095 0.121189 1.80895 0
M  V30 4106 C 400.143 3.50101 0.863816 0
M  V30 4107 O 399.247 3.62132 1.97318 0
M  V30 4108 H 398.588 0.658827 0.0827194 0
M  V30 4109 H 401.118 2.01105 -0.376552 0
M  V30 4110 H 401.128 3.90975 1.1663 0
M  V30 4111 H 399.803 4.1588 0.0411816 0
M  V30 4112 H 398.38 3.33155 1.67517 0
M  V30 4113 N 400.565 -0.0233959 1.57583 0
M  V30 4114 C 401.512 -1.02224 2.06927 0
M  V30 4115 C 402.482 -1.35575 0.959617 0
M  V30 4116 O 403.667 -1.45815 1.23055 0
M  V30 4117 C 400.807 -2.31636 2.5581 0
M  V30 4118 C 399.92 -2.04394 3.80588 0
M  V30 4119 C 399.055 -3.27717 4.18061 0
M  V30 4120 C 398.094 -2.96056 5.3574 0
M  V30 4121 N 397.231 -4.11847 5.68618 0
M  V30 4122 H 402.071 -0.594504 2.9201 0
M  V30 4123 H 399.608 -0.281921 1.44373 0
M  V30 4124 H 401.566 -3.07258 2.82221 0
M  V30 4125 H 400.196 -2.72122 1.73636 0
M  V30 4126 H 399.248 -1.19244 3.61227 0
M  V30 4127 H 400.56 -1.77042 4.66323 0
M  V30 4128 H 399.714 -4.11702 4.4563 0
M  V30 4129 H 398.453 -3.58188 3.30988 0
M  V30 4130 H 397.458 -2.10474 5.07918 0
M  V30 4131 H 398.683 -2.66857 6.24471 0
M  V30 4132 H 396.629 -4.42258 4.84504 0
M  V30 4133 H 396.546 -3.87938 6.48876 0
M  V30 4134 H 397.814 -4.96689 6.00766 0
M  V30 4135 N 402.043 -1.548 -0.295768 0
M  V30 4136 C 402.953 -1.89177 -1.38742 0
M  V30 4137 C 403.969 -0.786481 -1.55211 0
M  V30 4138 O 405.145 -1.08344 -1.69775 0
M  V30 4139 C 402.21 -2.13663 -2.73036 0
M  V30 4140 C 401.271 -3.37349 -2.65508 0
M  V30 4141 C 400.504 -3.60658 -3.93398 0
M  V30 4142 O 400.727 -2.86882 -4.93006 0
M  V30 4143 O 399.661 -4.54179 -3.94975 0
M  V30 4144 H 403.487 -2.82059 -1.12589 0
M  V30 4145 H 401.072 -1.41056 -0.492295 0
M  V30 4146 H 402.954 -2.3094 -3.52484 0
M  V30 4147 H 401.629 -1.23967 -2.99022 0
M  V30 4148 H 400.536 -3.25431 -1.84514 0
M  V30 4149 H 401.869 -4.27192 -2.44474 0
M  V30 4150 N 403.521 0.559213 -1.47345 0
M  V30 4151 C 404.769 1.31388 -1.53563 0
M  V30 4152 C 405.09 1.93985 -0.198678 0
M  V30 4153 O 404.36 1.79825 0.777167 0
M  V30 4154 H 402.94 0.487901 -0.565652 0
M  V30 4155 H 405.602 0.65315 -1.8363 0
M  V30 4156 H 404.698 2.10844 -2.30111 0
M  V30 4157 N 404.999 1.35443 0.805782 0
M  V30 4158 C 406.246 1.28761 1.56291 0
M  V30 4159 C 406.574 -0.137747 1.94012 0
M  V30 4160 O 405.829 -1.1032 1.61642 0
M  V30 4161 C 406.128 2.14045 2.86216 0
M  V30 4162 C 405.794 3.62826 2.67709 0
M  V30 4163 C 404.456 4.0338 2.6237 0
M  V30 4164 C 406.808 4.57227 2.50186 0
M  V30 4165 C 404.136 5.36501 2.37451 0
M  V30 4166 C 406.488 5.90547 2.26797 0
M  V30 4167 C 405.152 6.30245 2.1988 0
M  V30 4168 H 404.422 0.471171 0.571908 0
M  V30 4169 H 407.069 1.67347 0.930974 0
M  V30 4170 H 405.374 1.68342 3.53791 0
M  V30 4171 H 407.071 2.0621 3.43917 0
M  V30 4172 H 403.661 3.30644 2.72713 0
M  V30 4173 H 407.845 4.2678 2.53323 0
M  V30 4174 H 403.101 5.66259 2.30567 0
M  V30 4175 H 407.275 6.63274 2.12228 0
M  V30 4176 H 404.902 7.33328 2.00333 0
M  V30 4177 N 406.477 -1.02803 1.19454 0
M  V30 4178 C 407.893 -1.28473 0.946937 0
M  V30 4179 C 408.093 -1.97881 -0.380202 0
M  V30 4180 O 407.149 -2.26719 -1.11151 0
M  V30 4181 C 408.462 -2.13099 2.12154 0
M  V30 4182 C 410.01 -2.26404 2.16126 0
M  V30 4183 C 410.485 -3.14402 3.33039 0
M  V30 4184 N 411.976 -3.21991 3.32981 0
M  V30 4185 C 412.711 -3.90272 4.20089 0
M  V30 4186 N 412.207 -4.60777 5.17355 0
M  V30 4187 N 414 -3.8668 4.07964 0
M  V30 4188 H 406.151 -0.561665 2.04839 0
M  V30 4189 H 408.414 -0.310438 0.89573 0
M  V30 4190 H 408.12 -1.69422 3.08203 0
M  V30 4191 H 407.994 -3.13813 2.09287 0
M  V30 4192 H 410.381 -2.69311 1.20647 0
M  V30 4193 H 410.462 -1.25237 2.23045 0
M  V30 4194 H 410.106 -2.72204 4.28798 0
M  V30 4195 H 410.036 -4.1563 3.23356 0
M  V30 4196 H 412.527 -2.71778 2.62574 0
M  V30 4197 H 412.84 -5.10513 5.80169 0
M  V30 4198 H 411.185 -4.5964 5.21302 0
M  V30 4199 H 414.376 -3.30739 3.31254 0
M  V30 4200 H 414.549 -4.39621 4.76064 0
M  V30 4201 N 407.956 -0.998596 -1.21925 0
M  V30 4202 C 409.372 -0.710303 -1.42923 0
M  V30 4203 C 409.572 0.716933 -1.88314 0
M  V30 4204 O 408.628 1.48712 -2.04062 0
M  V30 4205 C 409.941 -1.72072 -2.466 0
M  V30 4206 C 411.489 -1.73681 -2.60392 0
M  V30 4207 C 411.964 -2.73601 -3.67296 0
M  V30 4208 N 413.455 -2.7223 -3.7476 0
M  V30 4209 C 414.19 -3.46206 -4.57087 0
M  V30 4210 N 413.686 -4.29802 -5.43362 0
M  V30 4211 N 415.479 -3.34886 -4.51451 0
M  V30 4212 H 407.63 -1.92028 -0.9077 0
M  V30 4213 H 409.893 -0.828487 -0.460775 0
M  V30 4214 H 409.599 -2.74231 -2.20206 0
M  V30 4215 H 409.473 -1.51818 -3.45299 0
M  V30 4216 H 411.86 -0.722173 -2.86127 0
M  V30 4217 H 411.941 -1.98005 -1.61949 0
M  V30 4218 H 411.585 -3.75217 -3.42307 0
M  V30 4219 H 411.515 -2.46545 -4.65321 0
M  V30 4220 H 414.006 -2.11576 -3.1312 0
M  V30 4221 H 414.319 -4.83061 -6.03218 0
M  V30 4222 H 412.664 -4.33887 -5.42925 0
M  V30 4223 H 415.855 -2.69015 -3.83078 0
M  V30 4224 H 416.028 -3.92796 -5.15379 0
M  V30 4225 N 409.434 1.37368 -0.772513 0
M  V30 4226 C 410.397 2.28601 -0.165541 0
M  V30 4227 C 411.397 1.48062 0.627238 0
M  V30 4228 O 412.587 1.68268 0.450715 0
M  V30 4229 C 409.719 3.32023 0.772897 0
M  V30 4230 H 410.912 2.83787 -0.969787 0
M  V30 4231 H 408.465 1.46647 -0.540775 0
M  V30 4232 H 409.2 2.81962 1.60212 0
M  V30 4233 H 408.985 3.91555 0.206585 0
M  V30 4234 H 410.475 4.00197 1.19298 0
M  V30 4235 N 410.912 0.523116 1.48665 0
M  V30 4236 C 412.328 0.180511 1.58576 0
M  V30 4237 C 412.528 -1.31597 1.52592 0
M  V30 4238 O 411.584 -2.0937 1.4114 0
M  V30 4239 C 412.897 0.776949 2.90489 0
M  V30 4240 C 414.445 0.745058 3.04003 0
M  V30 4241 C 414.92 1.31995 4.38567 0
M  V30 4242 N 416.411 1.28162 4.45117 0
M  V30 4243 C 417.146 1.6964 5.47731 0
M  V30 4244 N 416.642 2.18816 6.57337 0
M  V30 4245 N 418.435 1.6092 5.38573 0
M  V30 4246 H 410.586 1.4958 1.50797 0
M  V30 4247 H 412.849 0.621772 0.715614 0
M  V30 4248 H 412.555 1.82732 3.00503 0
M  V30 4249 H 412.429 0.25007 3.7637 0
M  V30 4250 H 414.816 -0.296532 2.93606 0
M  V30 4251 H 414.897 1.30933 2.1975 0
M  V30 4252 H 414.541 2.36043 4.49718 0
M  V30 4253 H 414.471 0.731418 5.21496 0
M  V30 4254 H 416.962 0.92155 3.66491 0
M  V30 4255 H 417.275 2.48478 7.31764 0
M  V30 4256 H 415.62 2.22805 6.58318 0
M  V30 4257 H 418.811 1.22304 4.5184 0
M  V30 4258 H 418.984 1.93567 6.18414 0
M  V30 4259 N 412.39 -1.55475 0.257931 0
M  V30 4260 C 413.34 -2.18506 -0.651094 0
M  V30 4261 C 414.324 -1.14431 -1.13112 0
M  V30 4262 O 415.516 -1.40305 -1.07905 0
M  V30 4263 C 412.645 -2.89653 -1.84272 0
M  V30 4264 C 411.731 -4.00996 -1.38068 0
M  V30 4265 N 412.122 -5.01816 -0.633609 0
M  V30 4266 C 410.42 -4.13753 -1.66506 0
M  V30 4267 C 411.121 -5.80371 -0.392922 0
M  V30 4268 N 410.097 -5.3505 -0.960359 0
M  V30 4269 H 413.899 -2.93811 -0.0722883 0
M  V30 4270 H 411.413 -1.62286 0.0607256 0
M  V30 4271 H 413.41 -3.33245 -2.50506 0
M  V30 4272 H 412.07 -2.15854 -2.42564 0
M  V30 4273 H 413.081 -5.17128 -0.282626 0
M  V30 4274 H 409.758 -3.51133 -2.25858 0
M  V30 4275 H 411.148 -6.7159 0.204235 0
M  V30 4276 N 413.868 0.0150385 -1.57593 0
M  V30 4277 C 415.114 0.704043 -1.90187 0
M  V30 4278 C 415.447 1.74249 -0.857366 0
M  V30 4279 O 414.722 1.94092 0.125843 0
M  V30 4280 C 415.005 1.36087 -3.33395 0
M  V30 4281 C 414.858 0.334981 -4.48551 0
M  V30 4282 C 416.177 2.29112 -3.7576 0
M  V30 4283 H 413.296 0.254475 -0.691673 0
M  V30 4284 H 415.938 -0.0331678 -1.89971 0
M  V30 4285 H 414.088 1.98922 -3.3371 0
M  V30 4286 H 415.76 -0.292534 -4.60372 0
M  V30 4287 H 414.003 -0.344325 -4.32431 0
M  V30 4288 H 414.674 0.833316 -5.45674 0
M  V30 4289 H 417.15 1.76308 -3.76902 0
M  V30 4290 H 416.026 2.72043 -4.76743 0
M  V30 4291 H 416.287 3.16385 -3.08793 0
M  V30 4292 N 415.346 1.54954 0.287554 0
M  V30 4293 C 416.592 1.75132 1.02257 0
M  V30 4294 C 416.925 0.542858 1.86458 0
M  V30 4295 O 416.2 -0.459856 1.88986 0
M  V30 4296 C 416.483 3.04812 1.91733 0
M  V30 4297 C 416.336 4.35985 1.10622 0
M  V30 4298 C 417.655 3.30438 2.90687 0
M  V30 4299 H 414.774 0.637194 0.370341 0
M  V30 4300 H 417.416 1.87678 0.296111 0
M  V30 4301 H 415.566 2.94247 2.53675 0
M  V30 4302 H 417.238 4.58487 0.508636 0
M  V30 4303 H 415.481 4.31865 0.409271 0
M  V30 4304 H 416.152 5.23017 1.76513 0
M  V30 4305 H 418.628 3.40701 2.38877 0
M  V30 4306 H 417.504 4.22467 3.50447 0
M  V30 4307 H 417.765 2.49377 3.65053 0
M  V30 4308 N 416.824 -0.551391 1.4764 0
M  V30 4309 C 418.072 -1.30572 1.54258 0
M  V30 4310 C 418.393 -1.93877 0.208963 0
M  V30 4311 O 417.663 -1.80234 -0.767619 0
M  V30 4312 H 416.243 -0.484894 0.568231 0
M  V30 4313 H 418.905 -0.643402 1.83974 0
M  V30 4314 H 418.001 -2.09621 2.31226 0
M  V30 4315 N 418.302 -1.35869 -0.798587 0
M  V30 4316 C 419.212 -1.31578 -1.94228 0
M  V30 4317 C 420.228 -0.21939 -1.72611 0
M  V30 4318 O 421.404 -0.450167 -1.96305 0
M  V30 4319 C 418.469 -1.09528 -3.28944 0
M  V30 4320 C 417.53 -2.28556 -3.63402 0
M  V30 4321 C 416.763 -2.07549 -4.9169 0
M  V30 4322 O 416.986 -1.046 -5.60727 0
M  V30 4323 O 415.92 -2.95106 -5.24591 0
M  V30 4324 H 419.746 -2.27847 -2.00796 0
M  V30 4325 H 417.331 -1.16322 -0.937526 0
M  V30 4326 H 419.213 -0.991127 -4.09579 0
M  V30 4327 H 417.888 -0.16315 -3.23289 0
M  V30 4328 H 416.795 -2.44538 -2.83112 0
M  V30 4329 H 418.128 -3.20244 -3.73771 0
M  V30 4330 N 419.78 1.02168 -1.19998 0
M  V30 4331 C 421.029 1.75091 -1.0013 0
M  V30 4332 C 421.342 1.89923 0.467835 0
M  V30 4333 O 422.548 2.59888 0.785515 0
M  V30 4334 C 421.004 3.14892 -1.74273 0
M  V30 4335 C 420.612 3.0809 -3.25245 0
M  V30 4336 C 422.356 3.9206 -1.62755 0
M  V30 4337 C 420.263 4.42867 -3.91948 0
M  V30 4338 H 419.193 0.656394 -0.37103 0
M  V30 4339 H 421.844 1.14284 -1.43567 0
M  V30 4340 H 420.226 3.7621 -1.2362 0
M  V30 4341 H 421.4 2.5611 -3.83072 0
M  V30 4342 H 419.715 2.44416 -3.3712 0
M  V30 4343 H 422.312 4.91764 -2.09934 0
M  V30 4344 H 422.655 4.12199 -0.582894 0
M  V30 4345 H 423.188 3.37359 -2.10793 0
M  V30 4346 H 419.927 4.27931 -4.96543 0
M  V30 4347 H 419.447 4.94874 -3.3891 0
M  V30 4348 H 421.126 5.11728 -3.95909 0
M  V30 4349 N 421.258 1.00505 1.21394 0
M  V30 4350 C 422.674 0.717873 1.42544 0
M  V30 4351 C 422.874 -0.706936 1.88692 0
M  V30 4352 O 421.93 -1.47627 2.04847 0
M  V30 4353 C 423.243 1.73377 2.45684 0
M  V30 4354 C 424.791 1.75059 2.59467 0
M  V30 4355 C 425.266 2.75545 3.6584 0
M  V30 4356 N 426.757 2.74213 3.73311 0
M  V30 4357 C 427.492 3.48626 4.55245 0
M  V30 4358 N 426.988 4.32678 5.41075 0
M  V30 4359 N 428.781 3.37276 4.49668 0
M  V30 4360 H 420.932 1.92506 0.897503 0
M  V30 4361 H 423.195 0.830919 0.456375 0
M  V30 4362 H 422.901 2.75395 2.18748 0
M  V30 4363 H 422.775 1.53647 3.44489 0
M  V30 4364 H 425.162 0.737337 2.8574 0
M  V30 4365 H 425.243 1.98861 1.60897 0
M  V30 4366 H 424.887 3.77028 3.40313 0
M  V30 4367 H 424.817 2.49009 4.64007 0
M  V30 4368 H 427.308 2.13234 3.11993 0
M  V30 4369 H 427.621 4.86253 6.00648 0
M  V30 4370 H 425.966 4.3676 5.40616 0
M  V30 4371 H 429.157 2.71043 3.81646 0
M  V30 4372 H 429.33 3.95524 5.13288 0
M  V30 4373 N 422.737 -1.36956 0.779787 0
M  V30 4374 C 424.153 -1.52817 0.460342 0
M  V30 4375 C 424.353 -1.7361 -1.02283 0
M  V30 4376 O 423.409 -1.76207 -1.80852 0
M  V30 4377 C 424.722 -2.71983 1.28241 0
M  V30 4378 C 426.27 -2.85849 1.27512 0
M  V30 4379 C 426.745 -4.08008 2.08072 0
M  V30 4380 N 428.236 -4.15135 2.05467 0
M  V30 4381 C 428.971 -5.08711 2.64577 0
M  V30 4382 N 428.467 -6.07792 3.32506 0
M  V30 4383 N 430.26 -5.01254 2.54363 0
M  V30 4384 H 422.411 -1.21713 1.74068 0
M  V30 4385 H 424.674 -0.593294 0.739396 0
M  V30 4386 H 424.38 -2.63109 2.33381 0
M  V30 4387 H 424.254 -3.65882 0.917088 0
M  V30 4388 H 426.641 -2.94189 0.231686 0
M  V30 4389 H 426.722 -1.92886 1.68014 0
M  V30 4390 H 426.366 -4.00429 3.12441 0
M  V30 4391 H 426.296 -5.001 1.64947 0
M  V30 4392 H 428.787 -3.44189 1.5602 0
M  V30 4393 H 429.1 -6.75739 3.74963 0
M  V30 4394 H 427.445 -6.08047 3.36606 0
M  V30 4395 H 430.636 -4.22795 2.00902 0
M  V30 4396 H 430.809 -5.73995 3.00722 0
M  V30 4397 N 424.215 -0.530993 -1.48385 0
M  V30 4398 C 425.443 -0.00134122 -2.069 0
M  V30 4399 C 425.858 1.2805 -1.3874 0
M  V30 4400 O 425.215 1.76204 -0.475244 0
M  V30 4401 C 425.266 0.225256 -3.60798 0
M  V30 4402 O 424.987 -1.0058 -4.26398 0
M  V30 4403 C 426.488 0.795172 -4.3611 0
M  V30 4404 H 423.708 -0.0339704 -0.67014 0
M  V30 4405 H 426.252 -0.736926 -1.90761 0
M  V30 4406 H 424.407 0.910891 -3.76539 0
M  V30 4407 H 424.821 -0.787165 -5.1856 0
M  V30 4408 H 426.295 0.903143 -5.44562 0
M  V30 4409 H 426.772 1.80031 -4.00606 0
M  V30 4410 H 427.378 0.146069 -4.25049 0
M  V30 4411 N 425.693 1.55336 -0.266172 0
M  V30 4412 C 426.656 2.20878 0.612001 0
M  V30 4413 C 427.656 1.18388 1.08816 0
M  V30 4414 O 428.846 1.4335 0.989774 0
M  V30 4415 C 425.978 2.86765 1.84332 0
M  V30 4416 H 427.171 2.99873 0.0398718 0
M  V30 4417 H 424.724 1.56291 -0.0167309 0
M  V30 4418 H 425.459 2.11759 2.45619 0
M  V30 4419 H 425.244 3.61862 1.5099 0
M  V30 4420 H 426.734 3.36867 2.46801 0
M  V30 4421 N 427.171 -0.0066808 1.57599 0
M  V30 4422 C 428.103 -1.02827 2.04839 0
M  V30 4423 C 429.116 -1.31108 0.965113 0
M  V30 4424 O 430.305 -1.28202 1.24203 0
M  V30 4425 C 427.405 -2.36464 2.42771 0
M  V30 4426 C 426.578 -2.27219 3.73751 0
M  V30 4427 C 425.637 -3.43489 3.98625 0
M  V30 4428 O 424.663 -3.21976 4.69382 0
M  V30 4429 N 425.865 -4.66116 3.46 0
M  V30 4430 H 428.63 -0.625455 2.93101 0
M  V30 4431 H 426.191 -0.194198 1.60731 0
M  V30 4432 H 428.183 -3.13008 2.56531 0
M  V30 4433 H 426.753 -2.68512 1.60063 0
M  V30 4434 H 425.973 -1.35629 3.70133 0
M  V30 4435 H 427.261 -2.18208 4.59633 0
M  V30 4436 H 426.659 -4.86493 2.88688 0
M  V30 4437 H 425.216 -5.39949 3.65101 0
M  V30 4438 N 428.649 -1.55105 -0.279332 0
M  V30 4439 C 429.612 -1.86783 -1.32834 0
M  V30 4440 C 430.612 -0.74199 -1.42657 0
M  V30 4441 O 431.802 -1.0102 -1.41918 0
M  V30 4442 C 428.934 -2.06746 -2.71052 0
M  V30 4443 H 430.127 -2.8055 -1.05979 0
M  V30 4444 H 427.68 -1.47499 -0.517087 0
M  V30 4445 H 428.415 -1.15339 -3.03097 0
M  V30 4446 H 428.2 -2.88711 -2.65309 0
M  V30 4447 H 429.69 -2.32549 -3.46858 0
M  V30 4448 N 430.127 0.543554 -1.4793 0
M  V30 4449 C 431.09 1.63156 -1.60975 0
M  V30 4450 C 432.09 1.53346 -0.483899 0
M  V30 4451 O 433.28 1.5726 -0.749339 0
M  V30 4452 C 430.412 3.02743 -1.56716 0
M  V30 4453 H 431.605 1.52934 -2.57975 0
M  V30 4454 H 429.158 0.764557 -1.36324 0
M  V30 4455 H 429.893 3.18484 -0.611418 0
M  V30 4456 H 429.678 3.11272 -2.38438 0
M  V30 4457 H 431.168 3.81871 -1.6901 0
M  V30 4458 N 431.605 1.3629 0.791371 0
M  V30 4459 C 432.568 1.30309 1.88553 0
M  V30 4460 C 433.568 0.211204 1.59407 0
M  V30 4461 O 434.758 0.465865 1.67855 0
M  V30 4462 C 431.89 1.01956 3.25297 0
M  V30 4463 H 433.083 2.27614 1.95273 0
M  V30 4464 H 430.636 1.21035 0.988953 0
M  V30 4465 H 431.371 0.050998 3.2426 0
M  V30 4466 H 431.156 1.80968 3.4784 0
M  V30 4467 H 432.646 1.0037 4.05359 0
M  V30 4468 N 433.083 -1.0153 1.20538 0
M  V30 4469 C 434.046 -2.0826 0.957098 0
M  V30 4470 C 435.046 -1.60657 -0.0678655 0
M  V30 4471 O 436.236 -1.73385 0.168332 0
M  V30 4472 C 433.368 -3.38033 0.441188 0
M  V30 4473 H 434.561 -2.31719 1.90384 0
M  V30 4474 H 432.114 -1.1835 1.02093 0
M  V30 4475 H 432.849 -3.20249 -0.510961 0
M  V30 4476 H 432.634 -3.73911 1.18038 0
M  V30 4477 H 434.124 -4.16613 0.287009 0
M  V30 4478 N 434.561 -1.01147 -1.20859 0
M  V30 4479 C 435.491 -0.597663 -2.25722 0
M  V30 4480 C 436.472 0.384744 -1.65692 0
M  V30 4481 O 437.657 0.271303 -1.92296 0
M  V30 4482 C 434.787 0.0700149 -3.47229 0
M  V30 4483 C 433.741 -0.832843 -4.19819 0
M  V30 4484 C 433.067 -0.0312202 -5.34691 0
M  V30 4485 C 434.367 -2.1385 -4.76514 0
M  V30 4486 H 436.061 -1.47423 -2.60589 0
M  V30 4487 H 433.607 -0.710301 -1.25263 0
M  V30 4488 H 435.56 0.37103 -4.19763 0
M  V30 4489 H 434.284 0.981259 -3.11511 0
M  V30 4490 H 432.943 -1.11778 -3.49144 0
M  V30 4491 H 432.591 0.881515 -4.95215 0
M  V30 4492 H 432.291 -0.632434 -5.84187 0
M  V30 4493 H 433.815 0.26346 -6.10031 0
M  V30 4494 H 435.229 -1.9002 -5.40893 0
M  V30 4495 H 433.626 -2.69012 -5.36426 0
M  V30 4496 H 434.696 -2.80495 -3.95538 0
M  V30 4497 N 436.039 1.36541 -0.78704 0
M  V30 4498 C 437.455 1.52571 -0.46844 0
M  V30 4499 C 437.655 1.7415 1.01361 0
M  V30 4500 O 436.711 1.77163 1.79915 0
M  V30 4501 C 438.024 2.71299 -1.29682 0
M  V30 4502 C 439.572 2.85169 -1.29027 0
M  V30 4503 C 440.047 4.06898 -2.10233 0
M  V30 4504 N 441.538 4.1404 -2.07666 0
M  V30 4505 C 442.273 5.07301 -2.67271 0
M  V30 4506 N 441.769 6.06021 -3.35724 0
M  V30 4507 N 443.562 4.99898 -2.57018 0
M  V30 4508 H 435.713 1.20788 -1.74711 0
M  V30 4509 H 437.976 0.589364 -0.742532 0
M  V30 4510 H 437.682 2.61868 -2.34773 0
M  V30 4511 H 437.556 3.6539 -0.936479 0
M  V30 4512 H 439.943 2.94062 -0.247284 0
M  V30 4513 H 440.024 1.91992 -1.69035 0
M  V30 4514 H 439.668 3.98766 -3.1456 0
M  V30 4515 H 439.598 4.99218 -1.67597 0
M  V30 4516 H 442.089 3.43357 -1.57843 0
M  V30 4517 H 442.402 6.73741 -3.78541 0
M  V30 4518 H 440.747 6.06253 -3.39826 0
M  V30 4519 H 443.938 4.21724 -2.03142 0
M  V30 4520 H 444.111 5.72392 -3.03761 0
M  V30 4521 N 437.518 0.538854 1.48102 0
M  V30 4522 C 438.934 0.19732 1.58376 0
M  V30 4523 C 439.134 -1.29971 1.5398 0
M  V30 4524 O 438.19 -2.07861 1.43352 0
M  V30 4525 C 439.503 0.807716 2.89649 0
M  V30 4526 C 441.051 0.77726 3.03196 0
M  V30 4527 C 441.526 1.36639 4.37143 0
M  V30 4528 N 443.017 1.32875 4.43732 0
M  V30 4529 C 443.752 1.7544 5.45901 0
M  V30 4530 N 443.248 2.25776 6.54979 0
M  V30 4531 N 445.041 1.66623 5.36836 0
M  V30 4532 H 437.192 1.5117 1.49202 0
M  V30 4533 H 439.455 0.629327 0.708979 0
M  V30 4534 H 439.161 1.85909 2.98548 0
M  V30 4535 H 439.035 0.289975 3.76084 0
M  V30 4536 H 441.422 -0.265374 2.93904 0
M  V30 4537 H 441.503 1.33256 2.18349 0
M  V30 4538 H 441.147 2.408 4.47189 0
M  V30 4539 H 441.077 0.786689 5.20691 0
M  V30 4540 H 443.568 0.96037 3.65493 0
M  V30 4541 H 443.881 2.56226 7.29087 0
M  V30 4542 H 442.226 2.29775 6.55918 0
M  V30 4543 H 445.417 1.27089 4.50517 0
M  V30 4544 H 445.59 2.00115 6.16326 0
M  V30 4545 N 438.996 -1.55193 0.274407 0
M  V30 4546 C 440.244 -1.99187 -0.341902 0
M  V30 4547 C 440.565 -1.16422 -1.56431 0
M  V30 4548 O 439.835 -0.253573 -1.94252 0
M  V30 4549 H 438.415 -0.735721 -0.129317 0
M  V30 4550 H 441.077 -1.91168 0.379578 0
M  V30 4551 H 440.173 -3.05629 -0.632253 0
M  V30 4552 N 440.474 -0.00167713 -1.576 0
M  V30 4553 C 441.751 0.719951 -1.81868 0
M  V30 4554 C 442.131 1.91895 -0.879747 0
M  V30 4555 O 441.479 2.28389 0.0711423 0
M  V30 4556 C 441.689 1.12409 -3.30402 0
M  V30 4557 C 443.037 1.52724 -3.96182 0
M  V30 4558 O 444.061 1.21784 -3.34734 0
M  V30 4559 O 442.92 2.10265 -5.04431 0
M  V30 4560 H 440.014 0.350707 -0.748955 0
M  V30 4561 H 442.56 -0.0272597 -1.69678 0
M  V30 4562 H 441.332 0.269532 -3.90371 0
M  V30 4563 H 440.955 1.93035 -3.47596 0
M  V30 4564 N 441.952 1.55251 0.271103 0
M  V30 4565 C 443.182 1.79713 1.01916 0
M  V30 4566 C 443.59 0.571613 1.80359 0
M  V30 4567 O 442.933 -0.468853 1.77616 0
M  V30 4568 C 442.995 2.97138 2.02359 0
M  V30 4569 C 442.659 4.34104 1.42837 0
M  V30 4570 C 443.656 5.13019 0.843071 0
M  V30 4571 C 441.341 4.80765 1.455 0
M  V30 4572 C 443.335 6.36729 0.292333 0
M  V30 4573 C 441.022 6.0443 0.900402 0
M  V30 4574 C 442.02 6.8225 0.32007 0
M  V30 4575 O 441.708 8.03582 -0.226031 0
M  V30 4576 H 441.44 0.602431 0.306681 0
M  V30 4577 H 443.994 2.03097 0.306701 0
M  V30 4578 H 442.224 2.6945 2.77369 0
M  V30 4579 H 443.913 3.08907 2.63309 0
M  V30 4580 H 444.679 4.781 0.815178 0
M  V30 4581 H 440.558 4.20202 1.89609 0
M  V30 4582 H 444.102 6.97414 -0.161274 0
M  V30 4583 H 439.999 6.3883 0.925541 0
M  V30 4584 H 440.767 8.18418 -0.115572 0
M  V30 4585 N 443.43 -0.535701 1.48216 0
M  V30 4586 C 444.846 -0.863701 1.3421 0
M  V30 4587 C 445.046 -1.98458 0.34879 0
M  V30 4588 O 444.102 -2.51432 -0.23204 0
M  V30 4589 C 445.415 -1.23662 2.74095 0
M  V30 4590 C 446.963 -1.34683 2.82541 0
M  V30 4591 C 447.438 -1.75322 4.23115 0
M  V30 4592 N 448.929 -1.82434 4.2576 0
M  V30 4593 C 449.664 -2.15252 5.31464 0
M  V30 4594 N 449.16 -2.46533 6.47452 0
M  V30 4595 N 450.953 -2.16209 5.18855 0
M  V30 4596 H 443.104 0.203965 2.11418 0
M  V30 4597 H 445.367 0.0286033 0.947568 0
M  V30 4598 H 445.073 -0.486674 3.48316 0
M  V30 4599 H 444.947 -2.18805 3.07253 0
M  V30 4600 H 447.334 -2.08756 2.08579 0
M  V30 4601 H 447.415 -0.376756 2.5301 0
M  V30 4602 H 447.059 -1.01812 4.97591 0
M  V30 4603 H 446.989 -2.7337 4.50085 0
M  V30 4604 H 449.48 -1.6056 3.42095 0
M  V30 4605 H 449.793 -2.70662 7.23852 0
M  V30 4606 H 448.138 -2.44065 6.50736 0
M  V30 4607 H 451.329 -1.91224 4.2726 0
M  V30 4608 H 451.502 -2.41453 6.01335 0
M  V30 4609 N 444.908 -1.36708 -0.784132 0
M  V30 4610 C 445.871 -1.31307 -1.87859 0
M  V30 4611 C 446.871 -0.219654 -1.59293 0
M  V30 4612 O 448.061 -0.47476 -1.67606 0
M  V30 4613 C 445.193 -1.03679 -3.24751 0
M  V30 4614 H 446.386 -2.28647 -1.94064 0
M  V30 4615 H 443.939 -1.21558 -0.98252 0
M  V30 4616 H 444.674 -0.0681936 -3.24228 0
M  V30 4617 H 444.459 -1.82811 -3.46876 0
M  V30 4618 H 445.949 -1.02518 -4.04821 0
M  V30 4619 N 446.386 1.0089 -1.21074 0
M  V30 4620 C 447.633 1.74607 -1.0256 0
M  V30 4621 C 447.961 1.89426 0.44136 0
M  V30 4622 O 447.216 1.42266 1.34384 0
M  V30 4623 C 447.515 3.16335 -1.66334 0
M  V30 4624 C 447.181 3.21474 -3.16173 0
M  V30 4625 C 445.843 3.22583 -3.57062 0
M  V30 4626 C 448.195 3.19025 -4.12156 0
M  V30 4627 C 445.523 3.18925 -4.92446 0
M  V30 4628 C 447.875 3.16909 -5.47496 0
M  V30 4629 C 446.539 3.16326 -5.87787 0
M  V30 4630 H 445.809 0.638933 -0.375294 0
M  V30 4631 H 448.456 1.18274 -1.50611 0
M  V30 4632 H 446.761 3.75876 -1.10566 0
M  V30 4633 H 448.458 3.72083 -1.49516 0
M  V30 4634 H 445.048 3.2135 -2.83605 0
M  V30 4635 H 449.232 3.17332 -3.81595 0
M  V30 4636 H 444.488 3.16809 -5.22917 0
M  V30 4637 H 448.662 3.13968 -6.21609 0
M  V30 4638 H 446.289 3.13246 -6.92662 0
M  V30 4639 N 447.864 1.01787 1.20321 0
M  V30 4640 C 449.112 0.706538 1.89347 0
M  V30 4641 C 449.433 -0.766289 1.79313 0
M  V30 4642 O 448.703 -1.55126 1.19635 0
M  V30 4643 H 447.283 0.258348 0.700903 0
M  V30 4644 H 449.945 1.28974 1.46122 0
M  V30 4645 H 449.041 0.991066 2.95946 0
M  V30 4646 N 449.342 -1.36122 0.79427 0
M  V30 4647 C 450.758 -1.5232 0.476525 0
M  V30 4648 C 450.958 -1.74685 -1.00436 0
M  V30 4649 O 450.014 -1.78115 -1.78973 0
M  V30 4650 C 451.327 -2.70607 1.31119 0
M  V30 4651 C 452.875 -2.8448 1.30537 0
M  V30 4652 C 453.35 -4.05778 2.12387 0
M  V30 4653 N 454.841 -4.12933 2.09859 0
M  V30 4654 C 455.576 -5.05876 2.69957 0
M  V30 4655 N 455.072 -6.04232 3.38934 0
M  V30 4656 N 456.865 -4.98528 2.59665 0
M  V30 4657 H 449.016 -1.1986 1.75349 0
M  V30 4658 H 451.279 -0.585418 0.745647 0
M  V30 4659 H 450.985 -2.60619 2.36158 0
M  V30 4660 H 450.859 -3.64888 0.955843 0
M  V30 4661 H 453.246 -2.93927 0.262876 0
M  V30 4662 H 453.327 -1.91093 1.70051 0
M  V30 4663 H 452.971 -3.97092 3.1667 0
M  V30 4664 H 452.901 -4.98323 1.70242 0
M  V30 4665 H 455.392 -3.42515 1.59662 0
M  V30 4666 H 455.705 -6.71724 3.82109 0
M  V30 4667 H 454.05 -6.04443 3.43036 0
M  V30 4668 H 457.241 -4.20641 2.05375 0
M  V30 4669 H 457.414 -5.70773 3.06793 0
M  V30 4670 N 450.82 -0.546701 -1.47814 0
M  V30 4671 C 451.75 0.195317 -2.32682 0
M  V30 4672 C 452.731 0.918981 -1.43139 0
M  V30 4673 O 453.916 0.901501 -1.72008 0
M  V30 4674 C 451.046 1.23237 -3.247 0
M  V30 4675 C 450 0.625818 -4.234 0
M  V30 4676 C 449.326 1.76674 -5.04669 0
M  V30 4677 C 450.626 -0.413515 -5.2066 0
M  V30 4678 H 452.32 -0.513184 -2.94969 0
M  V30 4679 H 449.866 -0.248241 -1.41844 0
M  V30 4680 H 451.819 1.75955 -3.82907 0
M  V30 4681 H 450.543 1.97067 -2.60446 0
M  V30 4682 H 449.202 0.120023 -3.66403 0
M  V30 4683 H 448.85 2.49383 -4.36826 0
M  V30 4684 H 448.55 1.36673 -5.71484 0
M  V30 4685 H 450.074 2.29738 -5.65732 0
M  V30 4686 H 451.488 0.0272042 -5.73294 0
M  V30 4687 H 449.885 -0.731825 -5.95621 0
M  V30 4688 H 450.955 -1.31325 -4.66778 0
M  V30 4689 N 452.299 1.55045 -0.282633 0
M  V30 4690 C 453.232 2.18951 0.64311 0
M  V30 4691 C 454.21 1.15287 1.14664 0
M  V30 4692 O 455.394 1.43846 1.21822 0
M  V30 4693 C 452.521 2.81874 1.87789 0
M  V30 4694 C 451.567 3.98906 1.50919 0
M  V30 4695 S 452.4 5.3234 0.580884 0
M  V30 4696 C 453.556 5.98737 1.82387 0
M  V30 4697 H 453.789 2.97131 0.100138 0
M  V30 4698 H 451.322 1.54255 -0.0668514 0
M  V30 4699 H 453.28 3.18757 2.58658 0
M  V30 4700 H 451.941 2.03573 2.392 0
M  V30 4701 H 451.134 4.4165 2.42819 0
M  V30 4702 H 450.736 3.63485 0.88061 0
M  V30 4703 H 453.028 6.18427 2.76684 0
M  V30 4704 H 453.971 6.93318 1.4393 0
M  V30 4705 H 454.379 5.28177 1.99223 0
M  V30 4706 N 453.777 0.010035 1.57597 0
M  V30 4707 C 455.023 -0.673697 1.91283 0
M  V30 4708 C 455.356 -1.72863 0.884979 0
M  V30 4709 O 454.631 -1.94268 -0.0949487 0
M  V30 4710 C 454.914 -1.30766 3.35518 0
M  V30 4711 C 454.767 -0.263578 4.49027 0
M  V30 4712 C 456.086 -2.23105 3.79358 0
M  V30 4713 H 453.205 -0.243439 0.695634 0
M  V30 4714 H 455.847 0.0633864 1.89894 0
M  V30 4715 H 453.997 -1.93588 3.36832 0
M  V30 4716 H 455.669 0.365738 4.59848 0
M  V30 4717 H 453.912 0.413077 4.31829 0
M  V30 4718 H 454.583 -0.746398 5.4693 0
M  V30 4719 H 457.059 -1.70289 3.79659 0
M  V30 4720 H 455.935 -2.64424 4.81011 0
M  V30 4721 H 456.196 -3.11433 3.13787 0
M  V30 4722 N 455.255 -1.55392 -0.262866 0
M  V30 4723 C 456.165 -1.92077 -1.34698 0
M  V30 4724 C 457.181 -0.819227 -1.53508 0
M  V30 4725 O 458.357 -1.11921 -1.67439 0
M  V30 4726 C 455.422 -2.19407 -2.68443 0
M  V30 4727 C 454.483 -3.42905 -2.58292 0
M  V30 4728 C 453.716 -3.68921 -3.85659 0
M  V30 4729 O 453.939 -2.97275 -4.8681 0
M  V30 4730 O 452.873 -4.62455 -3.85252 0
M  V30 4731 H 456.699 -2.84384 -1.06581 0
M  V30 4732 H 454.284 -1.42069 -0.462264 0
M  V30 4733 H 456.166 -2.38365 -3.47506 0
M  V30 4734 H 454.841 -1.30282 -2.96325 0
M  V30 4735 H 453.748 -3.29272 -1.7757 0
M  V30 4736 H 455.081 -4.32282 -2.35358 0
M  V30 4737 N 456.733 0.527833 -1.48498 0
M  V30 4738 C 457.958 1.313 -1.60546 0
M  V30 4739 C 458.383 1.86199 -0.26672 0
M  V30 4740 O 457.741 1.64513 0.761918 0
M  V30 4741 C 457.789 2.43818 -2.65678 0
M  V30 4742 O 456.893 3.46916 -2.22987 0
M  V30 4743 H 456.234 0.388784 -0.538277 0
M  V30 4744 H 458.764 0.634896 -1.945 0
M  V30 4745 H 458.774 2.89973 -2.87018 0
M  V30 4746 H 457.449 2.03222 -3.62869 0
M  V30 4747 H 456.026 3.06864 -2.11869 0
M  V30 4748 N 458.211 1.37122 0.776871 0
M  V30 4749 C 459.161 1.28989 1.88005 0
M  V30 4750 C 460.145 0.178765 1.59904 0
M  V30 4751 O 461.337 0.412705 1.72121 0
M  V30 4752 C 458.466 1.09402 3.25402 0
M  V30 4753 C 457.552 2.25036 3.59471 0
M  V30 4754 N 457.943 3.50407 3.64759 0
M  V30 4755 C 456.241 2.17078 3.89607 0
M  V30 4756 C 456.942 4.26628 3.95428 0
M  V30 4757 N 455.918 3.55709 4.11062 0
M  V30 4758 H 459.72 2.2394 1.90337 0
M  V30 4759 H 457.234 1.30021 0.973052 0
M  V30 4760 H 459.231 1.01661 4.04315 0
M  V30 4761 H 457.891 0.153632 3.24336 0
M  V30 4762 H 458.902 3.8438 3.47091 0
M  V30 4763 H 455.579 1.31067 3.96393 0
M  V30 4764 H 456.969 5.35107 4.06338 0
M  V30 4765 N 459.689 -1.00246 1.21608 0
M  V30 4766 C 461.105 -1.26435 0.973975 0
M  V30 4767 C 461.305 -1.98642 -0.338143 0
M  V30 4768 O 460.361 -2.29026 -1.06317 0
M  V30 4769 C 461.674 -2.08551 2.16626 0
M  V30 4770 C 463.222 -2.21769 2.20879 0
M  V30 4771 C 463.697 -3.07267 3.39633 0
M  V30 4772 N 465.188 -3.14855 3.39736 0
M  V30 4773 C 465.923 -3.81274 4.28273 0
M  V30 4774 N 465.419 -4.497 5.27012 0
M  V30 4775 N 467.212 -3.7794 4.16074 0
M  V30 4776 H 459.363 -0.518089 2.05984 0
M  V30 4777 H 461.626 -0.291368 0.902113 0
M  V30 4778 H 461.332 -1.62847 3.11727 0
M  V30 4779 H 461.206 -3.09303 2.15897 0
M  V30 4780 H 463.593 -2.66691 1.26332 0
M  V30 4781 H 463.674 -1.20478 2.25652 0
M  V30 4782 H 463.318 -2.63047 4.34475 0
M  V30 4783 H 463.248 -4.08678 3.321 0
M  V30 4784 H 465.739 -2.66147 2.6828 0
M  V30 4785 H 466.052 -4.98092 5.90867 0
M  V30 4786 H 464.397 -4.48479 5.30935 0
M  V30 4787 H 467.588 -3.23638 3.38195 0
M  V30 4788 H 467.761 -4.29424 4.85282 0
M  V30 4789 N 461.167 -1.02423 -1.1978 0
M  V30 4790 C 462.392 -0.7373 -1.93852 0
M  V30 4791 C 462.817 0.696923 -1.74713 0
M  V30 4792 O 462.175 1.48056 -1.04638 0
M  V30 4793 C 462.223 -1.08783 -3.438 0
M  V30 4794 O 461.327 -0.20383 -4.11896 0
M  V30 4795 H 460.668 -0.27284 -0.605355 0
M  V30 4796 H 463.198 -1.36966 -1.51992 0
M  V30 4797 H 463.208 -1.04276 -3.9445 0
M  V30 4798 H 461.883 -2.13274 -3.57053 0
M  V30 4799 H 460.46 -0.307091 -3.71633 0
M  V30 4800 N 462.645 1.35699 -0.801477 0
M  V30 4801 C 463.575 2.32436 -0.222658 0
M  V30 4802 C 464.556 1.5723 0.649057 0
M  V30 4803 O 465.741 1.85324 0.580387 0
M  V30 4804 C 462.871 3.41469 0.633719 0
M  V30 4805 C 461.825 4.27774 -0.139083 0
M  V30 4806 C 461.151 5.28082 0.838666 0
M  V30 4807 C 462.451 5.04946 -1.33517 0
M  V30 4808 H 464.145 2.81094 -1.03086 0
M  V30 4809 H 461.691 1.35146 -0.497155 0
M  V30 4810 H 463.644 4.08143 1.04868 0
M  V30 4811 H 462.368 2.91408 1.47475 0
M  V30 4812 H 461.027 3.62673 -0.535156 0
M  V30 4813 H 460.675 4.7429 1.67506 0
M  V30 4814 H 460.375 5.86695 0.32594 0
M  V30 4815 H 461.899 5.97628 1.25194 0
M  V30 4816 H 463.313 5.64593 -0.995349 0
M  V30 4817 H 461.71 5.7303 -1.78202 0
M  V30 4818 H 462.78 4.35886 -2.12442 0
M  V30 4819 N 464.123 0.554532 1.47522 0
M  V30 4820 C 465.539 0.214107 1.58157 0
M  V30 4821 C 465.739 -1.28331 1.55349 0
M  V30 4822 O 464.795 -2.06329 1.45549 0
M  V30 4823 C 466.108 0.838391 2.88776 0
M  V30 4824 C 467.656 0.809374 3.02354 0
M  V30 4825 C 468.131 1.41268 4.35669 0
M  V30 4826 N 469.622 1.37574 4.42298 0
M  V30 4827 C 470.357 1.8122 5.4401 0
M  V30 4828 N 469.853 2.3271 6.52547 0
M  V30 4829 N 471.646 1.72307 5.35039 0
M  V30 4830 H 463.797 1.52744 1.4759 0
M  V30 4831 H 466.06 0.636812 0.702264 0
M  V30 4832 H 465.766 1.89065 2.96559 0
M  V30 4833 H 465.64 0.329847 3.75755 0
M  V30 4834 H 468.027 -0.234187 2.94169 0
M  V30 4835 H 468.108 1.35565 2.16924 0
M  V30 4836 H 467.752 2.45529 4.4461 0
M  V30 4837 H 467.682 0.841871 5.19827 0
M  V30 4838 H 470.173 0.999081 3.64454 0
M  V30 4839 H 470.486 2.63944 7.26329 0
M  V30 4840 H 468.831 2.36719 6.53444 0
M  V30 4841 H 472.022 1.3186 4.49144 0
M  V30 4842 H 472.195 2.06641 6.14169 0
M  V30 4843 N 465.601 -1.54893 0.290851 0
M  V30 4844 C 466.878 -1.91991 -0.373989 0
M  V30 4845 C 467.258 -1.21694 -1.72493 0
M  V30 4846 O 466.606 -0.34917 -2.25816 0
M  V30 4847 C 466.816 -3.45419 -0.498703 0
M  V30 4848 C 468.164 -4.1748 -0.774298 0
M  V30 4849 O 469.188 -3.51398 -0.582908 0
M  V30 4850 O 468.047 -5.3445 -1.14129 0
M  V30 4851 H 465.141 -0.800593 -0.207315 0
M  V30 4852 H 467.687 -1.66297 0.338164 0
M  V30 4853 H 466.459 -3.88688 0.451392 0
M  V30 4854 H 466.082 -3.77117 -1.25972 0
M  V30 4855 N 467.08 -0.0183926 -1.57589 0
M  V30 4856 C 468.357 0.700621 -1.82622 0
M  V30 4857 C 468.737 1.90951 -0.90005 0
M  V30 4858 O 468.085 2.28452 0.0469145 0
M  V30 4859 C 468.295 1.08899 -3.31575 0
M  V30 4860 C 469.643 1.48514 -3.9778 0
M  V30 4861 O 470.667 1.18227 -3.36007 0
M  V30 4862 O 469.526 2.04903 -5.06633 0
M  V30 4863 H 466.62 0.342743 -0.752633 0
M  V30 4864 H 469.166 -0.0452548 -1.6964 0
M  V30 4865 H 467.938 0.228113 -3.90635 0
M  V30 4866 H 467.561 1.89338 -3.49624 0
M  V30 4867 N 468.558 1.5553 0.254621 0
M  V30 4868 C 469.788 1.80784 1.00004 0
M  V30 4869 C 470.196 0.59071 1.79742 0
M  V30 4870 O 469.539 -0.449988 1.78103 0
M  V30 4871 C 469.601 2.99268 1.99196 0
M  V30 4872 C 469.265 4.35595 1.38224 0
M  V30 4873 C 470.262 5.13884 0.788611 0
M  V30 4874 C 467.947 4.82281 1.40393 0
M  V30 4875 C 469.941 6.37004 0.224783 0
M  V30 4876 C 467.628 6.05351 0.836243 0
M  V30 4877 C 468.626 6.82551 0.24769 0
M  V30 4878 O 468.314 8.03297 -0.311249 0
M  V30 4879 H 468.046 0.60565 0.300274 0
M  V30 4880 H 470.6 2.03411 0.285143 0
M  V30 4881 H 468.83 2.72377 2.74496 0
M  V30 4882 H 470.519 3.11682 2.60018 0
M  V30 4883 H 471.285 4.78938 0.764423 0
M  V30 4884 H 467.164 4.22189 1.85142 0
M  V30 4885 H 470.708 6.97203 -0.235235 0
M  V30 4886 H 466.605 6.39776 0.857733 0
M  V30 4887 H 467.373 8.1825 -0.20237 0
M  V30 4888 N 470.036 -0.519951 1.48776 0
M  V30 4889 C 470.946 -1.65025 1.66745 0
M  V30 4890 C 471.962 -1.6508 0.549954 0
M  V30 4891 O 473.138 -1.83848 0.822295 0
M  V30 4892 C 470.203 -3.0146 1.71238 0
M  V30 4893 C 469.264 -3.12182 2.94688 0
M  V30 4894 C 468.497 -4.42109 2.98958 0
M  V30 4895 O 468.72 -5.29799 2.1135 0
M  V30 4896 O 467.654 -4.57406 3.91233 0
M  V30 4897 H 471.48 -1.52801 2.62461 0
M  V30 4898 H 469.065 -0.694157 1.32294 0
M  V30 4899 H 470.947 -3.82584 1.76657 0
M  V30 4900 H 469.622 -3.13988 0.786975 0
M  V30 4901 H 468.529 -2.30316 2.94797 0
M  V30 4902 H 469.862 -3.04574 3.86646 0
M  V30 4903 N 471.514 -1.37532 -0.769588 0
M  V30 4904 C 472.76 -1.33057 -1.53048 0
M  V30 4905 C 473.093 0.0841865 -1.94017 0
M  V30 4906 O 472.368 1.04198 -1.64235 0
M  V30 4907 C 472.651 -2.27166 -2.79406 0
M  V30 4908 C 472.504 -3.77429 -2.44677 0
M  V30 4909 C 473.823 -2.19683 -3.81349 0
M  V30 4910 H 470.942 -0.484655 -0.555228 0
M  V30 4911 H 473.584 -1.68251 -0.882702 0
M  V30 4912 H 471.734 -1.97283 -3.34682 0
M  V30 4913 H 473.406 -4.17918 -1.953 0
M  V30 4914 H 471.649 -3.95892 -1.77346 0
M  V30 4915 H 472.32 -4.38716 -3.35011 0
M  V30 4916 H 474.796 -2.46029 -3.35573 0
M  V30 4917 H 473.672 -2.87668 -4.67481 0
M  V30 4918 H 473.933 -1.19045 -4.25771 0
M  V30 4919 N 472.992 0.995999 -1.22138 0
M  V30 4920 C 474.217 1.77601 -1.0711 0
M  V30 4921 C 474.642 1.84339 0.374264 0
M  V30 4922 O 474 1.29359 1.27028 0
M  V30 4923 C 474.048 3.18897 -1.68336 0
M  V30 4924 O 473.152 4.01663 -0.934928 0
M  V30 4925 H 472.493 0.547011 -0.376397 0
M  V30 4926 H 475.023 1.25137 -1.6187 0
M  V30 4927 H 475.033 3.69539 -1.72931 0
M  V30 4928 H 473.708 3.13308 -2.73516 0
M  V30 4929 H 472.285 3.60204 -0.964751 0
M  V30 4930 N 474.47 1.03057 1.19235 0
M  V30 4931 C 475.71 0.736757 1.9066 0
M  V30 4932 C 476.074 -0.721521 1.77927 0
M  V30 4933 O 477.275 -1.12849 2.43964 0
M  V30 4934 C 475.546 1.17755 3.37444 0
M  V30 4935 S 477.105 1.00783 4.27069 0
M  V30 4936 H 473.923 0.268174 0.658486 0
M  V30 4937 H 476.525 1.32076 1.4414 0
M  V30 4938 H 475.229 2.23448 3.44237 0
M  V30 4939 H 474.76 0.586912 3.88997 0
M  V30 4940 H 476.775 -0.0806356 4.96134 0
M  V30 4941 N 475.948 -1.35272 0.808662 0
M  V30 4942 C 477.359 -1.81179 0.450688 0
M  V30 4943 C 477.71 -1.67143 -1.02751 0
M  V30 4944 O 476.835 -1.20325 -1.79864 0
M  V30 4945 C 477.43 -3.28943 0.811275 0
M  V30 4946 C 475.989 -3.72985 0.505871 0
M  V30 4947 C 475.136 -2.57229 1.03578 0
M  V30 4948 H 478.087 -1.2322 1.00012 0
M  V30 4949 H 478.108 -3.80342 0.109588 0
M  V30 4950 H 477.62 -3.39127 1.88718 0
M  V30 4951 H 475.721 -3.68349 -0.561209 0
M  V30 4952 H 475.834 -4.67677 1.03995 0
M  V30 4953 H 474.198 -2.50548 0.458005 0
M  V30 4954 H 474.981 -2.7019 2.11784 0
M  V30 4955 N 477.426 -0.562348 -1.47226 0
M  V30 4956 C 478.336 0.185466 -2.33866 0
M  V30 4957 C 479.352 0.906713 -1.48508 0
M  V30 4958 O 480.528 0.874458 -1.81425 0
M  V30 4959 C 477.593 1.19904 -3.25306 0
M  V30 4960 C 476.654 0.484669 -4.26555 0
M  V30 4961 C 475.887 1.44996 -5.13626 0
M  V30 4962 O 476.11 2.68515 -5.03245 0
M  V30 4963 O 475.044 0.971642 -5.94006 0
M  V30 4964 H 478.87 -0.525361 -2.99121 0
M  V30 4965 H 476.455 -0.322916 -1.45868 0
M  V30 4966 H 478.337 1.78399 -3.81774 0
M  V30 4967 H 477.012 1.8917 -2.62672 0
M  V30 4968 H 475.919 -0.141605 -3.73832 0
M  V30 4969 H 477.252 -0.166634 -4.91918 0
M  V30 4970 N 478.904 1.54736 -0.299062 0
M  V30 4971 C 479.834 2.26409 0.571085 0
M  V30 4972 C 480.815 1.2629 1.13951 0
M  V30 4973 O 482 1.55059 1.16921 0
M  V30 4974 C 479.13 3.00338 1.74396 0
M  V30 4975 C 478.084 4.07588 1.30599 0
M  V30 4976 C 477.41 4.69222 2.56387 0
M  V30 4977 C 478.71 5.20455 0.438645 0
M  V30 4978 H 480.404 2.99388 -0.0266991 0
M  V30 4979 H 477.95 1.43993 -0.0142812 0
M  V30 4980 H 479.903 3.49198 2.35878 0
M  V30 4981 H 478.627 2.24934 2.36796 0
M  V30 4982 H 477.286 3.59575 0.71424 0
M  V30 4983 H 476.934 3.9046 3.17097 0
M  V30 4984 H 476.634 5.41653 2.27784 0
M  V30 4985 H 478.158 5.20844 3.18675 0
M  V30 4986 H 479.572 5.65221 0.959085 0
M  V30 4987 H 477.969 5.99594 0.246466 0
M  V30 4988 H 479.039 4.8192 -0.536738 0
M  V30 4989 N 480.382 0.0267497 1.57577 0
M  V30 4990 C 481.659 -0.690926 1.82991 0
M  V30 4991 C 482.039 -1.90471 0.910164 0
M  V30 4992 O 481.387 -2.28474 -0.0347985 0
M  V30 4993 C 481.597 -1.07139 3.32148 0
M  V30 4994 C 482.945 -1.46402 3.98562 0
M  V30 4995 O 483.969 -1.16443 3.36629 0
M  V30 4996 O 482.828 -2.02214 5.07712 0
M  V30 4997 H 479.922 -0.338747 0.75444 0
M  V30 4998 H 482.468 0.0542506 1.69613 0
M  V30 4999 H 481.24 -0.207394 3.9075 0
M  V30 5000 H 480.863 -1.87481 3.50623 0
M  V30 5001 N 481.861 -1.55662 -0.24637 0
M  V30 5002 C 482.793 -1.86811 -1.32794 0
M  V30 5003 C 483.806 -0.754413 -1.44265 0
M  V30 5004 O 484.995 -1.03253 -1.45606 0
M  V30 5005 C 482.095 -2.0397 -2.70646 0
M  V30 5006 C 481.268 -3.34832 -2.81436 0
M  V30 5007 C 480.327 -3.41727 -4.00136 0
M  V30 5008 O 479.353 -4.14934 -3.89639 0
M  V30 5009 N 480.555 -2.71058 -5.1333 0
M  V30 5010 H 483.32 -2.80174 -1.06409 0
M  V30 5011 H 480.881 -1.55906 -0.43647 0
M  V30 5012 H 482.873 -2.05924 -3.48393 0
M  V30 5013 H 481.443 -1.1735 -2.89738 0
M  V30 5014 H 480.663 -3.4519 -1.90361 0
M  V30 5015 H 481.951 -4.21085 -2.85595 0
M  V30 5016 H 481.349 -2.11314 -5.2475 0
M  V30 5017 H 479.906 -2.78704 -5.89209 0
M  V30 5018 N 483.339 0.512053 -1.4905 0
M  V30 5019 C 484.269 1.62365 -1.67809 0
M  V30 5020 C 485.25 1.61737 -0.526809 0
M  V30 5021 O 486.435 1.78651 -0.761404 0
M  V30 5022 C 483.565 3.00895 -1.73435 0
M  V30 5023 C 482.519 3.16387 -2.88242 0
M  V30 5024 C 481.845 4.56157 -2.78971 0
M  V30 5025 C 483.145 2.97457 -4.29321 0
M  V30 5026 H 484.839 1.46921 -2.60873 0
M  V30 5027 H 482.385 0.705379 -1.2554 0
M  V30 5028 H 484.338 3.78549 -1.85145 0
M  V30 5029 H 483.062 3.17403 -0.769619 0
M  V30 5030 H 481.721 2.41155 -2.76116 0
M  V30 5031 H 481.369 4.69525 -1.8043 0
M  V30 5032 H 481.069 4.67465 -3.5602 0
M  V30 5033 H 482.593 5.35886 -2.92675 0
M  V30 5034 H 484.007 3.64888 -4.42187 0
M  V30 5035 H 482.404 3.20245 -5.07507 0
M  V30 5036 H 483.474 1.93692 -4.44535 0
M  V30 5037 N 484.817 1.37938 0.762283 0
M  V30 5038 C 486.063 1.33866 1.52341 0
M  V30 5039 C 486.396 -0.0738961 1.94059 0
M  V30 5040 O 485.671 -1.03326 1.64785 0
M  V30 5041 C 485.954 2.28644 2.78197 0
M  V30 5042 C 485.807 3.78722 2.42672 0
M  V30 5043 C 487.126 2.21702 3.80179 0
M  V30 5044 H 484.245 0.487593 0.55265 0
M  V30 5045 H 486.887 1.68717 0.873767 0
M  V30 5046 H 485.037 1.99055 3.33631 0
M  V30 5047 H 486.709 4.18948 1.93081 0
M  V30 5048 H 484.952 3.96827 1.75244 0
M  V30 5049 H 485.623 4.40486 3.3268 0
M  V30 5050 H 488.099 2.47805 3.34263 0
M  V30 5051 H 486.975 2.90143 4.65949 0
M  V30 5052 H 487.236 1.21301 4.25133 0
M  V30 5053 N 486.295 -0.989507 1.22664 0
M  V30 5054 C 487.205 -2.11449 1.01619 0
M  V30 5055 C 488.221 -1.73962 -0.036545 0
M  V30 5056 O 489.397 -2.00788 0.156924 0
M  V30 5057 C 486.462 -3.41465 0.600204 0
M  V30 5058 C 485.523 -3.93033 1.72695 0
M  V30 5059 C 484.756 -5.16844 1.33071 0
M  V30 5060 O 484.979 -5.7001 0.210975 0
M  V30 5061 O 483.913 -5.6225 2.14845 0
M  V30 5062 H 487.739 -2.32088 1.9588 0
M  V30 5063 H 485.324 -1.09823 1.01289 0
M  V30 5064 H 487.206 -4.19695 0.37873 0
M  V30 5065 H 485.881 -3.22178 -0.313511 0
M  V30 5066 H 484.788 -3.15961 2.00298 0
M  V30 5067 H 486.121 -4.16758 2.61865 0
M  V30 5068 N 487.773 -1.03688 -1.18687 0
M  V30 5069 C 488.736 -0.629115 -2.20397 0
M  V30 5070 C 489.736 0.311495 -1.57754 0
M  V30 5071 O 490.926 0.0974107 -1.73927 0
M  V30 5072 C 488.058 0.0782231 -3.4081 0
M  V30 5073 H 489.251 -1.52915 -2.57987 0
M  V30 5074 H 486.804 -0.828988 -1.32505 0
M  V30 5075 H 487.539 0.992233 -3.08748 0
M  V30 5076 H 487.324 -0.597776 -3.87517 0
M  V30 5077 H 488.814 0.350156 -4.16129 0
M  V30 5078 N 489.251 1.34841 -0.815825 0
M  V30 5079 C 490.214 2.27959 -0.238185 0
M  V30 5080 C 491.214 1.49983 0.579816 0
M  V30 5081 O 492.404 1.69617 0.396953 0
M  V30 5082 C 489.536 3.34314 0.666876 0
M  V30 5083 H 490.729 2.80558 -1.05958 0
M  V30 5084 H 488.282 1.44852 -0.587156 0
M  V30 5085 H 489.017 2.86916 1.5116 0
M  V30 5086 H 488.802 3.92014 0.0819106 0
M  V30 5087 H 490.292 4.0379 1.06506 0
M  V30 5088 N 490.729 0.570148 1.46925 0
M  V30 5089 C 491.659 -0.158274 2.32963 0
M  V30 5090 C 492.64 -0.896093 1.44583 0
M  V30 5091 O 493.825 -0.874022 1.7342 0
M  V30 5092 C 490.955 -1.18055 3.26619 0
M  V30 5093 C 489.909 -0.558379 4.24342 0
M  V30 5094 C 489.235 -1.68623 5.07415 0
M  V30 5095 C 490.535 0.496295 5.19937 0
M  V30 5096 H 492.229 0.560046 2.94115 0
M  V30 5097 H 489.775 0.270775 1.41431 0
M  V30 5098 H 491.728 -1.69841 3.85658 0
M  V30 5099 H 490.452 -1.92899 2.63548 0
M  V30 5100 H 489.111 -0.0617157 3.66548 0
M  V30 5101 H 488.759 -2.42402 4.40738 0
M  V30 5102 H 488.459 -1.27564 5.73586 0
M  V30 5103 H 489.983 -2.20709 5.69315 0
M  V30 5104 H 491.397 0.0640052 5.73264 0
M  V30 5105 H 489.794 0.82649 5.94381 0
M  V30 5106 H 490.864 1.38735 4.6463 0
M  V30 5107 N 492.207 -1.54576 0.307264 0
M  V30 5108 C 493.17 -2.22423 -0.553224 0
M  V30 5109 C 494.17 -1.21231 -1.05639 0
M  V30 5110 O 495.36 -1.45923 -0.951419 0
M  V30 5111 C 492.492 -2.91552 -1.76664 0
M  V30 5112 H 493.685 -2.99874 0.0396484 0
M  V30 5113 H 491.238 -1.56192 0.0581629 0
M  V30 5114 H 491.973 -2.18196 -2.39918 0
M  V30 5115 H 491.758 -3.65738 -1.41343 0
M  V30 5116 H 493.248 -3.43292 -2.37783 0
M  V30 5117 N 493.685 -0.035106 -1.57561 0
M  V30 5118 C 494.931 0.64318 -1.92331 0
M  V30 5119 C 495.264 1.71434 -0.912368 0
M  V30 5120 O 494.539 1.94395 0.0640303 0
M  V30 5121 C 494.822 1.25411 -3.37556 0
M  V30 5122 C 494.675 0.192109 -4.4939 0
M  V30 5123 C 495.994 2.17041 -3.82859 0
M  V30 5124 H 493.113 0.232341 -0.699419 0
M  V30 5125 H 495.755 -0.0935889 -1.89769 0
M  V30 5126 H 493.905 1.88205 -3.39869 0
M  V30 5127 H 495.577 -0.438849 -4.59208 0
M  V30 5128 H 493.82 -0.481725 -4.31117 0
M  V30 5129 H 494.491 0.659292 -5.48049 0
M  V30 5130 H 496.967 1.64228 -3.8232 0
M  V30 5131 H 495.843 2.56738 -4.85157 0
M  V30 5132 H 496.104 3.06401 -3.18702 0
M  V30 5133 N 495.163 1.55791 0.238111 0
M  V30 5134 C 496.574 1.68383 0.806472 0
M  V30 5135 C 496.925 0.634157 1.85669 0
M  V30 5136 O 496.05 -0.217913 2.153 0
M  V30 5137 C 496.645 3.05268 1.46959 0
M  V30 5138 C 495.204 3.1977 1.98555 0
M  V30 5139 C 494.351 2.64279 0.839763 0
M  V30 5140 H 497.302 1.58694 0.0137535 0
M  V30 5141 H 497.323 3.00203 2.33792 0
M  V30 5142 H 496.835 3.81643 0.704993 0
M  V30 5143 H 494.936 2.48234 2.77868 0
M  V30 5144 H 495.049 4.26788 2.17689 0
M  V30 5145 H 493.413 2.22329 1.24265 0
M  V30 5146 H 494.196 3.43187 0.0881032 0
M  V30 5147 N 496.642 -0.504142 1.49319 0
M  V30 5148 C 497.89 -1.25598 1.58334 0
M  V30 5149 C 498.211 -1.93114 0.270538 0
M  V30 5150 O 497.481 -1.82585 -0.709891 0
M  V30 5151 H 496.061 -0.466571 0.58337 0
M  V30 5152 H 498.723 -0.584547 1.85928 0
M  V30 5153 H 497.819 -2.02159 2.37778 0
M  V30 5154 N 498.12 -1.38341 -0.754957 0
M  V30 5155 C 499.366 -1.34672 -1.51628 0
M  V30 5156 C 499.699 0.0636036 -1.94096 0
M  V30 5157 O 498.974 1.0245 -1.6533 0
M  V30 5158 C 499.257 -2.30116 -2.76981 0
M  V30 5159 C 499.11 -3.80003 -2.4066 0
M  V30 5160 C 500.429 -2.23715 -3.78998 0
M  V30 5161 H 497.548 -0.490517 -0.550056 0
M  V30 5162 H 500.19 -1.69178 -0.864807 0
M  V30 5163 H 498.34 -2.00821 -3.3257 0
M  V30 5164 H 500.012 -4.19966 -1.90856 0
M  V30 5165 H 498.255 -3.97751 -1.73137 0
M  V30 5166 H 498.926 -4.42244 -3.30339 0
M  V30 5167 H 501.402 -2.49574 -3.32945 0
M  V30 5168 H 500.278 -2.9261 -4.64403 0
M  V30 5169 H 500.539 -1.23554 -4.24484 0
M  V30 5170 N 499.598 0.982988 -1.23187 0
M  V30 5171 C 500.828 1.75666 -1.08743 0
M  V30 5172 C 501.236 1.85662 0.364195 0
M  V30 5173 O 500.579 1.33317 1.26382 0
M  V30 5174 C 500.641 3.20144 -1.63549 0
M  V30 5175 C 500.305 3.33665 -3.12277 0
M  V30 5176 C 501.302 3.20194 -4.096 0
M  V30 5177 C 498.987 3.58397 -3.51933 0
M  V30 5178 C 500.981 3.31256 -5.44563 0
M  V30 5179 C 498.668 3.69098 -4.87042 0
M  V30 5180 C 499.666 3.55537 -5.83166 0
M  V30 5181 O 499.354 3.65864 -7.1582 0
M  V30 5182 H 499.086 0.558194 -0.381307 0
M  V30 5183 H 501.64 1.24387 -1.63454 0
M  V30 5184 H 499.87 3.72659 -1.03256 0
M  V30 5185 H 501.559 3.79262 -1.4462 0
M  V30 5186 H 502.325 3.00987 -3.80305 0
M  V30 5187 H 498.204 3.68025 -2.77631 0
M  V30 5188 H 501.748 3.20588 -6.19572 0
M  V30 5189 H 497.645 3.87814 -5.16014 0
M  V30 5190 H 498.413 3.82675 -7.23534 0
M  V30 5191 N 501.076 1.04316 1.18135 0
M  V30 5192 C 502.324 0.746542 1.87806 0
M  V30 5193 C 502.645 -0.728082 1.80898 0
M  V30 5194 O 501.915 -1.52554 1.22899 0
M  V30 5195 H 500.495 0.273157 0.695265 0
M  V30 5196 H 503.157 1.32044 1.43354 0
M  V30 5197 H 502.253 1.05362 2.93778 0
M  V30 5198 N 502.554 -1.34406 0.822964 0
M  V30 5199 C 503.779 -2.0304 0.423034 0
M  V30 5200 C 504.204 -1.61568 -0.963196 0
M  V30 5201 O 503.562 -0.800339 -1.62678 0
M  V30 5202 C 503.61 -3.56636 0.53321 0
M  V30 5203 O 502.714 -4.09971 -0.446939 0
M  V30 5204 H 502.055 -0.64075 0.174171 0
M  V30 5205 H 504.585 -1.71653 1.11339 0
M  V30 5206 H 504.595 -4.05945 0.408991 0
M  V30 5207 H 503.27 -3.86168 1.54425 0
M  V30 5208 H 501.847 -3.71835 -0.281601 0
M  V30 5209 N 504.032 -0.577932 -1.46621 0
M  V30 5210 C 505.448 -0.239242 -1.57797 0
M  V30 5211 C 505.648 1.25843 -1.57371 0
M  V30 5212 O 504.704 2.03988 -1.48813 0
M  V30 5213 C 506.017 -0.884227 -2.87405 0
M  V30 5214 C 507.565 -0.857373 -3.01028 0
M  V30 5215 C 508.04 -1.48181 -4.33366 0
M  V30 5216 N 509.531 -1.44593 -4.40053 0
M  V30 5217 C 510.266 -1.89852 -5.41058 0
M  V30 5218 N 509.762 -2.43062 -6.48762 0
M  V30 5219 N 511.555 -1.80797 -5.3223 0
M  V30 5220 H 503.706 -1.55073 -1.45142 0
M  V30 5221 H 505.969 -0.647903 -0.692044 0
M  V30 5222 H 505.675 -1.93759 -2.93514 0
M  V30 5223 H 505.549 -0.389585 -3.75183 0
M  V30 5224 H 507.936 0.187357 -2.94505 0
M  V30 5225 H 508.017 -1.38999 -2.14739 0
M  V30 5226 H 507.661 -2.52572 -4.40647 0
M  V30 5227 H 507.591 -0.924464 -5.18422 0
M  V30 5228 H 510.082 -1.05694 -3.62819 0
M  V30 5229 H 510.395 -2.75466 -7.22038 0
M  V30 5230 H 508.74 -2.47085 -6.49595 0
M  V30 5231 H 511.931 -1.38989 -4.46989 0
M  V30 5232 H 512.104 -2.16385 -6.10804 0
M  V30 5233 N 505.51 1.54411 -0.315457 0
M  V30 5234 C 506.443 2.20265 0.596522 0
M  V30 5235 C 507.421 1.17693 1.12192 0
M  V30 5236 O 508.605 1.46397 1.18744 0
M  V30 5237 C 505.732 2.85794 1.81767 0
M  V30 5238 C 504.778 4.02017 1.42424 0
M  V30 5239 S 505.611 5.33452 0.467836 0
M  V30 5240 C 506.767 6.02471 1.69645 0
M  V30 5241 H 507 2.97277 0.0370896 0
M  V30 5242 H 504.533 1.54079 -0.0995562 0
M  V30 5243 H 506.491 3.24172 2.51839 0
M  V30 5244 H 505.152 2.08601 2.34828 0
M  V30 5245 H 504.345 4.46701 2.33396 0
M  V30 5246 H 503.947 3.65271 0.803311 0
M  V30 5247 H 506.239 6.24157 2.63504 0
M  V30 5248 H 507.182 6.96215 1.29192 0
M  V30 5249 H 507.59 5.32284 1.87974 0
M  V30 5250 N 506.988 0.0434614 1.5754 0
M  V30 5251 C 508.216 -0.641835 1.96693 0
M  V30 5252 C 508.631 -1.64832 0.920652 0
M  V30 5253 O 507.988 -1.82247 -0.095993 0
M  V30 5254 C 508.039 -1.33557 3.35924 0
M  V30 5255 O 507.76 -0.369403 4.3654 0
M  V30 5256 C 509.261 -2.11135 3.89791 0
M  V30 5257 H 506.481 -0.176013 0.647503 0
M  V30 5258 H 509.025 0.107478 2.04217 0
M  V30 5259 H 507.18 -2.03617 3.29574 0
M  V30 5260 H 507.594 -0.863674 5.1734 0
M  V30 5261 H 509.068 -2.55107 4.89514 0
M  V30 5262 H 509.545 -2.95634 3.24803 0
M  V30 5263 H 510.151 -1.46002 3.99454 0
M  V30 5264 N 508.466 -1.55915 -0.229846 0
M  V30 5265 C 509.714 -1.7819 -0.953565 0
M  V30 5266 C 510.035 -0.610504 -1.85197 0
M  V30 5267 O 509.305 0.372988 -1.92316 0
M  V30 5268 H 507.885 -0.657208 -0.355087 0
M  V30 5269 H 510.547 -1.9337 -0.243693 0
M  V30 5270 H 509.643 -2.70011 -1.56527 0
M  V30 5271 N 509.944 0.496216 -1.49584 0
M  V30 5272 C 511.192 1.24756 -1.58998 0
M  V30 5273 C 511.513 1.92968 -0.280775 0
M  V30 5274 O 510.783 1.82959 0.700198 0
M  V30 5275 H 509.363 0.463471 -0.585836 0
M  V30 5276 H 512.025 0.574678 -1.86235 0
M  V30 5277 H 511.121 2.00895 -2.38847 0
M  V30 5278 N 511.423 1.38739 0.74761 0
M  V30 5279 C 512.671 1.35007 1.50391 0
M  V30 5280 C 512.992 -0.0574274 1.94915 0
M  V30 5281 O 512.262 -1.00628 1.6808 0
M  V30 5282 H 510.842 0.496784 0.557866 0
M  V30 5283 H 513.504 1.73479 0.888319 0
M  V30 5284 H 512.6 2.00474 2.392 0
M  V30 5285 N 512.901 -0.976442 1.23707 0
M  V30 5286 C 514.148 -1.71827 1.07153 0
M  V30 5287 C 514.476 -1.9053 -0.390982 0
M  V30 5288 O 513.731 -1.45779 -1.30564 0
M  V30 5289 C 514.03 -3.11814 1.74662 0
M  V30 5290 C 513.696 -3.12978 3.24585 0
M  V30 5291 C 512.358 -3.13003 3.6549 0
M  V30 5292 C 514.71 -3.07986 4.20469 0
M  V30 5293 C 512.038 -3.05757 5.00729 0
M  V30 5294 C 514.39 -3.02282 5.55705 0
M  V30 5295 C 513.054 -3.00631 5.95968 0
M  V30 5296 H 512.324 -0.628758 0.392102 0
M  V30 5297 H 514.971 -1.14239 1.53693 0
M  V30 5298 H 513.276 -3.72812 1.20492 0
M  V30 5299 H 514.973 -3.67989 1.59328 0
M  V30 5300 H 511.563 -3.13718 2.92026 0
M  V30 5301 H 515.747 -3.07103 3.89874 0
M  V30 5302 H 511.003 -3.02834 5.31132 0
M  V30 5303 H 515.177 -2.97376 6.29714 0
M  V30 5304 H 512.804 -2.94771 7.00724 0
M  V30 5305 N 514.379 -1.04941 -1.1758 0
M  V30 5306 C 515.627 -0.756492 -1.87408 0
M  V30 5307 C 515.948 0.718478 -1.81281 0
M  V30 5308 O 515.218 1.519 -1.23706 0
M  V30 5309 H 513.798 -0.276841 -0.693807 0
M  V30 5310 H 516.46 -1.32803 -1.42652 0
M  V30 5311 H 515.556 -1.06918 -2.93215 0
M  V30 5312 N 515.857 1.33968 -0.830081 0
M  V30 5313 C 517.105 1.97672 -0.420734 0
M  V30 5314 C 517.426 1.66111 1.02138 0
M  V30 5315 O 516.696 0.955503 1.71017 0
M  V30 5316 H 515.276 0.73125 -0.152587 0
M  V30 5317 H 517.938 1.63483 -1.0611 0
M  V30 5318 H 517.034 3.07294 -0.545588 0
M  V30 5319 N 517.335 0.585699 1.46312 0
M  V30 5320 C 518.575 0.0751432 2.04262 0
M  V30 5321 C 518.939 -1.26201 1.44697 0
M  V30 5322 O 520.14 -1.86198 1.93865 0
M  V30 5323 C 518.411 0.013478 3.57397 0
M  V30 5324 S 519.97 -0.439068 4.36598 0
M  V30 5325 H 516.788 0.0389228 0.709934 0
M  V30 5326 H 519.39 0.778871 1.79315 0
M  V30 5327 H 518.094 0.990558 3.98266 0
M  V30 5328 H 517.625 -0.712927 3.86886 0
M  V30 5329 H 519.64 -1.6932 4.66417 0
M  V30 5330 N 518.813 -1.54241 0.323641 0
M  V30 5331 C 520.041 -2.04985 -0.280871 0
M  V30 5332 C 520.456 -1.19978 -1.45777 0
M  V30 5333 O 519.813 -0.230471 -1.81039 0
M  V30 5334 C 519.864 -3.54353 -0.715258 0
M  V30 5335 O 519.585 -4.36132 0.414817 0
M  V30 5336 C 521.086 -4.21189 -1.38257 0
M  V30 5337 H 518.306 -0.66851 -0.0577502 0
M  V30 5338 H 520.85 -1.99029 0.469852 0
M  V30 5339 H 519.005 -3.60596 -1.41596 0
M  V30 5340 H 519.419 -5.2445 0.0725227 0
M  V30 5341 H 520.893 -5.27154 -1.63745 0
M  V30 5342 H 521.37 -3.72307 -2.32989 0
M  V30 5343 H 521.976 -4.19085 -0.724447 0
M  V30 5344 N 520.291 -0.0518155 -1.57515 0
M  V30 5345 C 521.537 0.622745 -1.93002 0
M  V30 5346 C 521.87 1.70456 -0.930499 0
M  V30 5347 O 521.145 1.94452 0.0434086 0
M  V30 5348 C 521.428 1.21824 -3.38867 0
M  V30 5349 C 521.281 0.144434 -4.49568 0
M  V30 5350 C 522.6 2.12968 -3.8514 0
M  V30 5351 H 519.719 0.22491 -0.701844 0
M  V30 5352 H 522.361 -0.113711 -1.89659 0
M  V30 5353 H 520.511 1.8459 -3.41846 0
M  V30 5354 H 522.183 -0.48753 -4.58717 0
M  V30 5355 H 520.426 -0.527424 -4.30582 0
M  V30 5356 H 521.097 0.601127 -5.48717 0
M  V30 5357 H 523.573 1.60163 -3.8404 0
M  V30 5358 H 522.449 2.51578 -4.87852 0
M  V30 5359 H 522.71 3.03004 -3.21934 0
M  V30 5360 N 521.769 1.56035 0.221574 0
M  V30 5361 C 522.997 1.8313 0.962864 0
M  V30 5362 C 523.412 0.630934 1.77946 0
M  V30 5363 O 522.769 -0.400519 1.78051 0
M  V30 5364 C 522.82 3.08742 1.88045 0
M  V30 5365 O 522.541 4.24147 1.09686 0
M  V30 5366 C 524.042 3.48824 2.73563 0
M  V30 5367 H 521.262 0.608775 0.282194 0
M  V30 5368 H 523.806 2.03124 0.23681 0
M  V30 5369 H 521.961 2.90723 2.56045 0
M  V30 5370 H 522.375 4.95505 1.71974 0
M  V30 5371 H 523.849 4.39752 3.3365 0
M  V30 5372 H 524.326 2.70575 3.45956 0
M  V30 5373 H 524.932 3.69282 2.10976 0
M  V30 5374 N 523.247 -0.488276 1.49845 0
M  V30 5375 C 524.177 -1.59675 1.70371 0
M  V30 5376 C 525.158 -1.60878 0.552473 0
M  V30 5377 O 526.343 -1.77417 0.78973 0
M  V30 5378 C 523.473 -2.98098 1.782 0
M  V30 5379 C 522.427 -3.11761 2.93239 0
M  V30 5380 C 521.753 -4.51661 2.86193 0
M  V30 5381 C 523.053 -2.90589 4.33999 0
M  V30 5382 H 524.747 -1.42752 2.63177 0
M  V30 5383 H 522.293 -0.685317 1.26647 0
M  V30 5384 H 524.246 -3.75555 1.91144 0
M  V30 5385 H 522.97 -3.16138 0.820018 0
M  V30 5386 H 521.629 -2.36732 2.79917 0
M  V30 5387 H 521.277 -4.66595 1.87877 0
M  V30 5388 H 520.977 -4.61742 3.63412 0
M  V30 5389 H 522.501 -5.31162 3.01163 0
M  V30 5390 H 523.915 -3.57807 4.47936 0
M  V30 5391 H 522.312 -3.1213 5.12538 0
M  V30 5392 H 523.382 -1.86595 4.4756 0
M  V30 5393 N 524.725 -1.39134 -0.740242 0
M  V30 5394 C 525.655 -1.40165 -1.86751 0
M  V30 5395 C 526.636 -0.265708 -1.68012 0
M  V30 5396 O 527.821 -0.47076 -1.88408 0
M  V30 5397 C 524.951 -1.2392 -3.2444 0
M  V30 5398 C 523.905 -2.34858 -3.57807 0
M  V30 5399 C 523.231 -2.03707 -4.94376 0
M  V30 5400 C 524.531 -3.77159 -3.61315 0
M  V30 5401 H 526.225 -2.345 -1.86145 0
M  V30 5402 H 523.771 -1.12875 -0.89416 0
M  V30 5403 H 525.724 -1.23263 -4.02969 0
M  V30 5404 H 524.448 -0.26051 -3.25559 0
M  V30 5405 H 523.107 -2.34723 -2.81604 0
M  V30 5406 H 522.755 -1.04289 -4.9207 0
M  V30 5407 H 522.455 -2.78016 -5.17669 0
M  V30 5408 H 523.979 -2.04691 -5.75268 0
M  V30 5409 H 525.393 -3.79252 -4.29931 0
M  V30 5410 H 523.79 -4.50784 -3.96124 0
M  V30 5411 H 524.86 -4.08513 -2.61238 0
M  V30 5412 N 526.204 0.969867 -1.24223 0
M  V30 5413 C 527.114 2.09806 -1.0497 0
M  V30 5414 C 528.13 1.73998 0.00886455 0
M  V30 5415 O 529.306 2.00513 -0.188848 0
M  V30 5416 C 526.371 3.40467 -0.654452 0
M  V30 5417 C 525.432 3.90236 -1.78926 0
M  V30 5418 C 524.665 5.14662 -1.41277 0
M  V30 5419 O 524.888 5.69602 -0.301632 0
M  V30 5420 O 523.822 5.58761 -2.23763 0
M  V30 5421 H 527.648 2.28942 -1.99548 0
M  V30 5422 H 525.233 1.08197 -1.03023 0
M  V30 5423 H 527.115 4.19039 -0.445452 0
M  V30 5424 H 525.79 3.22636 0.262216 0
M  V30 5425 H 524.697 3.12735 -2.05299 0
M  V30 5426 H 526.03 4.1254 -2.68462 0
M  V30 5427 N 527.682 1.05563 1.17022 0
M  V30 5428 C 528.645 0.664098 2.19368 0
M  V30 5429 C 529.645 -0.286358 1.5823 0
M  V30 5430 O 530.835 -0.069728 1.7406 0
M  V30 5431 C 527.967 -0.0239932 3.40892 0
M  V30 5432 H 529.16 1.57 2.55521 0
M  V30 5433 H 526.713 0.849964 1.31169 0
M  V30 5434 H 527.448 -0.942988 3.10287 0
M  V30 5435 H 527.233 0.659351 3.86516 0
M  V30 5436 H 528.723 -0.283909 4.16634 0
M  V30 5437 N 529.16 -1.33526 0.837174 0
M  V30 5438 C 530.385 -2.0258 0.444545 0
M  V30 5439 C 530.81 -1.6258 -0.946006 0
M  V30 5440 O 530.168 -0.817548 -1.6182 0
M  V30 5441 C 530.216 -3.5605 0.571006 0
M  V30 5442 O 529.32 -4.10422 -0.403431 0
M  V30 5443 H 528.661 -0.638866 0.180958 0
M  V30 5444 H 531.191 -1.70462 1.13154 0
M  V30 5445 H 531.201 -4.05488 0.452024 0
M  V30 5446 H 529.876 -3.84509 1.58512 0
M  V30 5447 H 528.453 -3.72113 -0.242147 0
M  V30 5448 N 530.638 -0.59345 -1.46 0
M  V30 5449 C 531.601 0.123538 -2.28867 0
M  V30 5450 C 532.601 0.808628 -1.38989 0
M  V30 5451 O 533.791 0.658945 -1.61256 0
M  V30 5452 C 530.923 1.1847 -3.19653 0
M  V30 5453 H 532.116 -0.604843 -2.93737 0
M  V30 5454 H 529.669 -0.351875 -1.52288 0
M  V30 5455 H 530.404 1.94431 -2.59552 0
M  V30 5456 H 530.189 0.69783 -3.8584 0
M  V30 5457 H 531.679 1.68726 -3.81997 0
M  V30 5458 N 532.116 1.54067 -0.331816 0
M  V30 5459 C 533.079 2.23275 0.517768 0
M  V30 5460 C 534.079 1.22897 1.03697 0
M  V30 5461 O 535.269 1.47419 0.928084 0
M  V30 5462 C 532.401 2.94326 1.72004 0
M  V30 5463 H 533.594 2.99773 -0.0873507 0
M  V30 5464 H 531.147 1.56079 -0.0830042 0
M  V30 5465 H 531.882 2.21986 2.36417 0
M  V30 5466 H 531.667 3.67941 1.35507 0
M  V30 5467 H 533.157 3.47031 2.32291 0
M  V30 5468 N 533.594 0.0601682 1.57485 0
M  V30 5469 C 535.005 -0.474217 1.80577 0
M  V30 5470 C 535.356 -1.70365 0.973147 0
M  V30 5471 O 534.481 -2.15544 0.192306 0
M  V30 5472 C 535.076 -0.867102 3.27516 0
M  V30 5473 C 533.635 -1.34642 3.51495 0
M  V30 5474 C 532.782 -0.32594 2.75378 0
M  V30 5475 H 535.733 0.285973 1.56102 0
M  V30 5476 H 535.754 -1.72938 3.38929 0
M  V30 5477 H 535.266 0.0278927 3.8809 0
M  V30 5478 H 533.367 -2.2603 2.96212 0
M  V30 5479 H 533.48 -1.33237 4.60201 0
M  V30 5480 H 531.844 -0.800749 2.41785 0
M  V30 5481 H 532.627 0.561125 3.38683 0
M  V30 5482 N 535.072 -1.5615 -0.213296 0
M  V30 5483 C 536.022 -1.89485 -1.26804 0
M  V30 5484 C 537.006 -0.758713 -1.41889 0
M  V30 5485 O 538.198 -1.02127 -1.44565 0
M  V30 5486 C 535.327 -2.22219 -2.61675 0
M  V30 5487 C 534.413 -3.42245 -2.50458 0
M  V30 5488 N 534.804 -4.60645 -2.089 0
M  V30 5489 C 533.102 -3.46023 -2.81397 0
M  V30 5490 C 533.803 -5.42805 -2.09135 0
M  V30 5491 N 532.779 -4.82732 -2.49941 0
M  V30 5492 H 536.581 -2.78537 -0.937771 0
M  V30 5493 H 534.095 -1.56826 -0.421824 0
M  V30 5494 H 536.092 -2.44278 -3.37837 0
M  V30 5495 H 534.752 -1.34484 -2.95541 0
M  V30 5496 H 535.763 -4.85651 -1.79899 0
M  V30 5497 H 532.44 -2.68654 -3.1958 0
M  V30 5498 H 533.83 -6.47601 -1.79059 0
M  V30 5499 N 536.55 0.480323 -1.50102 0
M  V30 5500 C 537.513 1.56181 -1.6775 0
M  V30 5501 C 538.513 1.51156 -0.548503 0
M  V30 5502 O 539.703 1.5394 -0.815363 0
M  V30 5503 C 536.835 2.95823 -1.69415 0
M  V30 5504 H 538.028 1.41855 -2.6423 0
M  V30 5505 H 535.581 0.70605 -1.39444 0
M  V30 5506 H 536.316 3.15604 -0.745948 0
M  V30 5507 H 536.101 3.00878 -2.51425 0
M  V30 5508 H 537.591 3.74359 -1.85054 0
M  V30 5509 N 538.028 1.39524 0.732853 0
M  V30 5510 C 538.961 1.32806 1.85574 0
M  V30 5511 C 539.939 0.201354 1.61348 0
M  V30 5512 O 541.123 0.38216 1.84585 0
M  V30 5513 C 538.25 1.06271 3.21596 0
M  V30 5514 C 537.296 2.21161 3.64678 0
M  V30 5515 S 538.129 3.83454 3.73796 0
M  V30 5516 C 539.285 3.59149 5.12604 0
M  V30 5517 H 539.518 2.27838 1.9099 0
M  V30 5518 H 537.051 1.25605 0.897927 0
M  V30 5519 H 539.009 0.916461 4.00139 0
M  V30 5520 H 537.67 0.129223 3.13834 0
M  V30 5521 H 536.863 1.98193 4.63396 0
M  V30 5522 H 536.465 2.32 2.93346 0
M  V30 5523 H 538.757 3.16547 5.99003 0
M  V30 5524 H 539.7 4.57335 5.40602 0
M  V30 5525 H 540.108 2.93203 4.82382 0
M  V30 5526 N 539.506 -0.963266 1.24736 0
M  V30 5527 C 540.922 -1.23273 1.01371 0
M  V30 5528 C 541.122 -1.99618 -0.274776 0
M  V30 5529 O 540.178 -2.32293 -0.989769 0
M  V30 5530 C 541.491 -2.01554 2.23152 0
M  V30 5531 C 543.039 -2.14629 2.27823 0
M  V30 5532 C 543.514 -2.96307 3.49237 0
M  V30 5533 N 545.005 -3.03887 3.49581 0
M  V30 5534 C 545.74 -3.67456 4.40186 0
M  V30 5535 N 545.236 -4.32706 5.41052 0
M  V30 5536 N 547.029 -3.64511 4.27888 0
M  V30 5537 H 539.18 -0.452294 2.07528 0
M  V30 5538 H 541.443 -0.262521 0.910926 0
M  V30 5539 H 541.149 -1.52847 3.1675 0
M  V30 5540 H 541.023 -3.02278 2.25628 0
M  V30 5541 H 543.41 -2.62537 1.34753 0
M  V30 5542 H 543.491 -1.13238 2.2937 0
M  V30 5543 H 543.135 -2.49091 4.42624 0
M  V30 5544 H 543.065 -3.97905 3.44933 0
M  V30 5545 H 545.556 -2.57477 2.76611 0
M  V30 5546 H 545.869 -4.79042 6.06415 0
M  V30 5547 H 544.214 -4.31361 5.44934 0
M  V30 5548 H 547.405 -3.12715 3.4832 0
M  V30 5549 H 547.578 -4.13768 4.98698 0
M  V30 5550 N 540.985 -1.06182 -1.16461 0
M  V30 5551 C 541.935 -0.641619 -2.18786 0
M  V30 5552 C 542.919 0.327122 -1.5754 0
M  V30 5553 O 544.111 0.142746 -1.76423 0
M  V30 5554 C 541.24 -0.0283734 -3.43288 0
M  V30 5555 C 540.326 -1.02154 -4.11613 0
M  V30 5556 N 540.717 -2.19671 -4.55608 0
M  V30 5557 C 539.015 -0.852229 -4.37782 0
M  V30 5558 C 539.716 -2.82583 -5.0845 0
M  V30 5559 N 538.692 -2.10318 -5.01266 0
M  V30 5560 H 542.494 -1.53684 -2.50516 0
M  V30 5561 H 540.008 -0.933349 -1.329 0
M  V30 5562 H 542.005 0.29049 -4.15887 0
M  V30 5563 H 540.665 0.862118 -3.13046 0
M  V30 5564 H 541.676 -2.57453 -4.49375 0
M  V30 5565 H 538.353 -0.0136314 -4.17498 0
M  V30 5566 H 539.743 -3.82298 -5.52538 0
M  V30 5567 N 542.463 1.3308 -0.844243 0
M  V30 5568 C 543.712 1.96868 -0.438833 0
M  V30 5569 C 544.025 1.67599 1.00846 0
M  V30 5570 O 545.231 2.25043 1.51881 0
M  V30 5571 C 543.687 3.5234 -0.73377 0
M  V30 5572 C 543.295 3.90481 -2.1961 0
M  V30 5573 C 545.039 4.22653 -0.395574 0
M  V30 5574 C 542.946 5.38954 -2.43481 0
M  V30 5575 H 541.876 0.736749 -0.160364 0
M  V30 5576 H 544.527 1.51623 -1.03358 0
M  V30 5577 H 542.909 3.95941 -0.068589 0
M  V30 5578 H 544.083 3.57922 -2.90221 0
M  V30 5579 H 542.398 3.33165 -2.4978 0
M  V30 5580 H 544.995 5.31848 -0.551477 0
M  V30 5581 H 545.338 4.11004 0.661921 0
M  V30 5582 H 545.871 3.84601 -1.01621 0
M  V30 5583 H 542.61 5.55612 -3.47816 0
M  V30 5584 H 542.13 5.72954 -1.77437 0
M  V30 5585 H 543.809 6.05907 -2.26905 0
M  V30 5586 N 543.941 0.601185 1.45683 0
M  V30 5587 C 544.873 -0.159446 2.28645 0
M  V30 5588 C 545.886 -0.837882 1.39583 0
M  V30 5589 O 547.075 -0.704344 1.64016 0
M  V30 5590 C 544.175 -1.24641 3.15147 0
M  V30 5591 C 543.348 -0.656334 4.32448 0
M  V30 5592 C 542.407 -1.63337 5.00208 0
M  V30 5593 O 541.433 -1.16217 5.57209 0
M  V30 5594 N 542.635 -2.96773 4.98905 0
M  V30 5595 H 545.4 0.5524 2.94565 0
M  V30 5596 H 542.961 0.440223 1.558 0
M  V30 5597 H 544.953 -1.8997 3.57342 0
M  V30 5598 H 543.523 -1.86087 2.51178 0
M  V30 5599 H 542.743 0.174879 3.93812 0
M  V30 5600 H 544.031 -0.242211 5.08223 0
M  V30 5601 H 543.429 -3.37662 4.53873 0
M  V30 5602 H 541.986 -3.57541 5.44984 0
M  V30 5603 N 545.419 -1.53889 0.339982 0
M  V30 5604 C 546.329 -2.28604 -0.526988 0
M  V30 5605 C 547.345 -1.33578 -1.11503 0
M  V30 5606 O 548.521 -1.66612 -1.13148 0
M  V30 5607 C 545.586 -3.04164 -1.66389 0
M  V30 5608 C 544.647 -4.14809 -1.10599 0
M  V30 5609 C 543.88 -4.86756 -2.18871 0
M  V30 5610 O 544.103 -4.58343 -3.39526 0
M  V30 5611 O 543.037 -5.73289 -1.83366 0
M  V30 5612 H 546.863 -3.03594 0.0802707 0
M  V30 5613 H 544.448 -1.4903 0.105141 0
M  V30 5614 H 546.33 -3.51427 -2.32544 0
M  V30 5615 H 545.005 -2.32035 -2.25703 0
M  V30 5616 H 543.912 -3.71857 -0.409067 0
M  V30 5617 H 545.245 -4.89029 -0.557771 0
M  V30 5618 N 546.897 -0.0685191 -1.57451 0
M  V30 5619 C 547.847 0.909895 -2.09057 0
M  V30 5620 C 548.831 1.26088 -0.999528 0
M  V30 5621 O 550.023 1.24041 -1.26265 0
M  V30 5622 C 547.152 2.17863 -2.65312 0
M  V30 5623 C 546.238 1.85427 -3.81415 0
M  V30 5624 N 546.629 1.23426 -4.9051 0
M  V30 5625 C 544.927 2.15196 -3.90649 0
M  V30 5626 C 545.628 1.09008 -5.71395 0
M  V30 5627 N 544.604 1.59871 -5.1956 0
M  V30 5628 H 548.406 0.426145 -2.90794 0
M  V30 5629 H 545.92 0.135462 -1.61834 0
M  V30 5630 H 547.917 2.88872 -3.00597 0
M  V30 5631 H 546.577 2.66829 -1.85021 0
M  V30 5632 H 547.588 0.904305 -5.09944 0
M  V30 5633 H 544.265 2.66562 -3.21327 0
M  V30 5634 H 545.655 0.607305 -6.6915 0
M  V30 5635 N 548.375 1.56261 0.205012 0
M  V30 5636 C 549.605 1.83874 0.942018 0
M  V30 5637 C 550.013 0.647595 1.77772 0
M  V30 5638 O 549.356 -0.393098 1.79445 0
M  V30 5639 C 549.418 3.05453 1.89575 0
M  V30 5640 C 549.082 4.39772 1.24296 0
M  V30 5641 C 550.079 5.16133 0.624724 0
M  V30 5642 C 547.764 4.86504 1.24978 0
M  V30 5643 C 549.758 6.37396 0.0220117 0
M  V30 5644 C 547.445 6.07705 0.643232 0
M  V30 5645 C 548.443 6.82993 0.0304164 0
M  V30 5646 O 548.131 8.019 -0.566654 0
M  V30 5647 H 547.863 0.614896 0.280854 0
M  V30 5648 H 550.417 2.04215 0.220285 0
M  V30 5649 H 548.647 2.80972 2.65691 0
M  V30 5650 H 550.336 3.19797 2.4997 0
M  V30 5651 H 551.102 4.81127 0.611666 0
M  V30 5652 H 546.981 4.27865 1.71616 0
M  V30 5653 H 550.525 6.96102 -0.456926 0
M  V30 5654 H 546.422 6.42181 0.653759 0
M  V30 5655 H 547.19 8.17192 -0.462588 0
M  V30 5656 N 549.853 -0.472356 1.50355 0
M  V30 5657 C 551.101 -1.22211 1.60962 0
M  V30 5658 C 551.422 -1.92497 0.311439 0
M  V30 5659 O 550.692 -1.8405 -0.671002 0
M  V30 5660 H 549.272 -0.454092 0.593135 0
M  V30 5661 H 551.934 -0.544977 1.87126 0
M  V30 5662 H 551.03 -1.9707 2.42012 0
M  V30 5663 N 551.331 -1.39911 -0.725443 0
M  V30 5664 C 552.579 -1.37382 -1.48224 0
M  V30 5665 C 552.9 0.0264107 -1.94982 0
M  V30 5666 O 552.17 0.979408 -1.6966 0
M  V30 5667 H 550.75 -0.505596 -0.549892 0
M  V30 5668 H 553.412 -1.7487 -0.860608 0
M  V30 5669 H 552.508 -2.04254 -2.3598 0
M  V30 5670 N 552.809 0.956637 -1.25245 0
M  V30 5671 C 554.037 1.73571 -1.12608 0
M  V30 5672 C 554.452 1.86063 0.320324 0
M  V30 5673 O 553.809 1.35691 1.22042 0
M  V30 5674 C 553.86 3.15053 -1.77268 0
M  V30 5675 O 553.581 3.03174 -3.16255 0
M  V30 5676 C 555.082 4.09248 -1.70386 0
M  V30 5677 H 552.302 0.543955 -0.392879 0
M  V30 5678 H 554.846 1.20031 -1.65568 0
M  V30 5679 H 553.001 3.65543 -1.28284 0
M  V30 5680 H 553.415 3.9241 -3.48015 0
M  V30 5681 H 554.889 5.06138 -2.20291 0
M  V30 5682 H 555.366 4.34102 -0.667239 0
M  V30 5683 H 555.972 3.64672 -2.18849 0
M  V30 5684 N 554.287 1.06798 1.15896 0
M  V30 5685 C 555.25 0.687328 2.18651 0
M  V30 5686 C 556.25 -0.269559 1.58524 0
M  V30 5687 O 557.44 -0.0512627 1.74125 0
M  V30 5688 C 554.572 0.0121642 3.40898 0
M  V30 5689 H 555.765 1.59701 2.53842 0
M  V30 5690 H 553.318 0.863828 1.3026 0
M  V30 5691 H 554.053 -0.910025 3.1127 0
M  V30 5692 H 553.838 0.700309 3.85795 0
M  V30 5693 H 555.328 -0.239703 4.16911 0
M  V30 5694 N 555.766 -1.3263 0.851289 0
M  V30 5695 C 556.994 -2.01563 0.466899 0
M  V30 5696 C 557.409 -1.63996 -0.935447 0
M  V30 5697 O 556.766 -0.85957 -1.6099 0
M  V30 5698 C 556.817 -3.56613 0.592433 0
M  V30 5699 O 556.538 -3.92828 1.93954 0
M  V30 5700 C 558.039 -4.42818 0.206612 0
M  V30 5701 H 555.259 -0.645307 0.183902 0
M  V30 5702 H 557.803 -1.69285 1.1473 0
M  V30 5703 H 555.958 -3.87379 -0.0401936 0
M  V30 5704 H 556.372 -4.87545 1.9339 0
M  V30 5705 H 557.846 -5.50918 0.345462 0
M  V30 5706 H 558.323 -4.30844 -0.85264 0
M  V30 5707 H 558.929 -4.17434 0.814176 0
M  V30 5708 N 557.244 -0.608902 -1.45362 0
M  V30 5709 C 558.491 -0.104607 -2.0223 0
M  V30 5710 C 558.819 1.26534 -1.47714 0
M  V30 5711 O 558.074 1.84855 -0.642435 0
M  V30 5712 C 558.373 -0.0167296 -3.57396 0
M  V30 5713 C 558.039 -1.32251 -4.31069 0
M  V30 5714 C 556.701 -1.68019 -4.50914 0
M  V30 5715 C 559.053 -2.18542 -4.73169 0
M  V30 5716 C 556.381 -2.89828 -5.10114 0
M  V30 5717 C 558.733 -3.39602 -5.33717 0
M  V30 5718 C 557.397 -3.7562 -5.51784 0
M  V30 5719 H 556.667 -0.0382785 -0.740011 0
M  V30 5720 H 559.314 -0.790782 -1.7441 0
M  V30 5721 H 557.619 0.752715 -3.84502 0
M  V30 5722 H 559.316 0.389634 -3.99103 0
M  V30 5723 H 555.906 -1.03411 -4.15938 0
M  V30 5724 H 560.09 -1.92208 -4.5757 0
M  V30 5725 H 555.346 -3.17839 -5.22291 0
M  V30 5726 H 559.52 -4.06716 -5.65292 0
M  V30 5727 H 557.147 -4.70093 -5.97425 0
M  V30 5728 N 558.722 1.53707 -0.348139 0
M  V30 5729 C 559.952 2.05108 0.247864 0
M  V30 5730 C 560.36 1.22252 1.44399 0
M  V30 5731 O 559.703 0.251853 1.81965 0
M  V30 5732 C 559.765 3.52171 0.722187 0
M  V30 5733 C 559.429 4.5562 -0.354902 0
M  V30 5734 C 560.426 5.05883 -1.19911 0
M  V30 5735 C 558.111 4.99703 -0.510145 0
M  V30 5736 C 560.105 5.98814 -2.18406 0
M  V30 5737 C 557.792 5.92443 -1.49848 0
M  V30 5738 C 558.79 6.41887 -2.33389 0
M  V30 5739 O 558.478 7.32802 -3.3054 0
M  V30 5740 H 558.21 0.674086 0.0508296 0
M  V30 5741 H 560.764 1.99229 -0.49968 0
M  V30 5742 H 558.994 3.55529 1.52105 0
M  V30 5743 H 560.683 3.8652 1.23925 0
M  V30 5744 H 561.449 4.72586 -1.09028 0
M  V30 5745 H 557.328 4.60816 0.130274 0
M  V30 5746 H 560.872 6.3733 -2.83649 0
M  V30 5747 H 556.769 6.25155 -1.60786 0
M  V30 5748 H 557.537 7.50749 -3.26064 0
M  V30 5749 N 560.2 0.0768682 1.57412 0
M  V30 5750 C 561.13 -0.886026 2.16037 0
M  V30 5751 C 562.111 -1.30691 1.08876 0
M  V30 5752 O 563.296 -1.37705 1.36934 0
M  V30 5753 C 560.426 -2.1518 2.72608 0
M  V30 5754 C 559.38 -1.87015 3.8498 0
M  V30 5755 C 558.706 -3.20266 4.28175 0
M  V30 5756 C 560.006 -1.17143 5.08994 0
M  V30 5757 H 561.7 -0.397642 2.96748 0
M  V30 5758 H 559.246 -0.189823 1.42743 0
M  V30 5759 H 561.199 -2.82962 3.12266 0
M  V30 5760 H 559.923 -2.66269 1.89125 0
M  V30 5761 H 558.582 -1.21636 3.45833 0
M  V30 5762 H 558.23 -3.69207 3.41607 0
M  V30 5763 H 557.93 -3.0221 5.03927 0
M  V30 5764 H 559.454 -3.89237 4.70454 0
M  V30 5765 H 560.868 -1.75003 5.45937 0
M  V30 5766 H 559.265 -1.09328 5.90057 0
M  V30 5767 H 560.335 -0.151295 4.84664 0
M  V30 5768 N 561.678 -1.56367 -0.196722 0
M  V30 5769 C 562.903 -1.84991 -0.937714 0
M  V30 5770 C 563.328 -0.660244 -1.76132 0
M  V30 5771 O 562.686 0.390967 -1.77034 0
M  V30 5772 C 562.734 -3.11828 -1.81096 0
M  V30 5773 O 561.838 -2.92266 -2.90955 0
M  V30 5774 H 561.179 -0.609193 -0.264159 0
M  V30 5775 H 563.709 -2.03595 -0.202529 0
M  V30 5776 H 563.719 -3.42579 -2.21594 0
M  V30 5777 H 562.394 -3.98037 -1.2058 0
M  V30 5778 H 560.971 -2.72809 -2.54224 0
M  V30 5779 N 563.156 0.464375 -1.50603 0
M  V30 5780 C 564.088 1.57916 -1.66118 0
M  V30 5781 C 565.101 1.53497 -0.54246 0
M  V30 5782 O 566.29 1.58763 -0.815877 0
M  V30 5783 C 563.39 2.96809 -1.63577 0
M  V30 5784 C 562.563 3.26026 -2.91592 0
M  V30 5785 C 561.622 4.44506 -2.81604 0
M  V30 5786 O 560.648 4.44484 -3.55559 0
M  V30 5787 N 561.85 5.46549 -1.95614 0
M  V30 5788 H 564.615 1.45022 -2.62276 0
M  V30 5789 H 562.176 0.652903 -1.48151 0
M  V30 5790 H 564.168 3.74048 -1.54499 0
M  V30 5791 H 562.738 3.03438 -0.751262 0
M  V30 5792 H 561.958 2.37337 -3.14746 0
M  V30 5793 H 563.246 3.42361 -3.76386 0
M  V30 5794 H 562.644 5.49391 -1.34854 0
M  V30 5795 H 561.201 6.22746 -1.92435 0
M  V30 5796 N 564.634 1.40294 0.718013 0
M  V30 5797 C 565.597 1.4012 1.81381 0
M  V30 5798 C 566.597 0.295405 1.58063 0
M  V30 5799 O 567.787 0.554187 1.6515 0
M  V30 5800 C 564.919 1.19056 3.19435 0
M  V30 5801 H 566.112 2.37645 1.82933 0
M  V30 5802 H 563.665 1.26107 0.923405 0
M  V30 5803 H 564.4 0.222809 3.23534 0
M  V30 5804 H 564.185 1.99152 3.37758 0
M  V30 5805 H 565.675 1.21716 3.99468 0
M  V30 5806 N 566.112 -0.949982 1.2575 0
M  V30 5807 C 567.075 -2.02894 1.06615 0
M  V30 5808 C 568.075 -1.60791 0.0173905 0
M  V30 5809 O 569.265 -1.72249 0.260003 0
M  V30 5810 C 566.397 -3.35219 0.619751 0
M  V30 5811 H 567.59 -2.21302 2.02399 0
M  V30 5812 H 565.143 -1.12772 1.08223 0
M  V30 5813 H 565.878 -3.22508 -0.340486 0
M  V30 5814 H 565.663 -3.67129 1.37692 0
M  V30 5815 H 567.153 -4.14505 0.507443 0
M  V30 5816 N 567.59 -1.07411 -1.15328 0
M  V30 5817 C 568.867 -0.710732 -1.82231 0
M  V30 5818 C 569.247 0.806732 -1.95077 0
M  V30 5819 O 568.595 1.72139 -1.50268 0
M  V30 5820 C 568.805 -1.42586 -3.18544 0
M  V30 5821 C 570.153 -1.57836 -3.94174 0
M  V30 5822 O 571.177 -1.38669 -3.281 0
M  V30 5823 O 570.036 -1.8938 -5.12638 0
M  V30 5824 H 567.13 -0.25297 -0.78736 0
M  V30 5825 H 569.676 -1.17508 -1.22434 0
M  V30 5826 H 568.448 -2.46008 -3.04296 0
M  V30 5827 H 568.071 -0.952332 -3.86026 0
M  V30 5828 N 569.068 1.32177 -0.85831 0
M  V30 5829 C 570.316 1.96735 -0.462568 0
M  V30 5830 C 570.637 1.6824 0.985911 0
M  V30 5831 O 569.907 0.991564 1.68952 0
M  V30 5832 H 568.487 0.727849 -0.168064 0
M  V30 5833 H 571.149 1.61195 -1.09554 0
M  V30 5834 H 570.245 3.06068 -0.610647 0
M  V30 5835 N 570.547 0.616602 1.45037 0
M  V30 5836 C 571.51 -0.0871112 2.29034 0
M  V30 5837 C 572.51 -0.786414 1.40258 0
M  V30 5838 O 573.7 -0.633207 1.62284 0
M  V30 5839 C 570.832 -1.13369 3.21497 0
M  V30 5840 H 572.025 0.651497 2.92738 0
M  V30 5841 H 569.578 0.376058 1.51709 0
M  V30 5842 H 570.313 -1.90277 2.62612 0
M  V30 5843 H 570.098 -0.636358 3.86902 0
M  V30 5844 H 571.588 -1.62627 3.84633 0
M  V30 5845 N 572.025 -1.5352 0.356285 0
M  V30 5846 C 572.972 -2.25439 -0.494569 0
M  V30 5847 C 573.942 -1.25752 -1.08516 0
M  V30 5848 O 575.127 -1.54513 -1.1194 0
M  V30 5849 C 572.267 -3.04011 -1.63313 0
M  V30 5850 C 571.38 -4.18574 -1.06862 0
M  V30 5851 C 570.515 -4.84607 -2.17552 0
M  V30 5852 C 569.554 -5.91218 -1.58518 0
M  V30 5853 N 568.691 -6.50979 -2.63003 0
M  V30 5854 H 573.531 -2.97737 0.125244 0
M  V30 5855 H 571.068 -1.46916 0.0735789 0
M  V30 5856 H 573.026 -3.47834 -2.30363 0
M  V30 5857 H 571.656 -2.33986 -2.22374 0
M  V30 5858 H 570.708 -3.79303 -0.288672 0
M  V30 5859 H 572.02 -4.95215 -0.596924 0
M  V30 5860 H 571.174 -5.31566 -2.92442 0
M  V30 5861 H 569.913 -4.07418 -2.6807 0
M  V30 5862 H 568.918 -5.4363 -0.821391 0
M  V30 5863 H 570.143 -6.70322 -1.08836 0
M  V30 5864 H 568.089 -5.76648 -3.12751 0
M  V30 5865 H 568.006 -7.23131 -2.20493 0
M  V30 5866 H 569.274 -7.02589 -3.37623 0
M  V30 5867 N 573.503 -0.0852151 -1.57369 0
M  V30 5868 C 574.749 0.581666 -1.94279 0
M  V30 5869 C 575.082 1.68444 -0.966446 0
M  V30 5870 O 574.357 1.945 0.00215277 0
M  V30 5871 C 574.64 1.14609 -3.41375 0
M  V30 5872 C 574.493 0.0490414 -4.49773 0
M  V30 5873 C 575.812 2.04751 -3.8957 0
M  V30 5874 H 572.931 0.209972 -0.706456 0
M  V30 5875 H 575.573 -0.153915 -1.89376 0
M  V30 5876 H 573.723 1.77297 -3.45685 0
M  V30 5877 H 575.395 -0.584721 -4.57579 0
M  V30 5878 H 573.638 -0.618638 -4.29366 0
M  V30 5879 H 574.309 0.484601 -5.49869 0
M  V30 5880 H 576.785 1.51981 -3.87351 0
M  V30 5881 H 575.661 2.41173 -4.93079 0
M  V30 5882 H 575.922 2.96107 -3.28288 0
M  V30 5883 N 574.981 1.5647 0.188427 0
M  V30 5884 C 575.911 1.98101 1.23606 0
M  V30 5885 C 576.892 0.853961 1.47111 0
M  V30 5886 O 578.077 1.11879 1.58735 0
M  V30 5887 C 575.207 2.32624 2.57882 0
M  V30 5888 C 574.161 3.48129 2.48978 0
M  V30 5889 C 573.487 3.68347 3.87588 0
M  V30 5890 C 574.787 4.82112 2.00911 0
M  V30 5891 H 576.481 2.85864 0.890068 0
M  V30 5892 H 574.027 1.37532 0.426714 0
M  V30 5893 H 575.98 2.60343 3.3136 0
M  V30 5894 H 574.704 1.41751 2.94235 0
M  V30 5895 H 573.363 3.20511 1.77956 0
M  V30 5896 H 573.011 2.74793 4.21305 0
M  V30 5897 H 572.711 4.46055 3.82503 0
M  V30 5898 H 574.235 3.98449 4.62678 0
M  V30 5899 H 575.649 5.08819 2.64151 0
M  V30 5900 H 574.046 5.63337 2.06814 0
M  V30 5901 H 575.116 4.75249 0.96262 0
M  V30 5902 N 576.459 -0.456382 1.50847 0
M  V30 5903 C 577.699 -1.21704 1.64218 0
M  V30 5904 C 578.063 -1.88932 0.341859 0
M  V30 5905 O 579.264 -2.66497 0.351137 0
M  V30 5906 C 577.535 -2.22162 2.79962 0
M  V30 5907 S 579.094 -3.0697 3.13552 0
M  V30 5908 H 575.912 -0.412995 0.578754 0
M  V30 5909 H 578.514 -0.511637 1.88686 0
M  V30 5910 H 577.218 -1.71379 3.72904 0
M  V30 5911 H 576.749 -2.9731 2.57624 0
M  V30 5912 H 578.764 -4.23539 2.58513 0
M  V30 5913 N 577.937 -1.40673 -0.710563 0
M  V30 5914 C 578.867 -1.44095 -1.83736 0
M  V30 5915 C 579.848 -0.301286 -1.67411 0
M  V30 5916 O 581.033 -0.510618 -1.87367 0
M  V30 5917 C 578.163 -1.30773 -3.21738 0
M  V30 5918 C 577.117 -2.42395 -3.52745 0
M  V30 5919 C 576.443 -2.14147 -4.89944 0
M  V30 5920 C 577.743 -3.84738 -3.53234 0
M  V30 5921 H 579.437 -2.38396 -1.81129 0
M  V30 5922 H 576.983 -1.14746 -0.870017 0
M  V30 5923 H 578.936 -1.31783 -4.00264 0
M  V30 5924 H 577.66 -0.329507 -3.24934 0
M  V30 5925 H 576.319 -2.40643 -2.76562 0
M  V30 5926 H 575.967 -1.14703 -4.89747 0
M  V30 5927 H 575.667 -2.88934 -5.11655 0
M  V30 5928 H 577.191 -2.16848 -5.70797 0
M  V30 5929 H 578.605 -3.88286 -4.2179 0
M  V30 5930 H 577.002 -4.59085 -3.86473 0
M  V30 5931 H 578.072 -4.13962 -2.52514 0
M  V30 5932 O 579.454 0.8523 -1.37179 0
M  V30 5933 H 580.145 1.49284 -1.23425 0
M  V30 END ATOM
M  V30 BEGIN BOND
M  V30 END BOND
M  V30 END CTAB
M  END
$$$$
